data_functionalizedCrystal
_audit_creation_method	'MofGen! by Chris Wilmer'
_symmetry_space_group_name_H-M	'P1'
_symmetry_Int_Tables_number	1
_symmetry_cell_setting	triclinic
loop_
_symmetry_equiv_pos_as_xyz
  x,y,z
_cell_length_a	21.295420
_cell_length_b	21.295417
_cell_length_c	18.101389
_cell_angle_alpha	90.022566
_cell_angle_beta	90.019054
_cell_angle_gamma	90.026289
loop_
_atom_site_label
_atom_site_type_symbol
_atom_site_fract_x
_atom_site_fract_y
_atom_site_fract_z
Zn1	Zn	0.962321	-0.250746	0.418713
Zn2	Zn	1.462321	0.249254	0.918713
Zn3	Zn	0.962233	-0.356000	0.294863
Zn4	Zn	1.462233	0.144000	0.794863
Zn5	Zn	0.857054	-0.250740	0.294886
Zn6	Zn	1.357054	0.249260	0.794886
Zn7	Zn	0.857014	-0.355974	0.418663
Zn8	Zn	1.357014	0.144026	0.918663
O9	O	0.909656	-0.303365	0.356781
O10	O	1.409656	0.196635	0.856781
O11	O	1.050399	-0.264721	0.402296
O12	O	1.550399	0.235279	0.902296
O13	O	0.948262	-0.342045	0.191233
O14	O	1.448262	0.157955	0.691233
O15	O	0.871072	-0.162652	0.311342
O16	O	1.371072	0.337348	0.811342
O17	O	1.050334	-0.342051	0.311303
O18	O	1.550334	0.157949	0.811303
O19	O	0.948411	-0.162656	0.402318
O20	O	1.448411	0.337344	0.902318
O21	O	0.870987	-0.264712	0.191250
O22	O	1.370987	0.235288	0.691250
O23	O	0.768960	-0.264687	0.311294
O24	O	1.268960	0.235313	0.811294
O25	O	0.871002	-0.342006	0.522302
O26	O	1.371002	0.157994	1.022302
O27	O	0.768930	-0.342001	0.402232
O28	O	1.268930	0.157999	0.902232
O29	O	0.948371	-0.264696	0.522339
O30	O	1.448371	0.235304	1.022339
O31	O	0.948222	-0.444086	0.311254
O32	O	1.448222	0.055914	0.811254
O33	O	0.870918	-0.444066	0.402210
O34	O	1.370918	0.055934	0.902210
C35	C	0.746104	-0.303341	0.356760
C36	C	1.246104	0.196659	0.856760
C37	C	0.676136	-0.303346	0.356769
C38	C	1.176136	0.196654	0.856769
C39	C	0.176711	-0.263194	0.404249
C40	C	0.676711	0.236806	0.904249
C41	C	0.242453	-0.263190	0.404249
C42	C	0.742453	0.236810	0.904249
C43	C	0.275296	-0.303384	0.356798
C44	C	0.775296	0.196616	0.856798
C45	C	0.242392	-0.343597	0.309358
C46	C	0.742392	0.156403	0.809358
C47	C	0.176650	-0.343605	0.309364
C48	C	0.676650	0.156395	0.809364
N49	N	0.378492	-0.308121	0.291953
N50	N	0.878492	0.191879	0.791953
N51	N	0.440943	-0.308109	0.291948
N52	N	0.940943	0.191891	0.791948
C53	C	0.473371	-0.303363	0.356777
C54	C	0.973371	0.196637	0.856777
N55	N	0.440988	-0.298617	0.421610
N56	N	0.940988	0.201383	0.921610
N57	N	0.378531	-0.298625	0.421614
N58	N	0.878531	0.201375	0.921614
C59	C	0.346582	-0.303380	0.356786
C60	C	0.846582	0.196620	0.856786
C61	C	0.577553	-0.263151	0.404218
C62	C	1.077553	0.236849	0.904218
C63	C	0.643297	-0.263150	0.404219
C64	C	1.143297	0.236850	0.904219
C65	C	0.643234	-0.343555	0.309321
C66	C	1.143234	0.156445	0.809321
C67	C	0.577492	-0.343558	0.309327
C68	C	1.077492	0.156442	0.809327
C69	C	0.544655	-0.303353	0.356774
C70	C	1.044655	0.196647	0.856774
C71	C	0.909573	-0.466917	0.356740
C72	C	1.409573	0.033083	0.856740
C73	C	0.909595	-0.536885	0.356747
C74	C	1.409595	-0.036885	0.856747
C75	C	0.949884	-0.569740	0.309435
C76	C	1.449884	-0.069740	0.809435
C77	C	0.949913	-0.635483	0.309452
C78	C	1.449913	-0.135483	0.809452
C79	C	0.909643	-0.668367	0.356773
C80	C	1.409643	-0.168367	0.856773
C81	C	0.869352	-0.635504	0.404094
C82	C	1.369352	-0.135504	0.904094
C83	C	0.869328	-0.569762	0.404081
C84	C	1.369328	-0.069762	0.904081
N85	N	0.854576	-0.771630	0.362411
N86	N	1.354576	-0.271630	0.862411
N87	N	0.854600	-0.834081	0.362419
N88	N	1.354600	-0.334081	0.862419
C89	C	0.909714	-0.866442	0.356815
C90	C	1.409714	-0.366442	0.856815
N91	N	0.964803	-0.833992	0.351189
N92	N	1.464803	-0.333992	0.851189
N93	N	0.964778	-0.771535	0.351177
N94	N	1.464778	-0.271535	0.851177
C95	C	0.909665	-0.739653	0.356792
C96	C	1.409665	-0.239653	0.856792
C97	C	0.950037	-0.970583	0.309519
C98	C	1.450037	-0.470583	0.809519
C99	C	0.950068	-1.036327	0.309541
C100	C	1.450068	-0.536327	0.809541
C101	C	0.869501	-1.036346	0.404179
C102	C	1.369501	-0.536346	0.904179
C103	C	0.869476	-0.970604	0.404161
C104	C	1.369476	-0.470604	0.904161
C105	C	0.909743	-0.937726	0.356827
C106	C	1.409743	-0.437726	0.856827
C107	C	1.073846	-0.303390	0.356803
C108	C	1.573846	0.196610	0.856803
C109	C	1.143814	-0.303400	0.356812
C110	C	1.643814	0.196600	0.856812
C111	C	0.909692	-0.303349	0.549943
C112	C	1.409692	0.196651	1.049943
C113	C	0.909707	-0.303342	0.632257
C114	C	1.409707	0.196658	1.132257
C115	C	0.909756	-0.139175	0.356838
C116	C	1.409756	0.360825	0.856838
C117	C	0.909798	-0.069207	0.356863
C118	C	1.409798	0.430793	0.856863
C119	C	0.909656	-0.303335	0.164371
C120	C	1.409656	0.196665	0.664371
C121	C	0.909762	-0.303165	0.082057
C122	C	1.409762	0.196835	0.582057
C123	C	0.909744	-0.303224	0.931348
C124	C	1.409744	0.196776	1.431348
C125	C	0.860898	-0.351711	0.900000
C126	C	1.360898	0.148289	1.400000
C127	C	0.861030	-0.351936	0.814381
C128	C	1.361030	0.148064	1.314381
C129	C	0.909725	-0.303283	0.782966
C130	C	1.409725	0.196717	1.282966
C131	C	0.976048	-0.321294	0.814063
C132	C	1.476048	0.178706	1.314063
C133	C	0.975776	-0.321613	0.899708
C134	C	1.475776	0.178387	1.399708
C135	C	0.892844	-0.236618	0.899780
C136	C	1.392844	0.263382	1.399780
C137	C	0.891368	-0.237003	0.814129
C138	C	1.391368	0.262997	1.314129
C139	C	0.909719	-0.303315	0.699106
C140	C	1.409719	0.196685	1.199106
C141	C	0.909755	-0.303194	1.015208
C142	C	1.409755	0.196806	1.515208
H143	H	0.149866	-0.376347	0.270734
H144	H	0.649866	0.123653	0.770734
C145	C	0.541304	-0.387777	0.257136
C146	C	1.041304	0.112223	0.757136
H147	H	0.570278	-0.411712	0.228871
H148	H	1.070278	0.088288	0.728871
H149	H	0.515657	-0.415242	0.285406
H150	H	1.015657	0.084758	0.785406
H151	H	0.515657	-0.363655	0.224920
H152	H	1.015657	0.136345	0.724920
C153	C	0.278513	-0.387814	0.257165
C154	C	0.778513	0.112186	0.757165
H155	H	0.249503	-0.411765	0.228918
H156	H	0.749503	0.088235	0.728918
H157	H	0.304157	-0.363696	0.224944
H158	H	0.804157	0.136304	0.724944
H159	H	0.304158	-0.415273	0.285442
H160	H	0.804158	0.084727	0.785442
C161	C	0.940896	-0.187813	0.927179
C162	C	1.440896	0.312187	1.427179
H163	H	0.971113	-0.207896	0.957709
H164	H	1.471113	0.292104	1.457709
H165	H	0.961362	-0.169221	0.886010
H166	H	1.461362	0.330779	1.386010
H167	H	0.919855	-0.156220	0.954743
H168	H	1.419855	0.343780	1.454743
C169	C	0.828648	-0.214448	0.928949
C170	C	1.328648	0.285552	1.428949
H171	H	0.811550	-0.245611	0.960654
H172	H	1.311550	0.254389	1.460654
H173	H	0.833814	-0.176371	0.955626
H174	H	1.333814	0.323629	1.455626
H175	H	0.800969	-0.207700	0.888558
H176	H	1.300969	0.292300	1.388558
H177	H	0.982827	-0.943813	0.270979
H178	H	1.482827	-0.443813	0.770979
H179	H	0.550817	-0.230413	0.442852
H180	H	1.050817	0.269587	0.942852
H181	H	0.982723	-0.662239	0.270925
H182	H	1.482723	-0.162239	0.770925
C183	C	0.994387	-1.072468	0.257494
C184	C	1.494387	-0.572468	0.757494
H185	H	1.018359	-1.043469	0.229300
H186	H	1.518359	-0.543469	0.729300
H187	H	1.021813	-1.098077	0.285854
H188	H	1.521813	-0.598077	0.785854
H189	H	0.970326	-1.098149	0.225207
H190	H	1.470326	-0.598149	0.725207
H191	H	0.842561	-0.223420	0.793804
H192	H	1.342561	0.276580	1.293804
C193	C	0.679484	-0.218921	0.456402
C194	C	1.179484	0.281079	0.956402
H195	H	0.650510	-0.194975	0.484653
H196	H	1.150510	0.305025	0.984653
H197	H	0.705132	-0.243033	0.488619
H198	H	1.205132	0.256967	0.988619
H199	H	0.705129	-0.191457	0.428120
H200	H	1.205129	0.308543	0.928120
C201	C	0.679354	-0.387769	0.257127
C202	C	1.179354	0.112231	0.757127
H203	H	0.723219	-0.382004	0.263914
H204	H	1.223219	0.117996	0.763914
H205	H	0.668568	-0.430078	0.267876
H206	H	1.168568	0.069922	0.767876
H207	H	0.668566	-0.378493	0.207387
H208	H	1.168566	0.121507	0.707387
C209	C	0.935925	-0.185608	0.785250
C210	C	1.435925	0.314392	1.285250
H211	H	0.966445	-0.203982	0.753672
H212	H	1.466445	0.296018	1.253672
H213	H	0.912487	-0.155235	0.758497
H214	H	1.412487	0.344765	1.258497
H215	H	0.956345	-0.165906	0.825771
H216	H	1.456345	0.334094	1.325771
H217	H	0.149979	-0.230459	0.442887
H218	H	0.649979	0.269541	0.942887
C219	C	0.994183	-0.533578	0.257379
C220	C	1.494183	-0.033578	0.757379
H221	H	1.018186	-0.562566	0.229209
H222	H	1.518186	-0.062566	0.729209
H223	H	0.970113	-0.507965	0.225080
H224	H	1.470113	-0.007965	0.725080
H225	H	1.021590	-0.507900	0.285739
H226	H	1.521590	-0.007900	0.785739
C227	C	0.825055	-0.671673	0.456144
C228	C	1.325055	-0.171673	0.956144
H229	H	0.830834	-0.715533	0.449370
H230	H	1.330834	-0.215533	0.949370
H231	H	0.834238	-0.660870	0.505910
H232	H	1.334238	-0.160870	1.005910
H233	H	0.782759	-0.660938	0.445253
H234	H	1.282759	-0.160938	0.945253
H235	H	1.013404	-0.287830	0.920447
H236	H	1.513404	0.212170	1.420447
H237	H	0.269243	-0.230447	0.442877
H238	H	0.769243	0.269553	0.942877
H239	H	0.836520	-0.543011	0.442609
H240	H	1.336520	-0.043011	0.942609
C241	C	0.825208	-1.072511	0.456234
C242	C	1.325208	-0.572511	0.956234
H243	H	0.830990	-1.116370	0.449465
H244	H	1.330990	-0.616370	0.949465
H245	H	0.834392	-1.061703	0.505999
H246	H	1.334392	-0.561703	1.005999
H247	H	0.782911	-1.061779	0.445345
H248	H	1.282911	-0.561779	0.945345
H249	H	0.836667	-0.943851	0.442684
H250	H	1.336667	-0.443851	0.942684
C251	C	0.995128	-0.387386	0.926704
C252	C	1.495128	0.112614	1.426704
H253	H	0.995136	-0.388159	0.979180
H254	H	1.495136	0.111841	1.479180
H255	H	0.966173	-0.417639	0.908569
H256	H	1.466173	0.082361	1.408569
H257	H	1.036024	-0.396932	0.909023
H258	H	1.536024	0.103068	1.409023
C259	C	0.794595	-0.336701	0.785973
C260	C	1.294595	0.163299	1.285973
H261	H	0.767280	-0.330323	0.826775
H262	H	1.267280	0.169677	1.326775
H263	H	0.795944	-0.299701	0.756720
H264	H	1.295944	0.200299	1.256720
H265	H	0.779566	-0.370691	0.756907
H266	H	1.279566	0.129309	1.256907
H267	H	0.811569	-0.340555	0.920592
H268	H	1.311569	0.159445	1.420592
C269	C	0.875812	-0.417998	0.929077
C270	C	1.375812	0.082002	1.429077
H271	H	0.911679	-0.416254	0.960235
H272	H	1.411679	0.083746	1.460235
H273	H	0.840953	-0.433431	0.956319
H274	H	1.340953	0.066569	1.456319
H275	H	0.884015	-0.445204	0.888613
H276	H	1.384015	0.054796	1.388613
H277	H	1.013420	-0.287089	0.793716
H278	H	1.513420	0.212911	1.293716
C279	C	0.995738	-0.386373	0.785099
C280	C	1.495738	0.113627	1.285099
H281	H	0.963634	-0.402654	0.754064
H282	H	1.463634	0.097346	1.254064
H283	H	1.033618	-0.382633	0.757751
H284	H	1.533618	0.117367	1.257751
H285	H	1.002094	-0.413988	0.825620
H286	H	1.502094	0.086012	1.325620
C287	C	0.876097	-0.418631	0.786699
C288	C	1.376097	0.081369	1.286699
H289	H	0.882171	-0.445691	0.827796
H290	H	1.382171	0.054309	1.327796
H291	H	0.842177	-0.433700	0.757561
H292	H	1.342177	0.066300	1.257561
H293	H	0.913241	-0.417652	0.757669
H294	H	1.413241	0.082348	1.257669
