data_functionalizedCrystal
_audit_creation_method	'MofGen! by Chris Wilmer'
_symmetry_space_group_name_H-M	'P1'
_symmetry_Int_Tables_number	1
_symmetry_cell_setting	triclinic
loop_
_symmetry_equiv_pos_as_xyz
  x,y,z
_cell_length_a	10.489746
_cell_length_b	8.965430
_cell_length_c	14.971486
_cell_angle_alpha	89.998387
_cell_angle_beta	95.922285
_cell_angle_gamma	89.997567
loop_
_atom_site_label
_atom_site_type_symbol
_atom_site_fract_x
_atom_site_fract_y
_atom_site_fract_z
O1	O	1.692592	-0.123940	-0.126209
O2	O	1.321260	-0.123965	-0.138050
O3	O	1.516879	-0.123941	-0.001986
O4	O	1.496973	-0.123964	-0.262273
O5	O	1.516856	0.124138	-0.001999
O6	O	1.321237	0.124114	-0.138063
O7	O	1.692569	0.124139	-0.126222
Cu8	Cu	1.506901	0.146778	-0.132144
Cu9	Cu	1.506928	-0.146604	-0.132128
O10	O	1.496951	0.124115	-0.262286
C11	C	1.273727	0.000071	-0.137161
C12	C	1.132129	0.000062	-0.134482
C13	C	0.980292	0.000091	-0.046324
C14	C	1.057164	0.122398	-0.090406
C15	C	1.057142	-0.122188	-0.090414
C16	C	0.956707	0.122508	-0.173837
C17	C	0.956680	-0.122189	-0.173833
C18	C	1.033502	0.000149	-0.217976
N19	N	1.506892	0.353127	-0.132154
C20	C	1.416394	0.450422	-0.195060
C21	C	1.531679	0.549842	-0.213162
C22	C	1.391649	0.549835	-0.114065
C23	C	1.622234	0.450358	-0.150297
C24	C	1.482128	0.450342	-0.051164
C25	C	1.597496	0.549717	-0.069232
C26	C	1.740102	0.000099	-0.127111
C27	C	1.881700	0.000099	-0.129789
C28	C	1.515977	0.000098	0.031337
C29	C	1.513309	0.000096	0.130649
N30	N	1.506923	0.647047	-0.132127
C31	C	1.497852	0.000073	-0.295609
C32	C	1.500520	0.000065	-0.394921
C33	C	1.628230	0.000105	0.187219
C34	C	1.625716	0.000090	0.280533
C35	C	1.508280	0.000077	0.317275
C36	C	1.393350	0.000063	0.260698
C37	C	1.395866	0.000068	0.167386
C38	C	1.388115	0.000057	0.455191
C39	C	1.385599	0.000056	0.548509
C40	C	1.617965	0.000080	0.568337
C41	C	1.620481	0.000084	0.475025
C42	C	1.505551	0.000074	0.418455
H43	H	1.339937	0.406824	-0.248304
H44	H	1.552647	0.593546	-0.281641
C45	C	1.269457	0.000058	0.105156
H46	H	1.287773	0.000046	0.044321
H47	H	1.221293	0.086560	0.116369
H48	H	1.221324	-0.086472	0.116377
C49	C	1.753935	0.391589	-0.171071
H50	H	1.753105	0.285627	-0.170987
H51	H	1.818261	0.426378	-0.126646
H52	H	1.771674	0.426487	-0.228413
H53	H	1.716108	0.000106	0.445113
C54	C	1.116386	-0.261883	-0.042793
H55	H	1.098550	-0.261715	0.018145
H56	H	1.206503	-0.261377	-0.045305
H57	H	1.080628	-0.348743	-0.071830
H58	H	1.711546	0.000083	0.614402
C59	C	1.116454	0.262086	-0.042816
H60	H	1.098647	0.261946	0.018127
H61	H	1.080730	0.348949	-0.071865
H62	H	1.206576	0.261518	-0.045334
C63	C	1.700999	0.608253	0.002655
H64	H	1.661776	0.666574	0.045205
H65	H	1.760491	0.667914	-0.025143
H66	H	1.744572	0.526370	0.032266
H67	H	1.719296	0.000100	0.326589
H68	H	1.461123	0.406603	0.017294
C69	C	1.256423	0.000007	0.588924
H70	H	1.188335	-0.000027	0.541870
H71	H	1.250586	0.086508	0.624916
H72	H	1.250648	-0.086524	0.624911
H73	H	0.912781	-0.225604	-0.209031
H74	H	1.294177	0.593534	-0.098777
C75	C	1.757412	0.000120	0.146811
H76	H	1.825493	0.000109	0.193870
H77	H	1.763219	0.086631	0.110821
H78	H	1.763229	-0.086401	0.110825
C79	C	0.897695	0.262363	-0.221409
H80	H	0.963648	0.320689	-0.242986
H81	H	0.854890	0.319547	-0.180194
H82	H	0.838149	0.233126	-0.270409
C83	C	1.261695	0.000048	0.392965
H84	H	1.191393	0.000055	0.428210
H85	H	1.257851	-0.086459	0.356150
H86	H	1.257842	0.086573	0.356154
H87	H	0.956411	0.000220	0.026253
H88	H	1.057138	0.000210	-0.290607
H89	H	1.297732	0.000043	0.290621
