data_functionalizedCrystal
_audit_creation_method	'MofGen! by Chris Wilmer'
_symmetry_space_group_name_H-M	'P1'
_symmetry_Int_Tables_number	1
_symmetry_cell_setting	triclinic
loop_
_symmetry_equiv_pos_as_xyz
  x,y,z
_cell_length_a	10.654549
_cell_length_b	10.967870
_cell_length_c	9.482944
_cell_angle_alpha	67.704711
_cell_angle_beta	100.392335
_cell_angle_gamma	95.398821
loop_
_atom_site_label
_atom_site_type_symbol
_atom_site_fract_x
_atom_site_fract_y
_atom_site_fract_z
O1	O	1.692867	-0.200065	0.171055
O2	O	1.328022	-0.217385	0.175389
O3	O	1.511957	-0.020314	0.126010
O4	O	1.508933	-0.397136	0.220433
O5	O	1.475196	0.016006	-0.124884
O6	O	1.291261	-0.181065	-0.075505
O7	O	1.656107	-0.163744	-0.079839
Cu8	Cu	1.470327	-0.169088	-0.100581
Cu9	Cu	1.513801	-0.212042	0.196130
O10	O	1.472172	-0.360815	-0.030460
C11	C	1.262797	-0.197952	0.049622
C12	C	1.123215	-0.194142	0.048666
C13	C	0.841593	-0.422650	0.105966
C14	C	0.897504	-0.542269	0.135934
C15	C	1.028651	-0.545849	0.136812
C16	C	1.103890	-0.429799	0.107724
C17	C	1.047979	-0.310181	0.077756
C18	C	0.916829	-0.306612	0.076876
C19	C	1.067304	-0.074524	0.018698
C20	C	0.936156	-0.070939	0.017809
C21	C	1.142543	0.041526	-0.010390
C22	C	1.086631	0.161149	-0.040370
C23	C	0.955476	0.164725	-0.041248
C24	C	0.880245	0.048680	-0.012159
C25	C	1.490578	0.046096	-0.011524
C26	C	1.481629	0.189866	-0.047541
C27	C	1.496683	0.235141	0.066374
C28	C	1.487435	0.383735	0.029152
C29	C	1.721332	-0.183178	0.045931
C30	C	1.860916	-0.186989	0.046897
C31	C	1.493548	0.572774	0.107072
C32	C	1.502491	0.429005	0.143083
N33	N	1.439759	-0.138876	-0.309271
C34	C	1.504776	-0.203130	-0.365370
C35	C	1.479353	-0.177981	-0.539089
N36	N	1.544379	-0.242243	0.404818
H37	H	0.734802	-0.419743	0.105228
Br38	Br	1.355208	-0.055241	-0.673381
Br39	Br	1.104538	-0.708191	0.177499
Br40	Br	1.320531	0.036667	-0.009183
Br41	Br	1.454524	0.502465	-0.179344
H42	H	1.618871	-0.315874	-0.514607
Br43	Br	0.795393	-0.699760	0.175428
Br44	Br	1.535328	0.310269	0.351583
Br45	Br	1.628937	-0.325841	-0.231079
H46	H	0.909964	0.262132	-0.065643
H47	H	1.461886	0.261111	-0.172623
Br48	Br	1.315620	-0.016142	-0.443568
Br49	Br	1.281881	-0.434666	0.108952
H50	H	1.147902	0.255626	-0.064041
H51	H	0.773455	0.051582	-0.012885
H52	H	1.516413	0.163895	0.191457
