data_functionalizedCrystal
_audit_creation_method	'MofGen! by Chris Wilmer'
_symmetry_space_group_name_H-M	'P1'
_symmetry_Int_Tables_number	1
_symmetry_cell_setting	triclinic
loop_
_symmetry_equiv_pos_as_xyz
  x,y,z
_cell_length_a	19.077236
_cell_length_b	12.645330
_cell_length_c	19.077237
_cell_angle_alpha	92.275519
_cell_angle_beta	85.297201
_cell_angle_gamma	92.310660
loop_
_atom_site_label
_atom_site_type_symbol
_atom_site_fract_x
_atom_site_fract_y
_atom_site_fract_z
Zn1	Zn	1.093747	-0.382740	-0.441990
Zn2	Zn	1.088952	-0.553182	-0.324112
Zn3	Zn	0.971135	-0.382760	-0.319374
Zn4	Zn	0.975838	-0.566793	-0.437216
O5	O	1.032418	-0.471369	-0.380673
O6	O	1.191764	-0.399645	-0.430334
O7	O	1.069348	-0.524887	-0.224834
O8	O	0.987438	-0.234409	-0.335654
O9	O	1.188241	-0.524867	-0.343729
O10	O	1.077521	-0.234394	-0.425740
O11	O	0.982788	-0.399679	-0.221353
O12	O	0.873106	-0.412878	-0.331025
O13	O	0.995454	-0.548066	-0.536499
O14	O	0.876562	-0.548086	-0.417603
O15	O	1.082082	-0.412843	-0.540006
O16	O	1.073909	-0.703336	-0.339100
O17	O	0.990804	-0.713336	-0.422197
C18	C	0.849255	-0.481962	-0.373283
C19	C	0.770897	-0.486520	-0.370138
C20	C	0.735922	-0.423576	-0.413819
C21	C	0.662297	-0.427853	-0.410858
C22	C	0.623648	-0.495081	-0.364219
C23	C	0.658628	-0.558027	-0.320532
C24	C	0.732252	-0.553743	-0.323490
C25	C	0.403259	-0.514866	-0.350526
C26	C	0.329630	-0.519148	-0.347573
C27	C	0.333304	-0.388972	-0.437898
C28	C	0.406929	-0.384699	-0.440855
C29	C	0.441903	-0.447641	-0.397166
N30	N	0.548391	-0.499457	-0.361192
N31	N	0.517158	-0.443259	-0.400189
C32	C	1.032366	-0.746801	-0.380661
C33	C	1.032410	-0.864630	-0.380682
C34	C	0.980360	-1.038525	-0.433136
C35	C	0.980075	-0.915972	-0.432949
C36	C	1.009323	-0.906071	-0.305579
C37	C	1.009006	-1.028708	-0.305898
C38	C	1.107853	-1.028499	-0.402742
C39	C	1.107460	-0.906013	-0.404348
C40	C	1.216297	-0.460735	-0.388093
C41	C	1.294655	-0.456204	-0.391254
C42	C	1.039827	-0.481970	-0.564547
C43	C	1.042985	-0.486488	-0.642903
C44	C	1.032490	-0.194861	-0.380701
C45	C	1.032521	-0.077030	-0.380713
C46	C	1.065635	-0.518968	-1.084160
C47	C	1.062658	-0.514717	-1.010536
C48	C	1.016106	-0.447397	-0.971919
C49	C	0.972524	-0.384333	-1.006930
C50	C	0.975498	-0.388590	-1.080553
C51	C	1.002376	-0.427680	-0.751537
C52	C	0.999407	-0.423425	-0.677909
C53	C	1.089540	-0.553812	-0.681519
C54	C	1.092513	-0.558058	-0.755143
C55	C	1.048928	-0.494998	-0.790148
N56	N	1.013064	-0.443048	-0.896663
N57	N	1.051968	-0.499353	-0.865402
C58	C	1.025078	-0.460730	-0.197516
C59	C	1.022057	-0.455905	-0.119166
H60	H	0.298163	-0.573898	-0.309593
O61	O	1.142721	-0.630686	-0.796780
H62	H	1.179967	-0.583116	-0.831771
H63	H	0.627153	-0.612760	-0.282554
O64	O	0.295580	-0.321072	-0.485006
H65	H	0.263474	-0.372611	-0.519470
H66	H	1.098135	-0.566083	-0.982037
O67	O	0.440976	-0.582747	-0.303405
H68	H	0.401730	-0.630217	-0.270481
H69	H	0.760727	-0.604998	-0.287919
O70	O	1.159378	-1.060726	-0.352217
H71	H	1.212430	-1.026151	-0.368115
H72	H	0.438393	-0.329959	-0.478837
O73	O	1.136542	-0.621836	-0.643766
H74	H	1.126651	-0.607576	-0.586084
O75	O	0.999610	-0.879294	-0.506597
H76	H	1.009348	-0.949133	-0.542668
O77	O	0.928508	-0.320562	-1.118320
H78	H	0.872600	-0.341107	-1.101960
H79	H	0.767386	-0.368835	-0.451800
H80	H	0.934618	-0.329524	-0.975483
O81	O	0.949190	-0.350824	-0.636253
H82	H	0.919376	-0.307697	-0.672962
H83	H	0.995040	-1.070427	-0.488906
O84	O	0.624571	-0.359964	-0.457971
H85	H	0.663816	-0.312506	-0.490905
O86	O	0.906923	-1.082693	-0.413722
H87	H	0.907412	-1.131948	-0.366898
H88	H	0.924287	-0.889208	-0.418118
H89	H	0.953849	-1.059622	-0.287585
O90	O	1.056918	-1.061862	-0.252175
H91	H	1.080208	-0.990311	-0.226078
H92	H	0.954723	-0.877632	-0.286998
O93	O	1.057869	-0.861291	-0.252245
H94	H	1.099062	-0.808892	-0.278764
O95	O	1.134982	-1.072028	-0.474264
H96	H	1.095070	-1.128745	-0.494910
O97	O	0.955379	-0.359654	-0.789289
H98	H	0.922519	-0.312118	-0.750066
O99	O	1.130466	-0.870430	-0.477575
H100	H	1.088629	-0.823462	-0.497038
H101	H	1.148607	-0.870749	-0.369185
O102	O	1.115837	-0.591588	-1.125810
H103	H	1.145631	-0.634736	-1.089095
