data_functionalizedCrystal
_audit_creation_method	'MofGen! by Chris Wilmer'
_symmetry_space_group_name_H-M	'P1'
_symmetry_Int_Tables_number	1
_symmetry_cell_setting	triclinic
loop_
_symmetry_equiv_pos_as_xyz
  x,y,z
_cell_length_a	17.638686
_cell_length_b	18.101397
_cell_length_c	17.639252
_cell_angle_alpha	101.219366
_cell_angle_beta	114.293829
_cell_angle_gamma	78.786742
loop_
_atom_site_label
_atom_site_type_symbol
_atom_site_fract_x
_atom_site_fract_y
_atom_site_fract_z
Zn1	Zn	1.353918	-0.415479	0.720159
Zn2	Zn	1.325989	-0.560099	0.582329
Zn3	Zn	1.188283	-0.415403	0.554561
Zn4	Zn	1.216077	-0.518403	0.692292
O5	O	1.271067	-0.477346	0.637335
O6	O	1.465530	-0.452145	0.725158
O7	O	1.284401	-0.558323	0.463322
O8	O	1.210311	-0.311783	0.576569
O9	O	1.445010	-0.558397	0.623895
O10	O	1.332002	-0.311839	0.698233
O11	O	1.183229	-0.452015	0.442921
O12	O	1.076653	-0.411584	0.549548
O13	O	1.257683	-0.487332	0.811312
O14	O	1.097073	-0.487258	0.650739
O15	O	1.358953	-0.411714	0.831785
O16	O	1.311352	-0.658198	0.596874
O17	O	1.230601	-0.627564	0.677664
C18	C	1.056963	-0.444888	0.594107
C19	C	0.965372	-0.431018	0.575633
C20	C	0.717327	-0.582850	0.777884
C21	C	0.631260	-0.569813	0.760505
C22	C	0.609995	-0.490842	0.655299
C23	C	0.696062	-0.503875	0.672666
C24	C	0.749722	-0.549879	0.733961
C25	C	0.728457	-0.470905	0.628743
C26	C	0.814517	-0.483934	0.646112
C27	C	0.868182	-0.529934	0.707406
C28	C	0.835782	-0.562908	0.751330
C29	C	0.674796	-0.424897	0.567453
C30	C	0.707191	-0.391926	0.523529
C31	C	0.793252	-0.404959	0.540894
C32	C	0.846917	-0.450959	0.602187
C33	C	0.825652	-0.371985	0.496969
C34	C	0.911712	-0.385014	0.514339
C35	C	0.932977	-0.463988	0.619557
C36	C	1.270988	-0.669752	0.637281
C37	C	1.271035	-0.752071	0.637301
C38	C	1.271156	-1.051167	0.637397
C39	C	1.321750	-1.039084	0.586360
C40	C	1.322004	-0.953473	0.586570
C41	C	1.271096	-0.902782	0.637348
C42	C	1.312183	-0.924255	0.728961
C43	C	1.312604	-1.010026	0.728713
C44	C	1.179456	-1.009818	0.597539
C45	C	1.179495	-0.924526	0.595687
C46	C	1.271062	-0.818920	0.637326
C47	C	1.271193	-1.135028	0.637426
C48	C	1.486007	-0.509931	0.680732
C49	C	1.577601	-0.523816	0.699226
C50	C	1.314534	-0.444880	0.852287
C51	C	1.333057	-0.431045	0.943887
C52	C	1.271172	-0.284189	0.637412
C53	C	1.271216	-0.201878	0.637445
C54	C	1.130378	-0.582406	1.191856
C55	C	1.147800	-0.569399	1.277931
C56	C	1.253245	-0.490665	1.299238
C57	C	1.235828	-0.503662	1.213162
C58	C	1.174394	-0.549534	1.159478
C59	C	1.279845	-0.470790	1.180784
C60	C	1.262432	-0.483790	1.094716
C61	C	1.201003	-0.529661	1.041027
C62	C	1.156982	-0.562534	1.073410
C63	C	1.341282	-0.424923	1.234470
C64	C	1.385299	-0.392051	1.202092
C65	C	1.367882	-0.405046	1.116022
C66	C	1.306453	-0.450918	1.062333
C67	C	1.411903	-0.372174	1.083639
C68	C	1.394491	-0.385174	0.997571
C69	C	1.289041	-0.463917	0.976265
C70	C	1.227758	-0.509702	1.423217
C71	C	1.209223	-0.523539	1.331615
H72	H	0.604722	-0.414285	0.553317
H73	H	1.148832	-0.911220	0.528181
H74	H	1.430332	-0.358405	0.971208
H75	H	1.388933	-1.068091	0.613883
H76	H	0.976670	-0.501454	0.669465
C77	C	0.551799	-0.440765	0.588862
C78	C	0.576399	-0.367952	0.611190
C79	C	0.522804	-0.321800	0.550012
H80	H	0.554654	-0.461932	0.536279
H81	H	0.495898	-0.437672	0.584811
H82	H	0.632286	-0.371048	0.615231
H83	H	0.573540	-0.346764	0.663763
H84	H	0.466903	-0.318706	0.545961
H85	H	0.525663	-0.342973	0.497432
H86	H	0.539483	-0.272390	0.565156
C87	C	0.648863	-0.342112	0.456874
C88	C	0.588754	-0.384483	0.393986
C89	C	0.535016	-0.338623	0.332564
H90	H	0.621604	-0.300024	0.481582
H91	H	0.680446	-0.324357	0.433147
H92	H	0.557175	-0.402226	0.417711
H93	H	0.615988	-0.426568	0.369256
H94	H	0.566599	-0.320868	0.308836
H95	H	0.507763	-0.296537	0.357280
H96	H	0.494231	-0.367367	0.289883
C97	C	1.360196	-0.410965	1.327918
C98	C	1.386917	-0.480357	1.360609
C99	C	1.404337	-0.467530	1.446687
H100	H	1.403108	-0.378983	1.355359
H101	H	1.310964	-0.387186	1.336692
H102	H	1.436143	-0.504125	1.351842
H103	H	1.344016	-0.512349	1.333193
H104	H	1.355105	-0.443750	1.455460
H105	H	1.447248	-0.435545	1.474119
H106	H	1.422462	-0.514609	1.468877
C107	C	0.946721	-0.349191	0.466523
C108	C	0.881305	-0.306135	0.409107
C109	C	0.913523	-0.273132	0.365035
H110	H	0.986678	-0.317228	0.504794
H111	H	0.972983	-0.387978	0.437289
H112	H	0.855057	-0.267353	0.438339
H113	H	0.841344	-0.338081	0.370819
H114	H	0.939784	-0.311920	0.335802
H115	H	0.953479	-0.241174	0.403313
H116	H	0.869142	-0.243922	0.326068
C117	C	0.767324	-0.322166	0.430319
C118	C	0.707210	-0.364532	0.367429
C119	C	0.653472	-0.318666	0.306013
H120	H	0.740069	-0.280079	0.455032
H121	H	0.798906	-0.304411	0.406592
H122	H	0.675632	-0.382276	0.391154
H123	H	0.734441	-0.406616	0.342694
H124	H	0.685054	-0.300910	0.282286
H125	H	0.626223	-0.276581	0.330734
H126	H	0.612684	-0.347406	0.263332
H127	H	1.294151	-1.067266	0.518823
H128	H	1.238995	-0.501250	0.932547
H129	H	1.294265	-0.939995	0.519190
H130	H	1.389574	-0.940498	0.614333
C131	C	0.961589	-0.544183	0.726112
C132	C	0.974182	-0.579151	0.653366
C133	C	1.060217	-0.592299	0.670569
H134	H	0.984066	-0.497244	0.744360
H135	H	0.988931	-0.576335	0.768874
H136	H	0.946851	-0.547000	0.610618
H137	H	0.951725	-0.626096	0.635107
H138	H	1.087559	-0.624452	0.713331
H139	H	1.082687	-0.545358	0.688818
H140	H	1.068773	-0.616033	0.621216
C141	C	1.402733	-1.045549	0.770988
C142	C	1.456294	-0.989731	0.796519
C143	C	1.539329	-1.022424	0.835455
H144	H	1.408419	-1.066819	0.818508
H145	H	1.417044	-1.084314	0.732551
H146	H	1.441988	-0.950979	0.834953
H147	H	1.450634	-0.968457	0.749015
H148	H	1.553640	-1.061190	0.797017
H149	H	1.545006	-1.043693	0.882971
H150	H	1.575681	-0.984559	0.852775
C151	C	1.266890	-1.018679	0.782484
C152	C	1.239010	-0.946727	0.815049
C153	C	1.196914	-0.954665	0.864602
H154	H	1.220159	-1.045295	0.749224
H155	H	1.303988	-1.046248	0.827282
H156	H	1.201915	-0.919170	0.770258
H157	H	1.285724	-0.920099	0.848323
H158	H	1.234012	-0.982234	0.909399
H159	H	1.150187	-0.981283	0.831335
H160	H	1.177999	-0.905848	0.886709
C161	C	1.134290	-1.046964	0.508779
C162	C	1.188001	-1.107713	0.488236
C163	C	1.146436	-1.141946	0.406474
H164	H	1.085813	-1.065177	0.505310
H165	H	1.118148	-1.010762	0.470717
H166	H	1.204131	-1.143908	0.526288
H167	H	1.236478	-1.089520	0.491686
H168	H	1.130294	-1.105744	0.368411
H169	H	1.097961	-1.160155	0.403012
H170	H	1.182875	-1.183163	0.392521
H171	H	1.141544	-1.015899	0.634497
C172	C	1.124772	-0.877221	0.639872
C173	C	1.172227	-0.827159	0.705896
C174	C	1.121851	-0.783577	0.746632
H175	H	1.078791	-0.849066	0.601191
H176	H	1.104401	-0.909776	0.661415
H177	H	1.192586	-0.794608	0.684353
H178	H	1.218206	-0.855294	0.744596
H179	H	1.101480	-0.816132	0.768175
H180	H	1.075872	-0.755426	0.707945
H181	H	1.154044	-0.749610	0.791439
H182	H	0.879475	-0.600374	0.801238
C183	C	1.478663	-0.322383	1.141800
C184	C	1.513499	-0.296391	1.095025
C185	C	1.575009	-0.250530	1.148574
H186	H	1.454045	-0.280217	1.169052
H187	H	1.521387	-0.351081	1.182598
H188	H	1.470783	-0.267694	1.054242
H189	H	1.538133	-0.338541	1.067774
H190	H	1.617732	-0.279227	1.189372
H191	H	1.550384	-0.208367	1.175824
H192	H	1.598658	-0.232894	1.116847
C193	C	1.182269	-0.543808	0.947615
C194	C	1.254955	-0.578879	0.934961
C195	C	1.237732	-0.591913	0.848923
H196	H	1.139420	-0.575857	0.920187
H197	H	1.164142	-0.496804	0.925265
H198	H	1.273071	-0.625876	0.957301
H199	H	1.297813	-0.546842	0.962369
H200	H	1.219605	-0.544908	0.826572
H201	H	1.194881	-0.623960	0.821503
H202	H	1.287048	-0.615703	0.840326
H203	H	0.761020	-0.620315	0.827792
H204	H	1.277221	-0.889732	0.768767
C205	C	0.596245	-0.605702	0.808269
C206	C	0.661660	-0.648785	0.865655
C207	C	0.629436	-0.681856	0.909667
H208	H	0.569971	-0.566971	0.837528
H209	H	0.556294	-0.637655	0.769934
H210	H	0.701596	-0.616835	0.903984
H211	H	0.687940	-0.687528	0.836418
H212	H	0.589484	-0.713809	0.871332
H213	H	0.603162	-0.643121	0.938921
H214	H	0.673813	-0.711098	0.948603
C215	C	1.100031	-0.605230	1.312992
C216	C	1.113684	-0.684383	1.295635
C217	C	1.069688	-0.717414	1.327913
H218	H	1.119151	-0.591008	1.371942
H219	H	1.041798	-0.588174	1.287698
H220	H	1.171905	-0.701432	1.320933
H221	H	1.094561	-0.698626	1.236692
H222	H	1.011455	-0.700358	1.302618
H223	H	1.088811	-0.703187	1.386861
H224	H	1.078939	-0.771122	1.316134
C225	C	1.090297	-0.612410	1.015261
C226	C	1.055492	-0.638439	1.062039
C227	C	0.994081	-0.684403	1.008505
H228	H	1.047536	-0.583798	0.974420
H229	H	1.115019	-0.654556	0.988066
H230	H	1.030769	-0.596300	1.089220
H231	H	1.098232	-0.667063	1.102878
H232	H	1.018803	-0.726549	0.981310
H233	H	0.951325	-0.655785	0.967666
H234	H	0.970463	-0.702075	1.040237
H235	H	1.379084	-0.909406	0.760856
H236	H	1.080333	-0.619738	1.148138
H237	H	1.303266	-0.453319	1.342959
H238	H	1.435320	-0.354705	1.245814
