data_functionalizedCrystal
_audit_creation_method	'MofGen! by Chris Wilmer'
_symmetry_space_group_name_H-M	'P1'
_symmetry_Int_Tables_number	1
_symmetry_cell_setting	triclinic
loop_
_symmetry_equiv_pos_as_xyz
  x,y,z
_cell_length_a	6.394989
_cell_length_b	10.723024
_cell_length_c	9.798715
_cell_angle_alpha	90.003391
_cell_angle_beta	90.000171
_cell_angle_gamma	85.482790
loop_
_atom_site_label
_atom_site_type_symbol
_atom_site_fract_x
_atom_site_fract_y
_atom_site_fract_z
O1	O	-0.293022	-1.660297	-0.113473
O2	O	-0.321070	-1.297442	-0.113476
O3	O	-0.003055	-1.484020	-0.113475
O4	O	-0.611036	-1.473719	-0.113474
O5	O	-0.003054	-1.484006	0.113507
O6	O	-0.321069	-1.297428	0.113506
O7	O	-0.293021	-1.660283	0.113510
Zn8	Zn	-0.307045	-1.478853	0.149546
Zn9	Zn	-0.307046	-1.478872	-0.149513
O10	O	-0.611035	-1.473705	0.113509
C11	C	-0.319028	-1.250914	0.000014
C12	C	-0.312921	-1.112295	0.000012
C13	C	-0.295062	-1.706811	0.000016
C14	C	-0.301169	-1.845430	0.000009
N15	N	-0.307043	-1.478850	0.353646
C16	C	0.074796	-1.481977	0.000011
C17	C	0.311120	-1.475752	0.000009
N18	N	-0.307031	-1.478885	-0.353612
C19	C	-0.490865	-1.039201	0.000012
C20	C	-0.484558	-0.895931	0.000010
C21	C	-0.172929	-1.557182	0.421423
C22	C	-0.172922	-1.557202	0.578586
H23	H	-0.647879	-1.082689	0.000020
C24	C	0.106098	-1.720149	0.564504
C25	C	-0.017903	-1.647740	0.657257
H26	H	0.201794	-1.776048	0.613077
H27	H	0.181849	-1.666918	0.508785
H28	H	0.018740	-1.766604	0.508759
H29	H	0.069454	-1.601277	0.712995
H30	H	-0.093660	-1.700977	0.713000
C31	C	-0.350316	-1.309906	0.514548
C32	C	-0.462045	-1.388331	0.432372
H33	H	-0.446014	-1.254028	0.563153
H34	H	-0.263007	-1.263439	0.458811
H35	H	-0.266177	-1.359068	0.577428
H36	H	-0.546172	-1.339170	0.369486
H37	H	-0.549390	-1.434802	0.488115
H38	H	-0.636892	-0.833115	0.000004
H39	H	-0.148827	-0.908239	0.000001
H40	H	-0.155907	-1.068806	-0.000023
H41	H	-0.058105	-1.624227	0.363101
H42	H	-0.421866	-1.411823	0.588111
