data_functionalizedCrystal
_audit_creation_method	'MofGen! by Chris Wilmer'
_symmetry_space_group_name_H-M	'P1'
_symmetry_Int_Tables_number	1
_symmetry_cell_setting	triclinic
loop_
_symmetry_equiv_pos_as_xyz
  x,y,z
_cell_length_a	19.805407
_cell_length_b	29.839125
_cell_length_c	19.805405
_cell_angle_alpha	90.017444
_cell_angle_beta	89.976273
_cell_angle_gamma	89.988572
loop_
_atom_site_label
_atom_site_type_symbol
_atom_site_fract_x
_atom_site_fract_y
_atom_site_fract_z
Zn1	Zn	1.034693	-0.253999	0.269607
Zn2	Zn	1.368026	0.079334	0.602940
Zn3	Zn	1.701360	0.412667	0.936273
Zn4	Zn	1.034620	-0.178870	0.382771
Zn5	Zn	1.367954	0.154464	0.716105
Zn6	Zn	1.701287	0.487797	1.049438
Zn7	Zn	0.921520	-0.178883	0.269596
Zn8	Zn	1.254854	0.154451	0.602930
Zn9	Zn	1.588187	0.487784	0.936263
Zn10	Zn	0.921471	-0.253972	0.382754
Zn11	Zn	1.254805	0.079361	0.716087
Zn12	Zn	1.588138	0.412695	1.049420
O13	O	0.978076	-0.216431	0.326182
O14	O	1.311410	0.116902	0.659515
O15	O	1.644743	0.450236	0.992849
O16	O	1.129400	-0.244039	0.284630
O17	O	1.462733	0.089294	0.617963
O18	O	1.796067	0.422627	0.951296
O19	O	1.019608	-0.116004	0.367762
O20	O	1.352941	0.217329	0.701095
O21	O	1.686274	0.550662	1.034429
O22	O	0.936584	-0.188864	0.174881
O23	O	1.269917	0.144469	0.508215
O24	O	1.603250	0.477803	0.841548
O25	O	1.129347	-0.188842	0.367772
O26	O	1.462680	0.144492	0.701105
O27	O	1.796013	0.477825	1.034438
O28	O	1.019731	-0.244052	0.174889
O29	O	1.353065	0.089281	0.508222
O30	O	1.686398	0.422615	0.841555
O31	O	0.936513	-0.116014	0.284613
O32	O	1.269847	0.217319	0.617946
O33	O	1.603180	0.550653	0.951279
O34	O	0.826797	-0.188838	0.284595
O35	O	1.160131	0.144496	0.617929
O36	O	1.493464	0.477829	0.951262
O37	O	0.936500	-0.316843	0.367741
O38	O	1.269833	0.016491	0.701075
O39	O	1.603167	0.349824	1.034408
O40	O	0.826761	-0.244005	0.367731
O41	O	1.160094	0.089328	0.701065
O42	O	1.493428	0.422661	1.034398
O43	O	1.019684	-0.316863	0.284612
O44	O	1.353017	0.016470	0.617946
O45	O	1.686350	0.349804	0.951279
O46	O	1.019560	-0.188815	0.477486
O47	O	1.352893	0.144518	0.810819
O48	O	1.686227	0.477851	1.144152
O49	O	0.936430	-0.243992	0.477473
O50	O	1.269763	0.089341	0.810806
O51	O	1.603096	0.422674	1.144139
C52	C	0.802220	-0.216420	0.326161
C53	C	1.135554	0.116913	0.659494
C54	C	1.468887	0.450247	0.992828
C55	C	0.726988	-0.216426	0.326168
C56	C	1.060322	0.116907	0.659501
C57	C	1.393655	0.450241	0.992835
C58	C	0.691672	-0.245211	0.282953
C59	C	1.025006	0.088122	0.616286
C60	C	1.358339	0.421456	0.949619
C61	C	0.620984	-0.245213	0.282956
C62	C	0.954317	0.088121	0.616290
C63	C	1.287651	0.421454	0.949623
C64	C	0.585613	-0.216431	0.326179
C65	C	0.918946	0.116902	0.659512
C66	C	1.252279	0.450235	0.992846
C67	C	0.620933	-0.187643	0.369396
C68	C	0.954267	0.145690	0.702730
C69	C	1.287600	0.479023	1.036063
C70	C	0.691621	-0.187640	0.369389
C71	C	1.024954	0.145694	0.702722
C72	C	1.358287	0.479027	1.036056
C73	C	0.335860	-0.187657	0.369427
C74	C	0.669193	0.145676	0.702760
C75	C	1.002527	0.479010	1.036093
C76	C	0.265168	-0.187664	0.369432
C77	C	0.598501	0.145669	0.702766
C78	C	0.931835	0.479003	1.036099
C79	C	0.265224	-0.245230	0.282994
C80	C	0.598557	0.088103	0.616328
C81	C	0.931890	0.421436	0.949661
C82	C	0.335911	-0.245227	0.282987
C83	C	0.669244	0.088107	0.616320
C84	C	1.002577	0.421440	0.949653
C85	C	0.371225	-0.216437	0.326201
C86	C	0.704559	0.116896	0.659534
C87	C	1.037892	0.450230	0.992868
C88	C	0.447874	-0.216435	0.326196
C89	C	0.781207	0.116899	0.659529
C90	C	1.114540	0.450232	0.992863
C91	C	0.508966	-0.216436	0.326188
C92	C	0.842299	0.116898	0.659522
C93	C	1.175632	0.450231	0.992855
C94	C	0.978095	-0.333609	0.326176
C95	C	1.311428	-0.000276	0.659509
C96	C	1.644761	0.333057	0.992843
C97	C	0.978102	-0.383544	0.326173
C98	C	1.311436	-0.050210	0.659507
C99	C	1.644769	0.283123	0.992840
C100	C	1.021462	-0.693201	0.282775
C101	C	1.354795	-0.359867	0.616108
C102	C	1.688128	-0.026534	0.949442
C103	C	1.021495	-0.880874	0.282717
C104	C	1.354828	-0.547541	0.616051
C105	C	1.688162	-0.214207	0.949384
O106	O	1.058310	-0.905150	0.245882
O107	O	1.391644	-0.571817	0.579216
O108	O	1.724977	-0.238484	0.912549
N109	N	0.978192	-0.904329	0.325992
N110	N	1.311525	-0.570996	0.659325
N111	N	1.644859	-0.237662	0.992659
C112	C	0.934874	-0.880863	0.369281
C113	C	1.268208	-0.547530	0.702615
C114	C	1.601541	-0.214196	1.035948
O115	O	0.898038	-0.905119	0.406083
O116	O	1.231372	-0.571786	0.739416
O117	O	1.564705	-0.238453	1.072750
C118	C	0.934838	-0.693191	0.369335
C119	C	1.268171	-0.359857	0.702669
C120	C	1.601505	-0.026524	1.036002
C121	C	0.978149	-0.669738	0.326062
C122	C	1.311482	-0.336405	0.659396
C123	C	1.644815	-0.003071	0.992729
C124	C	1.064768	-0.669748	0.239505
C125	C	1.398102	-0.336415	0.572838
C126	C	1.731435	-0.003081	0.906172
C127	C	1.064762	-0.622833	0.239522
C128	C	1.398095	-0.289499	0.572856
C129	C	1.731429	0.043834	0.906189
C130	C	1.021449	-0.599370	0.282810
C131	C	1.354782	-0.266037	0.616143
C132	C	1.688116	0.067297	0.949477
C133	C	0.978142	-0.622823	0.326080
C134	C	1.311476	-0.289489	0.659413
C135	C	1.644809	0.043844	0.992746
C136	C	0.891517	-0.669726	0.412621
C137	C	1.224851	-0.336392	0.745954
C138	C	1.558184	-0.003059	1.079287
C139	C	0.891511	-0.622805	0.412629
C140	C	1.224844	-0.289471	0.745962
C141	C	1.558177	0.043862	1.079296
C142	C	0.934822	-0.599352	0.369356
C143	C	1.268155	-0.266019	0.702689
C144	C	1.601488	0.067315	1.036023
C145	C	0.934823	-0.552444	0.369385
C146	C	1.268157	-0.219111	0.702718
C147	C	1.601490	0.114222	1.036051
N148	N	0.978126	-0.528989	0.326110
N149	N	1.311460	-0.195656	0.659443
N150	N	1.644793	0.137677	0.992776
C151	C	1.021439	-0.552452	0.282822
C152	C	1.354773	-0.219119	0.616156
C153	C	1.688106	0.114215	0.949489
C154	C	0.934898	-0.979394	0.369251
C155	C	1.268231	-0.646060	0.702584
C156	C	1.601564	-0.312727	1.035918
C157	C	0.934907	-1.026312	0.369239
C158	C	1.268241	-0.692978	0.702572
C159	C	1.601574	-0.359645	1.035905
C160	C	1.021527	-1.026319	0.282673
C161	C	1.354861	-0.692986	0.616007
C162	C	1.688194	-0.359653	0.949340
C163	C	1.021521	-0.979400	0.282690
C164	C	1.354854	-0.646067	0.616023
C165	C	1.688187	-0.312734	0.949356
C166	C	0.978201	-0.955939	0.325976
C167	C	1.311534	-0.622605	0.659309
C168	C	1.644867	-0.289272	0.992643
C169	C	1.021423	-0.453926	0.282863
C170	C	1.354757	-0.120593	0.616196
C171	C	1.688090	0.212741	0.949529
C172	C	1.021415	-0.407006	0.282886
C173	C	1.354749	-0.073673	0.616219
C174	C	1.688082	0.259660	0.949553
C175	C	0.934793	-0.407003	0.369448
C176	C	1.268126	-0.073670	0.702782
C177	C	1.601460	0.259664	1.036115
C178	C	0.934803	-0.453918	0.369428
C179	C	1.268137	-0.120585	0.702761
C180	C	1.601470	0.212748	1.036095
C181	C	0.978121	-0.477379	0.326130
C182	C	1.311454	-0.144046	0.659463
C183	C	1.644787	0.189288	0.992796
O184	O	0.898022	-0.528139	0.406195
O185	O	1.231355	-0.194806	0.739528
O186	O	1.564689	0.138528	1.072861
O187	O	1.058259	-0.528188	0.246016
O188	O	1.391593	-0.194854	0.579349
O189	O	1.724926	0.138479	0.912682
C190	C	1.021468	-0.740116	0.282757
C191	C	1.354801	-0.406783	0.616091
C192	C	1.688134	-0.073450	0.949424
C193	C	0.978161	-0.763569	0.326027
C194	C	1.311494	-0.430236	0.659361
C195	C	1.644828	-0.096902	0.992694
C196	C	0.934848	-0.740106	0.369315
C197	C	1.268182	-0.406773	0.702648
C198	C	1.601515	-0.073440	1.035981
C199	C	0.978171	-0.810487	0.326015
C200	C	1.311504	-0.477154	0.659348
C201	C	1.644838	-0.143820	0.992682
C202	C	1.021484	-0.833950	0.282728
C203	C	1.354817	-0.500616	0.616061
C204	C	1.688151	-0.167283	0.949394
C205	C	1.064787	-0.810494	0.239453
C206	C	1.398120	-0.477161	0.572786
C207	C	1.731454	-0.143828	0.906119
C208	C	1.064781	-0.763579	0.239470
C209	C	1.398114	-0.430246	0.572803
C210	C	1.731447	-0.096912	0.906137
C211	C	0.891545	-0.763561	0.412590
C212	C	1.224878	-0.430228	0.745923
C213	C	1.558212	-0.096895	1.079256
C214	C	0.891555	-0.810477	0.412569
C215	C	1.224889	-0.477144	0.745903
C216	C	1.558222	-0.143810	1.079236
C217	C	0.934868	-0.833940	0.369282
C218	C	1.268202	-0.500606	0.702615
C219	C	1.601535	-0.167273	1.035948
C220	C	1.154619	-0.216442	0.326204
C221	C	1.487952	0.116891	0.659537
C222	C	1.821286	0.450224	0.992870
C223	C	1.229851	-0.216447	0.326213
C224	C	1.563184	0.116886	0.659546
C225	C	1.896518	0.450220	0.992880
C226	C	0.978000	-0.216409	0.502038
C227	C	1.311333	0.116924	0.835371
C228	C	1.644667	0.450257	1.168705
C229	C	0.978029	-0.216415	0.577270
C230	C	1.311363	0.116918	0.910603
C231	C	1.644696	0.450252	1.243937
C232	C	0.978097	-0.099708	0.326139
C233	C	1.311430	0.233625	0.659473
C234	C	1.644764	0.566958	0.992806
C235	C	0.978220	-0.049774	0.325951
C236	C	1.311554	0.283559	0.659285
C237	C	1.644887	0.616892	0.992618
C238	C	0.978171	-0.216463	0.149639
C239	C	1.311504	0.116871	0.482973
C240	C	1.644838	0.450204	0.816306
C241	C	0.978212	-0.216476	0.074407
C242	C	1.311545	0.116857	0.407741
C243	C	1.644878	0.450191	0.741074
C244	C	1.021357	-0.187714	0.612599
C245	C	1.354691	0.145619	0.945932
C246	C	1.688024	0.478952	1.279265
C247	C	1.021386	-0.187724	0.683287
C248	C	1.354719	0.145609	1.016620
C249	C	1.688053	0.478943	1.349954
C250	C	0.978083	-0.216433	0.718646
C251	C	1.311416	0.116900	1.051979
C252	C	1.644750	0.450234	1.385312
C253	C	0.934753	-0.245137	0.683312
C254	C	1.268086	0.088197	1.016645
C255	C	1.601420	0.421530	1.349979
C256	C	0.934728	-0.245129	0.612625
C257	C	1.268062	0.088205	0.945958
C258	C	1.601395	0.421538	1.279292
C259	C	0.934853	-0.245170	0.968385
C260	C	1.268186	0.088163	1.301719
C261	C	1.601520	0.421497	1.635052
C262	C	0.934880	-0.245175	1.039077
C263	C	1.268213	0.088158	1.372411
C264	C	1.601546	0.421492	1.705744
C265	C	1.021511	-0.187765	1.039047
C266	C	1.354844	0.145568	1.372381
C267	C	1.688177	0.478901	1.705714
C268	C	1.021486	-0.187757	0.968360
C269	C	1.354819	0.145576	1.301694
C270	C	1.688153	0.478909	1.635027
C271	C	0.978159	-0.216463	0.933033
C272	C	1.311492	0.116871	1.266366
C273	C	1.644826	0.450204	1.599700
C274	C	0.978129	-0.216452	0.856385
C275	C	1.311463	0.116881	1.189718
C276	C	1.644796	0.450214	1.523051
C277	C	0.978109	-0.216441	0.795293
C278	C	1.311442	0.116892	1.128626
C279	C	1.644775	0.450225	1.461959
H280	H	0.236371	-0.164225	0.404631
H281	H	0.569704	0.169108	0.737965
H282	H	0.903037	0.502442	1.071298
H283	H	1.056668	-0.164353	0.712048
H284	H	1.390001	0.168981	1.045382
H285	H	1.723334	0.502314	1.378715
H286	H	0.592233	-0.268653	0.247767
H287	H	0.925566	0.064680	0.581101
H288	H	1.258900	0.398013	0.914434
H289	H	1.056792	-0.164394	1.067819
H290	H	1.390126	0.168940	1.401153
H291	H	1.723459	0.502273	1.734486
H292	H	0.899447	-0.268500	0.583861
H293	H	1.232781	0.064833	0.917195
H294	H	1.566114	0.398166	1.250528
H295	H	0.856226	-0.603704	0.447872
H296	H	1.189560	-0.270371	0.781205
H297	H	1.522893	0.062962	1.114538
H298	H	1.100049	-0.744488	0.204232
H299	H	1.433382	-0.411155	0.537566
H300	H	1.766715	-0.077821	0.870899
H301	H	1.056694	-0.473022	0.247603
H302	H	1.390028	-0.139689	0.580936
H303	H	1.723361	0.193645	0.914270
H304	H	0.364605	-0.164215	0.404615
H305	H	0.697938	0.169118	0.737949
H306	H	1.031271	0.502452	1.071282
H307	H	0.720467	-0.268649	0.247757
H308	H	1.053800	0.064684	0.581091
H309	H	1.387133	0.398017	0.914424
H310	H	0.899618	-0.268556	1.067865
H311	H	1.232951	0.064777	1.401198
H312	H	1.566285	0.398110	1.734531
H313	H	1.100056	-0.829606	0.204209
H314	H	1.433389	-0.496273	0.537542
H315	H	1.766723	-0.162939	0.870875
H316	H	0.899573	-0.268542	0.939627
H317	H	1.232907	0.064791	1.272961
H318	H	1.566240	0.398125	1.606294
H319	H	1.056617	-0.164334	0.583814
H320	H	1.389950	0.168999	0.917148
H321	H	1.723283	0.502332	1.250481
H322	H	0.364707	-0.268665	0.247793
H323	H	0.698040	0.064669	0.581126
H324	H	1.031373	0.398002	0.914459
H325	H	0.236462	-0.268671	0.247805
H326	H	0.569795	0.064663	0.581138
H327	H	0.903129	0.397996	0.914471
H328	H	0.899498	-0.268514	0.712107
H329	H	1.232831	0.064819	1.045440
H330	H	1.566165	0.398153	1.378773
H331	H	0.592128	-0.164207	0.404586
H332	H	0.925462	0.169127	0.737919
H333	H	1.258795	0.502460	1.071253
H334	H	1.056795	-1.045431	0.247427
H335	H	1.390128	-0.712097	0.580761
H336	H	1.723462	-0.378764	0.914094
H337	H	0.899647	-1.045403	0.404483
H338	H	1.232980	-0.712069	0.737816
H339	H	1.566313	-0.378736	1.071150
H340	H	0.899543	-0.473015	0.404671
H341	H	1.232876	-0.139681	0.738004
H342	H	1.566209	0.193652	1.071337
H343	H	1.056745	-0.164379	0.939573
H344	H	1.390078	0.168955	1.272907
H345	H	1.723412	0.502288	1.606240
H346	H	0.720374	-0.164200	0.404579
H347	H	1.053707	0.169134	0.737912
H348	H	1.387040	0.502467	1.071245
H349	H	1.056687	-0.387913	0.247647
H350	H	1.390020	-0.054580	0.580981
H351	H	1.723353	0.278753	0.914314
H352	H	0.899531	-0.387891	0.404694
H353	H	1.232864	-0.054558	0.738027
H354	H	1.566197	0.278776	1.071361
H355	H	1.100029	-0.603742	0.204284
H356	H	1.433362	-0.270408	0.537617
H357	H	1.766696	0.062925	0.870951
H358	H	1.100039	-0.688846	0.204251
H359	H	1.433372	-0.355513	0.537585
H360	H	1.766706	-0.022180	0.870918
H361	H	1.056787	-0.960308	0.247452
H362	H	1.390120	-0.626975	0.580785
H363	H	1.723454	-0.293642	0.914119
H364	H	0.899622	-0.960295	0.404504
H365	H	1.232955	-0.626962	0.737838
H366	H	1.566288	-0.293629	1.071171
H367	H	0.856249	-0.688813	0.447858
H368	H	1.189582	-0.355479	0.781191
H369	H	1.522916	-0.022146	1.114525
H370	H	0.856288	-0.829568	0.447814
H371	H	1.189621	-0.496235	0.781147
H372	H	1.522954	-0.162901	1.114480
H373	H	0.856275	-0.744463	0.447841
H374	H	1.189608	-0.411130	0.781174
H375	H	1.522941	-0.077796	1.114508
