data_functionalizedCrystal
_audit_creation_method	'MofGen! by Chris Wilmer'
_symmetry_space_group_name_H-M	'P1'
_symmetry_Int_Tables_number	1
_symmetry_cell_setting	triclinic
loop_
_symmetry_equiv_pos_as_xyz
  x,y,z
_cell_length_a	13.897441
_cell_length_b	12.759401
_cell_length_c	12.759400
_cell_angle_alpha	90.013728
_cell_angle_beta	89.971183
_cell_angle_gamma	89.981230
loop_
_atom_site_label
_atom_site_type_symbol
_atom_site_fract_x
_atom_site_fract_y
_atom_site_fract_z
Zn1	Zn	-0.545343	1.606258	-0.418260
Zn2	Zn	-0.384049	1.606151	-0.593970
Zn3	Zn	-0.384066	1.430559	-0.418303
Zn4	Zn	-0.545307	1.430548	-0.593894
O5	O	-0.464691	1.518379	-0.506107
O6	O	-0.523954	1.753265	-0.441582
O7	O	-0.249070	1.582819	-0.570717
O8	O	-0.405482	1.453915	-0.271276
O9	O	-0.405452	1.753186	-0.570675
O10	O	-0.523971	1.583000	-0.271244
O11	O	-0.249082	1.453812	-0.441655
O12	O	-0.405448	1.283537	-0.441582
O13	O	-0.680294	1.453896	-0.570546
O14	O	-0.523911	1.283529	-0.570588
O15	O	-0.680320	1.582989	-0.441508
O16	O	-0.405418	1.582808	-0.740981
O17	O	-0.523894	1.453793	-0.740925
C18	C	-0.464678	1.245412	-0.506082
C19	C	-0.464695	1.128635	-0.506097
C20	C	-0.526494	1.073807	-0.439004
C21	C	-0.526501	0.964083	-0.439025
C22	C	-0.402905	0.964025	-0.573238
C23	C	-0.402895	1.073747	-0.573212
C24	C	-0.597854	1.073839	-0.361520
C25	C	-0.597860	0.964115	-0.361541
C26	C	-0.716284	1.518454	-0.506014
C27	C	-0.823498	1.518485	-0.505974
C28	C	-1.019794	1.518514	-0.505903
C29	C	-0.910561	1.518495	-0.505946
C30	C	-0.214077	1.518365	-0.506123
C31	C	-0.106864	1.518537	-0.505867
C32	C	-0.464705	1.792412	-0.506132
C33	C	-0.464711	1.909189	-0.506143
C34	C	-0.464671	1.518317	-0.779074
C35	C	-0.464695	1.518386	-0.895851
C36	C	-0.403073	1.585639	-0.950707
C37	C	-0.403102	1.585703	-1.060431
C38	C	-0.526379	1.451254	-1.060433
C39	C	-0.526353	1.451195	-0.950711
C40	C	-0.331897	1.663259	-0.950707
C41	C	-0.331927	1.663324	-1.060431
C42	C	-0.464733	1.518470	-0.232073
C43	C	-0.464750	1.518509	-0.115297
H44	H	-0.352563	1.118384	-0.627835
C45	C	-0.375449	1.839719	-0.995687
C46	C	-0.358987	1.773063	-0.910392
H47	H	-0.392179	1.907502	-0.970795
H48	H	-0.318778	1.844198	-1.037082
H49	H	-0.426569	1.812669	-1.037018
H50	H	-0.307862	1.800109	-0.869065
H51	H	-0.415665	1.768587	-0.868979
C52	C	-0.689643	1.399915	-0.916847
C53	C	-0.594096	1.377271	-0.890417
H54	H	-0.731464	1.354270	-0.879628
H55	H	-0.703800	1.470479	-0.898789
H56	H	-0.698466	1.390336	-0.990047
H57	H	-0.585271	1.386858	-0.817217
H58	H	-0.579934	1.306691	-0.908467
H59	H	-0.260903	1.634134	-0.916755
C60	C	-0.206409	1.534020	-1.064281
C61	C	-0.231071	1.633972	-1.100754
H62	H	-0.144151	1.515899	-1.089183
H63	H	-0.206386	1.533981	-0.989840
H64	H	-0.251960	1.484390	-1.089102
H65	H	-0.185524	1.683603	-1.075927
H66	H	-0.231087	1.634018	-1.175210
C67	C	-0.348041	0.795802	-0.632873
C68	C	-0.334983	0.903688	-0.647016
H69	H	-0.306112	0.758557	-0.678428
H70	H	-0.334034	0.777822	-0.562276
H71	H	-0.412831	0.777859	-0.648340
H72	H	-0.270195	0.921632	-0.631541
H73	H	-0.348983	0.921675	-0.717629
C74	C	-0.554721	1.028667	-0.185016
C75	C	-0.571002	1.114034	-0.251637
H76	H	-0.538136	1.053484	-0.117185
H77	H	-0.611418	0.987344	-0.180670
H78	H	-0.503556	0.987288	-0.212008
H79	H	-0.622173	1.155409	-0.224650
H80	H	-0.514299	1.155375	-0.255980
H81	H	-0.672536	0.934370	-0.383440
C82	C	-0.676526	1.181602	-0.489752
C83	C	-0.693584	1.119842	-0.400972
H84	H	-0.735627	1.209998	-0.514108
H85	H	-0.633864	1.237011	-0.472143
H86	H	-0.648533	1.139675	-0.543221
H87	H	-0.721571	1.161771	-0.347500
H88	H	-0.736262	1.064426	-0.418577
H89	H	-0.571236	0.930073	-0.284211
H90	H	-0.576580	1.396550	-1.105113
H91	H	-0.358746	1.740628	-1.094378
