data_functionalizedCrystal
_audit_creation_method	'MofGen! by Chris Wilmer'
_symmetry_space_group_name_H-M	'P1'
_symmetry_Int_Tables_number	1
_symmetry_cell_setting	triclinic
loop_
_symmetry_equiv_pos_as_xyz
  x,y,z
_cell_length_a	10.540539
_cell_length_b	11.792241
_cell_length_c	10.868271
_cell_angle_alpha	89.994719
_cell_angle_beta	89.997750
_cell_angle_gamma	84.359454
loop_
_atom_site_label
_atom_site_type_symbol
_atom_site_fract_x
_atom_site_fract_y
_atom_site_fract_z
O1	O	1.685366	0.159957	-0.102265
O2	O	1.315904	0.175028	-0.102280
O3	O	1.509601	0.002345	-0.102263
O4	O	1.491669	0.332639	-0.102281
O5	O	1.509585	0.002338	0.102381
O6	O	1.315888	0.175021	0.102365
O7	O	1.685350	0.159950	0.102380
Zn8	Zn	1.500616	0.167484	0.134864
Zn9	Zn	1.500637	0.167493	-0.134764
O10	O	1.491653	0.332632	0.102363
C11	C	1.508466	-0.039952	0.000058
C12	C	1.505095	-0.165975	0.000057
C13	C	1.268596	0.173894	0.000040
C14	C	1.127659	0.170513	0.000035
C15	C	1.498896	-0.396703	0.000036
C16	C	1.502340	-0.268309	0.000048
C17	C	0.944655	0.040941	0.000520
C18	C	1.091262	0.044369	0.000045
C19	C	1.065798	0.231222	-0.116826
C20	C	0.919268	0.226917	-0.116911
C21	C	0.918753	0.229475	0.115808
C22	C	1.065731	0.230637	0.117340
C23	C	1.732657	0.161083	0.000057
C24	C	1.873594	0.164465	0.000054
C25	C	1.492787	0.374930	0.000039
C26	C	1.496159	0.500952	0.000032
N27	N	1.500611	0.167477	0.318878
N28	N	1.500653	0.167491	-0.318778
C29	C	1.500631	0.167491	0.569884
C30	C	1.500616	0.167487	0.430207
H31	H	0.916225	-0.008895	0.084328
H32	H	0.871229	0.320588	0.116593
H33	H	1.089657	0.322604	0.124391
H34	H	1.133170	-0.003730	-0.083865
O35	O	0.908919	-0.018443	-0.098800
C36	C	0.973421	-0.128998	-0.097174
H37	H	1.004369	-0.152101	0.000913
H38	H	1.060987	-0.131640	-0.159069
C39	C	0.845778	-0.186609	-0.264759
C40	C	0.883778	-0.214989	-0.144285
H41	H	0.790485	-0.239653	-0.293824
H42	H	0.802324	-0.112125	-0.265858
H43	H	0.918758	-0.188810	-0.316323
H44	H	0.810800	-0.212773	-0.092721
H45	H	0.927218	-0.289475	-0.143178
O46	O	1.142450	-0.012729	0.099842
C47	C	1.229237	-0.104181	0.060591
H48	H	1.264410	-0.086014	-0.035941
H49	H	1.179755	-0.185904	0.059486
C50	C	1.300165	-0.140537	0.268166
C51	C	1.343374	-0.118219	0.149609
H52	H	1.370568	-0.149201	0.323079
H53	H	1.241692	-0.078927	0.294613
H54	H	1.258931	-0.208637	0.267229
H55	H	1.384593	-0.050112	0.150545
H56	H	1.401857	-0.179818	0.123165
H57	H	0.891210	0.182053	-0.204261
H58	H	1.108531	0.189055	-0.203792
O59	O	1.092271	0.341697	-0.121875
C60	C	1.167259	0.365819	-0.019501
H61	H	1.219001	0.283222	0.017063
H62	H	1.103316	0.407705	0.055638
C63	C	1.202100	0.548609	-0.103473
C64	C	1.265660	0.447163	-0.058571
H65	H	1.262796	0.598790	-0.127570
H66	H	1.151576	0.532360	-0.172442
H67	H	1.148817	0.583499	-0.040849
H68	H	1.318929	0.412267	-0.121198
H69	H	1.316196	0.463408	0.010387
H70	H	0.871004	0.317637	-0.122220
O71	O	0.881334	0.180939	0.221605
C72	C	0.923331	0.241161	0.323469
H73	H	0.939592	0.331390	0.294037
H74	H	1.016365	0.195826	0.359732
C75	C	0.801594	0.135482	0.461664
C76	C	0.821555	0.246306	0.425517
H77	H	0.738818	0.138652	0.524614
H78	H	0.773303	0.094906	0.393037
H79	H	0.879130	0.097715	0.491875
H80	H	0.744024	0.284066	0.395293
H81	H	0.849831	0.286889	0.494141
O82	O	1.114770	0.177916	0.220579
C83	C	1.174615	0.256505	0.292798
H84	H	1.133124	0.346808	0.269173
H85	H	1.281394	0.247099	0.273238
C86	C	1.202753	0.122162	0.459039
C87	C	1.151786	0.233073	0.430029
H88	H	1.188677	0.107706	0.543690
H89	H	1.162439	0.069212	0.410382
H90	H	1.291732	0.114337	0.442730
H91	H	1.062807	0.240892	0.446324
H92	H	1.192085	0.286024	0.478692
