data_functionalizedCrystal
_audit_creation_method	'MofGen! by Chris Wilmer'
_symmetry_space_group_name_H-M	'P1'
_symmetry_Int_Tables_number	1
_symmetry_cell_setting	triclinic
loop_
_symmetry_equiv_pos_as_xyz
  x,y,z
_cell_length_a	23.532407
_cell_length_b	27.732048
_cell_length_c	22.010155
_cell_angle_alpha	89.999275
_cell_angle_beta	89.996931
_cell_angle_gamma	82.745667
loop_
_atom_site_label
_atom_site_type_symbol
_atom_site_fract_x
_atom_site_fract_y
_atom_site_fract_z
O1	O	0.755138	0.058672	-0.050456
O2	O	1.088472	0.392005	0.282878
O3	O	1.421805	0.725339	0.616211
O4	O	0.589257	0.067162	-0.050475
O5	O	0.922590	0.400496	0.282859
O6	O	1.255924	0.733829	0.616192
O7	O	0.677350	-0.007472	-0.050453
O8	O	1.010683	0.325862	0.282880
O9	O	1.344016	0.659195	0.616214
O10	O	0.667046	0.133306	-0.050477
O11	O	1.000379	0.466639	0.282856
O12	O	1.333712	0.799972	0.616189
O13	O	0.677334	-0.007461	0.050597
O14	O	1.010667	0.325873	0.383931
O15	O	1.344000	0.659206	0.717264
O16	O	0.589241	0.067173	0.050576
O17	O	0.922574	0.400507	0.383909
O18	O	1.255908	0.733840	0.717242
O19	O	0.755122	0.058683	0.050595
O20	O	1.088456	0.392016	0.383928
O21	O	1.421789	0.725350	0.717261
Cu22	Cu	0.672180	0.062929	0.059812
Cu23	Cu	1.005514	0.396263	0.393145
Cu24	Cu	1.338847	0.729596	0.726479
Cu25	Cu	0.672199	0.062916	-0.059692
Cu26	Cu	1.005532	0.396249	0.273641
Cu27	Cu	1.338866	0.729583	0.606975
O28	O	0.667030	0.133317	0.050573
O29	O	1.000363	0.466650	0.383906
O30	O	1.333696	0.799984	0.717240
C31	C	0.568033	0.066952	0.000048
C32	C	0.901367	0.400285	0.333382
C33	C	1.234700	0.733618	0.666715
C34	C	0.504818	0.066302	0.000042
C35	C	0.838151	0.399635	0.333375
C36	C	1.171484	0.732968	0.666708
C37	C	0.105629	0.106391	0.000062
C38	C	0.438962	0.439725	0.333396
C39	C	0.772296	0.773058	0.666729
C40	C	0.046230	0.105787	0.000066
C41	C	0.379563	0.439121	0.333399
C42	C	0.712897	0.772454	0.666733
O43	O	0.009406	0.142951	0.000082
O44	O	0.342739	0.476284	0.333415
O45	O	0.676073	0.809618	0.666748
N46	N	0.023699	0.061418	0.000073
N47	N	0.357032	0.394751	0.333406
N48	N	0.690365	0.728084	0.666739
C49	C	0.060570	0.017649	0.000082
C50	C	0.393903	0.350982	0.333415
C51	C	0.727236	0.684315	0.666748
O52	O	0.035951	-0.020147	0.000088
O53	O	0.369284	0.313187	0.333422
O54	O	0.702617	0.646520	0.666755
C55	C	0.119967	0.018253	0.000082
C56	C	0.453301	0.351586	0.333416
C57	C	0.786634	0.684920	0.666749
C58	C	0.142495	0.062626	0.000070
C59	C	0.475829	0.395959	0.333403
C60	C	0.809162	0.729292	0.666736
C61	C	0.128158	0.150760	0.000050
C62	C	0.461491	0.484094	0.333384
C63	C	0.794824	0.817427	0.666717
C64	C	0.187552	0.151364	0.000045
C65	C	0.520886	0.484697	0.333379
C66	C	0.854219	0.818031	0.666712
C67	C	0.224419	0.107599	0.000052
C68	C	0.557752	0.440932	0.333386
C69	C	0.891085	0.774265	0.666719
C70	C	0.201890	0.063229	0.000065
C71	C	0.535224	0.396563	0.333398
C72	C	0.868557	0.729896	0.666731
C73	C	0.156837	-0.025515	0.000096
C74	C	0.490171	0.307818	0.333429
C75	C	0.823504	0.641151	0.666762
C76	C	0.216239	-0.024907	0.000097
C77	C	0.549572	0.308426	0.333430
C78	C	0.882905	0.641760	0.666763
C79	C	0.238766	0.019466	0.000084
C80	C	0.572100	0.352799	0.333417
C81	C	0.905433	0.686132	0.666751
C82	C	0.298151	0.020068	0.000067
C83	C	0.631485	0.353401	0.333400
C84	C	0.964818	0.686734	0.666733
N85	N	0.320683	0.064437	0.000060
N86	N	0.654016	0.397771	0.333393
N87	N	0.987350	0.731104	0.666727
C88	C	0.283817	0.108203	0.000053
C89	C	0.617150	0.441536	0.333386
C90	C	0.950483	0.774870	0.666720
C91	C	-0.064170	0.016383	0.000082
C92	C	0.269163	0.349716	0.333415
C93	C	0.602497	0.683049	0.666748
C94	C	-0.123567	0.015778	0.000077
C95	C	0.209767	0.349111	0.333410
C96	C	0.543100	0.682445	0.666744
C97	C	-0.137902	0.103917	0.000062
C98	C	0.195431	0.437250	0.333396
C99	C	0.528764	0.770584	0.666729
C100	C	-0.078505	0.104521	0.000063
C101	C	0.254829	0.437855	0.333396
C102	C	0.588162	0.771188	0.666730
C103	C	-0.041639	0.060753	0.000075
C104	C	0.291695	0.394086	0.333408
C105	C	0.625028	0.727419	0.666742
C106	C	0.408551	0.109467	0.000042
C107	C	0.741884	0.442801	0.333375
C108	C	1.075217	0.776134	0.666709
C109	C	0.467951	0.110067	0.000035
C110	C	0.801285	0.443400	0.333368
C111	C	1.134618	0.776734	0.666701
C112	C	0.482282	0.021928	0.000052
C113	C	0.815615	0.355262	0.333386
C114	C	1.148948	0.688595	0.666719
C115	C	0.422886	0.021328	0.000057
C116	C	0.756220	0.354662	0.333390
C117	C	1.089553	0.687995	0.666723
C118	C	0.386021	0.065102	0.000053
C119	C	0.719355	0.398435	0.333387
C120	C	1.052688	0.731768	0.666720
O121	O	0.335010	-0.017077	0.000054
O122	O	0.668343	0.316257	0.333387
O123	O	1.001677	0.649590	0.666720
O124	O	0.308444	0.145992	0.000054
O125	O	0.641777	0.479325	0.333388
O126	O	0.975110	0.812659	0.666721
C127	C	0.677125	-0.025473	0.000074
C128	C	1.010459	0.307860	0.333407
C129	C	1.343792	0.641193	0.666740
C130	C	0.676474	-0.079129	0.000079
C131	C	1.009807	0.254204	0.333412
C132	C	1.343141	0.587537	0.666745
C133	C	0.724431	-0.417871	0.000053
C134	C	1.057764	-0.084537	0.333386
C135	C	1.391097	0.248796	0.666720
C136	C	0.722014	-0.619534	0.000044
C137	C	1.055348	-0.286201	0.333378
C138	C	1.388681	0.047133	0.666711
O139	O	0.765867	-0.650722	0.000023
O140	O	1.099201	-0.317389	0.333356
O141	O	1.432534	0.015945	0.666689
N142	N	0.669779	-0.638738	0.000039
N143	N	1.003112	-0.305405	0.333372
N144	N	1.336446	0.027929	0.666706
C145	C	0.618144	-0.607523	0.000032
C146	C	0.951477	-0.274189	0.333365
C147	C	1.284811	0.059144	0.666698
O148	O	0.573659	-0.628484	0.000021
O149	O	0.906993	-0.295151	0.333354
O150	O	1.240326	0.038182	0.666687
C151	C	0.620561	-0.405860	0.000036
C152	C	0.953895	-0.072527	0.333369
C153	C	1.287228	0.260806	0.666703
C154	C	0.672800	-0.386659	0.000048
C155	C	1.006133	-0.053326	0.333381
C156	C	1.339467	0.280007	0.666714
C157	C	0.776665	-0.398669	0.000064
C158	C	1.109999	-0.065336	0.333397
C159	C	1.443332	0.267998	0.666730
C160	C	0.777269	-0.348256	0.000069
C161	C	1.110602	-0.014923	0.333403
C162	C	1.443935	0.318411	0.666736
C163	C	0.725638	-0.317045	0.000064
C164	C	1.058971	0.016288	0.333397
C165	C	1.392305	0.349622	0.666731
C166	C	0.673403	-0.336247	0.000053
C167	C	1.006737	-0.002913	0.333386
C168	C	1.340070	0.330420	0.666720
C169	C	0.568927	-0.374646	0.000025
C170	C	0.902260	-0.041313	0.333358
C171	C	1.235594	0.292020	0.666691
C172	C	0.569536	-0.324228	0.000024
C173	C	0.902869	0.009105	0.333358
C174	C	1.236203	0.342439	0.666691
C175	C	0.621775	-0.305027	0.000036
C176	C	0.955108	0.028306	0.333369
C177	C	1.288441	0.361640	0.666702
C178	C	0.622376	-0.254622	0.000053
C179	C	0.955709	0.078711	0.333387
C180	C	1.289043	0.412044	0.666720
N181	N	0.674611	-0.235418	0.000059
N182	N	1.007945	0.097915	0.333392
N183	N	1.341278	0.431248	0.666725
C184	C	0.726242	-0.266630	0.000064
C185	C	1.059576	0.066704	0.333397
C186	C	1.392909	0.400037	0.666731
C187	C	0.616879	-0.713399	0.000031
C188	C	0.950212	-0.380066	0.333364
C189	C	1.283546	-0.046732	0.666697
C190	C	0.616274	-0.763814	0.000031
C191	C	0.949608	-0.430481	0.333364
C192	C	1.282941	-0.097148	0.666697
C193	C	0.720145	-0.775822	0.000042
C194	C	1.053478	-0.442489	0.333375
C195	C	1.386812	-0.109155	0.666709
C196	C	0.720749	-0.725406	0.000046
C197	C	1.054082	-0.392072	0.333380
C198	C	1.387415	-0.058739	0.666713
C199	C	0.669114	-0.694195	0.000036
C200	C	1.002447	-0.360861	0.333369
C201	C	1.335781	-0.027528	0.666703
C202	C	0.727506	-0.160758	0.000076
C203	C	1.060839	0.172575	0.333409
C204	C	1.394173	0.505908	0.666743
C205	C	0.728105	-0.110341	0.000084
C206	C	1.061438	0.222993	0.333417
C207	C	1.394772	0.556326	0.666751
C208	C	0.624235	-0.098337	0.000069
C209	C	0.957568	0.234996	0.333403
C210	C	1.290901	0.568329	0.666736
C211	C	0.623635	-0.148751	0.000065
C212	C	0.956969	0.184583	0.333398
C213	C	1.290302	0.517916	0.666731
C214	C	0.675276	-0.179961	0.000066
C215	C	1.008609	0.153373	0.333399
C216	C	1.341942	0.486706	0.666733
O217	O	0.578547	-0.223406	0.000068
O218	O	0.911880	0.109928	0.333401
O219	O	1.245213	0.443261	0.666735
O220	O	0.770721	-0.245659	0.000061
O221	O	1.104054	0.087675	0.333395
O222	O	1.437387	0.421008	0.666728
C223	C	0.723827	-0.468283	0.000047
C224	C	1.057161	-0.134950	0.333381
C225	C	1.390494	0.198383	0.666714
C226	C	0.671593	-0.487485	0.000037
C227	C	1.004926	-0.154152	0.333370
C228	C	1.338259	0.179182	0.666703
C229	C	0.619962	-0.456274	0.000031
C230	C	0.953295	-0.122941	0.333365
C231	C	1.286629	0.210393	0.666698
C232	C	0.670988	-0.537900	0.000037
C233	C	1.004322	-0.204567	0.333370
C234	C	1.337655	0.128766	0.666703
C235	C	0.722619	-0.569112	0.000042
C236	C	1.055953	-0.235778	0.333375
C237	C	1.389286	0.097555	0.666709
C238	C	0.774855	-0.549908	0.000047
C239	C	1.108188	-0.216574	0.333381
C240	C	1.441521	0.116759	0.666714
C241	C	0.775458	-0.499495	0.000053
C242	C	1.108791	-0.166161	0.333386
C243	C	1.442125	0.167172	0.666719
C244	C	0.567727	-0.475478	0.000026
C245	C	0.901060	-0.142145	0.333359
C246	C	1.234393	0.191189	0.666693
C247	C	0.567127	-0.525891	0.000021
C248	C	0.900461	-0.192558	0.333354
C249	C	1.233794	0.140775	0.666688
C250	C	0.618758	-0.557103	0.000026
C251	C	0.952092	-0.223769	0.333360
C252	C	1.285425	0.109564	0.666693
C253	C	0.776346	0.058894	0.000070
C254	C	1.109679	0.392227	0.333404
C255	C	1.443013	0.725560	0.666737
C256	C	0.839562	0.059544	0.000073
C257	C	1.172895	0.392877	0.333406
C258	C	1.506228	0.726210	0.666740
C259	C	0.667254	0.151319	0.000045
C260	C	1.000587	0.484652	0.333378
C261	C	1.333921	0.817985	0.666712
C262	C	0.667905	0.204975	0.000036
C263	C	1.001239	0.538308	0.333369
C264	C	1.334572	0.871641	0.666703
N265	N	0.672171	0.062938	0.143864
N266	N	1.005504	0.396272	0.477198
N267	N	1.338838	0.729605	0.810531
N268	N	0.672213	0.062903	-0.143744
N269	N	1.005546	0.396236	0.189589
N270	N	1.338879	0.729570	0.522922
C271	C	0.711209	0.029873	0.563653
C272	C	1.044542	0.363206	0.896987
C273	C	1.377875	0.696539	1.230320
C274	C	0.711211	0.029869	0.627261
C275	C	1.044545	0.363203	0.960594
C276	C	1.377878	0.696536	1.293928
O277	O	0.744380	0.001762	0.660160
O278	O	1.077713	0.335096	0.993494
O279	O	1.411046	0.668429	1.326827
N280	N	0.672199	0.062906	0.659071
N281	N	1.005532	0.396239	0.992405
N282	N	1.338866	0.729573	1.325738
C283	C	0.633177	0.095945	0.627271
C284	C	0.966511	0.429278	0.960604
C285	C	1.299844	0.762611	1.293938
O286	O	0.599994	0.124044	0.660169
O287	O	0.933327	0.457377	0.993503
O288	O	1.266661	0.790711	1.326836
C289	C	0.633172	0.095945	0.563665
C290	C	0.966506	0.429279	0.896998
C291	C	1.299839	0.762612	1.230331
C292	C	0.672191	0.062910	0.531857
C293	C	1.005525	0.396243	0.865191
C294	C	1.338858	0.729577	1.198524
C295	C	0.750224	-0.003160	0.531846
C296	C	1.083557	0.330173	0.865179
C297	C	1.416891	0.663506	1.198513
C298	C	0.750222	-0.003156	0.468243
C299	C	1.083555	0.330177	0.801576
C300	C	1.416889	0.663510	1.134909
C301	C	0.711205	0.029881	0.436447
C302	C	1.044538	0.363214	0.769780
C303	C	1.377871	0.696548	1.103113
C304	C	0.672189	0.062914	0.468254
C305	C	1.005523	0.396247	0.801588
C306	C	1.338856	0.729581	1.134921
C307	C	0.594148	0.128981	0.531866
C308	C	0.927482	0.462315	0.865199
C309	C	1.260815	0.795648	1.198532
C310	C	0.594147	0.128979	0.468255
C311	C	0.927480	0.462312	0.801588
C312	C	1.260813	0.795645	1.134921
C313	C	0.633166	0.095943	0.436447
C314	C	0.966499	0.429277	0.769781
C315	C	1.299832	0.762610	1.103114
C316	C	0.633170	0.095955	0.372855
C317	C	0.966503	0.429288	0.706188
C318	C	1.299836	0.762622	1.039522
N319	N	0.672182	0.062919	0.341045
N320	N	1.005516	0.396252	0.674378
N321	N	1.338849	0.729585	1.007711
C322	C	0.711200	0.029881	0.372840
C323	C	1.044533	0.363215	0.706174
C324	C	1.377866	0.696548	1.039507
C325	C	0.633190	0.095940	0.760849
C326	C	0.966523	0.429273	1.094182
C327	C	1.299857	0.762607	1.427516
C328	C	0.633197	0.095942	0.824454
C329	C	0.966530	0.429276	1.157788
C330	C	1.299864	0.762609	1.491121
C331	C	0.711231	0.029866	0.824440
C332	C	1.044564	0.363200	1.157773
C333	C	1.377897	0.696533	1.491106
C334	C	0.711226	0.029867	0.760833
C335	C	1.044559	0.363200	1.094166
C336	C	1.377892	0.696534	1.427500
C337	C	0.672202	0.062904	0.729038
C338	C	1.005536	0.396237	1.062372
C339	C	1.338869	0.729570	1.395705
C340	C	0.711193	0.029893	0.239269
C341	C	1.044526	0.363226	0.572602
C342	C	1.377859	0.696559	0.905936
C343	C	0.711189	0.029901	0.175660
C344	C	1.044522	0.363234	0.508994
C345	C	1.377855	0.696568	0.842327
C346	C	0.633153	0.095975	0.175680
C347	C	0.966487	0.429308	0.509014
C348	C	1.299820	0.762642	0.842347
C349	C	0.633159	0.095969	0.239284
C350	C	0.966492	0.429302	0.572617
C351	C	1.299826	0.762635	0.905950
C352	C	0.672181	0.062924	0.271076
C353	C	1.005514	0.396257	0.604410
C354	C	1.338848	0.729590	0.937743
O355	O	0.600017	0.124047	0.339915
O356	O	0.933350	0.457380	0.673248
O357	O	1.266683	0.790713	1.006582
O358	O	0.744372	0.001783	0.339935
O359	O	1.077706	0.335116	0.673268
O360	O	1.411039	0.668449	1.006601
H361	H	-0.167930	0.139553	0.000059
H362	H	0.165403	0.472886	0.333393
H363	H	0.498737	0.806220	0.666726
O364	O	0.591067	0.131608	0.141386
O365	O	0.924400	0.464941	0.474719
O366	O	1.257734	0.798274	0.808053
H367	H	0.546730	0.125635	0.153607
H368	H	0.880064	0.458968	0.486940
H369	H	1.213397	0.792301	0.820273
H370	H	0.742965	0.003000	0.149765
H371	H	1.076298	0.336333	0.483098
H372	H	1.409631	0.669666	0.816431
O373	O	-0.024412	-0.030830	0.000086
O374	O	0.308922	0.302504	0.333419
O375	O	0.642255	0.635837	0.666752
H376	H	0.002987	-0.032665	0.041275
H377	H	0.336320	0.300669	0.374609
H378	H	0.669654	0.634002	0.707942
H379	H	0.246253	-0.060550	0.000107
H380	H	0.579586	0.272784	0.333440
H381	H	0.912919	0.606117	0.666774
H382	H	0.524585	-0.541520	0.000017
H383	H	0.857918	-0.208186	0.333350
H384	H	1.191252	0.125147	0.666684
O385	O	0.512583	-0.395349	0.000010
O386	O	0.845917	-0.062016	0.333343
O387	O	1.179250	0.271317	0.666677
H388	H	0.476789	-0.365169	-0.000001
H389	H	0.810122	-0.031836	0.333332
H390	H	1.143456	0.301498	0.666666
H391	H	0.601414	0.122847	0.734965
H392	H	0.934747	0.456180	1.068298
H393	H	1.268080	0.789513	1.401631
H394	H	0.601392	0.122874	0.265182
H395	H	0.934725	0.456207	0.598515
H396	H	1.268058	0.789540	0.931848
H397	H	0.573737	-0.779443	0.000032
H398	H	0.907070	-0.446110	0.333365
H399	H	1.240403	-0.112776	0.666698
H400	H	0.781997	-0.030065	0.557728
H401	H	1.115330	0.303268	0.891062
H402	H	1.448664	0.636601	1.224395
O403	O	0.132548	-0.073375	0.000122
O404	O	0.465881	0.259959	0.333455
O405	O	0.799214	0.593292	0.666789
H406	H	0.168170	-0.103701	0.000139
H407	H	0.501504	0.229632	0.333472
H408	H	0.834837	0.562966	0.666805
O409	O	0.831804	-0.478791	0.000053
O410	O	1.165137	-0.145458	0.333386
O411	O	1.498470	0.187876	0.666719
H412	H	0.856588	-0.491354	0.041237
H413	H	1.189922	-0.158021	0.374570
H414	H	1.523255	0.175312	0.707903
O415	O	0.784452	-0.089633	0.000086
O416	O	1.117785	0.243700	0.333420
O417	O	1.451119	0.577033	0.666753
H418	H	0.809238	-0.102196	0.041270
H419	H	1.142571	0.231137	0.374604
H420	H	1.475904	0.564471	0.707937
O421	O	0.088398	0.197968	0.000040
O422	O	0.421731	0.531302	0.333373
O423	O	0.755065	0.864635	0.666706
H424	H	0.114053	0.228917	0.000028
H425	H	0.447386	0.562251	0.333361
H426	H	0.780719	0.895584	0.666694
H427	H	0.601430	0.122848	0.850347
H428	H	0.934763	0.456181	1.183681
H429	H	1.268097	0.789514	1.517014
O430	O	0.552046	0.164607	0.433966
O431	O	0.885380	0.497940	0.767299
O432	O	1.218713	0.831273	1.100632
H433	H	0.558589	0.159057	0.384391
H434	H	0.891923	0.492390	0.717725
H435	H	1.225256	0.825724	1.051058
H436	H	0.525681	-0.450070	0.000020
H437	H	0.859015	-0.116737	0.333354
H438	H	1.192348	0.216597	0.666687
O439	O	0.398582	-0.026529	0.000068
O440	O	0.731915	0.306805	0.333402
O441	O	1.065249	0.640138	0.666735
H442	H	0.434199	-0.056860	0.000075
H443	H	0.767532	0.276474	0.333408
H444	H	1.100866	0.609807	0.666742
O445	O	0.753303	-0.005775	0.726536
O446	O	1.086636	0.327558	1.059870
O447	O	1.419969	0.660891	1.393203
H448	H	0.729530	-0.029165	0.697566
H449	H	1.062863	0.304169	1.030899
H450	H	1.396196	0.637502	1.364233
H451	H	0.512309	-0.013704	0.000056
H452	H	0.845642	0.319629	0.333389
H453	H	1.178975	0.652962	0.666722
H454	H	0.581099	-0.164385	0.000072
H455	H	0.914432	0.168949	0.333406
H456	H	1.247765	0.502282	0.666739
O457	O	0.368798	0.156681	0.000036
O458	O	0.702132	0.490015	0.333369
O459	O	1.035465	0.823348	0.666703
H460	H	0.341397	0.158527	0.041227
H461	H	0.674730	0.491861	0.374560
H462	H	1.008063	0.825194	0.707893
H463	H	-0.060167	0.140653	0.000056
H464	H	0.273166	0.473987	0.333389
H465	H	0.606500	0.807320	0.666723
O466	O	0.492246	0.157930	0.000031
O467	O	0.825579	0.491263	0.333364
O468	O	1.158913	0.824596	0.666698
H469	H	0.477403	0.178945	-0.041154
H470	H	0.810736	0.512278	0.292180
H471	H	1.144069	0.845612	0.625513
O472	O	0.211848	0.199223	0.000050
O473	O	0.545181	0.532556	0.333383
O474	O	0.878514	0.865890	0.666716
H475	H	0.176226	0.229550	0.000055
H476	H	0.509559	0.562883	0.333389
H477	H	0.842893	0.896217	0.666722
H478	H	0.819807	-0.332628	0.000076
H479	H	1.153140	0.000706	0.333409
H480	H	1.486474	0.334039	0.666743
O481	O	0.832357	-0.432330	0.000078
O482	O	1.165691	-0.098996	0.333412
O483	O	1.499024	0.234337	0.666745
H484	H	0.868775	-0.410499	0.000092
H485	H	1.202108	-0.077166	0.333425
H486	H	1.535441	0.256168	0.666758
O487	O	-0.147863	-0.032081	0.000089
O488	O	0.185470	0.301253	0.333423
O489	O	0.518803	0.634586	0.666756
H490	H	-0.112243	-0.062409	0.000099
H491	H	0.221090	0.270924	0.333433
H492	H	0.554423	0.604258	0.666766
H493	H	0.763286	-0.709776	0.000055
H494	H	1.096619	-0.376443	0.333388
H495	H	1.429953	-0.043109	0.666722
H496	H	0.762185	-0.801243	0.000047
H497	H	1.095518	-0.467910	0.333380
H498	H	1.428851	-0.134576	0.666713
O499	O	0.513841	-0.290567	0.000016
O500	O	0.847174	0.042766	0.333349
O501	O	1.180507	0.376099	0.666683
H502	H	0.523031	-0.252283	0.000017
H503	H	0.856365	0.081050	0.333350
H504	H	1.189698	0.414384	0.666683
H505	H	0.769556	-0.186164	0.000075
H506	H	1.102890	0.147169	0.333408
H507	H	1.436223	0.480503	0.666741
O508	O	0.561184	-0.679737	0.000032
O509	O	0.894517	-0.346404	0.333366
O510	O	1.227851	-0.013071	0.666699
H511	H	0.524765	-0.701566	0.000038
H512	H	0.858099	-0.368233	0.333371
H513	H	1.191432	-0.034900	0.666704
H514	H	0.743000	0.002965	0.850339
H515	H	1.076333	0.336298	1.183673
H516	H	1.409667	0.669632	1.517006
H517	H	0.582198	-0.072916	0.000067
H518	H	0.915532	0.260417	0.333401
H519	H	1.248865	0.593751	0.666734
H520	H	0.816894	-0.575329	0.000054
H521	H	1.150228	-0.241996	0.333388
H522	H	1.483561	0.091338	0.666721
H523	H	0.742967	0.002984	0.265148
H524	H	1.076300	0.336317	0.598481
H525	H	1.409634	0.669651	0.931814
H526	H	0.781993	-0.030058	0.442349
H527	H	1.115326	0.303276	0.775682
H528	H	1.448660	0.636609	1.109016
O529	O	0.552062	0.164623	0.566146
O530	O	0.885395	0.497956	0.899480
O531	O	1.218729	0.831290	1.232813
H532	H	0.524557	0.144405	0.595133
H533	H	0.857890	0.477738	0.928467
H534	H	1.191223	0.811072	1.261800
