data_functionalizedCrystal
_audit_creation_method	'MofGen! by Chris Wilmer'
_symmetry_space_group_name_H-M	'P1'
_symmetry_Int_Tables_number	1
_symmetry_cell_setting	triclinic
loop_
_symmetry_equiv_pos_as_xyz
  x,y,z
_cell_length_a	6.817900
_cell_length_b	11.102244
_cell_length_c	14.125465
_cell_angle_alpha	94.634221
_cell_angle_beta	100.398878
_cell_angle_gamma	108.604870
loop_
_atom_site_label
_atom_site_type_symbol
_atom_site_fract_x
_atom_site_fract_y
_atom_site_fract_z
V1	V	-4.017262	-0.174747	-0.299974
O2	O	-3.978095	0.009521	-0.294266
O3	O	-3.994678	-0.347574	-0.297920
O4	O	-3.952932	-0.171566	-0.430804
O5	O	-4.020130	-0.167706	-0.160462
V6	V	-4.499609	-0.152764	-0.283287
O7	O	-4.281100	-0.222967	-0.336577
O8	O	-4.685968	-0.104545	-0.246684
O9	O	-4.298986	0.020063	-0.285342
O10	O	-4.656173	-0.337032	-0.288995
O11	O	-4.614137	-0.159805	-0.422799
O12	O	-4.340732	-0.155945	-0.152457
C13	C	-3.846475	-0.389721	-0.293187
C14	C	-3.909191	-0.531006	-0.292380
C15	C	-3.906168	-0.579563	-0.203898
C16	C	-3.965107	-0.712318	-0.203151
C17	C	-4.030082	-0.747949	-0.379374
C18	C	-3.971157	-0.615196	-0.380121
C19	C	-3.844201	-0.495372	-0.116157
C20	C	-3.841174	-0.543928	-0.027668
C21	C	-3.900113	-0.676683	-0.026921
C22	C	-3.962080	-0.760882	-0.114662
C23	C	-3.793222	-0.165203	-0.462693
C24	C	-3.822079	-0.163746	-0.569647
C25	C	-3.874973	-0.161074	-0.765470
C26	C	-4.061266	-0.166434	-0.817791
C27	C	-4.090699	-0.164948	-0.926754
C28	C	-3.845532	-0.162561	-0.656497
C29	C	-4.110533	0.062203	-0.290072
C30	C	-4.027055	0.203487	-0.290885
C31	C	-4.163786	-0.162312	-0.120564
C32	C	-4.114166	-0.163763	-0.013608
H33	H	-3.897664	-0.716213	0.045130
H34	H	-4.080534	-0.816513	-0.450808
O35	O	-3.711158	-0.154109	-0.809741
C36	C	-3.477232	-0.034644	-0.904589
C37	C	-3.662779	-0.042382	-0.854498
H38	H	-3.438032	0.055694	-0.940770
H39	H	-3.523824	-0.122948	-0.962009
H40	H	-3.332367	-0.030911	-0.848003
H41	H	-3.807718	-0.046075	-0.911012
H42	H	-3.616011	0.045920	-0.797059
H43	H	-3.790733	-0.475365	0.043767
O44	O	-3.974434	-0.568179	-0.466137
C45	C	-4.185410	-0.564072	-0.621515
C46	C	-4.181975	-0.617439	-0.524152
H47	H	-4.353199	-0.603856	-0.668439
H48	H	-4.073027	-0.594037	-0.661207
H49	H	-4.132554	-0.454728	-0.606946
H50	H	-4.234877	-0.726784	-0.538634
H51	H	-4.294310	-0.587375	-0.484490
O52	O	-4.224991	-0.173311	-0.773466
C53	C	-4.344412	-0.180975	-0.622856
C54	C	-4.158841	-0.173203	-0.672937
H55	H	-4.290983	-0.180862	-0.541567
H56	H	-4.482651	-0.273173	-0.655452
H57	H	-4.396951	-0.094540	-0.634471
H58	H	-4.106118	-0.259570	-0.661340
H59	H	-4.020724	-0.080950	-0.640333
H60	H	-3.796194	-0.387274	-0.116755
H61	H	-4.010084	-0.868979	-0.114047
