data_functionalizedCrystal
_audit_creation_method	'MofGen! by Chris Wilmer'
_symmetry_space_group_name_H-M	'P1'
_symmetry_Int_Tables_number	1
_symmetry_cell_setting	triclinic
loop_
_symmetry_equiv_pos_as_xyz
  x,y,z
_cell_length_a	20.919287
_cell_length_b	20.919467
_cell_length_c	20.919292
_cell_angle_alpha	63.575155
_cell_angle_beta	89.999828
_cell_angle_gamma	60.190942
loop_
_atom_site_label
_atom_site_type_symbol
_atom_site_fract_x
_atom_site_fract_y
_atom_site_fract_z
Zr1	Zr	0.648651	0.664226	-0.083187
O2	O	0.548432	0.790825	-0.172914
O3	O	0.674300	0.537628	-0.060237
O4	O	0.674275	0.664228	-0.186826
O5	O	0.554249	0.664223	0.058714
O6	O	0.779313	0.664228	-0.192617
O7	O	0.548458	0.664225	-0.046325
O8	O	0.779359	0.437764	0.033827
O9	O	0.554203	0.890687	-0.167731
O10	O	0.769758	0.589700	-0.049266
O11	O	0.695691	0.589698	0.033445
O12	O	0.695661	0.738753	-0.115598
O13	O	0.621594	0.738751	-0.032886
Zr14	Zr	0.825411	0.664224	0.075102
Zr15	Zr	0.816174	0.664227	-0.092423
Zr16	Zr	0.657888	0.664223	0.084338
Zr17	Zr	0.657855	0.823495	-0.074920
Zr18	Zr	0.816207	0.504955	0.066835
O19	O	0.799762	0.790822	0.052152
O20	O	0.786629	0.790826	-0.186047
O21	O	0.561565	0.790821	0.065284
O22	O	0.925630	0.537625	0.164829
O23	O	0.912497	0.537629	-0.073370
O24	O	0.687434	0.537624	0.177961
O25	O	0.919813	0.664227	-0.066799
O26	O	0.799788	0.664222	0.178741
O27	O	0.694750	0.664222	0.184532
O28	O	0.925604	0.664225	0.038240
O29	O	0.687362	0.890688	-0.175072
O30	O	0.786700	0.437762	0.166987
O31	O	0.919859	0.437763	0.159646
O32	O	0.912517	0.437765	0.026486
O33	O	0.561545	0.890685	-0.034571
O34	O	0.694704	0.890686	-0.041912
O35	O	0.778402	0.589697	0.107512
O36	O	0.852468	0.589699	0.024801
O37	O	0.778371	0.738752	-0.041530
O38	O	0.704305	0.738750	0.041181
C39	C	0.725518	0.465004	-0.014383
C40	C	0.721611	0.397390	-0.017892
C41	C	0.777638	0.310603	0.032276
C42	C	0.773932	0.247092	0.028977
C43	C	0.714202	0.270369	-0.024496
C44	C	0.658169	0.357165	-0.074667
C45	C	0.661872	0.420674	-0.071363
C46	C	0.700122	0.081365	-0.037060
C47	C	0.696425	0.017847	-0.040362
C48	C	0.812187	-0.092222	0.063283
C49	C	0.815888	-0.028706	0.066579
C50	C	0.759853	0.058084	0.016411
C51	C	0.710414	0.205452	-0.027872
C52	C	0.763638	0.122999	0.019790
C53	C	0.527485	0.664224	0.007510
C54	C	0.456367	0.664224	0.011431
C55	C	0.419765	0.664227	-0.044595
C56	C	0.352944	0.664222	-0.040907
C57	C	0.322724	0.664220	0.018804
C58	C	0.359332	0.664215	0.074836
C59	C	0.426155	0.664213	0.071150
C60	C	0.121126	0.664219	0.032830
C61	C	0.054297	0.664223	0.036510
C62	C	0.047915	0.664229	-0.079233
C63	C	0.114736	0.664233	-0.082916
C64	C	0.151341	0.664223	-0.026882
C65	C	0.254421	0.664218	0.022574
C66	C	0.219645	0.664219	-0.030650
C67	C	0.946577	0.664226	-0.015596
C68	C	1.017695	0.664226	-0.019516
C69	C	0.725478	0.664229	-0.213591
C70	C	0.721556	0.664230	-0.284709
C71	C	0.748544	0.863446	0.006298
C72	C	0.752452	0.931060	0.009807
C73	C	0.777580	0.664231	-0.321311
C74	C	0.773898	0.664225	-0.388131
C75	C	0.714188	0.664223	-0.418351
C76	C	0.658161	0.664219	-0.381743
C77	C	0.661847	0.664219	-0.314921
C78	C	0.700165	0.664216	-0.619947
C79	C	0.696482	0.664219	-0.686774
C80	C	0.812220	0.664223	-0.693157
C81	C	0.815898	0.664229	-0.626336
C82	C	0.759874	0.664220	-0.589732
C83	C	0.710421	0.664219	-0.486653
C84	C	0.763645	0.664218	-0.521429
C85	C	0.748585	0.664222	0.205505
C86	C	0.752506	0.664220	0.276624
C87	C	0.935064	0.465005	-0.025936
C88	C	1.002275	0.397391	-0.033366
C89	C	0.737072	0.465000	0.195165
C90	C	0.737085	0.397385	0.262774
C91	C	0.946618	0.465001	0.183612
C92	C	1.017749	0.397387	0.247300
C93	C	0.527445	0.863449	-0.191698
C94	C	0.456313	0.931063	-0.255386
C95	C	0.538998	0.863445	0.017850
C96	C	0.471788	0.931059	0.025281
C97	C	0.736991	0.863450	-0.203250
C98	C	0.736977	0.931065	-0.270860
C99	C	0.990663	0.365640	-0.075525
C100	C	1.053808	0.302119	-0.082521
C101	C	1.128563	0.270346	-0.047354
C102	C	1.140174	0.302103	-0.005194
C103	C	1.077030	0.365628	0.001798
C104	C	0.780266	0.365632	0.333194
C105	C	0.780277	0.302110	0.396727
C106	C	0.737111	0.270337	0.389838
C107	C	0.693925	0.302096	0.319412
C108	C	0.693910	0.365622	0.255881
C109	C	1.089823	0.365635	0.234034
C110	C	1.156665	0.302113	0.293870
C111	C	1.151432	0.270339	0.366971
C112	C	1.079351	0.302097	0.380236
C113	C	1.012511	0.365622	0.320401
C114	C	0.384240	0.962823	-0.242119
C115	C	0.317399	1.026365	-0.301954
C116	C	0.322632	1.058142	-0.375055
C117	C	0.394712	1.026380	-0.388320
C118	C	0.461552	0.962844	-0.328486
C119	C	0.483399	0.962817	0.067433
C120	C	0.420255	1.026356	0.074412
C121	C	0.345499	1.058131	0.039242
C122	C	0.333888	1.026370	-0.002915
C123	C	0.397032	0.962837	-0.009898
C124	C	0.780151	0.962817	-0.263948
C125	C	0.780154	1.026340	-0.327468
C126	C	0.736977	1.058114	-0.397900
C127	C	0.693801	1.026355	-0.404811
C128	C	0.693803	0.962829	-0.341291
H129	H	0.857806	-0.162890	0.104129
F130	F	0.646846	0.230218	-0.084779
H131	H	0.736981	1.109842	-0.449616
H132	H	0.029695	0.664222	0.085137
F133	F	0.278302	1.125749	0.046681
F134	F	1.219740	0.268278	0.032232
F135	F	0.647846	1.060186	-0.479776
H136	H	0.819517	0.664226	-0.417932
F137	F	0.826110	0.929012	-0.188995
H138	H	0.647856	0.664218	-0.711376
F139	F	1.041435	0.268328	-0.127392
F140	F	0.841129	0.664240	-0.289158
H141	H	0.661803	0.664220	-0.511264
H142	H	0.429723	1.052205	0.108743
F143	F	0.826106	1.060133	-0.320097
H144	H	0.812268	0.104050	0.063330
F145	F	0.562955	0.929013	0.104868
F146	F	0.254322	1.060194	-0.040340
H147	H	0.658642	0.936983	-0.346929
H148	H	0.737129	0.218610	0.441575
H149	H	0.953828	0.391466	0.331213
F150	F	0.465111	0.664206	0.130783
F151	F	0.222254	0.664219	0.086122
F152	F	0.378653	0.929013	-0.164325
H153	H	0.444363	0.664234	-0.093221
F154	F	0.594595	0.381937	-0.131572
H155	H	0.258715	1.052215	-0.291139
H156	H	0.520235	0.936985	-0.339297
H157	H	1.205864	0.218612	0.415686
F158	F	0.841215	0.285820	0.089186
H159	H	0.398964	1.052261	-0.447846
F160	F	0.833561	0.154726	0.082377
F161	F	1.073794	0.268272	0.458041
F162	F	0.384662	0.929039	-0.054759
F163	F	0.879458	-0.053488	0.123495
F164	F	0.640484	0.173726	-0.090454
F165	F	0.632852	0.042628	-0.097280
F166	F	0.313990	0.664224	-0.100536
H167	H	0.857833	0.664229	-0.722966
H168	H	0.268201	1.109877	-0.423769
H169	H	0.018106	0.664236	-0.124852
F170	F	0.602239	0.513042	-0.124758
H171	H	0.658749	0.391467	0.198544
F172	F	0.146897	0.664236	-0.146468
H173	H	0.815447	0.276258	0.454065
F174	F	0.160077	0.664211	0.092462
H175	H	0.815418	0.391494	0.338817
H176	H	0.616228	0.664216	-0.285120
F177	F	0.327172	0.664207	0.138389
F178	F	0.647988	0.268272	0.312092
F179	F	0.251811	0.664216	-0.094195
F180	F	1.089400	0.399409	0.046675
F181	F	0.879447	0.664232	-0.594176
H182	H	0.654547	0.664212	-0.590150
H183	H	0.609546	0.664212	-0.406349
F184	F	1.233370	0.268322	0.279737
F185	F	0.827193	0.664215	-0.489264
F186	F	0.911108	0.399446	-0.112962
H187	H	1.179973	0.218619	-0.053052
F188	F	1.095409	0.399443	0.156240
