data_functionalizedCrystal
_audit_creation_method	'MofGen! by Chris Wilmer'
_symmetry_space_group_name_H-M	'P1'
_symmetry_Int_Tables_number	1
_symmetry_cell_setting	triclinic
loop_
_symmetry_equiv_pos_as_xyz
  x,y,z
_cell_length_a	21.395362
_cell_length_b	18.101395
_cell_length_c	21.395355
_cell_angle_alpha	90.015727
_cell_angle_beta	90.043940
_cell_angle_gamma	90.046983
loop_
_atom_site_label
_atom_site_type_symbol
_atom_site_fract_x
_atom_site_fract_y
_atom_site_fract_z
Zn1	Zn	0.957858	-0.294602	0.354598
Zn2	Zn	0.957760	-0.418425	0.249825
Zn3	Zn	0.853073	-0.294636	0.249799
Zn4	Zn	0.853041	-0.418440	0.354530
O5	O	0.905433	-0.356526	0.302188
O6	O	1.045523	-0.311006	0.340739
O7	O	0.943845	-0.402012	0.162144
O8	O	0.867027	-0.190998	0.263718
O9	O	1.045450	-0.401979	0.263763
O10	O	0.944012	-0.190973	0.340713
O11	O	0.866932	-0.311065	0.162125
O12	O	0.765391	-0.311080	0.263652
O13	O	0.866973	-0.402005	0.442217
O14	O	0.765367	-0.402038	0.340598
O15	O	0.943982	-0.311021	0.442267
O16	O	0.943814	-0.522060	0.263697
O17	O	0.866878	-0.522071	0.340623
C18	C	0.742645	-0.356565	0.302115
C19	C	0.673004	-0.356599	0.302099
C20	C	0.640295	-0.404024	0.342105
C21	C	0.574860	-0.404006	0.342133
C22	C	0.542136	-0.356571	0.302144
C23	C	0.574852	-0.309137	0.262135
C24	C	0.640286	-0.309151	0.262113
C25	C	0.438411	-0.350605	0.245738
C26	C	0.372978	-0.350596	0.245760
C27	C	0.340315	-0.356523	0.302213
C28	C	0.373093	-0.362474	0.358647
C29	C	0.438527	-0.362488	0.358624
C30	C	0.471183	-0.356550	0.302164
C31	C	0.236654	-0.403930	0.342252
C32	C	0.171217	-0.403907	0.342281
C33	C	0.171211	-0.309042	0.262278
C34	C	0.236646	-0.309061	0.262255
C35	C	0.269364	-0.356509	0.302241
C36	C	0.905349	-0.548936	0.302170
C37	C	0.905370	-0.631250	0.302183
C38	C	0.905508	-0.930341	0.302216
C39	C	0.857214	-0.899054	0.350736
C40	C	0.856985	-0.813436	0.350585
C41	C	0.905440	-0.781959	0.302200
C42	C	0.887557	-0.813100	0.236161
C43	C	0.887246	-0.898745	0.236451
C44	C	0.971790	-0.898667	0.319154
C45	C	0.971400	-0.813017	0.320602
C46	C	0.905402	-0.698099	0.302187
C47	C	0.905544	-1.014201	0.302225
C48	C	1.068856	-0.356487	0.302261
C49	C	1.138497	-0.356470	0.302293
C50	C	0.905485	-0.356511	0.465611
C51	C	0.905507	-0.356504	0.535253
C52	C	0.905534	-0.163364	0.302220
C53	C	0.905577	-0.081050	0.302234
C54	C	0.905417	-0.356487	0.139400
C55	C	0.905516	-0.356285	0.069760
C56	C	0.945603	-0.309127	0.567993
C57	C	0.945603	-0.309095	0.633428
C58	C	0.905512	-0.356454	0.666121
C59	C	0.865408	-0.403834	0.633373
C60	C	0.865405	-0.403859	0.567939
C61	C	0.900536	-0.423137	0.769788
C62	C	0.900542	-0.423113	0.835221
C63	C	0.905516	-0.356375	0.867942
C64	C	0.910495	-0.289660	0.835222
C65	C	0.910493	-0.289685	0.769788
C66	C	0.905510	-0.356431	0.737073
C67	C	0.945613	-0.308960	0.971635
C68	C	0.945608	-0.308927	1.037071
C69	C	0.865416	-0.403672	1.037015
C70	C	0.865418	-0.403699	0.971580
C71	C	0.905520	-0.356344	0.938893
H72	H	0.666918	-0.270530	0.229536
H73	H	0.914546	-0.235316	0.861862
C74	C	1.080496	-0.813047	0.294380
C75	C	1.022548	-0.784092	0.276375
H76	H	1.112071	-0.795187	0.267072
H77	H	1.079069	-0.865437	0.292309
H78	H	1.089651	-0.798141	0.335967
H79	H	1.013391	-0.799002	0.234788
H80	H	1.023975	-0.731691	0.278439
H81	H	0.868173	-0.792380	0.399551
C82	C	1.029906	-0.298684	0.898119
C83	C	0.989691	-0.256905	0.935704
H84	H	1.057121	-0.266546	0.875943
H85	H	1.006029	-0.326899	0.869254
H86	H	1.053850	-0.330932	0.923675
H87	H	0.965744	-0.224660	0.910147
H88	H	1.013571	-0.228677	0.964573
H89	H	0.666930	-0.442659	0.374665
C90	C	0.924968	-0.972392	0.415156
C91	C	0.872158	-0.926810	0.417055
H92	H	0.934190	-0.989536	0.456099
H93	H	0.959544	-0.945172	0.399496
H94	H	0.916980	-1.013390	0.388591
H95	H	0.880148	-0.885810	0.443617
H96	H	0.837575	-0.954031	0.432724
H97	H	0.838794	-0.918801	0.222106
C98	C	0.948019	-0.506007	0.908827
C99	C	0.895082	-0.496450	0.871176
H100	H	0.944652	-0.551288	0.931018
H101	H	0.950979	-0.466268	0.937680
H102	H	0.984328	-0.506959	0.883315
H103	H	0.858773	-0.495492	0.896689
H104	H	0.892116	-0.536200	0.842320
H105	H	0.914546	-0.235363	0.743150
H106	H	0.978253	-0.270511	0.660090
C107	C	0.899930	-0.969656	0.142459
C108	C	0.932676	-0.926711	0.185999
H109	H	0.927980	-0.986926	0.111319
H110	H	0.868262	-0.940555	0.123454
H111	H	0.881348	-1.010619	0.163075
H112	H	0.951254	-0.885744	0.165383
H113	H	0.964355	-0.955813	0.205005
C114	C	0.352989	-0.435486	0.450137
C115	C	0.337203	-0.368976	0.420711
H116	H	0.330828	-0.439499	0.488450
H117	H	0.396645	-0.436347	0.458192
H118	H	0.342188	-0.475721	0.423728
H119	H	0.348009	-0.328740	0.447118
H120	H	0.293537	-0.368109	0.412658
H121	H	0.832767	-0.442225	1.063633
H122	H	0.263294	-0.442562	0.374814
H123	H	0.548204	-0.270514	0.229577
C124	C	0.791213	-1.005478	0.338820
C125	C	0.791293	-0.928207	0.335777
H126	H	0.750518	-1.023476	0.329579
H127	H	0.802954	-1.020729	0.379645
H128	H	0.820109	-1.024632	0.309292
H129	H	0.762400	-0.909053	0.365309
H130	H	0.779544	-0.912949	0.294946
H131	H	0.807855	-0.793026	0.339363
H132	H	0.984886	-0.792661	0.369204
C133	C	0.807504	-0.812493	0.157453
C134	C	0.822839	-0.784259	0.216446
H135	H	0.767550	-0.794684	0.145284
H136	H	0.806662	-0.864915	0.159196
H137	H	0.837895	-0.797015	0.127868
H138	H	0.792449	-0.799741	0.246032
H139	H	0.823675	-0.731825	0.214707
C140	C	0.256707	-0.272814	0.156205
C141	C	0.272605	-0.256938	0.218273
H142	H	0.278910	-0.240634	0.129053
H143	H	0.213060	-0.266013	0.150501
H144	H	0.267382	-0.322561	0.146967
H145	H	0.261926	-0.207192	0.227512
H146	H	0.316262	-0.263732	0.223980
H147	H	0.465000	-0.345775	0.199764
H148	H	0.921625	-0.792710	0.199023
H149	H	0.832771	-0.442283	0.944922
C150	C	1.024885	-0.215293	1.030550
C151	C	0.989687	-0.256846	1.073062
H152	H	1.052100	-0.183144	1.052771
H153	H	0.997604	-0.186980	1.005007
H154	H	1.048829	-0.247576	1.005048
H155	H	0.965739	-0.224563	1.098561
H156	H	1.016971	-0.285162	1.098615
C157	C	1.066705	-0.966512	0.302424
C158	C	1.020370	-0.925976	0.271456
H159	H	1.096694	-0.983369	0.272976
H160	H	1.048193	-1.007706	0.322759
H161	H	1.086660	-0.935945	0.332533
H162	H	1.000411	-0.956544	0.241350
H163	H	1.038884	-0.884776	0.251111
H164	H	0.988093	-0.920221	0.366491
C165	C	1.024868	-0.215472	0.574626
C166	C	0.989676	-0.257067	0.532065
H167	H	1.052072	-0.183329	0.552443
H168	H	1.048818	-0.247724	0.600163
H169	H	0.997579	-0.187145	0.600130
H170	H	1.016966	-0.285398	0.506564
H171	H	0.965724	-0.224811	0.506517
H172	H	0.896318	-0.477468	0.743152
C173	C	0.458834	-0.309689	0.459582
C174	C	0.474556	-0.369017	0.420654
H175	H	0.481080	-0.313716	0.497876
H176	H	0.415195	-0.310537	0.467675
H177	H	0.469574	-0.264579	0.439599
H178	H	0.463811	-0.414127	0.440635
H179	H	0.518204	-0.368176	0.412563
C180	C	0.177800	-0.497694	0.421342
C181	C	0.135261	-0.456044	0.386256
H182	H	0.155600	-0.529885	0.448487
H183	H	0.203374	-0.465481	0.445351
H184	H	0.203268	-0.525973	0.393982
H185	H	0.109796	-0.427760	0.413617
H186	H	0.109675	-0.488261	0.362246
C187	C	0.834822	-0.529237	0.653497
C188	C	0.821339	-0.455895	0.669304
H189	H	0.807610	-0.561375	0.675676
H190	H	0.876908	-0.540057	0.664254
H191	H	0.829080	-0.536021	0.609839
H192	H	0.827085	-0.449109	0.712962
H193	H	0.779242	-0.445071	0.658551
C194	C	0.829797	-0.445965	0.467610
C195	C	0.821331	-0.455943	0.531946
H196	H	0.802584	-0.478118	0.445390
H197	H	0.871884	-0.456801	0.456924
H198	H	0.820653	-0.396211	0.456882
H199	H	0.830479	-0.505696	0.542674
H200	H	0.779234	-0.445113	0.542636
C201	C	0.581432	-0.497782	0.421206
C202	C	0.538896	-0.456136	0.386112
H203	H	0.559229	-0.529966	0.448354
H204	H	0.607007	-0.465566	0.445210
H205	H	0.606899	-0.526069	0.393850
H206	H	0.513431	-0.427845	0.413467
H207	H	0.513310	-0.488357	0.362105
C208	C	0.097568	-0.298617	0.178019
C209	C	0.135260	-0.256910	0.218302
H210	H	0.075378	-0.266433	0.150863
H211	H	0.068715	-0.326838	0.201850
H212	H	0.123054	-0.330856	0.154016
H213	H	0.109774	-0.224675	0.242308
H214	H	0.164117	-0.228676	0.194468
C215	C	0.379437	-0.338838	0.134175
C216	C	0.336952	-0.344052	0.183729
H217	H	0.357196	-0.334793	0.095880
H218	H	0.404920	-0.381766	0.133285
H219	H	0.405002	-0.296409	0.139748
H220	H	0.311390	-0.386484	0.178159
H221	H	0.311458	-0.301119	0.184618
