data_functionalizedCrystal
_audit_creation_method	'MofGen! by Chris Wilmer'
_symmetry_space_group_name_H-M	'P1'
_symmetry_Int_Tables_number	1
_symmetry_cell_setting	triclinic
loop_
_symmetry_equiv_pos_as_xyz
  x,y,z
_cell_length_a	16.120530
_cell_length_b	16.120484
_cell_length_c	18.215399
_cell_angle_alpha	92.869789
_cell_angle_beta	87.083352
_cell_angle_gamma	90.167327
loop_
_atom_site_label
_atom_site_type_symbol
_atom_site_fract_x
_atom_site_fract_y
_atom_site_fract_z
Zn1	Zn	1.254472	-0.395614	-0.489889
Zn2	Zn	1.587805	-0.062280	-0.156556
Zn3	Zn	1.921139	0.271053	0.176778
Zn4	Zn	1.247316	-0.534672	-0.372722
Zn5	Zn	1.580649	-0.201339	-0.039388
Zn6	Zn	1.913982	0.131995	0.293945
Zn7	Zn	1.115412	-0.388579	-0.360305
Zn8	Zn	1.448745	-0.055246	-0.026972
Zn9	Zn	1.782079	0.278088	0.306362
Zn10	Zn	1.108324	-0.527567	-0.489215
Zn11	Zn	1.441658	-0.194234	-0.155882
Zn12	Zn	1.774991	0.139100	0.177451
O13	O	1.181381	-0.461608	-0.428033
O14	O	1.514714	-0.128275	-0.094699
O15	O	1.848048	0.205059	0.238634
O16	O	1.369888	-0.419978	-0.479825
O17	O	1.703222	-0.086644	-0.146491
O18	O	2.036555	0.246689	0.186842
O19	O	1.229790	-0.515322	-0.268090
O20	O	1.563123	-0.181988	0.065243
O21	O	1.896456	0.151345	0.398576
O22	O	1.139820	-0.273149	-0.372580
O23	O	1.473153	0.060184	-0.039247
O24	O	1.806487	0.393518	0.294087
O25	O	1.364630	-0.522143	-0.393742
O26	O	1.697964	-0.188810	-0.060409
O27	O	2.031297	0.144524	0.272924
O28	O	1.241987	-0.278317	-0.467785
O29	O	1.575320	0.055016	-0.134451
O30	O	1.908653	0.388349	0.198882
O31	O	1.132881	-0.407988	-0.258968
O32	O	1.466214	-0.074655	0.074365
O33	O	1.799547	0.258679	0.407699
O34	O	0.998106	-0.401099	-0.371927
O35	O	1.331440	-0.067765	-0.038594
O36	O	1.664773	0.265568	0.294740
O37	O	1.127740	-0.510034	-0.592289
O38	O	1.461073	-0.176700	-0.258956
O39	O	1.794407	0.156633	0.074378
O40	O	0.992899	-0.503212	-0.466637
O41	O	1.326232	-0.169879	-0.133304
O42	O	1.659566	0.163454	0.200030
O43	O	1.235114	-0.413088	-0.592784
O44	O	1.568447	-0.079755	-0.259450
O45	O	1.901781	0.253578	0.073883
O46	O	1.222917	-0.650093	-0.393090
O47	O	1.556250	-0.316759	-0.059756
O48	O	1.889584	0.016574	0.273577
O49	O	1.120801	-0.644873	-0.478677
O50	O	1.454134	-0.311539	-0.145344
O51	O	1.787467	0.021794	0.187990
C52	C	0.965330	-0.450622	-0.417862
C53	C	1.298664	-0.117288	-0.084529
C54	C	1.631997	0.216045	0.248805
C55	C	0.872902	-0.445942	-0.413529
C56	C	1.206235	-0.112608	-0.080196
C57	C	1.539569	0.220725	0.253137
C58	C	1.170336	-0.677655	-0.437175
C59	C	1.503669	-0.344322	-0.103841
C60	C	1.837002	-0.010989	0.229492
C61	C	1.165686	-0.770085	-0.441114
C62	C	1.499020	-0.436752	-0.107780
C63	C	1.832353	-0.103419	0.225553
C64	C	0.703675	-0.437378	-0.405624
C65	C	1.037008	-0.104045	-0.072291
C66	C	1.370342	0.229289	0.261042
C67	C	0.659925	-0.485899	-0.450498
C68	C	0.993258	-0.152566	-0.117164
C69	C	1.326591	0.180768	0.216169
C70	C	0.565761	-0.481134	-0.446099
C71	C	0.899094	-0.147801	-0.112766
C72	C	1.232428	0.185532	0.220567
C73	C	0.797847	-0.442142	-0.410022
C74	C	1.131181	-0.108809	-0.076688
C75	C	1.464514	0.224525	0.256645
C76	C	1.157203	-0.939316	-0.448321
C77	C	1.490536	-0.605983	-0.114988
C78	C	1.823870	-0.272650	0.218346
C79	C	1.205708	-0.983066	-0.407764
C80	C	1.539041	-0.649733	-0.074430
C81	C	1.872375	-0.316400	0.258903
C82	C	1.200988	-1.077232	-0.411774
C83	C	1.534321	-0.743899	-0.078440
C84	C	1.867655	-0.410566	0.254893
C85	C	1.161922	-0.845142	-0.444312
C86	C	1.495255	-0.511809	-0.110978
C87	C	1.828589	-0.178475	0.222355
C88	C	1.398275	-0.472638	-0.438244
C89	C	1.731609	-0.139304	-0.104910
C90	C	2.064942	0.194029	0.228423
C91	C	1.490703	-0.477338	-0.442595
C92	C	1.824036	-0.144005	-0.109262
C93	C	2.157369	0.189329	0.224072
C94	C	1.181435	-0.461553	-0.619986
C95	C	1.514768	-0.128220	-0.286652
C96	C	1.848101	0.205113	0.046681
C97	C	1.181457	-0.461530	-0.701785
C98	C	1.514791	-0.128197	-0.368451
C99	C	1.848124	0.205137	-0.035118
C100	C	1.192492	-0.244718	-0.418872
C101	C	1.525826	0.088615	-0.085539
C102	C	1.859159	0.421949	0.247794
C103	C	1.197227	-0.152292	-0.414969
C104	C	1.530561	0.181041	-0.081635
C105	C	1.863894	0.514374	0.251698
C106	C	1.237389	-0.411002	-0.890236
C107	C	1.570722	-0.077668	-0.556903
C108	C	1.904056	0.255665	-0.223570
C109	C	1.237400	-0.410978	-0.967094
C110	C	1.570733	-0.077645	-0.633761
C111	C	1.904067	0.255689	-0.300428
C112	C	1.125591	-0.511932	-0.966568
C113	C	1.458925	-0.178599	-0.633235
C114	C	1.792258	0.154734	-0.299902
C115	C	1.125577	-0.511951	-0.889711
C116	C	1.458910	-0.178618	-0.556378
C117	C	1.792244	0.154715	-0.223044
C118	C	1.181480	-0.461487	-0.851547
C119	C	1.514814	-0.128154	-0.518214
C120	C	1.848147	0.205179	-0.184881
C121	C	1.181506	-0.461445	-1.005263
C122	C	1.514839	-0.128111	-0.671929
C123	C	1.848173	0.205222	-0.338596
C124	C	1.181518	-0.461419	-1.088596
C125	C	1.514851	-0.128086	-0.755263
C126	C	1.848184	0.205247	-0.421929
C127	C	1.181468	-0.461511	-0.768209
C128	C	1.514801	-0.128178	-0.434876
C129	C	1.848134	0.205155	-0.101542
C130	C	1.181379	-0.461605	-0.236826
C131	C	1.514712	-0.128272	0.096507
C132	C	1.848045	0.205062	0.429840
C133	C	1.181529	-0.461402	-0.155025
C134	C	1.514862	-0.128069	0.178308
C135	C	1.848195	0.205265	0.511641
H136	H	0.670413	-0.392264	-0.363906
H137	H	1.003747	-0.058930	-0.030573
H138	H	1.337080	0.274403	0.302760
H139	H	0.693188	-0.531017	-0.492219
H140	H	1.026522	-0.197683	-0.158886
H141	H	1.359855	0.135650	0.174447
H142	H	1.282925	-0.369866	-0.998591
H143	H	1.616258	-0.036533	-0.665258
H144	H	1.949592	0.296801	-0.331925
H145	H	1.250779	-0.949801	-0.370029
H146	H	1.584112	-0.616467	-0.036696
H147	H	1.917446	-0.283134	0.296637
N148	N	1.100670	-0.981053	-0.495653
N149	N	1.434003	-0.647720	-0.162320
N150	N	1.767337	-0.314386	0.171013
N151	N	1.096872	-1.058598	-0.498881
N152	N	1.430205	-0.725265	-0.165547
N153	N	1.763538	-0.391932	0.167786
H154	H	1.056945	-1.088085	-0.532308
H155	H	1.390278	-0.754751	-0.198974
H156	H	1.723611	-0.421418	0.134359
H157	H	1.282907	-0.369908	-0.859165
H158	H	1.616240	-0.036575	-0.525832
H159	H	1.949573	0.296758	-0.192499
N160	N	1.068495	-0.563472	-1.005564
N161	N	1.401829	-0.230138	-0.672231
N162	N	1.735162	0.103195	-0.338898
N163	N	1.068515	-0.563449	-1.074186
N164	N	1.401848	-0.230116	-0.740853
N165	N	1.735182	0.103217	-0.407520
H166	H	1.028191	-0.599851	-1.101728
H167	H	1.361524	-0.266518	-0.768394
H168	H	1.694857	0.066816	-0.435061
H169	H	1.080044	-0.553062	-0.858209
H170	H	1.413377	-0.219728	-0.524876
H171	H	1.746710	0.113605	-0.191543
