data_functionalizedCrystal
_audit_creation_method	'MofGen! by Chris Wilmer'
_symmetry_space_group_name_H-M	'P1'
_symmetry_Int_Tables_number	1
_symmetry_cell_setting	triclinic
loop_
_symmetry_equiv_pos_as_xyz
  x,y,z
_cell_length_a	18.215407
_cell_length_b	14.908579
_cell_length_c	18.215399
_cell_angle_alpha	86.728464
_cell_angle_beta	89.983115
_cell_angle_gamma	86.680628
loop_
_atom_site_label
_atom_site_type_symbol
_atom_site_fract_x
_atom_site_fract_y
_atom_site_fract_z
Zn1	Zn	1.108164	0.359226	-0.432986
Zn2	Zn	1.100974	0.510095	-0.317026
Zn3	Zn	0.985096	0.359248	-0.309940
Zn4	Zn	0.977965	0.510036	-0.440053
O5	O	1.043050	0.434651	-0.375001
O6	O	1.210194	0.379254	-0.417612
O7	O	1.085577	0.490119	-0.213103
O8	O	1.007415	0.233001	-0.320339
O9	O	1.204911	0.490097	-0.332416
O10	O	1.097832	0.232984	-0.410741
O11	O	1.000443	0.379293	-0.207897
O12	O	0.881167	0.379235	-0.327192
O13	O	0.995261	0.489997	-0.542098
O14	O	0.875928	0.490019	-0.422785
O15	O	1.090918	0.379197	-0.536906
O16	O	1.078663	0.636332	-0.339268
O17	O	0.988289	0.636289	-0.429656
C18	C	0.851845	0.434624	-0.374987
C19	C	0.770046	0.434634	-0.374999
C20	C	0.584596	0.377036	-0.419441
C21	C	0.507737	0.377044	-0.419444
C22	C	0.502255	0.492292	-0.330576
C23	C	0.579113	0.492279	-0.330569
C24	C	0.620281	0.434652	-0.375006
C25	C	0.466564	0.434673	-0.375015
C26	C	0.383230	0.434682	-0.375018
C27	C	0.703621	0.434642	-0.375003
C28	C	1.031942	0.669044	-0.386014
C29	C	1.027257	0.769318	-0.390750
C30	C	1.112657	0.957729	-0.305604
C31	C	1.108258	1.051945	-0.310052
C32	C	1.014064	1.051970	-0.404095
C33	C	1.018463	0.957753	-0.399648
C34	C	1.067761	0.910636	-0.350400
C35	C	1.072156	0.816418	-0.345949
C36	C	0.977966	0.816444	-0.439996
C37	C	0.973567	0.910661	-0.444444
C38	C	1.235001	0.434680	-0.375016
C39	C	1.316800	0.434692	-0.375022
C40	C	1.043096	0.434588	-0.566951
C41	C	1.043116	0.434560	-0.648749
C42	C	1.054216	1.199343	-0.363971
C43	C	1.058962	1.099069	-0.359295
C44	C	1.092955	0.376789	-0.911101
C45	C	1.092945	0.376813	-0.834243
C46	C	0.993343	0.492201	-0.839640
C47	C	0.993357	0.492180	-0.916496
C48	C	1.043162	0.434469	-0.952224
C49	C	1.043138	0.434514	-0.798510
C50	C	1.043127	0.434541	-0.715178
C51	C	1.043174	0.434443	-1.035562
C52	C	1.043049	0.434650	-0.183795
C53	C	1.043184	0.434423	-0.101986
H54	H	0.618113	0.330110	-0.455622
C55	C	0.938576	0.555635	-0.961735
N56	N	0.897318	0.603428	-0.995809
C57	C	1.147718	0.313356	-0.789010
N58	N	1.188974	0.265556	-0.754941
H59	H	0.608168	0.539198	-0.294382
C60	C	0.456962	0.555683	-0.281703
N61	N	0.422849	0.603434	-0.244893
C62	C	1.166882	0.905898	-0.251430
N63	N	1.207727	0.866860	-0.210626
H64	H	0.952792	0.539186	-0.810540
C65	C	1.126383	0.764590	-0.291776
N66	N	1.167231	0.725556	-0.250973
C67	C	0.468486	0.313664	-0.468327
N68	N	0.438923	0.265924	-0.505149
H69	H	1.133509	0.329796	-0.940188
H70	H	1.144819	1.090284	-0.273576
H71	H	0.973933	1.090349	-0.444195
C72	C	0.919338	0.962500	-0.498609
N73	N	0.878489	1.001545	-0.539405
C74	C	0.928576	0.764635	-0.489275
N75	N	0.891376	0.725611	-0.526389
