data_functionalizedCrystal
_audit_creation_method	'MofGen! by Chris Wilmer'
_symmetry_space_group_name_H-M	'P1'
_symmetry_Int_Tables_number	1
_symmetry_cell_setting	triclinic
loop_
_symmetry_equiv_pos_as_xyz
  x,y,z
_cell_length_a	15.995350
_cell_length_b	19.188930
_cell_length_c	14.472310
_cell_angle_alpha	89.993787
_cell_angle_beta	89.990621
_cell_angle_gamma	83.318578
loop_
_atom_site_label
_atom_site_type_symbol
_atom_site_fract_x
_atom_site_fract_y
_atom_site_fract_z
O1	O	1.110667	0.089991	-0.076773
O2	O	0.866851	0.101105	-0.076794
O3	O	0.995795	-0.006090	-0.076765
O4	O	0.981723	0.197186	-0.076802
O5	O	0.995762	-0.006083	0.076917
O6	O	0.866818	0.101111	0.076888
O7	O	1.110634	0.089998	0.076909
Cu8	Cu	0.988723	0.095555	0.090931
Cu9	Cu	0.988762	0.095547	-0.090816
O10	O	0.981690	0.197192	0.076880
C11	C	0.835641	0.100648	0.000045
C12	C	0.742696	0.099271	0.000038
C13	C	0.404967	0.094324	0.000058
C14	C	0.452680	0.017982	0.000415
C15	C	0.549365	0.019360	0.000062
C16	C	0.572518	0.096778	0.000049
C17	C	0.531312	0.134429	-0.087714
C18	C	0.434683	0.132511	-0.087781
C19	C	0.434301	0.134095	0.086984
C20	C	0.531246	0.134077	0.088137
C21	C	0.667211	0.098169	0.000040
C22	C	0.310274	0.092936	0.000060
C23	C	0.995323	-0.032099	0.000079
C24	C	0.993955	-0.109607	0.000087
C25	C	1.069615	-0.154338	0.000097
C26	C	1.068330	-0.227165	0.000082
C27	C	0.991380	-0.255258	0.000075
C28	C	0.915710	-0.210517	0.000059
C29	C	0.916997	-0.137691	0.000065
N30	N	0.932550	-0.363410	0.052371
N31	N	0.931332	-0.432592	0.052368
C32	C	0.987497	-0.474676	0.000056
N33	N	1.044938	-0.444967	-0.052240
N34	N	1.046158	-0.375779	-0.052233
C35	C	0.989976	-0.334224	0.000069
C36	C	1.061769	-0.598375	0.000050
C37	C	1.060480	-0.671204	0.000029
C38	C	0.907859	-0.654553	0.000015
C39	C	0.909149	-0.581727	0.000027
C40	C	0.986106	-0.553643	0.000048
C41	C	1.141843	0.090454	0.000068
C42	C	1.234789	0.091831	0.000069
C43	C	0.982162	0.223201	0.000034
C44	C	0.983530	0.300709	0.000020
N45	N	0.988701	0.095560	0.218762
N46	N	0.988790	0.095537	-0.218647
C47	C	0.988761	0.095545	0.592853
C48	C	0.919535	0.152710	0.553672
C49	C	0.919694	0.152918	0.446584
C50	C	0.988731	0.095552	0.407262
C51	C	1.076037	0.111464	0.446103
C52	C	1.075648	0.111870	0.553224
C53	C	0.971460	0.022298	0.553394
C54	C	0.969454	0.022787	0.446266
C55	C	0.988719	0.095555	0.302374
C56	C	0.988778	0.095543	0.697741
H57	H	0.433211	-0.012395	-0.062166
C58	C	1.033173	-0.037381	0.410128
C59	C	1.002428	-0.097302	0.353336
C60	C	1.066156	-0.157470	0.317203
C61	C	1.160629	-0.157716	0.337862
C62	C	1.191378	-0.097792	0.394656
C63	C	1.127650	-0.037625	0.430789
H64	H	0.932490	-0.097122	0.338040
H65	H	1.043393	-0.201829	0.275159
H66	H	1.207804	-0.202255	0.311114
H67	H	1.261317	-0.097972	0.409952
H68	H	1.150414	0.006734	0.472833
H69	H	0.402333	0.190382	0.087568
H70	H	0.558650	0.106592	0.153064
C71	C	0.390840	0.208227	-0.093190
C72	C	0.330886	0.237249	-0.015441
C73	C	0.287050	0.312963	-0.020859
C74	C	0.303169	0.359656	-0.104026
C75	C	0.363126	0.330636	-0.181781
C76	C	0.406962	0.254921	-0.176363
H77	H	0.318951	0.202683	0.046129
H78	H	0.242666	0.334446	0.036700
H79	H	0.270719	0.415705	-0.108037
H80	H	0.375061	0.365201	-0.243352
H81	H	0.451346	0.233438	-0.233923
H82	H	0.559796	0.108273	-0.153020
H83	H	0.434256	-0.012531	0.063354
H84	H	0.413843	0.109140	0.153506
C85	C	0.833766	-0.088482	0.000061
C86	C	0.813681	-0.036116	-0.079737
C87	C	0.730449	0.013095	-0.079739
C88	C	0.667301	0.009939	0.000057
C89	C	0.687384	-0.042430	0.079860
C90	C	0.770616	-0.091640	0.079862
H91	H	0.860429	-0.033778	-0.138812
H92	H	0.715583	0.051861	-0.138816
H93	H	0.605687	0.046367	0.000055
H94	H	0.640636	-0.044768	0.138935
H95	H	0.785482	-0.130407	0.138939
H96	H	0.577346	-0.010441	-0.062950
H97	H	1.128770	0.070935	0.420631
C98	C	0.550113	0.211266	-0.092145
C99	C	0.641811	0.228137	-0.096926
C100	C	0.660613	0.304974	-0.101353
C101	C	0.587717	0.364939	-0.101000
C102	C	0.496013	0.348069	-0.096219
C103	C	0.477211	0.271232	-0.091791
H104	H	0.695778	0.183746	-0.097188
H105	H	0.728499	0.317462	-0.104893
H106	H	0.601636	0.421818	-0.104277
H107	H	0.442046	0.392460	-0.095957
H108	H	0.409325	0.258744	-0.088252
H109	H	0.930402	0.206759	0.580572
C110	C	0.551711	0.210350	0.095281
C111	C	0.643891	0.225682	0.102135
C112	C	0.664353	0.301959	0.109267
C113	C	0.592635	0.362902	0.109546
C114	C	0.500449	0.347571	0.102692
C115	C	0.479987	0.271295	0.095559
H116	H	0.696986	0.180567	0.101929
H117	H	0.732595	0.313307	0.114341
H118	H	0.607782	0.419367	0.114825
H119	H	0.447354	0.392687	0.102897
H120	H	0.411745	0.259946	0.090485
H121	H	1.129943	-0.263592	0.000087
H122	H	1.132280	-0.131477	0.000112
C123	C	0.831065	-0.241416	0.000051
C124	C	0.809172	-0.289198	0.079850
C125	C	0.724524	-0.320096	0.079836
C126	C	0.661768	-0.303212	0.000023
C127	C	0.683659	-0.255428	-0.079782
C128	C	0.768308	-0.224529	-0.079767
H129	H	0.855629	-0.301699	0.138937
H130	H	0.708319	-0.355470	0.138913
H131	H	0.599106	-0.326085	0.000012
H132	H	0.637203	-0.242927	-0.138869
H133	H	0.784513	-0.189156	-0.138844
C134	C	1.146417	-0.567474	0.000064
C135	C	1.209177	-0.584367	0.079870
C136	C	1.293825	-0.553467	0.079885
C137	C	1.315711	-0.505675	0.000095
C138	C	1.252949	-0.488781	-0.079717
C139	C	1.168302	-0.519680	-0.079732
H140	H	1.192977	-0.619747	0.138941
H141	H	1.340285	-0.565974	0.138968
H142	H	1.378373	-0.482801	0.000106
H143	H	1.269150	-0.453400	-0.138788
H144	H	1.121841	-0.507173	-0.138815
H145	H	1.122095	-0.707624	0.000033
C146	C	0.410098	0.095408	-0.176391
C147	C	0.478355	0.067728	-0.246600
C148	C	0.453775	0.030623	-0.335211
C149	C	0.360938	0.021199	-0.353614
C150	C	0.292674	0.048880	-0.283403
C151	C	0.317254	0.085985	-0.194792
H152	H	0.547085	0.074704	-0.232979
H153	H	0.504309	0.010132	-0.387186
H154	H	0.342742	-0.006268	-0.419209
H155	H	0.223945	0.041904	-0.297024
H156	H	0.266721	0.106476	-0.142817
C157	C	0.825920	-0.532517	0.000032
C158	C	0.741275	-0.563413	0.000026
C159	C	0.658042	-0.514203	0.000030
C160	C	0.659455	-0.434098	0.000039
C161	C	0.744103	-0.403198	0.000044
C162	C	0.827336	-0.452408	0.000040
H163	H	0.740227	-0.622716	0.000020
H164	H	0.595380	-0.537078	0.000026
H165	H	0.597841	-0.397669	0.000041
H166	H	0.745152	-0.343895	0.000050
H167	H	0.889998	-0.429533	0.000044
C168	C	0.832008	0.140128	0.411101
C169	C	0.761350	0.129651	0.480238
C170	C	0.673657	0.116867	0.444761
C171	C	0.656623	0.114560	0.340147
C172	C	0.727283	0.125038	0.271003
C173	C	0.814976	0.137821	0.306480
H174	H	0.773957	0.131359	0.557686
H175	H	0.621350	0.109111	0.495947
H176	H	0.591708	0.105097	0.313885
H177	H	0.714676	0.123330	0.193555
H178	H	0.867283	0.145577	0.255295
C179	C	0.831553	0.140077	0.588424
C180	C	0.821485	0.077704	0.652816
C181	C	0.733495	0.065048	0.687535
C182	C	0.655573	0.114764	0.657863
C183	C	0.665639	0.177141	0.593468
C184	C	0.753629	0.189797	0.558749
H185	H	0.879170	0.040898	0.674784
H186	H	0.726044	0.018873	0.735205
H187	H	0.590438	0.105395	0.683565
H188	H	0.607954	0.213947	0.571500
H189	H	0.761080	0.235972	0.511079
H190	H	0.845205	-0.677425	0.000005
H191	H	0.930714	0.207273	0.420941
H192	H	1.090934	0.165288	0.578192
C193	C	1.097195	0.182807	0.409846
C194	C	1.035411	0.226680	0.345048
C195	C	1.056564	0.298025	0.308794
C196	C	1.139501	0.325497	0.337339
C197	C	1.201291	0.281623	0.402140
C198	C	1.180138	0.210278	0.438394
H199	H	0.974011	0.206345	0.323915
H200	H	1.010822	0.330504	0.260824
H201	H	1.155159	0.378311	0.310501
H202	H	1.262691	0.301958	0.423273
H203	H	1.225879	0.177799	0.486365
C204	C	0.882697	0.006472	0.411965
C205	C	0.865773	0.000981	0.307625
C206	C	0.779016	-0.015329	0.273312
C207	C	0.709184	-0.026150	0.343339
C208	C	0.726107	-0.020660	0.447685
C209	C	0.812863	-0.004349	0.481998
H210	H	0.917468	0.008992	0.255782
H211	H	0.766490	-0.019393	0.196068
H212	H	0.644962	-0.038224	0.317938
H213	H	0.674411	-0.028670	0.499528
H214	H	0.825390	-0.000285	0.559242
C215	C	0.587903	-0.020634	0.085043
C216	C	0.560861	0.004014	0.182964
C217	C	0.599393	-0.035988	0.267945
C218	C	0.664967	-0.100637	0.255005
C219	C	0.692013	-0.125288	0.157081
C220	C	0.653481	-0.085286	0.072100
H221	H	0.512316	0.051874	0.192546
H222	H	0.579372	-0.017740	0.340435
H223	H	0.693491	-0.130249	0.317913
H224	H	0.740558	-0.173148	0.147499
H225	H	0.673503	-0.103535	-0.000390
H226	H	1.128755	0.071875	0.579141
H227	H	0.909193	0.006998	0.580460
C228	C	1.039653	-0.035176	0.587630
C229	C	1.110693	-0.015787	0.651072
C230	C	1.178887	-0.073254	0.685316
C231	C	1.176041	-0.150110	0.656117
C232	C	1.104999	-0.169503	0.592672
C233	C	1.036805	-0.112035	0.558428
H234	H	1.112801	0.041110	0.672690
H235	H	1.231477	-0.058898	0.732282
H236	H	1.226522	-0.192651	0.681466
H237	H	1.102890	-0.226399	0.571054
H238	H	0.984215	-0.126391	0.511462
