data_functionalizedCrystal
_audit_creation_method	'MofGen! by Chris Wilmer'
_symmetry_space_group_name_H-M	'P1'
_symmetry_Int_Tables_number	1
_symmetry_cell_setting	triclinic
loop_
_symmetry_equiv_pos_as_xyz
  x,y,z
_cell_length_a	25.639242
_cell_length_b	16.994747
_cell_length_c	25.639233
_cell_angle_alpha	89.993240
_cell_angle_beta	90.022166
_cell_angle_gamma	90.006589
loop_
_atom_site_label
_atom_site_type_symbol
_atom_site_fract_x
_atom_site_fract_y
_atom_site_fract_z
Zn1	Zn	0.799326	-0.314218	0.295835
Zn2	Zn	0.799291	-0.446103	0.208438
Zn3	Zn	0.711902	-0.314207	0.208399
Zn4	Zn	0.711889	-0.446074	0.295828
O5	O	0.755602	-0.380150	0.252125
O6	O	0.872486	-0.331730	0.284261
O7	O	0.787690	-0.428614	0.135268
O8	O	0.723518	-0.203827	0.219984
O9	O	0.872461	-0.428625	0.220051
O10	O	0.787748	-0.203835	0.284223
O11	O	0.723485	-0.331710	0.135239
O12	O	0.638735	-0.331682	0.219977
O13	O	0.723497	-0.428575	0.368994
O14	O	0.638726	-0.428564	0.284211
O15	O	0.787736	-0.331702	0.368999
O16	O	0.787677	-0.556480	0.220044
O17	O	0.723463	-0.556459	0.284249
C18	C	0.619759	-0.380119	0.252090
C19	C	0.561645	-0.380125	0.252087
C20	C	0.755572	-0.585090	0.252149
C21	C	0.755575	-0.674412	0.252147
Zn22	Zn	0.711917	-0.945293	0.208384
Zn23	Zn	0.799349	-0.945283	0.295812
Zn24	Zn	0.711907	-0.813466	0.295819
Zn25	Zn	0.799301	-0.813358	0.208421
O26	O	0.755618	-0.879350	0.252109
O27	O	0.723539	-1.055673	0.219963
O28	O	0.787765	-0.927838	0.368978
O29	O	0.638743	-0.831003	0.284209
O30	O	0.787775	-1.055666	0.284196
O31	O	0.638750	-0.927855	0.219971
O32	O	0.723522	-0.830993	0.368984
O33	O	0.723476	-0.703071	0.284244
O34	O	0.787693	-0.830819	0.135251
O35	O	0.787683	-0.702991	0.220033
O36	O	0.723492	-0.927751	0.135224
O37	O	0.872508	-0.927734	0.284232
O38	O	0.872472	-0.830809	0.220026
C39	C	0.201286	-0.430681	0.285540
C40	C	0.146682	-0.430686	0.285548
O41	O	0.118449	-0.473632	0.313961
N42	N	0.119363	-0.380172	0.252159
C43	C	0.146651	-0.329644	0.218764
O44	O	0.118400	-0.286678	0.190365
C45	C	0.201254	-0.329636	0.218758
C46	C	0.228570	-0.380159	0.252146
C47	C	0.228603	-0.481199	0.318925
C48	C	0.283203	-0.481195	0.318916
C49	C	0.310487	-0.430673	0.285522
C50	C	0.283171	-0.380155	0.252137
C51	C	0.228541	-0.279105	0.185366
C52	C	0.283148	-0.279101	0.185364
C53	C	0.310464	-0.329624	0.218751
C54	C	0.365056	-0.329629	0.218733
N55	N	0.392375	-0.380143	0.252122
C56	C	0.365091	-0.430665	0.285517
C57	C	0.031980	-0.329664	0.218778
C58	C	-0.022622	-0.329676	0.218780
C59	C	-0.022587	-0.430717	0.285565
C60	C	0.032016	-0.430709	0.285560
C61	C	0.059299	-0.380178	0.252167
C62	C	0.479756	-0.430653	0.285495
C63	C	0.534361	-0.430647	0.285481
C64	C	0.534321	-0.329604	0.218698
C65	C	0.479721	-0.329612	0.218709
C66	C	0.452439	-0.380140	0.252112
O67	O	0.393324	-0.286702	0.190336
O68	O	0.393348	-0.473617	0.313916
C69	C	0.891975	-0.380182	0.252161
C70	C	0.950089	-0.380196	0.252176
C71	C	0.755619	-0.380137	0.388498
C72	C	0.755626	-0.380131	0.446612
C73	C	0.755635	-0.174410	0.252098
C74	C	0.755651	-0.085088	0.252087
C75	C	0.755615	-0.380107	0.116283
C76	C	0.755709	-0.379891	0.058169
C77	C	0.789118	-0.329539	0.806984
C78	C	0.789124	-0.329517	0.861588
O79	O	0.817558	-0.286595	0.889832
N80	N	0.755684	-0.379946	0.888895
C81	C	0.722231	-0.430394	0.861595
O82	O	0.693787	-0.473285	0.889835
C83	C	0.722222	-0.430411	0.806991
C84	C	0.755668	-0.379985	0.779687
C85	C	0.822561	-0.279115	0.779680
C86	C	0.822555	-0.279139	0.725079
C87	C	0.789106	-0.329585	0.697783
C88	C	0.755662	-0.380008	0.725087
C89	C	0.688767	-0.480855	0.779692
C90	C	0.688761	-0.480868	0.725085
C91	C	0.722207	-0.430441	0.697781
C92	C	0.722207	-0.430477	0.643190
N93	N	0.755648	-0.380048	0.615883
C94	C	0.789097	-0.329602	0.643179
C95	C	0.722251	-0.430353	0.976265
C96	C	0.722262	-0.430340	1.030868
C97	C	0.789155	-0.329462	1.030857
C98	C	0.789146	-0.329479	0.976254
C99	C	0.755691	-0.379924	0.948958
C100	C	0.789083	-0.329655	0.528514
C101	C	0.789075	-0.329684	0.473909
C102	C	0.722181	-0.430560	0.473924
C103	C	0.722190	-0.430533	0.528524
C104	C	0.755642	-0.380074	0.555818
O105	O	0.693787	-0.473375	0.614911
O106	O	0.817531	-0.286711	0.614932
C107	C	0.891461	-0.879261	0.252133
C108	C	0.949575	-0.879245	0.252159
C109	C	0.755588	-0.879274	0.115736
C110	C	0.755576	-0.879241	0.057622
C111	C	0.619245	-0.879442	0.252086
C112	C	0.561131	-0.879481	0.252077
C113	C	0.755611	-0.879471	0.387952
C114	C	0.755477	-0.879654	0.446065
C115	C	0.976869	-0.929749	0.285572
C116	C	1.031473	-0.929750	0.285597
C117	C	1.058783	-0.879243	0.252210
C118	C	1.031485	-0.828737	0.218793
C119	C	0.976881	-0.828741	0.218766
C120	C	0.722140	-0.929694	0.030314
C121	C	0.722118	-0.929663	-0.024290
C122	C	0.755534	-0.879184	-0.051586
C123	C	0.788971	-0.828726	-0.024274
C124	C	0.788991	-0.828753	0.030330
C125	C	0.533834	-0.829068	0.285518
C126	C	0.479229	-0.829089	0.285509
C127	C	0.451924	-0.879529	0.252061
C128	C	0.479225	-0.929944	0.218616
C129	C	0.533828	-0.929919	0.218623
C130	C	0.722207	-0.828952	0.473337
C131	C	0.722071	-0.829124	0.527941
C132	C	0.755210	-0.879994	0.555273
C133	C	0.788482	-0.930701	0.527998
C134	C	0.788615	-0.930533	0.473394
H135	H	0.556600	-0.471792	0.312670
C136	C	0.685884	-0.984629	0.059875
C137	C	0.697267	-1.062658	0.046569
C138	C	0.663870	-1.113284	0.073781
H139	H	0.690646	-0.977534	0.096315
H140	H	0.650742	-0.973142	0.050911
H141	H	0.732400	-1.074140	0.055536
H142	H	0.692502	-1.069778	0.010133
H143	H	0.628728	-1.101798	0.064817
H144	H	0.668634	-1.106182	0.110219
H145	H	0.671585	-1.166232	0.064753
C146	C	0.449640	-0.984839	0.182338
C147	C	0.462944	-1.062880	0.193708
C148	C	0.435704	-1.113473	0.160299
H149	H	0.413204	-0.977737	0.187097
H150	H	0.458582	-0.973328	0.147199
H151	H	0.453999	-1.074387	0.228838
H152	H	0.499376	-1.070007	0.188946
H153	H	0.444647	-1.101963	0.125160
H154	H	0.399270	-1.106365	0.165061
H155	H	0.444731	-1.166430	0.168006
H156	H	0.556546	-0.288472	0.191507
C157	C	0.825274	-0.773841	-0.053819
C158	C	0.854556	-0.729643	-0.018222
C159	C	0.888001	-0.679073	-0.045422
H160	H	0.848096	-0.803912	-0.075123
H161	H	0.805271	-0.739434	-0.075107
H162	H	0.874557	-0.764046	0.003057
H163	H	0.831748	-0.699557	0.003083
H164	H	0.867998	-0.644666	-0.066710
H165	H	0.910819	-0.709150	-0.066725
H166	H	0.907869	-0.649074	-0.021274
C167	C	0.755571	-0.879021	-0.110870
C168	C	0.791983	-0.824004	-0.128935
C169	C	0.792026	-0.823830	-0.183544
H170	H	0.764637	-0.929867	-0.123289
H171	H	0.721832	-0.865360	-0.123241
H172	H	0.825715	-0.837668	-0.116569
H173	H	0.782926	-0.773149	-0.116531
H174	H	0.758287	-0.810170	-0.195915
H175	H	0.801091	-0.874679	-0.195958
H176	H	0.816727	-0.786497	-0.195808
H177	H	0.407462	-0.879539	0.252058
C178	C	0.199053	-0.536016	0.355268
C179	C	0.212375	-0.518972	0.407012
C180	C	0.185173	-0.569468	0.440504
H181	H	0.162611	-0.528847	0.350567
H182	H	0.208015	-0.589005	0.347594
H183	H	0.203409	-0.465995	0.414684
H184	H	0.248811	-0.526145	0.411730
H185	H	0.194135	-0.622457	0.432830
H186	H	0.148733	-0.562295	0.435798
H187	H	0.194212	-0.557915	0.475616
C188	C	0.825328	-0.774105	0.060043
C189	C	0.858853	-0.818759	0.091395
C190	C	0.892329	-0.768440	0.118777
H191	H	0.845275	-0.744022	0.036025
H192	H	0.805344	-0.739770	0.081379
H193	H	0.878834	-0.853080	0.070061
H194	H	0.838919	-0.848840	0.115423
H195	H	0.872346	-0.734105	0.140113
H196	H	0.912273	-0.738360	0.094755
H197	H	0.915076	-0.798730	0.140056
H198	H	0.815711	-0.971818	0.451195
C199	C	0.824398	-0.986056	0.557648
C200	C	0.812687	-1.063947	0.544251
C201	C	0.845760	-1.114956	0.571561
H202	H	0.859619	-0.974945	0.548835
H203	H	0.819549	-0.978940	0.594077
H204	H	0.817541	-1.071059	0.507830
H205	H	0.777472	-1.075082	0.553066
H206	H	0.840910	-1.107841	0.607990
H207	H	0.880979	-1.103839	0.562746
H208	H	0.837815	-1.167811	0.562479
H209	H	0.694888	-0.970753	-0.046520
H210	H	0.695221	-0.787524	0.451090
H211	H	0.054253	-0.471848	0.312748
C212	C	0.685930	-0.773975	0.557452
C213	C	0.656955	-0.729371	0.521824
C214	C	0.623662	-0.678551	0.548989
H215	H	0.662909	-0.803882	0.578651
H216	H	0.706026	-0.739837	0.578841
H217	H	0.636860	-0.763503	0.500444
H218	H	0.679963	-0.699447	0.500624
H219	H	0.643759	-0.644414	0.570378
H220	H	0.600644	-0.708465	0.570187
H221	H	0.604002	-0.648276	0.524820
C222	C	0.563378	-0.774213	0.321855
C223	C	0.527775	-0.730057	0.351124
C224	C	0.554968	-0.679505	0.384599
H225	H	0.584691	-0.804294	0.344684
H226	H	0.584657	-0.739779	0.301875
H227	H	0.506505	-0.764487	0.371103
H228	H	0.506462	-0.699960	0.328309
H229	H	0.576247	-0.645070	0.364619
H230	H	0.576280	-0.709592	0.407424
H231	H	0.530816	-0.649534	0.404459
H232	H	1.053728	-0.787616	0.191610
H233	H	0.457550	-0.471796	0.312696
C234	C	0.449529	-0.774484	0.321857
C235	C	0.418186	-0.819183	0.355346
C236	C	0.390816	-0.768909	0.388833
H237	H	0.473555	-0.744431	0.341830
H238	H	0.428189	-0.740118	0.301880
H239	H	0.439524	-0.853534	0.375321
H240	H	0.394151	-0.849233	0.335387
H241	H	0.369475	-0.734543	0.368856
H242	H	0.414845	-0.738859	0.408803
H243	H	0.369543	-0.799229	0.411556
C244	C	0.685846	-0.485155	0.558236
C245	C	0.652352	-0.440467	0.589567
C246	C	0.618865	-0.490752	0.616945
H247	H	0.665876	-0.515219	0.534215
H248	H	0.705823	-0.519510	0.579586
H249	H	0.632378	-0.406126	0.568219
H250	H	0.672308	-0.410405	0.613598
H251	H	0.638841	-0.525106	0.638294
H252	H	0.598898	-0.520813	0.592920
H253	H	0.596138	-0.460439	0.638209
C254	C	0.563529	-0.984712	0.182403
C255	C	0.594897	-1.035260	0.212005
C256	C	0.622267	-1.085743	0.178655
H257	H	0.539503	-1.014829	0.162474
H258	H	0.584852	-0.954547	0.159634
H259	H	0.573576	-1.065422	0.234765
H260	H	0.618933	-1.005164	0.231933
H261	H	0.643590	-1.055578	0.155886
H262	H	0.598236	-1.115854	0.158727
H263	H	0.643557	-1.120040	0.198735
H264	H	1.053692	-0.970877	0.312811
C265	C	0.825409	-0.274844	0.444359
C266	C	0.854691	-0.230646	0.479956
C267	C	0.888160	-0.180112	0.452756
H268	H	0.848230	-0.304941	0.423071
H269	H	0.805424	-0.240436	0.423056
H270	H	0.874675	-0.265049	0.501251
H271	H	0.831884	-0.200532	0.501246
H272	H	0.868175	-0.145704	0.431453
H273	H	0.910978	-0.210216	0.431469
H274	H	0.908029	-0.150113	0.476905
C275	C	0.755008	-0.880022	0.614557
C276	C	0.718787	-0.824711	0.632584
C277	C	0.718591	-0.824701	0.687193
H278	H	0.745685	-0.930817	0.626890
H279	H	0.788771	-0.866723	0.627039
H280	H	0.685031	-0.838014	0.620107
H281	H	0.728101	-0.773907	0.620266
H282	H	0.752354	-0.811403	0.699675
H283	H	0.709269	-0.875499	0.699521
H284	H	0.694018	-0.787168	0.699432
C285	C	0.685884	-0.485239	0.444187
C286	C	0.693029	-0.474442	0.390525
C287	C	0.659594	-0.524787	0.363114
H288	H	0.693488	-0.538272	0.453083
H289	H	0.650746	-0.473670	0.453092
H290	H	0.728159	-0.486017	0.381623
H291	H	0.685421	-0.421420	0.381613
H292	H	0.624456	-0.513218	0.372019
H293	H	0.667201	-0.577816	0.372014
H294	H	0.664434	-0.517463	0.326701
H295	H	0.457479	-0.288474	0.191521
H296	H	0.305439	-0.522335	0.346105
H297	H	-0.044812	-0.471852	0.312759
H298	H	-0.044858	-0.288543	0.191587
H299	H	0.206310	-0.237966	0.158177
C300	C	0.312675	-0.224213	0.149045
C301	C	0.277061	-0.179990	0.119800
C302	C	0.304240	-0.129431	0.086332
H303	H	0.333991	-0.189816	0.169012
H304	H	0.333949	-0.254317	0.126204
H305	H	0.255795	-0.149887	0.142638
H306	H	0.255743	-0.214366	0.099823
H307	H	0.325514	-0.159535	0.063491
H308	H	0.325555	-0.095039	0.106304
H309	H	0.280080	-0.099424	0.066482
C310	C	1.118067	-0.879330	0.252340
C311	C	1.136119	-0.934357	0.288761
C312	C	1.190728	-0.934454	0.288903
H313	H	1.130492	-0.892937	0.218629
H314	H	1.130440	-0.828457	0.261451
H315	H	1.123752	-0.985218	0.279646
H316	H	1.123708	-0.920762	0.322477
H317	H	1.203101	-0.883581	0.298015
H318	H	1.203149	-0.948059	0.255191
H319	H	1.202984	-0.971783	0.313618
H320	H	0.054191	-0.288517	0.191581
H321	H	0.849790	-0.238074	0.702853
C322	C	0.858940	-0.224313	0.809215
C323	C	0.888231	-0.180179	0.773606
C324	C	0.921759	-0.129696	0.800791
H325	H	0.839015	-0.189856	0.830508
H326	H	0.881750	-0.254468	0.830514
H327	H	0.865425	-0.150026	0.752316
H328	H	0.908167	-0.214615	0.752313
H329	H	0.944569	-0.159851	0.822090
H330	H	0.901830	-0.095244	0.822082
H331	H	0.941640	-0.099751	0.776634
C332	C	0.825434	-0.275002	0.558209
C333	C	0.858935	-0.319657	0.589586
C334	C	0.892426	-0.269342	0.616954
H335	H	0.845399	-0.244961	0.534182
H336	H	0.805461	-0.240627	0.579526
H337	H	0.878907	-0.354017	0.568271
H338	H	0.838985	-0.349696	0.613624
H339	H	0.872453	-0.234967	0.638271
H340	H	0.912387	-0.239304	0.592923
H341	H	0.915157	-0.299632	0.638250
H342	H	0.816390	-0.288384	1.053092
C343	C	0.825476	-0.274639	0.946706
C344	C	0.854761	-0.230448	0.982305
C345	C	0.888229	-0.179910	0.955109
H346	H	0.848296	-0.304732	0.925414
H347	H	0.805490	-0.240226	0.925407
H348	H	0.874745	-0.264856	1.003596
H349	H	0.831955	-0.200338	1.003599
H350	H	0.868243	-0.145497	0.933809
H351	H	0.911045	-0.210010	0.933817
H352	H	0.908099	-0.149916	0.979258
H353	H	0.695007	-0.471436	0.954045
C354	C	0.685895	-0.485127	1.060414
C355	C	0.656594	-0.529293	1.024815
C356	C	0.623080	-0.579760	1.052012
H357	H	0.705831	-0.519564	1.081731
H358	H	0.663092	-0.454959	1.081689
H359	H	0.679395	-0.559458	1.003549
H360	H	0.636647	-0.494877	1.003497
H361	H	0.600276	-0.549593	1.073287
H362	H	0.643020	-0.614192	1.073328
H363	H	0.603192	-0.609728	1.027862
H364	H	0.661531	-0.521918	0.801914
H365	H	0.661511	-0.521939	0.702864
C366	C	0.947321	-0.984673	0.321846
C367	C	0.982920	-1.028911	0.351099
C368	C	0.955724	-1.079527	0.384516
H369	H	0.926019	-0.954634	0.344687
H370	H	0.926031	-1.019053	0.301825
H371	H	1.004201	-0.994536	0.371119
H372	H	1.004224	-1.058967	0.328271
H373	H	0.934434	-1.113906	0.364495
H374	H	0.934422	-1.049481	0.407354
H375	H	0.979873	-1.109553	0.404365
H376	H	0.954663	-0.787610	0.191558
