data_functionalizedCrystal
_audit_creation_method	'MofGen! by Chris Wilmer'
_symmetry_space_group_name_H-M	'P1'
_symmetry_Int_Tables_number	1
_symmetry_cell_setting	triclinic
loop_
_symmetry_equiv_pos_as_xyz
  x,y,z
_cell_length_a	12.759401
_cell_length_b	12.759399
_cell_length_c	12.759393
_cell_angle_alpha	90.030270
_cell_angle_beta	90.020459
_cell_angle_gamma	90.016641
loop_
_atom_site_label
_atom_site_type_symbol
_atom_site_fract_x
_atom_site_fract_y
_atom_site_fract_z
Zn1	Zn	1.606258	-0.418179	0.594017
Zn2	Zn	2.106258	0.081821	1.094017
Zn3	Zn	1.606150	-0.593893	0.418336
Zn4	Zn	2.106150	-0.093893	0.918336
Zn5	Zn	1.430559	-0.418233	0.418352
Zn6	Zn	1.930559	0.081767	0.918352
Zn7	Zn	1.430548	-0.593821	0.593973
Zn8	Zn	1.930548	-0.093821	1.093973
O9	O	1.518379	-0.506032	0.506170
O10	O	2.018379	-0.006032	1.006170
O11	O	1.753265	-0.441495	0.570724
O12	O	2.253265	0.058505	1.070724
O13	O	1.582816	-0.570644	0.271317
O14	O	2.082816	-0.070644	0.771317
O15	O	1.453916	-0.271205	0.441680
O16	O	1.953916	0.228795	0.941680
O17	O	1.753185	-0.570591	0.441652
O18	O	2.253185	-0.070591	0.941652
O19	O	1.583001	-0.271165	0.570740
O20	O	2.083001	0.228835	1.070740
O21	O	1.453810	-0.441587	0.271329
O22	O	1.953810	0.058413	0.771329
O23	O	1.283536	-0.441518	0.441637
O24	O	1.783536	0.058482	0.941637
O25	O	1.453897	-0.570470	0.741000
O26	O	1.953897	-0.070470	1.241000
O27	O	1.283528	-0.570522	0.570665
O28	O	1.783528	-0.070522	1.070665
O29	O	1.582991	-0.441426	0.741032
O30	O	2.082991	0.058574	1.241032
O31	O	1.582806	-0.740904	0.441609
O32	O	2.082806	-0.240904	0.941609
O33	O	1.453792	-0.740852	0.570649
O34	O	1.953792	-0.240852	1.070649
C35	C	1.245411	-0.506019	0.506149
C36	C	1.745411	-0.006019	1.006149
C37	C	1.128635	-0.506039	0.506165
C38	C	1.628635	-0.006039	1.006165
C39	C	1.518314	-0.778999	0.506146
C40	C	2.018314	-0.278999	1.006146
C41	C	1.518383	-0.895776	0.506171
C42	C	2.018383	-0.395776	1.006171
C43	C	1.073796	-0.573313	0.573244
C44	C	1.573796	-0.073313	1.073244
C45	C	0.964072	-0.573317	0.573265
C46	C	1.464072	-0.073317	1.073265
C47	C	0.964035	-0.438769	0.439118
C48	C	1.464035	0.061231	0.939118
C49	C	1.073757	-0.438761	0.439104
C50	C	1.573757	0.061239	0.939104
C51	C	1.585637	-0.950630	0.439056
C52	C	2.085637	-0.450630	0.939056
C53	C	1.585704	-1.060354	0.439091
C54	C	2.085704	-0.560354	0.939091
C55	C	1.451254	-1.060360	0.573359
C56	C	1.951254	-0.560360	1.073359
C57	C	1.451193	-0.950638	0.573328
C58	C	1.951193	-0.450638	1.073328
C59	C	1.792412	-0.506045	0.506191
C60	C	2.292412	-0.006045	1.006191
C61	C	1.909188	-0.506051	0.506200
C62	C	2.409188	-0.006051	1.006200
C63	C	1.518455	-0.505934	0.780203
C64	C	2.018455	-0.005934	1.280203
C65	C	1.518487	-0.505892	0.896980
C66	C	2.018487	-0.005892	1.396980
C67	C	1.518472	-0.231998	0.506217
C68	C	2.018472	0.268002	1.006217
C69	C	1.518512	-0.115222	0.506237
C70	C	2.018512	0.384778	1.006237
C71	C	1.518363	-0.506053	0.233202
C72	C	2.018363	-0.006053	0.733202
C73	C	1.518534	-0.505799	0.116426
C74	C	2.018534	-0.005799	0.616426
C75	C	1.585689	-0.573014	1.061571
C76	C	2.085689	-0.073014	1.561571
C77	C	1.585663	-0.573064	0.951847
C78	C	2.085663	-0.073064	1.451847
C79	C	1.451325	-0.438674	0.951843
C80	C	1.951325	0.061326	1.451843
C81	C	1.451346	-0.438631	1.061565
C82	C	1.951346	0.061369	1.561565
H83	H	1.118474	-0.628093	0.627852
H84	H	1.618474	-0.128093	1.127852
H85	H	1.640471	-1.105012	0.384441
H86	H	2.140471	-0.605012	0.884441
H87	H	1.640347	-0.627796	0.907189
H88	H	2.140347	-0.127796	1.407189
H89	H	1.396625	-0.383987	0.907161
H90	H	1.896625	0.116013	1.407161
H91	H	1.396549	-1.105042	0.628034
H92	H	1.896549	-0.605042	1.128034
C93	C	1.377475	-0.364688	1.121909
C94	C	1.877475	0.135312	1.621909
H95	H	1.337469	-0.324681	1.073523
H96	H	1.837469	0.175319	1.573523
H97	H	1.331695	-0.404859	1.164700
H98	H	1.831695	0.095141	1.664700
H99	H	1.417698	-0.318895	1.164723
H100	H	1.917698	0.181105	1.664723
H101	H	0.919427	-0.628097	0.627889
H102	H	1.419427	-0.128097	1.127889
H103	H	1.396426	-0.905972	0.627986
H104	H	1.896426	-0.405972	1.127986
C105	C	1.134088	-0.364755	0.365317
C106	C	1.634088	0.135245	0.865317
H107	H	1.207294	-0.374379	0.374923
H108	H	1.707294	0.125621	0.874923
H109	H	1.116074	-0.380040	0.294700
H110	H	1.616074	0.119960	0.794700
H111	H	1.116129	-0.294182	0.380829
H112	H	1.616129	0.205818	0.880829
H113	H	0.919340	-0.383996	0.384518
H114	H	1.419340	0.116004	0.884518
H115	H	1.640348	-0.905964	0.384374
H116	H	2.140348	-0.405964	0.884374
C117	C	1.659586	-0.646900	1.121916
C118	C	2.159586	-0.146900	1.621916
H119	H	1.699570	-0.686944	1.073527
H120	H	2.199570	-0.186944	1.573527
H121	H	1.705386	-0.606698	1.164730
H122	H	2.205386	-0.106698	1.664730
H123	H	1.619383	-0.692662	1.164705
H124	H	2.119383	-0.192662	1.664705
