data_functionalizedCrystal
_audit_creation_method	'MofGen! by Chris Wilmer'
_symmetry_space_group_name_H-M	'P1'
_symmetry_Int_Tables_number	1
_symmetry_cell_setting	triclinic
loop_
_symmetry_equiv_pos_as_xyz
  x,y,z
_cell_length_a	15.625950
_cell_length_b	15.538191
_cell_length_c	14.185569
_cell_angle_alpha	82.127072
_cell_angle_beta	120.545593
_cell_angle_gamma	66.741480
loop_
_atom_site_label
_atom_site_type_symbol
_atom_site_fract_x
_atom_site_fract_y
_atom_site_fract_z
O1	O	1.281604	0.025220	0.382623
O2	O	0.978092	0.068055	0.272256
O3	O	1.188928	-0.095910	0.348918
O4	O	1.070769	0.189185	0.305961
O5	O	1.251209	-0.144342	0.538399
O6	O	1.040373	0.019623	0.461737
O7	O	1.343885	-0.023211	0.572104
Cu8	Cu	1.197816	-0.006216	0.534221
Cu9	Cu	1.124161	0.051060	0.310138
O10	O	1.133050	0.140753	0.495442
C11	C	0.971336	0.046695	0.353216
C12	C	0.858422	0.055194	0.312156
C13	C	0.656649	-0.048765	0.693398
C14	C	0.550523	-0.040746	0.654760
C15	C	0.482679	0.012048	0.448215
C16	C	0.588800	0.004038	0.486835
C17	C	0.675779	-0.026370	0.609428
C18	C	0.607929	0.026434	0.402865
C19	C	0.714043	0.018419	0.441483
C20	C	0.801028	-0.011990	0.564071
C21	C	0.781893	-0.034384	0.648046
C22	C	0.520952	0.056835	0.280274
C23	C	0.540081	0.079230	0.196304
C24	C	0.646193	0.071223	0.234920
C25	C	0.733178	0.040813	0.357508
C26	C	0.665329	0.093617	0.150945
C27	C	0.771443	0.085603	0.189563
C28	C	0.839293	0.032799	0.396126
C29	C	1.232430	-0.156354	0.448150
C30	C	1.269251	-0.264303	0.461530
C31	C	0.903412	-0.518542	0.328520
C32	C	0.938041	-0.619985	0.341115
C33	C	1.132819	-0.660294	0.411942
C34	C	1.098204	-0.558851	0.399347
C35	C	0.983499	-0.487982	0.357637
C36	C	1.178291	-0.528291	0.428465
C37	C	1.143681	-0.426859	0.415877
C38	C	1.028982	-0.355986	0.374172
C39	C	0.948889	-0.386550	0.345050
C40	C	1.292998	-0.599164	0.470182
C41	C	1.373085	-0.568604	0.499300
C42	C	1.338472	-0.467168	0.486704
C43	C	1.223774	-0.396295	0.445000
C44	C	1.418566	-0.436604	0.515827
C45	C	1.383955	-0.335171	0.503239
C46	C	1.189164	-0.294862	0.432412
C47	C	1.350640	-0.001851	0.491141
C48	C	1.463552	-0.010348	0.532194
C49	C	1.089547	0.201198	0.396207
C50	C	1.052723	0.309149	0.382820
N51	N	1.249628	-0.046503	0.691832
N52	N	1.072360	0.091338	0.152532
C53	C	0.920150	0.209656	0.939680
C54	C	0.959402	0.179146	1.058974
C55	C	1.146108	0.034002	1.126823
C56	C	1.106869	0.064497	1.007532
C57	C	0.993890	0.152326	0.913969
C58	C	1.180609	0.007167	0.981820
C59	C	1.141376	0.037663	0.862540
C60	C	1.028403	0.125490	0.768972
C61	C	0.954657	0.182822	0.794688
C62	C	1.293591	-0.080657	1.075387
C63	C	1.367331	-0.137988	1.049675
C64	C	1.328095	-0.107496	0.930392
C65	C	1.215122	-0.019669	0.836823
C66	C	1.401841	-0.164828	0.904675
C67	C	1.362607	-0.134331	0.785395
C68	C	1.175888	0.010828	0.717543
H69	H	0.434546	0.063364	0.248834
H70	H	0.469252	0.103984	0.096489
C71	C	0.878271	0.242220	1.087247
N72	N	0.817164	0.289726	1.108542
C73	C	0.985244	0.159036	0.637759
N74	N	0.952736	0.184301	0.538929
H75	H	0.534946	-0.058963	0.723144
H76	H	1.466479	-0.626320	0.533265
C77	C	1.336746	-0.114202	1.206598
N78	N	1.369248	-0.139469	1.305426
H79	H	1.083885	0.082340	0.641356
C80	C	1.258990	-0.738259	0.457820
N81	N	1.354023	-0.796980	0.492373
H82	H	1.238099	-0.037507	1.203016
H83	H	1.459322	-0.209497	1.125868
H84	H	0.594501	0.118365	0.051131
H85	H	0.787014	0.103844	0.121185
C86	C	0.830346	0.279403	0.691750
N87	N	0.736711	0.352135	0.614216
H88	H	0.810006	-0.460833	0.294547
C89	C	1.472054	-0.301552	0.535264
N90	N	1.538412	-0.276231	0.559387
C91	C	1.526117	-0.261434	1.007609
N92	N	1.619723	-0.334200	1.085139
H93	H	0.828147	0.281169	0.863493
H94	H	1.422655	-0.181016	0.764464
H95	H	0.887432	-0.018516	0.595512
C96	C	0.877574	-0.067829	0.782904
N97	N	0.949641	-0.093021	0.884475
C98	C	0.934974	-0.000646	0.530984
N99	N	1.007041	-0.025838	0.632555
H100	H	1.511962	-0.494322	0.549798
H101	H	0.727467	-0.073512	0.793223
C102	C	0.386992	0.045497	0.313366
N103	N	0.314920	0.070694	0.211795
H104	H	1.095757	-0.237154	0.398439
C105	C	0.822707	-0.308587	0.299165
N106	N	0.727673	-0.249868	0.264611
H107	H	1.000807	-0.273395	0.363931
H108	H	0.872821	-0.644863	0.317417
H109	H	1.321170	-0.681753	0.480419
