data_functionalizedCrystal
_audit_creation_method	'MofGen! by Chris Wilmer'
_symmetry_space_group_name_H-M	'P1'
_symmetry_Int_Tables_number	1
_symmetry_cell_setting	triclinic
loop_
_symmetry_equiv_pos_as_xyz
  x,y,z
_cell_length_a	14.971491
_cell_length_b	19.288865
_cell_length_c	18.366186
_cell_angle_alpha	89.990289
_cell_angle_beta	89.992625
_cell_angle_gamma	83.376241
loop_
_atom_site_label
_atom_site_type_symbol
_atom_site_fract_x
_atom_site_fract_y
_atom_site_fract_z
O1	O	1.186454	0.090532	-0.060589
O2	O	1.686454	0.590532	0.439411
O3	O	0.925996	0.101368	-0.060585
O4	O	1.425996	0.601368	0.439415
O5	O	1.063751	-0.005155	-0.060573
O6	O	1.563751	0.494845	0.439427
O7	O	1.048699	0.197056	-0.060602
O8	O	1.548699	0.697056	0.439398
O9	O	1.063736	-0.005158	0.060526
O10	O	1.563736	0.494842	0.560526
O11	O	0.925981	0.101366	0.060514
O12	O	1.425981	0.601366	0.560514
O13	O	1.186439	0.090530	0.060510
O14	O	1.686439	0.590530	0.560510
Zn15	Zn	1.056208	0.095947	0.079739
Zn16	Zn	1.556208	0.595947	0.579739
Zn17	Zn	1.056227	0.095951	-0.079814
Zn18	Zn	1.556227	0.595951	0.420186
O19	O	1.048684	0.197054	0.060498
O20	O	1.548684	0.697054	0.560498
C21	C	0.892666	0.100882	-0.000035
C22	C	1.392666	0.600882	0.499965
C23	C	0.793377	0.099428	-0.000032
C24	C	1.293377	0.599428	0.499968
C25	C	0.365714	0.093154	-0.066060
C26	C	0.865714	0.593154	0.433940
C27	C	0.459007	0.094519	-0.066057
C28	C	0.959007	0.594519	0.433943
C29	C	0.505641	0.095204	-0.000043
C30	C	1.005641	0.595204	0.499957
C31	C	0.458978	0.094518	0.065972
C32	C	0.958978	0.594518	0.565972
C33	C	0.365688	0.093149	0.065969
C34	C	0.865688	0.593149	0.565969
C35	C	0.653425	0.097373	0.065974
C36	C	1.153425	0.597373	0.565974
C37	C	0.746721	0.098744	0.065978
C38	C	1.246721	0.598744	0.565978
C39	C	0.746743	0.098743	-0.066051
C40	C	1.246743	0.598743	0.433949
C41	C	0.653453	0.097374	-0.066055
C42	C	1.153453	0.597374	0.433945
C43	C	0.606797	0.096689	-0.000039
C44	C	1.106797	0.596689	0.499961
C45	C	1.063259	-0.031035	-0.000021
C46	C	1.563259	0.468965	0.499979
C47	C	1.061805	-0.108143	-0.000015
C48	C	1.561805	0.391857	0.499985
C49	C	1.142634	-0.152575	-0.000012
C50	C	1.642634	0.347425	0.499988
C51	C	1.141268	-0.225026	-0.000024
C52	C	1.641268	0.274974	0.499976
C53	C	1.059069	-0.253043	-0.000023
C54	C	1.559069	0.246957	0.499977
C55	C	0.978230	-0.208601	-0.000029
C56	C	1.478230	0.291399	0.499971
C57	C	0.979598	-0.136151	-0.000025
C58	C	1.479598	0.363849	0.499975
C59	C	0.994446	-0.361543	0.042396
C60	C	1.494446	0.138457	0.542396
C61	C	0.993081	-0.433992	0.042397
C62	C	1.493081	0.066008	0.542397
C63	C	1.054846	-0.476502	-0.000039
C64	C	1.554846	0.023498	0.499961
C65	C	1.117990	-0.446556	-0.042466
C66	C	1.617990	0.053444	0.457534
C67	C	1.119358	-0.374107	-0.042462
C68	C	1.619358	0.125893	0.457538
C69	C	1.057576	-0.331602	-0.000028
C70	C	1.557576	0.168398	0.499972
C71	C	1.134199	-0.599495	-0.000051
C72	C	1.634199	-0.099495	0.499949
C73	C	1.132829	-0.671947	-0.000067
C74	C	1.632829	-0.171947	0.499933
C75	C	0.969789	-0.655521	-0.000065
C76	C	1.469789	-0.155521	0.499935
C77	C	0.971161	-0.583070	-0.000056
C78	C	1.471161	-0.083070	0.499944
C79	C	1.053368	-0.555061	-0.000046
C80	C	1.553368	-0.055061	0.499954
C81	C	1.219768	0.091016	-0.000042
C82	C	1.719768	0.591016	0.499958
C83	C	1.319057	0.092471	-0.000049
C84	C	1.819057	0.592471	0.499951
C85	C	1.049176	0.222933	-0.000056
C86	C	1.549176	0.722933	0.499944
C87	C	1.050630	0.300041	-0.000067
C88	C	1.550630	0.800041	0.499933
N89	N	1.056201	0.095945	0.188630
N90	N	1.556201	0.595945	0.688630
N91	N	1.056241	0.095948	-0.188706
N92	N	1.556241	0.595948	0.311294
C93	C	1.117240	0.048792	0.773186
C94	C	1.617240	0.548792	1.273186
C95	C	1.117241	0.048794	0.696958
C96	C	1.617241	0.548794	1.196958
C97	C	1.056227	0.095944	0.658842
C98	C	1.556227	0.595944	1.158842
C99	C	0.995223	0.143109	0.696959
C100	C	1.495223	0.643109	1.196959
C101	C	0.995230	0.143111	0.773186
C102	C	1.495230	0.643111	1.273186
C103	C	0.974723	0.104947	0.538088
C104	C	1.474723	0.604947	1.038088
C105	C	0.974715	0.104941	0.461863
C106	C	1.474715	0.604941	0.961863
C107	C	1.056207	0.095943	0.423734
C108	C	1.556207	0.595943	0.923734
C109	C	1.137710	0.086937	0.461840
C110	C	1.637710	0.586937	0.961840
C111	C	1.137717	0.086939	0.538066
C112	C	1.637717	0.586939	1.038066
C113	C	1.056214	0.095948	0.576187
C114	C	1.556214	0.595948	1.076187
C115	C	1.117212	0.048786	0.302971
C116	C	1.617212	0.548786	0.802971
C117	C	1.117214	0.048793	0.226742
C118	C	1.617214	0.548793	0.726742
C119	C	0.995189	0.143105	0.226744
C120	C	1.495189	0.643105	0.726744
C121	C	0.995195	0.143102	0.302972
C122	C	1.495195	0.643102	0.802972
C123	C	1.056205	0.095939	0.341081
C124	C	1.556205	0.595939	0.841081
H125	H	1.209573	-0.129775	-0.000006
H126	H	1.709573	0.370225	0.499994
C127	C	1.184334	-0.003083	0.655027
C128	C	1.684334	0.496917	1.155027
H129	H	1.175592	0.003673	0.604171
H130	H	1.675592	0.503673	1.104171
H131	H	1.174801	-0.049450	0.667532
H132	H	1.674801	0.450550	1.167532
H133	H	1.244004	0.004532	0.667503
H134	H	1.744004	0.504532	1.167503
H135	H	1.168285	-0.481168	-0.077022
H136	H	1.668285	0.018832	0.422978
H137	H	0.615485	0.096821	-0.119809
H138	H	1.115485	0.596821	0.380191
C139	C	0.928109	0.194975	0.655038
C140	C	1.428109	0.694975	1.155038
H141	H	0.891784	0.223065	0.688654
H142	H	1.391784	0.723065	1.188654
H143	H	0.890974	0.169943	0.625313
H144	H	1.390974	0.669943	1.125313
H145	H	0.960171	0.223930	0.625291
H146	H	1.460171	0.723930	1.125291
C147	C	0.798060	0.099498	-0.138667
C148	C	1.298060	0.599498	0.361333
H149	H	0.860301	0.100405	-0.129213
H150	H	1.360301	0.600405	0.370787
H151	H	0.775790	0.139750	-0.165794
H152	H	1.275790	0.639750	0.334206
H153	H	0.789763	0.058798	-0.165788
H154	H	1.289763	0.558798	0.334212
H155	H	0.911303	-0.231417	-0.000030
H156	H	1.411303	0.268583	0.499970
C157	C	0.798025	0.099455	0.138591
C158	C	1.298025	0.599455	0.638591
H159	H	0.756882	0.098830	0.177907
H160	H	1.256882	0.598830	0.677907
H161	H	0.827451	0.140451	0.141357
H162	H	1.327451	0.640451	0.641357
H163	H	0.841387	0.059499	0.141311
H164	H	1.341387	0.559499	0.641311
C165	C	0.928084	0.194977	0.184825
C166	C	1.428084	0.694977	0.684825
H167	H	0.936815	0.188222	0.133969
H168	H	1.436815	0.688222	0.633969
H169	H	0.937618	0.241343	0.197311
H170	H	1.437618	0.741343	0.697311
H171	H	0.868417	0.187359	0.197324
H172	H	1.368417	0.687359	0.697324
H173	H	1.166920	0.010391	0.804212
H174	H	1.666920	0.510391	1.304212
H175	H	0.615438	0.096824	0.119731
H176	H	1.115438	0.596824	0.619731
H177	H	0.496956	0.095071	0.119722
H178	H	0.996956	0.595071	0.619722
C179	C	0.314365	0.092400	0.138580
C180	C	0.814365	0.592400	0.638580
H181	H	0.355497	0.093011	0.177896
H182	H	0.855497	0.593011	0.677896
H183	H	0.284957	0.051393	0.141331
H184	H	0.784957	0.551393	0.641331
H185	H	0.270987	0.132344	0.141314
H186	H	0.770987	0.632344	0.641314
H187	H	1.170771	-0.349728	-0.077009
H188	H	1.670771	0.150272	0.422991
C189	C	1.224621	-0.568682	-0.000047
C190	C	1.724621	-0.068682	0.499953
H191	H	1.272565	-0.605523	-0.000058
H192	H	1.772565	-0.105523	0.499942
H193	H	1.228540	-0.540771	0.042186
H194	H	1.728540	-0.040771	0.542186
H195	H	1.228546	-0.540750	-0.042280
H196	H	1.728546	-0.040750	0.457720
C197	C	1.230182	-0.273910	-0.000016
C198	C	1.730182	0.226090	0.499984
H199	H	1.279336	-0.246852	-0.000005
H200	H	1.779336	0.253148	0.499995
H201	H	1.233048	-0.302509	-0.042246
H202	H	1.733048	0.197491	0.457754
H203	H	1.233021	-0.302518	0.042220
H204	H	1.733021	0.197482	0.542220
H205	H	1.204079	0.079608	0.569088
H206	H	1.704079	0.579608	1.069088
H207	H	1.198652	-0.708123	-0.000069
H208	H	1.698652	-0.208123	0.499931
H209	H	0.902861	-0.678331	-0.000068
H210	H	1.402861	-0.178331	0.499932
H211	H	0.945556	0.181512	0.804214
H212	H	1.445556	0.681512	1.304214
C213	C	0.882248	-0.534193	-0.000046
C214	C	1.382248	-0.034193	0.499954
H215	H	0.833096	-0.561253	-0.000041
H216	H	1.333096	-0.061253	0.499959
H217	H	0.879395	-0.505578	-0.042273
H218	H	1.379395	-0.005578	0.457727
H219	H	0.879392	-0.505601	0.042193
H220	H	1.379392	-0.005601	0.542193
C221	C	0.923626	-0.466929	0.089060
C222	C	1.423626	0.033071	0.589060
H223	H	0.931662	-0.516166	0.082987
H224	H	1.431662	-0.016166	0.582987
H225	H	0.864677	-0.449092	0.074138
H226	H	1.364677	0.050908	0.574138
H227	H	0.931701	-0.455857	0.138850
H228	H	1.431701	0.044143	0.638850
H229	H	0.944147	-0.326936	0.076957
H230	H	1.444147	0.173064	0.576957
H231	H	0.913776	-0.099974	-0.000027
H232	H	1.413776	0.400026	0.499973
C233	C	1.227356	0.077052	0.419909
C234	C	1.727356	0.577052	0.919909
H235	H	1.215683	0.078352	0.369054
H236	H	1.715683	0.578352	0.869054
H237	H	1.259438	0.033288	0.432398
H238	H	1.759438	0.533288	0.932398
H239	H	1.262244	0.113432	0.432396
H240	H	1.762244	0.613432	0.932396
C241	C	1.184324	-0.003085	0.344894
C242	C	1.684324	0.496915	0.844894
H243	H	1.220663	-0.031164	0.311277
H244	H	1.720663	0.468836	0.811277
H245	H	1.152268	-0.032040	0.374638
H246	H	1.652268	0.467960	0.874638
H247	H	1.221459	0.021951	0.374620
H248	H	1.721459	0.521951	0.874620
H249	H	1.166892	0.010395	0.195713
H250	H	1.666892	0.510395	0.695713
H251	H	0.945520	0.181498	0.334002
H252	H	1.445520	0.681498	0.834002
C253	C	0.885068	0.114847	0.419954
C254	C	1.385068	0.614847	0.919954
H255	H	0.836536	0.120220	0.453577
H256	H	1.336536	0.620220	0.953577
H257	H	0.880255	0.075153	0.390227
H258	H	1.380255	0.575153	0.890227
H259	H	0.883099	0.155294	0.390210
H260	H	1.383099	0.655294	0.890210
H261	H	0.908358	0.112278	0.569126
H262	H	1.408358	0.612278	1.069126
H263	H	0.327750	0.092601	-0.119816
H264	H	0.827750	0.592601	0.380184
H265	H	0.496991	0.095071	-0.119809
H266	H	0.996991	0.595071	0.380191
