data_functionalizedCrystal
_audit_creation_method	'MofGen! by Chris Wilmer'
_symmetry_space_group_name_H-M	'P1'
_symmetry_Int_Tables_number	1
_symmetry_cell_setting	triclinic
loop_
_symmetry_equiv_pos_as_xyz
  x,y,z
_cell_length_a	12.645331
_cell_length_b	12.759394
_cell_length_c	12.759387
_cell_angle_alpha	89.968340
_cell_angle_beta	89.983850
_cell_angle_gamma	90.014072
loop_
_atom_site_label
_atom_site_type_symbol
_atom_site_fract_x
_atom_site_fract_y
_atom_site_fract_z
Zn1	Zn	1.620757	-0.418233	-0.593877
Zn2	Zn	1.620646	-0.593950	-0.418194
Zn3	Zn	1.443470	-0.418283	-0.418227
Zn4	Zn	1.443462	-0.593868	-0.593847
O5	O	1.532083	-0.506083	-0.506036
O6	O	1.769089	-0.441555	-0.570571
O7	O	1.597100	-0.570702	-0.271178
O8	O	1.467037	-0.271255	-0.441553
O9	O	1.769008	-0.570654	-0.441498
O10	O	1.597289	-0.271218	-0.570602
O11	O	1.466930	-0.441641	-0.271201
O12	O	1.295122	-0.441561	-0.441524
O13	O	1.467023	-0.570514	-0.740872
O14	O	1.295116	-0.570563	-0.570552
O15	O	1.597281	-0.441476	-0.740894
O16	O	1.597092	-0.740960	-0.441469
O17	O	1.466916	-0.740900	-0.570520
C18	C	1.532020	-0.779051	-0.506011
C19	C	1.532090	-0.895827	-0.506035
C20	C	1.256654	-0.506059	-0.506039
C21	C	1.138824	-0.506075	-0.506065
C22	C	1.667744	-0.895837	-0.371755
C23	C	1.735599	-0.950702	-0.304627
C24	C	1.735661	-1.060424	-0.304656
C25	C	1.667863	-1.115282	-0.371821
C26	C	1.600008	-1.060417	-0.438949
C27	C	1.599951	-0.950693	-0.438911
C28	C	1.464361	-1.060408	-0.573233
C29	C	1.464292	-0.950686	-0.573201
C30	C	1.396563	-1.115266	-0.640399
C31	C	1.328701	-1.060401	-0.707523
C32	C	1.328641	-0.950673	-0.707491
C33	C	1.396437	-0.895821	-0.640329
C34	C	0.971291	-0.587675	-0.586813
C35	C	1.093851	-0.587411	-0.587150
C36	C	1.094340	-0.395416	-0.536318
C37	C	0.971742	-0.395913	-0.536887
C38	C	0.971579	-0.534243	-0.394808
C39	C	1.094185	-0.536663	-0.395408
C40	C	1.808589	-0.506108	-0.506034
C41	C	1.926419	-0.506118	-0.506033
C42	C	1.532164	-0.505980	-0.780070
C43	C	1.532198	-0.505936	-0.896847
C44	C	1.532176	-0.232050	-0.506085
C45	C	1.532216	-0.115273	-0.506105
C46	C	1.667844	-0.371577	-0.896889
C47	C	1.735682	-0.304382	-0.951771
C48	C	1.735708	-0.304344	-1.061493
C49	C	1.667886	-0.371506	-1.116335
C50	C	1.600048	-0.438701	-1.061453
C51	C	1.600032	-0.438734	-0.951729
C52	C	1.464398	-0.573053	-1.061410
C53	C	1.464376	-0.573098	-0.951689
C54	C	1.396576	-0.640215	-1.116253
C55	C	1.328742	-0.707417	-1.061370
C56	C	1.328720	-0.707453	-0.951642
C57	C	1.396538	-0.640293	-0.896807
C58	C	1.532065	-0.506110	-0.233069
C59	C	1.532236	-0.505858	-0.116292
H60	H	1.667687	-0.806496	-0.371711
C61	C	1.667910	-0.371457	-1.237026
H62	H	1.718026	-0.321822	-1.261856
H63	H	1.599512	-0.353272	-1.261844
H64	H	1.686227	-0.439253	-1.261835
H65	H	1.123200	-0.568798	-0.669564
H66	H	1.396623	-1.204607	-0.640422
C67	C	1.396374	-0.775130	-0.640298
H68	H	1.346251	-0.750308	-0.689891
H69	H	1.464765	-0.750246	-0.658503
H70	H	1.378050	-0.750379	-0.572476
H71	H	1.790801	-0.906027	-0.249943
H72	H	1.790919	-1.105095	-0.249999
H73	H	1.396598	-0.640175	-1.205594
C74	C	1.667941	-1.235973	-0.371868
H75	H	1.617853	-1.260786	-0.421486
H76	H	1.649660	-1.260878	-0.304067
H77	H	1.736363	-1.260713	-0.390105
H78	H	1.123928	-0.669471	-0.568190
C79	C	0.931450	-0.698898	-0.561495
H80	H	0.887086	-0.696597	-0.501438
H81	H	0.990102	-0.743399	-0.547988
H82	H	0.892554	-0.725311	-0.619440
C83	C	1.135527	-0.462235	-0.309736
H84	H	1.180749	-0.411300	-0.340470
H85	H	1.173805	-0.501312	-0.258971
H86	H	1.077526	-0.428153	-0.276925
C87	C	1.254150	-0.781286	-1.121696
H88	H	1.263883	-0.771640	-1.194902
H89	H	1.182925	-0.765911	-1.103710
H90	H	1.269643	-0.851890	-1.103707
H91	H	0.942058	-0.332970	-0.480749
C92	C	1.254115	-0.781388	-0.891280
H93	H	1.213742	-0.821387	-0.939660
H94	H	1.207929	-0.741225	-0.848469
H95	H	1.294661	-0.827189	-0.848485
H96	H	1.273511	-1.105076	-0.762209
C97	C	0.929834	-0.562769	-0.697529
H98	H	0.957356	-0.612386	-0.745856
H99	H	0.951810	-0.494352	-0.717277
H100	H	0.854786	-0.566195	-0.697765
C101	C	1.810277	-0.230503	-0.891449
H102	H	1.850673	-0.190472	-0.939850
H103	H	1.856442	-0.270708	-0.848637
H104	H	1.769725	-0.184729	-0.848658
C105	C	1.254004	-0.890324	-0.781333
H106	H	1.263678	-0.817120	-0.771704
H107	H	1.182793	-0.908378	-0.765919
H108	H	1.269512	-0.908235	-0.851942
C109	C	0.933133	-0.363703	-0.646730
H110	H	0.992375	-0.350443	-0.690588
H111	H	0.891292	-0.302104	-0.641514
H112	H	0.891930	-0.418711	-0.675866
C113	C	1.133694	-0.311089	-0.459330
H114	H	1.177713	-0.342696	-0.407933
H115	H	1.074826	-0.279016	-0.426026
H116	H	1.172846	-0.259539	-0.496539
C117	C	0.932353	-0.454013	-0.313492
H118	H	0.888667	-0.403618	-0.347105
H119	H	0.991284	-0.419814	-0.282494
H120	H	0.892879	-0.489118	-0.260722
C121	C	1.396511	-0.640332	-0.776116
H122	H	1.346400	-0.689972	-0.751281
H123	H	1.378208	-0.572537	-0.751312
H124	H	1.464911	-0.658529	-0.751296
H125	H	1.667840	-0.371612	-0.807548
H126	H	1.125065	-0.371127	-0.616747
H127	H	0.940661	-0.613560	-0.367311
H128	H	1.123271	-0.618092	-0.372591
H129	H	1.790941	-0.249621	-1.106178
