data_functionalizedCrystal
_audit_creation_method	'MofGen! by Chris Wilmer'
_symmetry_space_group_name_H-M	'P1'
_symmetry_Int_Tables_number	1
_symmetry_cell_setting	triclinic
loop_
_symmetry_equiv_pos_as_xyz
  x,y,z
_cell_length_a	13.635800
_cell_length_b	11.168129
_cell_length_c	11.102291
_cell_angle_alpha	88.013784
_cell_angle_beta	108.605752
_cell_angle_gamma	71.491363
loop_
_atom_site_label
_atom_site_type_symbol
_atom_site_fract_x
_atom_site_fract_y
_atom_site_fract_z
V1	V	2.055517	-0.174721	0.396270
O2	O	2.035298	0.008380	0.388715
O3	O	2.043657	-0.346426	0.393571
O4	O	2.043913	-0.172040	0.569092
O5	O	2.035040	-0.167213	0.211979
V6	V	2.294100	-0.152819	0.374226
O7	O	2.193119	-0.222764	0.444625
O8	O	2.381596	-0.104776	0.325871
O9	O	2.194356	0.018886	0.376925
O10	O	2.373017	-0.335919	0.381781
O11	O	2.373275	-0.160326	0.558517
O12	O	2.194100	-0.155499	0.201404
V13	V	2.555517	-0.174721	0.396270
O14	O	2.535298	0.008380	0.388715
O15	O	2.543657	-0.346426	0.393571
O16	O	2.543913	-0.172040	0.569092
O17	O	2.535040	-0.167213	0.211979
V18	V	2.794100	-0.152819	0.374226
O19	O	2.693119	-0.222764	0.444625
O20	O	2.881596	-0.104776	0.325871
O21	O	2.694356	0.018886	0.376925
O22	O	2.873017	-0.335919	0.381781
O23	O	2.873275	-0.160326	0.558517
O24	O	2.694100	-0.155499	0.201404
C25	C	1.968752	-0.388284	0.387322
C26	C	1.999783	-0.528655	0.386267
C27	C	1.985050	-0.574096	0.275189
C28	C	2.017121	-0.719177	0.274096
C29	C	1.969078	-0.165836	0.611215
C30	C	2.000314	-0.164780	0.752498
C31	C	2.100932	0.060738	0.383170
C32	C	2.059521	0.201108	0.384233
C33	C	2.100606	-0.161708	0.159274
C34	C	2.058989	-0.162757	0.017990
C35	C	2.468752	-0.388284	0.387322
C36	C	2.499783	-0.528655	0.386267
C37	C	2.469078	-0.165836	0.611215
C38	C	2.500314	-0.164780	0.752498
C39	C	2.106983	-0.170582	0.825347
C40	C	2.136320	-0.169566	0.958093
C41	C	1.952310	-0.156951	0.945131
C42	C	1.922972	-0.157958	0.812386
C43	C	2.213221	-0.177871	0.832832
C44	C	2.242559	-0.176855	0.965578
C45	C	2.600932	0.060738	0.383170
C46	C	2.559521	0.201108	0.384233
C47	C	2.600606	-0.161708	0.159274
C48	C	2.558989	-0.162757	0.017990
C49	C	2.606356	-0.601034	0.392112
C50	C	2.635509	-0.732929	0.391132
C51	C	2.451505	-0.720054	0.378456
C52	C	2.422356	-0.588162	0.379446
C53	C	2.712588	-0.608467	0.399424
C54	C	2.741741	-0.740362	0.398444
C55	C	2.606983	-0.170582	0.825347
C56	C	2.636320	-0.169566	0.958093
C57	C	2.452310	-0.156951	0.945131
C58	C	2.422972	-0.157958	0.812386
C59	C	2.713221	-0.177871	0.832832
C60	C	2.742559	-0.176855	0.965578
H61	H	1.948699	-0.505593	0.180901
Br62	Br	2.060391	-0.642821	0.543433
Br63	Br	2.347354	-0.147691	1.026415
Br64	Br	2.712759	-0.520304	0.250064
Br65	Br	2.229647	-0.035026	0.754314
Br66	Br	2.362096	-0.329017	1.053681
H67	H	2.723082	-0.092166	0.785731
Br68	Br	2.346434	-0.800823	0.369203
Br69	Br	2.277725	-0.489941	0.371544
Br70	Br	2.773165	-0.027431	1.014089
Br71	Br	2.792489	-0.334818	0.792054
H72	H	1.836115	-0.153235	0.753077
Br73	Br	1.996170	-0.784409	0.115579
H74	H	1.889344	-0.151394	0.993907
Br75	Br	2.292489	-0.334818	0.792054
Br76	Br	2.805850	-0.576631	0.553475
Br77	Br	2.273165	-0.027431	1.014089
Br78	Br	2.851307	-0.836211	0.555457
H79	H	2.336115	-0.153235	0.753077
Br80	Br	2.862096	-0.329017	1.053681
Br81	Br	2.784439	-0.781718	0.253755
H82	H	2.072079	-0.759756	0.479338
