data_functionalizedCrystal
_audit_creation_method	'MofGen! by Chris Wilmer'
_symmetry_space_group_name_H-M	'P1'
_symmetry_Int_Tables_number	1
_symmetry_cell_setting	triclinic
loop_
_symmetry_equiv_pos_as_xyz
  x,y,z
_cell_length_a	15.297327
_cell_length_b	10.686154
_cell_length_c	10.686551
_cell_angle_alpha	89.693980
_cell_angle_beta	96.042164
_cell_angle_gamma	76.762105
loop_
_atom_site_label
_atom_site_type_symbol
_atom_site_fract_x
_atom_site_fract_y
_atom_site_fract_z
Zn1	Zn	-0.219569	-1.923450	-0.619294
Zn2	Zn	-0.382530	-1.870970	-0.451724
Zn3	Zn	-0.242593	-1.692446	-0.431565
Zn4	Zn	-0.380699	-1.677807	-0.677021
O5	O	-0.306348	-1.791168	-0.544901
O6	O	-0.232316	-2.094003	-0.581343
O7	O	-0.374370	-1.831452	-0.276197
O8	O	-0.113541	-1.751179	-0.423872
O9	O	-0.352044	-2.055447	-0.458230
O10	O	-0.096625	-1.920896	-0.561796
O11	O	-0.271558	-1.700291	-0.261386
O12	O	-0.269783	-1.512989	-0.479848
O13	O	-0.348923	-1.726228	-0.842217
O14	O	-0.371249	-1.502233	-0.660183
O15	O	-0.230541	-1.906701	-0.799805
O16	O	-0.508285	-1.817257	-0.514206
O17	O	-0.506940	-1.675341	-0.679731
C18	C	-0.322816	-1.461583	-0.574093
C19	C	-0.329882	-1.320583	-0.586617
C20	C	-0.540279	-1.739052	-0.605444
C21	C	-0.640348	-1.716877	-0.631375
C22	C	-0.925074	-1.950221	-0.359940
C23	C	-0.831055	-1.971055	-0.335570
C24	C	-0.783374	-1.907513	-0.409519
C25	C	-0.829720	-1.823132	-0.507843
C26	C	-0.923749	-1.802289	-0.532209
C27	C	-0.782049	-1.759580	-0.581788
C28	C	-0.828396	-1.675200	-0.680112
C29	C	-0.922416	-1.654361	-0.704474
C30	C	-0.970097	-1.717903	-0.630525
C31	C	-0.688020	-1.780424	-0.557422
C32	C	-0.686696	-1.632491	-0.729691
C33	C	-0.780715	-1.611657	-0.754061
C34	C	-0.071500	-1.843524	-0.484146
C35	C	0.028579	-1.865835	-0.458256
C36	C	-0.286959	-1.820686	-0.867083
C37	C	-0.278697	-1.833265	-1.004377
C38	C	-0.289808	-1.122041	-0.515586
C39	C	-0.282738	-1.263042	-0.503067
C40	C	-0.325593	-1.761853	-0.223950
C41	C	-0.333589	-1.749576	-0.086568
H42	H	-0.375657	-1.261968	-0.667728
O43	O	-0.692030	-1.927772	-0.386081
C44	C	-0.548294	-2.001107	-0.466643
C45	C	-0.651732	-1.978193	-0.493365
H46	H	-0.515681	-2.041901	-0.553355
H47	H	-0.529239	-1.906190	-0.443114
H48	H	-0.523381	-2.072284	-0.383627
H49	H	-0.676718	-1.907062	-0.576396
H50	H	-0.670727	-2.073164	-0.516819
H51	H	-0.225381	-1.914547	-1.039050
H52	H	-0.236972	-1.321648	-0.421954
O53	O	-0.397318	-1.652732	-1.045294
C54	C	-0.555914	-1.553386	-1.050701
C55	C	-0.483833	-1.663140	-1.097529
H56	H	-0.625876	-1.561748	-1.092935
H57	H	-0.551546	-1.560168	-0.943633
H58	H	-0.543669	-1.456926	-1.080937
H59	H	-0.496031	-1.759652	-1.067384
H60	H	-0.488219	-1.656244	-1.204593
H61	H	-0.650293	-1.849126	-0.477366
H62	H	-0.793323	-2.039755	-0.255515
H63	H	-0.963905	-2.001940	-0.299734
H64	H	-1.046655	-1.700948	-0.650364
H65	H	-0.960150	-1.585636	-0.784522
O66	O	-0.825885	-1.529686	-0.849480
C67	C	-0.970144	-1.432088	-0.963403
C68	C	-0.919104	-1.524929	-0.855285
H69	H	-1.045518	-1.428233	-0.968148
H70	H	-0.958222	-1.331860	-0.945940
H71	H	-0.944462	-1.467513	-1.056229
H72	H	-0.944755	-1.489623	-0.762412
H73	H	-0.931026	-1.625140	-0.872857
O74	O	-0.640445	-1.570561	-0.801431
C75	C	-0.619013	-1.366564	-0.872977
C76	C	-0.671450	-1.436533	-0.791670
H77	H	-0.644073	-1.258190	-0.865134
H78	H	-0.543845	-1.395850	-0.838679
H79	H	-0.630341	-1.393865	-0.975392
H80	H	-0.660196	-1.409267	-0.689236
H81	H	-0.746599	-1.407242	-0.826073
