data_functionalizedCrystal
_audit_creation_method	'MofGen! by Chris Wilmer'
_symmetry_space_group_name_H-M	'P1'
_symmetry_Int_Tables_number	1
_symmetry_cell_setting	triclinic
loop_
_symmetry_equiv_pos_as_xyz
  x,y,z
_cell_length_a	9.065218
_cell_length_b	10.654550
_cell_length_c	7.540329
_cell_angle_alpha	90.003055
_cell_angle_beta	90.001688
_cell_angle_gamma	84.750408
loop_
_atom_site_label
_atom_site_type_symbol
_atom_site_fract_x
_atom_site_fract_y
_atom_site_fract_z
O1	O	1.959389	0.184157	0.147487
O2	O	1.530022	0.199263	0.147489
O3	O	1.754577	0.009010	0.147477
O4	O	1.734833	0.374410	0.147499
O5	O	1.754569	0.009008	-0.147488
O6	O	1.530014	0.199261	-0.147476
O7	O	1.959381	0.184156	-0.147478
Cu8	Cu	1.744697	0.191708	-0.174410
Cu9	Cu	1.744706	0.191710	0.174421
O10	O	1.734825	0.374408	-0.147466
C11	C	1.475039	0.197810	0.000007
C12	C	1.311220	0.193469	0.000008
C13	C	1.753124	-0.037795	-0.000005
C14	C	1.748786	-0.177255	-0.000002
C15	C	1.881001	-0.256217	-0.000002
C16	C	1.876917	-0.387254	0.000019
C17	C	1.608391	-0.360354	0.000034
C18	C	1.612477	-0.229320	0.000025
C19	C	2.032637	-0.582482	0.103368
C20	C	2.164859	-0.661449	0.103337
C21	C	2.284719	-0.630803	-0.000031
C22	C	2.272363	-0.521192	-0.103411
C23	C	2.140138	-0.442231	-0.103397
C24	C	2.020284	-0.472876	0.000013
C25	C	1.456766	-0.034091	-0.103338
C26	C	1.324541	0.044872	-0.103336
C27	C	1.204668	0.014230	0.000021
C28	C	1.217010	-0.095384	0.103375
C29	C	1.349235	-0.174347	0.103373
C30	C	1.469109	-0.143695	0.000019
C31	C	2.014364	0.185608	0.000008
C32	C	2.178183	0.189949	0.000019
C33	C	1.736279	0.421213	0.000020
C34	C	1.740616	0.560673	0.000028
N35	N	1.744701	0.191706	-0.419758
N36	N	1.744713	0.191702	0.419769
H37	H	1.991993	-0.213831	-0.000020
N38	N	1.586050	-0.001052	-0.214854
H39	H	1.671685	-0.067707	-0.199174
H40	H	1.617114	0.083403	-0.176258
H41	H	2.369964	-0.496258	-0.187596
N42	N	1.087717	-0.128433	0.214858
H43	H	1.117904	-0.132815	0.343805
H44	H	1.056587	-0.212838	0.176134
N45	N	1.311218	0.163096	-0.214819
H46	H	1.407224	0.170536	-0.280290
H47	H	1.289380	0.238934	-0.135552
H48	H	2.130076	-0.352991	-0.187573
H49	H	2.392377	-0.695107	-0.000053
N50	N	2.178188	-0.779672	0.214824
H51	H	2.082198	-0.787102	0.280331
H52	H	2.261410	-0.775468	0.303064
N53	N	1.903357	-0.615524	0.214874
H54	H	1.933564	-0.619905	0.343815
H55	H	1.872224	-0.699929	0.176159
H56	H	1.497413	-0.402762	0.000052
N57	N	1.362554	-0.292577	0.214842
H58	H	1.266552	-0.300013	0.280323
H59	H	1.445759	-0.288369	0.303105
H60	H	1.096996	0.078524	-0.000009
