data_functionalizedCrystal
_audit_creation_method	'MofGen! by Chris Wilmer'
_symmetry_space_group_name_H-M	'P1'
_symmetry_Int_Tables_number	1
_symmetry_cell_setting	triclinic
loop_
_symmetry_equiv_pos_as_xyz
  x,y,z
_cell_length_a	10.540539
_cell_length_b	14.044220
_cell_length_c	12.503572
_cell_angle_alpha	86.156832
_cell_angle_beta	93.551804
_cell_angle_gamma	88.857185
loop_
_atom_site_label
_atom_site_type_symbol
_atom_site_fract_x
_atom_site_fract_y
_atom_site_fract_z
O1	O	-1.706103	-0.128248	-0.089273
O2	O	-1.206103	0.371752	0.410727
O3	O	-1.337964	-0.140843	-0.089286
O4	O	-0.837964	0.359157	0.410714
O5	O	-1.516507	0.003476	-0.089269
O6	O	-1.016507	0.503476	0.410731
O7	O	-1.527560	-0.272567	-0.089290
O8	O	-1.027560	0.227433	0.410710
O9	O	-1.503082	-0.007396	0.089372
O10	O	-1.003082	0.492604	0.589372
O11	O	-1.324539	-0.151715	0.089355
O12	O	-0.824539	0.348285	0.589355
O13	O	-1.692677	-0.139120	0.089368
O14	O	-1.192677	0.360880	0.589368
Cu15	Cu	-1.507382	-0.146410	0.105673
Cu16	Cu	-1.007382	0.353590	0.605673
Cu17	Cu	-1.523259	-0.133553	-0.105591
Cu18	Cu	-1.023259	0.366447	0.394409
O19	O	-1.514135	-0.283439	0.089351
O20	O	-1.014135	0.216561	0.589351
C21	C	-1.504957	0.033387	0.000052
C22	C	-1.004957	0.533387	0.500052
C23	C	-1.490527	0.138711	0.000052
C24	C	-0.990527	0.638711	0.500052
C25	C	-1.283853	-0.145334	0.000033
C26	C	-0.783853	0.354666	0.500033
C27	C	-1.142620	-0.142508	0.000028
C28	C	-0.642620	0.357492	0.500028
C29	C	-1.746789	-0.134629	0.000047
C30	C	-1.246789	0.365371	0.500047
C31	C	-1.888023	-0.137454	0.000045
C32	C	-1.388023	0.362546	0.500045
C33	C	-0.948213	-0.034244	0.000453
C34	C	-0.448213	0.465756	0.500453
C35	C	-1.095152	-0.037084	0.000039
C36	C	-0.595152	0.462916	0.500039
C37	C	-1.093743	-0.187034	-0.101985
C38	C	-0.593743	0.312966	0.398015
C39	C	-0.946840	-0.183432	-0.102059
C40	C	-0.446840	0.316568	0.397941
C41	C	-0.931301	-0.197940	0.101089
C42	C	-0.431301	0.302060	0.601089
C43	C	-1.078281	-0.198992	0.102426
C44	C	-0.578281	0.301008	0.602426
C45	C	-1.525685	-0.313350	0.000028
C46	C	-1.025685	0.186650	0.500028
C47	C	-1.540116	-0.418673	0.000020
C48	C	-1.040116	0.081327	0.500020
N49	N	-1.496224	-0.155452	0.254264
N50	N	-0.996224	0.344548	0.754264
C51	C	-1.464147	0.331552	0.000036
C52	C	-0.964147	0.831552	0.500036
C53	C	-1.566490	0.388492	0.000036
C54	C	-1.066490	0.888492	0.500036
C55	C	-1.551812	0.495795	0.000027
C56	C	-1.051812	0.995795	0.500027
C57	C	-1.478823	0.224238	0.000045
C58	C	-0.978823	0.724238	0.500045
N59	N	-1.534427	-0.124503	-0.254182
N60	N	-1.034427	0.375497	0.245818
C61	C	-1.479811	-0.168762	0.473377
C62	C	-0.979811	0.331238	0.973377
C63	C	-1.550836	-0.111196	0.526711
C64	C	-1.050836	0.388804	1.026711
C65	C	-1.541703	-0.118602	0.648634
C66	C	-1.041703	0.381398	1.148634
C67	C	-1.488942	-0.161358	0.351444
C68	C	-0.988942	0.338642	0.851444
H69	H	-1.128234	-0.001614	0.073166
H70	H	-0.628234	0.498386	0.573166
Cl71	Cl	-1.162796	-0.125489	-0.219194
Cl72	Cl	-0.662796	0.374511	0.280806
Cl73	Cl	-1.375352	-0.253439	0.544247
Cl74	Cl	-0.875352	0.246561	1.044247
Cl75	Cl	-1.311861	0.380706	0.000025
Cl76	Cl	-0.811861	0.880706	0.500025
H77	H	-0.909919	0.002952	0.073612
H78	H	-0.409919	0.502952	0.573612
H79	H	-0.919280	0.011655	-0.072293
H80	H	-0.419280	0.511655	0.427707
Cl81	Cl	-1.161834	0.031607	-0.113243
Cl82	Cl	-0.661834	0.531607	0.386757
Cl83	Cl	-1.140817	-0.306198	-0.107882
Cl84	Cl	-0.640817	0.193802	0.392118
H85	H	-0.890495	-0.168527	0.178413
H86	H	-0.390495	0.331473	0.678413
H87	H	-1.665137	0.356657	-0.000032
H88	H	-1.165137	0.856657	0.499968
Cl89	Cl	-0.870194	-0.315569	0.102146
Cl90	Cl	-0.370194	0.184431	0.602146
H91	H	-0.906885	-0.258969	-0.106695
H92	H	-0.406885	0.241031	0.393305
Cl93	Cl	-0.906274	-0.118373	-0.219781
Cl94	Cl	-0.406274	0.381627	0.280219
H95	H	-1.618501	-0.056351	0.480805
H96	H	-1.118501	0.443649	0.980805
H97	H	-1.109825	-0.166521	0.177895
H98	H	-0.609825	0.333479	0.677895
Cl99	Cl	-1.126955	-0.318244	0.111925
Cl100	Cl	-0.626955	0.181756	0.611925
