data_functionalizedCrystal
_audit_creation_method	'MofGen! by Chris Wilmer'
_symmetry_space_group_name_H-M	'P1'
_symmetry_Int_Tables_number	1
_symmetry_cell_setting	triclinic
loop_
_symmetry_equiv_pos_as_xyz
  x,y,z
_cell_length_a	29.839134
_cell_length_b	13.897448
_cell_length_c	13.897441
_cell_angle_alpha	89.969401
_cell_angle_beta	89.968382
_cell_angle_gamma	90.012554
loop_
_atom_site_label
_atom_site_type_symbol
_atom_site_fract_x
_atom_site_fract_y
_atom_site_fract_z
Zn1	Zn	0.686836	-0.384116	-0.545661
Zn2	Zn	0.686787	-0.545438	-0.384363
Zn3	Zn	0.611707	-0.384144	-0.384349
Zn4	Zn	0.611698	-0.545357	-0.545585
O5	O	0.649257	-0.464764	-0.464989
O6	O	0.749697	-0.405538	-0.524302
O7	O	0.676810	-0.524088	-0.249379
O8	O	0.621697	-0.249159	-0.405774
O9	O	0.749661	-0.524061	-0.405797
O10	O	0.676895	-0.249138	-0.524289
O11	O	0.621649	-0.405586	-0.249369
O12	O	0.548838	-0.405507	-0.405699
O13	O	0.621682	-0.523922	-0.680576
O14	O	0.548832	-0.523949	-0.524159
O15	O	0.676886	-0.405459	-0.680633
O16	O	0.676802	-0.680409	-0.405723
O17	O	0.621635	-0.680349	-0.524172
C18	C	0.649224	-0.715378	-0.464961
C19	C	0.649251	-0.822592	-0.464982
C20	C	0.532535	-0.464723	-0.464920
C21	C	0.482600	-0.464729	-0.464913
C22	C	0.649299	-1.018887	-0.465042
C23	C	0.649271	-0.909655	-0.465012
C24	C	0.172963	-0.526528	-0.526595
C25	C	-0.014710	-0.526555	-0.526638
O26	O	-0.038970	-0.579053	-0.579042
N27	N	-0.038185	-0.464799	-0.465062
C28	C	-0.014739	-0.403028	-0.403475
O29	O	-0.039012	-0.350494	-0.351109
C30	C	0.172933	-0.402996	-0.403438
C31	C	0.196406	-0.464763	-0.465011
C32	C	0.196435	-0.588289	-0.588165
C33	C	0.243351	-0.588285	-0.588150
C34	C	0.266794	-0.526520	-0.526565
C35	C	0.243321	-0.464759	-0.464996
C36	C	0.196379	-0.341221	-0.341856
C37	C	0.243300	-0.341217	-0.341854
C38	C	0.266772	-0.402983	-0.403428
C39	C	0.313680	-0.402991	-0.403397
N40	N	0.337155	-0.464747	-0.464973
C41	C	0.313712	-0.526511	-0.526557
C42	C	-0.113269	-0.403050	-0.403498
C43	C	-0.160187	-0.403059	-0.403506
C44	C	-0.160155	-0.526585	-0.526670
C45	C	-0.113237	-0.526580	-0.526657
C46	C	-0.089794	-0.464806	-0.465074
C47	C	0.412238	-0.526500	-0.526521
C48	C	0.459157	-0.526493	-0.526497
C49	C	0.459121	-0.402964	-0.403336
C50	C	0.412206	-0.402973	-0.403356
C51	C	0.388765	-0.464744	-0.464956
O52	O	0.337968	-0.350512	-0.351028
O53	O	0.337993	-0.579022	-0.578931
C54	C	0.126047	-0.526531	-0.526610
C55	C	0.102575	-0.464770	-0.465041
C56	C	0.126018	-0.403006	-0.403457
C57	C	0.055657	-0.464779	-0.465049
C58	C	0.032214	-0.526544	-0.526633
C59	C	0.055689	-0.588300	-0.588210
C60	C	0.102604	-0.588296	-0.588195
C61	C	0.102543	-0.341250	-0.341881
C62	C	0.055628	-0.341259	-0.341900
C63	C	0.032185	-0.403024	-0.403484
C64	C	0.766435	-0.464805	-0.465060
C65	C	0.816370	-0.464823	-0.465090
C66	C	0.649289	-0.464678	-0.716582
C67	C	0.649303	-0.464642	-0.823796
C68	C	0.649302	-0.213171	-0.465039
C69	C	0.649321	-0.105957	-0.465059
C70	C	0.649315	-0.464577	-1.020092
C71	C	0.649307	-0.464616	-0.910859
C72	C	0.649251	-0.464779	-0.214375
C73	C	0.649325	-0.464544	-0.107162
H74	H	0.478266	-0.576795	-0.576638
H75	H	0.393158	-0.576797	-0.576683
O76	O	0.032960	-0.648247	-0.648171
C77	C	0.044446	-0.627259	-0.744343
H78	H	0.078518	-0.590191	-0.746401
H79	H	0.018057	-0.577695	-0.776914
C80	C	0.004766	-0.766887	-0.800091
C81	C	0.046615	-0.721366	-0.802619
H82	H	0.006102	-0.824935	-0.836040
H83	H	-0.002974	-0.781025	-0.735298
H84	H	-0.017221	-0.725573	-0.827231
H85	H	0.068600	-0.762674	-0.775468
H86	H	0.054359	-0.707237	-0.867409
O87	O	0.032775	-0.281226	-0.282205
C88	C	0.005664	-0.218976	-0.337228
H89	H	-0.001343	-0.253073	-0.410276
H90	H	0.023751	-0.147498	-0.347934
C91	C	-0.030313	-0.159590	-0.194476
C92	C	-0.038923	-0.201474	-0.284192
H93	H	-0.057816	-0.148790	-0.161760
H94	H	-0.012047	-0.201527	-0.157405
H95	H	-0.015239	-0.100030	-0.203411
H96	H	-0.053991	-0.261038	-0.275257
H97	H	-0.057193	-0.159546	-0.321261
H98	H	0.121712	-0.638593	-0.638335
O99	O	0.173655	-0.281123	-0.282017
C100	C	0.204416	-0.226627	-0.227658
H101	H	0.237872	-0.223351	-0.267173
H102	H	0.209381	-0.261851	-0.154332
C103	C	0.145028	-0.127966	-0.165417
C104	C	0.186117	-0.123935	-0.213955
H105	H	0.133740	-0.064622	-0.156960
H106	H	0.124303	-0.164683	-0.202037
H107	H	0.149171	-0.157324	-0.104317
H108	H	0.181972	-0.094589	-0.275057
H109	H	0.206841	-0.087211	-0.177344
H110	H	0.262384	-0.290905	-0.291711
O111	O	-0.090507	-0.586605	-0.586565
C112	C	-0.121265	-0.641136	-0.640898
H113	H	-0.154706	-0.601635	-0.644304
H114	H	-0.126269	-0.714353	-0.605448
C115	C	-0.061858	-0.703677	-0.739354
C116	C	-0.102930	-0.655156	-0.743543
H117	H	-0.050548	-0.712330	-0.802669
H118	H	-0.041136	-0.666942	-0.702747
H119	H	-0.066034	-0.764686	-0.709808
H120	H	-0.098753	-0.594145	-0.773078
H121	H	-0.123652	-0.691883	-0.780158
H122	H	0.262458	-0.638580	-0.638291
H123	H	0.393093	-0.352680	-0.353216
H124	H	0.121626	-0.290952	-0.291730
H125	H	0.177353	-0.638585	-0.638319
O126	O	-0.183002	-0.586489	-0.586468
C127	C	-0.229445	-0.573261	-0.573246
H128	H	-0.235851	-0.498787	-0.541773
H129	H	-0.242780	-0.630420	-0.521789
C130	C	-0.245640	-0.673670	-0.709486
C131	C	-0.253509	-0.582196	-0.670837
H132	H	-0.260484	-0.679186	-0.769683
H133	H	-0.214350	-0.682586	-0.718392
H134	H	-0.256752	-0.721293	-0.666596
H135	H	-0.242391	-0.534576	-0.713722
H136	H	-0.284797	-0.573273	-0.661941
O137	O	0.481880	-0.343075	-0.343377
C138	C	0.470380	-0.364017	-0.247203
H139	H	0.457469	-0.441067	-0.242195
H140	H	0.443147	-0.312265	-0.222080
C141	C	0.527901	-0.258087	-0.189000
C142	C	0.512047	-0.352724	-0.182848
H143	H	0.553602	-0.251117	-0.149301
H144	H	0.535648	-0.243974	-0.253794
H145	H	0.505203	-0.214971	-0.168066
H146	H	0.534743	-0.395837	-0.203793
H147	H	0.504305	-0.366844	-0.118055
H148	H	-0.179294	-0.352772	-0.353357
H149	H	-0.094187	-0.352744	-0.353345
