data_functionalizedCrystal
_audit_creation_method	'MofGen! by Chris Wilmer'
_symmetry_space_group_name_H-M	'P1'
_symmetry_Int_Tables_number	1
_symmetry_cell_setting	triclinic
loop_
_symmetry_equiv_pos_as_xyz
  x,y,z
_cell_length_a	31.640172
_cell_length_b	31.640172
_cell_length_c	19.851628
_cell_angle_alpha	89.999210
_cell_angle_beta	59.985521
_cell_angle_gamma	59.998920
loop_
_atom_site_label
_atom_site_type_symbol
_atom_site_fract_x
_atom_site_fract_y
_atom_site_fract_z
Zr1	Zr	0.462625	0.407164	-0.088446
O2	O	0.550824	0.339672	-0.196051
O3	O	0.374437	0.427856	-0.055442
O4	O	0.462630	0.427855	-0.196008
O5	O	0.462623	0.339672	0.055377
O6	O	0.462622	0.497412	-0.195993
O7	O	0.462631	0.339674	-0.055485
O8	O	0.304860	0.497415	0.055453
O9	O	0.620384	0.339670	-0.196070
O10	O	0.410699	0.488588	-0.041376
O11	O	0.410700	0.436677	0.041348
O12	O	0.514536	0.436675	-0.124150
O13	O	0.514536	0.384764	-0.041426
Zr14	Zr	0.462598	0.518097	0.088390
Zr15	Zr	0.462611	0.518100	-0.088422
Zr16	Zr	0.462612	0.407161	0.088366
Zr17	Zr	0.573565	0.407159	-0.088476
Zr18	Zr	0.351658	0.518101	0.088420
O19	O	0.550786	0.497404	0.055386
O20	O	0.550804	0.497408	-0.196017
O21	O	0.550806	0.339668	0.055353
O22	O	0.374399	0.585588	0.195995
O23	O	0.374417	0.585592	-0.055409
O24	O	0.374419	0.427852	0.195961
O25	O	0.462600	0.585589	-0.055433
O26	O	0.462593	0.497406	0.195952
O27	O	0.462601	0.427849	0.195937
O28	O	0.462592	0.585587	0.055429
O29	O	0.620373	0.427848	-0.196051
O30	O	0.304850	0.497412	0.195995
O31	O	0.304839	0.585591	0.196014
O32	O	0.304849	0.585593	0.055472
O33	O	0.620374	0.339667	-0.055528
O34	O	0.620363	0.427846	-0.055510
O35	O	0.410687	0.488585	0.124094
O36	O	0.410687	0.540496	0.041370
O37	O	0.514523	0.488584	-0.041404
O38	O	0.514524	0.436673	0.041320
C39	C	0.323842	0.462636	0.000010
C40	C	0.276745	0.462638	0.000023
C41	C	0.023080	0.424311	-0.061136
C42	C	-0.153901	0.424307	-0.061159
O43	O	-0.144187	0.391730	-0.113139
N44	N	-0.214362	0.462627	-0.000065
C45	C	-0.230579	0.500952	0.061035
O46	O	-0.286066	0.533548	0.112994
C47	C	-0.053598	0.500958	0.061054
C48	C	0.006864	0.462633	-0.000039
C49	C	0.083539	0.385990	-0.122225
C50	C	0.127781	0.385989	-0.122216
C51	C	0.111565	0.424311	-0.061119
C52	C	0.051106	0.462633	-0.000030
C53	C	-0.069814	0.539285	0.122151
C54	C	-0.025563	0.539284	0.122149
C55	C	0.034899	0.500959	0.061056
C56	C	0.079132	0.500954	0.061076
N57	N	0.139593	0.462634	-0.000017
C58	C	0.155810	0.424313	-0.061115
C59	C	-0.323493	0.500946	0.061022
C60	C	-0.367738	0.500944	0.061019
C61	C	-0.291058	0.424300	-0.061177
C62	C	-0.246812	0.424300	-0.061169
C63	C	-0.263032	0.462626	-0.000072
C64	C	0.248719	0.424315	-0.061091
C65	C	0.292961	0.424317	-0.061075
C66	C	0.216277	0.500963	0.061118
C67	C	0.172038	0.500959	0.061105
C68	C	0.188263	0.462633	-0.000007
O69	O	0.069462	0.533517	0.113024
O70	O	0.211300	0.391728	-0.113076
C71	C	-0.021162	0.424312	-0.061145
C72	C	-0.081621	0.462633	-0.000057
C73	C	-0.097837	0.500955	0.061041
C74	C	-0.125866	0.462631	-0.000060
C75	C	-0.109649	0.424310	-0.061158
C76	C	-0.049188	0.385990	-0.122252
C77	C	-0.004946	0.385990	-0.122243
C78	C	-0.158298	0.539274	0.122134
C79	C	-0.202538	0.539271	0.122121
C80	C	-0.186321	0.500950	0.061024
C81	C	0.462629	0.323867	-0.000058
C82	C	0.462635	0.276772	-0.000068
C83	C	0.408404	0.011864	0.043196
C84	C	0.408394	-0.165121	0.043212
O85	O	0.362297	-0.164961	0.079989
N86	N	0.462595	-0.214349	0.000004
C87	C	0.516803	-0.219329	-0.043207
O88	O	0.562904	-0.265261	-0.079951
C89	C	0.516812	-0.042345	-0.043218
C90	C	0.462608	0.006882	-0.000014
C91	C	0.354204	0.061089	0.086398
C92	C	0.354207	0.105332	0.086389
C93	C	0.408411	0.100351	0.043180
C94	C	0.462611	0.051126	-0.000022
C95	C	0.571019	-0.047326	-0.086424
C96	C	0.571017	-0.003074	-0.086421
C97	C	0.516812	0.046153	-0.043217
C98	C	0.516817	0.090387	-0.043240
N99	N	0.462616	0.139615	-0.000032
C100	C	0.408413	0.144597	0.043178
C101	C	0.516794	-0.312247	-0.043200
C102	C	0.516791	-0.356493	-0.043198
C103	C	0.408383	-0.302282	0.043223
C104	C	0.408385	-0.258035	0.043216
C105	C	0.462593	-0.263019	0.000009
C106	C	0.408424	0.237509	0.043157
C107	C	0.408432	0.281754	0.043142
C108	C	0.516840	0.227539	-0.043275
C109	C	0.516833	0.183297	-0.043264
C110	C	0.462619	0.188286	-0.000042
O111	O	0.562890	0.090267	-0.079990
O112	O	0.362319	0.190533	0.079932
C113	C	0.408401	-0.032379	0.043204
C114	C	0.462601	-0.081604	0.000002
C115	C	0.516805	-0.086586	-0.043207
C116	C	0.462599	-0.125850	0.000004
C117	C	0.408396	-0.120869	0.043214
C118	C	0.354195	-0.071641	0.086422
C119	C	0.354198	-0.027398	0.086414
C120	C	0.571006	-0.135813	-0.086416
C121	C	0.570998	-0.180055	-0.086405
C122	C	0.516795	-0.175073	-0.043195
C123	C	0.601381	0.462625	-0.000066
C124	C	0.648478	0.462623	-0.000079
C125	C	0.462628	0.462634	-0.221193
C126	C	0.462633	0.462635	-0.296254
C127	C	0.462594	0.601394	0.000001
C128	C	0.462588	0.648489	0.000011
C129	C	0.519236	0.434323	-0.522731
C130	C	0.490931	0.483131	-0.545077
C131	C	0.462618	0.462633	-0.433661
C132	C	0.490927	0.413828	-0.545055
C133	C	0.462607	0.462627	-0.566393
C134	C	0.434313	0.511470	-0.455018
C135	C	0.434316	0.442132	-0.454999
C136	C	0.405970	0.490970	-0.477292
C137	C	0.462626	0.462636	-0.357198
C138	C	0.462595	0.462630	-0.642850
C139	C	0.462595	0.462627	0.221136
C140	C	0.462590	0.462626	0.296198
C141	C	0.323825	0.601400	0.000039
C142	C	0.276722	0.648496	0.000062
C143	C	0.323826	0.462633	0.221174
C144	C	0.276723	0.462633	0.296248
C145	C	0.323808	0.601396	0.221204
C146	C	0.276700	0.648492	0.296288
C147	C	0.601415	0.323865	-0.221260
C148	C	0.648523	0.276769	-0.296344
C149	C	0.601398	0.323861	-0.000096
C150	C	0.648501	0.276764	-0.000118
C151	C	0.601397	0.462628	-0.221231
C152	C	0.648500	0.462627	-0.296305
C153	C	0.254608	0.643518	-0.043127
C154	C	0.210356	0.687766	-0.043122
C155	C	0.188215	0.736993	0.000077
C156	C	0.210333	0.741970	0.043268
C157	C	0.254587	0.697722	0.043258
C158	C	0.254597	0.489729	0.374704
C159	C	0.210345	0.489728	0.445251
C160	C	0.188218	0.462634	0.437340
C161	C	0.210349	0.435534	0.358877
C162	C	0.254602	0.435533	0.288331
C163	C	0.254577	0.697710	0.288367
C164	C	0.210320	0.741966	0.358910
C165	C	0.188183	0.737002	0.437373
C166	C	0.210310	0.687779	0.445292
C167	C	0.254570	0.643524	0.374750
C168	C	0.670651	0.227551	-0.288423
C169	C	0.714923	0.183295	-0.358966
C170	C	0.737061	0.188259	-0.437429
C171	C	0.714931	0.237482	-0.445348
C172	C	0.670664	0.281737	-0.374806
C173	C	0.670619	0.281743	0.043063
C174	C	0.714884	0.237494	0.043039
C175	C	0.737026	0.188268	-0.000163
C176	C	0.714906	0.183291	-0.043350
C177	C	0.670646	0.227539	-0.043330
C178	C	0.670613	0.489727	-0.288368
C179	C	0.714865	0.489736	-0.358901
C180	C	0.737006	0.462643	-0.437371
C181	C	0.714888	0.435542	-0.445306
C182	C	0.670634	0.435536	-0.374773
H183	H	0.261938	0.393107	-0.110855
O184	O	0.736308	0.409291	-0.521517
C185	C	0.689090	0.429200	-0.530553
H186	H	0.651458	0.470500	-0.485872
H187	H	0.671649	0.404065	-0.516567
C188	C	0.758129	0.378385	-0.674553
C189	C	0.711910	0.429112	-0.619679
H190	H	0.772205	0.378329	-0.729530
H191	H	0.789940	0.364970	-0.668464
H192	H	0.743588	0.357444	-0.662887
H193	H	0.726453	0.450050	-0.631338
H194	H	0.680102	0.442531	-0.625771
O195	O	0.188796	0.682893	0.521467
C196	C	0.163180	0.655614	0.530529
H197	H	0.183180	0.631184	0.467036
H198	H	0.112774	0.684281	0.564247
C199	C	0.151710	0.650097	0.658630
C200	C	0.176277	0.620089	0.580647
H201	H	0.159786	0.628185	0.689548
H202	H	0.168966	0.668478	0.652527
H203	H	0.109707	0.673985	0.686719
H204	H	0.218281	0.596206	0.552556
H205	H	0.159029	0.601704	0.586746
O206	O	0.276146	0.595703	0.382409
C207	C	0.338163	0.568467	0.344163
H208	H	0.350286	0.597169	0.340895
H209	H	0.363475	0.542202	0.279104
C210	C	0.340446	0.500169	0.398701
C211	C	0.355335	0.535422	0.394693
H212	H	0.351040	0.479783	0.429867
H213	H	0.298665	0.518517	0.424465
H214	H	0.361541	0.478287	0.344481
H215	H	0.334235	0.557307	0.448911
H216	H	0.397114	0.517076	0.368939
H217	H	0.192299	0.782056	0.078439
H218	H	0.652638	0.223478	-0.078492
O219	O	0.649062	0.516005	-0.212086
C220	C	0.605247	0.510206	-0.151522
H221	H	0.612523	0.473606	-0.179011
H222	H	0.558955	0.545215	-0.129445
C223	C	0.601153	0.550974	-0.044291
C224	C	0.610093	0.506018	-0.078052
H225	H	0.604140	0.548393	0.001030
H226	H	0.630671	0.554883	-0.085094
H227	H	0.562577	0.580143	-0.025900
H228	H	0.648671	0.476851	-0.096452
H229	H	0.580582	0.502105	-0.037251
O230	O	0.649034	0.329596	0.085016
C231	C	0.605235	0.367591	0.075766
H232	H	0.585879	0.350351	0.059873
H233	H	0.626406	0.381430	0.024052
C234	C	0.578715	0.434863	0.176505
C235	C	0.554937	0.413689	0.156993
H236	H	0.547690	0.463300	0.226608
H237	H	0.608224	0.409266	0.182736
H238	H	0.596357	0.446391	0.133404
H239	H	0.537303	0.402156	0.200089
H240	H	0.525424	0.439286	0.150772
O241	O	0.275977	0.702654	0.085295
C242	C	0.246950	0.755592	0.123407
H243	H	0.202099	0.779184	0.131954
H244	H	0.275973	0.768630	0.082932
C245	C	0.291709	0.734961	0.197669
C246	C	0.236620	0.763937	0.208173
H247	H	0.285339	0.740109	0.249955
H248	H	0.311267	0.699296	0.171990
H249	H	0.315889	0.745829	0.163937
H250	H	0.212444	0.753065	0.241896
H251	H	0.217058	0.799601	0.233860
O252	O	0.405884	0.421347	-0.408788
C253	C	0.435892	0.369872	-0.455562
H254	H	0.484203	0.354023	-0.506700
H255	H	0.412656	0.368841	-0.484006
C256	C	0.375463	0.355912	-0.336349
C257	C	0.434801	0.336444	-0.399152
H258	H	0.374788	0.335292	-0.301553
H259	H	0.355245	0.390592	-0.304836
H260	H	0.356106	0.355052	-0.360061
H261	H	0.454154	0.337310	-0.375439
H262	H	0.455023	0.301763	-0.430660
O263	O	0.188816	0.682897	-0.084965
C264	C	0.163233	0.655592	-0.053205
H265	H	0.149938	0.659295	0.012632
H266	H	0.197161	0.613006	-0.093256
C267	C	0.123744	0.673738	-0.134208
C268	C	0.107410	0.678291	-0.053343
H269	H	0.089311	0.687738	-0.134296
H270	H	0.140982	0.692133	-0.155608
H271	H	0.152018	0.638249	-0.167575
H272	H	0.079143	0.713779	-0.019980
H273	H	0.090167	0.659902	-0.031937
H274	H	0.652628	0.223499	-0.224542
H275	H	0.732933	0.143219	-0.352502
O276	O	0.519568	0.364564	-0.591339
C277	C	0.579252	0.334865	-0.616078
H278	H	0.582839	0.353364	-0.571660
H279	H	0.609470	0.333284	-0.681082
C280	C	0.594376	0.256850	-0.669846
C281	C	0.598781	0.279569	-0.615288
H282	H	0.606424	0.222740	-0.669363
H283	H	0.554166	0.276859	-0.653183
H284	H	0.619557	0.255537	-0.724011
H285	H	0.573594	0.280887	-0.561123
H286	H	0.638987	0.259559	-0.631942
H287	H	0.272608	0.511793	0.381161
H288	H	0.192331	0.511797	0.509132
O289	O	0.780041	0.145214	-0.505865
C290	C	0.794830	0.100710	-0.482038
H291	H	0.756007	0.110877	-0.416924
H292	H	0.836409	0.085811	-0.483328
C293	C	0.854942	0.046002	-0.622201
C294	C	0.807257	0.058488	-0.542229
H295	H	0.862611	0.019956	-0.659331
H296	H	0.844981	0.075984	-0.638255
H297	H	0.889586	0.033589	-0.623265
H298	H	0.772613	0.070907	-0.541164
H299	H	0.817213	0.028507	-0.526176
O300	O	0.780076	0.145328	-0.000203
C301	C	0.831271	0.145410	-0.034570
H302	H	0.817895	0.186735	-0.028697
H303	H	0.864634	0.120422	-0.102516
C304	C	0.876622	0.072677	0.004526
C305	C	0.860193	0.123433	0.011746
H306	H	0.894464	0.059118	0.033093
H307	H	0.842132	0.072619	0.027678
H308	H	0.904422	0.051860	-0.052097
H309	H	0.832388	0.144250	0.068367
H310	H	0.894679	0.123493	-0.011395
H311	H	0.152183	0.462639	0.494789
O312	O	0.113285	0.538198	0.120348
C313	C	0.085408	0.566250	0.082977
H314	H	0.112065	0.541562	0.016252
H315	H	0.083550	0.603186	0.084400
C316	C	-0.011285	0.610668	0.212317
C317	C	0.021453	0.580344	0.130366
H318	H	-0.050736	0.619364	0.241551
H319	H	0.007496	0.591771	0.237496
H320	H	-0.012827	0.641444	0.213492
H321	H	0.023001	0.549565	0.129192
H322	H	0.002671	0.599237	0.105188
O323	O	0.145205	0.779919	0.000033
C324	C	0.130448	0.764963	-0.047369
H325	H	0.142653	0.724116	-0.050620
H326	H	0.156330	0.765764	-0.112363
C327	C	0.047889	0.852889	-0.002966
C328	C	0.062875	0.802722	-0.006953
H329	H	0.006208	0.876181	0.021962
H330	H	0.057832	0.862966	0.028967
H331	H	0.069462	0.853550	-0.057131
H332	H	0.041308	0.802060	0.047212
H333	H	0.052927	0.792645	-0.038876
H334	H	0.192326	0.413475	0.352448
H335	H	0.272612	0.413470	0.224452
O336	O	0.736484	0.242207	-0.521631
C337	C	0.780307	0.192589	-0.582185
H338	H	0.773038	0.163265	-0.554685
H339	H	0.826595	0.181316	-0.604262
C340	C	0.784396	0.229247	-0.689431
C341	C	0.775465	0.193231	-0.655657
H342	H	0.781412	0.229643	-0.734755
H343	H	0.754873	0.262676	-0.648636
H344	H	0.822969	0.219848	-0.707822
H345	H	0.736890	0.202634	-0.637258
H346	H	0.804982	0.159804	-0.696452
O347	O	0.649213	0.329508	-0.382654
C348	C	0.678259	0.324392	-0.467035
H349	H	0.696507	0.284899	-0.504649
H350	H	0.716691	0.328021	-0.487824
C351	C	0.611009	0.415758	-0.434121
C352	C	0.633417	0.367253	-0.480317
H353	H	0.583350	0.442197	-0.442315
H354	H	0.591441	0.419205	-0.377271
H355	H	0.643040	0.418774	-0.451450
H356	H	0.601387	0.364234	-0.462981
H357	H	0.652979	0.363806	-0.537165
O358	O	0.519513	0.503809	-0.591307
C359	C	0.540014	0.517908	-0.552837
H360	H	0.544874	0.494411	-0.510448
H361	H	0.506528	0.560910	-0.515060
C362	C	0.595109	0.535818	-0.671167
C363	C	0.601083	0.506956	-0.619110
H364	H	0.632778	0.529065	-0.712047
H365	H	0.581296	0.526322	-0.697085
H366	H	0.567202	0.571651	-0.639678
H367	H	0.628984	0.471124	-0.650599
H368	H	0.614903	0.516446	-0.593200
O369	O	0.145243	0.780033	0.505831
C370	C	0.166878	0.809669	0.505699
H371	H	0.204533	0.799977	0.439823
H372	H	0.184512	0.800399	0.545517
C373	C	0.069578	0.879560	0.621662
C374	C	0.115822	0.867659	0.540752
H375	H	0.038084	0.915331	0.643287
H376	H	0.055002	0.859593	0.621754
H377	H	0.084280	0.871831	0.654834
H378	H	0.101122	0.875381	0.507579
H379	H	0.130394	0.887628	0.540655
O380	O	0.736277	0.242428	0.085072
C381	C	0.707244	0.295366	0.123197
H382	H	0.662389	0.318956	0.131755
H383	H	0.736258	0.308412	0.082725
C384	C	0.752017	0.274730	0.197439
C385	C	0.696924	0.303703	0.207957
H386	H	0.745654	0.279873	0.249722
H387	H	0.771580	0.239065	0.171752
H388	H	0.776191	0.285605	0.163710
H389	H	0.672755	0.292824	0.241677
H390	H	0.677357	0.339367	0.233653
O391	O	0.276057	0.595692	-0.084966
C392	C	0.265255	0.568466	-0.029533
H393	H	0.226460	0.597177	0.035551
H394	H	0.307026	0.542208	-0.031062
C395	C	0.297085	0.500151	-0.134771
C396	C	0.249432	0.535414	-0.054835
H397	H	0.287328	0.479761	-0.150380
H398	H	0.304365	0.518492	-0.172119
H399	H	0.331890	0.478274	-0.136035
H400	H	0.214631	0.557294	-0.053574
H401	H	0.242146	0.517076	-0.017487
O402	O	0.200502	0.538144	0.120566
C403	C	0.166348	0.535728	0.198767
H404	H	0.176606	0.495313	0.191704
H405	H	0.116763	0.565448	0.227586
C406	C	0.169568	0.597172	0.263477
C407	C	0.182171	0.547533	0.254802
H408	H	0.179325	0.604456	0.298044
H409	H	0.192576	0.598802	0.210792
H410	H	0.128247	0.621933	0.287490
H411	H	0.223492	0.522773	0.230781
H412	H	0.159170	0.545899	0.307485
O413	O	0.736463	0.135432	-0.085238
C414	C	0.780278	0.097451	-0.076001
H415	H	0.773000	0.114708	-0.017669
H416	H	0.826570	0.083607	-0.131817
C417	C	0.784377	0.030160	-0.140953
C418	C	0.775435	0.051353	-0.069305
H419	H	0.781392	0.001723	-0.136826
H420	H	0.754859	0.055747	-0.147179
H421	H	0.822953	0.018627	-0.187459
H422	H	0.736857	0.062891	-0.022801
H423	H	0.804946	0.025766	-0.063071
O424	O	0.649092	0.409234	-0.382343
C425	C	0.605305	0.415012	-0.303270
H426	H	0.585911	0.451620	-0.256495
H427	H	0.626500	0.380006	-0.285320
C428	C	0.578865	0.374196	-0.361776
C429	C	0.555040	0.419161	-0.304328
H430	H	0.547860	0.376753	-0.362429
H431	H	0.608366	0.370301	-0.415050
H432	H	0.596526	0.345029	-0.346811
H433	H	0.537386	0.448326	-0.319299
H434	H	0.525534	0.423060	-0.251057
O435	O	0.736303	0.516066	-0.351035
C436	C	0.707264	0.539980	-0.266649
H437	H	0.689033	0.518720	-0.229054
H438	H	0.668821	0.582040	-0.245836
C439	C	0.774493	0.564117	-0.299548
C440	C	0.752106	0.538002	-0.253373
H441	H	0.802152	0.562899	-0.291357
H442	H	0.794056	0.548008	-0.356400
H443	H	0.742452	0.599165	-0.282198
H444	H	0.784146	0.502954	-0.270729
H445	H	0.732549	0.554105	-0.196523
O446	O	0.780015	0.462684	-0.505797
C447	C	0.794770	0.492425	-0.481955
H448	H	0.782568	0.494456	-0.416850
H449	H	0.768886	0.533201	-0.483214
C450	C	0.877326	0.464594	-0.622119
C451	C	0.862343	0.467084	-0.542158
H452	H	0.919007	0.448965	-0.659256
H453	H	0.867384	0.444559	-0.638183
H454	H	0.855751	0.498576	-0.623156
H455	H	0.883912	0.433103	-0.541119
H456	H	0.872290	0.487114	-0.526095
H457	H	0.342193	0.393104	-0.110823
H458	H	0.096753	0.354783	-0.171982
O459	O	0.186502	0.348805	-0.181673
C460	C	0.198998	0.351238	-0.259861
H461	H	0.164404	0.391659	-0.252776
H462	H	0.197208	0.321529	-0.288676
C463	C	0.304287	0.289780	-0.324619
C464	C	0.261800	0.339427	-0.315917
H465	H	0.343027	0.282493	-0.359199
H466	H	0.295868	0.288139	-0.271943
H467	H	0.302787	0.265028	-0.348628
H468	H	0.263295	0.364178	-0.291899
H469	H	0.270221	0.341072	-0.368591
O470	O	-0.188110	0.387049	-0.120599
C471	C	-0.183293	0.353219	-0.174508
H472	H	-0.226074	0.373866	-0.171589
H473	H	-0.176214	0.317588	-0.155288
C474	C	-0.077261	0.311148	-0.266883
C475	C	-0.129803	0.336509	-0.263304
H476	H	-0.044265	0.300838	-0.321657
H477	H	-0.080505	0.333938	-0.230563
H478	H	-0.071370	0.281459	-0.250863
H479	H	-0.135698	0.366201	-0.279314
H480	H	-0.126559	0.313723	-0.299629
H481	H	-0.277860	0.393097	-0.110926
H482	H	-0.416966	0.532148	0.110774
H483	H	0.272594	0.701761	0.224485
H484	H	-0.336710	0.532158	0.110778
H485	H	0.192308	0.782042	0.352447
O486	O	-0.128520	0.576505	0.181600
C487	C	-0.141042	0.574073	0.259798
H488	H	-0.098015	0.554584	0.256104
H489	H	-0.160647	0.550744	0.280071
C490	C	-0.239203	0.653190	0.327358
C491	C	-0.186358	0.629258	0.322823
H492	H	-0.267158	0.687230	0.366236
H493	H	-0.230768	0.654829	0.274674
H494	H	-0.255533	0.633744	0.344249
H495	H	-0.170025	0.648700	0.305921
H496	H	-0.194791	0.627624	0.375505
O497	O	0.053775	0.348805	-0.181696
C498	C	0.066278	0.351233	-0.259888
H499	H	0.031687	0.391653	-0.252810
H500	H	0.064489	0.321523	-0.288703
C501	C	0.171565	0.289774	-0.324632
C502	C	0.129082	0.339420	-0.315939
H503	H	0.210306	0.282485	-0.359209
H504	H	0.163142	0.288136	-0.271953
H505	H	0.170066	0.265021	-0.348642
H506	H	0.130575	0.364172	-0.291921
H507	H	0.137507	0.341062	-0.368616
O508	O	-0.261243	0.576554	0.181512
C509	C	-0.266059	0.610367	0.235446
H510	H	-0.223274	0.608536	0.202538
H511	H	-0.273152	0.598305	0.292240
C512	C	-0.372087	0.668320	0.302510
C513	C	-0.319538	0.666074	0.262090
H514	H	-0.405077	0.702682	0.318949
H515	H	-0.368843	0.645538	0.266176
H516	H	-0.377989	0.658265	0.349833
H517	H	-0.313633	0.676122	0.214762
H518	H	-0.322783	0.688858	0.298416
O519	O	0.355721	0.329535	0.085188
C520	C	0.307881	0.324439	0.123312
H521	H	0.323771	0.284954	0.131859
H522	H	0.291218	0.328063	0.082846
C523	C	0.237151	0.415812	0.197576
C524	C	0.256667	0.367317	0.208080
H525	H	0.205558	0.442262	0.249863
H526	H	0.269381	0.419246	0.171889
H527	H	0.223269	0.418825	0.163852
H528	H	0.270555	0.364303	0.241795
H529	H	0.224437	0.363884	0.233775
O530	O	0.355800	0.242293	0.085019
C531	C	0.352549	0.218331	0.029578
H532	H	0.399611	0.188163	-0.027278
H533	H	0.325811	0.248757	0.010258
C534	C	0.263741	0.228863	0.141754
C535	C	0.321544	0.191806	0.071925
H536	H	0.244614	0.212503	0.167875
H537	H	0.265930	0.245008	0.179106
H538	H	0.241468	0.254214	0.125643
H539	H	0.343818	0.166460	0.088037
H540	H	0.319358	0.175656	0.034576
O541	O	-0.033398	0.348694	-0.181538
C542	C	0.000744	0.299638	-0.177682
H543	H	-0.009534	0.304071	-0.113254
H544	H	0.050333	0.281566	-0.225044
C545	C	-0.002438	0.259030	-0.275656
C546	C	-0.015066	0.264474	-0.196522
H547	H	-0.012188	0.237338	-0.287281
H548	H	-0.025439	0.292079	-0.278257
H549	H	0.038885	0.243972	-0.315116
H550	H	-0.056390	0.279538	-0.157064
H551	H	0.007928	0.231426	-0.193916
H552	H	0.310063	0.065154	0.121588
O553	O	0.355770	-0.210190	0.085249
C554	C	0.352513	-0.182978	0.145882
H555	H	0.399573	-0.199878	0.127713
H556	H	0.325764	-0.186659	0.207836
C557	C	0.263721	-0.104695	0.175281
C558	C	0.321521	-0.125449	0.152962
H559	H	0.244602	-0.069208	0.179652
H560	H	0.265914	-0.123029	0.134434
H561	H	0.241438	-0.107768	0.226907
H562	H	0.343806	-0.122383	0.101332
H563	H	0.319332	-0.107114	0.193801
O564	O	0.569508	-0.317186	-0.085253
C565	C	0.617340	-0.370125	-0.123369
H566	H	0.601440	-0.393713	-0.131903
H567	H	0.634004	-0.383165	-0.082905
C568	C	0.688084	-0.349501	-0.197658
C569	C	0.668557	-0.378472	-0.208145
H570	H	0.719679	-0.354651	-0.249950
H571	H	0.655860	-0.313835	-0.171976
H572	H	0.701968	-0.360371	-0.163934
H573	H	0.654667	-0.367597	-0.241859
H574	H	0.700780	-0.414137	-0.233835
O575	O	0.355782	-0.297538	0.085190
C576	C	0.367410	-0.347149	0.075905
H577	H	0.413997	-0.376482	0.059970
H578	H	0.364838	-0.358421	0.024207
C579	C	0.263439	-0.310465	0.176696
C580	C	0.320655	-0.346491	0.157131
H581	H	0.234597	-0.310059	0.226798
H582	H	0.255604	-0.277041	0.182950
H583	H	0.261304	-0.319863	0.133608
H584	H	0.322792	-0.337090	0.200214
H585	H	0.328490	-0.379914	0.150887
O586	O	0.623728	-0.095100	-0.128396
C587	C	0.671562	-0.089996	-0.166537
H588	H	0.655657	-0.050502	-0.132660
H589	H	0.688244	-0.093634	-0.233581
C590	C	0.742297	-0.181362	-0.205005
C591	C	0.722764	-0.132857	-0.163391
H592	H	0.773883	-0.207802	-0.203068
H593	H	0.710071	-0.184801	-0.179312
H594	H	0.756195	-0.184386	-0.260871
H595	H	0.708861	-0.129831	-0.107524
H596	H	0.754989	-0.129418	-0.189075
H597	H	-0.038777	0.570495	0.171903
H598	H	0.560930	-0.396573	-0.078391
O599	O	0.623711	-0.227835	-0.128391
C600	C	0.671548	-0.222736	-0.166543
H601	H	0.655651	-0.183245	-0.132668
H602	H	0.688223	-0.226371	-0.233585
C603	C	0.742279	-0.314104	-0.205021
C604	C	0.722755	-0.265603	-0.163410
H605	H	0.773867	-0.340547	-0.203092
H606	H	0.710051	-0.317540	-0.179320
H607	H	0.756170	-0.317126	-0.260885
H608	H	0.708857	-0.262579	-0.107545
H609	H	0.754982	-0.262167	-0.189102
O610	O	0.623660	-0.007891	-0.128265
C611	C	0.626895	0.016096	-0.072829
H612	H	0.596129	0.018149	-0.007747
H613	H	0.612340	0.056908	-0.074349
C614	C	0.729437	-0.018129	-0.178069
C615	C	0.691654	-0.015611	-0.098136
H616	H	0.769383	-0.037685	-0.193681
H617	H	0.727258	-0.034287	-0.215419
H618	H	0.717300	0.015884	-0.179326
H619	H	0.703786	-0.049623	-0.096882
H620	H	0.693837	0.000541	-0.060786
O621	O	0.569544	0.222613	-0.085315
C622	C	0.617389	0.169678	-0.123431
H623	H	0.601508	0.146077	-0.131985
H624	H	0.634044	0.156645	-0.082954
C625	C	0.688113	0.190329	-0.197679
C626	C	0.668608	0.161342	-0.208193
H627	H	0.719708	0.185186	-0.249963
H628	H	0.655879	0.225992	-0.171998
H629	H	0.701988	0.179464	-0.163946
H630	H	0.654727	0.172211	-0.241917
H631	H	0.700841	0.125680	-0.233882
O632	O	0.301489	0.020380	0.128460
C633	C	0.253654	0.015278	0.166578
H634	H	0.269550	-0.024210	0.175118
H635	H	0.236992	0.018902	0.126111
C636	C	0.182915	0.106649	0.240854
C637	C	0.202437	0.058152	0.251350
H638	H	0.151321	0.133096	0.293144
H639	H	0.215142	0.110087	0.215171
H640	H	0.169034	0.109662	0.207129
H641	H	0.216325	0.055137	0.285066
H642	H	0.170211	0.054714	0.277041
O643	O	0.405716	0.560718	-0.408722
C644	C	0.356371	0.573014	-0.329834
H645	H	0.363850	0.535831	-0.316164
H646	H	0.314058	0.594989	-0.328088
C647	C	0.340338	0.652658	-0.281276
C648	C	0.349527	0.606989	-0.264483
H649	H	0.336114	0.673617	-0.240964
H650	H	0.373581	0.644375	-0.334424
H651	H	0.305078	0.670964	-0.279822
H652	H	0.384790	0.588680	-0.265948
H653	H	0.316289	0.615269	-0.211333
H654	H	-0.171511	0.570482	0.171887
H655	H	0.310068	0.145412	0.121567
H656	H	0.310060	-0.067592	0.121600
H657	H	0.560970	0.143214	-0.078455
H658	H	0.567109	0.410424	-0.541200
H659	H	0.358057	0.514942	-0.458667
H660	H	0.615146	-0.139878	-0.121605
