data_functionalizedCrystal
_audit_creation_method	'MofGen! by Chris Wilmer'
_symmetry_space_group_name_H-M	'P1'
_symmetry_Int_Tables_number	1
_symmetry_cell_setting	triclinic
loop_
_symmetry_equiv_pos_as_xyz
  x,y,z
_cell_length_a	10.686220
_cell_length_b	18.050590
_cell_length_c	10.686551
_cell_angle_alpha	85.590282
_cell_angle_beta	90.307919
_cell_angle_gamma	94.400680
loop_
_atom_site_label
_atom_site_type_symbol
_atom_site_fract_x
_atom_site_fract_y
_atom_site_fract_z
Zn1	Zn	1.972267	-0.181054	-0.562371
Zn2	Zn	2.472267	0.318946	-0.062371
Zn3	Zn	1.956022	-0.315474	-0.352596
Zn4	Zn	2.456022	0.184526	0.147404
Zn5	Zn	1.746383	-0.200053	-0.368685
Zn6	Zn	2.246383	0.299947	0.131315
Zn7	Zn	1.762453	-0.313969	-0.578373
Zn8	Zn	2.262453	0.186031	-0.078373
O9	O	1.859281	-0.252637	-0.465506
O10	O	2.359281	0.247363	0.034494
O11	O	2.145655	-0.191564	-0.521113
O12	O	2.645655	0.308436	-0.021113
O13	O	1.914690	-0.308743	-0.179184
O14	O	2.414690	0.191257	0.320816
O15	O	1.776421	-0.093603	-0.394414
O16	O	2.276421	0.406397	0.105586
O17	O	2.133720	-0.290321	-0.366992
O18	O	2.633720	0.209679	0.133008
O19	O	1.942377	-0.079645	-0.536714
O20	O	2.442377	0.420355	-0.036714
O21	O	1.760669	-0.223944	-0.191004
O22	O	2.260669	0.276056	0.308996
O23	O	1.572972	-0.222485	-0.409931
O24	O	2.072972	0.277515	0.090069
O25	O	1.803808	-0.287757	-0.751797
O26	O	2.303808	0.212243	-0.251797
O27	O	1.584778	-0.306179	-0.563988
O28	O	2.084778	0.193821	-0.063988
O29	O	1.957958	-0.190105	-0.740040
O30	O	2.457958	0.309895	-0.240040
O31	O	1.930271	-0.419204	-0.382509
O32	O	2.430271	0.080796	0.117491
O33	O	1.788057	-0.418098	-0.548387
O34	O	2.288057	0.081902	-0.048387
C35	C	1.533359	-0.266231	-0.490443
C36	C	2.033359	0.233769	0.009557
C37	C	1.393930	-0.272063	-0.501140
C38	C	1.893930	0.227937	-0.001140
C39	C	1.859181	-0.445596	-0.465464
C40	C	2.359181	0.054404	0.034536
C41	C	1.859256	-0.528138	-0.465478
C42	C	2.359256	-0.028138	0.034522
C43	C	1.936776	-0.728149	-0.375378
C44	C	2.436776	-0.228149	0.124622
C45	C	1.976212	-0.770625	-0.487524
C46	C	2.476212	-0.270625	0.012476
C47	C	1.859331	-0.679263	-0.465523
C48	C	2.359331	-0.179263	0.034477
C49	C	1.820027	-0.783861	-0.353418
C50	C	2.320027	-0.283861	0.146582
C51	C	1.859405	-0.825243	-0.465556
C52	C	2.359405	-0.325243	0.034444
C53	C	1.898831	-0.720646	-0.577725
C54	C	2.398831	-0.220646	-0.077725
C55	C	1.742586	-0.733883	-0.443546
C56	C	2.242586	-0.233883	0.056454
C57	C	1.781985	-0.776334	-0.555775
C58	C	2.281985	-0.276334	-0.055775
C59	C	1.859292	-0.595167	-0.465502
C60	C	2.359292	-0.095167	0.034498
C61	C	1.859446	-0.909336	-0.465590
C62	C	2.359446	-0.409336	0.034410
C63	C	2.186476	-0.238991	-0.440473
C64	C	2.686476	0.261009	0.059527
C65	C	2.325907	-0.233176	-0.429805
C66	C	2.825907	0.266824	0.070195
C67	C	1.884488	-0.236644	-0.792708
C68	C	2.384488	0.263356	-0.292708
C69	C	1.895229	-0.229829	-0.932142
C70	C	2.395229	0.270171	-0.432142
C71	C	1.859418	-0.058923	-0.465574
C72	C	2.359418	0.441077	0.034426
C73	C	1.859477	0.023627	-0.465603
C74	C	2.359477	0.523627	0.034397
C75	C	1.834245	-0.268512	-0.139571
C76	C	2.334245	0.231488	0.360429
C77	C	1.823747	-0.275108	-0.000119
C78	C	2.323747	0.224892	0.499881
H79	H	2.002298	-0.706964	-0.299216
H80	H	2.502298	-0.206964	0.200784
H81	H	1.716531	-0.797371	-0.632103
H82	H	2.216531	-0.297371	-0.132103
H83	H	1.643850	-0.717520	-0.424898
H84	H	2.143850	-0.217520	0.075102
H85	H	1.345500	-0.309818	-0.570396
H86	H	1.845500	0.190182	-0.070396
H87	H	1.374343	-0.195424	-0.360537
H88	H	1.874343	0.304576	0.139463
H89	H	2.074973	-0.786973	-0.506136
H90	H	2.574973	-0.286973	-0.006136
H91	H	1.786754	-0.811399	-0.258599
H92	H	2.286754	-0.311399	0.241401
H93	H	1.754333	-0.319090	-0.951646
H94	H	2.254333	0.180910	-0.451646
H95	H	1.964657	-0.185849	-0.980621
H96	H	2.464657	0.314151	-0.480621
H97	H	1.932014	-0.693199	-0.672635
H98	H	2.432014	-0.193199	-0.172635
