data_functionalizedCrystal
_audit_creation_method	'MofGen! by Chris Wilmer'
_symmetry_space_group_name_H-M	'P1'
_symmetry_Int_Tables_number	1
_symmetry_cell_setting	triclinic
loop_
_symmetry_equiv_pos_as_xyz
  x,y,z
_cell_length_a	6.817900
_cell_length_b	12.200875
_cell_length_c	12.200863
_cell_angle_alpha	93.006308
_cell_angle_beta	107.143441
_cell_angle_gamma	107.143593
loop_
_atom_site_label
_atom_site_type_symbol
_atom_site_fract_x
_atom_site_fract_y
_atom_site_fract_z
V1	V	-4.086881	-0.357778	-0.158973
O2	O	-4.054179	-0.350847	0.007371
O3	O	-4.056329	-0.355446	-0.314959
O4	O	-4.056333	-0.513764	-0.156645
O5	O	-4.054175	-0.191433	-0.152038
V6	V	-4.565883	-0.337868	-0.139062
O7	O	-4.358057	-0.401452	-0.202649
O8	O	-4.744905	-0.294193	-0.095387
O9	O	-4.373229	-0.340199	0.016923
O10	O	-4.715983	-0.344798	-0.305407
O11	O	-4.715986	-0.504212	-0.145997
O12	O	-4.373226	-0.181881	-0.141390
C13	C	-3.905095	-0.349832	-0.352981
C14	C	-3.961521	-0.348965	-0.480503
C15	C	-4.064793	-0.347388	-0.713978
C16	C	-4.007317	-0.348266	-0.584056
C17	C	-3.905097	-0.551781	-0.151035
C18	C	-3.961522	-0.679301	-0.150164
C19	C	-4.064787	-0.912775	-0.148571
C20	C	-4.007315	-0.782853	-0.149457
C21	C	-4.187806	-0.345810	0.054940
C22	C	-4.110619	-0.346684	0.182460
C23	C	-4.187803	-0.143858	-0.147004
C24	C	-4.110616	-0.016337	-0.147869
