data_functionalizedCrystal
_audit_creation_method	'MofGen! by Chris Wilmer'
_symmetry_space_group_name_H-M	'P1'
_symmetry_Int_Tables_number	1
_symmetry_cell_setting	triclinic
loop_
_symmetry_equiv_pos_as_xyz
  x,y,z
_cell_length_a	6.817900
_cell_length_b	19.551823
_cell_length_c	17.982968
_cell_angle_alpha	96.138236
_cell_angle_beta	102.451960
_cell_angle_gamma	101.663376
loop_
_atom_site_label
_atom_site_type_symbol
_atom_site_fract_x
_atom_site_fract_y
_atom_site_fract_z
V1	V	-4.006028	-0.097330	-0.237907
O2	O	-4.003194	0.004004	-0.233012
O3	O	-3.948782	-0.192342	-0.236633
O4	O	-3.952647	-0.096129	-0.341506
O5	O	-3.999303	-0.092876	-0.127413
V6	V	-4.491447	-0.085175	-0.224648
O7	O	-4.263126	-0.123995	-0.266992
O8	O	-4.684546	-0.058510	-0.195564
O9	O	-4.325487	0.009837	-0.225923
O10	O	-4.611677	-0.186509	-0.229544
O11	O	-4.615569	-0.089629	-0.335143
O12	O	-4.321622	-0.086376	-0.121050
C13	C	-3.791792	-0.215495	-0.232970
C14	C	-3.826240	-0.293170	-0.232619
C15	C	-4.024006	-0.333225	-0.236264
C16	C	-4.056379	-0.406211	-0.235941
C17	C	-3.890965	-0.439135	-0.231958
C18	C	-3.693173	-0.399071	-0.228317
C19	C	-3.660811	-0.326088	-0.228648
C20	C	-3.780059	-0.545490	-0.183645
C21	C	-3.812426	-0.618470	-0.183311
C22	C	-3.990776	-0.664238	-0.230943
C23	C	-4.136784	-0.637015	-0.278900
C24	C	-4.104421	-0.564033	-0.279231
C25	C	-3.926037	-0.518272	-0.231600
C26	C	-4.223657	-0.783433	-0.234239
C27	C	-4.256025	-0.856420	-0.233921
C28	C	-3.892810	-0.849278	-0.226289
C29	C	-3.860452	-0.776293	-0.226615
C30	C	-4.025881	-0.743375	-0.230586
C31	C	-3.796721	-0.092764	-0.366746
C32	C	-3.834301	-0.092410	-0.451440
C33	C	-4.033551	-0.095746	-0.495124
C34	C	-4.068850	-0.095413	-0.574704
C35	C	-3.904899	-0.091750	-0.610599
C36	C	-3.705632	-0.088412	-0.566908
C37	C	-3.670333	-0.088740	-0.487330
C38	C	-3.847982	-0.087089	-0.887841
C39	C	-3.883298	-0.086763	-0.967426
C40	C	-4.246499	-0.093762	-0.975215
C41	C	-4.211200	-0.094089	-0.895636
C42	C	-4.011936	-0.090748	-0.851952
C43	C	-3.973662	-0.091108	-0.765663
C44	C	-3.943172	-0.091395	-0.696887
C45	C	-4.145818	0.032986	-0.229583
C46	C	-4.090608	0.110660	-0.229939
C47	C	-4.140889	-0.089743	-0.095806
C48	C	-4.082548	-0.090094	-0.011110
H49	H	-3.693544	-0.640629	-0.144256
H50	H	-4.223305	-0.541871	-0.318281
H51	H	-4.408752	-0.096479	-1.010791
H52	H	-4.417076	-0.889034	-0.236894
H53	H	-4.217429	-0.438830	-0.238909
H54	H	-3.572140	-0.085425	-0.596140
O55	O	-3.668184	-0.737477	-0.223027
C56	C	-3.529131	-0.782187	-0.219462
H57	H	-3.592979	-0.831727	-0.196100
H58	H	-3.508303	-0.797801	-0.279693
C59	C	-3.240703	-0.682168	-0.194456
C60	C	-3.319115	-0.743011	-0.165756
H61	H	-3.111151	-0.658002	-0.161331
H62	H	-3.334385	-0.652046	-0.196860
H63	H	-3.223363	-0.695189	-0.244648
H64	H	-3.336477	-0.729989	-0.115569
H65	H	-3.225430	-0.773130	-0.163342
O66	O	-3.723890	-0.083073	-1.002237
C67	C	-3.572753	-0.020203	-0.969853
H68	H	-3.646936	0.020169	-0.942876
H69	H	-3.446251	-0.031957	-0.923621
C70	C	-3.387223	-0.039771	-1.066509
C71	C	-3.478339	0.009817	-1.033380
H72	H	-3.328975	-0.021254	-1.105693
H73	H	-3.489041	-0.082129	-1.088325
H74	H	-3.281817	-0.049562	-1.027974
H75	H	-3.583759	0.019600	-1.071912
H76	H	-3.376535	0.052178	-1.011572
O77	O	-3.476757	-0.085383	-0.444837
C78	C	-3.413463	-0.024549	-0.387999
H79	H	-3.504761	0.016081	-0.406813
H80	H	-3.442754	-0.039489	-0.331124
C81	C	-3.069296	-0.042701	-0.354221
C82	C	-3.181417	0.007204	-0.377331
H83	H	-2.926157	-0.023116	-0.347637
H84	H	-3.111939	-0.083688	-0.392511
H85	H	-3.093728	-0.055148	-0.306827
H86	H	-3.157004	0.019642	-0.424729
H87	H	-3.138764	0.048194	-0.339048
O88	O	-3.654431	-0.083997	-0.845511
C89	C	-3.584752	-0.142622	-0.873221
H90	H	-3.723190	-0.187071	-0.904726
H91	H	-3.484891	-0.126509	-0.914639
C92	C	-3.286495	-0.113789	-0.766285
C93	C	-3.456528	-0.168384	-0.804975
H94	H	-3.207393	-0.129679	-0.724190
H95	H	-3.333434	-0.074290	-0.747618
H96	H	-3.203301	-0.100367	-0.800808
H97	H	-3.539732	-0.181799	-0.770455
H98	H	-3.409600	-0.207885	-0.823635
H99	H	-4.158718	-0.306429	-0.239503
H100	H	-4.281827	-0.674290	-0.317792
H101	H	-4.358359	-0.756630	-0.237471
H102	H	-4.167066	-0.098733	-0.465906
O103	O	-4.262539	-0.098678	-0.617028
C104	C	-4.399665	-0.101962	-0.568278
H105	H	-4.332986	-0.123417	-0.514276
H106	H	-4.422050	-0.046726	-0.551220
C107	C	-4.691184	-0.124829	-0.677345
C108	C	-4.609295	-0.151187	-0.611021
H109	H	-4.820497	-0.155190	-0.703711
H110	H	-4.598800	-0.122614	-0.710189
H111	H	-4.709820	-0.078799	-0.663120
H112	H	-4.590635	-0.197211	-0.625247
H113	H	-4.701680	-0.153411	-0.578181
O114	O	-3.606739	-0.501130	-0.137295
C115	C	-3.484805	-0.540805	-0.094904
H116	H	-3.586412	-0.593642	-0.090965
H117	H	-3.359818	-0.550549	-0.125073
C118	C	-3.258396	-0.434715	-0.018002
C119	C	-3.383196	-0.499608	-0.013158
H120	H	-3.195710	-0.409302	0.032421
H121	H	-3.340540	-0.407985	-0.046563
H122	H	-3.154258	-0.442844	-0.043146
H123	H	-3.487346	-0.491478	0.011977
H124	H	-3.301067	-0.526336	0.015409
H125	H	-3.758129	-0.876084	-0.223051
O126	O	-3.468539	-0.287273	-0.225064
C127	C	-3.329484	-0.331982	-0.221502
H128	H	-3.393331	-0.381524	-0.198143
H129	H	-3.308657	-0.347593	-0.281735
C130	C	-3.041059	-0.231962	-0.196492
C131	C	-3.119468	-0.292807	-0.167796
H132	H	-2.911507	-0.207797	-0.163367
H133	H	-3.134741	-0.201840	-0.198894
H134	H	-3.023720	-0.244980	-0.246686
H135	H	-3.136830	-0.279788	-0.117608
H136	H	-3.025783	-0.322926	-0.165384
H137	H	-4.344711	-0.097076	-0.866415
H138	H	-3.558495	-0.425883	-0.225076
