data_functionalizedCrystal
_audit_creation_method	'MofGen! by Chris Wilmer'
_symmetry_space_group_name_H-M	'P1'
_symmetry_Int_Tables_number	1
_symmetry_cell_setting	triclinic
loop_
_symmetry_equiv_pos_as_xyz
  x,y,z
_cell_length_a	14.519731
_cell_length_b	13.596369
_cell_length_c	14.519709
_cell_angle_alpha	89.998664
_cell_angle_beta	96.315501
_cell_angle_gamma	90.006024
loop_
_atom_site_label
_atom_site_type_symbol
_atom_site_fract_x
_atom_site_fract_y
_atom_site_fract_z
O1	O	1.223858	0.081796	-0.120979
O2	O	0.955384	0.081797	-0.135195
O3	O	1.096739	0.081788	0.006151
O4	O	1.082503	0.081805	-0.262325
O5	O	1.096722	-0.081795	0.006143
O6	O	0.955366	-0.081785	-0.135203
O7	O	1.223841	-0.081787	-0.120986
Zn8	Zn	1.089601	-0.107759	-0.128096
Zn9	Zn	1.089624	0.107769	-0.128085
O10	O	1.082485	-0.081777	-0.262332
C11	C	0.921016	0.000006	-0.134532
C12	C	0.818635	0.000007	-0.132536
C13	C	0.735491	0.000010	-0.130915
C14	C	0.631182	0.000011	-0.128888
C15	C	0.548043	0.000010	-0.127280
C16	C	0.443728	0.000012	-0.125253
N17	N	1.089592	-0.254851	-0.128102
C18	C	1.089596	-0.343848	-0.128104
C19	C	1.089605	-0.455500	-0.128098
C20	C	1.089617	-0.544490	-0.128088
C21	C	1.089628	-0.656149	-0.128082
C22	C	1.258209	0.000006	-0.121649
C23	C	1.360589	0.000012	-0.123645
C24	C	1.096067	-0.000004	0.040507
C25	C	1.094079	-0.000005	0.142889
N26	N	1.089640	0.254861	-0.128072
C27	C	1.083157	0.000016	-0.296688
C28	C	1.085146	0.000023	-0.399070
C29	C	1.086759	0.000021	0.517785
C30	C	1.088792	0.000014	0.413477
C31	C	1.090419	0.000007	0.330340
C32	C	1.092452	0.000002	0.226025
