data_functionalizedCrystal
_audit_creation_method	'MofGen! by Chris Wilmer'
_symmetry_space_group_name_H-M	'P1'
_symmetry_Int_Tables_number	1
_symmetry_cell_setting	triclinic
loop_
_symmetry_equiv_pos_as_xyz
  x,y,z
_cell_length_a	19.288864
_cell_length_b	12.837942
_cell_length_c	18.366186
_cell_angle_alpha	89.994829
_cell_angle_beta	89.977106
_cell_angle_gamma	88.982593
loop_
_atom_site_label
_atom_site_type_symbol
_atom_site_fract_x
_atom_site_fract_y
_atom_site_fract_z
O1	O	0.930180	0.129276	-0.060785
O2	O	0.729110	0.146715	-0.060736
O3	O	0.825187	-0.012886	-0.060755
O4	O	0.834104	0.288877	-0.060766
O5	O	0.825168	-0.012894	0.060345
O6	O	0.729092	0.146707	0.060364
O7	O	0.930162	0.129268	0.060314
Zn8	Zn	0.829624	0.137986	0.079566
Zn9	Zn	0.829648	0.137997	-0.079987
O10	O	0.834085	0.288870	0.060334
C11	C	0.703186	0.146150	-0.000179
C12	C	0.625968	0.144466	-0.000160
C13	C	0.587666	0.238113	-0.000175
C14	C	0.515111	0.236530	-0.000183
C15	C	0.480860	0.141295	-0.000191
C16	C	0.519171	0.047636	-0.000172
C17	C	0.591725	0.049221	-0.000157
C18	C	0.367493	0.066433	-0.042639
C19	C	0.294940	0.064852	-0.042659
C20	C	0.257081	0.136402	-0.000235
C21	C	0.291782	0.209552	0.042200
C22	C	0.364336	0.211137	0.042215
C23	C	0.402188	0.139566	-0.000207
C24	C	0.140106	0.228340	-0.000257
C25	C	0.067550	0.226753	-0.000261
C26	C	0.071611	0.037857	-0.000257
C27	C	0.144166	0.039446	-0.000246
C28	C	0.178409	0.134690	-0.000250
C29	C	0.822165	-0.051497	-0.000205
C30	C	0.813181	-0.166532	-0.000204
C31	C	0.921187	-0.407995	-0.000245
C32	C	0.912748	-0.516081	-0.000245
C33	C	0.787867	-0.490793	-0.000206
C34	C	0.796305	-0.382707	-0.000207
C35	C	0.862967	-0.341312	-0.000226
C36	C	0.871405	-0.233223	-0.000221
C37	C	0.746524	-0.207938	-0.000188
C38	C	0.738086	-0.316024	-0.000187
C39	C	0.956086	0.129833	-0.000243
C40	C	1.033304	0.131518	-0.000267
C41	C	0.837107	0.327480	-0.000218
C42	C	0.846091	0.442515	-0.000224
N43	N	0.829612	0.137979	0.188457
N44	N	0.829665	0.137996	-0.188879
C45	C	0.872172	0.067342	0.226549
C46	C	0.872177	0.067337	0.302777
C47	C	0.829628	0.137987	0.340910
C48	C	0.787059	0.208630	0.302809
C49	C	0.787051	0.208625	0.226583
C50	C	0.826777	0.232410	0.461668
C51	C	0.826790	0.232416	0.537893
C52	C	0.829649	0.138000	0.576018
C53	C	0.832508	0.043575	0.537908
C54	C	0.832500	0.043571	0.461681
C55	C	0.829632	0.137999	0.423565
C56	C	0.872216	0.067352	0.696764
C57	C	0.872215	0.067346	0.772994
C58	C	0.787101	0.208648	0.773024
C59	C	0.787098	0.208645	0.696796
C60	C	0.829659	0.137998	0.658671
H61	H	0.036366	0.303015	-0.000269
C62	C	0.835657	-0.060290	0.579830
H63	H	0.837365	-0.116522	0.546217
H64	H	0.795605	-0.065896	0.609588
H65	H	0.875959	-0.062533	0.609544
C66	C	0.664764	-0.361565	-0.000162
H67	H	0.668076	-0.435488	-0.000160
H68	H	0.640492	-0.338649	-0.042381
H69	H	0.640493	-0.338664	0.042084
C70	C	0.402505	0.291585	0.088895
H71	H	0.369571	0.333969	0.114165
H72	H	0.429929	0.334047	0.058316
H73	H	0.431556	0.256360	0.123019
H74	H	0.699118	-0.153632	-0.000166
H75	H	0.906826	0.009815	0.195510
C76	C	0.033948	-0.066903	-0.000262
H77	H	0.067154	-0.122450	-0.000248
H78	H	0.005750	-0.071449	-0.042495
H79	H	0.005709	-0.071447	0.041970
C80	C	0.918996	-0.010364	0.344687
H81	H	0.944344	-0.052435	0.311064
H82	H	0.891170	-0.053408	0.374444
H83	H	0.950370	0.026821	0.374401
H84	H	0.175352	-0.036812	-0.000238
H85	H	0.834827	-0.033313	0.430655
H86	H	0.752392	0.266147	0.195568
H87	H	0.615542	0.315668	-0.000180
C88	C	0.256775	-0.015611	-0.089331
H89	H	0.289713	-0.058011	-0.114583
H90	H	0.227721	0.019590	-0.123457
H91	H	0.229356	-0.058071	-0.058739
H92	H	0.906869	0.009824	0.665722
H93	H	0.824438	0.309299	0.430634
H94	H	0.906870	0.009820	0.804009
H95	H	0.398312	0.008166	-0.077190
C96	C	0.740296	0.286363	0.654890
H97	H	0.746384	0.276241	0.604031
H98	H	0.752419	0.355495	0.667373
H99	H	0.693206	0.275289	0.667404
H100	H	0.483920	0.312791	-0.000193
C101	C	0.250150	0.288262	0.088871
H102	H	0.281207	0.332055	0.114140
H103	H	0.222599	0.251815	0.122983
H104	H	0.220963	0.329492	0.058275
H105	H	0.167988	0.305893	-0.000250
H106	H	0.975465	-0.374291	-0.000253
H107	H	0.491280	-0.029905	-0.000188
H108	H	0.960157	-0.570371	-0.000263
C109	C	0.740297	0.286364	0.814958
H110	H	0.714946	0.328432	0.781351
H111	H	0.768131	0.329409	0.844677
H112	H	0.708925	0.249189	0.844711
H113	H	0.622910	-0.027040	-0.000145
H114	H	0.733594	-0.524517	-0.000199
C115	C	0.944728	-0.187689	-0.000244
H116	H	0.978192	-0.242887	-0.000263
H117	H	0.950615	-0.146056	0.041984
H118	H	0.950618	-0.146045	-0.042481
H119	H	0.824466	0.309302	0.568917
C120	C	0.740259	0.286346	0.344752
H121	H	0.746365	0.276239	0.395606
H122	H	0.693171	0.275268	0.332288
H123	H	0.752379	0.355483	0.332245
