data_functionalizedCrystal
_audit_creation_method	'MofGen! by Chris Wilmer'
_symmetry_space_group_name_H-M	'P1'
_symmetry_Int_Tables_number	1
_symmetry_cell_setting	triclinic
loop_
_symmetry_equiv_pos_as_xyz
  x,y,z
_cell_length_a	10.723024
_cell_length_b	16.109302
_cell_length_c	14.586319
_cell_angle_alpha	89.994552
_cell_angle_beta	90.002624
_cell_angle_gamma	96.035175
loop_
_atom_site_label
_atom_site_type_symbol
_atom_site_fract_x
_atom_site_fract_y
_atom_site_fract_z
O1	O	0.160395	-1.104074	0.076279
O2	O	0.660395	-0.604074	0.576279
O3	O	0.180354	-0.862130	0.076272
O4	O	0.680354	-0.362130	0.576272
O5	O	-0.011275	-0.988683	0.076272
O6	O	0.488725	-0.488683	0.576272
O7	O	0.352025	-0.977521	0.076279
O8	O	0.852025	-0.477521	0.576279
O9	O	-0.011278	-0.988674	-0.076209
O10	O	0.488722	-0.488674	0.423791
O11	O	0.180352	-0.862121	-0.076209
O12	O	0.680352	-0.362121	0.423791
O13	O	0.160392	-1.104065	-0.076202
O14	O	0.660392	-0.604065	0.423798
Cu15	Cu	0.170372	-0.983092	-0.090128
Cu16	Cu	0.670372	-0.483092	0.409872
Cu17	Cu	0.170375	-0.983103	0.090198
Cu18	Cu	0.670375	-0.483103	0.590198
O19	O	0.352022	-0.977512	-0.076202
O20	O	0.852022	-0.477512	0.423798
C21	C	-0.057766	-0.987866	0.000033
C22	C	0.442234	-0.487866	0.500033
C23	C	-0.196288	-0.985436	0.000036
C24	C	0.303712	-0.485436	0.500036
C25	C	0.179544	-0.831146	0.000030
C26	C	0.679544	-0.331146	0.500030
C27	C	0.177120	-0.738836	0.000028
C28	C	0.677120	-0.238836	0.500028
C29	C	0.161202	-1.135049	0.000042
C30	C	0.661202	-0.635049	0.500042
C31	C	0.163627	-1.227359	0.000051
C32	C	0.663627	-0.727359	0.500051
C33	C	-0.272209	-1.056248	0.000040
C34	C	0.227791	-0.556248	0.500040
C35	C	-0.415379	-1.053738	0.000043
C36	C	0.084621	-0.553738	0.500043
C37	C	0.398512	-0.978329	0.000039
C38	C	0.898512	-0.478329	0.500039
C39	C	0.537034	-0.980759	0.000042
C40	C	1.037034	-0.480759	0.500042
C41	C	0.171513	-0.526457	-0.083081
C42	C	0.671513	-0.026457	0.416919
C43	C	0.169221	-0.439724	-0.083078
C44	C	0.669221	0.060276	0.416922
C45	C	0.169231	-0.439744	0.083165
C46	C	0.669231	0.060256	0.583165
C47	C	0.171513	-0.526477	0.083161
C48	C	0.671513	-0.026477	0.583161
C49	C	0.172660	-0.569831	0.000035
C50	C	0.672660	-0.069831	0.500035
C51	C	0.168086	-0.396364	0.000043
C52	C	0.668086	0.103636	0.500043
C53	C	0.165602	-0.302324	0.000047
C54	C	0.665602	0.197676	0.500047
C55	C	0.175142	-0.663877	0.000031
C56	C	0.675142	-0.163877	0.500031
N57	N	0.170369	-0.983091	-0.216960
N58	N	0.670369	-0.483091	0.283040
C59	C	0.085543	-1.039147	-0.451966
C60	C	0.585543	-0.539147	0.048034
C61	C	0.085540	-1.039150	-0.547947
C62	C	0.585540	-0.539150	-0.047947
C63	C	0.255198	-0.927048	-0.547957
C64	C	0.755198	-0.427048	-0.047957
C65	C	0.255194	-0.927042	-0.451978
C66	C	0.755194	-0.427042	0.048022
C67	C	0.170368	-0.983097	-0.403985
C68	C	0.670368	-0.483097	0.096015
C69	C	0.170369	-0.983105	-0.595945
C70	C	0.670369	-0.483105	-0.095945
C71	C	0.170366	-0.983107	-0.700012
C72	C	0.670366	-0.483107	-0.200012
C73	C	0.170369	-0.983094	-0.299911
C74	C	0.670369	-0.483094	0.200089
N75	N	0.170368	-0.983111	0.217030
N76	N	0.670368	-0.483111	0.717030
H77	H	-0.231215	-1.118732	0.000036
H78	H	0.268785	-0.618732	0.500036
C79	C	0.167973	-0.392016	-0.174512
C80	C	0.667973	0.107984	0.325488
N81	N	0.167037	-0.356083	-0.243385
N82	N	0.667037	0.143917	0.256615
C83	C	-0.251662	-0.901020	0.000032
C84	C	0.248338	-0.401020	0.500032
N85	N	-0.293368	-0.837436	0.000026
N86	N	0.206632	-0.337436	0.500026
H87	H	-0.397737	-0.920135	0.000033
H88	H	0.102263	-0.420135	0.500033
H89	H	-0.480615	-1.114359	0.000042
H90	H	0.019385	-0.614359	0.500042
H91	H	0.172447	-0.561754	-0.150767
H92	H	0.672447	-0.061754	0.349233
C93	C	0.172768	-0.574191	0.174600
C94	C	0.672768	-0.074191	0.674600
N95	N	0.173708	-0.610129	0.243469
N96	N	0.673708	-0.110129	0.743469
H97	H	0.168298	-0.404435	0.150843
H98	H	0.668298	0.095565	0.650843
C99	C	-0.007777	-1.100802	-0.399177
C100	C	0.492223	-0.600802	0.100823
N101	N	-0.078073	-1.147240	-0.359419
N102	N	0.421927	-0.647240	0.140581
C103	C	-0.007784	-1.100804	-0.600722
C104	C	0.492216	-0.600804	-0.100722
N105	N	-0.078084	-1.147241	-0.640472
N106	N	0.421916	-0.647241	-0.140472
C107	C	0.348499	-0.865390	-0.600759
C108	C	0.848499	-0.365390	-0.100759
N109	N	0.418774	-0.818948	-0.640528
N110	N	0.918774	-0.318948	-0.140528
C111	C	0.348569	-0.865417	-0.399195
C112	C	0.848569	-0.365417	0.100805
N113	N	0.418915	-0.819015	-0.359439
N114	N	0.918915	-0.319015	0.140561
