data_functionalizedCrystal
_audit_creation_method	'MofGen! by Chris Wilmer'
_symmetry_space_group_name_H-M	'P1'
_symmetry_Int_Tables_number	1
_symmetry_cell_setting	triclinic
loop_
_symmetry_equiv_pos_as_xyz
  x,y,z
_cell_length_a	18.050589
_cell_length_b	18.215407
_cell_length_c	18.215399
_cell_angle_alpha	90.019833
_cell_angle_beta	89.976397
_cell_angle_gamma	89.971331
loop_
_atom_site_label
_atom_site_type_symbol
_atom_site_fract_x
_atom_site_fract_y
_atom_site_fract_z
Zn1	Zn	-0.295658	-1.125055	-0.416138
Zn2	Zn	-0.419853	-1.124956	-0.293081
Zn3	Zn	-0.295682	-1.001987	-0.293085
Zn4	Zn	-0.419812	-1.001946	-0.416106
O5	O	-0.357751	-1.063486	-0.354603
O6	O	-0.312140	-1.228026	-0.399826
O7	O	-0.403409	-1.108620	-0.190097
O8	O	-0.191755	-1.018371	-0.309424
O9	O	-0.403386	-1.227953	-0.309417
O10	O	-0.191737	-1.108788	-0.399830
O11	O	-0.312181	-1.018275	-0.190101
O12	O	-0.312141	-0.898998	-0.309393
O13	O	-0.403315	-1.018301	-0.519095
O14	O	-0.403339	-0.898967	-0.399775
O15	O	-0.312100	-1.108748	-0.519118
O16	O	-0.523772	-1.108580	-0.309385
O17	O	-0.523742	-1.018205	-0.399771
C18	C	-0.357739	-0.872280	-0.354582
C19	C	-0.357751	-0.790481	-0.354590
C20	C	-0.550704	-1.063397	-0.354590
C21	C	-0.633249	-1.063427	-0.354610
C22	C	-0.357700	-1.063531	-0.546556
C23	C	-0.357678	-1.063550	-0.628355
C24	C	-0.832710	-1.014329	-0.403744
C25	C	-0.882151	-0.996389	-0.336590
C26	C	-0.784380	-1.063499	-0.354619
C27	C	-0.882021	-1.081475	-0.421781
C28	C	-0.930365	-1.063567	-0.354635
C29	C	-0.832733	-1.045524	-0.287430
C30	C	-0.832599	-1.130641	-0.372666
C31	C	-0.882017	-1.112726	-0.305466
C32	C	-0.700281	-1.063458	-0.354612
C33	C	-1.014461	-1.063609	-0.354635
C34	C	-0.164046	-1.063595	-0.354631
C35	C	-0.081500	-1.063642	-0.354643
C36	C	-0.357765	-1.255439	-0.354624
C37	C	-0.357770	-1.337238	-0.354634
C38	C	-0.405312	-0.602291	-0.401593
C39	C	-0.405315	-0.525432	-0.401602
C40	C	-0.310204	-0.525434	-0.307628
C41	C	-0.310199	-0.602291	-0.307623
C42	C	-0.357757	-0.640718	-0.354605
C43	C	-0.357765	-0.487001	-0.354619
C44	C	-0.357767	-0.403668	-0.354628
C45	C	-0.357754	-0.724056	-0.354596
C46	C	-0.310138	-1.110663	-0.816562
C47	C	-0.310117	-1.110672	-0.893421
C48	C	-0.405104	-1.016489	-0.893385
C49	C	-0.405121	-1.016477	-0.816528
C50	C	-0.357639	-1.063568	-0.778118
C51	C	-0.357600	-1.063589	-0.931834
C52	C	-0.357577	-1.063598	-1.015168
C53	C	-0.357661	-1.063558	-0.694779
C54	C	-0.357749	-1.063484	-0.163396
C55	C	-0.357561	-1.063607	-0.081598
H56	H	-0.811060	-0.972687	-0.445229
O57	O	-0.451304	-0.970830	-0.779097
C58	C	-0.499292	-1.012699	-0.734651
H59	H	-0.473103	-1.068483	-0.723156
H60	H	-0.554323	-1.020759	-0.764260
C61	C	-0.544913	-0.903677	-0.675750
C62	C	-0.512746	-0.972190	-0.661627
H63	H	-0.553216	-0.878688	-0.630706
H64	H	-0.512586	-0.875468	-0.705696
H65	H	-0.590769	-0.910403	-0.700425
H66	H	-0.466887	-0.965462	-0.636960
H67	H	-0.545066	-1.000396	-0.631675
O68	O	-0.451582	-0.639651	-0.447129
C69	C	-0.499483	-0.684085	-0.405154
H70	H	-0.504003	-0.660900	-0.347185
H71	H	-0.476515	-0.742343	-0.402653
C72	C	-0.571178	-0.713723	-0.512183
C73	C	-0.576734	-0.685242	-0.440987
H74	H	-0.618830	-0.714440	-0.534288
H75	H	-0.538905	-0.683789	-0.540464
H76	H	-0.552035	-0.762269	-0.510090
H77	H	-0.595868	-0.636695	-0.443083
H78	H	-0.609013	-0.715168	-0.412708
O79	O	-0.451151	-0.970647	-0.930664
C80	C	-0.434937	-0.897305	-0.911860
H81	H	-0.375612	-0.893615	-0.890745
H82	H	-0.474761	-0.878041	-0.867234
C83	C	-0.516431	-0.852728	-1.006057
C84	C	-0.443565	-0.848196	-0.980129
H85	H	-0.521756	-0.822434	-1.048167
H86	H	-0.527358	-0.902140	-1.018724
H87	H	-0.549610	-0.836677	-0.968863
H88	H	-0.410388	-0.864256	-1.017320
H89	H	-0.432632	-0.798785	-0.967470
H90	H	-0.271435	-1.149020	-0.924718
O91	O	-0.451476	-0.488185	-0.447348
C92	C	-0.435327	-0.506993	-0.520722
H93	H	-0.406777	-0.562810	-0.522289
H94	H	-0.397181	-0.463765	-0.545578
C95	C	-0.542850	-0.441978	-0.563252
C96	C	-0.507790	-0.510536	-0.565178
H97	H	-0.587548	-0.444160	-0.590677
H98	H	-0.553729	-0.429304	-0.513819
H99	H	-0.511054	-0.405962	-0.583965
H100	H	-0.539583	-0.546549	-0.544457
H101	H	-0.496919	-0.523216	-0.614608
H102	H	-0.811172	-1.030282	-0.230622
O103	O	-0.908086	-0.928644	-0.318502
C104	C	-0.882954	-0.876929	-0.370412
H105	H	-0.869038	-0.906157	-0.424024
H106	H	-0.831321	-0.848351	-0.348493
C107	C	-0.961140	-0.783662	-0.318453
C108	C	-0.944054	-0.819560	-0.384303
H109	H	-0.998827	-0.748272	-0.327020
H110	H	-0.978070	-0.818502	-0.283478
H111	H	-0.918107	-0.759853	-0.300194
H112	H	-0.987084	-0.843376	-0.402556
H113	H	-0.927133	-0.784723	-0.419282
H114	H	-0.903530	-1.154337	-0.263881
O115	O	-0.806643	-1.198301	-0.391023
C116	C	-0.831725	-1.217014	-0.461892
H117	H	-0.845632	-1.164852	-0.493595
H118	H	-0.883353	-1.252744	-0.457286
C119	C	-0.753514	-1.323718	-0.463763
C120	C	-0.770589	-1.259651	-0.502704
H121	H	-0.715805	-1.350021	-0.488937
H122	H	-0.736617	-1.311113	-0.416016
H123	H	-0.796543	-1.353484	-0.459927
H124	H	-0.727563	-1.229882	-0.506531
H125	H	-0.787477	-1.272252	-0.550452
H126	H	-0.903671	-1.096652	-0.478573
H127	H	-0.271485	-0.494138	-0.269377
O128	O	-0.263977	-0.639510	-0.261906
C129	C	-0.221994	-0.589115	-0.220448
H130	H	-0.252411	-0.534314	-0.217850
H131	H	-0.165626	-0.580977	-0.247491
C132	C	-0.173830	-0.686396	-0.145332
C133	C	-0.211192	-0.619090	-0.142135
H134	H	-0.167163	-0.704887	-0.097026
H135	H	-0.202112	-0.720349	-0.173264
H136	H	-0.126860	-0.679605	-0.167871
H137	H	-0.258164	-0.625884	-0.119605
H138	H	-0.182917	-0.585139	-0.114197
H139	H	-0.271474	-1.149006	-0.785291
