data_functionalizedCrystal
_audit_creation_method	'MofGen! by Chris Wilmer'
_symmetry_space_group_name_H-M	'P1'
_symmetry_Int_Tables_number	1
_symmetry_cell_setting	triclinic
loop_
_symmetry_equiv_pos_as_xyz
  x,y,z
_cell_length_a	10.654550
_cell_length_b	16.992695
_cell_length_c	15.455450
_cell_angle_alpha	92.817695
_cell_angle_beta	87.042707
_cell_angle_gamma	92.423437
loop_
_atom_site_label
_atom_site_type_symbol
_atom_site_fract_x
_atom_site_fract_y
_atom_site_fract_z
O1	O	1.672154	-0.107094	0.072202
O2	O	2.172154	0.392906	0.572202
O3	O	1.307584	-0.117593	0.072188
O4	O	1.807584	0.382407	0.572188
O5	O	1.488408	0.001807	0.072188
O6	O	1.988408	0.501807	0.572188
O7	O	1.491330	-0.226494	0.072202
O8	O	1.991330	0.273506	0.572202
O9	O	1.498799	-0.004375	-0.072070
O10	O	1.998799	0.495625	0.427930
O11	O	1.317975	-0.123774	-0.072070
O12	O	1.817975	0.376226	0.427930
O13	O	1.682545	-0.113276	-0.072056
O14	O	2.182545	0.386724	0.427944
Cu15	Cu	1.501209	-0.119089	-0.085235
Cu16	Cu	2.001209	0.380911	0.414765
Cu17	Cu	1.488920	-0.111779	0.085367
Cu18	Cu	1.988920	0.388221	0.585367
O19	O	1.501721	-0.232675	-0.072056
O20	O	2.001721	0.267325	0.427944
C21	C	1.265915	-0.119913	0.000057
C22	C	1.765915	0.380087	0.500057
C23	C	1.126273	-0.117607	0.000052
C24	C	1.626273	0.382393	0.500052
N25	N	1.509861	-0.124231	-0.205227
N26	N	2.009861	0.375769	0.294773
C27	C	1.489843	0.027949	0.000059
C28	C	1.989843	0.527949	0.500059
C29	C	1.478624	0.115054	0.000059
C30	C	1.978624	0.615054	0.500059
C31	C	1.052861	-0.187907	0.000069
C32	C	1.552861	0.312093	0.500069
C33	C	0.921652	-0.185734	0.000084
C34	C	1.421652	0.314266	0.500084
C35	C	0.937278	-0.042956	0.000068
C36	C	1.437278	0.457044	0.500068
C37	C	1.068485	-0.045129	0.000047
C38	C	1.568485	0.454871	0.500047
C39	C	1.110649	-0.260384	0.000073
C40	C	1.610649	0.239616	0.500073
C41	C	1.037236	-0.330690	0.000091
C42	C	1.537236	0.169310	0.500091
C43	C	0.906027	-0.328518	0.000106
C44	C	1.406027	0.171482	0.500106
C45	C	0.848230	-0.256040	0.000103
C46	C	1.348230	0.243960	0.500103
C47	C	1.724214	-0.110955	0.000077
C48	C	2.224214	0.389045	0.500077
C49	C	1.863856	-0.113261	0.000088
C50	C	2.363856	0.386739	0.500088
C51	C	1.500286	-0.258817	0.000075
C52	C	2.000286	0.241183	0.500075
C53	C	1.511505	-0.345922	0.000081
C54	C	2.011505	0.154078	0.500081
C55	C	1.586875	0.164706	0.000062
C56	C	2.086875	0.664706	0.500062
C57	C	1.576325	0.246550	0.000070
C58	C	2.076325	0.746550	0.500070
C59	C	1.457524	0.278741	0.000068
C60	C	1.957524	0.778741	0.500068
C61	C	1.349265	0.229083	0.000068
C62	C	1.849265	0.729083	0.500068
C63	C	1.359816	0.147240	0.000066
C64	C	1.859816	0.647240	0.500066
C65	C	1.413796	0.522577	0.000079
C66	C	1.913796	1.022577	0.500079
C67	C	1.403254	0.604426	0.000078
C68	C	1.903254	1.104426	0.500078
C69	C	1.630315	0.621888	0.000081
C70	C	2.130315	1.121888	0.500081
C71	C	1.640855	0.540043	0.000074
C72	C	2.140855	1.040043	0.500074
C73	C	1.532596	0.490392	0.000078
C74	C	2.032596	0.990392	0.500078
N75	N	1.446738	0.362399	0.000073
N76	N	1.946738	0.862399	0.500073
N77	N	1.543383	0.406736	0.000079
N78	N	2.043383	0.906736	0.500079
C79	C	1.432179	-0.078153	-0.250652
C80	C	1.932179	0.421847	0.249348
C81	C	1.438754	-0.082050	-0.341457
C82	C	1.938754	0.417950	0.158543
C83	C	1.523018	-0.132022	-0.386836
C84	C	2.023018	0.367978	0.113164
C85	C	1.600704	-0.178105	-0.341405
C86	C	2.100704	0.321895	0.158595
C87	C	1.594122	-0.174211	-0.250601
C88	C	2.094122	0.325789	0.249399
C89	C	1.551381	-0.148821	-0.658406
C90	C	2.051381	0.351179	-0.158406
C91	C	1.557960	-0.152710	-0.749216
C92	C	2.057960	0.347290	-0.249216
C93	C	1.396007	-0.056655	-0.749262
C94	C	1.896007	0.443345	-0.249262
C95	C	1.389438	-0.052762	-0.658457
C96	C	1.889438	0.447238	-0.158457
C97	C	1.467119	-0.098849	-0.613034
C98	C	1.967119	0.401151	-0.113034
N99	N	1.529744	-0.136005	-0.479654
N100	N	2.029744	0.363995	0.020346
N101	N	1.460386	-0.094869	-0.520218
N102	N	1.960386	0.405131	-0.020218
N103	N	1.480277	-0.106632	0.205359
N104	N	1.980277	0.393368	0.705359
H105	H	1.217485	-0.262161	0.000065
H106	H	1.717485	0.237839	0.500065
H107	H	0.741390	-0.254277	0.000102
H108	H	1.241390	0.245723	0.500102
H109	H	1.669309	-0.218797	-0.378359
H110	H	2.169309	0.281203	0.121641
H111	H	0.846258	-0.385764	0.000112
H112	H	1.346258	0.114236	0.500112
O113	O	1.693091	0.300097	0.000067
O114	O	2.193091	0.800097	0.500067
H115	H	1.689500	0.340311	0.058871
H116	H	2.189500	0.840311	0.558871
O117	O	0.874948	0.035214	0.000072
O118	O	1.374948	0.535214	0.500072
H119	H	0.771377	0.024915	0.000098
H120	H	1.271377	0.524915	0.500098
O121	O	1.147679	0.030691	0.000035
O122	O	1.647679	0.530691	0.500035
H123	H	1.085454	0.081455	0.000050
H124	H	1.585454	0.581455	0.500050
O125	O	1.221130	0.263803	0.000068
O126	O	1.721130	0.763803	0.500068
H127	H	1.147628	0.215525	0.000074
H128	H	1.647628	0.715525	0.500074
H129	H	1.683616	0.138503	0.000058
H130	H	2.183616	0.638503	0.500058
O131	O	1.677909	-0.223907	-0.201600
O132	O	2.177909	0.276093	0.298400
H133	H	1.737618	-0.259305	-0.248408
H134	H	2.237618	0.240695	0.251592
O135	O	1.099563	-0.408861	0.000092
O136	O	1.599563	0.091139	0.500092
H137	H	1.203133	-0.398563	0.000086
H138	H	1.703133	0.101437	0.500086
H139	H	1.737595	0.513840	0.000076
H140	H	2.237595	1.013840	0.500076
H141	H	1.306508	0.630631	0.000062
H142	H	1.806508	1.130631	0.500062
H143	H	1.271666	0.106814	0.000064
H144	H	1.771666	0.606814	0.500064
H145	H	1.718453	0.662322	0.000080
H146	H	2.218453	1.162322	0.500080
O147	O	1.297039	0.469028	0.000061
O148	O	1.797039	0.969028	0.500061
H149	H	1.212662	0.505164	0.000044
H150	H	1.712662	1.005164	0.500044
O151	O	1.341289	-0.024257	-0.201708
O152	O	1.841289	0.475743	0.298292
H153	H	1.288367	0.007122	-0.248555
H154	H	1.788367	0.507122	0.251445
H155	H	1.375497	-0.044528	-0.378438
H156	H	1.875497	0.455472	0.121562
H157	H	1.626580	-0.193406	-0.786161
H158	H	2.126580	0.306594	-0.286161
H159	H	1.320824	-0.012068	-0.621516
H160	H	1.820824	0.487932	-0.121516
H161	H	1.332762	-0.019136	-0.786256
H162	H	1.832762	0.480864	-0.286256
H163	H	1.614640	-0.186344	-0.621433
H164	H	2.114640	0.313656	-0.121433
