data_functionalizedCrystal
_audit_creation_method	'MofGen! by Chris Wilmer'
_symmetry_space_group_name_H-M	'P1'
_symmetry_Int_Tables_number	1
_symmetry_cell_setting	triclinic
loop_
_symmetry_equiv_pos_as_xyz
  x,y,z
_cell_length_a	14.853569
_cell_length_b	16.109301
_cell_length_c	15.186229
_cell_angle_alpha	90.005167
_cell_angle_beta	89.998615
_cell_angle_gamma	96.451477
loop_
_atom_site_label
_atom_site_type_symbol
_atom_site_fract_x
_atom_site_fract_y
_atom_site_fract_z
O1	O	1.196183	-0.108553	-0.073191
O2	O	1.529517	0.224781	0.260142
O3	O	1.862850	0.558114	0.593476
O4	O	0.933703	-0.121482	-0.073202
O5	O	1.267036	0.211852	0.260131
O6	O	1.600369	0.545185	0.593465
O7	O	1.072153	0.006004	-0.073187
O8	O	1.405487	0.339337	0.260146
O9	O	1.738820	0.672670	0.593479
O10	O	1.057732	-0.236038	-0.073206
O11	O	1.391066	0.097295	0.260127
O12	O	1.724399	0.430629	0.593461
O13	O	1.072144	0.006005	0.073270
O14	O	1.405478	0.339339	0.406603
O15	O	1.738811	0.672672	0.739937
O16	O	0.933693	-0.121480	0.073255
O17	O	1.267027	0.211853	0.406589
O18	O	1.600360	0.545187	0.739922
O19	O	1.196174	-0.108551	0.073266
O20	O	1.529507	0.224783	0.406599
O21	O	1.862841	0.558116	0.739933
Zn22	Zn	1.064932	-0.115015	0.096514
Zn23	Zn	1.398266	0.218318	0.429847
Zn24	Zn	1.731599	0.551652	0.763181
Zn25	Zn	1.064944	-0.115017	-0.096450
Zn26	Zn	1.398278	0.218316	0.236883
Zn27	Zn	1.731611	0.551649	0.570217
O28	O	1.057723	-0.236036	0.073251
O29	O	1.391056	0.097297	0.406585
O30	O	1.724390	0.430630	0.739918
C31	C	0.900110	-0.120895	0.000025
C32	C	1.233444	0.212438	0.333359
C33	C	1.566777	0.545772	0.666692
C34	C	0.800030	-0.119139	0.000021
C35	C	1.133363	0.214195	0.333355
C36	C	1.466696	0.547528	0.666688
C37	C	0.763779	-0.042586	0.000024
C38	C	1.097113	0.290748	0.333357
C39	C	1.430446	0.624081	0.666691
C40	C	0.742240	-0.194042	0.000022
C41	C	1.075573	0.139292	0.333356
C42	C	1.408906	0.472625	0.666689
C43	C	0.648208	-0.192394	0.000024
C44	C	0.981542	0.140939	0.333357
C45	C	1.314875	0.474272	0.666690
C46	C	0.611958	-0.115841	0.000026
C47	C	0.945292	0.217492	0.333360
C48	C	1.278625	0.550825	0.666693
C49	C	0.669740	-0.040936	0.000028
C50	C	1.003073	0.292398	0.333361
C51	C	1.336406	0.625731	0.666695
C52	C	0.590420	-0.267298	0.000031
C53	C	0.923753	0.066035	0.333364
C54	C	1.257087	0.399368	0.666698
C55	C	0.496382	-0.265654	0.000033
C56	C	0.829716	0.067679	0.333366
C57	C	1.163049	0.401013	0.666700
C58	C	0.460131	-0.189100	0.000029
C59	C	0.793464	0.144233	0.333363
C60	C	1.126797	0.477567	0.666696
C61	C	0.517918	-0.114191	0.000030
C62	C	0.851252	0.219142	0.333363
C63	C	1.184585	0.552475	0.666697
C64	C	0.481668	-0.037638	0.000033
C65	C	0.815002	0.295695	0.333366
C66	C	1.148335	0.629028	0.666699
C67	C	0.539454	0.037271	0.000027
C68	C	0.872788	0.370605	0.333360
C69	C	1.206121	0.703938	0.666694
C70	C	0.633488	0.035618	0.000024
C71	C	0.966821	0.368952	0.333358
C72	C	1.300155	0.702285	0.666691
C73	C	0.366097	-0.187447	0.000032
C74	C	0.699430	0.145886	0.333366
C75	C	1.032764	0.479220	0.666699
C76	C	0.387628	-0.035988	0.000037
C77	C	0.720962	0.297345	0.333370
C78	C	1.054295	0.630678	0.666703
C79	C	1.071565	0.036980	0.000042
C80	C	1.404898	0.370314	0.333375
C81	C	1.738231	0.703647	0.666708
C82	C	1.069813	0.129278	0.000043
C83	C	1.403147	0.462611	0.333376
C84	C	1.736480	0.795945	0.666710
C85	C	1.229766	-0.109138	0.000037
C86	C	1.563100	0.224196	0.333370
C87	C	1.896433	0.557529	0.666704
C88	C	1.329847	-0.110894	0.000035
C89	C	1.663180	0.222439	0.333368
C90	C	1.996514	0.555773	0.666702
C91	C	1.058312	-0.267013	0.000020
C92	C	1.391645	0.066321	0.333354
C93	C	1.724978	0.399654	0.666687
C94	C	1.060063	-0.359311	0.000013
C95	C	1.393397	-0.025977	0.333347
C96	C	1.726730	0.307356	0.666680
N97	N	1.064930	-0.115013	0.228207
N98	N	1.398264	0.218320	0.561540
N99	N	1.731597	0.551654	0.894873
C100	C	1.147895	0.351440	0.000032
C101	C	1.481228	0.684774	0.333366
C102	C	1.814562	1.018107	0.666699
C103	C	1.146243	0.438163	0.000025
C104	C	1.479576	0.771496	0.333358
C105	C	1.812909	1.104830	0.666692
C106	C	0.981975	0.418520	0.000021
C107	C	1.315309	0.751854	0.333355
C108	C	1.648642	1.085187	0.666688
C109	C	0.983629	0.331799	0.000022
C110	C	1.316962	0.665133	0.333356
C111	C	1.650295	0.998466	0.666689
C112	C	1.066591	0.298262	0.000032
C113	C	1.399925	0.631595	0.333366
C114	C	1.733258	0.964928	0.666699
C115	C	1.063285	0.471706	0.000024
C116	C	1.396619	0.805039	0.333357
C117	C	1.729952	1.138372	0.666691
C118	C	1.061493	0.565734	0.000016
C119	C	1.394826	0.899067	0.333349
C120	C	1.728159	1.232401	0.666683
C121	C	1.068384	0.204227	0.000039
C122	C	1.401718	0.537561	0.333372
C123	C	1.735051	0.870894	0.666705
N124	N	1.064953	-0.115013	-0.228143
N125	N	1.398287	0.218320	0.105191
N126	N	1.731620	0.551654	0.438524
C127	C	1.126257	-0.058581	0.453936
C128	C	1.459591	0.274752	0.787269
C129	C	1.792924	0.608085	1.120603
C130	C	1.126260	-0.058579	0.546126
C131	C	1.459594	0.274754	0.879459
C132	C	1.792927	0.608087	1.212792
C133	C	1.003620	-0.171447	0.546122
C134	C	1.336953	0.161886	0.879455
C135	C	1.670286	0.495219	1.212788
C136	C	1.003613	-0.171445	0.453934
C137	C	1.336947	0.161889	0.787267
C138	C	1.670280	0.495222	1.120600
C139	C	1.064937	-0.115013	0.407843
C140	C	1.398271	0.218321	0.741177
C141	C	1.731604	0.551654	1.074510
C142	C	1.064946	-0.115013	0.592221
C143	C	1.398280	0.218320	0.925554
C144	C	1.731613	0.551653	1.258888
C145	C	1.064949	-0.115012	0.692177
C146	C	1.398282	0.218322	1.025510
C147	C	1.731616	0.551655	1.358844
C148	C	1.064934	-0.115013	0.307881
C149	C	1.398267	0.218320	0.641214
C150	C	1.731600	0.551654	0.974547
H151	H	0.680545	0.096606	0.000022
H152	H	1.013878	0.429939	0.333355
H153	H	1.347212	0.763272	0.666688
H154	H	0.449340	-0.326650	0.000036
H155	H	0.782674	0.006683	0.333369
H156	H	1.116007	0.340017	0.666703
Cl157	Cl	1.248458	0.505013	0.000023
Cl158	Cl	1.581791	0.838346	0.333356
Cl159	Cl	1.915125	1.171680	0.666690
H160	H	0.914430	0.445837	0.000015
H161	H	1.247763	0.779171	0.333349
H162	H	1.581096	1.112504	0.666682
Cl163	Cl	0.342065	0.060256	0.000033
Cl164	Cl	0.675399	0.393589	0.333366
Cl165	Cl	1.008732	0.726922	0.666700
Cl166	Cl	0.926515	-0.242388	0.395983
Cl167	Cl	1.259848	0.090945	0.729316
Cl168	Cl	1.593182	0.424279	1.062649
H169	H	0.917417	0.288499	0.000020
H170	H	1.250751	0.621832	0.333353
H171	H	1.584084	0.955165	0.666687
Cl172	Cl	0.926534	-0.242390	0.604068
Cl173	Cl	1.259867	0.090943	0.937401
Cl174	Cl	1.593200	0.424276	1.270735
Cl175	Cl	0.493871	0.133506	0.000039
Cl176	Cl	0.827204	0.466839	0.333372
Cl177	Cl	1.160538	0.800172	0.666706
Cl178	Cl	0.836421	0.051582	0.000015
Cl179	Cl	1.169754	0.384915	0.333349
Cl180	Cl	1.503087	0.718248	0.666682
H181	H	1.215449	0.324137	0.000038
H182	H	1.548782	0.657471	0.333372
H183	H	1.882115	0.990804	0.666705
H184	H	0.771761	-0.256368	0.000026
H185	H	1.105094	0.076965	0.333360
H186	H	1.438427	0.410299	0.666693
H187	H	1.176190	-0.012630	0.416411
H188	H	1.509523	0.320703	0.749745
H189	H	1.842856	0.654037	1.083078
H190	H	0.619942	-0.329624	0.000034
H191	H	0.953276	0.003709	0.333368
H192	H	1.286609	0.337043	0.666701
Cl193	Cl	1.203350	0.012367	0.604068
Cl194	Cl	1.536683	0.345700	0.937402
Cl195	Cl	1.870016	0.679034	1.270735
H196	H	0.319052	-0.248437	0.000045
H197	H	0.652386	0.084896	0.333378
H198	H	0.985719	0.418229	0.666711
