data_functionalizedCrystal
_audit_creation_method	'MofGen! by Chris Wilmer'
_symmetry_space_group_name_H-M	'P1'
_symmetry_Int_Tables_number	1
_symmetry_cell_setting	triclinic
loop_
_symmetry_equiv_pos_as_xyz
  x,y,z
_cell_length_a	16.959455
_cell_length_b	16.959453
_cell_length_c	21.395355
_cell_angle_alpha	90.017325
_cell_angle_beta	90.029472
_cell_angle_gamma	90.017008
loop_
_atom_site_label
_atom_site_type_symbol
_atom_site_fract_x
_atom_site_fract_y
_atom_site_fract_z
Zn1	Zn	1.208455	-0.314836	0.354349
Zn2	Zn	1.458455	-0.064836	0.604349
Zn3	Zn	1.708455	0.185164	0.854349
Zn4	Zn	1.958455	0.435164	1.104349
Zn5	Zn	1.208357	-0.446997	0.249574
Zn6	Zn	1.458357	-0.196997	0.499574
Zn7	Zn	1.708357	0.053003	0.749574
Zn8	Zn	1.958357	0.303003	0.999574
Zn9	Zn	1.076263	-0.314829	0.249577
Zn10	Zn	1.326263	-0.064829	0.499577
Zn11	Zn	1.576263	0.185171	0.749577
Zn12	Zn	1.826263	0.435171	0.999577
Zn13	Zn	1.076249	-0.446969	0.354305
Zn14	Zn	1.326249	-0.196969	0.604305
Zn15	Zn	1.576249	0.053031	0.854305
Zn16	Zn	1.826249	0.303031	1.104305
O17	O	1.142331	-0.380908	0.301951
O18	O	1.392331	-0.130908	0.551951
O19	O	1.642331	0.119092	0.801951
O20	O	1.892331	0.369092	1.051951
O21	O	1.319053	-0.332382	0.340467
O22	O	1.569053	-0.082382	0.590467
O23	O	1.819053	0.167618	0.840467
O24	O	2.069053	0.417618	1.090467
O25	O	1.190799	-0.429473	0.161896
O26	O	1.440799	-0.179473	0.411896
O27	O	1.690799	0.070527	0.661896
O28	O	1.940799	0.320527	0.911896
O29	O	1.093845	-0.204219	0.263495
O30	O	1.343845	0.045781	0.513495
O31	O	1.593845	0.295781	0.763495
O32	O	1.843845	0.545781	1.013495
O33	O	1.318981	-0.429479	0.263489
O34	O	1.568981	-0.179479	0.513489
O35	O	1.818981	0.070521	0.763489
O36	O	2.068981	0.320521	1.013489
O37	O	1.190967	-0.204224	0.340470
O38	O	1.440967	0.045776	0.590470
O39	O	1.690967	0.295776	0.840470
O40	O	1.940967	0.545776	1.090470
O41	O	1.093750	-0.332370	0.161898
O42	O	1.343750	-0.082370	0.411898
O43	O	1.593750	0.167630	0.661898
O44	O	1.843750	0.417630	0.911898
O45	O	0.965650	-0.332344	0.263452
O46	O	1.215650	-0.082344	0.513452
O47	O	1.465650	0.167656	0.763452
O48	O	1.715650	0.417656	1.013452
O49	O	1.093821	-0.429433	0.441989
O50	O	1.343821	-0.179433	0.691989
O51	O	1.593821	0.070567	0.941989
O52	O	1.843821	0.320567	1.191989
O53	O	0.965640	-0.429427	0.340395
O54	O	1.215640	-0.179427	0.590395
O55	O	1.465640	0.070573	0.840395
O56	O	1.715640	0.320573	1.090395
O57	O	1.190953	-0.332355	0.442021
O58	O	1.440953	-0.082355	0.692021
O59	O	1.690953	0.167645	0.942021
O60	O	1.940953	0.417645	1.192021
O61	O	1.190785	-0.557604	0.263447
O62	O	1.440785	-0.307604	0.513447
O63	O	1.690785	-0.057604	0.763447
O64	O	1.940785	0.192396	1.013447
O65	O	1.093726	-0.557584	0.340392
O66	O	1.343726	-0.307584	0.590392
O67	O	1.593726	-0.057584	0.840392
O68	O	1.843726	0.192416	1.090392
C69	C	0.936965	-0.380882	0.301919
C70	C	1.186965	-0.130882	0.551919
C71	C	1.436965	0.119118	0.801919
C72	C	1.686965	0.369118	1.051919
C73	C	0.849108	-0.380890	0.301921
C74	C	1.099108	-0.130890	0.551921
C75	C	1.349108	0.119110	0.801921
C76	C	1.599108	0.369110	1.051921
C77	C	0.477584	-0.431417	0.261848
C78	C	0.727584	-0.181417	0.511848
C79	C	0.977584	0.068583	0.761848
C80	C	1.227584	0.318583	1.011848
C81	C	0.477681	-0.330465	0.342130
C82	C	0.727681	-0.080465	0.592130
C83	C	0.977681	0.169535	0.842130
C84	C	1.227681	0.419535	1.092130
C85	C	0.560227	-0.330452	0.342115
C86	C	0.810227	-0.080452	0.592115
C87	C	1.060227	0.169548	0.842115
C88	C	1.310227	0.419548	1.092115
C89	C	0.601455	-0.380923	0.301966
C90	C	0.851455	-0.130923	0.551966
C91	C	1.101455	0.119077	0.801966
C92	C	1.351455	0.369077	1.051966
C93	C	0.560138	-0.431407	0.261833
C94	C	0.810138	-0.181407	0.511833
C95	C	1.060138	0.068593	0.761833
C96	C	1.310138	0.318593	1.011833
C97	C	0.601550	-0.279974	0.382252
C98	C	0.851550	-0.029974	0.632252
C99	C	1.101550	0.220026	0.882252
C100	C	1.351550	0.470026	1.132252
C101	C	0.684101	-0.279960	0.382239
C102	C	0.934101	-0.029960	0.632239
C103	C	1.184101	0.220040	0.882239
C104	C	1.434101	0.470040	1.132239
C105	C	0.725331	-0.330427	0.342087
C106	C	0.975331	-0.080427	0.592087
C107	C	1.225331	0.169573	0.842087
C108	C	1.475331	0.419573	1.092087
C109	C	0.684009	-0.380913	0.301951
C110	C	0.934009	-0.130913	0.551951
C111	C	1.184009	0.119087	0.801951
C112	C	1.434009	0.369087	1.051951
C113	C	0.725237	-0.431384	0.261803
C114	C	0.975237	-0.181384	0.511803
C115	C	1.225237	0.068616	0.761803
C116	C	1.475237	0.318616	1.011803
C117	C	0.683916	-0.481866	0.221663
C118	C	0.933916	-0.231866	0.471663
C119	C	1.183916	0.018134	0.721663
C120	C	1.433916	0.268134	0.971663
C121	C	0.601368	-0.481875	0.221681
C122	C	0.851368	-0.231875	0.471681
C123	C	1.101368	0.018125	0.721681
C124	C	1.351368	0.268125	0.971681
C125	C	0.807880	-0.330419	0.342069
C126	C	1.057880	-0.080419	0.592069
C127	C	1.307880	0.169581	0.842069
C128	C	1.557880	0.419581	1.092069
C129	C	0.807791	-0.431374	0.261787
C130	C	1.057791	-0.181374	0.511787
C131	C	1.307791	0.068626	0.761787
C132	C	1.557791	0.318626	1.011787
C133	C	1.142265	-0.586274	0.301928
C134	C	1.392265	-0.336274	0.551928
C135	C	1.642265	-0.086274	0.801928
C136	C	1.892265	0.163726	1.051928
C137	C	1.142309	-0.674131	0.301939
C138	C	1.392309	-0.424131	0.551939
C139	C	1.642309	-0.174131	0.801939
C140	C	1.892309	0.075869	1.051939
C141	C	1.192967	-1.045550	0.342108
C142	C	1.442967	-0.795550	0.592108
C143	C	1.692967	-0.545550	0.842108
C144	C	1.942967	-0.295550	1.092108
C145	C	1.091916	-1.045662	0.261887
C146	C	1.341916	-0.795662	0.511887
C147	C	1.591916	-0.545662	0.761887
C148	C	1.841916	-0.295662	1.011887
C149	C	1.091887	-0.963116	0.261873
C150	C	1.341887	-0.713116	0.511873
C151	C	1.591887	-0.463116	0.761873
C152	C	1.841887	-0.213116	1.011873
C153	C	1.142397	-0.921784	0.301977
C154	C	1.392397	-0.671784	0.551977
C155	C	1.642397	-0.421784	0.801977
C156	C	1.892397	-0.171784	1.051977
C157	C	1.192937	-0.962997	0.342096
C158	C	1.442937	-0.712997	0.592096
C159	C	1.692937	-0.462997	0.842096
C160	C	1.942937	-0.212997	1.092096
C161	C	1.041342	-0.921897	0.221759
C162	C	1.291342	-0.671897	0.471759
C163	C	1.541342	-0.421897	0.721759
C164	C	1.791342	-0.171897	0.971759
C165	C	1.041310	-0.839346	0.221744
C166	C	1.291310	-0.589346	0.471744
C167	C	1.541310	-0.339346	0.721744
C168	C	1.791310	-0.089346	0.971744
C169	C	1.091825	-0.798012	0.261845
C170	C	1.341825	-0.548012	0.511845
C171	C	1.591825	-0.298012	0.761845
C172	C	1.841825	-0.048012	1.011845
C173	C	1.142368	-0.839230	0.301965
C174	C	1.392368	-0.589230	0.551965
C175	C	1.642368	-0.339230	0.801965
C176	C	1.892368	-0.089230	1.051965
C177	C	1.192879	-0.797897	0.342070
C178	C	1.442879	-0.547897	0.592070
C179	C	1.692879	-0.297897	0.842070
C180	C	1.942879	-0.047897	1.092070
C181	C	1.243426	-0.839114	0.382187
C182	C	1.493426	-0.589114	0.632187
C183	C	1.743426	-0.339114	0.882187
C184	C	1.993426	-0.089114	1.132187
C185	C	1.243453	-0.921663	0.382198
C186	C	1.493453	-0.671663	0.632198
C187	C	1.743453	-0.421663	0.882198
C188	C	1.993453	-0.171663	1.132198
C189	C	1.091798	-0.715463	0.261835
C190	C	1.341798	-0.465463	0.511835
C191	C	1.591798	-0.215463	0.761835
C192	C	1.841798	0.034537	1.011835
C193	C	1.192849	-0.715344	0.342058
C194	C	1.442849	-0.465344	0.592058
C195	C	1.692849	-0.215344	0.842058
C196	C	1.942849	0.034656	1.092058
C197	C	1.348499	-0.380934	0.301983
C198	C	1.598499	-0.130934	0.551983
C199	C	1.848499	0.119066	0.801983
C200	C	2.098499	0.369066	1.051983
C201	C	1.436356	-0.380946	0.301997
C202	C	1.686356	-0.130946	0.551997
C203	C	1.936356	0.119054	0.801997
C204	C	2.186356	0.369054	1.051997
C205	C	1.142396	-0.380892	0.465374
C206	C	1.392396	-0.130892	0.715374
C207	C	1.642396	0.119108	0.965374
C208	C	1.892396	0.369108	1.215374
C209	C	1.142424	-0.380885	0.535016
C210	C	1.392424	-0.130885	0.785016
C211	C	1.642424	0.119115	1.035016
C212	C	1.892424	0.369115	1.285016
C213	C	1.142419	-0.174740	0.301988
C214	C	1.392419	0.075260	0.551988
C215	C	1.642419	0.325260	0.801988
C216	C	1.892419	0.575260	1.051988
C217	C	1.142456	-0.086883	0.302003
C218	C	1.392456	0.163117	0.552003
C219	C	1.642456	0.413117	0.802003
C220	C	1.892456	0.663117	1.052003
C221	C	1.142311	-0.380867	0.139163
C222	C	1.392311	-0.130867	0.389163
C223	C	1.642311	0.119133	0.639163
C224	C	1.892311	0.369133	0.889163
C225	C	1.142436	-0.380651	0.069522
C226	C	1.392436	-0.130651	0.319522
C227	C	1.642436	0.119349	0.569522
C228	C	1.892436	0.369349	0.819522
C229	C	1.192999	-0.330334	0.567747
C230	C	1.442999	-0.080334	0.817747
C231	C	1.692999	0.169666	1.067747
C232	C	1.942999	0.419666	1.317747
C233	C	1.192998	-0.330300	0.633182
C234	C	1.442998	-0.080300	0.883182
C235	C	1.692998	0.169700	1.133182
C236	C	1.942998	0.419700	1.383182
C237	C	1.142431	-0.380831	0.665884
C238	C	1.392431	-0.130831	0.915884
C239	C	1.642431	0.119169	1.165884
C240	C	1.892431	0.369169	1.415884
C241	C	1.091846	-0.431385	0.633145
C242	C	1.341846	-0.181385	0.883145
C243	C	1.591846	0.068615	1.133145
C244	C	1.841846	0.318615	1.383145
C245	C	1.091843	-0.431412	0.567711
C246	C	1.341843	-0.181412	0.817711
C247	C	1.591843	0.068588	1.067711
C248	C	1.841843	0.318588	1.317711
C249	C	1.136166	-0.452002	0.769550
C250	C	1.386166	-0.202002	1.019550
C251	C	1.636166	0.047998	1.269550
C252	C	1.886166	0.297998	1.519550
C253	C	1.136175	-0.451976	0.834983
C254	C	1.386175	-0.201976	1.084983
C255	C	1.636175	0.048024	1.334983
C256	C	1.886175	0.298024	1.584983
C257	C	1.142435	-0.380748	0.867705
C258	C	1.392435	-0.130748	1.117705
C259	C	1.642435	0.119252	1.367705
C260	C	1.892435	0.369252	1.617705
C261	C	1.148704	-0.309542	0.834985
C262	C	1.398704	-0.059542	1.084985
C263	C	1.648704	0.190458	1.334985
C264	C	1.898704	0.440458	1.584985
C265	C	1.148701	-0.309569	0.769551
C266	C	1.398701	-0.059569	1.019551
C267	C	1.648701	0.190431	1.269551
C268	C	1.898701	0.440431	1.519551
C269	C	1.142428	-0.380807	0.736836
C270	C	1.392428	-0.130807	0.986836
C271	C	1.642428	0.119193	1.236836
C272	C	1.892428	0.369193	1.486836
C273	C	1.193011	-0.330156	0.971388
C274	C	1.443011	-0.080156	1.221388
C275	C	1.693011	0.169844	1.471388
C276	C	1.943011	0.419844	1.721388
C277	C	1.193005	-0.330121	1.036825
C278	C	1.443005	-0.080121	1.286825
C279	C	1.693005	0.169879	1.536825
C280	C	1.943005	0.419879	1.786825
C281	C	1.091858	-0.431213	1.036787
C282	C	1.341858	-0.181213	1.286787
C283	C	1.591858	0.068787	1.536787
C284	C	1.841858	0.318787	1.786787
C285	C	1.091860	-0.431241	0.971351
C286	C	1.341860	-0.181241	1.221351
C287	C	1.591860	0.068759	1.471351
C288	C	1.841860	0.318759	1.721351
C289	C	1.142441	-0.380714	0.938656
C290	C	1.392441	-0.130714	1.188656
C291	C	1.642441	0.119286	1.438656
C292	C	1.892441	0.369286	1.688656
H293	H	0.841353	-0.472472	0.229091
H294	H	1.091353	-0.222472	0.479091
H295	H	1.341353	0.027528	0.729091
H296	H	1.591353	0.277528	0.979091
H297	H	1.234180	-0.289132	0.659837
H298	H	1.484180	-0.039132	0.909837
H299	H	1.734180	0.210868	1.159837
H300	H	1.984180	0.460868	1.409837
H301	H	1.050789	-1.079320	0.229238
H302	H	1.300789	-0.829320	0.479238
H303	H	1.550789	-0.579320	0.729238
H304	H	1.800789	-0.329320	0.979238
H305	H	1.233984	-0.681696	0.374714
H306	H	1.483984	-0.431696	0.624714
H307	H	1.733984	-0.181696	0.874714
H308	H	1.983984	0.068304	1.124714
Cl309	Cl	1.306988	-0.973482	0.432629
Cl310	Cl	1.556988	-0.723482	0.682629
Cl311	Cl	1.806988	-0.473482	0.932629
Cl312	Cl	2.056988	-0.223482	1.182629
Cl313	Cl	0.549717	-0.216540	0.432729
Cl314	Cl	0.799717	0.033460	0.682729
Cl315	Cl	1.049717	0.283460	0.932729
Cl316	Cl	1.299717	0.533460	1.182729
H317	H	1.000217	-0.955556	0.189110
H318	H	1.250217	-0.705556	0.439110
H319	H	1.500217	-0.455556	0.689110
H320	H	1.750217	-0.205556	0.939110
H321	H	0.717738	-0.238854	0.414922
H322	H	0.967738	0.011146	0.664922
H323	H	1.217738	0.261146	0.914922
H324	H	1.467738	0.511146	1.164922
H325	H	0.717495	-0.522964	0.188978
H326	H	0.967495	-0.272964	0.438978
H327	H	1.217495	-0.022964	0.688978
H328	H	1.467495	0.227036	0.938978
H329	H	0.841519	-0.289319	0.374751
H330	H	1.091519	-0.039319	0.624751
H331	H	1.341519	0.210681	0.874751
H332	H	1.591519	0.460681	1.124751
Cl333	Cl	1.256582	-0.266810	0.526647
Cl334	Cl	1.506582	-0.016810	0.776647
Cl335	Cl	1.756582	0.233190	1.026647
Cl336	Cl	2.006582	0.483190	1.276647
H337	H	1.050656	-0.472576	0.541062
H338	H	1.300656	-0.222576	0.791062
H339	H	1.550656	0.027424	1.041062
H340	H	1.800656	0.277424	1.291062
Cl341	Cl	1.128319	-0.541558	0.728421
Cl342	Cl	1.378319	-0.291558	0.978421
Cl343	Cl	1.628319	-0.041558	1.228421
Cl344	Cl	1.878319	0.208442	1.478421
Cl345	Cl	1.156578	-0.219991	0.876113
Cl346	Cl	1.406578	0.030009	1.126113
Cl347	Cl	1.656578	0.280009	1.376113
Cl348	Cl	1.906578	0.530009	1.626113
H349	H	0.567717	-0.522974	0.189001
H350	H	0.817717	-0.272974	0.439001
H351	H	1.067717	-0.022974	0.689001
H352	H	1.317717	0.227026	0.939001
H353	H	1.284548	-0.805452	0.414843
H354	H	1.534548	-0.555452	0.664843
H355	H	1.784548	-0.305452	0.914843
H356	H	2.034548	-0.055452	1.164843
H357	H	1.234123	-1.079113	0.374769
H358	H	1.484123	-0.829113	0.624769
H359	H	1.734123	-0.579113	0.874769
H360	H	1.984123	-0.329113	1.124769
H361	H	0.443937	-0.472516	0.229166
H362	H	0.693937	-0.222516	0.479166
H363	H	0.943937	0.027484	0.729166
H364	H	1.193937	0.277484	0.979166
Cl365	Cl	0.977765	-0.787538	0.171313
Cl366	Cl	1.227765	-0.537538	0.421313
Cl367	Cl	1.477765	-0.287538	0.671313
Cl368	Cl	1.727765	-0.037538	0.921313
Cl369	Cl	0.425850	-0.267027	0.392606
Cl370	Cl	0.675850	-0.017027	0.642606
Cl371	Cl	0.925850	0.232973	0.892606
Cl372	Cl	1.175850	0.482973	1.142606
Cl373	Cl	1.256602	-0.266577	1.077973
Cl374	Cl	1.506602	-0.016577	1.327973
Cl375	Cl	1.756602	0.233423	1.577973
Cl376	Cl	2.006602	0.483423	1.827973
H377	H	1.050640	-0.681908	0.229175
H378	H	1.300640	-0.431908	0.479175
H379	H	1.550640	-0.181908	0.729175
H380	H	1.800640	0.068092	0.979175
H381	H	1.050672	-0.472525	0.659775
H382	H	1.300672	-0.222525	0.909775
H383	H	1.550672	0.027475	1.159775
H384	H	1.800672	0.277475	1.409775
H385	H	1.050677	-0.472348	1.063412
H386	H	1.300677	-0.222348	1.313412
H387	H	1.550677	0.027652	1.563412
H388	H	1.800677	0.277652	1.813412
H389	H	1.153803	-0.251591	0.742914
H390	H	1.403803	-0.001591	0.992914
H391	H	1.653803	0.248409	1.242914
H392	H	1.903803	0.498409	1.492914
H393	H	1.234193	-0.289009	0.944766
H394	H	1.484193	-0.039009	1.194766
H395	H	1.734193	0.210991	1.444766
H396	H	1.984193	0.460991	1.694766
Cl397	Cl	1.028280	-0.494797	0.930202
Cl398	Cl	1.278280	-0.244797	1.180202
Cl399	Cl	1.528280	0.005203	1.430202
Cl400	Cl	1.778280	0.255203	1.680202
H401	H	1.131076	-0.509956	0.861618
H402	H	1.381076	-0.259956	1.111618
H403	H	1.631076	-0.009956	1.361618
H404	H	1.881076	0.240044	1.611618
