data_functionalizedCrystal
_audit_creation_method	'MofGen! by Chris Wilmer'
_symmetry_space_group_name_H-M	'P1'
_symmetry_Int_Tables_number	1
_symmetry_cell_setting	triclinic
loop_
_symmetry_equiv_pos_as_xyz
  x,y,z
_cell_length_a	19.188900
_cell_length_b	19.188930
_cell_length_c	13.101018
_cell_angle_alpha	93.366121
_cell_angle_beta	93.334242
_cell_angle_gamma	96.861366
loop_
_atom_site_label
_atom_site_type_symbol
_atom_site_fract_x
_atom_site_fract_y
_atom_site_fract_z
O1	O	-0.922290	0.090944	0.085425
O2	O	-0.422290	0.590944	0.585425
O3	O	-0.718977	0.102699	0.085385
O4	O	-0.218977	0.602699	0.585385
O5	O	-0.826502	-0.004836	0.085386
O6	O	-0.326502	0.495164	0.585386
O7	O	-0.814766	0.198479	0.085424
O8	O	-0.314766	0.698479	0.585424
O9	O	-0.834210	-0.012573	-0.085044
O10	O	-0.334210	0.487427	0.414956
O11	O	-0.726686	0.094961	-0.085045
O12	O	-0.226686	0.594961	0.414955
O13	O	-0.929998	0.083207	-0.085005
O14	O	-0.429998	0.583207	0.414995
Zn15	Zn	-0.829566	0.087855	-0.112085
Zn16	Zn	-0.329566	0.587855	0.387915
Zn17	Zn	-0.819410	0.098050	0.112465
Zn18	Zn	-0.319410	0.598050	0.612465
O19	O	-0.822474	0.190741	-0.085006
O20	O	-0.322474	0.690741	0.414994
C21	C	-0.696820	0.098452	0.000165
C22	C	-0.196820	0.598452	0.500165
C23	C	-0.619316	0.097319	0.000149
C24	C	-0.119316	0.597319	0.500149
C25	C	-0.578722	0.100993	0.093051
C26	C	-0.078722	0.600993	0.593051
C27	C	-0.505898	0.099922	0.093062
C28	C	-0.005898	0.599922	0.593062
C29	C	-0.473672	0.095163	0.000164
C30	C	0.026328	0.595163	0.500164
C31	C	-0.514275	0.091492	-0.092752
C32	C	-0.014275	0.591492	0.407248
C33	C	-0.587096	0.092571	-0.092759
C34	C	-0.087096	0.592571	0.407241
N35	N	-0.367779	0.050597	-0.068982
N36	N	0.132221	0.550597	0.431018
N37	N	-0.298601	0.049571	-0.068968
N38	N	0.201399	0.549571	0.431032
C39	C	-0.254264	0.091915	0.000181
C40	C	0.245736	0.591915	0.500181
N41	N	-0.281719	0.135315	0.069331
N42	N	0.218281	0.635315	0.569331
N43	N	-0.350903	0.136337	0.069321
N44	N	0.149097	0.636337	0.569321
C45	C	-0.394709	0.093993	0.000161
C46	C	0.105291	0.593993	0.500161
C47	C	-0.134705	0.094428	0.093101
C48	C	0.365295	0.594428	0.593101
C49	C	-0.061879	0.093361	0.093107
C50	C	0.438121	0.593361	0.593107
C51	C	-0.070259	0.084924	-0.092709
C52	C	0.429741	0.584924	0.407291
C53	C	-0.143082	0.085999	-0.092712
C54	C	0.356918	0.585999	0.407288
C55	C	-0.175302	0.090747	0.000195
C56	C	0.324698	0.590747	0.500195
C57	C	-0.829976	-0.034716	0.000168
C58	C	-0.329976	0.465284	0.500168
C59	C	-0.828836	-0.112220	0.000159
C60	C	-0.328836	0.387780	0.500159
C61	C	-0.891927	-0.157151	0.000167
C62	C	-0.391927	0.342849	0.500167
C63	C	-0.890855	-0.229974	0.000183
C64	C	-0.390855	0.270026	0.500183
C65	C	-0.826688	-0.257864	0.000171
C66	C	-0.326688	0.242136	0.500171
C67	C	-0.763588	-0.212923	0.000169
C68	C	-0.263588	0.287077	0.500169
C69	C	-0.764662	-0.140102	0.000163
C70	C	-0.264662	0.359898	0.500163
N71	N	-0.780264	-0.368497	-0.057839
N72	N	-0.280264	0.131503	0.442161
N73	N	-0.779248	-0.437676	-0.057836
N74	N	-0.279248	0.062324	0.442164
C75	C	-0.823449	-0.477271	0.000191
C76	C	-0.323449	0.022729	0.500191
N77	N	-0.868715	-0.445077	0.058202
N78	N	-0.368715	0.054923	0.558202
N79	N	-0.869733	-0.375893	0.058194
N80	N	-0.369733	0.124107	0.558194
C81	C	-0.825517	-0.336826	0.000178
C82	C	-0.325517	0.163174	0.500178
C83	C	-0.885382	-0.601165	0.000218
C84	C	-0.385382	-0.101165	0.500218
C85	C	-0.884307	-0.673989	0.000240
C86	C	-0.384307	-0.173989	0.500240
C87	C	-0.757039	-0.656937	0.000216
C88	C	-0.257039	-0.156937	0.500216
C89	C	-0.758116	-0.584115	0.000204
C90	C	-0.258116	-0.084115	0.500204
C91	C	-0.822289	-0.556234	0.000200
C92	C	-0.322289	-0.056234	0.500200
C93	C	0.047845	0.087457	0.000210
C94	C	0.547845	0.587457	0.500210
C95	C	-0.029659	0.088603	0.000208
C96	C	0.470341	0.588603	0.500208
C97	C	-0.819000	0.220621	0.000214
C98	C	-0.319000	0.720621	0.500214
C99	C	-0.820140	0.298126	0.000230
C100	C	-0.320140	0.798126	0.500230
N101	N	-0.812479	0.105002	0.265714
N102	N	-0.312479	0.605002	0.765714
N103	N	-0.836502	0.080898	-0.265333
N104	N	-0.336502	0.580898	0.234667
C105	C	-0.845935	0.071442	0.525623
C106	C	-0.345935	0.571442	1.025623
C107	C	-0.803049	0.114455	0.474750
C108	C	-0.303049	0.614455	0.974750
C109	C	-0.808297	0.109194	0.358431
C110	C	-0.308297	0.609194	0.858431
C111	C	-0.840687	0.076702	0.641953
C112	C	-0.340687	0.576702	1.141953
H113	H	-0.044021	0.081053	-0.168348
H114	H	0.455979	0.581053	0.331652
Br115	Br	-0.642192	0.087586	-0.218852
Br116	Br	-0.142192	0.587586	0.281148
Br117	Br	-0.672487	-0.523134	0.000193
Br118	Br	-0.172487	-0.023134	0.500193
H119	H	-0.160939	0.098302	0.168752
H120	H	0.339061	0.598302	0.668752
Br121	Br	-0.913695	0.003482	0.452620
Br122	Br	-0.413695	0.503482	0.952620
H123	H	-0.604950	0.104860	0.168704
H124	H	-0.104950	0.604860	0.668704
Br125	Br	-0.450794	0.104910	0.219153
Br126	Br	0.049206	0.604910	0.719153
H127	H	-0.713284	-0.103518	0.000157
H128	H	-0.213284	0.396482	0.500157
Br129	Br	-0.470541	0.085041	-0.218829
Br130	Br	0.029459	0.585041	0.281171
Br131	Br	-0.735283	0.182417	0.547758
Br132	Br	-0.235283	0.682417	1.047758
H133	H	-0.028828	0.096357	0.168763
H134	H	0.471172	0.596357	0.668763
H135	H	-0.937636	-0.578463	0.000219
H136	H	-0.437636	-0.078463	0.500219
Br137	Br	-0.969938	-0.734968	0.000261
Br138	Br	-0.469938	-0.234968	0.500261
H139	H	-0.711343	-0.235636	0.000162
H140	H	-0.211343	0.264364	0.500162
H141	H	-0.944182	-0.134455	0.000167
H142	H	-0.444182	0.365545	0.500167
Br143	Br	-0.198178	0.081010	-0.218802
Br144	Br	0.301822	0.581010	0.281198
H145	H	-0.942233	-0.266563	0.000193
H146	H	-0.442233	0.233437	0.500193
H147	H	-0.704793	-0.679644	0.000212
H148	H	-0.204793	-0.179644	0.500212
