data_functionalizedCrystal
_audit_creation_method	'MofGen! by Chris Wilmer'
_symmetry_space_group_name_H-M	'P1'
_symmetry_Int_Tables_number	1
_symmetry_cell_setting	triclinic
loop_
_symmetry_equiv_pos_as_xyz
  x,y,z
_cell_length_a	19.077105
_cell_length_b	13.032721
_cell_length_c	19.077579
_cell_angle_alpha	95.158020
_cell_angle_beta	85.300666
_cell_angle_gamma	95.201395
loop_
_atom_site_label
_atom_site_type_symbol
_atom_site_fract_x
_atom_site_fract_y
_atom_site_fract_z
Zn1	Zn	1.056664	-0.450631	-0.478900
Zn2	Zn	1.037074	-0.630372	-0.375789
Zn3	Zn	0.934048	-0.450648	-0.356297
Zn4	Zn	0.925072	-0.616941	-0.487804
O5	O	0.988214	-0.537148	-0.424698
O6	O	1.152254	-0.480087	-0.469653
O7	O	1.018966	-0.612160	-0.275015
O8	O	0.962267	-0.305829	-0.360677
O9	O	1.137862	-0.612143	-0.393898
O10	O	1.052353	-0.305817	-0.450753
O11	O	0.943272	-0.480117	-0.260695
O12	O	0.834668	-0.467094	-0.369311
O13	O	0.946970	-0.589251	-0.584811
O14	O	0.828074	-0.589268	-0.465928
O15	O	1.043650	-0.467064	-0.578270
O16	O	1.010263	-0.773407	-0.402531
O17	O	0.927975	-0.763539	-0.484829
C18	C	0.805912	-0.526726	-0.416471
C19	C	0.727921	-0.522292	-0.412971
C20	C	0.687854	-0.583922	-0.461567
C21	C	0.614574	-0.579741	-0.458281
C22	C	0.581362	-0.513935	-0.406393
C23	C	0.621434	-0.452298	-0.357794
C24	C	0.694713	-0.456474	-0.361085
C25	C	0.362570	-0.494609	-0.391168
C26	C	0.289285	-0.490440	-0.387879
C27	C	0.282430	-0.617882	-0.488367
C28	C	0.355711	-0.622057	-0.491650
C29	C	0.395777	-0.560416	-0.443053
N30	N	0.506458	-0.509663	-0.403031
N31	N	0.470680	-0.564683	-0.446419
C32	C	0.966039	-0.806022	-0.446777
C33	C	0.956617	-0.921050	-0.456250
C34	C	0.993170	-0.977182	-0.419787
C35	C	0.983434	-1.096069	-0.429576
C36	C	1.171229	-0.547611	-0.432957
C37	C	1.249219	-0.552070	-0.436476
C38	C	0.996494	-0.526657	-0.607712
C39	C	1.000022	-0.522187	-0.685701
C40	C	1.010496	-0.267224	-0.402548
C41	C	1.019992	-0.152198	-0.393109
C42	C	1.025321	-0.490199	-1.124337
C43	C	1.022001	-0.494405	-1.051057
C44	C	0.970002	-0.560118	-1.017826
C45	C	0.921324	-0.621637	-1.057880
C46	C	0.924648	-0.617437	-1.131158
C47	C	0.954668	-0.579506	-0.799033
C48	C	0.951347	-0.583700	-0.725749
C49	C	1.052024	-0.456468	-0.718932
C50	C	1.055341	-0.452269	-0.792212
C51	C	1.006665	-0.513792	-0.832259
N52	N	0.966606	-0.564415	-0.942923
N53	N	1.010065	-0.509500	-0.907161
C54	C	0.980014	-0.547525	-0.242391
C55	C	0.976646	-0.551712	-0.164384
H56	H	0.594388	-0.398713	-0.315549
O57	O	0.723680	-0.654886	-0.517537
H58	H	0.702372	-0.735976	-0.511461
O59	O	1.074500	-0.428055	-1.007863
H60	H	1.104865	-0.478332	-0.979893
O61	O	0.239207	-0.684417	-0.540745
H62	H	0.274610	-0.730904	-0.577362
H63	H	1.067660	-0.436682	-1.151387
H64	H	1.097686	-0.398763	-0.819263
H65	H	0.915032	-0.629601	-0.831631
H66	H	0.944931	-1.136025	-0.468046
O67	O	0.905616	-0.973975	-0.507202
H68	H	0.880324	-0.914773	-0.532427
O69	O	1.104532	-0.390127	-0.675742
H70	H	1.093493	-0.404093	-0.619205
H71	H	0.727336	-0.406282	-0.321516
O72	O	1.044190	-0.924266	-0.368850
H73	H	1.043836	-0.839191	-0.369159
H74	H	1.058500	-1.112244	-0.354645
H75	H	0.908987	-0.637190	-0.698692
H76	H	0.878989	-0.675147	-1.030818
H77	H	0.885012	-0.667528	-1.163764
H78	H	0.382746	-0.675645	-0.533901
H79	H	0.581955	-0.629928	-0.497852
H80	H	0.262247	-0.436841	-0.345630
H81	H	0.395182	-0.444424	-0.351592
