data_functionalizedCrystal
_audit_creation_method	'MofGen! by Chris Wilmer'
_symmetry_space_group_name_H-M	'P1'
_symmetry_Int_Tables_number	1
_symmetry_cell_setting	triclinic
loop_
_symmetry_equiv_pos_as_xyz
  x,y,z
_cell_length_a	6.817900
_cell_length_b	12.200875
_cell_length_c	12.200722
_cell_angle_alpha	93.008822
_cell_angle_beta	107.140920
_cell_angle_gamma	107.143593
loop_
_atom_site_label
_atom_site_type_symbol
_atom_site_fract_x
_atom_site_fract_y
_atom_site_fract_z
V1	V	-4.086871	-0.357783	-0.158974
O2	O	-4.054179	-0.350847	0.007371
O3	O	-4.056310	-0.355457	-0.314960
O4	O	-4.056323	-0.513769	-0.156646
O5	O	-4.054166	-0.191438	-0.152039
V6	V	-4.565875	-0.337872	-0.139063
O7	O	-4.358044	-0.401459	-0.202649
O8	O	-4.744899	-0.294196	-0.095387
O9	O	-4.373230	-0.340199	0.016924
O10	O	-4.715964	-0.344808	-0.305408
O11	O	-4.715977	-0.504217	-0.145998
O12	O	-4.373217	-0.181886	-0.141391
C13	C	-3.905073	-0.349844	-0.352982
C14	C	-3.961491	-0.348981	-0.480504
C15	C	-4.007301	-0.348270	-0.584064
C16	C	-4.064792	-0.347384	-0.713986
C17	C	-3.905088	-0.551786	-0.151036
C18	C	-3.961513	-0.679306	-0.150165
C19	C	-4.064778	-0.912780	-0.148571
C20	C	-4.007305	-0.782858	-0.149457
C21	C	-4.187809	-0.345808	0.054940
C22	C	-4.110630	-0.346678	0.182460
C23	C	-4.187793	-0.143863	-0.147005
C24	C	-4.110606	-0.016342	-0.147870
