data_functionalizedCrystal
_audit_creation_method	'MofGen! by Chris Wilmer'
_symmetry_space_group_name_H-M	'P1'
_symmetry_Int_Tables_number	1
_symmetry_cell_setting	triclinic
loop_
_symmetry_equiv_pos_as_xyz
  x,y,z
_cell_length_a	16.120530
_cell_length_b	18.050589
_cell_length_c	16.120297
_cell_angle_alpha	87.124343
_cell_angle_beta	89.871860
_cell_angle_gamma	87.123928
loop_
_atom_site_label
_atom_site_type_symbol
_atom_site_fract_x
_atom_site_fract_y
_atom_site_fract_z
Zn1	Zn	1.247404	-0.376248	0.534587
Zn2	Zn	1.747404	0.123752	1.034587
Zn3	Zn	1.254344	-0.494473	0.395537
Zn4	Zn	1.754344	0.005527	0.895537
Zn5	Zn	1.115396	-0.363698	0.388504
Zn6	Zn	1.615396	0.136302	0.888504
Zn7	Zn	1.108300	-0.493789	0.527506
Zn8	Zn	1.608300	0.006211	1.027506
O9	O	1.181361	-0.432052	0.461533
O10	O	1.681361	0.067948	0.961533
O11	O	1.364691	-0.397469	0.522048
O12	O	1.864691	0.102531	1.022048
O13	O	1.241786	-0.472159	0.278238
O14	O	1.741786	0.027841	0.778238
O15	O	1.132972	-0.261442	0.407903
O16	O	1.632972	0.238558	0.907903
O17	O	1.369789	-0.484328	0.419888
O18	O	1.869789	0.015672	0.919888
O19	O	1.229959	-0.270662	0.515230
O20	O	1.729959	0.229338	1.015230
O21	O	1.139701	-0.376080	0.273071
O22	O	1.639701	0.123920	0.773071
O23	O	0.998089	-0.375417	0.401037
O24	O	1.498089	0.124583	0.901037
O25	O	1.120879	-0.483162	0.644811
O26	O	1.620879	0.016838	1.144811
O27	O	0.992876	-0.470994	0.503160
O28	O	1.492876	0.029006	1.003160
O29	O	1.223078	-0.396806	0.650014
O30	O	1.723078	0.103194	1.150014
O31	O	1.234906	-0.598303	0.413022
O32	O	1.734906	-0.098303	0.913022
O33	O	1.127608	-0.597800	0.509979
O34	O	1.627608	-0.097800	1.009979
C35	C	0.965310	-0.421770	0.450568
C36	C	1.465310	0.078230	0.950568
C37	C	0.872881	-0.417390	0.445896
C38	C	1.372881	0.082610	0.945896
C39	C	0.703653	-0.409376	0.437374
C40	C	1.203653	0.090624	0.937374
C41	C	0.659907	-0.454785	0.485754
C42	C	1.159907	0.045215	0.985754
C43	C	0.565742	-0.450326	0.481012
C44	C	1.065742	0.049674	0.981012
C45	C	0.797826	-0.413834	0.442115
C46	C	1.297826	0.086166	0.942115
C47	C	1.181261	-0.624999	0.461515
C48	C	1.681261	-0.124999	0.961515
C49	C	1.181293	-0.707547	0.461538
C50	C	1.681293	-0.207547	0.961538
C51	C	1.123001	-0.906753	0.514247
C52	C	1.623001	-0.406753	1.014247
C53	C	1.106578	-0.951975	0.437341
C54	C	1.606578	-0.451975	0.937341
C55	C	1.181375	-0.858682	0.461553
C56	C	1.681375	-0.358682	0.961553
C57	C	1.197838	-0.960544	0.538470
C58	C	1.697838	-0.460544	1.038470
C59	C	1.181451	-1.004671	0.461574
C60	C	1.681451	-0.504671	0.961574
C61	C	1.164914	-0.902813	0.384605
C62	C	1.664914	-0.402813	0.884605
C63	C	1.256207	-0.911381	0.485787
C64	C	1.756207	-0.411381	0.985787
C65	C	1.239815	-0.956580	0.408830
C66	C	1.739815	-0.456580	0.908830
C67	C	1.181328	-0.774581	0.461542
C68	C	1.681328	-0.274581	0.961542
C69	C	1.181498	-1.088770	0.461577
C70	C	1.681498	-0.588770	0.961577
C71	C	1.398256	-0.442375	0.472543
C72	C	1.898256	0.057625	0.972543
C73	C	1.490683	-0.446774	0.477234
C74	C	1.990683	0.053226	0.977234
C75	C	1.170413	-0.441308	0.678428
C76	C	1.670413	0.058692	1.178428
C77	C	1.165748	-0.445252	0.770856
C78	C	1.665748	0.054748	1.270856
C79	C	1.181483	-0.238354	0.461572
C80	C	1.681483	0.261646	0.961572
C81	C	1.181535	-0.155811	0.461588
C82	C	1.681535	0.344189	0.961588
C83	C	1.192314	-0.422781	0.245485
C84	C	1.692314	0.077219	0.745485
C85	C	1.197141	-0.418635	0.153066
C86	C	1.697141	0.081365	0.653066
C87	C	1.157199	-0.452435	0.940081
C88	C	1.657199	0.047565	1.440081
C89	C	1.205687	-0.411454	0.983846
C90	C	1.705687	0.088546	1.483846
C91	C	1.200930	-0.415451	1.078009
C92	C	1.700930	0.084549	1.578009
C93	C	1.161955	-0.448439	0.845910
C94	C	1.661955	0.051561	1.345910
H95	H	0.670386	-0.367156	0.392397
H96	H	1.170386	0.132844	0.892397
O97	O	1.259359	-0.365962	0.944097
O98	O	1.759359	0.134038	1.444097
C99	C	1.214529	-0.313639	0.891468
C100	C	1.714529	0.186361	1.391468
H101	H	1.152138	-0.336298	0.875342
H102	H	1.652138	0.163702	1.375342
H103	H	1.203764	-0.259566	0.924428
H104	H	1.703764	0.240434	1.424428
C105	C	1.341009	-0.271087	0.831044
C106	C	1.841009	0.228913	1.331044
C107	C	1.264382	-0.298920	0.811233
C108	C	1.764382	0.201080	1.311233
H109	H	1.371762	-0.262005	0.781552
H110	H	1.871762	0.237995	1.281552
H111	H	1.371213	-0.306336	0.866503
H112	H	1.871213	0.193664	1.366503
H113	H	1.332027	-0.226030	0.858512
H114	H	1.832027	0.273970	1.358512
H115	H	1.273365	-0.343981	0.783775
H116	H	1.773365	0.156019	1.283775
H117	H	1.234181	-0.263678	0.775767
H118	H	1.734181	0.236322	1.275767
H119	H	1.112120	-0.490519	0.973329
H120	H	1.612120	0.009481	1.473329
O121	O	1.064145	-0.880624	0.567426
O122	O	1.564145	-0.380624	1.067426
C123	C	1.102341	-0.842129	0.629775
C124	C	1.602341	-0.342129	1.129775
H125	H	1.170326	-0.862247	0.635854
H126	H	1.670326	-0.362247	1.135854
H127	H	1.098290	-0.780044	0.612425
H128	H	1.598290	-0.280044	1.112425
C129	C	0.974199	-0.832063	0.705640
C130	C	1.474199	-0.332063	1.205640
C131	C	1.057698	-0.856776	0.713111
C132	C	1.557698	-0.356776	1.213111
H133	H	0.946660	-0.841094	0.757045
H134	H	1.446660	-0.341094	1.257045
H135	H	0.948464	-0.857995	0.663633
H136	H	1.448464	-0.357995	1.163633
H137	H	0.970835	-0.780326	0.691178
H138	H	1.470835	-0.280326	1.191178
H139	H	1.061062	-0.908513	0.727562
H140	H	1.561062	-0.408513	1.227562
H141	H	1.083432	-0.830853	0.755122
H142	H	1.583432	-0.330853	1.255122
O143	O	1.031065	-0.973395	0.413026
O144	O	1.531065	-0.473395	0.913026
C145	C	0.969656	-0.948002	0.468720
C146	C	1.469656	-0.448002	0.968720
H147	H	0.999611	-0.938255	0.530971
H148	H	1.499611	-0.438255	1.030971
H149	H	0.938620	-0.893772	0.442319
H150	H	1.438620	-0.393772	0.942319
C151	C	0.867247	-1.018661	0.404674
C152	C	1.367247	-0.518661	0.904674
C153	C	0.904037	-1.006695	0.481134
C154	C	1.404037	-0.506695	0.981134
H155	H	0.826767	-1.054863	0.412329
H156	H	1.326767	-0.554863	0.912329
H157	H	0.908618	-1.035766	0.367149
H158	H	1.408618	-0.535766	0.867149
H159	H	0.841390	-0.973464	0.382680
H160	H	1.341390	-0.473464	0.882680
H161	H	0.929901	-1.051889	0.503121
H162	H	1.429901	-0.551889	1.003121
H163	H	0.862668	-0.989598	0.518663
H164	H	1.362668	-0.489598	1.018663
H165	H	0.693175	-0.497008	0.530735
H166	H	1.193175	0.002992	1.030735
O167	O	1.148221	-0.872713	0.307045
O168	O	1.648221	-0.372713	0.807045
C169	C	1.148367	-0.794655	0.307973
C170	C	1.648367	-0.294655	0.807973
H171	H	1.135710	-0.776589	0.373756
H172	H	1.635710	-0.276589	0.873756
H173	H	1.211512	-0.775351	0.286464
H174	H	1.711512	-0.275351	0.786464
C175	C	1.095872	-0.782061	0.168384
C176	C	1.595872	-0.282061	0.668384
C177	C	1.080319	-0.759870	0.249179
C178	C	1.580319	-0.259870	0.749179
H179	H	1.053899	-0.760602	0.132115
H180	H	1.553899	-0.260602	0.632115
H181	H	1.095776	-0.834649	0.167757
H182	H	1.595776	-0.334649	0.667757
H183	H	1.148494	-0.765973	0.150472
H184	H	1.648494	-0.265973	0.650472
H185	H	1.027703	-0.775967	0.267094
H186	H	1.527703	-0.275967	0.767094
H187	H	1.080405	-0.707283	0.249808
H188	H	1.580405	-0.207283	0.749808
O189	O	1.298661	-0.982470	0.355502
O190	O	1.798661	-0.482470	0.855502
C191	C	1.281041	-0.952749	0.274541
C192	C	1.781041	-0.452749	0.774541
H193	H	1.212126	-0.935671	0.269400
H194	H	1.712126	-0.435671	0.769400
H195	H	1.319288	-0.902093	0.261023
H196	H	1.819288	-0.402093	0.761023
C197	C	1.387861	-1.032757	0.217623
C198	C	1.887861	-0.532757	0.717623
C199	C	1.303217	-1.011787	0.211307
C200	C	1.803217	-0.511787	0.711307
H201	H	1.401544	-1.069173	0.178616
H202	H	1.901544	-0.569173	0.678616
H203	H	1.399735	-1.052779	0.272168
H204	H	1.899735	-0.552779	0.772168
H205	H	1.419724	-0.990538	0.206360
H206	H	1.919724	-0.490538	0.706360
H207	H	1.271356	-1.054004	0.222580
H208	H	1.771356	-0.554004	0.722580
H209	H	1.291338	-0.991774	0.156762
H210	H	1.791338	-0.491774	0.656762
H211	H	1.319438	-0.893389	0.506301
H212	H	1.819438	-0.393389	1.006301
H213	H	1.211733	-0.985762	0.603509
H214	H	1.711733	-0.485762	1.103509
