data_functionalizedCrystal
_audit_creation_method	'MofGen! by Chris Wilmer'
_symmetry_space_group_name_H-M	'P1'
_symmetry_Int_Tables_number	1
_symmetry_cell_setting	triclinic
loop_
_symmetry_equiv_pos_as_xyz
  x,y,z
_cell_length_a	10.540535
_cell_length_b	15.711784
_cell_length_c	14.750779
_cell_angle_alpha	73.498094
_cell_angle_beta	102.773473
_cell_angle_gamma	102.056222
loop_
_atom_site_label
_atom_site_type_symbol
_atom_site_fract_x
_atom_site_fract_y
_atom_site_fract_z
O1	O	1.722102	0.140771	-0.079767
O2	O	1.357879	0.152288	-0.079780
O3	O	1.491524	0.020399	-0.079774
O4	O	1.588457	0.272660	-0.079773
O5	O	1.529306	-0.016880	0.079879
O6	O	1.395661	0.115009	0.079872
O7	O	1.759884	0.103491	0.079885
Zn8	Zn	1.583771	0.103331	0.105227
Zn9	Zn	1.533992	0.152448	-0.105121
O10	O	1.626239	0.235381	0.079879
C11	C	1.494580	-0.030542	0.000050
C12	C	1.447380	-0.126789	0.000044
C13	C	1.329077	0.132786	0.000045
C14	C	1.186964	0.130206	0.000040
C15	C	1.269694	-0.252829	0.000032
C16	C	1.314058	-0.162391	0.000037
C17	C	1.536393	-0.181621	0.000049
C18	C	1.492049	-0.272063	0.000048
C19	C	1.358698	-0.307660	0.000038
C20	C	1.581053	-0.326894	0.000055
C21	C	1.536710	-0.417328	0.000049
C22	C	1.403364	-0.452931	0.000036
C23	C	1.314356	-0.398094	0.000032
C24	C	1.714401	-0.291294	0.000058
C25	C	1.803405	-0.346125	0.000065
C26	C	1.759065	-0.436562	0.000066
C27	C	1.625719	-0.472165	0.000053
C28	C	1.848074	-0.491399	0.000070
C29	C	1.803731	-0.581833	0.000063
C30	C	1.581377	-0.562598	0.000047
C31	C	1.106858	0.033911	0.000043
C32	C	0.959120	0.031109	0.000415
C33	C	1.018991	0.152913	0.091043
C34	C	1.166697	0.154947	0.091110
C35	C	1.124247	0.198743	-0.090451
C36	C	0.975611	0.194566	-0.091637
C37	C	1.788685	0.122994	0.000059
C38	C	1.930797	0.125575	0.000058
C39	C	1.623183	0.286322	0.000053
C40	C	1.670381	0.382571	0.000053
N41	N	1.617753	0.069809	0.248784
N42	N	1.500017	0.185963	-0.248679
C43	C	1.405093	0.279546	0.600593
C44	C	1.428917	0.256062	0.701093
C45	C	1.547315	0.139318	0.701061
C46	C	1.523495	0.162789	0.600559
C47	C	1.452385	0.232905	0.550332
C48	C	1.570787	0.116148	0.550299
C49	C	1.546975	0.139621	0.449805
C50	C	1.475871	0.209735	0.399572
C51	C	1.428572	0.256377	0.449839
C52	C	1.641906	0.046037	0.600527
C53	C	1.689198	-0.000605	0.550267
C54	C	1.665378	0.022864	0.449771
C55	C	1.594273	0.092978	0.399538
C56	C	1.712676	-0.023779	0.399504
C57	C	1.688863	-0.000306	0.299011
C58	C	1.570461	0.116451	0.299044
H59	H	1.472795	-0.591588	0.000060
O60	O	1.947231	-0.307731	0.000078
H61	H	1.963116	-0.235637	0.000087
H62	H	1.370655	0.313466	0.408943
O63	O	1.119889	0.005073	-0.086356
H64	H	1.164654	-0.057353	-0.062099
H65	H	1.149333	-0.017660	0.065194
H66	H	1.605219	0.082231	0.741967
O67	O	1.899724	-0.640983	0.000084
H68	H	1.946167	-0.613042	-0.064975
O69	O	1.667600	0.020713	0.708917
H70	H	1.572338	0.000017	0.735432
H71	H	1.956647	-0.462400	0.000071
O72	O	1.493746	0.192065	0.244845
H73	H	1.545901	0.255257	0.264114
H74	H	0.956267	0.264799	-0.097414
H75	H	1.727375	-0.038286	0.258088
H76	H	1.222490	0.224630	0.094998
O77	O	0.877098	0.000923	-0.085942
H78	H	0.942839	-0.011802	-0.128346
O79	O	1.765889	-0.076230	0.604439
H80	H	1.774497	-0.084721	0.682763
O81	O	1.140881	0.180271	-0.181836
H82	H	1.198269	0.240351	-0.223573
O83	O	1.195692	0.292863	-0.091635
H84	H	1.275485	0.290891	-0.028124
O85	O	1.450178	0.235048	0.291181
H86	H	1.494336	0.306128	0.264681
O87	O	0.919392	-0.039254	0.087325
H88	H	1.005753	-0.071404	0.129258
O89	O	1.221724	0.090374	0.181544
H90	H	1.142792	0.057987	0.224815
O91	O	0.998747	0.243983	0.095214
H92	H	0.925434	0.270789	0.032332
H93	H	1.347175	0.336635	0.559696
H94	H	0.989139	0.103709	0.159015
O95	O	1.377897	0.306366	0.755307
H96	H	1.324443	0.359058	0.703495
O97	O	1.218049	-0.103256	0.000039
H98	H	1.271280	-0.034389	0.000039
O99	O	0.895493	0.168573	-0.180809
H100	H	0.824618	0.106456	-0.159910
O101	O	1.355532	-0.550473	0.000040
H102	H	1.376442	-0.563282	-0.065023
O103	O	1.170527	-0.436501	0.000024
H104	H	1.116078	-0.383181	0.000017
H105	H	1.770586	-0.080862	0.440411
H106	H	1.161112	-0.281819	0.000045
H107	H	1.644969	-0.152626	0.000061
O108	O	1.762236	-0.193757	0.000074
H109	H	1.710531	-0.150558	-0.064990
