data_functionalizedCrystal
_audit_creation_method	'MofGen! by Chris Wilmer'
_symmetry_space_group_name_H-M	'P1'
_symmetry_Int_Tables_number	1
_symmetry_cell_setting	triclinic
loop_
_symmetry_equiv_pos_as_xyz
  x,y,z
_cell_length_a	10.654558
_cell_length_b	19.188924
_cell_length_c	9.730223
_cell_angle_alpha	89.996615
_cell_angle_beta	90.000400
_cell_angle_gamma	83.815140
loop_
_atom_site_label
_atom_site_type_symbol
_atom_site_fract_x
_atom_site_fract_y
_atom_site_fract_z
O1	O	1.665748	0.098087	-0.114278
O2	O	1.300073	0.107423	-0.114285
O3	O	1.493468	0.001168	-0.114265
O4	O	1.472353	0.204342	-0.114298
O5	O	1.493465	0.001171	0.114315
O6	O	1.300071	0.107426	0.114295
O7	O	1.665746	0.098089	0.114302
Zn8	Zn	1.482908	0.102758	0.150590
Zn9	Zn	1.482911	0.102755	-0.150574
O10	O	1.472351	0.204345	0.114282
C11	C	1.253288	0.106738	0.000004
C12	C	1.113889	0.104683	0.000002
C13	C	1.492784	-0.024846	0.000026
C14	C	1.490736	-0.102364	0.000030
C15	C	0.917413	0.101794	-0.124597
C16	C	1.048395	0.103718	-0.124599
C17	C	1.048397	0.103717	0.124612
C18	C	0.917418	0.101788	0.124612
C19	C	0.851924	0.100835	-0.249206
C20	C	0.917408	0.101800	-0.373816
C21	C	1.048390	0.103725	-0.373818
C22	C	1.113888	0.104684	-0.249209
C23	C	1.489781	-0.138771	-0.124570
C24	C	1.487839	-0.211606	-0.124580
C25	C	1.486877	-0.248034	0.000016
C26	C	1.487824	-0.211618	0.124632
C27	C	1.489754	-0.138783	0.124638
N28	N	1.555308	-0.367247	0.092751
N29	N	1.553478	-0.436438	0.092736
C30	C	1.481060	-0.467481	0.000002
N31	N	1.410557	-0.426722	-0.092736
N32	N	1.412393	-0.357525	-0.092725
C33	C	1.484783	-0.327011	0.000022
C34	C	1.477997	-0.582864	-0.124617
C35	C	1.476047	-0.655700	-0.124622
C36	C	1.476045	-0.655712	0.124593
C37	C	1.477983	-0.582876	0.124595
C38	C	1.478965	-0.546457	-0.000014
C39	C	1.712530	0.098775	0.000010
C40	C	1.851929	0.100830	0.000003
C41	C	1.473035	0.230359	-0.000012
C42	C	1.475083	0.307877	-0.000025
N43	N	1.482915	0.102760	0.356127
N44	N	1.482914	0.102747	-0.356110
C45	C	1.568572	0.055727	0.428062
C46	C	1.568569	0.055718	0.571945
C47	C	1.397248	0.149783	0.571945
C48	C	1.397246	0.149788	0.428065
C49	C	1.654241	0.008699	0.356124
C50	C	1.739905	-0.038338	0.428059
C51	C	1.739902	-0.038346	0.571942
C52	C	1.654234	0.008682	0.643890
H53	H	0.745272	0.099271	-0.249218
H54	H	1.487054	-0.241254	-0.226047
H55	H	1.101735	0.104500	0.226062
H56	H	1.327495	0.188086	0.369495
H57	H	0.864072	0.101014	-0.475268
H58	H	1.220543	0.106247	-0.249220
H59	H	1.101705	0.104504	-0.475282
H60	H	0.864097	0.101016	0.226072
H61	H	1.327501	0.188072	0.630534
H62	H	1.487037	-0.241282	0.226078
H63	H	1.490577	-0.109123	-0.226036
H64	H	1.490526	-0.109141	0.226105
H65	H	1.654254	0.008703	0.238967
H66	H	1.478789	-0.553210	-0.226081
H67	H	1.475263	-0.685341	-0.226090
H68	H	1.475252	-0.685370	0.226042
H69	H	1.478771	-0.553234	0.226057
H70	H	1.809645	-0.076650	0.630510
H71	H	1.809647	-0.076631	0.369472
H72	H	1.654231	0.008667	0.761049
