data_functionalizedCrystal
_audit_creation_method	'MofGen! by Chris Wilmer'
_symmetry_space_group_name_H-M	'P1'
_symmetry_Int_Tables_number	1
_symmetry_cell_setting	triclinic
loop_
_symmetry_equiv_pos_as_xyz
  x,y,z
_cell_length_a	10.489741
_cell_length_b	17.699083
_cell_length_c	16.776229
_cell_angle_alpha	89.998886
_cell_angle_beta	90.006341
_cell_angle_gamma	96.088906
loop_
_atom_site_label
_atom_site_type_symbol
_atom_site_fract_x
_atom_site_fract_y
_atom_site_fract_z
O1	O	0.161296	-1.005134	0.066176
O2	O	0.182281	-0.784893	0.066202
O3	O	-0.013903	-0.900025	0.066184
O4	O	0.357479	-0.890002	0.066194
O5	O	-0.013915	-0.900009	-0.066393
O6	O	0.182269	-0.784877	-0.066375
O7	O	0.161284	-1.005118	-0.066401
Zn8	Zn	0.171774	-0.894995	-0.087437
Zn9	Zn	0.171790	-0.895016	0.087238
O10	O	0.357467	-0.889986	-0.066382
C11	C	0.181523	-0.756683	-0.000083
C12	C	0.179267	-0.672650	-0.000073
C13	C	-0.061427	-0.899260	-0.000104
C14	C	-0.203014	-0.896995	-0.000102
N15	N	0.171763	-0.894987	-0.206648
C16	C	-0.269793	-0.823740	-0.000088
C17	C	-0.362564	-0.858337	-0.065459
C18	C	-0.362527	-0.858370	0.065251
C19	C	-0.293920	-0.931623	-0.065528
C20	C	-0.293874	-0.931645	0.065241
C21	C	-0.386619	-0.966296	-0.000146
C22	C	0.404991	-0.890751	-0.000093
C23	C	0.546578	-0.893016	-0.000089
C24	C	0.162042	-1.033328	-0.000114
C25	C	0.164297	-1.117361	-0.000119
C26	C	0.294422	-0.624782	-0.000070
C27	C	0.292295	-0.545825	-0.000080
C28	C	0.175011	-0.514737	-0.000088
C29	C	0.059847	-0.562611	-0.000094
C30	C	0.061975	-0.641567	-0.000089
C31	C	0.051260	-0.244192	-0.000114
C32	C	0.049140	-0.165230	-0.000116
C33	C	0.281580	-0.148450	-0.000105
C34	C	0.283709	-0.227406	-0.000100
C35	C	0.168545	-0.275273	-0.000110
C36	C	0.170853	-0.360887	-0.000100
C37	C	0.172702	-0.429124	-0.000092
C38	C	0.084928	-0.945983	-0.248373
C39	C	0.084927	-0.945987	-0.331826
C40	C	0.171767	-0.894998	-0.373551
C41	C	0.258606	-0.843996	-0.331820
C42	C	0.258600	-0.843989	-0.248369
C43	C	0.258631	-0.844024	-0.668367
C44	C	0.258633	-0.844037	-0.751824
C45	C	0.084958	-0.946022	-0.751823
C46	C	0.084952	-0.946015	-0.668373
C47	C	0.171786	-0.895011	-0.626649
C48	C	0.171784	-0.895006	-0.536161
C49	C	0.171776	-0.895006	-0.464038
N50	N	0.171791	-0.895030	0.206450
H51	H	-0.393005	-0.827335	-0.120719
H52	H	0.329309	-0.802476	-0.365798
H53	H	-0.392910	-0.827371	0.120523
H54	H	0.379213	-0.252713	-0.000090
N55	N	0.352287	-0.789028	-0.796828
H56	H	0.339113	-0.796776	-0.856024
H57	H	0.442757	-0.798250	-0.782232
H58	H	-0.263400	-0.962621	0.120504
H59	H	-0.263669	-0.962585	-0.120856
H60	H	0.386067	-0.506854	-0.000077
H61	H	-0.219023	-0.763510	-0.000147
N62	N	-0.077361	-0.131693	-0.000138
H63	H	-0.083428	-0.099308	0.049006
H64	H	-0.149924	-0.174036	-0.000178
N65	N	0.405798	-0.096822	-0.000097
H66	H	0.386660	-0.042086	-0.000104
H67	H	0.456923	-0.106963	-0.049239
N68	N	-0.072946	-0.295813	-0.000129
H69	H	-0.147564	-0.264136	-0.000134
H70	H	-0.077133	-0.328941	0.049017
N71	N	-0.066653	-0.529082	-0.000095
H72	H	-0.139281	-0.571389	-0.000097
H73	H	-0.072606	-0.496688	-0.049242
N74	N	0.352276	-0.789011	-0.623371
H75	H	0.407288	-0.756713	-0.662469
H76	H	0.408606	-0.818279	-0.588733
N77	N	-0.062227	-0.693199	-0.000098
H78	H	-0.136850	-0.661526	-0.000103
H79	H	-0.066408	-0.726325	0.049049
H80	H	0.329308	-0.802462	-0.214397
H81	H	0.389929	-0.650088	-0.000063
N82	N	-0.008759	-1.000976	-0.203385
H83	H	-0.065174	-0.971741	-0.168775
H84	H	0.039978	-1.034742	-0.168795
N85	N	-0.453595	-1.046142	-0.000198
H86	H	-0.427513	-1.074046	0.048692
H87	H	-0.428652	-1.073636	-0.049629
H88	H	0.014219	-0.987512	-0.365798
H89	H	0.014243	-0.987537	-0.634402
H90	H	0.014249	-0.987550	-0.785804
