data_functionalizedCrystal
_audit_creation_method	'MofGen! by Chris Wilmer'
_symmetry_space_group_name_H-M	'P1'
_symmetry_Int_Tables_number	1
_symmetry_cell_setting	triclinic
loop_
_symmetry_equiv_pos_as_xyz
  x,y,z
_cell_length_a	6.817900
_cell_length_b	7.190334
_cell_length_c	11.164021
_cell_angle_alpha	87.476864
_cell_angle_beta	70.475193
_cell_angle_gamma	60.611776
loop_
_atom_site_label
_atom_site_type_symbol
_atom_site_fract_x
_atom_site_fract_y
_atom_site_fract_z
V1	V	-4.253568	0.664986	0.173811
O2	O	-4.204891	0.652343	-0.010438
O3	O	-4.234188	0.660423	0.346643
O4	O	-4.290101	0.955016	0.170222
O5	O	-4.148592	0.355710	0.167205
V6	V	-4.722431	0.627996	0.151880
O7	O	-4.546986	0.746126	0.221916
O8	O	-4.879210	0.546855	0.103775
O9	O	-4.518604	0.632559	-0.020952
O10	O	-4.888505	0.640639	0.336129
O11	O	-4.944804	0.937271	0.158486
O12	O	-4.462692	0.337966	0.155469
C13	C	-4.083501	0.649928	0.388805
C14	C	-4.149508	0.648131	0.530092
C15	C	-4.079557	0.451978	0.578924
C16	C	-4.141599	0.450314	0.711681
C17	C	-4.343537	0.840971	0.746762
C18	C	-4.281510	0.842634	0.614008
C19	C	-3.962961	0.226434	0.558671
C20	C	-4.025003	0.224770	0.691428
C21	C	-4.154832	1.025708	0.163755
C22	C	-4.268268	1.267265	0.161929
C23	C	-4.339595	0.643033	0.936892
C24	C	-4.273576	0.644804	0.795602
H25	H	-4.044450	0.148448	0.519814
H26	H	-3.853982	0.129567	0.714737
H27	H	-4.155702	0.162688	0.731418
H28	H	-4.451016	0.999329	0.815103
C29	C	-4.358470	1.058416	0.560299
N30	N	-4.416434	1.220952	0.519845
C31	C	-3.688650	0.121197	0.487653
N32	N	-3.482036	0.041932	0.434161
