data_functionalizedCrystal
_audit_creation_method	'MofGen! by Chris Wilmer'
_symmetry_space_group_name_H-M	'P1'
_symmetry_Int_Tables_number	1
_symmetry_cell_setting	triclinic
loop_
_symmetry_equiv_pos_as_xyz
  x,y,z
_cell_length_a	19.077105
_cell_length_b	18.050588
_cell_length_c	19.076919
_cell_angle_alpha	87.727743
_cell_angle_beta	89.923776
_cell_angle_gamma	87.725951
loop_
_atom_site_label
_atom_site_type_symbol
_atom_site_fract_x
_atom_site_fract_y
_atom_site_fract_z
Zn1	Zn	1.058240	-0.359280	0.440421
Zn2	Zn	1.558240	0.140720	0.940421
Zn3	Zn	1.062870	-0.478688	0.322915
Zn4	Zn	1.562870	0.021312	0.822915
Zn5	Zn	0.945459	-0.349332	0.318214
Zn6	Zn	1.445459	0.150668	0.818214
Zn7	Zn	0.940691	-0.478240	0.435667
Zn8	Zn	1.440691	0.021760	0.935667
O9	O	1.001815	-0.416385	0.379304
O10	O	1.501815	0.083615	0.879304
O11	O	1.157185	-0.379471	0.428790
O12	O	1.657185	0.120529	0.928790
O13	O	1.051227	-0.457552	0.223960
O14	O	1.551227	0.042448	0.723960
O15	O	0.960477	-0.246730	0.334447
O16	O	1.460477	0.253270	0.834447
O17	O	1.160587	-0.467199	0.342459
O18	O	1.660587	0.032801	0.842459
O19	O	1.043337	-0.254039	0.424232
O20	O	1.543337	0.245961	0.924232
O21	O	0.964966	-0.362515	0.220506
O22	O	1.464966	0.137485	0.720506
O23	O	0.846495	-0.362081	0.329838
O24	O	1.346495	0.137919	0.829838
O25	O	0.952352	-0.466436	0.534629
O26	O	1.452352	0.033564	1.034629
O27	O	0.842992	-0.456789	0.416130
O28	O	1.342992	0.043211	0.916130
O29	O	1.038714	-0.379036	0.538121
O30	O	1.538714	0.120964	1.038121
O31	O	1.046605	-0.582550	0.337850
O32	O	1.546605	-0.082550	0.837850
O33	O	0.956841	-0.582221	0.420689
O34	O	1.456841	-0.082221	0.920689
C35	C	0.819247	-0.408307	0.371959
C36	C	1.319247	0.091693	0.871959
C37	C	0.741143	-0.404870	0.368833
C38	C	1.241143	0.095130	0.868833
C39	C	0.702648	-0.452634	0.412222
C40	C	1.202648	0.047366	0.912222
C41	C	0.629261	-0.449395	0.409288
C42	C	1.129261	0.050605	0.909288
C43	C	0.594371	-0.398395	0.362961
C44	C	1.094371	0.101605	0.862961
C45	C	0.632872	-0.350626	0.319571
C46	C	1.132872	0.149374	0.819571
C47	C	0.706257	-0.353862	0.322509
C48	C	1.206257	0.146138	0.822509
C49	C	0.375085	-0.383418	0.349369
C50	C	0.875085	0.116582	0.849369
C51	C	0.301694	-0.380187	0.346433
C52	C	0.801694	0.119813	0.846433
C53	C	0.298088	-0.478955	0.436151
C54	C	0.798088	0.021045	0.936151
C55	C	0.371475	-0.482189	0.439082
C56	C	0.871475	0.017811	0.939082
C57	C	0.409970	-0.434418	0.395694
C58	C	0.909970	0.065582	0.895694
N59	N	0.519358	-0.395084	0.359960
N60	N	1.019358	0.104916	0.859960
N61	N	0.484981	-0.437726	0.398699
N62	N	0.984981	0.062274	0.898699
C63	C	1.001727	-0.609332	0.379280
C64	C	1.501727	-0.109332	0.879280
C65	C	1.001752	-0.691880	0.379295
C66	C	1.501752	-0.191880	0.879295
C67	C	0.953013	-0.940557	0.424346
C68	C	1.453013	-0.440557	0.924346
C69	C	1.016392	-0.894618	0.444160
C70	C	1.516392	-0.394618	0.944160
C71	C	1.001897	-0.989008	0.379340
C72	C	1.501897	-0.489008	0.879340
C73	C	0.938448	-0.887863	0.359537
C74	C	1.438448	-0.387863	0.859537
C75	C	1.001822	-0.843019	0.379320
C76	C	1.501822	-0.343019	0.879320
C77	C	1.065310	-0.944159	0.399189
C78	C	1.565310	-0.444159	0.899189
C79	C	0.987323	-0.937406	0.314534
C80	C	1.487323	-0.437406	0.814534
C81	C	1.050748	-0.891490	0.334326
C82	C	1.550748	-0.391490	0.834326
C83	C	1.001938	-1.073109	0.379354
C84	C	1.501938	-0.573109	0.879354
C85	C	1.001788	-0.758920	0.379306
C86	C	1.501788	-0.258920	0.879306
C87	C	1.185095	-0.424495	0.386679
C88	C	1.685095	0.075505	0.886679
C89	C	1.263199	-0.427951	0.389822
C90	C	1.763199	0.072049	0.889822
C91	C	0.994485	-0.423796	0.562584
C92	C	1.494485	0.076204	1.062584
C93	C	0.991361	-0.426954	0.640688
C94	C	1.491361	0.073046	1.140688
C95	C	1.001922	-0.222686	0.379345
C96	C	1.501922	0.277314	0.879345
C97	C	1.001968	-0.140142	0.379362
C98	C	1.501968	0.359858	0.879362
C99	C	1.009157	-0.408951	0.196739
C100	C	1.509157	0.091049	0.696739
C101	C	1.012417	-0.405590	0.118641
C102	C	1.512417	0.094410	0.618641
C103	C	1.034856	-0.382936	0.679200
C104	C	1.534856	0.117064	1.179200
C105	C	1.031912	-0.385900	0.752586
C106	C	1.531912	0.114100	1.252586
C107	C	0.985477	-0.432887	0.787458
C108	C	1.485477	0.067113	1.287458
C109	C	0.941978	-0.476907	0.748940
C110	C	1.441978	0.023093	1.248940
C111	C	0.944918	-0.473938	0.675556
C112	C	1.444918	0.026062	1.175556
C113	C	0.971858	-0.446641	1.006739
C114	C	1.471858	0.053359	1.506739
C115	C	0.968922	-0.449608	1.080129
C116	C	1.468922	0.050392	1.580129
C117	C	1.058856	-0.358599	1.083769
C118	C	1.558856	0.141401	1.583769
C119	C	1.061795	-0.355638	1.010383
C120	C	1.561795	0.144362	1.510383
C121	C	1.018293	-0.399655	0.971872
C122	C	1.518293	0.100345	1.471872
N123	N	0.982469	-0.435920	0.862470
N124	N	1.482469	0.064080	1.362470
N125	N	1.021299	-0.396618	0.896861
N126	N	1.521299	0.103382	1.396861
H127	H	0.406418	-0.344524	0.314034
H128	H	0.906418	0.155476	0.814034
H129	H	0.904167	-0.515162	0.777339
H130	H	1.404167	-0.015162	1.277339
Cl131	Cl	0.917170	-0.501978	0.958335
Cl132	Cl	1.417170	-0.001978	1.458335
Cl133	Cl	0.580869	-0.509443	0.463837
Cl134	Cl	1.080869	-0.009443	0.963837
H135	H	0.731050	-0.494166	0.449943
H136	H	1.231050	0.005834	0.949943
Cl137	Cl	0.589010	-0.286507	0.261336
Cl138	Cl	1.089010	0.213493	0.761336
Cl139	Cl	1.114592	-0.858428	0.275553
Cl140	Cl	1.614592	-0.358428	0.775553
Cl141	Cl	1.120173	-0.296567	0.966549
Cl142	Cl	1.620173	0.203433	1.466549
Cl143	Cl	1.035385	-0.865432	0.528761
Cl144	Cl	1.535385	-0.365432	1.028761
Cl145	Cl	0.890235	-0.529276	0.627140
Cl146	Cl	1.390235	-0.029276	1.127140
H147	H	0.737600	-0.314964	0.287180
H148	H	1.237600	0.185036	0.787180
Cl149	Cl	1.148126	-0.982021	0.425134
Cl150	Cl	1.648126	-0.482021	0.925134
Cl151	Cl	0.415332	-0.546308	0.497321
Cl152	Cl	0.915332	-0.046308	0.997321
Cl153	Cl	0.249691	-0.539007	0.490691
Cl154	Cl	0.749691	-0.039007	0.990691
Cl155	Cl	1.086625	-0.330594	0.800999
Cl156	Cl	1.586625	0.169406	1.300999
Cl157	Cl	0.257834	-0.316073	0.288184
Cl158	Cl	0.757834	0.183927	0.788184
H159	H	0.911752	-0.962108	0.462447
H160	H	1.411752	-0.462108	0.962447
Cl161	Cl	0.910539	-0.508678	1.123968
Cl162	Cl	1.410539	-0.008678	1.623968
Cl163	Cl	0.968302	-0.966620	0.229954
Cl164	Cl	1.468302	-0.466620	0.729954
Cl165	Cl	0.855653	-0.849859	0.333689
Cl166	Cl	1.355653	-0.349859	0.833689
Cl167	Cl	1.093238	-0.323867	0.635368
Cl168	Cl	1.593238	0.176133	1.135368
Cl169	Cl	1.113537	-0.303264	1.132187
Cl170	Cl	1.613537	0.196736	1.632187
