data_functionalizedCrystal
_audit_creation_method	'MofGen! by Chris Wilmer'
_symmetry_space_group_name_H-M	'P1'
_symmetry_Int_Tables_number	1
_symmetry_cell_setting	triclinic
loop_
_symmetry_equiv_pos_as_xyz
  x,y,z
_cell_length_a	12.837943
_cell_length_b	12.837942
_cell_length_c	11.295483
_cell_angle_alpha	94.530417
_cell_angle_beta	85.461227
_cell_angle_gamma	94.828940
loop_
_atom_site_label
_atom_site_type_symbol
_atom_site_fract_x
_atom_site_fract_y
_atom_site_fract_z
O1	O	1.408689	0.265788	-0.099003
O2	O	1.105556	0.252345	-0.099010
O3	O	1.250401	0.107500	-0.098999
O4	O	1.263845	0.410633	-0.099013
O5	O	1.237676	0.120201	0.099051
O6	O	1.092832	0.265045	0.099040
O7	O	1.395965	0.278489	0.099047
Cu8	Cu	1.243237	0.272927	0.117127
Cu9	Cu	1.258285	0.257907	-0.117090
O10	O	1.251121	0.423333	0.099037
C11	C	1.060125	0.254153	0.000014
C12	C	0.943710	0.240609	0.000012
C13	C	0.718835	0.403439	0.000021
C14	C	0.609453	0.390717	0.000020
C15	C	0.615561	0.202446	0.000016
C16	C	0.724943	0.215167	0.000017
C17	C	0.776576	0.315667	0.000018
C18	C	0.885961	0.328387	0.000011
C19	C	0.892066	0.140117	0.000016
C20	C	0.782684	0.127396	0.000015
C21	C	1.239497	0.074781	0.000025
C22	C	1.225953	-0.041634	0.000023
C23	C	1.388784	-0.266509	0.000002
C24	C	1.376062	-0.375892	-0.000000
C25	C	1.187791	-0.369784	0.000008
C26	C	1.200512	-0.260402	0.000010
C27	C	1.301011	-0.208768	0.000009
C28	C	1.313731	-0.099383	0.000020
C29	C	1.125461	-0.093278	0.000019
C30	C	1.112740	-0.202660	0.000017
C31	C	1.441396	0.276680	0.000021
C32	C	1.557812	0.290224	0.000015
C33	C	1.262024	0.456052	0.000010
C34	C	1.275569	0.572467	0.000004
N35	N	1.232661	0.283491	0.281863
N36	N	1.268868	0.247335	-0.281825
C37	C	1.344996	0.171231	0.531161
C38	C	1.337012	0.179223	0.655824
C39	C	1.208702	0.307459	0.655854
C40	C	1.216687	0.299467	0.531191
C41	C	1.284837	0.231353	0.468849
C42	C	1.292826	0.223367	0.344183
C43	C	1.164512	0.351597	0.344216
C44	C	1.156528	0.359589	0.468879
H45	H	0.573495	0.120630	0.000114
O46	O	0.732685	0.029705	0.000059
C47	C	0.807111	-0.045040	0.000019
H48	H	0.881778	-0.005975	0.037519
H49	H	0.773950	-0.110874	0.057507
H50	H	0.825787	-0.078710	-0.095000
H51	H	0.939091	0.068646	0.000006
H52	H	1.115530	0.400555	0.293468
O53	O	1.411072	0.105029	0.470449
C54	C	1.353270	0.030235	0.398355
H55	H	1.276650	0.062571	0.379714
H56	H	1.400949	0.012433	0.310675
H57	H	1.335472	-0.044778	0.446377
H58	H	1.395563	-0.057344	0.000023
O59	O	1.486358	-0.216236	-0.000152
C60	C	1.505948	-0.159741	-0.102738
H61	H	1.428320	-0.142901	-0.136938
H62	H	1.553247	-0.082634	-0.079666
H63	H	1.552119	-0.208003	-0.174561
H64	H	1.447536	-0.422901	-0.000010
H65	H	1.385998	0.130265	0.706555
H66	H	1.105969	-0.411844	-0.000004
O67	O	1.142437	0.373474	0.716562
C68	C	1.067688	0.315601	0.788658
H69	H	1.100101	0.239019	0.807304
H70	H	1.049830	0.363255	0.876335
H71	H	0.992691	0.297731	0.740635
H72	H	1.030916	-0.244716	0.000013
H73	H	1.053990	-0.046252	0.000034
H74	H	1.101038	0.415044	0.519653
H75	H	1.348320	0.167908	0.293425
H76	H	0.928000	0.410219	0.000014
H77	H	0.760876	0.485269	0.000020
O78	O	0.553525	0.476086	-0.000035
C79	C	0.622557	0.567514	-0.000003
H80	H	0.703833	0.546583	-0.037495
H81	H	0.592513	0.625991	-0.057502
H82	H	0.627146	0.603900	0.095013
