data_functionalizedCrystal
_audit_creation_method	'MofGen! by Chris Wilmer'
_symmetry_space_group_name_H-M	'P1'
_symmetry_Int_Tables_number	1
_symmetry_cell_setting	triclinic
loop_
_symmetry_equiv_pos_as_xyz
  x,y,z
_cell_length_a	25.639242
_cell_length_b	16.120531
_cell_length_c	25.639233
_cell_angle_alpha	92.877249
_cell_angle_beta	90.022166
_cell_angle_gamma	87.071714
loop_
_atom_site_label
_atom_site_type_symbol
_atom_site_fract_x
_atom_site_fract_y
_atom_site_fract_z
Zn1	Zn	0.788686	0.332111	0.306288
Zn2	Zn	1.288686	0.832111	0.806288
Zn3	Zn	0.784186	0.471506	0.223279
Zn4	Zn	1.284186	0.971506	0.723279
Zn5	Zn	0.701263	0.332098	0.218852
Zn6	Zn	1.201263	0.832098	0.718852
Zn7	Zn	0.696785	0.471475	0.310668
Zn8	Zn	1.196785	0.971475	0.810668
O9	O	0.742730	0.401797	0.264771
O10	O	1.242730	0.901797	0.764771
O11	O	0.861254	0.350620	0.295296
O12	O	1.361254	0.850620	0.795296
O13	O	0.773177	0.453021	0.149526
O14	O	1.273177	0.953021	0.649526
O15	O	0.716617	0.215433	0.226765
O16	O	1.216617	0.715433	0.726765
O17	O	0.857948	0.453033	0.234310
O18	O	1.357948	0.953033	0.734310
O19	O	0.780846	0.215442	0.291004
O20	O	1.280846	0.715442	0.791004
O21	O	0.712253	0.350599	0.146274
O22	O	1.212253	0.850599	0.646274
O23	O	0.627504	0.350569	0.231011
O24	O	1.127504	0.850569	0.731011
O25	O	0.708985	0.452980	0.383252
O26	O	1.208985	0.952980	0.883252
O27	O	0.624214	0.452968	0.298468
O28	O	1.124214	0.952968	0.798468
O29	O	0.776505	0.350590	0.380034
O30	O	1.276505	0.850590	0.880034
O31	O	0.768835	0.588168	0.238556
O32	O	1.268835	1.088168	0.738556
O33	O	0.704622	0.588145	0.302761
O34	O	1.204622	1.088145	0.802761
C35	C	0.606889	0.401764	0.264735
C36	C	1.106889	0.901764	0.764735
C37	C	0.548774	0.401770	0.264732
C38	C	1.048774	0.901770	0.764732
C39	C	0.735768	0.618407	0.271626
C40	C	1.235768	1.118407	0.771626
C41	C	0.732838	0.711074	0.274575
C42	C	1.232838	1.211074	0.774575
C43	C	0.742747	0.401783	0.401144
C44	C	1.242747	0.901783	0.901144
C45	C	0.742755	0.401776	0.459258
C46	C	1.242755	0.901776	0.959258
C47	C	0.186703	0.455206	0.299867
C48	C	0.686703	0.955206	0.799867
C49	C	0.132099	0.455211	0.299876
C50	C	0.632099	0.955211	0.799876
O51	O	0.102411	0.500602	0.329717
O52	O	0.602411	1.000602	0.829717
N53	N	0.106490	0.401820	0.264806
N54	N	0.606490	0.901820	0.764806
C55	C	0.135489	0.348415	0.229730
C56	C	0.635489	0.848415	0.729730
O57	O	0.108693	0.303003	0.199902
O58	O	0.608693	0.803003	0.699902
C59	C	0.190093	0.348407	0.229724
C60	C	0.690093	0.848407	0.729724
C61	C	0.215698	0.401807	0.264792
C62	C	0.715698	0.901807	0.764792
C63	C	0.212309	0.508600	0.334933
C64	C	0.712309	1.008600	0.834933
C65	C	0.266910	0.508596	0.334924
C66	C	0.766910	1.008596	0.834924
C67	C	0.295905	0.455197	0.299849
C68	C	0.795905	0.955197	0.799849
C69	C	0.270299	0.401802	0.264783
C70	C	0.770299	0.901802	0.764783
C71	C	0.219091	0.294998	0.194651
C72	C	0.719091	0.794998	0.694651
C73	C	0.273698	0.294994	0.194648
C74	C	0.773698	0.794994	0.694648
C75	C	0.299303	0.348393	0.229716
C76	C	0.799303	0.848393	0.729716
C77	C	0.353894	0.348399	0.229699
C78	C	0.853894	0.848399	0.729699
N79	N	0.379503	0.401789	0.264768
N80	N	0.879503	0.901789	0.764768
C81	C	0.350508	0.455188	0.299843
C82	C	0.850508	0.955188	0.799843
C83	C	0.020818	0.348437	0.229745
C84	C	0.520818	0.848437	0.729745
C85	C	-0.033785	0.348449	0.229747
C86	C	0.466215	0.848449	0.729747
C87	C	-0.037171	0.455243	0.299894
C88	C	0.462829	0.955243	0.799894
C89	C	0.017432	0.455235	0.299888
C90	C	0.517432	0.955235	0.799888
C91	C	0.046426	0.401827	0.264814
C92	C	0.546426	0.901827	0.764814
C93	C	0.465174	0.455176	0.299821
C94	C	0.965174	0.955176	0.799821
C95	C	0.519779	0.455170	0.299807
C96	C	1.019779	0.955170	0.799807
C97	C	0.523161	0.348372	0.229663
C98	C	1.023161	0.848372	0.729663
C99	C	0.468560	0.348382	0.229674
C100	C	0.968560	0.848382	0.729674
C101	C	0.439568	0.401786	0.264758
C102	C	0.939568	0.901786	0.764758
O103	O	0.383616	0.303028	0.199874
O104	O	0.883616	0.803028	0.699874
O105	O	0.377312	0.500586	0.329671
O106	O	0.877312	1.000586	0.829671
C107	C	0.879102	0.401831	0.264808
C108	C	1.379102	0.901831	0.764808
C109	C	0.937216	0.401845	0.264824
C110	C	1.437216	0.901845	0.764824
C111	C	0.727491	0.880736	0.279972
C112	C	1.227491	1.380736	0.779972
C113	C	0.757989	0.922018	0.249542
C114	C	1.257989	1.422018	0.749542
C115	C	0.755014	1.016424	0.252544
C116	C	1.255014	1.516424	0.752544
C117	C	0.730465	0.786322	0.276970
C118	C	1.230465	1.286322	0.776970
C119	C	0.749714	1.184342	0.257892
C120	C	1.249714	1.684342	0.757892
C121	C	0.752643	1.091675	0.254936
C122	C	1.252643	1.591675	0.754936
C123	C	0.742745	0.401752	0.128927
C124	C	1.242745	0.901752	0.628927
C125	C	0.742846	0.401523	0.070806
C126	C	1.242846	0.901523	0.570806
C127	C	0.777959	0.348304	0.817946
C128	C	1.277959	0.848304	1.317946
C129	C	0.777967	0.348280	0.872550
C130	C	1.277967	0.848280	1.372550
O131	O	0.807854	0.302914	0.899366
O132	O	1.307854	0.802914	1.399366
N133	N	0.742819	0.401581	0.901534
N134	N	1.242819	0.901581	1.401534
C135	C	0.707657	0.454902	0.875912
C136	C	1.207657	0.954902	1.375912
O137	O	0.677762	0.500236	0.905580
O138	O	1.177762	1.000236	1.405580
C139	C	0.707648	0.454920	0.821310
C140	C	1.207648	0.954920	1.321310
C141	C	0.742802	0.401622	0.792328
C142	C	1.242802	0.901622	1.292328
C143	C	0.813110	0.295009	0.788965
C144	C	1.313110	0.795009	1.288965
C145	C	0.813104	0.295034	0.734365
C146	C	1.313104	0.795034	1.234365
C147	C	0.777946	0.348352	0.708747
C148	C	1.277946	0.848352	1.208747
C149	C	0.742795	0.401647	0.737728
C150	C	1.242795	0.901647	1.237728
C151	C	0.672485	0.508237	0.795688
C152	C	1.172485	1.008237	1.295688
C153	C	0.672478	0.508250	0.741082
C154	C	1.172478	1.008250	1.241082
C155	C	0.707632	0.454952	0.712100
C156	C	1.207632	0.954952	1.212100
C157	C	0.707631	0.454990	0.657510
C158	C	1.207631	0.954990	1.157510
N159	N	0.742779	0.401689	0.628526
N160	N	1.242779	0.901689	1.128526
C161	C	0.777937	0.348370	0.654144
C162	C	1.277937	0.848370	1.154144
C163	C	0.707679	0.454859	0.990582
C164	C	1.207679	0.954859	1.490582
C165	C	0.707690	0.454845	1.045184
C166	C	1.207690	0.954845	1.545184
C167	C	0.777999	0.348222	1.041817
C168	C	1.277999	0.848222	1.541817
C169	C	0.777990	0.348241	0.987215
C170	C	1.277990	0.848241	1.487215
C171	C	0.742827	0.401558	0.961597
C172	C	1.242827	0.901558	1.461597
C173	C	0.777920	0.348426	0.539481
C174	C	1.277920	0.848426	1.039481
C175	C	0.777912	0.348458	0.484876
C176	C	1.277912	0.848458	0.984876
C177	C	0.707602	0.455077	0.488247
C178	C	1.207602	0.955077	0.988247
C179	C	0.707612	0.455049	0.542847
C180	C	1.207612	0.955049	1.042847
C181	C	0.742773	0.401717	0.568462
C182	C	1.242773	0.901717	1.068462
O183	O	0.677758	0.500331	0.630659
O184	O	1.177758	1.000331	1.130659
O185	O	0.807823	0.303037	0.624470
O186	O	1.307823	0.803037	1.124470
H187	H	0.540625	0.498657	0.328365
H188	H	1.040625	0.998657	0.828365
N189	N	0.182689	0.563159	0.370753
N190	N	0.682689	1.063159	0.870753
N191	N	0.133936	0.563179	0.370758
N192	N	0.633936	1.063179	0.870758
H193	H	0.113018	0.601720	0.396055
H194	H	0.613018	1.101720	0.896055
H195	H	0.678991	0.498457	0.566445
H196	H	1.178991	0.998457	1.066445
N197	N	0.636569	0.562688	0.825270
N198	N	1.136569	1.062688	1.325270
N199	N	0.588503	0.557149	0.818973
N200	N	1.088503	1.057149	1.318973
H201	H	0.563135	0.595612	0.839863
H202	H	1.063135	1.095612	1.339863
N203	N	0.636553	0.562703	0.714914
N204	N	1.136553	1.062703	1.214914
N205	N	0.588488	0.557151	0.720826
N206	N	1.088488	1.057151	1.220826
H207	H	0.563116	0.595608	0.702345
H208	H	1.063116	1.095608	1.202345
H209	H	0.699148	0.916294	0.308276
H210	H	1.199148	1.416294	0.808276
N211	N	0.813831	0.293953	0.565650
N212	N	1.313831	0.793953	1.065650
N213	N	0.797156	0.240804	0.594428
N214	N	1.297156	0.740804	1.094428
H215	H	0.822518	0.202336	0.612911
H216	H	1.322518	0.702336	1.112911
N217	N	0.435572	0.509742	0.335655
N218	N	0.935572	1.009742	0.835655
N219	N	0.439211	0.586661	0.334536
N220	N	0.939211	1.086661	0.834536
H221	H	0.418305	0.625203	0.359841
H222	H	0.918305	1.125203	0.859841
N223	N	0.813829	0.294011	0.455281
N224	N	1.313829	0.794011	0.955281
N225	N	0.845215	0.246410	0.478165
N226	N	1.345215	0.746410	0.978165
H227	H	0.870581	0.207957	0.457266
H228	H	1.370581	0.707957	0.957266
H229	H	0.841729	0.251631	0.710773
H230	H	1.341729	0.751631	1.210773
N231	N	0.303323	0.240439	0.158826
N232	N	0.803323	0.740439	0.658826
N233	N	0.335505	0.187356	0.175594
N234	N	0.835505	0.687356	0.675594
H235	H	0.356428	0.148828	0.150295
H236	H	0.856428	0.648828	0.650295
N237	N	0.671698	0.509540	0.462065
N238	N	1.171698	1.009540	0.962065
N239	N	0.671702	0.509546	0.413312
N240	N	1.171702	1.009546	0.913312
H241	H	0.646343	0.548008	0.394819
H242	H	1.146343	1.048008	0.894819
N243	N	0.849027	0.240531	0.815119
N244	N	1.349027	0.740531	1.315119
N245	N	0.880404	0.192954	0.789226
N246	N	1.380404	0.692954	1.289226
H247	H	0.905776	0.154478	0.807694
H248	H	1.405776	0.654478	1.307694
H249	H	0.806614	0.304839	0.963621
H250	H	1.306614	0.804839	1.463621
H251	H	0.806625	0.304805	1.062685
H252	H	1.306625	0.804805	1.562685
H253	H	0.287753	0.552078	0.363481
H254	H	0.787753	1.052078	0.863481
N255	N	0.793543	0.877429	0.214020
N256	N	1.293543	1.377429	0.714020
N257	N	0.822215	0.916188	0.185404
N258	N	1.322215	1.416188	0.685404
H259	H	0.847323	0.884695	0.160315
H260	H	1.347323	1.384695	0.660315
N261	N	0.043577	0.509788	0.335711
N262	N	0.543577	1.009788	0.835711
N263	N	0.017676	0.557463	0.367021
N264	N	0.517676	1.057463	0.867021
H265	H	0.036137	0.595995	0.392324
H266	H	0.536137	1.095995	0.892324
N267	N	0.671785	0.509305	1.074776
N268	N	1.171785	1.009305	1.574776
N269	N	0.640400	0.556907	1.051890
N270	N	1.140400	1.056907	1.551890
H271	H	0.615039	0.595369	1.072788
H272	H	1.115039	1.095369	1.572788
N273	N	-0.059945	0.293906	0.193930
N274	N	0.440055	0.793906	0.693930
N275	N	-0.108698	0.293906	0.193939
N276	N	0.391302	0.793906	0.693939
H277	H	-0.127172	0.255380	0.168645
H278	H	0.372828	0.755380	0.668645
H279	H	0.679045	0.498281	0.969728
H280	H	1.179045	0.998281	1.469728
H281	H	-0.060789	0.498721	0.328455
H282	H	0.439211	0.998721	0.828455
H283	H	0.198252	0.251516	0.166093
H284	H	0.698252	0.751516	0.666093
N285	N	0.050425	0.293875	0.193910
N286	N	0.550425	0.793875	0.693910
N287	N	0.027548	0.246211	0.162603
N288	N	0.527548	0.746211	0.662603
H289	H	0.048455	0.207675	0.137295
H290	H	0.548455	0.707675	0.637295
H291	H	0.447711	0.304901	0.201118
H292	H	0.947711	0.804901	0.701118
H293	H	0.546778	0.304899	0.201104
H294	H	1.046778	0.804899	0.701104
