data_functionalizedCrystal
_audit_creation_method	'MofGen! by Chris Wilmer'
_symmetry_space_group_name_H-M	'P1'
_symmetry_Int_Tables_number	1
_symmetry_cell_setting	triclinic
loop_
_symmetry_equiv_pos_as_xyz
  x,y,z
_cell_length_a	21.295417
_cell_length_b	16.120490
_cell_length_c	16.120297
_cell_angle_alpha	90.129683
_cell_angle_beta	92.867002
_cell_angle_gamma	87.122615
loop_
_atom_site_label
_atom_site_type_symbol
_atom_site_fract_x
_atom_site_fract_y
_atom_site_fract_z
Zn1	Zn	-0.318966	1.247397	-0.534493
Zn2	Zn	0.181034	1.747397	-0.034493
Zn3	Zn	-0.419176	1.254333	-0.395422
Zn4	Zn	0.080824	1.754333	0.104578
Zn5	Zn	-0.308324	1.115389	-0.388416
Zn6	Zn	0.191676	1.615389	0.111584
Zn7	Zn	-0.418591	1.108288	-0.527395
Zn8	Zn	0.081409	1.608288	-0.027395
O9	O	-0.366264	1.181352	-0.461432
O10	O	0.133736	1.681352	0.038568
O11	O	-0.336958	1.364683	-0.521948
O12	O	0.163042	1.864683	-0.021948
O13	O	-0.400263	1.241775	-0.278128
O14	O	0.099737	1.741775	0.221872
O15	O	-0.221650	1.132969	-0.407831
O16	O	0.278350	1.632969	0.092169
O17	O	-0.410582	1.369779	-0.419773
O18	O	0.089418	1.869779	0.080227
O19	O	-0.229469	1.229955	-0.515154
O20	O	0.270531	1.729955	-0.015154
O21	O	-0.318820	1.139694	-0.272980
O22	O	0.181180	1.639694	0.227020
O23	O	-0.318252	0.998081	-0.400949
O24	O	0.181748	1.498081	0.099051
O25	O	-0.409584	1.120867	-0.644702
O26	O	0.090416	1.620867	-0.144702
O27	O	-0.399264	0.992864	-0.503057
O28	O	0.100736	1.492864	-0.003057
O29	O	-0.336391	1.223070	-0.649917
O30	O	0.163609	1.723070	-0.149917
O31	O	-0.507184	1.234890	-0.412891
O32	O	-0.007184	1.734890	0.087109
O33	O	-0.506754	1.127592	-0.509851
O34	O	-0.006754	1.627592	-0.009851
C35	C	-0.357540	0.965300	-0.450473
C36	C	0.142460	1.465300	0.049527
C37	C	-0.353824	0.872871	-0.445804
C38	C	0.146176	1.372871	0.054196
C39	C	-0.529810	1.181245	-0.461380
C40	C	-0.029810	1.681245	0.038620
C41	C	-0.599779	1.181274	-0.461390
C42	C	-0.099779	1.681274	0.038610
C43	C	-0.385537	0.659904	-0.485650
C44	C	0.114463	1.159904	0.014350
C45	C	-0.347045	0.703647	-0.437279
C46	C	0.152955	1.203647	0.062721
C47	C	-0.350818	0.797812	-0.442024
C48	C	0.149182	1.297812	0.057976
C49	C	-0.381764	0.565731	-0.480906
C50	C	0.118236	1.065731	0.019094
C51	C	-0.632853	1.237189	-0.410960
C52	C	-0.132853	1.737189	0.089040
C53	C	-0.698598	1.237227	-0.410980
C54	C	-0.198598	1.737227	0.089020
C55	C	-0.731265	1.181336	-0.461422
C56	C	-0.231265	1.681336	0.038578
C57	C	-0.698184	1.125417	-0.511862
C58	C	-0.198184	1.625417	-0.011862
C59	C	-0.632441	1.125386	-0.511846
C60	C	-0.132441	1.625386	-0.011846
N61	N	-0.831828	1.108270	-0.464071
N62	N	-0.331828	1.608270	0.035929
N63	N	-0.894281	1.108302	-0.464081
N64	N	-0.394281	1.608302	0.035919
C65	C	-0.929346	1.181426	-0.461474
C66	C	-0.429346	1.681426	0.038526
N67	N	-0.899597	1.254520	-0.458840
N68	N	-0.399597	1.754520	0.041160
N69	N	-0.837138	1.254488	-0.458825
N70	N	-0.337138	1.754488	0.041175
C71	C	-0.802553	1.181363	-0.461445
C72	C	-0.302553	1.681363	0.038555
C73	C	-1.033707	1.237387	-0.411064
C74	C	-0.533707	1.737387	0.088936
C75	C	-1.099454	1.237426	-0.411090
C76	C	-0.599454	1.737426	0.088910
C77	C	-1.099038	1.125609	-0.511967
C78	C	-0.599038	1.625609	-0.011967
C79	C	-1.033294	1.125577	-0.511945
C80	C	-0.533294	1.625577	-0.011945
C81	C	-1.000632	1.181465	-0.461489
C82	C	-0.500632	1.681465	0.038511
C83	C	-0.202082	1.181481	-0.461503
C84	C	0.297918	1.681481	0.038497
C85	C	-0.132117	1.181535	-0.461533
C86	C	0.367883	1.681535	0.038467
C87	C	-0.374109	1.170403	-0.678325
C88	C	0.125891	1.670403	-0.178325
C89	C	-0.377452	1.165738	-0.770752
C90	C	0.122548	1.665738	-0.270752
C91	C	-0.375023	1.398247	-0.472434
C92	C	0.124977	1.898247	0.027566
C93	C	-0.378755	1.490675	-0.477122
C94	C	0.121245	1.990675	0.022878
C95	C	-0.383540	1.157189	-0.939976
C96	C	0.116460	1.657189	-0.439976
C97	C	-0.348806	1.205678	-0.983747
C98	C	0.151194	1.705678	-0.483747
C99	C	-0.352194	1.200922	-1.077909
C100	C	0.147806	1.700922	-0.577909
C101	C	-0.380154	1.161944	-0.845806
C102	C	0.119846	1.661944	-0.345806
C103	C	-0.358406	1.192305	-0.245385
C104	C	0.141594	1.692305	0.254615
C105	C	-0.354893	1.197132	-0.152966
C106	C	0.145107	1.697132	0.347034
H107	H	-0.421322	0.693172	-0.530620
H108	H	0.078678	1.193172	-0.030620
N109	N	-0.424027	1.100619	-0.981667
N110	N	0.075973	1.600619	-0.481667
N111	N	-0.416409	1.024367	-0.968148
N112	N	0.083591	1.524367	-0.468148
H113	H	-0.445000	0.984412	-0.997603
H114	H	0.055000	1.484412	-0.497603
N115	N	-0.731540	1.068311	-0.563382
N116	N	-0.231540	1.568311	-0.063382
N117	N	-0.701998	1.018385	-0.608403
N118	N	-0.201998	1.518385	-0.108403
H119	H	-0.725554	0.978053	-0.644793
H120	H	-0.225554	1.478053	-0.144793
N121	N	-0.302149	0.661904	-0.380865
N122	N	0.197851	1.161904	0.119135
N123	N	-0.299108	0.584360	-0.377043
N124	N	0.200892	1.084360	0.122957
H125	H	-0.267403	0.554874	-0.337202
H126	H	0.232597	1.054874	0.162798
H127	H	-1.125636	1.080105	-0.553041
H128	H	-0.625636	1.580105	-0.053041
H129	H	-0.606262	1.282698	-0.369877
H130	H	-0.106262	1.782698	0.130123
N131	N	-0.732381	1.294345	-0.359454
N132	N	-0.232381	1.794345	0.140546
N133	N	-0.703211	1.344236	-0.314407
N134	N	-0.203211	1.844236	0.185593
H135	H	-0.727068	1.384573	-0.278012
H136	H	-0.227068	1.884573	0.221988
H137	H	-0.605512	1.079853	-0.552913
H138	H	-0.105512	1.579853	-0.052913
H139	H	-1.007113	1.282897	-0.369982
H140	H	-0.507113	1.782897	0.130018
N141	N	-1.133231	1.294560	-0.359580
N142	N	-0.633231	1.794560	0.140420
N143	N	-1.104058	1.344455	-0.314541
N144	N	-0.604058	1.844455	0.185459
H145	H	-1.127913	1.384809	-0.278161
H146	H	-0.627913	1.884809	0.221839
H147	H	-1.006363	1.080043	-0.553007
H148	H	-0.506363	1.580043	-0.053007
N149	N	-0.308309	1.262232	-0.942037
N150	N	0.191691	1.762232	-0.442037
N151	N	-0.305580	1.266064	-0.864494
N152	N	0.194420	1.766064	-0.364494
H153	H	-0.276981	1.306004	-0.835032
H154	H	0.223019	1.806004	-0.335032
