data_functionalizedCrystal
_audit_creation_method	'MofGen! by Chris Wilmer'
_symmetry_space_group_name_H-M	'P1'
_symmetry_Int_Tables_number	1
_symmetry_cell_setting	triclinic
loop_
_symmetry_equiv_pos_as_xyz
  x,y,z
_cell_length_a	16.992694
_cell_length_b	17.038272
_cell_length_c	16.053802
_cell_angle_alpha	92.751609
_cell_angle_beta	87.249047
_cell_angle_gamma	90.889890
loop_
_atom_site_label
_atom_site_type_symbol
_atom_site_fract_x
_atom_site_fract_y
_atom_site_fract_z
O1	O	1.054593	0.163385	-0.069325
O2	O	0.826187	0.161558	-0.069350
O3	O	0.939032	0.048571	-0.069331
O4	O	0.941748	0.276372	-0.069344
O5	O	0.932819	0.054763	0.069527
O6	O	0.819974	0.167750	0.069508
O7	O	1.048380	0.169577	0.069533
Zn8	Zn	0.933190	0.169646	0.091567
Zn9	Zn	0.941376	0.161489	-0.091384
O10	O	0.935535	0.282564	0.069514
C11	C	0.793711	0.162304	0.000076
C12	C	0.706200	0.155293	0.000067
C13	C	0.660472	0.222933	0.000064
C14	C	0.578245	0.216342	0.000076
C15	C	0.541748	0.142110	0.000085
C16	C	0.587482	0.074465	0.000091
C17	C	0.669707	0.081057	0.000085
C18	C	0.296327	0.114789	0.000109
C19	C	0.214096	0.108201	0.000112
C20	C	0.204864	0.250079	0.000099
C21	C	0.287091	0.256665	0.000088
C22	C	0.332818	0.189020	0.000098
N23	N	0.457699	0.135371	0.000094
N24	N	0.416865	0.195760	0.000095
C25	C	0.933456	0.022384	0.000098
C26	C	0.926089	-0.064871	0.000097
C27	C	0.993729	-0.110741	0.000105
C28	C	0.986802	-0.192727	0.000096
C29	C	0.912235	-0.228840	0.000085
C30	C	0.844590	-0.182964	0.000075
C31	C	0.851518	-0.100981	0.000077
C32	C	0.887761	-0.476135	0.000071
C33	C	0.880838	-0.558124	0.000071
C34	C	1.023051	-0.567881	0.000091
C35	C	1.029972	-0.485895	0.000099
C36	C	0.962328	-0.440026	0.000084
C37	C	0.905153	-0.312643	0.000079
C38	C	0.969410	-0.356226	0.000084
C39	C	1.080856	0.168831	0.000105
C40	C	1.168367	0.175841	0.000109
C41	C	0.941111	0.308751	0.000084
C42	C	0.948478	0.396006	0.000079
N43	N	0.927609	0.175214	0.216427
N44	N	0.946963	0.155915	-0.216243
C45	C	0.975645	0.127157	0.260129
C46	C	0.971749	0.131060	0.347535
C47	C	0.919820	0.183023	0.391237
C48	C	0.871779	0.231082	0.347529
C49	C	0.875672	0.227175	0.260125
C50	C	0.902815	0.200067	0.652644
C51	C	0.898928	0.203972	0.740055
C52	C	0.998897	0.103948	0.740054
C53	C	1.002788	0.100050	0.652648
C54	C	0.954744	0.148105	0.608948
N55	N	0.915838	0.187015	0.480580
N56	N	0.958723	0.144109	0.519606
H57	H	0.557760	0.014024	0.000110
H58	H	0.836555	0.266306	0.224543
H59	H	1.010863	0.091928	0.383116
C60	C	0.798806	-0.597847	0.000053
N61	N	0.737021	-0.627767	0.000039
C62	C	0.173952	0.026537	0.000121
N63	N	0.143715	-0.034970	0.000126
C64	C	0.813349	-0.425690	0.000050
N65	N	0.757299	-0.387692	0.000032
C66	C	0.327230	0.338326	0.000091
N67	N	0.357463	0.399835	0.000095
H68	H	0.706939	0.025977	0.000087
C69	C	0.527946	0.290753	0.000087
N70	N	0.490061	0.346803	0.000102
H71	H	0.167624	0.305152	0.000092
C72	C	1.061211	-0.243179	0.000119
N73	N	1.117260	-0.281180	0.000140
H74	H	1.054449	-0.081343	0.000119
C75	C	0.346616	0.040376	0.000114
N76	N	0.384497	-0.015675	0.000117
H77	H	1.090692	-0.456497	0.000108
H78	H	1.078123	-0.605236	0.000102
C79	C	1.059909	0.042881	0.604582
N80	N	1.102934	-0.000178	0.568378
H81	H	0.783876	-0.212375	0.000061
C82	C	0.814649	0.288234	0.395605
N83	N	0.771618	0.331283	0.431815
H84	H	1.038011	0.064823	0.775643
H85	H	0.796438	-0.063634	0.000071
H86	H	1.030124	-0.326819	0.000074
H87	H	0.844440	-0.342056	0.000072
H88	H	0.690181	0.283381	0.000056
C89	C	1.032771	0.069993	0.212064
N90	N	1.075797	0.026932	0.175864
H91	H	0.856639	0.246290	0.775633
H92	H	0.863697	0.239197	0.617070
