data_functionalizedCrystal
_audit_creation_method	'MofGen! by Chris Wilmer'
_symmetry_space_group_name_H-M	'P1'
_symmetry_Int_Tables_number	1
_symmetry_cell_setting	triclinic
loop_
_symmetry_equiv_pos_as_xyz
  x,y,z
_cell_length_a	12.594516
_cell_length_b	17.077404
_cell_length_c	17.077396
_cell_angle_alpha	89.980499
_cell_angle_beta	90.023145
_cell_angle_gamma	89.983722
loop_
_atom_site_label
_atom_site_type_symbol
_atom_site_fract_x
_atom_site_fract_y
_atom_site_fract_z
Zn1	Zn	-0.423736	-1.200092	0.443872
Zn2	Zn	-0.601736	-1.200015	0.312618
Zn3	Zn	-0.423773	-1.068824	0.312620
Zn4	Zn	-0.601673	-1.068807	0.443842
O5	O	-0.512730	-1.134434	0.378238
O6	O	-0.447359	-1.309929	0.426473
O7	O	-0.578171	-1.182586	0.202771
O8	O	-0.274822	-1.086276	0.330044
O9	O	-0.578135	-1.309872	0.330041
O10	O	-0.274795	-1.182718	0.426474
O11	O	-0.447422	-1.086201	0.202773
O12	O	-0.447361	-0.958975	0.330015
O13	O	-0.578027	-1.086248	0.553693
O14	O	-0.578064	-0.958963	0.426423
O15	O	-0.447297	-1.182702	0.553715
O16	O	-0.750674	-1.182571	0.330012
O17	O	-0.750627	-1.086173	0.426421
C18	C	-0.512710	-0.930487	0.378216
C19	C	-0.512728	-0.843237	0.378226
C20	C	-0.789271	-1.134383	0.378230
C21	C	-0.907576	-1.134433	0.378253
C22	C	-0.512651	-1.134482	0.582982
C23	C	-0.512618	-1.134502	0.670232
C24	C	-0.976843	-1.081997	0.430653
C25	C	-1.047703	-1.062873	0.359026
C26	C	-1.047515	-1.153628	0.449893
C27	C	-0.976878	-1.115271	0.306587
C28	C	-0.976684	-1.206059	0.397503
C29	C	-1.047512	-1.186963	0.325826
C30	C	-0.235109	-1.134507	0.378263
C31	C	-0.116803	-1.134539	0.378273
C32	C	-0.512750	-1.339179	0.378260
C33	C	-0.512758	-1.426428	0.378269
C34	C	-0.580887	-0.802261	0.428345
C35	C	-0.580890	-0.720280	0.428357
C36	C	-0.512737	-0.679277	0.378246
C37	C	-0.444570	-0.720259	0.328125
C38	C	-0.444563	-0.802238	0.328117
C39	C	-0.444591	-0.549389	0.328144
C40	C	-0.444599	-0.467404	0.328150
C41	C	-0.580917	-0.467431	0.428384
C42	C	-0.580910	-0.549410	0.428376
C43	C	-0.512745	-0.590386	0.378253
C44	C	-0.512731	-1.134432	0.174290
C45	C	-0.512465	-1.134564	0.087041
C46	C	-0.444541	-1.184728	0.711235
C47	C	-0.444506	-1.184737	0.793216
C48	C	-0.512553	-1.134524	0.834192
C49	C	-0.580633	-1.084293	0.793183
C50	C	-0.580662	-1.084281	0.711204
C51	C	-0.580569	-1.084325	0.964053
C52	C	-0.580541	-1.084339	1.046038
C53	C	-0.444412	-1.184782	1.046065
C54	C	-0.444442	-1.184769	0.964086
C55	C	-0.512523	-1.134538	0.923083
H56	H	-0.945811	-1.037575	0.474902
H57	H	-0.389037	-1.225661	0.930725
O58	O	-0.378226	-1.233491	0.832953
C59	C	-0.197162	-1.271622	0.858076
C60	C	-0.272112	-1.216370	0.813014
H61	H	-0.111353	-1.257789	0.841984
H62	H	-0.215785	-1.334922	0.841949
H63	H	-0.208869	-1.263024	0.923704
H64	H	-0.260447	-1.224898	0.747376
H65	H	-0.253471	-1.153091	0.829206
H66	H	-0.636412	-0.582793	0.469177
O67	O	-1.084711	-1.172908	0.522120
C68	C	-1.238626	-1.195330	0.602835
C69	C	-1.196651	-1.173478	0.521005
H70	H	-1.329133	-1.195814	0.601956
H71	H	-1.209672	-1.150510	0.647451
H72	H	-1.208135	-1.255903	0.619666
H73	H	-1.227124	-1.112923	0.504100
H74	H	-1.225596	-1.218347	0.476436
O75	O	-1.084362	-1.240004	0.273022
C76	C	-1.187646	-1.356894	0.252059
C77	C	-1.145958	-1.296898	0.311946
H78	H	-1.237473	-1.402897	0.283503
H79	H	-1.117746	-1.386530	0.221732
H80	H	-1.238644	-1.325630	0.206590
H81	H	-1.094977	-1.328101	0.357462
H82	H	-1.215906	-1.267264	0.342213
O83	O	-0.939388	-1.278270	0.416807
C84	C	-0.835557	-1.389767	0.376629
C85	C	-0.877745	-1.308003	0.354651
H86	H	-0.785692	-1.413824	0.326396
H87	H	-0.905206	-1.430781	0.388233
H88	H	-0.784479	-1.385203	0.431565
H89	H	-0.928807	-1.312493	0.299705
H90	H	-0.808048	-1.267022	0.343099
O91	O	-0.378297	-1.233492	1.086012
C92	C	-0.317936	-1.278044	1.212317
C93	C	-0.392845	-1.222831	1.167171
H94	H	-0.329688	-1.269455	1.277943
H95	H	-0.232096	-1.264272	1.196255
H96	H	-0.336621	-1.341326	1.196169
H97	H	-0.374257	-1.159530	1.183296
H98	H	-0.478663	-1.236670	1.183238
H99	H	-0.636393	-0.686922	0.469169
O100	O	-0.646865	-1.035628	0.924250
C101	C	-0.827933	-0.997482	0.899168
C102	C	-0.752967	-1.052677	0.944284
H103	H	-0.913731	-1.011235	0.915361
H104	H	-0.816354	-1.006111	0.833530
H105	H	-0.809197	-0.934191	0.915254
H106	H	-0.771656	-1.115989	0.928263
H107	H	-0.764560	-1.043980	1.009911
H108	H	-0.635949	-1.043449	1.079398
O109	O	-0.647126	-0.841967	0.477098
C110	C	-0.782372	-0.833331	0.576489
C111	C	-0.707396	-0.788271	0.521325
H112	H	-0.831136	-0.789938	0.612250
H113	H	-0.733623	-0.871716	0.617643
H114	H	-0.837918	-0.871709	0.540367
H115	H	-0.651835	-0.749851	0.557384
H116	H	-0.756212	-0.749936	0.480169
H117	H	-0.945978	-1.099008	0.245994
H118	H	-0.636417	-0.434065	0.469198
H119	H	-0.636034	-1.043406	0.826552
O120	O	-0.378348	-0.589073	0.279375
C121	C	-0.243119	-0.580399	0.179974
C122	C	-0.318088	-0.535360	0.235155
H123	H	-0.194363	-0.536992	0.144219
H124	H	-0.291872	-0.618728	0.138816
H125	H	-0.187564	-0.618830	0.216083
H126	H	-0.373658	-0.496886	0.199110
H127	H	-0.269269	-0.497081	0.276316
H128	H	-0.389090	-0.434022	0.287355
H129	H	-0.636087	-1.043374	0.677820
O130	O	-0.378325	-0.841923	0.279352
C131	C	-0.243081	-0.833250	0.179962
C132	C	-0.318062	-0.788210	0.235134
H133	H	-0.194323	-0.789843	0.144209
H134	H	-0.291826	-0.871582	0.138801
H135	H	-0.187530	-0.871677	0.216076
H136	H	-0.373628	-0.749740	0.199083
H137	H	-0.269251	-0.749928	0.276297
H138	H	-0.389132	-1.225619	0.677878
O139	O	-1.084873	-0.990619	0.339733
C140	C	-1.090983	-0.853601	0.373097
C141	C	-1.048845	-0.935389	0.395039
H142	H	-1.061854	-0.808923	0.417791
H143	H	-1.181494	-0.854441	0.372768
H144	H	-1.060737	-0.836885	0.312445
H145	H	-1.079013	-0.952156	0.455696
H146	H	-0.958336	-0.934505	0.395314
H147	H	-0.389074	-0.686868	0.287327
