data_functionalizedCrystal
_audit_creation_method	'MofGen! by Chris Wilmer'
_symmetry_space_group_name_H-M	'P1'
_symmetry_Int_Tables_number	1
_symmetry_cell_setting	triclinic
loop_
_symmetry_equiv_pos_as_xyz
  x,y,z
_cell_length_a	10.489746
_cell_length_b	10.489716
_cell_length_c	14.048226
_cell_angle_alpha	89.997629
_cell_angle_beta	89.996484
_cell_angle_gamma	84.535218
loop_
_atom_site_label
_atom_site_type_symbol
_atom_site_fract_x
_atom_site_fract_y
_atom_site_fract_z
O1	O	1.694037	0.180004	-0.079087
O2	O	1.322841	0.196890	-0.079102
O3	O	1.516902	0.002848	-0.079098
O4	O	1.499976	0.374047	-0.079092
O5	O	1.516878	0.002836	0.079224
O6	O	1.322817	0.196879	0.079219
O7	O	1.694014	0.179992	0.079234
Zn8	Zn	1.508412	0.188434	0.104363
Zn9	Zn	1.508443	0.188449	-0.104232
O10	O	1.499953	0.374035	0.079230
C11	C	1.275298	0.195608	0.000056
C12	C	1.133669	0.191788	0.000050
C13	C	0.980822	0.066063	0.000061
C14	C	1.058199	0.128914	0.078120
C15	C	1.058178	0.128955	-0.077972
C16	C	0.958697	0.247897	0.078197
C17	C	0.958670	0.247921	-0.077966
C18	C	1.035998	0.310860	0.000112
C19	C	1.515618	-0.044690	0.000060
C20	C	1.511814	-0.186322	0.000051
C21	C	1.630818	-0.283993	0.000065
C22	C	1.567945	-0.361349	-0.077996
C23	C	1.567894	-0.361325	0.078096
C24	C	1.448991	-0.261812	-0.078074
C25	C	1.448957	-0.261782	0.078088
C26	C	1.385997	-0.339089	0.000009
C27	C	1.741557	0.181275	0.000073
C28	C	1.883186	0.185095	0.000073
C29	C	1.501236	0.421573	0.000070
C30	C	1.505041	0.563204	0.000072
N31	N	1.508400	0.188422	0.246724
N32	N	1.508465	0.188450	-0.246592
C33	C	1.594358	0.102536	0.296544
C34	C	1.594366	0.102536	0.396202
C35	C	1.508422	0.188428	0.446038
C36	C	1.422455	0.274318	0.396211
C37	C	1.422442	0.274312	0.296555
C38	C	1.422492	0.274328	0.603925
C39	C	1.422507	0.274336	0.703588
C40	C	1.594417	0.102552	0.703572
C41	C	1.594403	0.102545	0.603916
C42	C	1.508437	0.188437	0.554096
H43	H	1.101635	0.078689	-0.143966
H44	H	0.915403	0.298107	0.144266
H45	H	1.101670	0.078661	0.144114
H46	H	1.664358	0.032600	0.436765
Br47	Br	1.803344	-0.242856	-0.000054
H48	H	1.060465	0.414440	0.000157
H49	H	0.915175	0.298130	-0.143962
Br50	Br	1.651687	-0.433837	-0.187987
H51	H	1.398791	-0.218504	-0.144142
H52	H	1.352521	0.344278	0.744159
Br53	Br	1.213340	-0.379817	-0.000062
Br54	Br	1.365310	-0.189222	0.188085
H55	H	1.618146	-0.404801	0.144089
H56	H	1.664348	0.032598	0.255974
H57	H	1.664391	0.032612	0.563340
H58	H	1.664412	0.032616	0.744141
H59	H	1.352485	0.344266	0.563365
H60	H	1.352472	0.344250	0.436793
Br61	Br	1.305771	0.390868	0.228942
H62	H	0.956111	-0.037440	0.000138
