data_functionalizedCrystal
_audit_creation_method	'MofGen! by Chris Wilmer'
_symmetry_space_group_name_H-M	'P1'
_symmetry_Int_Tables_number	1
_symmetry_cell_setting	triclinic
loop_
_symmetry_equiv_pos_as_xyz
  x,y,z
_cell_length_a	21.295420
_cell_length_b	21.295417
_cell_length_c	21.295411
_cell_angle_alpha	89.978356
_cell_angle_beta	89.975307
_cell_angle_gamma	90.028757
loop_
_atom_site_label
_atom_site_type_symbol
_atom_site_fract_x
_atom_site_fract_y
_atom_site_fract_z
Zn1	Zn	0.962355	-0.250710	-0.355914
Zn2	Zn	0.962258	-0.355962	-0.250639
Zn3	Zn	0.857079	-0.250708	-0.250658
Zn4	Zn	0.857048	-0.355942	-0.355870
O5	O	0.909685	-0.303331	-0.303270
O6	O	1.050432	-0.264682	-0.341959
O7	O	0.948277	-0.342007	-0.162552
O8	O	0.871097	-0.162619	-0.264647
O9	O	1.050360	-0.342010	-0.264614
O10	O	0.948444	-0.162621	-0.341977
O11	O	0.871003	-0.264677	-0.162566
O12	O	0.768985	-0.264658	-0.264605
O13	O	0.871045	-0.341976	-0.443966
O14	O	0.768963	-0.341973	-0.341904
O15	O	0.948414	-0.264662	-0.443997
O16	O	0.948248	-0.444049	-0.264572
O17	O	0.870951	-0.444034	-0.341885
C18	C	0.746133	-0.303314	-0.303252
C19	C	0.676165	-0.303321	-0.303260
C20	C	0.176712	-0.343663	-0.343481
C21	C	0.242454	-0.343663	-0.343474
C22	C	0.275326	-0.303345	-0.303290
C23	C	0.242449	-0.263035	-0.263098
C24	C	0.176708	-0.263040	-0.263102
N25	N	0.378566	-0.248227	-0.298558
N26	N	0.441018	-0.248224	-0.298558
C27	C	0.473400	-0.303327	-0.303277
N28	N	0.440972	-0.358435	-0.308007
N29	N	0.378515	-0.358438	-0.308010
C30	C	0.346611	-0.303335	-0.303282
C31	C	0.577555	-0.343638	-0.343456
C32	C	0.643298	-0.343639	-0.343445
C33	C	0.643292	-0.263005	-0.263072
C34	C	0.577549	-0.263010	-0.263080
C35	C	0.544685	-0.303325	-0.303275
C36	C	0.909602	-0.466882	-0.303236
C37	C	0.909625	-0.536850	-0.303242
C38	C	0.949909	-0.569704	-0.263026
C39	C	0.949939	-0.635446	-0.263040
C40	C	0.909672	-0.668333	-0.303263
C41	C	0.869385	-0.635472	-0.343487
C42	C	0.869361	-0.569730	-0.343476
N43	N	0.854605	-0.771598	-0.308056
N44	N	0.854630	-0.834049	-0.308063
C45	C	0.909743	-0.866407	-0.303299
N46	N	0.964832	-0.833955	-0.298517
N47	N	0.964807	-0.771498	-0.298507
C48	C	0.909694	-0.739618	-0.303280
C49	C	0.950063	-0.970546	-0.263097
C50	C	0.950093	-1.036290	-0.263116
C51	C	0.869534	-1.036314	-0.343559
C52	C	0.869509	-0.970572	-0.343544
C53	C	0.909773	-0.937692	-0.303309
C54	C	1.073875	-0.303348	-0.303289
C55	C	1.143843	-0.303356	-0.303297
C56	C	0.909785	-0.139140	-0.303319
C57	C	0.909827	-0.069172	-0.303340
C58	C	0.909737	-0.303317	-0.467461
C59	C	0.909759	-0.303312	-0.537429
C60	C	0.950044	-0.263053	-0.570313
C61	C	0.950043	-0.263025	-0.636056
C62	C	0.909764	-0.303268	-0.668911
C63	C	0.869472	-0.343530	-0.636019
C64	C	0.869470	-0.343552	-0.570278
N65	N	0.904908	-0.358336	-0.772127
N66	N	0.904914	-0.358314	-0.834578
C67	C	0.909768	-0.303204	-0.866986
N68	N	0.914629	-0.248117	-0.834584
N69	N	0.914626	-0.248141	-0.772126
C70	C	0.909762	-0.303249	-0.740197
C71	C	0.950054	-0.262913	-0.971156
C72	C	0.950048	-0.262884	-1.036900
C73	C	0.869481	-0.343395	-1.036862
C74	C	0.869483	-0.343417	-0.971120
C75	C	0.909773	-0.303177	-0.938271
C76	C	0.909669	-0.303298	-0.139719
C77	C	0.909769	-0.303127	-0.069751
H78	H	0.670059	-0.376467	-0.376166
O79	O	0.545598	-0.223948	-0.223967
C80	C	0.507535	-0.259744	-0.183258
H81	H	0.527324	-0.309318	-0.179302
H82	H	0.457713	-0.261936	-0.202705
C83	C	0.482223	-0.168033	-0.122721
C84	C	0.506531	-0.228918	-0.117858
H85	H	0.481601	-0.149017	-0.082380
H86	H	0.507865	-0.143915	-0.150149
H87	H	0.440708	-0.169867	-0.138929
H88	H	0.548049	-0.227082	-0.101658
H89	H	0.480897	-0.253035	-0.090426
O90	O	0.830340	-0.938585	-0.382517
C91	C	0.789677	-0.900624	-0.346631
H92	H	0.811900	-0.890784	-0.298945
H93	H	0.743040	-0.926004	-0.339676
C94	C	0.750946	-0.850253	-0.439812
C95	C	0.778242	-0.838162	-0.381245
H96	H	0.743890	-0.811724	-0.461164
H97	H	0.778340	-0.875829	-0.463989
H98	H	0.712085	-0.871404	-0.434007
H99	H	0.817106	-0.817018	-0.387050
H100	H	0.750855	-0.812581	-0.357069
O101	O	0.989249	-1.068109	-0.223989
C102	C	1.024789	-1.024987	-0.188488
H103	H	0.998987	-0.978149	-0.186277
H104	H	1.072585	-1.017938	-0.211579
C105	C	1.065589	-1.108203	-0.124220
C106	C	1.033896	-1.050677	-0.121500
H107	H	1.071210	-1.124050	-0.082899
H108	H	1.041647	-1.137255	-0.148139
H109	H	1.105416	-1.102321	-0.143465
H110	H	0.994067	-1.056561	-0.102263
H111	H	1.057832	-1.021626	-0.097576
O112	O	0.675186	-0.223906	-0.223946
C113	C	0.659071	-0.237565	-0.161184
H114	H	0.640976	-0.287850	-0.157916
H115	H	0.620917	-0.203795	-0.144794
C116	C	0.739677	-0.168413	-0.123194
C117	C	0.717457	-0.230176	-0.119180
H118	H	0.775691	-0.163853	-0.097282
H119	H	0.750533	-0.159209	-0.165478
H120	H	0.707876	-0.140278	-0.109537
H121	H	0.749255	-0.258309	-0.132844
H122	H	0.706608	-0.239385	-0.076897
H123	H	0.836679	-0.376155	-1.063613
H124	H	0.982745	-0.662201	-0.230292
O125	O	0.989087	-0.938573	-0.223954
C126	C	0.953253	-0.900590	-0.183266
H127	H	0.903685	-0.920450	-0.179333
H128	H	0.951053	-0.850757	-0.202718
C129	C	1.044921	-0.875194	-0.122686
C130	C	0.984043	-0.899590	-0.117851
H131	H	1.063915	-0.874574	-0.082335
H132	H	1.069064	-0.900782	-0.150099
H133	H	1.043079	-0.833669	-0.138898
H134	H	0.985886	-0.941117	-0.101646
H135	H	0.959901	-0.874009	-0.090433
O136	O	0.989085	-0.537863	-0.223930
C137	C	1.024638	-0.580963	-0.188427
H138	H	1.026818	-0.627811	-0.214220
H139	H	1.001614	-0.587998	-0.140597
C140	C	1.088956	-0.497718	-0.147737
C141	C	1.091637	-0.555256	-0.179419
H142	H	1.130283	-0.481860	-0.142177
H143	H	1.065002	-0.468680	-0.171654
H144	H	1.069766	-0.503588	-0.107882
H145	H	1.110819	-0.549383	-0.219276
H146	H	1.115596	-0.584292	-0.155508
H147	H	0.982846	-0.230238	-0.662835
H148	H	0.836663	-0.376335	-0.543504
O149	O	0.830378	-0.382711	-0.667863
C150	C	0.844106	-0.445458	-0.651810
H151	H	0.868300	-0.446779	-0.604086
H152	H	0.876458	-0.466653	-0.688820
C153	C	0.752997	-0.481959	-0.707362
C154	C	0.782709	-0.483582	-0.648744
H155	H	0.715126	-0.505477	-0.705473
H156	H	0.743750	-0.439686	-0.718179
H157	H	0.779965	-0.499620	-0.738197
H158	H	0.755745	-0.465914	-0.617911
H159	H	0.791951	-0.525854	-0.637921
H160	H	0.269217	-0.230208	-0.230379
O161	O	0.989204	-0.223761	-0.939339
C162	C	1.024767	-0.188226	-0.982465
H163	H	0.998985	-0.186027	-1.029317
H164	H	1.072563	-0.211279	-0.989477
C165	C	1.065544	-0.123940	-0.899268
C166	C	1.033875	-0.121235	-0.956811
H167	H	1.071166	-0.082617	-0.883443
H168	H	1.041587	-0.147882	-0.870213
H169	H	1.105371	-0.143153	-0.905119
H170	H	0.994047	-0.102029	-0.950957
H171	H	1.057827	-0.097288	-0.985864
O172	O	0.830337	-0.667387	-0.382649
C173	C	0.844050	-0.651267	-0.445398
H174	H	0.894330	-0.633150	-0.448619
H175	H	0.810279	-0.613127	-0.461817
C176	C	0.774969	-0.731902	-0.483455
C177	C	0.836727	-0.709656	-0.487412
H178	H	0.770450	-0.767918	-0.509372
H179	H	0.765729	-0.742762	-0.441180
H180	H	0.746834	-0.700114	-0.497137
H181	H	0.864860	-0.741441	-0.473723
H182	H	0.845972	-0.698803	-0.529686
H183	H	0.269221	-0.376486	-0.376199
H184	H	0.836556	-0.542981	-0.376225
O185	O	0.830442	-1.068350	-0.382576
C186	C	0.839114	-1.133420	-0.373977
H187	H	0.859755	-1.142410	-0.325417
H188	H	0.872628	-1.152024	-0.411349
C189	C	0.750082	-1.156186	-0.439341
C190	C	0.775429	-1.167227	-0.379696
H191	H	0.710799	-1.177041	-0.442871
H192	H	0.744240	-1.112347	-0.445136
H193	H	0.778016	-1.171689	-0.470477
H194	H	0.747498	-1.151718	-0.348561
H195	H	0.781264	-1.211065	-0.373896
O196	O	0.989195	-0.223901	-0.538502
C197	C	1.024762	-0.188372	-0.581629
H198	H	0.998982	-0.186176	-0.628482
H199	H	1.072557	-0.211427	-0.588638
C200	C	1.065540	-0.124080	-0.498437
C201	C	1.033873	-0.121379	-0.555981
H202	H	1.071163	-0.082756	-0.482615
H203	H	1.041580	-0.148018	-0.469380
H204	H	1.105365	-0.143296	-0.504285
H205	H	0.994045	-0.102171	-0.550131
H206	H	1.057827	-0.097436	-0.585036
H207	H	0.149946	-0.230215	-0.230379
O208	O	0.830421	-0.382620	-0.939202
C209	C	0.844129	-0.445355	-0.955281
H210	H	0.894417	-0.448534	-0.973371
H211	H	0.810371	-0.461792	-0.993428
C212	C	0.775008	-0.483481	-0.874658
C213	C	0.836774	-0.487386	-0.896872
H214	H	0.770469	-0.509409	-0.838629
H215	H	0.765771	-0.441215	-0.863826
H216	H	0.746884	-0.497177	-0.906452
H217	H	0.864897	-0.473683	-0.865080
H218	H	0.846016	-0.529651	-0.907697
O219	O	0.144886	-0.382892	-0.382537
C220	C	0.188000	-0.418460	-0.418012
H221	H	0.234851	-0.420591	-0.392224
H222	H	0.195020	-0.395480	-0.465865
C223	C	0.104782	-0.482857	-0.458630
C224	C	0.162323	-0.485479	-0.426954
H225	H	0.088943	-0.524197	-0.464149
H226	H	0.075734	-0.458893	-0.434732
H227	H	0.110639	-0.463704	-0.498504
H228	H	0.156464	-0.504624	-0.387078
H229	H	0.191369	-0.509448	-0.450846
O230	O	0.545723	-0.382857	-0.382520
C231	C	0.588835	-0.418425	-0.417997
H232	H	0.635681	-0.420573	-0.392202
H233	H	0.595867	-0.395435	-0.465843
C234	C	0.505610	-0.482794	-0.458645
C235	C	0.563146	-0.485437	-0.426960
H236	H	0.489763	-0.524129	-0.464177
H237	H	0.476564	-0.458830	-0.434745
H238	H	0.511478	-0.463633	-0.498513
H239	H	0.557275	-0.504591	-0.387090
H240	H	0.592190	-0.509406	-0.450853
H241	H	0.982852	-0.230097	-1.063673
