data_functionalizedCrystal
_audit_creation_method	'MofGen! by Chris Wilmer'
_symmetry_space_group_name_H-M	'P1'
_symmetry_Int_Tables_number	1
_symmetry_cell_setting	triclinic
loop_
_symmetry_equiv_pos_as_xyz
  x,y,z
_cell_length_a	10.654541
_cell_length_b	18.266242
_cell_length_c	10.654555
_cell_angle_alpha	90.002542
_cell_angle_beta	84.486741
_cell_angle_gamma	90.007592
loop_
_atom_site_label
_atom_site_type_symbol
_atom_site_fract_x
_atom_site_fract_y
_atom_site_fract_z
O1	O	1.667859	0.060854	0.176383
O2	O	1.302381	0.060860	0.193193
O3	O	1.493516	0.060857	0.002050
O4	O	1.476724	0.060857	0.367527
O5	O	1.493483	-0.060905	0.002044
O6	O	1.302348	-0.060902	0.193187
O7	O	1.667826	-0.060908	0.176378
Zn8	Zn	1.485082	-0.080237	0.184781
Zn9	Zn	1.485125	0.080189	0.184789
O10	O	1.476691	-0.060905	0.367521
C11	C	1.255566	-0.000020	0.191956
C12	C	1.116123	-0.000018	0.188265
N13	N	1.485061	-0.189724	0.184775
C14	C	1.088161	-0.000008	0.416829
C15	C	1.008671	-0.000001	0.529372
C16	C	0.877653	0.000000	0.525896
C17	C	0.826123	-0.000009	0.409865
C18	C	0.905613	-0.000017	0.297323
C19	C	1.036633	-0.000015	0.300811
C20	C	0.933574	-0.000032	0.068762
C21	C	1.064593	-0.000027	0.072235
C22	C	0.882044	-0.000041	-0.047268
C23	C	0.961534	-0.000043	-0.159814
C24	C	1.092560	-0.000043	-0.156333
C25	C	1.144082	-0.000035	-0.040308
C26	C	1.561887	-0.228028	0.261661
C27	C	1.561907	-0.304673	0.261658
C28	C	1.485080	-0.343011	0.184783
C29	C	1.408250	-0.304698	0.107882
C30	C	1.408240	-0.228055	0.107878
N31	N	1.375047	-0.463362	0.180396
N32	N	1.375059	-0.536170	0.180407
C33	C	1.485105	-0.573934	0.184788
N34	N	1.595139	-0.536139	0.189183
N35	N	1.595125	-0.463324	0.189178
C36	C	1.485082	-0.426118	0.184778
C37	C	1.561959	-0.695345	0.261674
C38	C	1.561982	-0.771991	0.261662
C39	C	1.408313	-0.772014	0.107894
C40	C	1.408301	-0.695370	0.107899
C41	C	1.485122	-0.657039	0.184796
C42	C	1.714641	-0.000026	0.177614
C43	C	1.854084	-0.000024	0.181305
C44	C	1.492263	-0.000023	-0.044751
C45	C	1.488566	-0.000018	-0.184194
N46	N	1.485156	0.189676	0.184785
C47	C	1.481590	-0.132772	-0.446231
C48	C	1.483304	-0.199146	-0.380719
C49	C	1.486772	-0.199146	-0.249701
C50	C	1.488524	-0.132765	-0.184190
C51	C	1.486810	-0.066392	-0.249701
C52	C	1.483346	-0.066399	-0.380723
C53	C	1.486852	0.066355	-0.249705
C54	C	1.483393	0.066357	-0.380725
C55	C	1.488604	0.132736	-0.184194
C56	C	1.486900	0.199111	-0.249707
C57	C	1.483433	0.199109	-0.380734
C58	C	1.481680	0.132731	-0.446236
C59	C	1.477944	-0.000024	0.414321
C60	C	1.481641	-0.000023	0.553764
H61	H	1.194841	0.000007	0.419670
H62	H	1.624551	-0.803177	0.324268
H63	H	1.345760	-0.803228	0.045299
H64	H	1.488317	0.253153	-0.196356
O65	O	1.636636	-0.190909	0.336380
C66	C	1.704427	-0.241159	0.404263
H67	H	1.711304	-0.295795	0.352343
H68	H	1.653548	-0.249310	0.502367
C69	C	1.829470	-0.144130	0.479796
C70	C	1.837926	-0.211233	0.416022
H71	H	1.911817	-0.125669	0.487056
H72	H	1.783795	-0.110274	0.434066
H73	H	1.787066	-0.150931	0.561543
H74	H	1.880316	-0.204429	0.334272
H75	H	1.883612	-0.245087	0.461738
H76	H	1.488144	-0.253193	-0.196359
H77	H	1.050642	0.000005	0.623842
O78	O	1.636675	-0.341926	0.336166
C79	C	1.721689	-0.386271	0.260396
H80	H	1.734322	-0.363176	0.160583
H81	H	1.682861	-0.444360	0.257910
C82	C	1.834424	-0.415805	0.438412
C83	C	1.849948	-0.387436	0.315822
H84	H	1.913539	-0.416527	0.472602
H85	H	1.777146	-0.385932	0.489461
H86	H	1.802063	-0.464210	0.436323
H87	H	1.882293	-0.339029	0.317913
H88	H	1.907235	-0.417301	0.264773
O89	O	1.481439	-0.263578	-0.444479
C90	C	1.370843	-0.267560	-0.506975
H91	H	1.334135	-0.209932	-0.522177
H92	H	1.296141	-0.300316	-0.447193
C93	C	1.445617	-0.376287	-0.616791
C94	C	1.400538	-0.305507	-0.635472
H95	H	1.463931	-0.399697	-0.696052
H96	H	1.520126	-0.373606	-0.574683
H97	H	1.383358	-0.403575	-0.566969
H98	H	1.462803	-0.278218	-0.685280
H99	H	1.326040	-0.308184	-0.677592
H100	H	1.345737	-0.664182	0.045295
O101	O	1.481803	0.263651	-0.444177
C102	C	1.484044	0.322233	-0.358249
H103	H	1.526221	0.302779	-0.269714
H104	H	1.383832	0.342628	-0.332007
C105	C	1.513085	0.408849	-0.528173
C106	C	1.564898	0.384957	-0.419436
H107	H	1.562954	0.447542	-0.565916
H108	H	1.511571	0.369382	-0.586065
H109	H	1.429576	0.425839	-0.506289
H110	H	1.648399	0.367959	-0.441324
H111	H	1.566428	0.424423	-0.361549
H112	H	1.491422	0.132731	-0.077511
H113	H	1.491333	-0.132771	-0.077505
O114	O	1.333486	-0.190956	0.033159
C115	C	1.265706	-0.241225	-0.034725
H116	H	1.258837	-0.295859	0.017195
H117	H	1.316588	-0.249370	-0.132828
C118	C	1.140646	-0.144227	-0.110261
C119	C	1.132201	-0.211329	-0.046487
H120	H	1.058296	-0.125785	-0.117523
H121	H	1.186314	-0.110359	-0.064531
H122	H	1.183053	-0.151024	-0.192007
H123	H	1.089809	-0.204529	0.035263
H124	H	1.086523	-0.245195	-0.092204
H125	H	1.478862	0.132722	-0.552920
O126	O	1.636705	-0.658219	0.336393
C127	C	1.704506	-0.708467	0.404271
H128	H	1.711394	-0.763101	0.352345
H129	H	1.653628	-0.716623	0.502374
C130	C	1.829530	-0.611432	0.479814
C131	C	1.837999	-0.678533	0.416032
H132	H	1.911873	-0.592966	0.487076
H133	H	1.783849	-0.577578	0.434088
H134	H	1.787127	-0.618238	0.561560
H135	H	1.880387	-0.671724	0.334283
H136	H	1.883691	-0.712385	0.461745
H137	H	0.812932	0.000001	0.617538
H138	H	0.719440	-0.000017	0.407046
H139	H	0.775361	-0.000044	-0.050090
H140	H	0.919567	-0.000050	-0.254277
H141	H	1.345697	-0.335918	0.045289
H142	H	1.478780	-0.132779	-0.552915
H143	H	1.250762	-0.000026	-0.037463
H144	H	1.157274	-0.000052	-0.247980
