data_functionalizedCrystal
_audit_creation_method	'MofGen! by Chris Wilmer'
_symmetry_space_group_name_H-M	'P1'
_symmetry_Int_Tables_number	1
_symmetry_cell_setting	triclinic
loop_
_symmetry_equiv_pos_as_xyz
  x,y,z
_cell_length_a	16.959455
_cell_length_b	13.897448
_cell_length_c	16.959447
_cell_angle_alpha	89.970632
_cell_angle_beta	89.985678
_cell_angle_gamma	90.014639
loop_
_atom_site_label
_atom_site_type_symbol
_atom_site_fract_x
_atom_site_fract_y
_atom_site_fract_z
Zn1	Zn	1.208397	-0.384074	-0.446914
Zn2	Zn	1.708397	0.115926	0.053086
Zn3	Zn	1.208325	-0.545393	-0.314738
Zn4	Zn	1.708325	-0.045393	0.185262
Zn5	Zn	1.076225	-0.384105	-0.314751
Zn6	Zn	1.576225	0.115895	0.185249
Zn7	Zn	1.076195	-0.545321	-0.446876
Zn8	Zn	1.576195	-0.045321	0.053124
O9	O	1.142286	-0.464723	-0.380820
O10	O	1.642286	0.035277	0.119180
O11	O	1.318998	-0.405491	-0.429390
O12	O	1.818998	0.094509	0.070610
O13	O	1.190784	-0.524040	-0.204128
O14	O	1.690784	-0.024040	0.295872
O15	O	1.093801	-0.249119	-0.332305
O16	O	1.593801	0.250881	0.167695
O17	O	1.318945	-0.524011	-0.332281
O18	O	1.818945	-0.024011	0.167719
O19	O	1.190907	-0.249097	-0.429404
O20	O	1.690907	0.250903	0.070596
O21	O	1.093731	-0.405543	-0.204139
O22	O	1.593731	0.094457	0.295861
O23	O	0.965610	-0.405473	-0.332268
O24	O	1.465610	0.094527	0.167732
O25	O	1.093750	-0.523888	-0.557492
O26	O	1.593750	-0.023888	-0.057492
O27	O	0.965589	-0.523917	-0.429340
O28	O	1.465589	-0.023917	0.070660
O29	O	1.190878	-0.405421	-0.557520
O30	O	1.690878	0.094579	-0.057520
O31	O	1.190755	-0.680365	-0.332244
O32	O	1.690755	-0.180365	0.167756
O33	O	1.093680	-0.680312	-0.429326
O34	O	1.593680	-0.180312	0.070674
C35	C	0.936919	-0.464691	-0.380802
C36	C	1.436919	0.035309	0.119198
C37	C	0.849063	-0.464701	-0.380813
C38	C	1.349063	0.035299	0.119187
C39	C	1.142228	-0.715337	-0.380797
C40	C	1.642228	-0.215337	0.119203
C41	C	1.142276	-0.822551	-0.380814
C42	C	1.642276	-0.322551	0.119186
C43	C	0.477574	-0.402998	-0.330380
C44	C	0.977574	0.097002	0.169620
C45	C	0.477600	-0.526527	-0.431305
C46	C	0.977600	-0.026527	0.068695
C47	C	0.560146	-0.526513	-0.431300
C48	C	1.060146	-0.026513	0.068700
C49	C	0.601410	-0.464742	-0.380834
C50	C	1.101410	0.035258	0.119166
C51	C	0.560128	-0.402985	-0.330372
C52	C	1.060128	0.097015	0.169628
C53	C	0.601434	-0.588276	-0.481754
C54	C	1.101434	-0.088276	0.018246
C55	C	0.683985	-0.588266	-0.481751
C56	C	1.183985	-0.088266	0.018249
C57	C	0.725251	-0.526489	-0.431288
C58	C	1.225251	-0.026489	0.068712
C59	C	0.683963	-0.464728	-0.380825
C60	C	1.183963	0.035272	0.119175
C61	C	0.725227	-0.402957	-0.330359
C62	C	1.225227	0.097043	0.169641
C63	C	0.683941	-0.341191	-0.279900
C64	C	1.183941	0.158809	0.220100
C65	C	0.601393	-0.341208	-0.279909
C66	C	1.101393	0.158792	0.220091
C67	C	0.807799	-0.526472	-0.431279
C68	C	1.307799	-0.026472	0.068721
C69	C	0.807781	-0.402944	-0.330351
C70	C	1.307781	0.097056	0.169649
C71	C	1.142359	-1.018846	-0.380863
C72	C	1.642359	-0.518846	0.119137
C73	C	1.142310	-0.909614	-0.380838
C74	C	1.642310	-0.409614	0.119162
C75	C	1.348454	-0.464756	-0.380838
C76	C	1.848454	0.035244	0.119162
C77	C	1.436310	-0.464770	-0.380846
C78	C	1.936310	0.035230	0.119154
C79	C	1.142319	-0.464643	-0.586988
C80	C	1.642319	0.035357	-0.086988
C81	C	1.142333	-0.464609	-0.674845
C82	C	1.642333	0.035391	-0.174845
C83	C	1.142365	-0.213130	-0.380860
C84	C	1.642365	0.286870	0.119140
C85	C	1.142399	-0.105916	-0.380877
C86	C	1.642399	0.394084	0.119123
C87	C	1.091857	-0.526188	-1.046309
C88	C	1.591857	-0.026188	-0.546309
C89	C	1.192997	-0.402827	-1.046333
C90	C	1.692997	0.097173	-0.546333
C91	C	1.192976	-0.402848	-0.963787
C92	C	1.692976	0.097152	-0.463787
C93	C	1.142395	-0.464540	-0.922498
C94	C	1.642395	0.035460	-0.422498
C95	C	1.091836	-0.526212	-0.963755
C96	C	1.591836	-0.026212	-0.463755
C97	C	1.243540	-0.341184	-0.922523
C98	C	1.743540	0.158816	-0.422523
C99	C	1.243522	-0.341203	-0.839972
C100	C	1.743522	0.158797	-0.339972
C101	C	1.192937	-0.402891	-0.798682
C102	C	1.692937	0.097109	-0.298682
C103	C	1.142375	-0.464564	-0.839944
C104	C	1.642375	0.035436	-0.339944
C105	C	1.091794	-0.526257	-0.798655
C106	C	1.591794	-0.026257	-0.298655
C107	C	1.041227	-0.587926	-0.839916
C108	C	1.541227	-0.087926	-0.339916
C109	C	1.041251	-0.587900	-0.922465
C110	C	1.541251	-0.087900	-0.422465
C111	C	1.192913	-0.402917	-0.716134
C112	C	1.692913	0.097083	-0.216134
C113	C	1.091773	-0.526281	-0.716102
C114	C	1.591773	-0.026281	-0.216102
C115	C	1.142298	-0.464733	-0.175454
C116	C	1.642298	0.035267	0.324546
C117	C	1.142437	-0.464495	-0.087597
C118	C	1.642437	0.035505	0.412403
H119	H	0.841372	-0.352635	-0.289260
H120	H	1.341372	0.147365	0.210740
C121	C	1.248627	-0.334963	-1.091753
C122	C	1.748627	0.165037	-0.591753
N123	N	1.290526	-0.283840	-1.125967
N124	N	1.790526	0.216160	-0.625967
C125	C	1.299166	-0.273317	-0.967945
C126	C	1.799166	0.226683	-0.467945
N127	N	1.341061	-0.222191	-1.002162
N128	N	1.841061	0.277809	-0.502162
H129	H	0.841410	-0.576764	-0.472360
H130	H	1.341410	-0.076764	0.027640
H131	H	0.717549	-0.290901	-0.238807
H132	H	1.217549	0.209099	0.261193
C133	C	0.556040	-0.656223	-0.537261
C134	C	1.056040	-0.156223	-0.037261
N135	N	0.521844	-0.707401	-0.579072
N136	N	1.021844	-0.207401	-0.079072
H137	H	0.567771	-0.290922	-0.238827
H138	H	1.067771	0.209078	0.261173
H139	H	1.000048	-0.638161	-0.806288
H140	H	1.500048	-0.138161	-0.306288
C141	C	0.432207	-0.594474	-0.486812
C142	C	0.932207	-0.094474	0.013188
N143	N	0.398014	-0.645652	-0.528625
N144	N	0.898014	-0.145652	-0.028625
H145	H	0.443956	-0.352707	-0.289300
H146	H	0.943956	0.147293	0.210700
H147	H	0.717593	-0.638559	-0.522839
H148	H	1.217593	-0.138559	-0.022839
H149	H	1.234086	-0.352709	-0.682543
H150	H	1.734086	0.147291	-0.182543
H151	H	1.284696	-0.290987	-0.806385
H152	H	1.784696	0.209013	-0.306385
H153	H	1.000085	-0.638111	-0.956067
H154	H	1.500085	-0.138111	-0.456067
C155	C	1.036128	-0.594147	-0.670691
C156	C	1.536128	-0.094147	-0.170691
N157	N	0.994215	-0.645265	-0.636488
N158	N	1.494215	-0.145265	-0.136488
H159	H	1.050685	-0.576395	-1.079907
H160	H	1.550685	-0.076395	-0.579907
