data_functionalizedCrystal
_audit_creation_method	'MofGen! by Chris Wilmer'
_symmetry_space_group_name_H-M	'P1'
_symmetry_Int_Tables_number	1
_symmetry_cell_setting	triclinic
loop_
_symmetry_equiv_pos_as_xyz
  x,y,z
_cell_length_a	11.169417
_cell_length_b	18.050589
_cell_length_c	11.169409
_cell_angle_alpha	89.967150
_cell_angle_beta	89.980176
_cell_angle_gamma	90.029099
loop_
_atom_site_label
_atom_site_type_symbol
_atom_site_fract_x
_atom_site_fract_y
_atom_site_fract_z
Zn1	Zn	1.834813	-0.295582	-0.678538
Zn2	Zn	1.834640	-0.419797	-0.477854
Zn3	Zn	1.634099	-0.295627	-0.477873
Zn4	Zn	1.634044	-0.419737	-0.678498
O5	O	1.734399	-0.357686	-0.578191
O6	O	2.002740	-0.312066	-0.651926
O7	O	1.807988	-0.403370	-0.309906
O8	O	1.660820	-0.191697	-0.504516
O9	O	2.002613	-0.403326	-0.504483
O10	O	1.808284	-0.191663	-0.651945
O11	O	1.660652	-0.312143	-0.309920
O12	O	1.466142	-0.312084	-0.504478
O13	O	1.660726	-0.403223	-0.846454
O14	O	1.466102	-0.403267	-0.651876
O15	O	1.808230	-0.312007	-0.846483
O16	O	1.807935	-0.523714	-0.504445
O17	O	1.660558	-0.523669	-0.651858
C18	C	1.422574	-0.357674	-0.578175
C19	C	1.289174	-0.357687	-0.578197
C20	C	1.734254	-0.550638	-0.578171
C21	C	1.734302	-0.633184	-0.578202
C22	C	1.654237	-0.832637	-0.658338
C23	C	1.624974	-0.882089	-0.548822
C24	C	1.734420	-0.784314	-0.578218
C25	C	1.763742	-0.881944	-0.687746
C26	C	1.734532	-0.930299	-0.578243
C27	C	1.705099	-0.832678	-0.468645
C28	C	1.843918	-0.832529	-0.607642
C29	C	1.814697	-0.881959	-0.498052
C30	C	1.734353	-0.700216	-0.578205
C31	C	1.734599	-1.014395	-0.578243
C32	C	2.047441	-0.357697	-0.578207
C33	C	2.180841	-0.357703	-0.578214
C34	C	1.734491	-0.357603	-0.891233
C35	C	1.734531	-0.357568	-1.024633
C36	C	1.734577	-0.163980	-0.578237
C37	C	1.734653	-0.081434	-0.578257
C38	C	1.734376	-0.357714	-0.266366
C39	C	1.734570	-0.357540	-0.132967
H40	H	1.586330	-0.810980	-0.725996
C41	C	1.501670	-0.911264	-0.515603
C42	C	1.503668	-0.988820	-0.514975
C43	C	1.390105	-1.015719	-0.484373
H44	H	1.444644	-0.894461	-0.572534
H45	H	1.480313	-0.893713	-0.438322
H46	H	1.525009	-1.006363	-0.592245
H47	H	1.560669	-1.005642	-0.458043
H48	H	1.368749	-0.998168	-0.407092
H49	H	1.333088	-0.998911	-0.541308
H50	H	1.391448	-1.068342	-0.483932
H51	H	1.680236	-0.811127	-0.376003
H52	H	1.882552	-0.903478	-0.430230
C53	C	1.967248	-0.803517	-0.641108
C54	C	1.997429	-0.828417	-0.755908
C55	C	2.111024	-0.801696	-0.786797
H56	H	2.024570	-0.821120	-0.585114
H57	H	1.966502	-0.750889	-0.640202
H58	H	1.998184	-0.881034	-0.756805
H59	H	1.940138	-0.810815	-0.811927
H60	H	2.110277	-0.749068	-0.785891
H61	H	2.168335	-0.819302	-0.730796
H62	H	2.131511	-0.818581	-0.864695
C63	C	1.796596	-0.910698	-0.811342
C64	C	1.712308	-0.885692	-0.894837
C65	C	1.742532	-0.912154	-1.008710
H66	H	1.797096	-0.963319	-0.810452
H67	H	1.873774	-0.892978	-0.832850
H68	H	1.635150	-0.903416	-0.873336
H69	H	1.711795	-0.833075	-0.895766
H70	H	1.819710	-0.894434	-1.030217
H71	H	1.743032	-0.964773	-1.007806
H72	H	1.685355	-0.895185	-1.065376
