data_functionalizedCrystal
_audit_creation_method	'MofGen! by Chris Wilmer'
_symmetry_space_group_name_H-M	'P1'
_symmetry_Int_Tables_number	1
_symmetry_cell_setting	triclinic
loop_
_symmetry_equiv_pos_as_xyz
  x,y,z
_cell_length_a	14.908783
_cell_length_b	19.121725
_cell_length_c	14.908308
_cell_angle_alpha	95.838923
_cell_angle_beta	89.788727
_cell_angle_gamma	91.021521
loop_
_atom_site_label
_atom_site_type_symbol
_atom_site_fract_x
_atom_site_fract_y
_atom_site_fract_z
Zn1	Zn	1.357914	-0.245707	-0.602017
Zn2	Zn	1.857914	0.254293	-0.102017
Zn3	Zn	1.372153	-0.356052	-0.458029
Zn4	Zn	1.872153	0.143948	0.041971
Zn5	Zn	1.216188	-0.244947	-0.442945
Zn6	Zn	1.716188	0.255053	0.057055
Zn7	Zn	1.213868	-0.369504	-0.600427
Zn8	Zn	1.713868	0.130496	-0.100427
O9	O	1.290031	-0.304053	-0.525854
O10	O	1.790031	0.195947	-0.025854
O11	O	1.485358	-0.255033	-0.589895
O12	O	1.985358	0.244967	-0.089895
O13	O	1.358394	-0.335366	-0.329861
O14	O	1.858394	0.164634	0.170139
O15	O	1.230000	-0.146741	-0.458399
O16	O	1.730000	0.353259	0.041601
O17	O	1.495819	-0.336103	-0.484107
O18	O	1.995819	0.163897	0.015893
O19	O	1.334126	-0.147300	-0.575269
O20	O	1.834126	0.352700	-0.075269
O21	O	1.243807	-0.253738	-0.318779
O22	O	1.743807	0.246262	0.181221
O23	O	1.090325	-0.266781	-0.456857
O24	O	1.590325	0.233219	0.043143
O25	O	1.226046	-0.359030	-0.726805
O26	O	1.726046	0.140970	-0.226805
O27	O	1.088620	-0.358293	-0.572559
O28	O	1.588620	0.141707	-0.072559
O29	O	1.331876	-0.268077	-0.727973
O30	O	1.831876	0.231923	-0.227973
O31	O	1.356144	-0.456143	-0.482565
O32	O	1.856144	0.043857	0.017435
O33	O	1.239853	-0.466026	-0.587185
O34	O	1.739853	0.033974	-0.087185
C35	C	1.056918	-0.313915	-0.512899
C36	C	1.556918	0.186085	-0.012899
C37	C	0.957190	-0.318152	-0.507379
C38	C	1.457190	0.181848	-0.007379
C39	C	0.758894	-0.241827	-0.607346
C40	C	1.258894	0.258173	-0.107346
C41	C	0.665191	-0.245806	-0.602162
C42	C	1.165191	0.254194	-0.102162
C43	C	0.676080	-0.330084	-0.491823
C44	C	1.176080	0.169916	0.008177
C45	C	0.769783	-0.326105	-0.497007
C46	C	1.269783	0.173895	0.002993
C47	C	0.811186	-0.281976	-0.554771
C48	C	1.311186	0.218024	-0.054771
C49	C	0.904891	-0.278001	-0.559959
C50	C	1.404891	0.221999	-0.059959
C51	C	0.915778	-0.362275	-0.449616
C52	C	1.415778	0.137725	0.050384
C53	C	0.822076	-0.366254	-0.444432
C54	C	1.322076	0.133746	0.055568
C55	C	1.299315	-0.486575	-0.536361
C56	C	1.799315	0.013425	-0.036361
C57	C	1.303367	-0.564656	-0.540890
C58	C	1.803367	-0.064656	-0.040890
C59	C	1.251113	-0.601107	-0.482135
C60	C	1.751113	-0.101107	0.017865
C61	C	1.254929	-0.674473	-0.486395
C62	C	1.754929	-0.174473	0.013605
C63	C	1.310996	-0.711387	-0.549415
C64	C	1.810996	-0.211387	-0.049415
C65	C	1.363256	-0.674931	-0.608172
C66	C	1.863256	-0.174931	-0.108172
C67	C	1.359444	-0.601566	-0.603907
C68	C	1.859444	-0.101566	-0.103907
C69	C	1.325220	-0.932913	-0.565335
C70	C	1.825220	-0.432913	-0.065335
C71	C	1.329026	-1.006283	-0.569597
C72	C	1.829026	-0.506283	-0.069597
C73	C	1.220700	-1.005820	-0.447819
C74	C	1.720700	-0.505820	0.052181
C75	C	1.216889	-0.932454	-0.443563
C76	C	1.716889	-0.432454	0.056437
C77	C	1.269153	-0.896004	-0.502317
C78	C	1.769153	-0.396004	-0.002317
C79	C	1.314896	-0.786379	-0.553773
C80	C	1.814896	-0.286379	-0.053773
C81	C	1.265257	-0.821013	-0.497954
C82	C	1.765257	-0.321013	0.002046
C83	C	1.524054	-0.294152	-0.538861
C84	C	2.024054	0.205848	-0.038861
C85	C	1.623781	-0.289933	-0.544404
C86	C	2.123781	0.210067	-0.044404
C87	C	1.277114	-0.315139	-0.761017
C88	C	1.777114	0.184861	-0.261017
C89	C	1.271609	-0.319863	-0.861229
C90	C	1.771609	0.180137	-0.361229
C91	C	1.280734	-0.120818	-0.515328
C92	C	1.780734	0.379182	-0.015328
C93	C	1.276772	-0.042734	-0.510843
C94	C	1.776772	0.457266	-0.010843
C95	C	1.371463	-0.234015	-1.050756
C96	C	1.871463	0.265985	-0.550756
C97	C	1.366294	-0.238451	-1.144915
C98	C	1.866294	0.261549	-0.644915
C99	C	1.256098	-0.333168	-1.143706
C100	C	1.756098	0.166832	-0.643706
C101	C	1.261267	-0.328732	-1.049548
C102	C	1.761267	0.171268	-0.549548
C103	C	1.318953	-0.279154	-1.003076
C104	C	1.818953	0.220846	-0.503076
C105	C	1.324126	-0.274722	-0.908916
C106	C	1.824126	0.225278	-0.408916
C107	C	1.213925	-0.369435	-0.907709
C108	C	1.713925	0.130565	-0.407709
C109	C	1.208756	-0.373871	-1.001867
C110	C	1.708756	0.126129	-0.501867
C111	C	1.302946	-0.292957	-0.291606
C112	C	1.802946	0.207043	0.208394
C113	C	1.308614	-0.288027	-0.191393
C114	C	1.808614	0.211973	0.308607
H115	H	0.622618	-0.213111	-0.644972
H116	H	1.122618	0.286889	-0.144972
H117	H	1.209133	-0.373531	-1.181559
H118	H	1.709133	0.126469	-0.681559
H119	H	1.409051	-0.201693	-1.183732
H120	H	1.909051	0.298307	-0.683732
C121	C	1.145311	-0.428404	-1.052991
C122	C	1.645311	0.071596	-0.552991
H123	H	1.149756	-0.424585	-1.115898
H124	H	1.649756	0.075415	-0.615898
H125	H	1.085351	-0.419954	-1.033620
H126	H	1.585351	0.080046	-0.533620
H127	H	1.161699	-0.474323	-1.041004
H128	H	1.661699	0.025677	-0.541004
H129	H	1.401996	-0.571888	-0.651750
H130	H	1.901996	-0.071888	-0.151750
C131	C	1.156160	-0.419089	-0.855259
C132	C	1.656160	0.080911	-0.355259
H133	H	1.167496	-0.409346	-0.792525
H134	H	1.667496	0.090654	-0.292525
H135	H	1.170841	-0.466461	-0.874136
H136	H	1.670841	0.033539	-0.374136
H137	H	1.094503	-0.412084	-0.866748
H138	H	1.594503	0.087916	-0.366748
H139	H	0.938600	-0.242070	-0.606995
H140	H	1.438600	0.257930	-0.106995
H141	H	0.792605	-0.205899	-0.654384
H142	H	1.292605	0.294101	-0.154384
C143	C	1.424926	-0.715535	-0.677494
C144	C	1.924926	-0.215535	-0.177494
H145	H	1.419706	-0.764450	-0.671627
H146	H	1.919706	-0.264450	-0.171627
H147	H	1.485317	-0.700302	-0.667002
H148	H	1.985317	-0.200302	-0.167002
H149	H	1.407786	-0.706910	-0.736630
H150	H	1.907786	-0.206910	-0.236630
C151	C	0.630530	-0.378620	-0.428286
C152	C	1.130530	0.121380	0.071714
H153	H	0.675092	-0.401960	-0.397711
H154	H	1.175092	0.098040	0.102289
H155	H	0.593651	-0.412440	-0.462455
H156	H	1.093651	0.087560	0.037545
H157	H	0.594755	-0.351396	-0.385482
H158	H	1.094755	0.148604	0.114518
C159	C	0.776531	-0.414795	-0.380898
C160	C	1.276531	0.085205	0.119102
H161	H	0.821098	-0.438134	-0.350327
H162	H	1.321098	0.061866	0.149673
H163	H	0.739655	-0.448616	-0.415069
H164	H	1.239655	0.051384	0.084931
H165	H	0.740754	-0.387576	-0.338090
H166	H	1.240754	0.112424	0.161910
C167	C	0.973302	-0.406441	-0.391782
C168	C	1.473302	0.093559	0.108218
H169	H	1.035038	-0.397751	-0.403138
H170	H	1.535038	0.102249	0.096862
H171	H	0.959632	-0.454926	-0.406750
H172	H	1.459632	0.045074	0.093250
H173	H	0.960732	-0.393883	-0.329775
H174	H	1.460732	0.106117	0.170225
H175	H	1.205453	-0.571057	-0.430822
H176	H	1.705453	-0.071057	0.069178
H177	H	1.212380	-0.704148	-0.438549
H178	H	1.712380	-0.204148	0.061451
H179	H	1.418438	-0.193651	-1.012919
H180	H	1.918438	0.306349	-0.512919
H181	H	1.171235	-0.902400	-0.392248
H182	H	1.671235	-0.402400	0.107752
C183	C	1.203584	-0.780413	-0.428637
C184	C	1.703584	-0.280413	0.071363
H185	H	1.173008	-0.812627	-0.394249
H186	H	1.673008	-0.312627	0.105751
H187	H	1.161091	-0.755089	-0.459263
H188	H	1.661091	-0.255089	0.040737
H189	H	1.238612	-0.748479	-0.389622
H190	H	1.738612	-0.248479	0.110378
H191	H	1.367773	-0.903241	-0.613176
H192	H	1.867773	-0.403241	-0.113176
H193	H	1.178151	-1.035505	-0.399984
H194	H	1.678151	-0.535505	0.100016
H195	H	1.374669	-1.036338	-0.620932
H196	H	1.874669	-0.536338	-0.120932
C197	C	1.387570	-0.220185	-0.857798
C198	C	1.887570	0.279815	-0.357798
H199	H	1.418094	-0.193932	-0.899683
H200	H	1.918094	0.306068	-0.399683
H201	H	1.430049	-0.243665	-0.824780
H202	H	1.930049	0.256335	-0.324780
H203	H	1.353698	-0.189299	-0.817404
H204	H	1.853698	0.310701	-0.317404
H205	H	1.360544	-0.816443	-0.605085
H206	H	1.860544	-0.316443	-0.105085
