data_functionalizedCrystal
_audit_creation_method	'MofGen! by Chris Wilmer'
_symmetry_space_group_name_H-M	'P1'
_symmetry_Int_Tables_number	1
_symmetry_cell_setting	triclinic
loop_
_symmetry_equiv_pos_as_xyz
  x,y,z
_cell_length_a	34.490303
_cell_length_b	34.489386
_cell_length_c	34.485816
_cell_angle_alpha	60.004462
_cell_angle_beta	60.008900
_cell_angle_gamma	59.994399
loop_
_atom_site_label
_atom_site_type_symbol
_atom_site_fract_x
_atom_site_fract_y
_atom_site_fract_z
O1	O	0.053846	-0.566517	0.473678
O2	O	0.553846	-0.066517	0.973678
O3	O	0.020329	-0.441078	0.381663
O4	O	0.520329	0.058922	0.881663
O5	O	0.099768	-0.520436	0.381578
O6	O	0.599768	-0.020436	0.881578
O7	O	-0.025592	-0.487159	0.473762
O8	O	0.474408	0.012841	0.973762
O9	O	0.126127	-0.494082	0.407849
O10	O	0.626127	0.005918	0.907849
O11	O	0.046689	-0.414724	0.407933
O12	O	0.546689	0.085276	0.907933
O13	O	0.080206	-0.540163	0.499949
O14	O	0.580206	-0.040163	0.999949
Zn15	Zn	0.067632	-0.473259	0.458112
Zn16	Zn	0.567632	0.026741	0.958112
Zn17	Zn	0.032903	-0.507982	0.423499
Zn18	Zn	0.532903	-0.007982	0.923499
O19	O	0.000767	-0.460805	0.500033
O20	O	0.500767	0.039195	1.000033
N21	N	0.091336	-0.449565	0.481736
N22	N	0.591336	0.050435	0.981736
N23	N	0.009203	-0.531680	0.399875
N24	N	0.509203	-0.031680	0.899875
C25	C	0.142510	-0.268211	0.532817
C26	C	0.642510	0.231789	1.032817
C27	C	0.142641	-0.398441	0.662987
C28	C	0.642641	0.101559	1.162987
C29	C	0.142524	-0.398421	0.532817
C30	C	0.642524	0.101579	1.032817
C31	C	0.272762	-0.398394	0.532723
C32	C	0.772762	0.101606	1.032723
C33	C	0.156853	-0.311177	0.547124
C34	C	0.656853	0.188823	1.047124
C35	C	0.156928	-0.384109	0.620020
C36	C	0.656928	0.115891	1.120020
C37	C	0.229794	-0.384081	0.547073
C38	C	0.729794	0.115919	1.047073
C39	C	0.156863	-0.384097	0.547124
C40	C	0.656863	0.115903	1.047124
C41	C	0.124253	-0.213522	0.514606
C42	C	0.624253	0.286478	1.014606
C43	C	0.124277	-0.416652	0.514606
C44	C	0.624277	0.083348	1.014606
C45	C	0.175110	-0.365866	0.565335
C46	C	0.675110	0.134134	1.065335
C47	C	0.352285	-0.384669	0.490824
C48	C	0.852285	0.115331	0.990824
C49	C	0.401998	-0.401229	0.474223
C50	C	0.901998	0.098771	0.974223
C51	C	0.402027	-0.481671	0.504898
C52	C	0.902027	0.018329	1.004898
C53	C	0.352316	-0.465109	0.521500
C54	C	0.852316	0.034891	1.021500
C55	C	0.136220	-0.188652	0.465734
C56	C	0.636220	0.311348	0.965734
C57	C	0.119621	-0.138936	0.449181
C58	C	0.619621	0.361064	0.949181
C59	C	0.079092	-0.138961	0.530374
C60	C	0.579092	0.361039	1.030374
C61	C	0.095691	-0.188678	0.546927
C62	C	0.595691	0.311322	1.046927
C63	C	0.075398	-0.404656	0.526651
C64	C	0.575398	0.095344	1.026651
C65	C	0.058814	-0.421229	0.510091
C66	C	0.558814	0.078771	1.010091
C67	C	0.139984	-0.461794	0.469452
C68	C	0.639984	0.038206	0.969452
C69	C	0.156570	-0.445221	0.486007
C70	C	0.656570	0.054779	0.986007
C71	C	0.075593	-0.404694	0.742565
C72	C	0.575593	0.095306	1.242565
C73	C	0.059066	-0.421281	0.792280
C74	C	0.559066	0.078719	1.292280
C75	C	0.140274	-0.461856	0.792215
C76	C	0.640274	0.038144	1.292215
C77	C	0.156800	-0.445269	0.742499
C78	C	0.656800	0.054731	1.242499
C79	C	0.124458	-0.416687	0.717675
C80	C	0.624458	0.083313	1.217675
C81	C	0.327446	-0.416608	0.514460
C82	C	0.827446	0.083392	1.014460
C83	C	-0.023585	-0.564792	0.161919
C84	C	0.476415	-0.064792	0.661919
C85	C	-0.023910	-0.769260	0.366530
C86	C	0.476090	-0.269260	0.866530
C87	C	-0.023880	-0.564780	0.366623
C88	C	0.476120	-0.064780	0.866623
C89	C	-0.228325	-0.564561	0.366222
C90	C	0.271675	-0.064561	0.866222
C91	C	-0.129610	-0.597564	0.333467
C92	C	0.370390	-0.097564	0.833467
C93	C	-0.056729	-0.597644	0.333613
C94	C	0.443271	-0.097644	0.833613
C95	C	-0.074925	-0.615849	0.315324
C96	C	0.425075	-0.115849	0.815324
C97	C	-0.088689	-0.695351	0.357144
C98	C	0.411311	-0.195351	0.857144
C99	C	-0.072155	-0.745068	0.373736
C100	C	0.427845	-0.245068	0.873736
C101	C	0.008283	-0.745150	0.343188
C102	C	0.508283	-0.245150	0.843188
C103	C	-0.008252	-0.695435	0.326596
C104	C	0.491748	-0.195435	0.826596
C105	C	-0.154529	-0.609541	0.382326
C106	C	0.345471	-0.109541	0.882326
C107	C	-0.204241	-0.592916	0.398818
C108	C	0.295759	-0.092916	0.898818
C109	C	-0.204114	-0.552341	0.317588
C110	C	0.295886	-0.052341	0.817588
C111	C	-0.154401	-0.568966	0.301096
C112	C	0.345599	-0.068966	0.801096
C113	C	-0.068707	-0.548770	0.321590
C114	C	0.431293	-0.048770	0.821590
C115	C	-0.052166	-0.532225	0.338221
C116	C	0.447834	-0.032225	0.838221
C117	C	-0.011669	-0.613425	0.378886
C118	C	0.488331	-0.113425	0.878886
C119	C	-0.028210	-0.629972	0.362261
C120	C	0.471790	-0.129972	0.862261
C121	C	-0.068581	-0.548777	0.235758
C122	C	0.431419	-0.048777	0.735758
C123	C	-0.051939	-0.532234	0.186043
C124	C	0.448061	-0.032234	0.686043
C125	C	-0.011379	-0.613438	0.186090
C126	C	0.488621	-0.113438	0.686090
C127	C	-0.028020	-0.629981	0.235806
C128	C	0.471980	-0.129981	0.735806
C129	C	-0.056622	-0.597649	0.260639
C130	C	0.443378	-0.097649	0.760639
C131	C	-0.056739	-0.670537	0.333576
C132	C	0.443261	-0.170537	0.833576
C133	C	-0.005614	-0.545951	0.107238
C134	C	0.494386	-0.045951	0.607238
C135	C	-0.006360	-0.823943	0.385033
C136	C	0.493640	-0.323943	0.885033
C137	C	-0.005995	-0.545937	0.384582
C138	C	0.494005	-0.045937	0.884582
C139	C	-0.283006	-0.545971	0.383725
C140	C	0.216994	-0.045971	0.883725
N141	N	0.426163	-0.449489	0.481488
N142	N	0.926163	0.050511	0.981488
O143	O	0.588601	-0.457377	0.364497
O144	O	1.088601	0.042623	0.864497
O145	O	0.588789	-0.549696	0.489801
O146	O	1.088789	-0.049696	0.989801
O147	O	0.588709	-0.549485	0.410335
O148	O	1.088709	-0.049485	0.910335
O149	O	0.588681	-0.457588	0.443963
O150	O	1.088681	0.042412	0.943963
O151	O	0.509731	-0.523223	0.436741
O152	O	1.009731	-0.023223	0.936741
O153	O	0.509811	-0.523434	0.516207
O154	O	1.009811	-0.023434	1.016207
O155	O	0.509624	-0.431115	0.390903
O156	O	1.009624	0.068885	0.890903
Zn157	Zn	0.497178	-0.473105	0.457747
Zn158	Zn	0.997178	0.026895	0.957747
Zn159	Zn	0.601234	-0.507706	0.422956
Zn160	Zn	1.101234	-0.007706	0.922956
O161	O	0.509704	-0.431326	0.470368
O162	O	1.009704	0.068674	0.970368
N163	N	0.672250	-0.531322	0.399211
N164	N	1.172250	-0.031322	0.899211
N165	N	0.091303	-0.114798	0.481730
N166	N	0.591303	0.385202	0.981730
O167	O	-0.025603	0.047729	0.473733
O168	O	0.474397	0.547729	0.973733
O169	O	0.099703	0.047764	0.381394
O170	O	0.599703	0.547764	0.881394
O171	O	0.020199	0.047731	0.381655
O172	O	0.520199	0.547731	0.881655
O173	O	0.053901	0.047761	0.473472
O174	O	0.553901	0.547761	0.973472
O175	O	0.046564	-0.031252	0.407974
O176	O	0.546564	0.468748	0.907974
O177	O	0.126068	-0.031219	0.407713
O178	O	0.626068	0.468781	0.907713
O179	O	0.000762	-0.031254	0.500052
O180	O	0.500762	0.468746	1.000052
Zn181	Zn	0.067601	-0.043777	0.458061
Zn182	Zn	0.567601	0.456223	0.958061
Zn183	Zn	0.032864	0.060287	0.423385
Zn184	Zn	0.532864	0.560287	0.923385
O185	O	0.080266	-0.031222	0.499791
O186	O	0.580266	0.468778	0.999791
N187	N	0.009156	0.131307	0.399717
N188	N	0.509156	0.631307	0.899717
N189	N	0.091635	-0.449614	0.816396
N190	N	0.591635	0.050386	1.316396
O191	O	0.083664	-0.566502	0.978913
O192	O	0.583664	-0.066502	1.478913
O193	O	-0.008637	-0.441152	0.978954
O194	O	0.491363	0.058848	1.478954
O195	O	-0.008421	-0.520640	0.978930
O196	O	0.491579	-0.020640	1.478930
O197	O	0.083448	-0.487013	0.978936
O198	O	0.583448	0.012987	1.478936
O199	O	0.017877	-0.494296	0.899950
O200	O	0.517877	0.005704	1.399950
O201	O	0.017661	-0.414807	0.899974
O202	O	0.517661	0.085193	1.399974
O203	O	0.109961	-0.540157	0.899933
O204	O	0.609961	-0.040157	1.399933
Zn205	Zn	0.067986	-0.473299	0.887414
Zn206	Zn	0.567986	0.026701	1.387414
Zn207	Zn	0.033338	-0.508010	0.991473
Zn208	Zn	0.533338	-0.008010	1.491473
O209	O	0.109746	-0.460669	0.899956
O210	O	0.609746	0.039331	1.399956
N211	N	0.009689	-0.531700	1.062491
N212	N	0.509689	-0.031700	1.562491
C213	C	0.030367	-0.412095	0.382120
C214	C	0.530367	0.087905	0.882120
C215	C	0.128741	-0.510370	0.382016
C216	C	0.628741	-0.010370	0.882016
C217	C	0.070168	-0.569147	0.499490
C218	C	0.570168	-0.069147	0.999490
C219	C	-0.028207	-0.470871	0.499595
C220	C	0.471793	0.029129	0.999595
C221	C	0.549323	-0.549278	0.518791
C222	C	1.049323	-0.049278	1.018791
C223	C	0.549225	-0.549017	0.420381
C224	C	1.049225	-0.049017	0.920381
C225	C	0.549087	-0.431532	0.361914
C226	C	1.049087	0.068468	0.861914
C227	C	0.549188	-0.431794	0.460322
C228	C	1.049188	0.068206	0.960322
C229	C	0.128638	0.008374	0.381806
C230	C	0.628638	0.508374	0.881806
C231	C	0.030215	0.008236	0.382161
C232	C	0.530215	0.508236	0.882161
C233	C	-0.028206	0.008233	0.499608
C234	C	0.471794	0.508233	0.999608
C235	C	0.070250	0.008272	0.499285
C236	C	0.570250	0.508272	0.999285
C237	C	-0.008199	-0.412187	0.939469
C238	C	0.491801	0.087813	1.439469
C239	C	-0.007927	-0.510619	0.939425
C240	C	0.492073	-0.010619	1.439425
C241	C	0.109523	-0.569121	0.939417
C242	C	0.609523	-0.069121	1.439417
C243	C	0.109257	-0.470684	0.939444
C244	C	0.609257	0.029316	1.439444
H245	H	0.019274	-0.411508	0.812539
H246	H	0.519274	0.088492	1.312539
N247	N	0.079647	-0.616876	0.537775
N248	N	0.579647	-0.116876	1.037775
H249	H	0.075885	-0.612518	0.566479
H250	H	0.575885	-0.112518	1.066479
H251	H	0.113064	-0.638009	0.525458
H252	H	0.613064	-0.138009	1.025458
N253	N	-0.127794	-0.640381	0.417242
N254	N	0.372206	-0.140381	0.917242
H255	H	-0.107167	-0.624283	0.412219
H256	H	0.392833	-0.124283	0.912219
H257	H	-0.107203	-0.672076	0.412188
H258	H	0.392797	-0.172076	0.912188
N259	N	0.549180	-0.393554	0.469848
N260	N	1.049180	0.106446	0.969848
H261	H	0.519923	-0.385708	0.497410
H262	H	1.019923	0.114292	0.997410
H263	H	0.549150	-0.364177	0.440661
H264	H	1.049150	0.135823	0.940661
H265	H	0.138119	-0.463487	0.939440
H266	H	0.638119	0.036513	1.439440
N267	N	0.176160	0.008766	0.343249
N268	N	0.676160	0.508766	0.843249
H269	H	0.191425	-0.020420	0.333875
H270	H	0.691425	0.479580	0.833875
H271	H	0.197372	0.008888	0.355360
H272	H	0.697372	0.508888	0.855360
H273	H	0.022995	0.008233	0.353314
H274	H	0.522995	0.508233	0.853314
N275	N	0.079810	0.008276	0.537499
N276	N	0.579810	0.508276	1.037499
H277	H	0.050653	0.008268	0.566904
H278	H	0.550653	0.508268	1.066904
H279	H	0.087831	0.037562	0.525804
H280	H	0.587831	0.537562	1.025804
N281	N	0.048288	-0.112159	0.565229
N282	N	0.548288	0.387841	1.065229
H283	H	0.064410	-0.091525	0.560148
H284	H	0.564410	0.408475	1.060148
H285	H	0.043237	-0.135487	0.598688
H286	H	0.543237	0.364513	1.098688
N287	N	-0.046139	-0.520133	0.939374
N288	N	0.453861	-0.020133	1.439374
H289	H	-0.055335	-0.496836	0.910090
H290	H	0.444665	0.003164	1.410090
H291	H	-0.074845	-0.516386	0.968665
H292	H	0.425155	-0.016386	1.468665
N293	N	0.132523	-0.112108	0.396468
N294	N	0.632523	0.387892	0.896468
H295	H	0.153137	-0.135391	0.378506
H296	H	0.653137	0.364609	0.878506
H297	H	0.150429	-0.091471	0.387813
H298	H	0.650429	0.408529	0.887813
N299	N	0.040709	-0.373846	0.715792
N300	N	0.540709	0.126154	1.215792
H301	H	0.007245	-0.368760	0.739105
H302	H	0.507245	0.131240	1.239105
H303	H	0.045787	-0.389973	0.695159
H304	H	0.545787	0.110027	1.195159
N305	N	0.020887	-0.364364	0.343837
N306	N	0.520887	0.135636	0.843837
H307	H	-0.012532	-0.343207	0.356115
H308	H	0.487468	0.156793	0.856115
H309	H	0.024675	-0.368760	0.315146
H310	H	0.524675	0.131240	0.815146
N311	N	0.006095	-0.408295	0.523080
N312	N	0.506095	0.091705	1.023080
H313	H	-0.008735	-0.420461	0.558744
H314	H	0.491265	0.079539	1.058744
H315	H	0.000530	-0.423129	0.508218
H316	H	0.500530	0.076871	1.008218
H317	H	-0.037176	-0.376187	0.939482
H318	H	0.462824	0.123813	1.439482
H319	H	0.164745	-0.517463	0.353068
H320	H	0.664745	-0.017463	0.853068
H321	H	0.138503	-0.605120	0.939399
H322	H	0.638503	-0.105120	1.439399
N323	N	-0.075870	0.008217	0.538010
N324	N	0.424130	0.508217	1.038010
H325	H	-0.097114	0.008206	0.525854
H326	H	0.402886	0.508206	1.025854
H327	H	-0.090950	0.037499	0.547181
H328	H	0.409050	0.537499	1.047181
H329	H	0.166612	-0.485121	0.812425
H330	H	0.666612	0.014879	1.312425
H331	H	-0.064213	-0.463781	0.528541
H332	H	0.435787	0.036219	1.028541
H333	H	0.196592	-0.455039	0.722237
H334	H	0.696592	0.044961	1.222237
H335	H	0.049100	-0.381393	0.549936
H336	H	0.549100	0.118607	1.049936
H337	H	0.166284	-0.485062	0.446169
H338	H	0.666284	0.014938	0.946169
N339	N	0.549398	-0.587672	0.566457
N340	N	1.049398	-0.087672	1.066457
H341	H	0.549417	-0.616999	0.566523
H342	H	1.049417	-0.116999	1.066523
H343	H	0.520134	-0.576095	0.592155
H344	H	1.020134	-0.076095	1.092155
H345	H	0.549237	-0.577886	0.413185
H346	H	1.049237	-0.077886	0.913185
H347	H	0.196371	-0.454985	0.476195
H348	H	0.696371	0.045015	0.976195
H349	H	0.422274	-0.521162	0.510626
H350	H	0.922274	-0.021162	1.010626
N351	N	0.325524	-0.499558	0.546996
N352	N	0.825524	0.000442	1.046996
H353	H	0.334207	-0.523773	0.576361
H354	H	0.834207	-0.023773	1.076361
H355	H	0.334171	-0.516241	0.525227
H356	H	0.834171	-0.016241	1.025227
N357	N	0.428790	-0.366778	0.448730
N358	N	0.928790	0.133222	0.948730
H359	H	0.420110	-0.342565	0.419363
H360	H	0.920110	0.157435	0.919363
H361	H	0.464048	-0.384665	0.439314
H362	H	0.964048	0.115335	0.939314
N363	N	0.325451	-0.332359	0.483242
N364	N	0.825451	0.167641	0.983242
H365	H	0.334069	-0.313903	0.448099
H366	H	0.834069	0.186097	0.948099
H367	H	0.334124	-0.321447	0.499229
H368	H	0.834124	0.178553	0.999229
N369	N	0.167030	-0.215447	0.430874
N370	N	0.667030	0.284553	0.930874
H371	H	0.172089	-0.192148	0.397402
H372	H	0.672089	0.307852	0.897402
H373	H	0.150889	-0.236083	0.435993
H374	H	0.650889	0.263917	0.935993
N375	N	0.082786	-0.215502	0.599638
N376	N	0.582786	0.284498	1.099638
H377	H	0.047128	-0.206862	0.614523
H378	H	0.547128	0.293138	1.114523
H379	H	0.094979	-0.206837	0.614448
H380	H	0.594979	0.293163	1.114448
N381	N	-0.064844	-0.479518	0.159215
N382	N	0.435156	0.020482	0.659215
H383	H	-0.100500	-0.464625	0.167811
H384	H	0.399500	0.035375	0.667811
H385	H	-0.049934	-0.473979	0.123961
H386	H	0.450066	0.026021	0.623961
N387	N	-0.099433	-0.513907	0.262545
N388	N	0.400567	-0.013907	0.762545
H389	H	-0.129297	-0.493254	0.253836
H390	H	0.370703	0.006746	0.753836
H391	H	-0.081475	-0.493332	0.253922
H392	H	0.418525	0.006668	0.753922
N393	N	0.019463	-0.648309	0.159308
N394	N	0.519463	-0.148309	0.659308
H395	H	0.001536	-0.668911	0.167924
H396	H	0.501536	-0.168911	0.667924
H397	H	0.049320	-0.668934	0.168029
H398	H	0.549320	-0.168934	0.668029
N399	N	-0.015116	-0.682695	0.262642
N400	N	0.484884	-0.182695	0.762642
H401	H	0.005526	-0.700665	0.239365
H402	H	0.505526	-0.200665	0.739365
H403	H	-0.045031	-0.691304	0.283223
H404	H	0.454969	-0.191304	0.783223
H405	H	0.549027	-0.402547	0.325928
H406	H	1.049027	0.097453	0.825928
N407	N	-0.065092	-0.479510	0.325267
N408	N	0.434908	0.020490	0.825267
H409	H	-0.085670	-0.461540	0.304597
H410	H	0.414330	0.038460	0.804597
H411	H	-0.035183	-0.470899	0.307406
H412	H	0.464817	0.029101	0.807406
H413	H	-0.091926	-0.522444	0.298262
H414	H	0.408074	-0.022444	0.798262
H415	H	-0.018458	-0.669769	0.372051
H416	H	0.481542	-0.169769	0.872051
N417	N	0.019084	-0.648296	0.409790
N418	N	0.519084	-0.148296	0.909790
H419	H	0.048987	-0.668958	0.391915
H420	H	0.548987	-0.168958	0.891915
H421	H	0.001080	-0.668860	0.439652
H422	H	0.501080	-0.168860	0.939652
N423	N	0.026210	-0.668668	0.301173
N424	N	0.526210	-0.168668	0.801173
H425	H	0.059434	-0.691987	0.299273
H426	H	0.559434	-0.191987	0.799273
H427	H	0.017321	-0.648037	0.319194
H428	H	0.517321	-0.148037	0.819194
H429	H	-0.098172	-0.765271	0.392919
H430	H	0.401828	-0.265271	0.892919
N431	N	0.060579	-0.772009	0.335668
N432	N	0.560579	-0.272009	0.835668
H433	H	0.078312	-0.748745	0.318219
H434	H	0.578312	-0.248745	0.818219
H435	H	0.072971	-0.792643	0.316316
H436	H	0.572971	-0.292643	0.816316
H437	H	-0.128170	-0.675084	0.362831
H438	H	0.371830	-0.175084	0.862831
H439	H	-0.224531	-0.602667	0.438605
H440	H	0.275469	-0.102667	0.938605
H441	H	-0.134111	-0.559208	0.261309
H442	H	0.365889	-0.059208	0.761309
N443	N	-0.230857	-0.521504	0.282677
N444	N	0.269143	-0.021504	0.782677
H445	H	-0.207527	-0.516445	0.249220
H446	H	0.292473	-0.016445	0.749220
H447	H	-0.251473	-0.489822	0.287756
H448	H	0.248527	0.010178	0.787756
