data_functionalizedCrystal
_audit_creation_method	'MofGen! by Chris Wilmer'
_symmetry_space_group_name_H-M	'P1'
_symmetry_Int_Tables_number	1
_symmetry_cell_setting	triclinic
loop_
_symmetry_equiv_pos_as_xyz
  x,y,z
_cell_length_a	16.959455
_cell_length_b	13.897448
_cell_length_c	13.897441
_cell_angle_alpha	90.029627
_cell_angle_beta	90.018627
_cell_angle_gamma	90.014639
loop_
_atom_site_label
_atom_site_type_symbol
_atom_site_fract_x
_atom_site_fract_y
_atom_site_fract_z
Zn1	Zn	1.208430	-0.384072	0.545382
Zn2	Zn	1.541764	-0.050739	0.878715
Zn3	Zn	1.875097	0.282595	1.212049
Zn4	Zn	1.208349	-0.545391	0.384083
Zn5	Zn	1.541682	-0.212058	0.717417
Zn6	Zn	1.875015	0.121276	1.050750
Zn7	Zn	1.076249	-0.384103	0.384100
Zn8	Zn	1.409582	-0.050770	0.717434
Zn9	Zn	1.742916	0.282564	1.050767
Zn10	Zn	1.076229	-0.545318	0.545336
Zn11	Zn	1.409562	-0.211985	0.878669
Zn12	Zn	1.742896	0.121349	1.212002
O13	O	1.142314	-0.464721	0.464725
O14	O	1.475648	-0.131388	0.798059
O15	O	1.808981	0.201946	1.131392
O16	O	1.319030	-0.405489	0.523998
O17	O	1.652364	-0.072155	0.857331
O18	O	1.985697	0.261178	1.190664
O19	O	1.190799	-0.524039	0.249104
O20	O	1.524133	-0.190706	0.582437
O21	O	1.857466	0.142627	0.915771
O22	O	1.093826	-0.249117	0.405521
O23	O	1.427159	0.084216	0.738854
O24	O	1.760492	0.417549	1.072188
O25	O	1.318970	-0.524009	0.405492
O26	O	1.652304	-0.190676	0.738825
O27	O	1.985637	0.142658	1.072159
O28	O	1.190939	-0.249094	0.524014
O29	O	1.524272	0.084239	0.857347
O30	O	1.857606	0.417572	1.190681
O31	O	1.093746	-0.405542	0.249116
O32	O	1.427080	-0.072208	0.582450
O33	O	1.760413	0.261125	0.915783
O34	O	0.965635	-0.405471	0.405476
O35	O	1.298969	-0.072138	0.738810
O36	O	1.632302	0.261196	1.072143
O37	O	1.093792	-0.523885	0.680324
O38	O	1.427125	-0.190552	1.013657
O39	O	1.760458	0.142782	1.346990
O40	O	0.965621	-0.523915	0.523935
O41	O	1.298954	-0.190582	0.857269
O42	O	1.632287	0.142752	1.190602
O43	O	1.190920	-0.405418	0.680358
O44	O	1.524253	-0.072085	1.013691
O45	O	1.857586	0.261248	1.347024
O46	O	1.190780	-0.680363	0.405447
O47	O	1.524113	-0.347030	0.738781
O48	O	1.857447	-0.013696	1.072114
O49	O	1.093712	-0.680309	0.523919
O50	O	1.427046	-0.346976	0.857252
O51	O	1.760379	-0.013643	1.190586
C52	C	0.936948	-0.464689	0.464703
C53	C	1.270281	-0.131356	0.798037
C54	C	1.603615	0.201977	1.131370
C55	C	0.849091	-0.464699	0.464717
C56	C	1.182425	-0.131365	0.798050
C57	C	1.515758	0.201968	1.131383
C58	C	1.142257	-0.715335	0.464697
C59	C	1.475590	-0.382002	0.798031
C60	C	1.808923	-0.048669	1.131364
C61	C	1.142304	-0.822549	0.464718
C62	C	1.475638	-0.489216	0.798051
C63	C	1.808971	-0.155883	1.131384
C64	C	0.477599	-0.402997	0.403172
C65	C	0.810932	-0.069663	0.736506
C66	C	1.144266	0.263670	1.069839
C67	C	0.477633	-0.526525	0.526333
C68	C	0.810966	-0.193191	0.859667
C69	C	1.144299	0.140142	1.193000
C70	C	0.560178	-0.526511	0.526327
C71	C	0.893512	-0.193178	0.859661
C72	C	1.226845	0.140156	1.192994
C73	C	0.601438	-0.464740	0.464742
C74	C	0.934772	-0.131407	0.798075
C75	C	1.268105	0.201927	1.131409
C76	C	0.560153	-0.402983	0.403163
C77	C	0.893486	-0.069650	0.736496
C78	C	1.226819	0.263684	1.069829
C79	C	0.601471	-0.588274	0.587899
C80	C	0.934804	-0.254940	0.921232
C81	C	1.268137	0.078393	1.254566
C82	C	0.684021	-0.588263	0.587895
C83	C	1.017355	-0.254930	0.921228
C84	C	1.350688	0.078404	1.254561
C85	C	0.725283	-0.526487	0.526313
C86	C	1.058616	-0.193153	0.859647
C87	C	1.391950	0.140180	1.192980
C88	C	0.683992	-0.464726	0.464732
C89	C	1.017325	-0.131393	0.798066
C90	C	1.350659	0.201940	1.131399
C91	C	0.725252	-0.402955	0.403147
C92	C	1.058585	-0.069622	0.736480
C93	C	1.391919	0.263711	1.069814
C94	C	0.683962	-0.341189	0.341570
C95	C	1.017296	-0.007856	0.674903
C96	C	1.350629	0.325477	1.008237
C97	C	0.601414	-0.341206	0.341581
C98	C	0.934747	-0.007873	0.674915
C99	C	1.268081	0.325460	1.008248
C100	C	0.807831	-0.526470	0.526302
C101	C	1.141165	-0.193136	0.859635
C102	C	1.474498	0.140197	1.192969
C103	C	0.807805	-0.402942	0.403137
C104	C	1.141139	-0.069608	0.736470
C105	C	1.474472	0.263725	1.069804
C106	C	1.142387	-1.018844	0.464778
C107	C	1.475721	-0.685511	0.798112
C108	C	1.809054	-0.352178	1.131445
C109	C	1.142339	-0.909612	0.464747
C110	C	1.475672	-0.576279	0.798081
C111	C	1.809005	-0.242945	1.131414
C112	C	1.348482	-0.464754	0.464748
C113	C	1.681816	-0.131420	0.798081
C114	C	2.015149	0.201913	1.131415
C115	C	1.436339	-0.464768	0.464758
C116	C	1.769672	-0.131434	0.798091
C117	C	2.103006	0.201899	1.131424
C118	C	1.142363	-0.464640	0.716318
C119	C	1.475696	-0.131307	1.049652
C120	C	1.809029	0.202027	1.382985
C121	C	1.142383	-0.464605	0.823532
C122	C	1.475717	-0.131272	1.156866
C123	C	1.809050	0.202061	1.490199
C124	C	1.142394	-0.213128	0.464774
C125	C	1.475727	0.120205	0.798108
C126	C	1.809060	0.453539	1.131441
C127	C	1.142428	-0.105914	0.464795
C128	C	1.475761	0.227419	0.798129
C129	C	1.809094	0.560753	1.131462
C130	C	1.142312	-0.464732	0.214111
C131	C	1.475645	-0.131399	0.547444
C132	C	1.808978	0.201935	0.880778
C133	C	1.142444	-0.464495	0.106898
C134	C	1.475777	-0.131162	0.440231
C135	C	1.809111	0.202172	0.773564
C136	C	1.142399	-0.464578	0.910602
C137	C	1.475733	-0.131245	1.243936
C138	C	1.809066	0.202088	1.577269
C139	C	1.142422	-0.464535	1.019835
C140	C	1.475755	-0.131201	1.353168
C141	C	1.809089	0.202132	1.686502
H142	H	0.841394	-0.352634	0.352992
H143	H	1.174727	-0.019300	0.686325
H144	H	1.508060	0.314033	1.019659
Br145	Br	0.863864	-0.610296	0.609855
Br146	Br	1.197198	-0.276962	0.943188
Br147	Br	1.530531	0.056371	1.276521
H148	H	0.717567	-0.290900	0.291423
H149	H	1.050900	0.042433	0.624756
H150	H	1.384234	0.375767	0.958090
H151	H	0.567789	-0.290921	0.291448
H152	H	0.901122	0.042412	0.624781
H153	H	1.234455	0.375746	0.958114
Br154	Br	0.421567	-0.319168	0.319615
Br155	Br	0.754901	0.014166	0.652949
Br156	Br	1.088234	0.347499	0.986282
H157	H	0.444034	-0.576821	0.576468
H158	H	0.777367	-0.243488	0.909801
H159	H	1.110700	0.089845	1.243134
Br160	Br	0.545472	-0.672136	0.671437
Br161	Br	0.878806	-0.338803	1.004771
Br162	Br	1.212139	-0.005470	1.338104
Br163	Br	0.740050	-0.672085	0.671462
Br164	Br	1.073384	-0.338752	1.004795
Br165	Br	1.406717	-0.005418	1.338129
