data_functionalizedCrystal
_audit_creation_method	'MofGen! by Chris Wilmer'
_symmetry_space_group_name_H-M	'P1'
_symmetry_Int_Tables_number	1
_symmetry_cell_setting	triclinic
loop_
_symmetry_equiv_pos_as_xyz
  x,y,z
_cell_length_a	17.699083
_cell_length_b	10.268362
_cell_length_c	17.699083
_cell_angle_alpha	89.997763
_cell_angle_beta	96.716985
_cell_angle_gamma	89.998576
loop_
_atom_site_label
_atom_site_type_symbol
_atom_site_fract_x
_atom_site_fract_y
_atom_site_fract_z
O1	O	1.004076	0.108120	-0.095707
O2	O	1.337410	0.441454	0.237626
O3	O	1.670743	0.774787	0.570959
O4	O	0.783698	0.108163	-0.108160
O5	O	1.117031	0.441497	0.225173
O6	O	1.450365	0.774830	0.558507
O7	O	0.900113	0.108129	0.008256
O8	O	1.233447	0.441462	0.341589
O9	O	1.566780	0.774796	0.674922
O10	O	0.887661	0.108154	-0.212123
O11	O	1.220994	0.441488	0.121210
O12	O	1.554328	0.774821	0.454544
O13	O	0.900102	-0.108472	0.008252
O14	O	1.233436	0.224862	0.341585
O15	O	1.566769	0.558195	0.674918
O16	O	0.783687	-0.108437	-0.108164
O17	O	1.117020	0.224896	0.225169
O18	O	1.450353	0.558229	0.558503
O19	O	1.004065	-0.108480	-0.095711
O20	O	1.337399	0.224853	0.237622
O21	O	1.670732	0.558186	0.570955
Cu22	Cu	0.893875	-0.128236	-0.101938
Cu23	Cu	1.227208	0.205097	0.231395
Cu24	Cu	1.560542	0.538430	0.564729
Cu25	Cu	0.893888	0.127919	-0.101933
Cu26	Cu	1.227222	0.461252	0.231400
Cu27	Cu	1.560555	0.794586	0.564733
O28	O	0.887650	-0.108446	-0.212127
O29	O	1.220983	0.224887	0.121206
O30	O	1.554316	0.558220	0.454540
C31	C	0.755495	-0.000132	-0.107716
C32	C	1.088829	0.333202	0.225618
C33	C	1.422162	0.666535	0.558951
C34	C	0.671477	-0.000116	-0.106377
C35	C	1.004811	0.333218	0.226956
C36	C	1.338144	0.666551	0.560290
C37	C	0.622856	-0.000108	-0.174710
C38	C	0.956190	0.333225	0.158623
C39	C	1.289523	0.666559	0.491956
C40	C	0.543913	-0.000125	-0.173448
C41	C	0.877246	0.333208	0.159885
C42	C	1.210580	0.666542	0.493218
C43	C	0.513592	-0.000140	-0.103852
C44	C	0.846926	0.333193	0.229482
C45	C	1.180259	0.666526	0.562815
C46	C	0.562219	-0.000152	-0.035513
C47	C	0.895553	0.333182	0.297820
C48	C	1.228886	0.666515	0.631154
C49	C	0.641161	-0.000144	-0.036776
C50	C	0.974495	0.333189	0.296557
C51	C	1.307828	0.666523	0.629890
C52	C	0.243856	-0.000184	-0.030418
C53	C	0.577190	0.333149	0.302915
C54	C	0.910523	0.666482	0.636249
C55	C	0.164908	-0.000188	-0.029160
C56	C	0.498242	0.333145	0.304173
C57	C	0.831575	0.666478	0.637507
C58	C	0.146608	-0.000166	-0.167090
C59	C	0.479942	0.333168	0.166243
C60	C	0.813275	0.666501	0.499577
C61	C	0.225550	-0.000158	-0.168353
C62	C	0.558883	0.333175	0.164980
C63	C	0.892217	0.666509	0.498314
C64	C	0.274170	-0.000176	-0.100015
C65	C	0.607504	0.333157	0.233319
C66	C	0.940837	0.666490	0.566652
C67	C	0.359769	-0.000160	-0.101384
C68	C	0.693103	0.333173	0.231949
C69	C	1.026436	0.666506	0.565282
C70	C	0.427995	-0.000147	-0.102481
C71	C	0.761328	0.333186	0.230852
C72	C	1.094661	0.666520	0.564185
N73	N	0.893871	-0.308402	-0.101941
N74	N	1.227205	0.024931	0.231392
N75	N	1.560538	0.358265	0.564726
C76	C	0.893877	-0.426244	-0.101941
C77	C	1.227210	-0.092911	0.231392
C78	C	1.560543	0.240422	0.564725
C79	C	0.893886	-0.574082	-0.101934
C80	C	1.227220	-0.240749	0.231399
C81	C	1.560553	0.092584	0.564732
C82	C	1.032268	-0.000183	-0.096156
C83	C	1.365601	0.333151	0.237178
C84	C	1.698934	0.666484	0.570511
C85	C	1.116286	-0.000190	-0.097494
C86	C	1.449619	0.333143	0.235839
C87	C	1.782953	0.666477	0.569172
C88	C	0.899662	-0.000171	0.036451
C89	C	1.232995	0.333162	0.369784
C90	C	1.566328	0.666495	0.703117
C91	C	0.898323	-0.000172	0.120469
C92	C	1.231656	0.333162	0.453802
C93	C	1.564990	0.666495	0.787135
N94	N	0.893898	0.308085	-0.101924
N95	N	1.227231	0.641418	0.231409
N96	N	1.560565	0.974752	0.564742
C97	C	0.888102	-0.000143	-0.240322
C98	C	1.221435	0.333190	0.093011
C99	C	1.554768	0.666524	0.426345
C100	C	0.889440	-0.000134	-0.324340
C101	C	1.222773	0.333199	0.008993
C102	C	1.556107	0.666533	0.342327
C103	C	0.966656	-0.000187	0.169090
C104	C	1.299990	0.333147	0.502423
C105	C	1.633323	0.666480	0.835756
C106	C	0.965394	-0.000175	0.248033
C107	C	1.298727	0.333158	0.581366
C108	C	1.632061	0.666492	0.914700
C109	C	0.895798	-0.000157	0.278354
C110	C	1.229131	0.333176	0.611687
C111	C	1.562464	0.666509	0.945020
C112	C	0.827459	-0.000138	0.229727
C113	C	1.160792	0.333195	0.563060
C114	C	1.494126	0.666528	0.896393
C115	C	0.828722	-0.000141	0.150785
C116	C	1.162055	0.333193	0.484118
C117	C	1.495389	0.666526	0.817451
C118	C	0.822364	-0.000127	0.548090
C119	C	1.155697	0.333207	0.881423
C120	C	1.489030	0.666540	1.214756
C121	C	0.821106	-0.000128	0.627038
C122	C	1.154439	0.333205	0.960371
C123	C	1.487773	0.666538	1.293704
C124	C	0.959036	-0.000161	0.645338
C125	C	1.292369	0.333172	0.978671
C126	C	1.625703	0.666506	1.312004
C127	C	0.960299	-0.000163	0.566396
C128	C	1.293632	0.333170	0.899729
C129	C	1.626966	0.666503	1.233063
C130	C	0.891961	-0.000138	0.517776
C131	C	1.225294	0.333196	0.851109
C132	C	1.558627	0.666529	1.184442
C133	C	0.893330	-0.000148	0.432177
C134	C	1.226664	0.333186	0.765510
C135	C	1.559997	0.666519	1.098843
C136	C	0.894427	-0.000156	0.363951
C137	C	1.227761	0.333177	0.697285
C138	C	1.561094	0.666510	1.030618
H139	H	0.140225	-0.000202	0.027517
H140	H	0.473558	0.333131	0.360850
H141	H	0.806892	0.666464	0.694184
N142	N	0.693609	-0.000144	0.036924
N143	N	1.026942	0.333190	0.370258
N144	N	1.360275	0.666523	0.703591
H145	H	0.726770	-0.080438	0.039471
H146	H	1.060104	0.252895	0.372804
H147	H	1.393437	0.586229	0.706137
H148	H	0.662372	-0.000103	0.081164
H149	H	0.995705	0.333231	0.414497
H150	H	1.329039	0.666564	0.747831
N151	N	0.746036	-0.000087	0.659740
N152	N	1.079370	0.333246	0.993074
N153	N	1.412703	0.666579	1.326407
H154	H	0.755609	-0.000094	0.717127
H155	H	1.088942	0.333239	1.050461
H156	H	1.422276	0.666572	1.383794
H157	H	0.716129	-0.080371	0.641947
H158	H	1.049462	0.252963	0.975280
H159	H	1.382796	0.586296	1.308614
N160	N	1.041722	-0.000218	0.136389
N161	N	1.375055	0.333115	0.469722
N162	N	1.708389	0.666449	0.803056
H163	H	1.084819	-0.000224	0.179172
H164	H	1.418152	0.333109	0.512506
H165	H	1.751485	0.666443	0.845839
H166	H	1.045256	0.080075	0.104031
H167	H	1.378589	0.413409	0.437365
H168	H	1.711923	0.746742	0.770698
H169	H	0.537526	-0.000183	0.021154
H170	H	0.870859	0.333151	0.354487
H171	H	1.204193	0.666484	0.687820
H172	H	1.016971	-0.000184	0.541714
H173	H	1.350305	0.333149	0.875047
H174	H	1.683638	0.666482	1.208380
N175	N	0.748660	-0.000104	0.495655
N176	N	1.081993	0.333229	0.828989
N177	N	1.415326	0.666562	1.162322
H178	H	0.704382	-0.000099	0.526845
H179	H	1.037715	0.333234	0.860178
H180	H	1.371048	0.666567	1.193511
H181	H	0.746174	-0.080400	0.462504
H182	H	1.079507	0.252933	0.795837
H183	H	1.412841	0.586267	1.129171
H184	H	1.021038	-0.000190	0.287618
H185	H	1.354372	0.333143	0.620951
H186	H	1.687705	0.666476	0.954284
H187	H	0.250232	-0.000140	-0.225025
H188	H	0.583566	0.333194	0.108308
H189	H	0.916899	0.666527	0.441641
N190	N	0.755019	-0.000160	0.098342
N191	N	1.088352	0.333174	0.431676
N192	N	1.421685	0.666507	0.765009
H193	H	0.766378	-0.000168	0.043732
H194	H	1.099712	0.333166	0.377066
H195	H	1.433045	0.666499	0.710399
H196	H	0.724677	0.080136	0.108137
H197	H	1.058011	0.413470	0.441470
H198	H	1.391344	0.746803	0.774803
N199	N	0.296291	-0.000213	0.043286
N200	N	0.629624	0.333121	0.376619
N201	N	0.962957	0.666454	0.709953
H202	H	0.265101	-0.000221	0.087564
H203	H	0.598435	0.333112	0.420898
H204	H	0.931768	0.666445	0.754231
H205	H	0.329444	0.080081	0.045775
H206	H	0.662778	0.413414	0.379108
H207	H	0.996111	0.746747	0.712442
N208	N	1.032747	-0.000189	0.697778
N209	N	1.366080	0.333144	1.031112
N210	N	1.699414	0.666478	1.364445
H211	H	1.021391	-0.000181	0.752389
H212	H	1.354724	0.333152	1.085723
H213	H	1.688057	0.666485	1.419056
H214	H	1.063093	0.080095	0.687973
H215	H	1.396426	0.413429	1.021306
H216	H	1.729759	0.746762	1.354640
N217	N	0.491506	-0.000142	-0.247173
N218	N	0.824840	0.333192	0.086160
N219	N	1.158173	0.666525	0.419494
H220	H	0.458329	0.080136	-0.249754
H221	H	0.791663	0.413469	0.083579
H222	H	1.124996	0.746802	0.416913
H223	H	0.458409	-0.080505	-0.249695
H224	H	0.791742	0.252828	0.083638
H225	H	1.125075	0.586162	0.416972
N226	N	0.752393	-0.000111	0.262425
N227	N	1.085726	0.333223	0.595758
N228	N	1.419059	0.666556	0.929092
H229	H	0.761960	-0.000116	0.319812
H230	H	1.095293	0.333217	0.653146
H231	H	1.428627	0.666551	0.986479
H232	H	0.722493	-0.080400	0.244630
H233	H	1.055826	0.252933	0.577963
H234	H	1.389159	0.586266	0.911296
H235	H	0.647537	-0.000095	-0.231384
H236	H	0.980870	0.333239	0.101949
H237	H	1.314204	0.666572	0.435283
H238	H	0.107012	-0.000158	-0.222734
H239	H	0.440345	0.333176	0.110599
H240	H	0.773678	0.666509	0.443933
