data_functionalizedCrystal
_audit_creation_method	'MofGen! by Chris Wilmer'
_symmetry_space_group_name_H-M	'P1'
_symmetry_Int_Tables_number	1
_symmetry_cell_setting	triclinic
loop_
_symmetry_equiv_pos_as_xyz
  x,y,z
_cell_length_a	16.109302
_cell_length_b	15.712078
_cell_length_c	14.586319
_cell_angle_alpha	89.998056
_cell_angle_beta	89.994552
_cell_angle_gamma	101.521465
loop_
_atom_site_label
_atom_site_type_symbol
_atom_site_fract_x
_atom_site_fract_y
_atom_site_fract_z
O1	O	1.136942	0.111097	-0.076281
O2	O	1.636942	0.611097	0.423719
O3	O	0.899088	0.124922	-0.076274
O4	O	1.399088	0.624922	0.423726
O5	O	0.986372	-0.007810	-0.076272
O6	O	1.486372	0.492190	0.423728
O7	O	1.049658	0.243828	-0.076283
O8	O	1.549658	0.743828	0.423717
O9	O	0.986363	-0.007812	0.076209
O10	O	1.486363	0.492188	0.576209
O11	O	0.899078	0.124920	0.076207
O12	O	1.399078	0.624920	0.576207
O13	O	1.136933	0.111095	0.076200
O14	O	1.636933	0.611095	0.576200
Cu15	Cu	1.018005	0.118007	0.090126
Cu16	Cu	1.518005	0.618007	0.590126
Cu17	Cu	1.018016	0.118009	-0.090200
Cu18	Cu	1.518016	0.618009	0.409800
O19	O	1.049648	0.243826	0.076198
O20	O	1.549648	0.743826	0.576198
C21	C	0.867938	0.124360	-0.000033
C22	C	1.367938	0.624360	0.499967
C23	C	0.775131	0.122681	-0.000030
C24	C	1.275131	0.622681	0.499970
C25	C	0.561604	0.118797	0.083079
C26	C	1.061604	0.618797	0.583079
C27	C	0.474400	0.117210	0.083075
C28	C	0.974400	0.617210	0.583075
C29	C	0.474423	0.117217	-0.083168
C30	C	0.974423	0.617217	0.416832
C31	C	0.561623	0.118798	-0.083163
C32	C	1.061623	0.618798	0.416837
C33	C	0.605212	0.119592	-0.000038
C34	C	1.105212	0.619592	0.499962
C35	C	0.430809	0.116424	-0.000045
C36	C	0.930809	0.616424	0.499955
C37	C	0.336259	0.114703	-0.000049
C38	C	0.836259	0.614703	0.499951
C39	C	0.699767	0.121311	-0.000033
C40	C	1.199767	0.621311	0.499967
C41	C	0.976029	-0.040011	-0.000032
C42	C	1.476029	0.459989	0.499968
C43	C	0.945213	-0.135958	-0.000033
C44	C	1.445213	0.364042	0.499967
C45	C	1.206848	-0.503127	-0.000051
C46	C	1.706848	-0.003127	0.499949
C47	C	1.177873	-0.593281	-0.000049
C48	C	1.677873	-0.093281	0.499951
C49	C	1.032684	-0.572624	-0.000045
C50	C	1.532684	-0.072624	0.499955
C51	C	1.061647	-0.482467	-0.000042
C52	C	1.561647	0.017533	0.499958
C53	C	1.148730	-0.447726	-0.000046
C54	C	1.648730	0.052274	0.499954
C55	C	1.003529	-0.427066	-0.000037
C56	C	1.503529	0.072934	0.499963
C57	C	1.032491	-0.336916	-0.000039
C58	C	1.532491	0.163084	0.499961
C59	C	1.119570	-0.302168	-0.000045
C60	C	1.619570	0.197832	0.499955
C61	C	1.177692	-0.357577	-0.000047
C62	C	1.677692	0.142423	0.499953
C63	C	0.916447	-0.461808	-0.000040
C64	C	1.416447	0.038192	0.499960
C65	C	0.858329	-0.406407	-0.000035
C66	C	1.358329	0.093593	0.499965
C67	C	0.887290	-0.316256	-0.000030
C68	C	1.387290	0.183744	0.499970
C69	C	0.974369	-0.281508	-0.000037
C70	C	1.474369	0.218492	0.499963
C71	C	0.829168	-0.260848	-0.000028
C72	C	1.329168	0.239152	0.499972
C73	C	0.858130	-0.170699	-0.000030
C74	C	1.358130	0.329301	0.499970
C75	C	1.003331	-0.191359	-0.000038
C76	C	1.503331	0.308641	0.499962
C77	C	1.168083	0.111656	-0.000044
C78	C	1.668083	0.611656	0.499956
C79	C	1.260889	0.113335	-0.000053
C80	C	1.760889	0.613335	0.499947
C81	C	1.059992	0.276027	-0.000044
C82	C	1.559992	0.776027	0.499956
C83	C	1.090808	0.371974	-0.000049
C84	C	1.590808	0.871974	0.499951
N85	N	1.018003	0.118005	0.216958
N86	N	1.518003	0.618005	0.716958
N87	N	1.018022	0.118005	-0.217032
N88	N	1.518022	0.618005	0.282968
C89	C	1.056677	0.059251	0.451965
C90	C	1.556677	0.559251	0.951965
C91	C	1.056679	0.059249	0.547946
C92	C	1.556679	0.559249	1.047946
C93	C	0.979343	0.176761	0.547954
C94	C	1.479343	0.676761	1.047954
C95	C	0.979336	0.176758	0.451974
C96	C	1.479336	0.676758	0.951974
C97	C	1.018008	0.118004	0.403982
C98	C	1.518008	0.618004	0.903982
C99	C	1.018017	0.118005	0.595943
C100	C	1.518017	0.618005	1.095943
C101	C	1.018018	0.118003	0.700010
C102	C	1.518018	0.618003	1.200010
C103	C	1.018006	0.118005	0.299909
C104	C	1.518006	0.618005	0.799909
H105	H	1.074242	-0.163071	-0.000032
H106	H	1.574242	0.336929	0.499968
Cl107	Cl	0.930716	0.250621	0.391647
Cl108	Cl	1.430716	0.750621	0.891647
H109	H	0.597091	0.119444	0.150765
H110	H	1.097091	0.619444	0.650765
Cl111	Cl	1.105290	-0.014617	0.608264
Cl112	Cl	1.605290	0.485383	1.108264
Cl113	Cl	0.719697	-0.304534	-0.000042
Cl114	Cl	1.219697	0.195466	0.499958
H115	H	0.438898	0.116563	0.150757
H116	H	0.938898	0.616563	0.650757
Cl117	Cl	0.419615	0.116197	-0.187663
Cl118	Cl	0.919615	0.616197	0.312337
H119	H	0.597130	0.119443	-0.150851
H120	H	1.097130	0.619443	0.349149
H121	H	1.143149	-0.228762	-0.000046
H122	H	1.643149	0.271238	0.499954
H123	H	1.088165	0.011409	0.412892
H124	H	1.588165	0.511409	0.912892
H125	H	1.248603	-0.329289	-0.000041
H126	H	1.748603	0.170711	0.499959
Cl127	Cl	0.930733	0.250623	0.608291
Cl128	Cl	1.430733	0.750623	1.108291
H129	H	1.277760	-0.474839	-0.000044
H130	H	1.777760	0.025161	0.499956
Cl131	Cl	1.250946	-0.662927	-0.000062
Cl132	Cl	1.750946	-0.162927	0.499938
H133	H	0.961780	-0.600923	-0.000046
H134	H	1.461780	-0.100923	0.499954
Cl135	Cl	0.880038	-0.575141	0.000037
Cl136	Cl	1.380038	-0.075141	0.500037
H137	H	0.787425	-0.434706	-0.000036
H138	H	1.287425	0.065294	0.499964
H139	H	0.810804	-0.125589	-0.000025
H140	H	1.310804	0.374411	0.499975
