data_functionalizedCrystal
_audit_creation_method	'MofGen! by Chris Wilmer'
_symmetry_space_group_name_H-M	'P1'
_symmetry_Int_Tables_number	1
_symmetry_cell_setting	triclinic
loop_
_symmetry_equiv_pos_as_xyz
  x,y,z
_cell_length_a	14.971506
_cell_length_b	14.971486
_cell_length_c	14.048226
_cell_angle_alpha	89.996728
_cell_angle_beta	90.005503
_cell_angle_gamma	83.618258
loop_
_atom_site_label
_atom_site_type_symbol
_atom_site_fract_x
_atom_site_fract_y
_atom_site_fract_z
O1	O	1.186939	0.116645	0.079090
O2	O	1.520272	0.449978	0.412424
O3	O	1.853605	0.783312	0.745757
O4	O	0.926541	0.130585	0.079104
O5	O	1.259874	0.463918	0.412437
O6	O	1.593208	0.797252	0.745770
O7	O	1.063719	-0.006585	0.079104
O8	O	1.397052	0.326749	0.412437
O9	O	1.730386	0.660082	0.745770
O10	O	1.049760	0.253814	0.079090
O11	O	1.383094	0.587148	0.412424
O12	O	1.716427	0.920481	0.745757
O13	O	1.063697	-0.006581	-0.079218
O14	O	1.397030	0.326752	0.254116
O15	O	1.730364	0.660085	0.587449
O16	O	0.926519	0.130588	-0.079218
O17	O	1.259852	0.463922	0.254116
O18	O	1.593185	0.797255	0.587449
O19	O	1.186916	0.116648	-0.079231
O20	O	1.520250	0.449982	0.254103
O21	O	1.853583	0.783315	0.587436
Zn22	Zn	1.056714	0.123619	-0.104361
Zn23	Zn	1.390047	0.456952	0.228972
Zn24	Zn	1.723381	0.790285	0.562306
Zn25	Zn	1.056743	0.123614	0.104234
Zn26	Zn	1.390077	0.456948	0.437567
Zn27	Zn	1.723410	0.790281	0.770901
O28	O	1.049738	0.253818	-0.079231
O29	O	1.383072	0.587151	0.254102
O30	O	1.716405	0.920485	0.587436
C31	C	0.893205	0.129960	-0.000055
C32	C	1.226539	0.463293	0.333278
C33	C	1.559872	0.796627	0.666612
C34	C	0.793909	0.128082	-0.000049
C35	C	1.127243	0.461415	0.333284
C36	C	1.460576	0.794749	0.666617
C37	C	1.063084	-0.039908	-0.000053
C38	C	1.396417	0.293426	0.333280
C39	C	1.729751	0.626759	0.666614
C40	C	1.061213	-0.139205	-0.000041
C41	C	1.394546	0.194128	0.333292
C42	C	1.727880	0.527462	0.666625
C43	C	1.220252	0.117273	-0.000070
C44	C	1.553585	0.450607	0.333263
C45	C	1.886919	0.783940	0.666597
C46	C	1.319548	0.119151	-0.000069
C47	C	1.652881	0.452485	0.333264
C48	C	1.986215	0.785818	0.666597
C49	C	1.050374	0.287141	-0.000072
C50	C	1.383707	0.620474	0.333261
C51	C	1.717040	0.953808	0.666595
C52	C	1.052244	0.386438	-0.000077
C53	C	1.385578	0.719771	0.333256
C54	C	1.718911	1.053105	0.666589
C55	C	1.757831	0.045733	-0.000045
C56	C	2.091164	0.379066	0.333288
C57	C	2.424497	0.712400	0.666622
C58	C	1.664530	0.043976	-0.000043
C59	C	1.997864	0.377309	0.333290
C60	C	2.331197	0.710642	0.666623
C61	C	1.607311	0.124568	-0.000053
C62	C	1.940644	0.457901	0.333281
C63	C	2.273977	0.791235	0.666614
C64	C	1.643395	0.206923	-0.000054
C65	C	1.976728	0.540257	0.333279
C66	C	2.310062	0.873590	0.666613
C67	C	1.736694	0.208680	-0.000049
C68	C	2.070027	0.542013	0.333284
C69	C	2.403360	0.875346	0.666618
C70	C	1.448932	0.203256	-0.000067
C71	C	1.782265	0.536590	0.333267
C72	C	2.115599	0.869923	0.666600
C73	C	1.355627	0.201500	-0.000074
C74	C	1.688960	0.534833	0.333260
C75	C	2.022294	0.868167	0.666593
C76	C	1.376769	0.038552	-0.000061
C77	C	1.710102	0.371886	0.333272
C78	C	2.043435	0.705219	0.666605
C79	C	1.470067	0.040309	-0.000056
C80	C	1.803401	0.373642	0.333277
C81	C	2.136734	0.706975	0.666611
C82	C	1.506145	0.122664	-0.000059
C83	C	1.839479	0.455998	0.333274
C84	C	2.172812	0.789331	0.666607
N85	N	1.056701	0.123621	-0.246722
N86	N	1.390034	0.456955	0.086612
N87	N	1.723367	0.790288	0.419945
C88	C	0.971656	0.443658	-0.000072
C89	C	1.304989	0.776991	0.333261
C90	C	1.638323	1.110324	0.666594
C91	C	0.973419	0.536957	-0.000059
C92	C	1.306752	0.870291	0.333274
C93	C	1.640086	1.203624	0.666607
C94	C	1.055771	0.573035	-0.000059
C95	C	1.389105	0.906369	0.333275
C96	C	1.722438	1.239702	0.666608
C97	C	1.136366	0.515809	-0.000061
C98	C	1.469699	0.849142	0.333273
C99	C	1.803033	1.182475	0.666606
C100	C	1.134602	0.422511	-0.000067
C101	C	1.467935	0.755844	0.333267
C102	C	1.801269	1.089178	0.666600
C103	C	1.140037	0.710271	-0.000051
C104	C	1.473370	1.043605	0.333283
C105	C	1.806704	1.376938	0.666616
C106	C	1.141802	0.803576	-0.000047
C107	C	1.475135	1.136909	0.333287
C108	C	1.808468	1.470242	0.666620
C109	C	0.978854	0.824718	-0.000043
C110	C	1.312187	1.158051	0.333290
C111	C	1.645521	1.491384	0.666623
C112	C	0.977090	0.731420	-0.000049
C113	C	1.310423	1.064753	0.333284
C114	C	1.643757	1.398087	0.666617
C115	C	1.057685	0.674200	-0.000053
C116	C	1.391018	1.007533	0.333280
C117	C	1.724352	1.340866	0.666613
C118	C	1.117515	0.062891	-0.703561
C119	C	1.450848	0.396224	-0.370228
C120	C	1.784181	0.729558	-0.036895
C121	C	1.117507	0.062897	-0.603904
C122	C	1.450840	0.396230	-0.270570
C123	C	1.784173	0.729564	0.062763
C124	C	1.056743	0.123614	-0.554092
C125	C	1.390076	0.456947	-0.220758
C126	C	1.723409	0.790280	0.112575
C127	C	0.995989	0.184334	-0.603943
C128	C	1.329322	0.517667	-0.270609
C129	C	1.662655	0.851000	0.062724
C130	C	0.996002	0.184331	-0.703599
C131	C	1.329335	0.517665	-0.370265
C132	C	1.662668	0.850998	-0.036932
C133	C	0.995964	0.184333	-0.396229
C134	C	1.329298	0.517667	-0.062895
C135	C	1.662631	0.851000	0.270438
C136	C	0.995950	0.184335	-0.296566
C137	C	1.329283	0.517668	0.036767
C138	C	1.662616	0.851002	0.370101
C139	C	1.117469	0.062899	-0.296533
C140	C	1.450802	0.396233	0.036800
C141	C	1.784136	0.729566	0.370133
C142	C	1.117482	0.062897	-0.396189
C143	C	1.450816	0.396230	-0.062856
C144	C	1.784149	0.729563	0.270477
C145	C	1.056727	0.123616	-0.446033
C146	C	1.390060	0.456950	-0.112700
C147	C	1.723394	0.790283	0.220633
N148	N	1.056764	0.123605	0.246595
N149	N	1.390097	0.456938	0.579928
N150	N	1.723430	0.790271	0.913261
H151	H	1.804414	-0.019895	-0.000042
H152	H	2.137747	0.313438	0.333292
H153	H	2.471080	0.646772	0.666625
Br154	Br	0.913556	0.266738	-0.771244
Br155	Br	1.246889	0.600071	-0.437911
Br156	Br	1.580223	0.933405	-0.104578
H157	H	0.907796	0.583542	-0.000052
H158	H	1.241129	0.916876	0.333281
H159	H	1.574462	1.250209	0.666614
H160	H	1.309040	0.267126	-0.000084
H161	H	1.642373	0.600459	0.333249
H162	H	1.975707	0.933792	0.666583
Br163	Br	1.243976	0.344854	-0.000063
Br164	Br	1.577310	0.678187	0.333270
Br165	Br	1.910643	1.011521	0.666603
Br166	Br	1.615570	-0.067788	-0.000004
Br167	Br	1.948903	0.265545	0.333329
Br168	Br	2.282237	0.598878	0.666663
H169	H	1.516654	-0.025317	-0.000056
H170	H	1.849988	0.308017	0.333277
H171	H	2.183321	0.641350	0.666610
H172	H	0.946494	0.233781	-0.436808
H173	H	1.279827	0.567114	-0.103475
H174	H	1.613160	0.900447	0.229858
Br175	Br	0.913527	0.266743	-0.536345
Br176	Br	1.246861	0.600077	-0.203012
Br177	Br	1.580194	0.933410	0.130322
Br178	Br	1.497894	0.315026	-0.000066
Br179	Br	1.831228	0.648359	0.333267
Br180	Br	2.164561	0.981692	0.666601
H181	H	1.203419	0.545191	-0.000062
H182	H	1.536752	0.878524	0.333272
H183	H	1.870086	1.211858	0.666605
H184	H	1.347390	-0.028505	0.000030
H185	H	1.680723	0.304829	0.333363
H186	H	2.014057	0.638162	0.666696
H187	H	1.596799	0.272543	-0.000055
H188	H	1.930132	0.605876	0.333278
H189	H	2.263466	0.939209	0.666611
H190	H	0.904595	0.414291	-0.000084
H191	H	1.237928	0.747624	0.333249
H192	H	1.571262	1.080957	0.666583
Br193	Br	1.785658	0.320443	-0.000046
Br194	Br	2.118992	0.653777	0.333287
Br195	Br	2.452325	0.987110	0.666620
Br196	Br	1.249417	0.632615	-0.000047
Br197	Br	1.582751	0.965949	0.333286
Br198	Br	1.916084	1.299282	0.666619
H199	H	0.913231	0.871311	-0.000044
H200	H	1.246564	1.204645	0.333289
H201	H	1.579897	1.537978	0.666623
H202	H	0.910031	0.702048	-0.000055
H203	H	1.243365	1.035382	0.333279
H204	H	1.576698	1.368715	0.666612
Br205	Br	1.199917	-0.019508	-0.228885
Br206	Br	1.533251	0.313825	0.104448
Br207	Br	1.866584	0.647159	0.437781
Br208	Br	1.253567	0.852539	-0.000077
Br209	Br	1.586900	1.185872	0.333257
Br210	Br	1.920233	1.519206	0.666590
Br211	Br	1.199979	-0.019521	-0.771153
Br212	Br	1.533312	0.313812	-0.437819
Br213	Br	1.866646	0.647145	-0.104486
Br214	Br	1.199959	-0.019498	-0.536255
Br215	Br	1.533292	0.313835	-0.202921
Br216	Br	1.866625	0.647169	0.130412
Br217	Br	1.199939	-0.019511	-0.463795
Br218	Br	1.533273	0.313822	-0.130461
Br219	Br	1.866606	0.647155	0.202872
Br220	Br	0.913481	0.266740	-0.228971
Br221	Br	1.246814	0.600073	0.104362
Br222	Br	1.580147	0.933406	0.437696
