data_functionalizedCrystal
_audit_creation_method	'MofGen! by Chris Wilmer'
_symmetry_space_group_name_H-M	'P1'
_symmetry_Int_Tables_number	1
_symmetry_cell_setting	triclinic
loop_
_symmetry_equiv_pos_as_xyz
  x,y,z
_cell_length_a	18.050591
_cell_length_b	18.050590
_cell_length_c	18.050582
_cell_angle_alpha	90.013008
_cell_angle_beta	89.976005
_cell_angle_gamma	89.998875
loop_
_atom_site_label
_atom_site_type_symbol
_atom_site_fract_x
_atom_site_fract_y
_atom_site_fract_z
Zn1	Zn	-1.135397	-0.295844	0.420142
Zn2	Zn	-0.885397	-0.045844	0.670142
Zn3	Zn	-0.635397	0.204156	0.920142
Zn4	Zn	-0.385397	0.454156	1.170142
Zn5	Zn	-1.135351	-0.420027	0.295972
Zn6	Zn	-0.885351	-0.170027	0.545972
Zn7	Zn	-0.635351	0.079973	0.795972
Zn8	Zn	-0.385351	0.329973	1.045972
Zn9	Zn	-1.011216	-0.295840	0.295946
Zn10	Zn	-0.761216	-0.045840	0.545946
Zn11	Zn	-0.511216	0.204160	0.795946
Zn12	Zn	-0.261216	0.454160	1.045946
Zn13	Zn	-1.011208	-0.419981	0.420101
Zn14	Zn	-0.761208	-0.169981	0.670101
Zn15	Zn	-0.511208	0.080019	0.920101
Zn16	Zn	-0.261208	0.330019	1.170101
O17	O	-1.073293	-0.357923	0.358040
O18	O	-0.823293	-0.107923	0.608040
O19	O	-0.573293	0.142077	0.858040
O20	O	-0.323293	0.392077	1.108040
O21	O	-1.239315	-0.312337	0.403698
O22	O	-0.989315	-0.062337	0.653698
O23	O	-0.739315	0.187663	0.903698
O24	O	-0.489315	0.437663	1.153698
O25	O	-1.118869	-0.403571	0.192044
O26	O	-0.868869	-0.153571	0.442044
O27	O	-0.618869	0.096429	0.692044
O28	O	-0.368869	0.346429	0.942044
O29	O	-1.027711	-0.191916	0.312427
O30	O	-0.777711	0.058084	0.562427
O31	O	-0.527711	0.308084	0.812427
O32	O	-0.277711	0.558084	1.062427
O33	O	-1.239282	-0.403574	0.312472
O34	O	-0.989282	-0.153574	0.562472
O35	O	-0.739282	0.096426	0.812472
O36	O	-0.489282	0.346426	1.062472
O37	O	-1.118946	-0.191919	0.403673
O38	O	-0.868946	0.058081	0.653673
O39	O	-0.618946	0.308081	0.903673
O40	O	-0.368946	0.558081	1.153673
O41	O	-1.027667	-0.312332	0.192025
O42	O	-0.777667	-0.062332	0.442025
O43	O	-0.527667	0.187668	0.692025
O44	O	-0.277667	0.437668	0.942025
O45	O	-0.907290	-0.312287	0.312388
O46	O	-0.657290	-0.062287	0.562388
O47	O	-0.407290	0.187713	0.812388
O48	O	-0.157290	0.437713	1.062388
O49	O	-1.027697	-0.403496	0.524031
O50	O	-0.777697	-0.153496	0.774031
O51	O	-0.527697	0.096504	1.024031
O52	O	-0.277697	0.346504	1.274031
O53	O	-0.907284	-0.403493	0.403604
O54	O	-0.657284	-0.153493	0.653604
O55	O	-0.407284	0.096507	0.903604
O56	O	-0.157284	0.346507	1.153604
O57	O	-1.118938	-0.312293	0.524061
O58	O	-0.868938	-0.062293	0.774061
O59	O	-0.618938	0.187707	1.024061
O60	O	-0.368938	0.437707	1.274061
O61	O	-1.118861	-0.523945	0.312432
O62	O	-0.868861	-0.273945	0.562432
O63	O	-0.618861	-0.023945	0.812432
O64	O	-0.368861	0.226055	1.062432
O65	O	-1.027653	-0.523912	0.403629
O66	O	-0.777653	-0.273912	0.653629
O67	O	-0.527653	-0.023912	0.903629
O68	O	-0.277653	0.226088	1.153629
C69	C	-0.880341	-0.357885	0.357989
C70	C	-0.630341	-0.107885	0.607989
C71	C	-0.380341	0.142115	0.857989
C72	C	-0.130341	0.392115	1.107989
C73	C	-0.797795	-0.357887	0.357985
C74	C	-0.547795	-0.107887	0.607985
C75	C	-0.297795	0.142113	0.857985
C76	C	-0.047795	0.392113	1.107985
C77	C	-0.598326	-0.308222	0.308485
C78	C	-0.348326	-0.058222	0.558485
C79	C	-0.098326	0.191778	0.808485
C80	C	0.151674	0.441778	1.058485
C81	C	-0.548930	-0.375955	0.290217
C82	C	-0.298930	-0.125955	0.540217
C83	C	-0.048930	0.124045	0.790217
C84	C	0.201070	0.374045	1.040217
C85	C	-0.646665	-0.357902	0.358010
C86	C	-0.396665	-0.107902	0.608010
C87	C	-0.146665	0.142098	0.858010
C88	C	0.103335	0.392098	1.108010
C89	C	-0.548979	-0.290185	0.376268
C90	C	-0.298979	-0.040185	0.626268
C91	C	-0.048979	0.209815	0.876268
C92	C	0.201021	0.459815	1.126268
C93	C	-0.500679	-0.357911	0.358033
C94	C	-0.250679	-0.107911	0.608033
C95	C	-0.000679	0.142089	0.858033
C96	C	0.249321	0.392089	1.108033
C97	C	-0.598356	-0.425671	0.339707
C98	C	-0.348356	-0.175671	0.589707
C99	C	-0.098356	0.074329	0.839707
C100	C	0.151644	0.324329	1.089707
C101	C	-0.598409	-0.339855	0.425789
C102	C	-0.348409	-0.089855	0.675789
C103	C	-0.098409	0.160145	0.925789
C104	C	0.151591	0.410145	1.175789
C105	C	-0.549035	-0.407635	0.407548
C106	C	-0.299035	-0.157635	0.657548
C107	C	-0.049035	0.092365	0.907548
C108	C	0.200965	0.342365	1.157548
C109	C	-0.730763	-0.357896	0.357995
C110	C	-0.480763	-0.107896	0.607995
C111	C	-0.230763	0.142104	0.857995
C112	C	0.019237	0.392104	1.107995
C113	C	-0.416583	-0.357924	0.358049
C114	C	-0.166583	-0.107924	0.608049
C115	C	0.083417	0.142076	0.858049
C116	C	0.333417	0.392076	1.108049
C117	C	-1.073271	-0.550875	0.358046
C118	C	-0.823271	-0.300875	0.608046
C119	C	-0.573271	-0.050875	0.858046
C120	C	-0.323271	0.199125	1.108046
C121	C	-1.073330	-0.633421	0.358073
C122	C	-0.823330	-0.383421	0.608073
C123	C	-0.573330	-0.133421	0.858073
C124	C	-0.323330	0.116579	1.108073
C125	C	-1.073322	-0.357890	0.551746
C126	C	-0.823322	-0.107890	0.801746
C127	C	-0.573322	0.142110	1.051746
C128	C	-0.323322	0.392110	1.301746
C129	C	-1.073334	-0.357876	0.634292
C130	C	-0.823334	-0.107876	0.884292
C131	C	-0.573334	0.142124	1.134292
C132	C	-0.323334	0.392124	1.384292
C133	C	-0.266998	-0.357948	0.358079
C134	C	-0.016998	-0.107948	0.608079
C135	C	0.233002	0.142052	0.858079
C136	C	0.483002	0.392052	1.108079
C137	C	-0.349544	-0.357926	0.358061
C138	C	-0.099544	-0.107926	0.608061
C139	C	0.150456	0.142074	0.858061
C140	C	0.400456	0.392074	1.108061
C141	C	-1.073335	-0.164217	0.358051
C142	C	-0.823335	0.085783	0.608051
C143	C	-0.573335	0.335783	0.858051
C144	C	-0.323335	0.585783	1.108051
C145	C	-1.073353	-0.081672	0.358056
C146	C	-0.823353	0.168328	0.608056
C147	C	-0.573353	0.418328	0.858056
C148	C	-0.323353	0.668328	1.108056
C149	C	-1.122964	0.117778	0.407691
C150	C	-0.872964	0.367778	0.657691
C151	C	-0.622964	0.617778	0.907691
C152	C	-0.372964	0.867778	1.157691
C153	C	-1.141118	0.167156	0.339944
C154	C	-0.891118	0.417156	0.589944
C155	C	-0.641118	0.667156	0.839944
C156	C	-0.391118	0.917156	1.089944
C157	C	-1.073345	0.069459	0.358060
C158	C	-0.823345	0.319459	0.608060
C159	C	-0.573345	0.569459	0.858060
C160	C	-0.323345	0.819459	1.108060
C161	C	-1.055218	0.167162	0.425810
C162	C	-0.805218	0.417162	0.675810
C163	C	-0.555218	0.667162	0.925810
C164	C	-0.305218	0.917162	1.175810
C165	C	-1.073340	0.215444	0.358070
C166	C	-0.823340	0.465444	0.608070
C167	C	-0.573340	0.715444	0.858070
C168	C	-0.323340	0.965444	1.108070
C169	C	-1.091535	0.117750	0.290277
C170	C	-0.841535	0.367750	0.540277
C171	C	-0.591535	0.617750	0.790277
C172	C	-0.341535	0.867750	1.040277
C173	C	-1.005604	0.117752	0.376188
C174	C	-0.755604	0.367752	0.626188
C175	C	-0.505604	0.617752	0.876188
C176	C	-0.255604	0.867752	1.126188
C177	C	-1.023732	0.167108	0.308394
C178	C	-0.773732	0.417108	0.558394
C179	C	-0.523732	0.667108	0.808394
C180	C	-0.273732	0.917108	1.058394
C181	C	-1.073351	-0.014640	0.358055
C182	C	-0.823351	0.235360	0.608055
C183	C	-0.573351	0.485360	0.858055
C184	C	-0.323351	0.735360	1.108055
C185	C	-1.073334	0.299540	0.358067
C186	C	-0.823334	0.549540	0.608067
C187	C	-0.573334	0.799540	0.858067
C188	C	-0.323334	1.049540	1.108067
C189	C	-1.073307	-0.357902	0.165088
C190	C	-0.823307	-0.107902	0.415088
C191	C	-0.573307	0.142098	0.665088
C192	C	-0.323307	0.392098	0.915088
C193	C	-1.073438	-0.357707	0.082543
C194	C	-0.823438	-0.107707	0.332543
C195	C	-0.573438	0.142293	0.582543
C196	C	-0.323438	0.392293	0.832543
C197	C	-1.023755	-0.407405	0.833726
C198	C	-0.773755	-0.157405	1.083726
C199	C	-0.523755	0.092595	1.333726
C200	C	-0.273755	0.342595	1.583726
C201	C	-1.091517	-0.425566	0.883132
C202	C	-0.841517	-0.175566	1.133132
C203	C	-0.591517	0.074434	1.383132
C204	C	-0.341517	0.324434	1.633132
C205	C	-1.073371	-0.357819	0.785422
C206	C	-0.823371	-0.107819	1.035422
C207	C	-0.573371	0.142181	1.285422
C208	C	-0.323371	0.392181	1.535422
C209	C	-1.005647	-0.339637	0.883099
C210	C	-0.755647	-0.089637	1.133099
C211	C	-0.505647	0.160363	1.383099
C212	C	-0.255647	0.410363	1.633099
C213	C	-1.073400	-0.357766	0.931408
C214	C	-0.823400	-0.107766	1.181408
C215	C	-0.573400	0.142234	1.431408
C216	C	-0.323400	0.392234	1.681408
C217	C	-1.141168	-0.376017	0.833740
C218	C	-0.891168	-0.126017	1.083740
C219	C	-0.641168	0.123983	1.333740
C220	C	-0.391168	0.373983	1.583740
C221	C	-1.055252	-0.290056	0.833703
C222	C	-0.805252	-0.040056	1.083703
C223	C	-0.555252	0.209944	1.333703
C224	C	-0.305252	0.459944	1.583703
C225	C	-1.123060	-0.308192	0.883086
C226	C	-0.873060	-0.058192	1.133086
C227	C	-0.623060	0.191808	1.383086
C228	C	-0.373060	0.441808	1.633086
C229	C	-1.073353	-0.357852	0.701324
C230	C	-0.823353	-0.107852	0.951324
C231	C	-0.573353	0.142148	1.201324
C232	C	-0.323353	0.392148	1.451324
C233	C	-1.073426	-0.357733	1.015504
C234	C	-0.823426	-0.107733	1.265504
C235	C	-0.573426	0.142267	1.515504
C236	C	-0.323426	0.392267	1.765504
H237	H	-0.527529	-0.449700	0.449439
H238	H	-0.277529	-0.199700	0.699439
H239	H	-0.027529	0.050300	0.949439
H240	H	0.222471	0.300300	1.199439
F241	F	-1.035181	0.195534	0.500692
F242	F	-0.785181	0.445534	0.750692
F243	F	-0.535181	0.695534	1.000692
F244	F	-0.285181	0.945534	1.250692
H245	H	-0.981836	-0.449392	0.812054
H246	H	-0.731836	-0.199392	1.062054
H247	H	-0.481836	0.050608	1.312054
H248	H	-0.231836	0.300608	1.562054
H249	H	-1.164959	0.096118	0.449606
H250	H	-0.914959	0.346118	0.699606
H251	H	-0.664959	0.596118	0.949606
H252	H	-0.414959	0.846118	1.199606
F253	F	-1.111572	-0.500439	0.911511
F254	F	-0.861572	-0.250439	1.161511
F255	F	-0.611572	-0.000439	1.411511
F256	F	-0.361572	0.249561	1.661511
F257	F	-0.520625	-0.215329	0.396438
F258	F	-0.270625	0.034671	0.646438
F259	F	-0.020625	0.284671	0.896438
F260	F	0.229375	0.534671	1.146438
F261	F	-1.111650	0.089502	0.215369
F262	F	-0.861650	0.339502	0.465369
F263	F	-0.611650	0.589502	0.715369
F264	F	-0.361650	0.839502	0.965369
H265	H	-0.948361	-0.324281	0.904781
H266	H	-0.698361	-0.074281	1.154781
H267	H	-0.448361	0.175719	1.404781
H268	H	-0.198361	0.425719	1.654781
F269	F	-1.216066	-0.396180	0.805522
F270	F	-0.966066	-0.146180	1.055522
F271	F	-0.716066	0.103820	1.305522
F272	F	-0.466066	0.353820	1.555522
F273	F	-1.177981	-0.253353	0.911239
F274	F	-0.927981	-0.003353	1.161239
F275	F	-0.677981	0.246647	1.411239
F276	F	-0.427981	0.496647	1.661239
F277	F	-1.035172	-0.215203	0.805302
F278	F	-0.785172	0.034797	1.055302
F279	F	-0.535172	0.284797	1.305302
F280	F	-0.285172	0.534797	1.555302
F281	F	-0.626617	-0.253371	0.253690
F282	F	-0.376617	-0.003371	0.503690
F283	F	-0.126617	0.246629	0.753690
F284	F	0.123383	0.496629	1.003690
F285	F	-0.520523	-0.395919	0.215311
F286	F	-0.270523	-0.145919	0.465311
F287	F	-0.020523	0.104081	0.715311
F288	F	0.229477	0.354081	0.965311
H289	H	-0.981769	0.188631	0.266378
H290	H	-0.731769	0.438631	0.516378
H291	H	-0.481769	0.688631	0.766378
H292	H	-0.231769	0.938631	1.016378
H293	H	-0.619955	-0.482959	0.324211
H294	H	-0.369955	-0.232959	0.574211
H295	H	-0.119955	0.017041	0.824211
H296	H	0.130045	0.267041	1.074211
H297	H	-0.620159	-0.324561	0.483082
H298	H	-0.370159	-0.074561	0.733082
H299	H	-0.120159	0.175439	0.983082
H300	H	0.129841	0.425439	1.233082
F301	F	-1.215993	0.195522	0.319900
F302	F	-0.965993	0.445522	0.569900
F303	F	-0.715993	0.695522	0.819900
F304	F	-0.465993	0.945522	1.069900
H305	H	-0.948334	0.096036	0.391542
H306	H	-0.698334	0.346036	0.641542
H307	H	-0.448334	0.596036	0.891542
H308	H	-0.198334	0.846036	1.141542
