data_functionalizedCrystal
_audit_creation_method	'MofGen! by Chris Wilmer'
_symmetry_space_group_name_H-M	'P1'
_symmetry_Int_Tables_number	1
_symmetry_cell_setting	triclinic
loop_
_symmetry_equiv_pos_as_xyz
  x,y,z
_cell_length_a	11.169417
_cell_length_b	11.169416
_cell_length_c	11.169409
_cell_angle_alpha	90.029517
_cell_angle_beta	90.019513
_cell_angle_gamma	90.005487
loop_
_atom_site_label
_atom_site_type_symbol
_atom_site_fract_x
_atom_site_fract_y
_atom_site_fract_z
Zn1	Zn	1.835013	-0.477670	0.678556
Zn2	Zn	2.085013	-0.227670	0.928556
Zn3	Zn	2.335013	0.022330	1.178556
Zn4	Zn	2.585013	0.272330	1.428556
Zn5	Zn	1.834924	-0.678410	0.477883
Zn6	Zn	2.084924	-0.428410	0.727883
Zn7	Zn	2.334924	-0.178410	0.977883
Zn8	Zn	2.584924	0.071590	1.227883
Zn9	Zn	1.634299	-0.477744	0.477892
Zn10	Zn	1.884299	-0.227744	0.727892
Zn11	Zn	2.134299	0.022256	0.977892
Zn12	Zn	2.384299	0.272256	1.227892
Zn13	Zn	1.634328	-0.678314	0.678529
Zn14	Zn	1.884328	-0.428314	0.928529
Zn15	Zn	2.134328	-0.178314	1.178529
Zn16	Zn	2.384328	0.071686	1.428529
O17	O	1.734641	-0.578035	0.578215
O18	O	1.984641	-0.328035	0.828215
O19	O	2.234641	-0.078035	1.078215
O20	O	2.484641	0.171965	1.328215
O21	O	2.002951	-0.504308	0.651944
O22	O	2.252951	-0.254308	0.901944
O23	O	2.502951	-0.004308	1.151944
O24	O	2.752951	0.245692	1.401944
O25	O	1.808261	-0.651863	0.309934
O26	O	2.058261	-0.401863	0.559934
O27	O	2.308261	-0.151863	0.809934
O28	O	2.558261	0.098137	1.059934
O29	O	1.660950	-0.309785	0.504525
O30	O	1.910950	-0.059785	0.754525
O31	O	2.160950	0.190215	1.004525
O32	O	2.410950	0.440215	1.254525
O33	O	2.002885	-0.651791	0.504511
O34	O	2.252885	-0.401791	0.754511
O35	O	2.502885	-0.151791	1.004511
O36	O	2.752885	0.098209	1.254511
O37	O	1.808413	-0.309730	0.651953
O38	O	2.058413	-0.059730	0.901953
O39	O	2.308413	0.190270	1.151953
O40	O	2.558413	0.440270	1.401953
O41	O	1.660863	-0.504435	0.309941
O42	O	1.910863	-0.254435	0.559941
O43	O	2.160863	-0.004435	0.809941
O44	O	2.410863	0.245565	1.059941
O45	O	1.466353	-0.504341	0.504499
O46	O	1.716353	-0.254341	0.754499
O47	O	1.966353	-0.004341	1.004499
O48	O	2.216353	0.245659	1.254499
O49	O	1.660999	-0.651627	0.846483
O50	O	1.910999	-0.401627	1.096483
O51	O	2.160999	-0.151627	1.346483
O52	O	2.410999	0.098373	1.596483
O53	O	1.466374	-0.651699	0.651906
O54	O	1.716374	-0.401699	0.901906
O55	O	1.966374	-0.151699	1.151906
O56	O	2.216374	0.098301	1.401906
O57	O	1.808441	-0.504214	0.846503
O58	O	2.058441	-0.254214	1.096503
O59	O	2.308441	-0.004214	1.346503
O60	O	2.558441	0.245786	1.596503
O61	O	1.808289	-0.846347	0.504484
O62	O	2.058289	-0.596347	0.754484
O63	O	2.308289	-0.346347	1.004484
O64	O	2.558289	-0.096347	1.254484
O65	O	1.660912	-0.846277	0.651898
O66	O	1.910912	-0.596277	0.901898
O67	O	2.160912	-0.346277	1.151898
O68	O	2.410912	-0.096277	1.401898
C69	C	1.422816	-0.578019	0.578201
C70	C	1.672816	-0.328019	0.828201
C71	C	1.922816	-0.078019	1.078201
C72	C	2.172816	0.171981	1.328201
C73	C	1.289416	-0.578040	0.578224
C74	C	1.539416	-0.328040	0.828224
C75	C	1.789416	-0.078040	1.078224
C76	C	2.039416	0.171960	1.328224
C77	C	1.734627	-0.889859	0.578213
C78	C	1.984627	-0.639859	0.828213
C79	C	2.234627	-0.389859	1.078213
C80	C	2.484627	-0.139859	1.328213
C81	C	1.734730	-1.023259	0.578253
C82	C	1.984730	-0.773259	0.828253
C83	C	2.234730	-0.523259	1.078253
C84	C	2.484730	-0.273259	1.328253
C85	C	1.734688	-0.264992	0.578243
C86	C	1.984688	-0.014992	0.828243
C87	C	2.234688	0.235008	1.078243
C88	C	2.484688	0.485008	1.328243
C89	C	1.734708	-0.131592	0.578255
C90	C	1.984708	0.118408	0.828255
C91	C	2.234708	0.368408	1.078255
C92	C	2.484708	0.618408	1.328255
C93	C	2.047683	-0.578052	0.578230
C94	C	2.297683	-0.328052	0.828230
C95	C	2.547683	-0.078052	1.078230
C96	C	2.797683	0.171948	1.328230
C97	C	2.181083	-0.578059	0.578236
C98	C	2.431083	-0.328059	0.828236
C99	C	2.681083	-0.078059	1.078236
C100	C	2.931083	0.171941	1.328236
C101	C	1.734733	-0.577901	0.891258
C102	C	1.984733	-0.327901	1.141258
C103	C	2.234733	-0.077901	1.391258
C104	C	2.484733	0.172099	1.641258
C105	C	1.734772	-0.577845	1.024658
C106	C	1.984772	-0.327845	1.274658
C107	C	2.234772	-0.077845	1.524658
C108	C	2.484772	0.172155	1.774658
C109	C	1.734618	-0.578081	0.266390
C110	C	1.984618	-0.328081	0.516390
C111	C	2.234618	-0.078081	0.766390
C112	C	2.484618	0.171919	1.016390
C113	C	1.734811	-0.577800	0.132991
C114	C	1.984811	-0.327800	0.382991
C115	C	2.234811	-0.077800	0.632991
C116	C	2.484811	0.172200	0.882991
