data_functionalizedCrystal
_audit_creation_method	'MofGen! by Chris Wilmer'
_symmetry_space_group_name_H-M	'P1'
_symmetry_Int_Tables_number	1
_symmetry_cell_setting	triclinic
loop_
_symmetry_equiv_pos_as_xyz
  x,y,z
_cell_length_a	16.974829
_cell_length_b	16.053802
_cell_length_c	10.654551
_cell_angle_alpha	87.402457
_cell_angle_beta	83.940793
_cell_angle_gamma	88.924488
loop_
_atom_site_label
_atom_site_type_symbol
_atom_site_fract_x
_atom_site_fract_y
_atom_site_fract_z
O1	O	1.043346	-0.139920	0.170772
O2	O	1.543346	0.360080	0.670772
O3	O	0.813991	-0.124425	0.189967
O4	O	1.313991	0.375575	0.689967
O5	O	0.933942	-0.132527	-0.002425
O6	O	1.433942	0.367473	0.497575
O7	O	0.923396	-0.131818	0.363163
O8	O	1.423396	0.368182	0.863163
O9	O	0.940537	0.005886	-0.012983
O10	O	1.440537	0.505886	0.487017
O11	O	0.820587	0.013988	0.179409
O12	O	1.320587	0.513988	0.679409
O13	O	1.049942	-0.001507	0.160214
O14	O	1.549942	0.498493	0.660214
Zn15	Zn	0.936311	0.028217	0.168135
Zn16	Zn	1.436311	0.528217	0.668135
Zn17	Zn	0.927622	-0.154149	0.182045
Zn18	Zn	1.427622	0.345851	0.682045
O19	O	0.929991	0.006595	0.352606
O20	O	1.429991	0.506595	0.852606
C21	C	0.787921	-0.053234	0.183760
C22	C	1.287921	0.446766	0.683760
C23	C	0.700414	-0.047323	0.180980
C24	C	1.200414	0.452677	0.680980
C25	C	0.208223	-0.005946	0.164753
C26	C	0.708223	0.494054	0.664753
C27	C	0.290446	-0.011502	0.167366
C28	C	0.790446	0.488498	0.667366
C29	C	0.327962	-0.089731	0.174417
C30	C	0.827962	0.410269	0.674417
C31	C	0.283252	-0.162408	0.178870
C32	C	0.783252	0.337592	0.678870
C33	C	0.201030	-0.156850	0.176267
C34	C	0.701030	0.343150	0.676267
C35	C	0.573482	-0.114442	0.182829
C36	C	1.073482	0.385558	0.682829
C37	C	0.655709	-0.119994	0.185428
C38	C	1.155709	0.380006	0.685428
C39	C	0.662898	0.030912	0.173926
C40	C	1.162898	0.530912	0.673926
C41	C	0.580675	0.036463	0.171315
C42	C	1.080675	0.536463	0.671315
C43	C	0.535971	-0.036214	0.175775
C44	C	1.035971	0.463786	0.675775
N45	N	0.412007	-0.095412	0.177084
N46	N	0.912007	0.404588	0.677084
N47	N	0.451927	-0.030532	0.173117
N48	N	0.951927	0.469468	0.673117
N49	N	0.921692	-0.278609	0.191530
N50	N	1.421692	0.221391	0.691530
C51	C	0.972830	-0.325757	0.109824
C52	C	1.472830	0.174243	0.609824
C53	C	0.968681	-0.412883	0.116456
C54	C	1.468681	0.087117	0.616456
C55	C	0.913388	-0.452860	0.204788
C56	C	1.413388	0.047140	0.704788
C57	C	0.862247	-0.405705	0.286503
C58	C	1.362247	0.094295	0.786503
C59	C	0.866401	-0.318581	0.279876
C60	C	1.366401	0.181419	0.779876
C61	C	0.895261	-0.713045	0.233729
C62	C	1.395261	-0.213045	0.733729
C63	C	0.891109	-0.800176	0.240347
C64	C	1.391109	-0.300176	0.740347
C65	C	0.997544	-0.807348	0.070301
C66	C	1.497544	-0.307348	0.570301
C67	C	1.001690	-0.720221	0.063677
C68	C	1.501690	-0.220221	0.563677
C69	C	0.950552	-0.673074	0.145396
C70	C	1.450552	-0.173074	0.645396
N71	N	0.909143	-0.541917	0.211566
N72	N	1.409143	-0.041917	0.711566
N73	N	0.954801	-0.584019	0.138623
N74	N	1.454801	-0.084019	0.638623
C75	C	1.076012	-0.072700	0.166421
C76	C	1.576012	0.427300	0.666421
C77	C	1.163519	-0.078617	0.169202
C78	C	1.663519	0.421383	0.669202
C79	C	0.936465	-0.063270	-0.054494
C80	C	1.436465	0.436730	0.445506
C81	C	0.934147	-0.063117	-0.193912
C82	C	1.434147	0.436883	0.306088
N83	N	0.942247	0.152676	0.158641
N84	N	1.442247	0.652676	0.658641
C85	C	0.929465	-0.138493	-0.253650
C86	C	1.429465	0.361507	0.246350
C87	C	0.927281	-0.138347	-0.384647
C88	C	1.427281	0.361653	0.115353
C89	C	0.934466	0.012560	-0.396160
C90	C	1.434466	0.512560	0.103840
C91	C	0.936644	0.012412	-0.265163
C92	C	1.436644	0.512412	0.234837
C93	C	0.927468	-0.062665	0.404674
C94	C	1.427468	0.437335	0.904674
C95	C	0.929785	-0.062823	0.544094
C96	C	1.429785	0.437177	1.044094
H97	H	0.550137	0.100165	0.165546
H98	H	1.050137	0.600165	0.665546
H99	H	0.537094	-0.173621	0.186455
H100	H	1.037094	0.326379	0.686455
H101	H	0.326841	0.047675	0.163740
H102	H	0.826841	0.547675	0.663740
Br103	Br	0.797001	-0.254594	0.390776
Br104	Br	1.297001	0.245406	0.890776
Br105	Br	1.038087	-0.476873	0.005573
Br106	Br	1.538087	0.023127	0.505573
H107	H	0.936500	0.074053	-0.454188
H108	H	1.436500	0.574053	0.045812
H109	H	0.699304	0.090082	0.170298
H110	H	1.199304	0.590082	0.670298
H111	H	0.940453	0.073797	-0.216524
H112	H	1.440453	0.573797	0.283476
Br113	Br	0.157317	0.100227	0.155166
Br114	Br	0.657317	0.600227	0.655166
Br115	Br	0.334166	-0.268577	0.188445
Br116	Br	0.834166	0.231423	0.688445
Br117	Br	0.706625	-0.226169	0.194995
Br118	Br	1.206625	0.273831	0.694995
Br119	Br	0.140357	-0.255480	0.182316
Br120	Br	0.640357	0.244520	0.682316
H121	H	0.927429	-0.199994	-0.195640
H122	H	1.427429	0.300006	0.304360
H123	H	1.046714	-0.687674	-0.008250
H124	H	1.546714	-0.187674	0.491750
Br125	Br	1.067123	-0.871348	-0.040308
Br126	Br	1.567123	-0.371348	0.459692
Br127	Br	1.047869	-0.271512	-0.010071
Br128	Br	1.547869	0.228488	0.489929
Br129	Br	0.920921	-0.240647	-0.465714
Br130	Br	1.420921	0.259353	0.034286
Br131	Br	0.816058	-0.854424	0.360232
Br132	Br	1.316058	-0.354424	0.860232
Br133	Br	0.825860	-0.649065	0.344627
Br134	Br	1.325860	-0.149065	0.844627
H135	H	0.817229	-0.438259	0.358431
H136	H	1.317229	0.061741	0.858431
