data_functionalizedCrystal
_audit_creation_method	'MofGen! by Chris Wilmer'
_symmetry_space_group_name_H-M	'P1'
_symmetry_Int_Tables_number	1
_symmetry_cell_setting	triclinic
loop_
_symmetry_equiv_pos_as_xyz
  x,y,z
_cell_length_a	19.288864
_cell_length_b	15.995350
_cell_length_c	18.366186
_cell_angle_alpha	89.995992
_cell_angle_beta	89.977106
_cell_angle_gamma	83.314311
loop_
_atom_site_label
_atom_site_type_symbol
_atom_site_fract_x
_atom_site_fract_y
_atom_site_fract_z
O1	O	0.921624	0.104451	-0.060780
O2	O	0.719400	0.118542	-0.060729
O3	O	0.826040	-0.010412	-0.060755
O4	O	0.814984	0.233405	-0.060754
O5	O	0.826022	-0.010418	0.060344
O6	O	0.719382	0.118535	0.060370
O7	O	0.921606	0.104445	0.060320
Zn8	Zn	0.820491	0.111489	0.079572
Zn9	Zn	0.820515	0.111498	-0.079982
O10	O	0.814966	0.233399	0.060346
C11	C	0.693513	0.118085	-0.000173
C12	C	0.616406	0.116724	-0.000154
C13	C	0.571906	0.192388	-0.000165
C14	C	0.499456	0.191110	-0.000173
C15	C	0.471508	0.114163	-0.000185
C16	C	0.516018	0.038489	-0.000170
C17	C	0.588467	0.039769	-0.000155
C18	C	0.363096	0.053676	-0.042636
C19	C	0.290648	0.052398	-0.042656
C20	C	0.248053	0.110209	-0.000229
C21	C	0.277912	0.169312	0.042208
C22	C	0.350361	0.170593	0.042224
C23	C	0.392951	0.112765	-0.000201
C24	C	0.124993	0.184492	-0.000248
C25	C	0.052542	0.183210	-0.000251
C26	C	0.069106	0.030587	-0.000255
C27	C	0.141556	0.031871	-0.000244
C28	C	0.169495	0.108826	-0.000244
C29	C	0.825574	-0.041608	-0.000207
C30	C	0.824203	-0.134553	-0.000211
C31	C	0.819282	-0.472282	-0.000207
C32	C	0.743335	-0.424562	-0.000460
C33	C	0.744706	-0.327877	-0.000187
C34	C	0.821723	-0.304731	-0.000209
C35	C	0.859173	-0.345953	0.068934
C36	C	0.857265	-0.442582	0.068992
C37	C	0.858854	-0.442939	-0.068721
C38	C	0.858836	-0.345993	-0.069635
C39	C	0.823107	-0.210039	-0.000208
C40	C	0.817901	-0.566975	-0.000203
C41	C	0.947492	0.104902	-0.000238
C42	C	1.024600	0.106263	-0.000262
C43	C	0.815432	0.264595	-0.000204
C44	C	0.816802	0.357540	-0.000206
N45	N	0.820480	0.111483	0.188463
N46	N	0.820531	0.111497	-0.188873
C47	C	0.867715	0.054410	0.226552
C48	C	0.867720	0.054407	0.302780
C49	C	0.820495	0.111490	0.340916
C50	C	0.773250	0.168567	0.302818
C51	C	0.773243	0.168564	0.226591
C52	C	0.811395	0.187781	0.461678
C53	C	0.811407	0.187785	0.537903
C54	C	0.820515	0.111500	0.576023
C55	C	0.829624	0.035208	0.537909
C56	C	0.829617	0.035204	0.461683
C57	C	0.820498	0.111500	0.423571
C58	C	0.867758	0.054419	0.696767
C59	C	0.867757	0.054414	0.772996
C60	C	0.773292	0.168582	0.773033
C61	C	0.773289	0.168579	0.696805
C62	C	0.820525	0.111499	0.658677
H63	H	0.493259	-0.024162	-0.000189
H64	H	0.147742	0.247153	-0.000237
C65	C	0.383209	0.235592	0.088905
H66	H	0.432456	0.228076	0.082832
H67	H	0.372108	0.228022	0.138688
H68	H	0.365336	0.290784	0.073983
C69	C	0.637422	-0.043462	-0.000148
H70	H	0.684571	-0.031678	-0.000135
H71	H	0.628973	-0.075026	-0.042379
H72	H	0.628930	-0.075026	0.042086
C73	C	0.038376	-0.054056	-0.000265
H74	H	0.075259	-0.098937	-0.000253
H75	H	0.010479	-0.057728	-0.042498
H76	H	0.010437	-0.057727	0.041967
C77	C	0.003591	0.266445	-0.000264
H78	H	0.030610	0.312457	-0.000268
H79	H	-0.025039	0.269122	0.041961
H80	H	-0.024991	0.269114	-0.042504
H81	H	0.734828	0.215057	0.665791
H82	H	0.463217	0.252727	-0.000180
C83	C	0.409948	-0.009920	-0.089306
H84	H	0.457372	-0.000699	-0.083214
H85	H	0.397305	-0.002770	-0.139094
H86	H	0.404077	-0.065530	-0.074388
C87	C	0.704653	-0.290076	0.066902
H88	H	0.705348	-0.230787	0.067294
H89	H	0.726184	-0.313641	0.109913
H90	H	0.657707	-0.302470	0.064880
C91	C	0.934712	-0.325534	-0.075299
H92	H	0.944796	-0.291413	-0.035215
H93	H	0.940602	-0.296209	-0.119437
H94	H	0.965553	-0.376367	-0.074720
H95	H	0.803994	0.249907	0.568929
H96	H	0.177789	-0.029743	-0.000239
C97	C	0.231067	0.232912	0.088876
H98	H	0.183643	0.223682	0.082796
H99	H	0.236938	0.288517	0.073959
H100	H	0.243711	0.225761	0.138668
C101	C	0.919682	-0.008374	0.344687
H102	H	0.947815	-0.042366	0.311061
H103	H	0.894705	-0.043152	0.374442
H104	H	0.948595	0.021670	0.374402
C105	C	0.602636	0.277035	-0.000152
H106	H	0.565752	0.321915	-0.000152
H107	H	0.630581	0.280715	-0.042372
H108	H	0.630525	0.280702	0.042093
H109	H	0.829941	-0.460783	0.120694
H110	H	0.266342	0.004277	-0.077214
H111	H	0.713107	-0.444044	0.048862
C112	C	0.702330	-0.449445	-0.067434
H113	H	0.731156	-0.489164	-0.095842
H114	H	0.688366	-0.400815	-0.095908
H115	H	0.662172	-0.473730	-0.051866
H116	H	0.837032	-0.026916	0.430654
H117	H	0.831456	-0.318639	-0.120785
C118	C	0.704928	-0.289321	-0.067135
H119	H	0.687781	-0.332743	-0.094743
H120	H	0.735537	-0.261144	-0.096404
H121	H	0.666910	-0.250300	-0.051556
C122	C	0.932585	-0.486435	0.073223
H123	H	0.964213	-0.445170	0.074905
H124	H	0.942173	-0.520987	0.031523
H125	H	0.937838	-0.520190	0.115869
H126	H	0.915755	-0.332041	0.071489
H127	H	0.734798	0.215044	0.333872
H128	H	0.833147	-0.317476	0.120403
C129	C	0.801381	0.271700	0.419753
H130	H	0.795969	0.317136	0.453367
H131	H	0.760937	0.273523	0.390035
H132	H	0.841072	0.276217	0.389999
H133	H	0.734777	0.215040	0.195579
C134	C	0.919715	-0.008371	0.814898
H135	H	0.912949	-0.000203	0.865757
H136	H	0.966068	0.000582	0.802384
H137	H	0.912171	-0.064233	0.802412
H138	H	0.837040	-0.026911	0.568945
C139	C	0.825320	-0.470548	-0.139519
H140	H	0.786867	-0.500231	-0.127953
H141	H	0.858835	-0.506147	-0.166531
H142	H	0.809551	-0.422288	-0.167744
H143	H	0.914850	-0.474911	-0.069202
H144	H	0.906177	0.007930	0.195510
H145	H	0.906219	0.007938	0.665722
H146	H	0.734838	0.215057	0.804083
