data_functionalizedCrystal
_audit_creation_method	'MofGen! by Chris Wilmer'
_symmetry_space_group_name_H-M	'P1'
_symmetry_Int_Tables_number	1
_symmetry_cell_setting	triclinic
loop_
_symmetry_equiv_pos_as_xyz
  x,y,z
_cell_length_a	21.395364
_cell_length_b	10.685194
_cell_length_c	21.395355
_cell_angle_alpha	94.385537
_cell_angle_beta	90.024552
_cell_angle_gamma	94.391903
loop_
_atom_site_label
_atom_site_type_symbol
_atom_site_fract_x
_atom_site_fract_y
_atom_site_fract_z
Zn1	Zn	0.938849	-0.502054	0.335161
Zn2	Zn	0.930762	-0.713059	0.222356
Zn3	Zn	0.834062	-0.502110	0.230396
Zn4	Zn	0.826043	-0.713081	0.327095
O5	O	0.882429	-0.607576	0.278752
O6	O	1.025455	-0.530012	0.320208
O7	O	0.917906	-0.685090	0.135744
O8	O	0.854703	-0.325504	0.251033
O9	O	1.019514	-0.685036	0.237331
O10	O	0.931689	-0.325464	0.328004
O11	O	0.846861	-0.530106	0.141651
O12	O	0.745319	-0.530128	0.243212
O13	O	0.841035	-0.685074	0.415843
O14	O	0.739427	-0.685128	0.314257
O15	O	0.923913	-0.530034	0.421769
O16	O	0.910130	-0.889660	0.229509
O17	O	0.833193	-0.889677	0.306461
C18	C	0.719639	-0.607637	0.278732
C19	C	0.649995	-0.607694	0.278737
C20	C	0.620393	-0.527105	0.321948
C21	C	0.554959	-0.527072	0.321952
C22	C	0.519129	-0.607650	0.278750
C23	C	0.548738	-0.688244	0.235531
C24	C	0.614172	-0.688266	0.235524
C25	C	0.411101	-0.721298	0.269389
C26	C	0.345669	-0.721278	0.269400
C27	C	0.317311	-0.607580	0.278767
C28	C	0.354393	-0.493899	0.288136
C29	C	0.419826	-0.493921	0.288130
C30	C	0.448177	-0.607634	0.278752
C31	C	0.216758	-0.526948	0.321984
C32	C	0.151323	-0.526912	0.321984
C33	C	0.145102	-0.688096	0.235566
C34	C	0.210537	-0.688120	0.235563
C35	C	0.246361	-0.607548	0.278776
C36	C	0.869931	-0.935458	0.266251
C37	C	0.864641	-1.075728	0.260924
C38	C	1.045854	-0.607515	0.278772
C39	C	1.115497	-0.607489	0.278781
C40	C	0.882482	-0.607550	0.442176
C41	C	0.882504	-0.607540	0.511818
C42	C	0.894993	-0.278414	0.291315
C43	C	0.900347	-0.138144	0.296669
C44	C	0.882415	-0.607510	0.115967
C45	C	0.882528	-0.607166	0.046339
C46	C	0.925657	-0.526807	0.547618
C47	C	0.925659	-0.526752	0.613055
C48	C	0.882512	-0.607454	0.642690
C49	C	0.839351	-0.688192	0.606882
C50	C	0.839347	-0.688235	0.541446
C51	C	0.873234	-0.721086	0.742032
C52	C	0.873242	-0.721045	0.807466
C53	C	0.882521	-0.607320	0.844515
C54	C	0.891805	-0.493632	0.816122
C55	C	0.891801	-0.493675	0.750686
C56	C	0.882512	-0.607415	0.713643
C57	C	0.925678	-0.526522	0.951270
C58	C	0.925675	-0.526465	1.016709
C59	C	0.839371	-0.687916	1.010534
C60	C	0.839371	-0.687961	0.945097
C61	C	0.882528	-0.607266	0.915469
H62	H	0.450016	-0.401357	0.295757
H63	H	0.234639	-0.753750	0.200378
C64	C	0.118760	-0.438260	0.369519
H65	H	0.149469	-0.390290	0.395255
H66	H	0.095335	-0.383188	0.347701
H67	H	0.091394	-0.486620	0.394936
C68	C	0.304885	-0.846319	0.259090
H69	H	0.331144	-0.914035	0.253498
H70	H	0.278947	-0.857525	0.294562
H71	H	0.279410	-0.844548	0.222838
C72	C	0.522389	-0.438435	0.369492
H73	H	0.553096	-0.390461	0.395230
H74	H	0.498958	-0.383365	0.347679
H75	H	0.495027	-0.486810	0.394908
H76	H	0.434184	-0.813892	0.261760
H77	H	0.804234	-0.753612	1.034662
C78	C	0.509328	-0.776882	0.188013
H79	H	0.466117	-0.765338	0.194210
H80	H	0.520740	-0.758296	0.146637
H81	H	0.516806	-0.861708	0.193884
C82	C	0.947115	-1.065375	0.343516
H83	H	0.944661	-0.977482	0.341068
H84	H	0.937125	-1.086896	0.384797
H85	H	0.988419	-1.086833	0.333574
C86	C	0.902005	-0.368633	0.719452
H87	H	0.900677	-0.384953	0.675176
H88	H	0.869948	-0.315555	0.732181
H89	H	0.941694	-0.328257	0.731723
H90	H	0.638273	-0.753894	0.200336
C91	C	0.323208	-0.368824	0.298443
H92	H	0.278928	-0.385086	0.297099
H93	H	0.335494	-0.328592	0.338153
H94	H	0.335956	-0.315641	0.266426
H95	H	0.960799	-0.461096	0.523499
C96	C	0.817871	-1.148502	0.214075
H97	H	0.820330	-1.236395	0.216515
H98	H	0.776569	-1.127040	0.224010
H99	H	0.827869	-1.126982	0.172791
H100	H	0.960798	-0.461003	0.642209
C101	C	0.902417	-0.368603	0.856863
H102	H	0.901207	-0.384876	0.899900
H103	H	0.942180	-0.328796	0.847518
H104	H	0.870523	-0.315032	0.848314
H105	H	0.960816	-0.460807	0.927146
C106	C	0.973147	-0.437655	1.056089
H107	H	0.998851	-0.389615	1.029069
H108	H	0.951283	-0.382654	1.083698
H109	H	0.998604	-0.485917	1.079790
H110	H	0.804234	-0.753711	0.915947
C111	C	0.863028	-0.846094	0.838694
H112	H	0.857489	-0.913828	0.807258
H113	H	0.898513	-0.857169	0.863813
H114	H	0.826769	-0.844438	0.864267
C115	C	0.862890	-0.846168	0.701285
H116	H	0.857330	-0.913860	0.727565
H117	H	0.826606	-0.844378	0.675863
H118	H	0.898323	-0.857431	0.675295
C119	C	0.791894	-0.776967	0.639476
H120	H	0.798082	-0.765389	0.683575
H121	H	0.750500	-0.758525	0.629440
H122	H	0.797832	-0.861765	0.625528
H123	H	0.245927	-0.461333	0.357167
H124	H	0.804204	-0.753976	0.512297
H125	H	0.115930	-0.753704	0.200390
C126	C	0.659796	-0.438464	0.369473
H127	H	0.632791	-0.390454	0.395205
H128	H	0.683486	-0.486820	0.394888
H129	H	0.687417	-0.383409	0.347640
