data_functionalizedCrystal
_audit_creation_method	'MofGen! by Chris Wilmer'
_symmetry_space_group_name_H-M	'P1'
_symmetry_Int_Tables_number	1
_symmetry_cell_setting	triclinic
loop_
_symmetry_equiv_pos_as_xyz
  x,y,z
_cell_length_a	17.077404
_cell_length_b	18.050589
_cell_length_c	17.077396
_cell_angle_alpha	90.024642
_cell_angle_beta	90.019501
_cell_angle_gamma	90.028446
loop_
_atom_site_label
_atom_site_type_symbol
_atom_site_fract_x
_atom_site_fract_y
_atom_site_fract_z
Zn1	Zn	1.200026	-0.295655	0.443864
Zn2	Zn	1.533359	0.037678	0.777197
Zn3	Zn	1.866692	0.371012	1.110530
Zn4	Zn	1.199920	-0.419852	0.312606
Zn5	Zn	1.533254	-0.086519	0.645940
Zn6	Zn	1.866587	0.246814	0.979273
Zn7	Zn	1.068757	-0.295681	0.312612
Zn8	Zn	1.402091	0.037652	0.645945
Zn9	Zn	1.735424	0.370986	0.979278
Zn10	Zn	1.068713	-0.419808	0.443830
Zn11	Zn	1.402046	-0.086475	0.777163
Zn12	Zn	1.735380	0.246859	1.110497
O13	O	1.134354	-0.357749	0.378228
O14	O	1.467687	-0.024416	0.711561
O15	O	1.801021	0.308918	1.044895
O16	O	1.309858	-0.312138	0.426464
O17	O	1.643192	0.021196	0.759797
O18	O	1.976525	0.354529	1.093131
O19	O	1.182496	-0.403410	0.202760
O20	O	1.515829	-0.070077	0.536093
O21	O	1.849163	0.263257	0.869427
O22	O	1.086233	-0.191753	0.330039
O23	O	1.419566	0.141580	0.663372
O24	O	1.752900	0.474914	0.996705
O25	O	1.309781	-0.403385	0.330030
O26	O	1.643115	-0.070051	0.663363
O27	O	1.976448	0.263282	0.996697
O28	O	1.182675	-0.191734	0.426469
O29	O	1.516008	0.141599	0.759802
O30	O	1.849342	0.474933	1.093136
O31	O	1.086131	-0.312182	0.202764
O32	O	1.419464	0.021151	0.536097
O33	O	1.752798	0.354485	0.869431
O34	O	0.958905	-0.312139	0.330006
O35	O	1.292238	0.021194	0.663339
O36	O	1.625571	0.354527	0.996673
O37	O	1.086157	-0.403310	0.553681
O38	O	1.419491	-0.069976	0.887015
O39	O	1.752824	0.263357	1.220348
O40	O	0.958872	-0.403335	0.426412
O41	O	1.292205	-0.070002	0.759745
O42	O	1.625539	0.263332	1.093078
O43	O	1.182632	-0.312095	0.553706
O44	O	1.515965	0.021239	0.887039
O45	O	1.849299	0.354572	1.220373
O46	O	1.182453	-0.523771	0.329997
O47	O	1.515786	-0.190438	0.663331
O48	O	1.849120	0.142896	0.996664
O49	O	1.086056	-0.523739	0.426407
O50	O	1.419389	-0.190405	0.759740
O51	O	1.752722	0.142928	1.093073
C52	C	0.930406	-0.357736	0.378206
C53	C	1.263740	-0.024402	0.711540
C54	C	1.597073	0.308931	1.044873
C55	C	0.843156	-0.357748	0.378216
C56	C	1.176490	-0.024414	0.711549
C57	C	1.509823	0.308919	1.044882
C58	C	0.802170	-0.405305	0.428333
C59	C	1.135503	-0.071972	0.761667
C60	C	1.468837	0.261362	1.095000
C61	C	0.720189	-0.405307	0.428346
C62	C	1.053523	-0.071973	0.761679
C63	C	1.386856	0.261360	1.095013
C64	C	0.679197	-0.357754	0.378236
C65	C	1.012530	-0.024421	0.711569
C66	C	1.345864	0.308912	1.044903
C67	C	0.720189	-0.310192	0.328116
C68	C	1.053523	0.023142	0.661449
C69	C	1.386856	0.356475	0.994783
C70	C	0.802168	-0.310187	0.328108
C71	C	1.135502	0.023146	0.661441
C72	C	1.468835	0.356480	0.994775
C73	C	0.549319	-0.310206	0.328135
C74	C	0.882653	0.023127	0.661468
C75	C	1.215986	0.356460	0.994802
C76	C	0.467335	-0.310212	0.328142
C77	C	0.800668	0.023121	0.661475
C78	C	1.134001	0.356455	0.994808
C79	C	0.467340	-0.405326	0.428373
C80	C	0.800674	-0.071993	0.761706
C81	C	1.134007	0.261341	1.095040
C82	C	0.549319	-0.405321	0.428365
C83	C	0.882653	-0.071988	0.761698
C84	C	1.215986	0.261345	1.095032
C85	C	0.590306	-0.357760	0.378244
C86	C	0.923639	-0.024426	0.711577
C87	C	1.256973	0.308907	1.044910
C88	C	1.134259	-0.550701	0.378215
C89	C	1.467593	-0.217368	0.711548
C90	C	1.800926	0.115965	1.044882
C91	C	1.134291	-0.633247	0.378236
C92	C	1.467624	-0.299914	0.711569
C93	C	1.800957	0.033420	1.044902
C94	C	1.081921	-0.832707	0.430645
C95	C	1.415255	-0.499374	0.763978
C96	C	1.748588	-0.166040	1.097311
C97	C	1.062786	-0.882149	0.359016
C98	C	1.396119	-0.548815	0.692349
C99	C	1.729453	-0.215482	1.025682
C100	C	1.134368	-0.784377	0.378246
C101	C	1.467701	-0.451044	0.711579
C102	C	1.801034	-0.117711	1.044912
C103	C	1.153541	-0.882017	0.449883
C104	C	1.486875	-0.548684	0.783216
C105	C	1.820208	-0.215351	1.116550
C106	C	1.134441	-0.930362	0.378262
C107	C	1.467774	-0.597029	0.711595
C108	C	1.801107	-0.263696	1.044929
C109	C	1.115195	-0.832732	0.306579
C110	C	1.448528	-0.499398	0.639912
C111	C	1.781862	-0.166065	0.973245
C112	C	1.205984	-0.832596	0.397495
C113	C	1.539317	-0.499263	0.730828
C114	C	1.872650	-0.165929	1.064161
C115	C	1.186876	-0.882016	0.325816
C116	C	1.520209	-0.548682	0.659149
C117	C	1.853542	-0.215349	0.992483
C118	C	1.134324	-0.700279	0.378238
C119	C	1.467657	-0.366946	0.711571
C120	C	1.800990	-0.033612	1.044904
C121	C	1.134485	-1.014459	0.378262
C122	C	1.467818	-0.681126	0.711596
C123	C	1.801152	-0.347792	1.044929
C124	C	1.339098	-0.357763	0.378250
C125	C	1.672432	-0.024430	0.711583
C126	C	2.005765	0.308904	1.044917
C127	C	1.426348	-0.357769	0.378260
C128	C	1.759681	-0.024436	0.711593
C129	C	2.093015	0.308898	1.044926
C130	C	1.134402	-0.357694	0.582972
C131	C	1.467735	-0.024361	0.916306
C132	C	1.801068	0.308972	1.249639
C133	C	1.134422	-0.357671	0.670222
C134	C	1.467755	-0.024338	1.003555
C135	C	1.801089	0.308996	1.336889
C136	C	1.134471	-0.164043	0.378258
C137	C	1.467804	0.169290	0.711592
C138	C	1.801137	0.502623	1.044925
C139	C	1.134520	-0.081498	0.378271
C140	C	1.467854	0.251836	0.711604
C141	C	1.801187	0.585169	1.044938
C142	C	1.134352	-0.357750	0.174280
C143	C	1.467685	-0.024417	0.507613
C144	C	1.801019	0.308917	0.840947
C145	C	1.134484	-0.357564	0.087031
C146	C	1.467817	-0.024231	0.420364
C147	C	1.801151	0.309103	0.753697
C148	C	1.184658	-0.310172	0.711226
C149	C	1.517991	0.023162	1.044560
C150	C	1.851325	0.356495	1.377893
C151	C	1.184667	-0.310147	0.793207
C152	C	1.518001	0.023186	1.126540
C153	C	1.851334	0.356520	1.459874
C154	C	1.134444	-0.357626	0.834182
C155	C	1.467777	-0.024293	1.167515
C156	C	1.801111	0.309041	1.500848
C157	C	1.084202	-0.405128	0.793172
C158	C	1.417536	-0.071794	1.126505
C159	C	1.750869	0.261539	1.459838
C160	C	1.084190	-0.405148	0.711193
C161	C	1.417523	-0.071815	1.044526
C162	C	1.750856	0.261519	1.377859
C163	C	1.084234	-0.405083	0.964042
C164	C	1.417567	-0.071750	1.297375
C165	C	1.750901	0.261584	1.630708
C166	C	1.084248	-0.405064	1.046026
C167	C	1.417581	-0.071730	1.379360
C168	C	1.750914	0.261603	1.712693
C169	C	1.184712	-0.310082	1.046056
C170	C	1.518045	0.023252	1.379389
C171	C	1.851379	0.356585	1.712723
C172	C	1.184699	-0.310102	0.964077
C173	C	1.518032	0.023231	1.297410
C174	C	1.851366	0.356564	1.630744
C175	C	1.134458	-0.357605	0.923073
C176	C	1.467792	-0.024272	1.256406
C177	C	1.801125	0.309062	1.589739
H178	H	0.582693	-0.444047	0.469164
H179	H	0.916027	-0.110713	0.802498
H180	H	1.249360	0.222620	1.135831
H181	H	0.835538	-0.271457	0.287301
H182	H	1.168872	0.061876	0.620634
H183	H	1.502205	0.395210	0.953968
H184	H	0.433965	-0.444050	0.469186
H185	H	0.767299	-0.110717	0.802519
H186	H	1.100632	0.222616	1.135853
H187	H	1.098937	-0.811172	0.245986
H188	H	1.432270	-0.477839	0.579319
H189	H	1.765604	-0.144505	0.912652
O190	O	1.238873	-0.258900	0.919879
O191	O	1.572207	0.074433	1.253212
O192	O	1.905540	0.407767	1.586546
H193	H	1.225449	-0.200606	0.935611
H194	H	1.558782	0.132727	1.268945
H195	H	1.892116	0.466061	1.602278
H196	H	1.043307	-0.443783	0.826540
H197	H	1.376640	-0.110450	1.159873
H198	H	1.709973	0.222884	1.493206
O199	O	1.030005	-0.456378	0.666960
O200	O	1.363339	-0.123044	1.000294
O201	O	1.696672	0.210289	1.333627
H202	H	0.990083	-0.423135	0.629618
H203	H	1.323416	-0.089802	0.962952
H204	H	1.656749	0.243532	1.296285
O205	O	1.286143	-0.803742	0.419086
O206	O	1.619476	-0.470409	0.752419
O207	O	1.952809	-0.137076	1.085752
H208	H	1.309581	-0.769931	0.370134
H209	H	1.642915	-0.436598	0.703467
H210	H	1.976248	-0.103264	1.036800
O211	O	0.846383	-0.456591	0.482384
O212	O	1.179716	-0.123258	0.815717
O213	O	1.513049	0.210076	1.149051
H214	H	0.804106	-0.489654	0.517242
H215	H	1.137439	-0.156321	0.850576
H216	H	1.470772	0.177012	1.183909
O217	O	1.245666	-0.910520	0.267065
O218	O	1.579000	-0.577187	0.600398
O219	O	1.912333	-0.243854	0.933732
H220	H	1.304875	-0.889785	0.282574
H221	H	1.638209	-0.556452	0.615907
H222	H	1.971542	-0.223119	0.949240
H223	H	0.686822	-0.444033	0.469156
H224	H	1.020155	-0.110700	0.802490
H225	H	1.353488	0.222633	1.135823
H226	H	0.433961	-0.271482	0.287347
H227	H	0.767294	0.061852	0.620681
H228	H	1.100627	0.395185	0.954014
O229	O	0.593531	-0.258916	0.274070
O230	O	0.926865	0.074417	0.607403
O231	O	1.260198	0.407751	0.940736
H232	H	0.551256	-0.225858	0.239217
H233	H	0.884589	0.107475	0.572551
H234	H	1.217922	0.440809	0.905884
O235	O	0.675969	-0.258922	0.274055
O236	O	1.009302	0.074412	0.607389
O237	O	1.342635	0.407745	0.940722
H238	H	0.638635	-0.221186	0.309248
H239	H	0.971969	0.112147	0.642582
H240	H	1.305302	0.445480	0.975915
O241	O	1.023093	-0.804012	0.489256
O242	O	1.356426	-0.470679	0.822589
O243	O	1.689759	-0.137345	1.155923
H244	H	0.963720	-0.823859	0.473091
H245	H	1.297053	-0.490526	0.806425
H246	H	1.630386	-0.157192	1.139758
O247	O	0.982608	-0.910982	0.337444
O248	O	1.315942	-0.577648	0.670777
O249	O	1.649275	-0.244315	1.004110
H250	H	0.939145	-0.891239	0.381014
H251	H	1.272478	-0.557905	0.714348
H252	H	1.605812	-0.224572	1.047681
H253	H	1.169729	-0.903667	0.510460
H254	H	1.503063	-0.570333	0.843793
H255	H	1.836396	-0.237000	1.177126
O256	O	1.238828	-0.258962	0.667033
O257	O	1.572161	0.074372	1.000366
O258	O	1.905495	0.407705	1.333699
H259	H	1.273756	-0.225924	0.709322
H260	H	1.607089	0.107410	1.042655
H261	H	1.940423	0.440743	1.375989
H262	H	1.225577	-0.271470	0.826589
H263	H	1.558910	0.061864	1.159922
H264	H	1.892243	0.395197	1.493256
H265	H	1.225619	-0.271402	1.079446
H266	H	1.558952	0.061931	1.412779
H267	H	1.892285	0.395265	1.746112
O268	O	1.030073	-0.456264	1.090226
O269	O	1.363406	-0.122931	1.423559
O270	O	1.696739	0.210403	1.756893
H271	H	0.995125	-0.489290	1.047942
H272	H	1.328458	-0.155957	1.381276
H273	H	1.661792	0.177376	1.714609
O274	O	1.030042	-0.456312	0.919811
O275	O	1.363375	-0.122978	1.253144
O276	O	1.696709	0.210355	1.586477
H277	H	0.995124	-0.489328	0.962074
H278	H	1.328457	-0.155994	1.295407
H279	H	1.661791	0.177339	1.628741
