data_functionalizedCrystal
_audit_creation_method	'MofGen! by Chris Wilmer'
_symmetry_space_group_name_H-M	'P1'
_symmetry_Int_Tables_number	1
_symmetry_cell_setting	triclinic
loop_
_symmetry_equiv_pos_as_xyz
  x,y,z
_cell_length_a	14.971486
_cell_length_b	27.732048
_cell_length_c	14.048226
_cell_angle_alpha	89.988614
_cell_angle_beta	89.998499
_cell_angle_gamma	83.128392
loop_
_atom_site_label
_atom_site_type_symbol
_atom_site_fract_x
_atom_site_fract_y
_atom_site_fract_z
O1	O	1.185952	0.062991	-0.079062
O2	O	0.925432	0.070534	-0.079089
O3	O	1.063783	-0.003597	-0.079057
O4	O	1.047601	0.137122	-0.079094
O5	O	1.063767	-0.003601	0.079265
O6	O	0.925416	0.070530	0.079232
O7	O	1.185935	0.062986	0.079259
Zn8	Zn	1.055673	0.066757	0.104383
Zn9	Zn	1.055695	0.066763	-0.104212
O10	O	1.047584	0.137117	0.079227
C11	C	0.892105	0.070195	0.000068
C12	C	0.792824	0.069184	0.000059
C13	C	0.734910	0.112734	0.000048
C14	C	0.641626	0.111781	0.000063
C15	C	0.606257	0.067278	0.000081
C16	C	0.664178	0.023724	0.000094
C17	C	0.757460	0.024678	0.000086
C18	C	0.469746	0.021740	0.000108
C19	C	0.376457	0.020787	0.000114
C20	C	0.353912	0.108844	0.000084
C21	C	0.447195	0.109797	0.000076
C22	C	0.505109	0.066243	0.000088
C23	C	1.063435	-0.021608	0.000107
C24	C	1.062412	-0.075267	0.000114
C25	C	1.137729	-0.413735	0.000073
C26	C	1.133934	-0.615412	0.000060
O27	O	1.202806	-0.646350	0.000025
N28	N	1.051898	-0.634914	0.000052
C29	C	0.970804	-0.603994	0.000042
O30	O	0.900940	-0.625209	0.000025
C31	C	0.974601	-0.402318	0.000048
C32	C	1.056642	-0.382818	0.000066
C33	C	1.219764	-0.394235	0.000090
C34	C	1.220712	-0.343819	0.000098
C35	C	1.139625	-0.312902	0.000091
C36	C	1.057590	-0.332402	0.000074
C37	C	0.893508	-0.371398	0.000031
C38	C	0.894464	-0.320976	0.000030
C39	C	0.976506	-0.301477	0.000048
C40	C	0.977451	-0.251069	0.000075
N41	N	1.059487	-0.231567	0.000083
C42	C	1.140574	-0.262483	0.000091
C43	C	0.968817	-0.709877	0.000040
C44	C	0.967868	-0.760296	0.000040
C45	C	1.130998	-0.771710	0.000056
C46	C	1.131946	-0.721291	0.000063
C47	C	1.050854	-0.690375	0.000048
C48	C	1.142559	-0.156605	0.000110
C49	C	1.143500	-0.106184	0.000122
C50	C	0.980370	-0.094773	0.000101
C51	C	0.979429	-0.145190	0.000093
C52	C	1.060530	-0.176105	0.000094
O53	O	0.908616	-0.220103	0.000099
O54	O	1.210428	-0.241258	0.000086
C55	C	1.136781	-0.464151	0.000065
C56	C	1.054746	-0.483651	0.000049
C57	C	0.973659	-0.452734	0.000041
C58	C	1.053797	-0.534070	0.000049
C59	C	1.134884	-0.564986	0.000056
C60	C	1.216921	-0.545484	0.000064
C61	C	1.217868	-0.495067	0.000072
C62	C	0.891623	-0.472237	0.000033
C63	C	0.890682	-0.522654	0.000026
C64	C	0.971769	-0.553570	0.000033
C65	C	1.219263	0.063326	0.000100
C66	C	1.318544	0.064337	0.000103
C67	C	1.047932	0.155128	0.000062
C68	C	1.048955	0.208788	0.000048
N69	N	1.055665	0.066753	0.246743
N70	N	1.055710	0.066764	-0.246573
C71	C	1.116945	0.033942	0.296576
C72	C	1.116951	0.033941	0.396234
C73	C	1.055680	0.066755	0.446057
C74	C	0.994393	0.099569	0.396217
C75	C	0.994384	0.099566	0.296562
C76	C	0.994419	0.099572	0.603932
C77	C	0.994429	0.099575	0.703594
C78	C	1.116987	0.033947	0.703604
C79	C	1.116977	0.033945	0.603948
C80	C	1.055691	0.066759	0.554115
H81	H	0.635373	-0.012511	0.000122
Cl82	Cl	0.917369	0.140824	0.541289
H83	H	0.944535	0.126295	0.744156
Cl84	Cl	0.866861	-0.671017	0.000021
Cl85	Cl	1.318857	-0.584360	0.000078
Cl86	Cl	0.787533	-0.547160	0.000009
H87	H	0.825590	-0.447069	0.000025
H88	H	1.166843	0.007223	0.256016
Cl89	Cl	1.321012	-0.470562	0.000086
Cl90	Cl	0.917361	0.140819	0.458850
Cl91	Cl	0.790363	-0.395899	0.000003
H92	H	0.516899	-0.013726	0.000119
Cl93	Cl	0.491657	0.165745	0.000043
H94	H	1.166873	0.007228	0.563382
Cl95	Cl	0.917338	0.140815	0.233916
H96	H	1.166888	0.007229	0.744183
H97	H	1.166850	0.007223	0.436807
H98	H	1.287519	-0.327947	0.000109
H99	H	0.347663	-0.015451	0.000130
H100	H	0.914351	-0.069592	0.000098
Cl101	Cl	1.321717	-0.433093	0.000101
Cl102	Cl	0.792512	-0.282113	0.000010
Cl103	Cl	0.568823	0.166532	0.000044
Cl104	Cl	0.779364	0.168684	0.000019
Cl105	Cl	0.876290	-0.169704	0.000089
Cl106	Cl	1.235088	-0.696783	0.000084
H107	H	0.306753	0.144307	0.000079
H108	H	1.210310	-0.090310	0.000139
Cl109	Cl	0.830266	-0.030073	0.000104
H110	H	1.208600	-0.181771	0.000107
H111	H	1.197022	-0.796891	0.000063
H112	H	0.901062	-0.776167	0.000042
