data_functionalizedCrystal
_audit_creation_method	'MofGen! by Chris Wilmer'
_symmetry_space_group_name_H-M	'P1'
_symmetry_Int_Tables_number	1
_symmetry_cell_setting	triclinic
loop_
_symmetry_equiv_pos_as_xyz
  x,y,z
_cell_length_a	12.837943
_cell_length_b	11.295483
_cell_length_c	16.109301
_cell_angle_alpha	94.092460
_cell_angle_beta	90.854790
_cell_angle_gamma	94.538773
loop_
_atom_site_label
_atom_site_type_symbol
_atom_site_fract_x
_atom_site_fract_y
_atom_site_fract_z
O1	O	1.382364	0.099012	-0.211085
O2	O	1.080562	0.099018	-0.200409
O3	O	1.239753	0.099003	-0.085375
O4	O	1.223173	0.099027	-0.326119
O5	O	1.225771	-0.099047	-0.095462
O6	O	1.066580	-0.099031	-0.210495
O7	O	1.368382	-0.099038	-0.221172
Cu8	Cu	1.216205	-0.117118	-0.216754
Cu9	Cu	1.232740	0.117098	-0.204826
O10	O	1.209191	-0.099022	-0.336205
C11	C	1.034952	-0.000006	-0.201845
C12	C	0.919879	-0.000004	-0.191088
C13	C	0.678876	-0.000008	-0.320405
C14	C	0.570754	-0.000007	-0.310302
C15	C	0.595509	-0.000009	-0.160780
C16	C	0.703631	-0.000010	-0.170883
C17	C	0.745311	-0.000008	-0.250698
C18	C	0.853436	-0.000000	-0.260800
C19	C	0.878188	-0.000011	-0.111279
C20	C	0.770066	-0.000010	-0.101176
N21	N	1.204582	-0.281853	-0.225144
C22	C	1.328036	-0.531155	-0.135989
C23	C	1.319260	-0.655818	-0.142336
C24	C	1.178250	-0.655844	-0.244179
C25	C	1.187026	-0.531181	-0.237833
C26	C	1.261922	-0.468841	-0.183737
C27	C	1.270703	-0.344176	-0.177395
C28	C	1.129688	-0.344204	-0.279233
C29	C	1.120912	-0.468867	-0.285580
C30	C	1.413992	-0.000011	-0.219735
C31	C	1.529066	-0.000006	-0.230492
C32	C	1.232090	-0.000023	-0.059390
C33	C	1.230077	-0.000024	0.033065
N34	N	1.244371	0.281833	-0.196430
C35	C	1.216854	0.000006	-0.362190
C36	C	1.218869	0.000015	-0.454645
C37	C	1.319857	-0.000008	0.248206
C38	C	1.317957	0.000002	0.335078
C39	C	1.129082	0.000002	0.330208
C40	C	1.130983	0.000000	0.243338
C41	C	1.226373	-0.000010	0.202339
C42	C	1.222572	0.000001	0.376081
C43	C	1.220512	0.000012	0.470271
C44	C	1.228434	-0.000019	0.108143
H45	H	0.712812	-0.000004	-0.385394
H46	H	1.054852	0.000002	0.205993
O47	O	0.949848	-0.000019	-0.036091
H48	H	0.902697	-0.000014	0.021104
O49	O	1.040146	-0.536111	-0.343934
H50	H	0.961023	-0.512215	-0.325694
H51	H	1.051418	0.000008	0.363600
O52	O	0.898398	-0.000013	-0.346882
H53	H	0.834031	-0.000030	-0.393656
H54	H	1.117264	-0.706617	-0.288217
O55	O	0.499095	-0.000001	-0.385484
H56	H	0.546247	0.000008	-0.442678
O57	O	0.725103	-0.000011	-0.015094
H58	H	0.746088	-0.080737	0.014705
O59	O	1.418790	0.000000	0.384545
H60	H	1.401448	0.000016	0.451840
H61	H	1.331690	-0.293420	-0.133350
O62	O	0.550546	-0.000030	-0.074699
H63	H	0.464201	-0.000031	-0.079389
H64	H	1.389027	-0.480397	-0.091948
H65	H	1.373096	-0.706550	-0.103454
O66	O	1.058365	-0.276998	-0.330733
H67	H	1.077042	-0.179838	-0.317230
O68	O	1.422738	0.000005	0.203982
H69	H	1.487424	0.000024	0.250476
