data_functionalizedCrystal
_audit_creation_method	'MofGen! by Chris Wilmer'
_symmetry_space_group_name_H-M	'P1'
_symmetry_Int_Tables_number	1
_symmetry_cell_setting	triclinic
loop_
_symmetry_equiv_pos_as_xyz
  x,y,z
_cell_length_a	12.759401
_cell_length_b	10.686285
_cell_length_c	10.685880
_cell_angle_alpha	89.638885
_cell_angle_beta	85.606658
_cell_angle_gamma	85.631983
loop_
_atom_site_label
_atom_site_type_symbol
_atom_site_fract_x
_atom_site_fract_y
_atom_site_fract_z
Zn1	Zn	1.684538	-0.553692	-0.670994
Zn2	Zn	1.682405	-0.747430	-0.445166
Zn3	Zn	1.494420	-0.537684	-0.461247
Zn4	Zn	1.521218	-0.763405	-0.654893
O5	O	1.595645	-0.650553	-0.558075
O6	O	1.831278	-0.579406	-0.641046
O7	O	1.645360	-0.706221	-0.271749
O8	O	1.509317	-0.364263	-0.502539
O9	O	1.829710	-0.721744	-0.475131
O10	O	1.648996	-0.376024	-0.656639
O11	O	1.507248	-0.552123	-0.283563
O12	O	1.350952	-0.567613	-0.486926
O13	O	1.554991	-0.748971	-0.832579
O14	O	1.370641	-0.733449	-0.629197
O15	O	1.674982	-0.594896	-0.844409
O16	O	1.671346	-0.925093	-0.459518
O17	O	1.552923	-0.936830	-0.613603
C18	C	1.322675	-0.650528	-0.558060
C19	C	1.205901	-0.650550	-0.558081
C20	C	1.614841	-0.976481	-0.533096
C21	C	1.623153	-1.115917	-0.522452
C22	C	1.161318	-0.737019	-0.632018
C23	C	1.051595	-0.737036	-0.632031
C24	C	1.031050	-0.564111	-0.484158
C25	C	1.140770	-0.564089	-0.484153
C26	C	1.173178	-0.836860	-0.717388
C27	C	1.063456	-0.836877	-0.717400
C28	C	1.869681	-0.650578	-0.558091
C29	C	1.986459	-0.650589	-0.558098
C30	C	1.618214	-0.675501	-0.885285
C31	C	1.627831	-0.686133	-1.024723
C32	C	1.576405	-0.323354	-0.583179
C33	C	1.568206	-0.183922	-0.593877
C34	C	1.573220	-0.625611	-0.232145
C35	C	1.563785	-0.614626	-0.092735
H36	H	0.978007	-0.493716	-0.423969
H37	H	1.501587	-0.545276	-1.044289
C38	C	1.812101	-0.750317	-1.060598
C39	C	1.711804	-0.779769	-1.090112
H40	H	1.863940	-0.808129	-1.100960
H41	H	1.823974	-0.667659	-1.088490
H42	H	1.816413	-0.755211	-0.972326
H43	H	1.707489	-0.774866	-1.178383
H44	H	1.699927	-0.862448	-1.062227
C45	C	0.977160	-1.020481	-0.766301
C46	C	1.028537	-0.965284	-0.672001
H47	H	0.955608	-1.099752	-0.738273
H48	H	0.917092	-0.967649	-0.784987
H49	H	1.023947	-1.031495	-0.839590
H50	H	0.981747	-0.954261	-0.598714
H51	H	1.088613	-1.018128	-0.653298
C52	C	1.799284	-1.151645	-0.458494
C53	C	1.695258	-1.181292	-0.428891
H54	H	1.843800	-1.191992	-0.400730
H55	H	1.821662	-1.179461	-0.541172
H56	H	1.802941	-1.063372	-0.453636
H57	H	1.691600	-1.269565	-0.433758
H58	H	1.672874	-1.153483	-0.346193
H59	H	1.208140	-0.818400	-0.816572
C60	C	1.156263	-0.486427	-0.276547
C61	C	1.189777	-0.469030	-0.402890
H62	H	1.186523	-0.427741	-0.226379
H63	H	1.081605	-0.474067	-0.265979
H64	H	1.177948	-0.569269	-0.251592
H65	H	1.168085	-0.386190	-0.427847
H66	H	1.264451	-0.481380	-0.413463
C67	C	1.200431	-1.061340	-0.730586
C68	C	1.223220	-0.957765	-0.660663
H69	H	1.231331	-1.135978	-0.695566
H70	H	1.126227	-1.065465	-0.728649
H71	H	1.228299	-1.052829	-0.814961
H72	H	1.195346	-0.966271	-0.576290
H73	H	1.297440	-0.953641	-0.662587
H74	H	1.514806	-1.135472	-0.663173
C75	C	0.953827	-0.691878	-0.831974
C76	C	1.023354	-0.799620	-0.845659
H77	H	0.929073	-0.668874	-0.911155
H78	H	0.895792	-0.708503	-0.774831
H79	H	0.989473	-0.625182	-0.800675
H80	H	0.987706	-0.866319	-0.876950
H81	H	1.081399	-0.783002	-0.902823
