data_functionalizedCrystal
_audit_creation_method	'MofGen! by Chris Wilmer'
_symmetry_space_group_name_H-M	'P1'
_symmetry_Int_Tables_number	1
_symmetry_cell_setting	triclinic
loop_
_symmetry_equiv_pos_as_xyz
  x,y,z
_cell_length_a	17.640280
_cell_length_b	18.215407
_cell_length_c	18.215399
_cell_angle_alpha	89.980167
_cell_angle_beta	78.775397
_cell_angle_gamma	78.800709
loop_
_atom_site_label
_atom_site_type_symbol
_atom_site_fract_x
_atom_site_fract_y
_atom_site_fract_z
Zn1	Zn	-0.314661	1.184366	-0.356963
Zn2	Zn	0.185339	1.684366	0.143037
Zn3	Zn	-0.446838	1.209181	-0.209048
Zn4	Zn	0.053162	1.709181	0.290952
Zn5	Zn	-0.314687	1.061303	-0.233905
Zn6	Zn	0.185313	1.561303	0.266095
Zn7	Zn	-0.446794	1.086163	-0.332082
Zn8	Zn	0.053206	1.586163	0.167918
O9	O	-0.380745	1.135253	-0.282999
O10	O	0.119255	1.635253	0.217001
O11	O	-0.332202	1.290643	-0.337352
O12	O	0.167798	1.790643	0.162648
O13	O	-0.429337	1.189546	-0.109356
O14	O	0.070663	1.689546	0.390644
O15	O	-0.204079	1.056838	-0.271045
O16	O	0.295921	1.556838	0.228955
O17	O	-0.429312	1.308875	-0.228680
O18	O	0.070688	1.808875	0.271320
O19	O	-0.204060	1.147252	-0.361454
O20	O	0.295940	1.647252	0.138546
O21	O	-0.332246	1.080901	-0.127618
O22	O	0.167754	1.580901	0.372382
O23	O	-0.332203	0.961615	-0.246918
O24	O	0.167797	1.461615	0.253082
O25	O	-0.429237	1.099208	-0.438372
O26	O	0.070763	1.599208	0.061628
O27	O	-0.429262	0.979879	-0.319048
O28	O	0.070738	1.479879	0.180952
O29	O	-0.332159	1.171357	-0.456652
O30	O	0.167841	1.671357	0.043348
O31	O	-0.557436	1.213652	-0.204553
O32	O	-0.057436	1.713652	0.295447
O33	O	-0.557404	1.123271	-0.294945
O34	O	-0.057404	1.623271	0.205055
C35	C	-0.380731	0.944044	-0.282981
C36	C	0.119269	1.444044	0.217019
C37	C	-0.380745	0.862248	-0.282987
C38	C	0.119255	1.362248	0.217013
C39	C	-0.431363	0.683598	-0.320471
C40	C	0.068637	1.183598	0.179529
C41	C	-0.431365	0.606740	-0.320479
C42	C	0.068635	1.106740	0.179521
C43	C	-0.330142	0.587662	-0.245542
C44	C	0.169858	1.087662	0.254458
C45	C	-0.330136	0.664519	-0.245538
C46	C	0.169864	1.164519	0.254462
C47	C	-0.380751	0.712485	-0.283000
C48	C	0.119249	1.212485	0.217000
C49	C	-0.380759	0.558771	-0.283013
C50	C	0.119241	1.058771	0.216987
C51	C	-0.380761	0.475438	-0.283022
C52	C	0.119239	0.975438	0.216978
C53	C	-0.380748	0.795824	-0.282993
C54	C	0.119252	1.295824	0.217007
C55	C	-0.586099	1.173871	-0.244368
C56	C	-0.086099	1.673871	0.255632
C57	C	-0.673950	1.190460	-0.227866
C58	C	-0.173950	1.690460	0.272134
C59	C	-0.962935	1.009534	-0.408631
C60	C	-0.462935	1.509534	0.091369
C61	C	-1.045484	1.025123	-0.393101
C62	C	-0.545484	1.525123	0.106899
C63	C	-1.045452	1.119295	-0.299071
C64	C	-0.545452	1.619295	0.200929
C65	C	-0.962901	1.103717	-0.314596
C66	C	-0.462901	1.603717	0.185404
C67	C	-0.921649	1.048835	-0.369375
C68	C	-0.421649	1.548835	0.130625
C69	C	-0.921615	1.143018	-0.275340
C70	C	-0.421615	1.643018	0.224660
C71	C	-0.839071	1.127438	-0.290861
C72	C	-0.339071	1.627438	0.209139
C73	C	-0.797813	1.072557	-0.345636
C74	C	-0.297813	1.572557	0.154364
C75	C	-0.839105	1.033255	-0.384896
C76	C	-0.339105	1.533255	0.115104
C77	C	-0.962869	1.197896	-0.220557
C78	C	-0.462869	1.697896	0.279443
C79	C	-0.921583	1.237196	-0.181301
C80	C	-0.421583	1.737196	0.318699
C81	C	-0.839038	1.221620	-0.196825
C82	C	-0.339038	1.721620	0.303175
C83	C	-0.797780	1.166739	-0.251601
C84	C	-0.297780	1.666739	0.248399
C85	C	-0.797746	1.260922	-0.157566
C86	C	-0.297746	1.760922	0.342434
C87	C	-0.715202	1.245342	-0.173086
C88	C	-0.215202	1.745342	0.326914
C89	C	-0.715236	1.151159	-0.267122
C90	C	-0.215236	1.651159	0.232878
C91	C	-0.174589	1.096504	-0.321798
C92	C	0.325411	1.596504	0.178202
C93	C	-0.086738	1.079991	-0.338331
C94	C	0.413262	1.579991	0.161669
C95	C	-0.380690	1.135288	-0.474963
C96	C	0.119310	1.635288	0.025037
C97	C	-0.380667	1.135302	-0.556766
C98	C	0.119333	1.635302	-0.056766
C99	C	-0.380759	1.327209	-0.283018
C100	C	0.119241	1.827209	0.216982
C101	C	-0.380765	1.409009	-0.283027
C102	C	0.119235	1.909009	0.216973
C103	C	-0.330072	1.172878	-0.754489
C104	C	0.169928	1.672878	-0.254489
C105	C	-0.330049	1.172883	-0.831352
C106	C	0.169951	1.672883	-0.331352
C107	C	-0.431141	1.097755	-0.812304
C108	C	0.068859	1.597755	-0.312304
C109	C	-0.431159	1.097747	-0.735444
C110	C	0.068841	1.597747	-0.235444
C111	C	-0.380626	1.135313	-0.706537
C112	C	0.119374	1.635313	-0.206537
C113	C	-0.380584	1.135326	-0.860261
C114	C	0.119416	1.635326	-0.360261
C115	C	-0.380560	1.135330	-0.943600
C116	C	0.119440	1.635330	-0.443600
C117	C	-0.380649	1.135307	-0.623194
C118	C	0.119351	1.635307	-0.123194
C119	C	-0.380742	1.135250	-0.091794
C120	C	0.119258	1.635250	0.408206
C121	C	-0.380543	1.135336	-0.010033
C122	C	0.119457	1.635336	0.489967
H123	H	-0.288934	0.548599	-0.215039
H124	H	0.211066	1.048599	0.284961
H125	H	-0.730600	1.059867	-0.358267
H126	H	-0.230600	1.559867	0.141733
H127	H	-0.288916	0.688037	-0.215026
H128	H	0.211084	1.188037	0.284974
H129	H	-0.472326	1.067151	-0.696400
H130	H	0.027674	1.567151	-0.196400
H131	H	-1.030082	1.210581	-0.207924
H132	H	-0.530082	1.710581	0.292076
H133	H	-0.472285	1.067172	-0.835849
H134	H	0.027715	1.567172	-0.335849
H135	H	-0.831346	1.305601	-0.112959
H136	H	-0.331346	1.805601	0.387041
H137	H	-0.955182	1.281879	-0.136698
H138	H	-0.455182	1.781879	0.363302
H139	H	-0.472575	0.722651	-0.350978
H140	H	0.027425	1.222651	0.149022
H141	H	-0.472577	0.583224	-0.350993
H142	H	0.027423	1.083224	0.149007
H143	H	-0.681646	1.106474	-0.311735
H144	H	-0.181646	1.606474	0.188265
H145	H	-0.805515	0.988570	-0.429509
H146	H	-0.305515	1.488570	0.070491
H147	H	-0.929345	0.964849	-0.453244
H148	H	-0.429345	1.464849	0.046756
H149	H	-0.681587	1.277344	-0.141120
H150	H	-0.181587	1.777344	0.358880
H151	H	-1.079096	0.993124	-0.425081
H152	H	-0.579096	1.493124	0.074919
H153	H	-1.079051	1.163978	-0.254467
H154	H	-0.579051	1.663978	0.245533
H155	H	-0.288922	1.203465	-0.730956
H156	H	0.211078	1.703465	-0.230956
H157	H	-0.288881	1.203471	-0.870391
H158	H	0.211119	1.703471	-0.370391
