data_functionalizedCrystal
_audit_creation_method	'MofGen! by Chris Wilmer'
_symmetry_space_group_name_H-M	'P1'
_symmetry_Int_Tables_number	1
_symmetry_cell_setting	triclinic
loop_
_symmetry_equiv_pos_as_xyz
  x,y,z
_cell_length_a	19.188930
_cell_length_b	17.038272
_cell_length_c	17.666332
_cell_angle_alpha	89.991265
_cell_angle_beta	90.015196
_cell_angle_gamma	92.871832
loop_
_atom_site_label
_atom_site_type_symbol
_atom_site_fract_x
_atom_site_fract_y
_atom_site_fract_z
O1	O	0.932204	-0.097596	0.063194
O2	O	1.432204	0.402404	0.563194
O3	O	0.729709	-0.110733	0.063143
O4	O	1.229709	0.389267	0.563143
O5	O	0.829753	0.009647	0.063162
O6	O	1.329753	0.509647	0.563162
O7	O	0.832160	-0.217976	0.063175
O8	O	1.332160	0.282024	0.563175
O9	O	0.829751	0.009660	-0.062735
O10	O	1.329751	0.509660	0.437265
O11	O	0.729707	-0.110720	-0.062754
O12	O	1.229707	0.389280	0.437246
O13	O	0.932202	-0.097583	-0.062703
O14	O	1.432202	0.402417	0.437297
Cu15	Cu	0.830954	-0.104151	-0.074224
Cu16	Cu	1.330954	0.395849	0.425776
Cu17	Cu	0.830957	-0.104165	0.074664
Cu18	Cu	1.330957	0.395835	0.574664
O19	O	0.832158	-0.217963	-0.062722
O20	O	1.332158	0.282037	0.437278
C21	C	0.703670	-0.110301	0.000187
C22	C	1.203670	0.389699	0.500187
C23	C	0.626087	-0.109024	0.000168
C24	C	1.126087	0.390976	0.500168
C25	C	0.827563	0.038775	0.000213
C26	C	1.327563	0.538775	0.500213
C27	C	0.821031	0.125548	0.000212
C28	C	1.321031	0.625548	0.500212
N29	N	0.830957	-0.104139	-0.178943
N30	N	1.330957	0.395861	0.321057
C31	C	0.585551	-0.179659	0.000183
C32	C	1.085551	0.320341	0.500183
C33	C	0.512653	-0.178460	0.000192
C34	C	1.012653	0.321540	0.500192
C35	C	0.480293	-0.106621	0.000199
C36	C	0.980293	0.393379	0.500199
C37	C	0.520838	-0.035976	0.000179
C38	C	1.020838	0.464024	0.500179
C39	C	0.593735	-0.037178	0.000163
C40	C	1.093735	0.462822	0.500163
N41	N	0.368902	-0.051713	0.043075
N42	N	0.868902	0.448287	0.543075
N43	N	0.299653	-0.050576	0.043091
N44	N	0.799653	0.449424	0.543091
C45	C	0.260659	-0.102995	0.000245
C46	C	0.760659	0.397005	0.500245
N47	N	0.293530	-0.156606	-0.042609
N48	N	0.793530	0.343394	0.457391
N49	N	0.362785	-0.157745	-0.042622
N50	N	0.862785	0.342255	0.457378
C51	C	0.401249	-0.105309	0.000216
C52	C	0.901249	0.394691	0.500216
C53	C	0.141078	-0.172334	0.000269
C54	C	0.641078	0.327666	0.500269
C55	C	0.068179	-0.171132	0.000273
C56	C	0.568179	0.328868	0.500273
C57	C	0.076366	-0.028646	0.000268
C58	C	0.576366	0.471354	0.500268
C59	C	0.149264	-0.029851	0.000257
C60	C	0.649264	0.470149	0.500257
C61	C	0.181616	-0.101697	0.000261
C62	C	0.681616	0.398303	0.500261
C63	C	0.958240	-0.098015	0.000254
C64	C	1.458240	0.401985	0.500254
C65	C	1.035824	-0.099292	0.000279
C66	C	1.535824	0.400708	0.500279
C67	C	0.834348	-0.247091	0.000228
C68	C	1.334348	0.252909	0.500228
C69	C	0.840880	-0.333863	0.000235
C70	C	1.340880	0.166137	0.500235
C71	C	0.880998	0.175849	0.000226
C72	C	1.380998	0.675849	0.500226
C73	C	0.874857	0.257380	0.000232
C74	C	1.374857	0.757380	0.500232
C75	C	0.808748	0.288609	0.000218
C76	C	1.308748	0.788609	0.500218
C77	C	0.748777	0.238301	0.000205
C78	C	1.248777	0.738301	0.500205
C79	C	0.754919	0.156771	0.000205
C80	C	1.254919	0.656771	0.500205
C81	C	0.787050	0.534299	0.000222
C82	C	1.287050	1.034299	0.500222
C83	C	0.780913	0.615835	0.000220
C84	C	1.280913	1.115835	0.500220
C85	C	0.906993	0.634909	0.000248
C86	C	1.406993	1.134909	0.500248
C87	C	0.913129	0.553377	0.000243
C88	C	1.413129	1.053377	0.500243
C89	C	0.853158	0.503076	0.000235
C90	C	1.353158	1.003076	0.500235
C91	C	0.802470	0.371947	0.000221
C92	C	1.302470	0.871947	0.500221
C93	C	0.859437	0.419740	0.000237
C94	C	1.359437	0.919740	0.500237
N95	N	0.830959	-0.104170	0.179383
N96	N	1.330959	0.395830	0.679383
C97	C	0.875357	-0.050953	0.781442
C98	C	1.375357	0.449047	1.281442
C99	C	0.875355	-0.050951	0.702194
C100	C	1.375355	0.449049	1.202194
C101	C	0.830960	-0.104150	0.662565
C102	C	1.330960	0.395850	1.162565
C103	C	0.786551	-0.157340	0.702189
C104	C	1.286551	0.342660	1.202189
C105	C	0.786550	-0.157335	0.781435
C106	C	1.286550	0.342665	1.281435
N107	N	0.826056	-0.173348	0.538154
N108	N	1.326056	0.326652	1.038154
N109	N	0.826062	-0.173350	0.462873
N110	N	1.326062	0.326650	0.962873
C111	C	0.830962	-0.104167	0.423801
C112	C	1.330962	0.395833	0.923801
N113	N	0.835869	-0.034980	0.462852
N114	N	1.335869	0.465020	0.962852
N115	N	0.835867	-0.034978	0.538140
N116	N	1.335867	0.465022	1.038140
C117	C	0.830957	-0.104161	0.576635
C118	C	1.330957	0.395839	1.076635
C119	C	0.875362	-0.050975	0.298256
C120	C	1.375362	0.449025	0.798256
C121	C	0.875355	-0.050972	0.219007
C122	C	1.375355	0.449028	0.719007
C123	C	0.786556	-0.157368	0.219004
C124	C	1.286556	0.342632	0.719004
C125	C	0.786559	-0.157364	0.298251
C126	C	1.286559	0.342636	0.798251
C127	C	0.830966	-0.104168	0.337873
C128	C	1.330966	0.395832	0.837873
H129	H	0.611887	-0.238162	0.000188
H130	H	1.111887	0.261838	0.500188
H131	H	0.050019	0.029847	0.000321
H132	H	0.550019	0.529847	0.500321
H133	H	0.911519	-0.007657	0.330518
H134	H	1.411519	0.492343	0.830518
H135	H	0.911509	-0.007657	0.186752
H136	H	1.411509	0.492343	0.686752
H137	H	0.694950	0.263733	0.000198
H138	H	1.194950	0.763733	0.500198
H139	H	0.966961	0.527958	0.000255
H140	H	1.466961	1.027958	0.500255
H141	H	0.035175	-0.228654	0.000281
H142	H	0.535175	0.271346	0.500281
H143	H	0.748644	0.397382	0.000208
H144	H	1.248644	0.897382	0.500208
H145	H	0.911512	-0.007639	0.669934
H146	H	1.411512	0.492361	1.169934
H147	H	0.750407	-0.200676	0.330508
H148	H	1.250407	0.299324	0.830508
H149	H	0.750403	-0.200654	0.669919
H150	H	1.250403	0.299346	1.169919
H151	H	0.750393	-0.200647	0.813690
H152	H	1.250393	0.299353	1.313690
H153	H	0.706088	0.115815	0.000193
H154	H	1.206088	0.615815	0.500193
H155	H	0.167421	-0.230836	0.000261
H156	H	0.667421	0.269164	0.500261
H157	H	0.494486	0.022516	0.000196
H158	H	0.994486	0.522516	0.500196
H159	H	0.913263	0.394310	0.000266
H160	H	1.413263	0.894310	0.500266
H161	H	0.911514	-0.007636	0.813700
H162	H	1.411514	0.492364	1.313700
H163	H	0.182269	0.027668	0.000248
H164	H	0.682269	0.527668	0.500248
H165	H	0.750406	-0.200680	0.186738
H166	H	1.250406	0.299320	0.686738
H167	H	0.955818	0.675873	0.000256
H168	H	1.455818	1.175873	0.500256
H169	H	0.934830	0.150430	0.000233
H170	H	1.434830	0.650430	0.500233
H171	H	0.479642	-0.235981	0.000202
H172	H	0.979642	0.264019	0.500202
H173	H	0.923688	0.298333	0.000242
H174	H	1.423688	0.798333	0.500242
H175	H	0.626739	0.020344	0.000151
H176	H	1.126739	0.520344	0.500151
H177	H	0.727077	0.641257	0.000196
H178	H	1.227077	1.141257	0.500196
H179	H	0.738217	0.493353	0.000215
H180	H	1.238217	0.993353	0.500215
