data_functionalizedCrystal
_audit_creation_method	'MofGen! by Chris Wilmer'
_symmetry_space_group_name_H-M	'P1'
_symmetry_Int_Tables_number	1
_symmetry_cell_setting	triclinic
loop_
_symmetry_equiv_pos_as_xyz
  x,y,z
_cell_length_a	19.077105
_cell_length_b	18.101395
_cell_length_c	19.077271
_cell_angle_alpha	87.673669
_cell_angle_beta	89.892926
_cell_angle_gamma	87.727498
loop_
_atom_site_label
_atom_site_type_symbol
_atom_site_fract_x
_atom_site_fract_y
_atom_site_fract_z
Zn1	Zn	1.058238	-0.321027	-0.440430
Zn2	Zn	1.558238	0.178973	0.059570
Zn3	Zn	1.062863	-0.450036	-0.322922
Zn4	Zn	1.562863	0.049964	0.177078
Zn5	Zn	0.945455	-0.321441	-0.318220
Zn6	Zn	1.445455	0.178559	0.181780
Zn7	Zn	0.940687	-0.440055	-0.435676
Zn8	Zn	1.440687	0.059945	0.064324
O9	O	1.001811	-0.383140	-0.379312
O10	O	1.501811	0.116860	0.120688
O11	O	1.157183	-0.342145	-0.428799
O12	O	1.657183	0.157855	0.071201
O13	O	1.051220	-0.437328	-0.223965
O14	O	1.551220	0.062672	0.276035
O15	O	0.960476	-0.217755	-0.334454
O16	O	1.460476	0.282245	0.165546
O17	O	1.160581	-0.436927	-0.342466
O18	O	1.660581	0.063073	0.157534
O19	O	1.043338	-0.217451	-0.424240
O20	O	1.543338	0.282549	0.075760
O21	O	0.964961	-0.342850	-0.220511
O22	O	1.464961	0.157150	0.279489
O23	O	0.846491	-0.333171	-0.329845
O24	O	1.346491	0.166829	0.170155
O25	O	0.952349	-0.419915	-0.534640
O26	O	1.452349	0.080085	-0.034640
O27	O	0.842988	-0.420316	-0.416139
O28	O	1.342988	0.079684	0.083861
O29	O	1.038714	-0.332466	-0.538132
O30	O	1.538714	0.167534	-0.038132
O31	O	1.046596	-0.552344	-0.337857
O32	O	1.546596	-0.052344	0.162143
O33	O	0.956834	-0.545010	-0.420697
O34	O	1.456834	-0.045010	0.079303
C35	C	0.819243	-0.375706	-0.371966
C36	C	1.319243	0.124294	0.128034
C37	C	0.741140	-0.372543	-0.368840
C38	C	1.241140	0.127457	0.131160
C39	C	1.001718	-0.575547	-0.379288
C40	C	1.501718	-0.075547	0.120712
C41	C	1.001741	-0.657862	-0.379303
C42	C	1.501741	-0.157862	0.120697
C43	C	0.702643	-0.416503	-0.412230
C44	C	1.202643	0.083497	0.087770
C45	C	0.629256	-0.413521	-0.409296
C46	C	1.129256	0.086479	0.090704
C47	C	0.594367	-0.366582	-0.362969
C48	C	1.094367	0.133418	0.137031
C49	C	0.632868	-0.322617	-0.319577
C50	C	1.132868	0.177383	0.180423
C51	C	0.706254	-0.325596	-0.322515
C52	C	1.206254	0.174404	0.177485
C53	C	0.375081	-0.352797	-0.349376
C54	C	0.875081	0.147203	0.150624
C55	C	0.301690	-0.349823	-0.346440
C56	C	0.801690	0.150177	0.153560
C57	C	0.298084	-0.440727	-0.436160
C58	C	0.798084	0.059273	0.063840
C59	C	0.371471	-0.443704	-0.439091
C60	C	0.871471	0.056296	0.060909
C61	C	0.409966	-0.399736	-0.395702
C62	C	0.909966	0.100264	0.104298
N63	N	0.519354	-0.363535	-0.359967
N64	N	1.019354	0.136465	0.140033
N65	N	0.484977	-0.402780	-0.398707
N66	N	0.984977	0.097220	0.101293
C67	C	1.001894	-0.956957	-0.379347
C68	C	1.501894	-0.456957	0.120653
C69	C	0.945538	-0.921048	-0.431608
C70	C	1.445538	-0.421048	0.068392
C71	C	0.945288	-0.835427	-0.431427
C72	C	1.445288	-0.335427	0.068573
C73	C	1.001818	-0.808573	-0.379326
C74	C	1.501818	-0.308573	0.120674
C75	C	0.984747	-0.842164	-0.304464
C76	C	1.484747	-0.342164	0.195536
C77	C	0.984384	-0.927781	-0.304776
C78	C	1.484384	-0.427781	0.195224
C79	C	1.075466	-0.927488	-0.401301
C80	C	1.575466	-0.427488	0.098699
C81	C	1.074963	-0.841748	-0.402908
C82	C	1.574963	-0.341748	0.097092
C83	C	1.001777	-0.724712	-0.379309
C84	C	1.501777	-0.224712	0.120691
C85	C	1.001934	-1.040818	-0.379359
C86	C	1.501934	-0.540818	0.120641
C87	C	1.185091	-0.390603	-0.386687
C88	C	1.685091	0.109397	0.113313
C89	C	1.263194	-0.393784	-0.389829
C90	C	1.763194	0.106216	0.110171
C91	C	0.994484	-0.375031	-0.562596
C92	C	1.494484	0.124969	-0.062596
C93	C	0.991361	-0.371575	-0.640700
C94	C	1.491361	0.128425	-0.140700
C95	C	1.001923	-0.189981	-0.379353
C96	C	1.501923	0.310019	0.120647
C97	C	1.001971	-0.107668	-0.379370
C98	C	1.501971	0.392332	0.120630
C99	C	0.968967	-0.346850	-1.080154
C100	C	1.468967	0.153150	-0.580154
C101	C	0.971904	-0.350094	-1.006767
C102	C	1.471904	0.149906	-0.506767
C103	C	1.018280	-0.400910	-0.971870
C104	C	1.518280	0.099090	-0.471870
C105	C	1.061725	-0.448480	-1.010365
C106	C	1.561725	0.051520	-0.510365
C107	C	1.058791	-0.445231	-1.083752
C108	C	1.558791	0.054769	-0.583752
C109	C	1.031873	-0.415897	-0.752582
C110	C	1.531873	0.084103	-0.252582
C111	C	1.034803	-0.419143	-0.679190
C112	C	1.534803	0.080857	-0.179190
C113	C	0.944982	-0.320756	-0.675597
C114	C	1.444982	0.179244	-0.175597
C115	C	0.942049	-0.317515	-0.748984
C116	C	1.442049	0.182485	-0.248984
C117	C	0.985498	-0.365082	-0.787473
C118	C	1.485498	0.134918	-0.287473
N119	N	1.021281	-0.404229	-0.896857
N120	N	1.521281	0.095771	-0.396857
N121	N	0.982499	-0.361759	-0.862486
N122	N	1.482499	0.138241	-0.362486
C123	C	1.009150	-0.391165	-0.196743
C124	C	1.509150	0.108835	0.303257
C125	C	1.012408	-0.394418	-0.118644
C126	C	1.512408	0.105582	0.381356
H127	H	0.597916	-0.449319	-0.444628
H128	H	1.097916	0.050681	0.055372
H129	H	1.067250	-0.454631	-0.783911
H130	H	1.567250	0.045369	-0.283911
C131	C	0.959233	-0.804375	-0.506287
C132	C	1.459233	-0.304375	-0.006287
C133	C	0.904408	-0.751736	-0.543373
C134	C	1.404408	-0.251736	-0.043373
C135	C	0.918344	-0.720679	-0.618234
C136	C	1.418344	-0.220679	-0.118234
C137	C	0.987105	-0.742260	-0.656010
C138	C	1.487105	-0.242260	-0.156010
C139	C	1.041935	-0.794902	-0.618924
C140	C	1.541935	-0.294902	-0.118924
C141	C	1.027999	-0.825959	-0.544062
C142	C	1.527999	-0.325959	-0.044062
H143	H	0.853502	-0.735757	-0.515409
H144	H	1.353502	-0.235757	-0.015409
H145	H	0.877755	-0.681710	-0.645687
H146	H	1.377755	-0.181710	-0.145687
H147	H	0.997422	-0.719270	-0.711427
H148	H	1.497422	-0.219270	-0.211427
H149	H	1.092841	-0.810881	-0.646888
H150	H	1.592841	-0.310881	-0.146888
H151	H	1.068588	-0.864928	-0.516609
H152	H	1.568588	-0.364928	-0.016609
C153	C	0.891036	-0.261613	-0.787364
C154	C	1.391036	0.238387	-0.287364
C155	C	0.833828	-0.289217	-0.835586
C156	C	1.333828	0.210783	-0.335586
C157	C	0.782812	-0.233315	-0.873964
C158	C	1.282812	0.266685	-0.373964
C159	C	0.789004	-0.149809	-0.864120
C160	C	1.289004	0.350191	-0.364120
C161	C	0.846214	-0.122200	-0.815895
C162	C	1.346214	0.377800	-0.315895
C163	C	0.897231	-0.178102	-0.777518
C164	C	1.397231	0.321898	-0.277518
H165	H	0.829242	-0.351037	-0.842875
H166	H	1.329242	0.148963	-0.342875
H167	H	0.740460	-0.253754	-0.909663
H168	H	1.240460	0.246246	-0.409663
H169	H	0.751238	-0.108427	-0.892529
H170	H	1.251238	0.391573	-0.392529
H171	H	0.850800	-0.060380	-0.808606
H172	H	1.350800	0.439620	-0.308606
H173	H	0.939582	-0.157664	-0.741819
H174	H	1.439582	0.342336	-0.241819
H175	H	1.024633	-0.825179	-0.264334
H176	H	1.524633	-0.325179	0.235666
H177	H	0.931642	-0.819313	-0.285948
H178	H	1.431642	-0.319313	0.214052
H179	H	0.399873	-0.481929	-0.476814
H180	H	0.899873	0.018071	0.023186
H181	H	1.099488	-0.489852	-0.981947
H182	H	1.599488	0.010148	-0.481947
H183	H	1.091610	-0.947446	-0.455117
H184	H	1.591610	-0.447446	0.044883
H185	H	1.087891	-0.819604	-0.458017
H186	H	1.587891	-0.319604	0.041983
H187	H	0.930692	-0.946322	-0.286525
H188	H	1.430692	-0.446322	0.213475
H189	H	1.118933	-0.823679	-0.367855
H190	H	1.618933	-0.323679	0.132145
H191	H	1.117416	-0.951121	-0.363274
H192	H	1.617416	-0.451121	0.136726
H193	H	0.931202	-0.305472	-1.108561
H194	H	1.431202	0.194528	-0.608561
H195	H	0.891274	-0.940954	-0.417002
H196	H	1.391274	-0.440954	0.082998
C197	C	0.897196	-0.268431	-0.633258
C198	C	1.397196	0.231569	-0.133258
C199	C	0.900419	-0.271997	-0.552536
C200	C	1.400419	0.228003	-0.052536
C201	C	0.852632	-0.219667	-0.510198
C202	C	1.352632	0.280333	-0.010198
C203	C	0.801621	-0.163771	-0.548583
C204	C	1.301621	0.336229	-0.048583
C205	C	0.798396	-0.160202	-0.629309
C206	C	1.298396	0.339798	-0.129309
C207	C	0.846183	-0.212532	-0.671647
C208	C	1.346183	0.287468	-0.171647
H209	H	0.938182	-0.313377	-0.524118
H210	H	1.438182	0.186623	-0.024118
H211	H	0.855020	-0.222309	-0.450439
H212	H	1.355020	0.277691	0.049561
H213	H	0.766246	-0.125033	-0.517242
H214	H	1.266246	0.374967	-0.017242
H215	H	0.760633	-0.118822	-0.657728
H216	H	1.260633	0.381178	-0.157728
H217	H	0.843795	-0.209890	-0.731407
H218	H	1.343795	0.290110	-0.231407
H219	H	1.094167	-0.483965	-1.115089
H220	H	1.594167	0.016035	-0.615089
C221	C	0.255738	-0.489082	-0.483892
C222	C	0.755738	0.010918	0.016108
C223	C	0.175017	-0.485808	-0.480668
C224	C	0.675017	0.014192	0.019332
C225	C	0.132672	-0.534164	-0.528404
C226	C	0.632672	-0.034164	-0.028404
C227	C	0.171048	-0.585793	-0.579365
C228	C	0.671048	-0.085793	-0.079365
C229	C	0.251774	-0.589069	-0.582591
C230	C	0.751774	-0.089069	-0.082591
C231	C	0.294119	-0.540714	-0.534854
C232	C	0.794119	-0.040714	-0.034854
H233	H	0.146604	-0.447588	-0.442942
H234	H	0.646604	0.052412	0.057058
H235	H	0.072913	-0.531738	-0.526016
H236	H	0.572913	-0.031738	-0.026016
H237	H	0.139702	-0.621588	-0.614703
H238	H	0.639702	-0.121588	-0.114703
H239	H	0.280187	-0.627290	-0.620317
H240	H	0.780187	-0.127290	-0.120317
H241	H	0.353878	-0.543139	-0.537243
H242	H	0.853878	-0.043139	-0.037243
C243	C	0.741019	-0.468137	-0.463192
C244	C	1.241019	0.031863	0.036808
C245	C	0.731121	-0.552165	-0.456915
C246	C	1.231121	-0.052165	0.043085
C247	C	0.769494	-0.603799	-0.507880
C248	C	1.269494	-0.103799	-0.007880
C249	C	0.817765	-0.571405	-0.565121
C250	C	1.317765	-0.071405	-0.065121
C251	C	0.827664	-0.487373	-0.571400
C252	C	1.327664	0.012627	-0.071400
C253	C	0.789291	-0.435739	-0.520435
C254	C	1.289291	0.064261	-0.020435
H255	H	0.695387	-0.576149	-0.414539
H256	H	1.195387	-0.076149	0.085461
H257	H	0.762166	-0.666005	-0.503231
H258	H	1.262166	-0.166005	-0.003231
H259	H	0.846171	-0.609627	-0.602848
H260	H	1.346171	-0.109627	-0.102848
H261	H	0.863399	-0.463389	-0.613776
H262	H	1.363399	0.036611	-0.113776
H263	H	0.796620	-0.373533	-0.525084
H264	H	1.296620	0.126467	-0.025084
C265	C	0.263310	-0.298170	-0.295492
C266	C	0.763310	0.201830	0.204508
C267	C	0.305650	-0.249795	-0.247776
C268	C	0.805650	0.250205	0.252224
C269	C	0.267268	-0.198141	-0.196835
C270	C	0.767268	0.301859	0.303165
C271	C	0.186547	-0.194861	-0.193611
C272	C	0.686547	0.305139	0.306389
C273	C	0.144202	-0.243238	-0.241329
C274	C	0.644202	0.256762	0.258671
C275	C	0.182584	-0.294893	-0.292269
C276	C	0.682584	0.205107	0.207731
H277	H	0.365409	-0.252221	-0.250161
H278	H	0.865409	0.247779	0.249839
H279	H	0.298615	-0.162329	-0.161511
H280	H	0.798615	0.337671	0.338489
H281	H	0.158135	-0.156623	-0.155902
H282	H	0.658135	0.343377	0.344098
H283	H	0.084443	-0.240812	-0.238944
H284	H	0.584443	0.259188	0.261056
H285	H	0.151237	-0.330705	-0.327593
H286	H	0.651237	0.169295	0.172407
H287	H	0.406415	-0.317001	-0.314040
H288	H	0.906415	0.182999	0.185960
H289	H	0.604455	-0.284395	-0.281860
H290	H	1.104455	0.215605	0.218140
H291	H	0.737596	-0.289794	-0.287186
H292	H	1.237596	0.210206	0.212814
H293	H	0.955742	-0.939679	-0.487197
H294	H	1.455742	-0.439679	0.012803
H295	H	0.890694	-0.813317	-0.416650
H296	H	1.390694	-0.313317	0.083350
H297	H	1.023812	-0.951876	-0.264349
H298	H	1.523812	-0.451876	0.235651
H299	H	0.936529	-0.311361	-0.975431
H300	H	1.436529	0.188639	-0.475431
H301	H	1.072583	-0.460511	-0.650780
H302	H	1.572583	0.039489	-0.150780
