data_functionalizedCrystal
_audit_creation_method	'MofGen! by Chris Wilmer'
_symmetry_space_group_name_H-M	'P1'
_symmetry_Int_Tables_number	1
_symmetry_cell_setting	triclinic
loop_
_symmetry_equiv_pos_as_xyz
  x,y,z
_cell_length_a	15.944551
_cell_length_b	11.792241
_cell_length_c	10.268362
_cell_angle_alpha	90.005428
_cell_angle_beta	90.000094
_cell_angle_gamma	83.846077
loop_
_atom_site_label
_atom_site_type_symbol
_atom_site_fract_x
_atom_site_fract_y
_atom_site_fract_z
O1	O	-1.115185	-0.146381	-0.108165
O2	O	-0.870717	-0.164428	-0.108197
O3	O	-0.998883	0.009815	-0.108171
O4	O	-0.987018	-0.320624	-0.108191
O5	O	-0.998872	0.009822	0.108429
O6	O	-0.870705	-0.164421	0.108403
O7	O	-1.115173	-0.146373	0.108436
Cu8	Cu	-0.992938	-0.155396	0.128197
Cu9	Cu	-0.992952	-0.155405	-0.127958
O10	O	-0.987007	-0.320616	0.108410
C11	C	-0.839414	-0.163675	0.000099
C12	C	-0.746157	-0.161429	0.000087
C13	C	-0.998132	0.052104	0.000129
C14	C	-0.995901	0.178099	0.000127
C15	C	-1.146476	-0.147126	0.000137
C16	C	-1.239733	-0.149372	0.000140
C17	C	-0.530789	-0.048056	0.000119
C18	C	-0.470012	-0.100706	-0.106680
C19	C	-0.575413	-0.157365	0.000102
C20	C	-0.470023	-0.100725	0.106871
C21	C	-0.410483	-0.153432	0.000123
C22	C	-0.515865	-0.210045	-0.106785
C23	C	-0.515882	-0.210049	0.106863
C24	C	-0.455123	-0.262778	0.000038
C25	C	-0.670426	-0.159628	0.000089
C26	C	-0.315471	-0.151178	0.000127
C27	C	-0.987758	-0.362905	0.000107
C28	C	-0.989989	-0.488900	0.000100
N29	N	-0.992935	-0.155390	0.308363
C30	C	-0.991799	0.408777	0.000105
C31	C	-0.994079	0.280411	0.000117
N32	N	-0.992961	-0.155402	-0.308124
C33	C	-0.992947	-0.155403	0.574033
C34	C	-0.992938	-0.155399	0.426195
H35	H	-0.449698	-0.054476	-0.196965
C36	C	-0.542688	-0.271515	-0.227475
C37	C	-0.518891	-0.214473	-0.338899
C38	C	-0.543579	-0.271068	-0.450101
H39	H	-0.602174	-0.272558	-0.226949
H40	H	-0.516075	-0.347558	-0.227861
H41	H	-0.545507	-0.138449	-0.338513
H42	H	-0.459409	-0.213427	-0.339468
H43	H	-0.516967	-0.347112	-0.450486
H44	H	-0.603065	-0.272109	-0.449561
H45	H	-0.527430	-0.232380	-0.525714
H46	H	-0.422374	-0.353590	-0.000027
H47	H	-0.449724	-0.054468	0.197158
C48	C	-0.543172	-0.271655	0.227134
C49	C	-0.630783	-0.273845	0.224856
C50	C	-0.655954	-0.330590	0.335630
H51	H	-0.527734	-0.232792	0.303042
H52	H	-0.516262	-0.347540	0.227898
H53	H	-0.657683	-0.197974	0.224104
H54	H	-0.646243	-0.312716	0.148972
H55	H	-0.629045	-0.406475	0.336394
H56	H	-0.640511	-0.291721	0.411530
H57	H	-0.715399	-0.332093	0.334093
H58	H	-0.563713	0.042662	-0.000008
