data_functionalizedCrystal
_audit_creation_method	'MofGen! by Chris Wilmer'
_symmetry_space_group_name_H-M	'P1'
_symmetry_Int_Tables_number	1
_symmetry_cell_setting	triclinic
loop_
_symmetry_equiv_pos_as_xyz
  x,y,z
_cell_length_a	42.784839
_cell_length_b	42.784841
_cell_length_c	42.784893
_cell_angle_alpha	90.002418
_cell_angle_beta	59.997780
_cell_angle_gamma	119.999863
loop_
_atom_site_label
_atom_site_type_symbol
_atom_site_fract_x
_atom_site_fract_y
_atom_site_fract_z
O1	O	0.275695	-0.214412	-0.009300
O2	O	0.211692	-0.168961	0.009253
O3	O	0.275692	-0.168961	-0.054750
O4	O	0.211694	-0.214412	0.054702
O5	O	0.223708	-0.220945	-0.054749
O6	O	0.159708	-0.220945	0.009253
O7	O	0.223710	-0.266397	-0.009300
Cu8	Cu	0.186962	-0.248417	-0.000023
Cu9	Cu	0.248440	-0.186940	-0.000024
O10	O	0.159710	-0.266396	0.054703
C11	C	0.051021	-0.022778	0.028112
C12	C	0.013142	-0.041761	0.028375
C13	C	0.051018	-0.079378	0.028116
C14	C	0.013139	-0.098275	0.028379
C15	C	-0.005578	-0.079377	0.028112
C16	C	0.069652	-0.041762	0.028379
C17	C	0.152948	0.113708	0.017863
C18	C	0.173786	0.152360	0.014965
C19	C	0.155902	0.171750	0.013509
C20	C	0.178499	0.213661	0.010359
C21	C	0.117177	0.152485	0.014953
C22	C	0.096339	0.113835	0.017857
C23	C	0.114226	0.094447	0.019312
C24	C	-0.131813	-0.113936	0.017859
C25	C	-0.167567	-0.131750	0.014961
C26	C	-0.185502	-0.169024	0.013506
C27	C	-0.224264	-0.188340	0.010358
C28	C	-0.167685	-0.188485	0.014954
C29	C	-0.131938	-0.170675	0.017859
C30	C	-0.114002	-0.133396	0.019309
C31	C	0.152939	-0.113943	0.017877
C32	C	0.173778	-0.131757	0.014977
C33	C	0.155892	-0.169032	0.013523
C34	C	0.178486	-0.188349	0.010377
C35	C	0.117170	-0.188491	0.014967
C36	C	0.096334	-0.170675	0.017865
C37	C	0.114220	-0.133401	0.019323
C38	C	0.091629	0.052537	0.022456
C39	C	0.073617	0.019131	0.024964
C40	C	0.073613	-0.098693	0.024971
C41	C	0.091623	-0.114089	0.022466
C42	C	-0.044339	-0.098690	0.024964
C43	C	-0.075237	-0.114084	0.022456
O44	O	-0.327856	-0.266388	-0.009322
O45	O	-0.236954	-0.220935	0.009228
O46	O	-0.236950	-0.220939	-0.054773
O47	O	-0.327860	-0.266385	0.054680
O48	O	-0.236948	-0.168954	-0.054776
O49	O	-0.236952	-0.168950	0.009225
O50	O	-0.327854	-0.214403	-0.009325
Cu51	Cu	-0.282403	-0.186930	-0.000050
Cu52	Cu	-0.282405	-0.248408	-0.000046
O53	O	-0.327858	-0.214400	0.054676
C54	C	0.384390	-0.079141	-0.361606
C55	C	0.422270	-0.041526	-0.380503
C56	C	0.384390	-0.079141	-0.305008
C57	C	0.422270	-0.041526	-0.323990
C58	C	0.440988	-0.022543	-0.361606
C59	C	0.365758	-0.098038	-0.323991
C60	C	0.282465	-0.170819	-0.396168
C61	C	0.261627	-0.188759	-0.413983
C62	C	0.279513	-0.169420	-0.451257
C63	C	0.256917	-0.188867	-0.470572
C64	C	0.318239	-0.132140	-0.470717
C65	C	0.339076	-0.114205	-0.452905
C66	C	0.321187	-0.133546	-0.415628
C67	C	0.567227	0.113942	-0.453282
C68	C	0.602981	0.152594	-0.471222
C69	C	0.620916	0.171985	-0.451883
C70	C	0.659678	0.213894	-0.471328
C71	C	0.603097	0.152719	-0.414603
C72	C	0.567349	0.114068	-0.396667
C73	C	0.549414	0.094682	-0.416011
C74	C	0.282465	-0.170819	-0.168522
C75	C	0.261624	-0.188757	-0.129868
C76	C	0.279510	-0.169418	-0.110479
C77	C	0.256914	-0.188865	-0.068568
C78	C	0.318233	-0.132140	-0.129742
C79	C	0.339070	-0.114203	-0.168394
C80	C	0.321184	-0.133548	-0.187782
C81	C	0.343783	-0.114094	-0.396315
C82	C	0.361794	-0.098590	-0.380920
C83	C	0.361794	-0.098590	-0.263099
C84	C	0.343783	-0.114094	-0.229693
C85	C	0.479750	0.019366	-0.381054
C86	C	0.510649	0.052771	-0.396557
C87	C	0.440758	-0.356212	-0.028193
C88	C	0.422041	-0.393827	-0.028459
C89	C	0.384158	-0.356213	-0.028190
C90	C	0.365526	-0.393828	-0.028456
C91	C	0.384160	-0.412810	-0.028193
C92	C	0.422038	-0.337315	-0.028456
C93	C	0.567000	-0.264532	-0.017949
C94	C	0.602755	-0.246591	-0.015053
C95	C	0.620692	-0.265931	-0.013601
C96	C	0.659455	-0.246483	-0.010453
C97	C	0.602873	-0.303210	-0.015048
C98	C	0.567125	-0.321146	-0.017949
C99	C	0.549188	-0.301805	-0.019399
C100	C	0.339356	-0.549295	-0.017951
C101	C	0.318645	-0.587947	-0.015055
C102	C	0.279915	-0.607338	-0.013597
C103	C	0.257452	-0.649247	-0.010452
C104	C	0.261899	-0.588073	-0.015042
C105	C	0.282613	-0.549422	-0.017945
C106	C	0.321343	-0.530035	-0.019397
C107	C	0.339344	-0.264537	-0.017936
C108	C	0.318628	-0.246599	-0.015032
C109	C	0.279898	-0.265939	-0.013577
C110	C	0.257433	-0.246493	-0.010426
C111	C	0.261884	-0.303217	-0.015022
C112	C	0.282601	-0.321153	-0.017924
C113	C	0.321334	-0.301808	-0.019385
C114	C	0.510421	-0.321258	-0.022542
C115	C	0.479522	-0.336762	-0.025048
C116	C	0.361696	-0.336765	-0.025041
C117	C	0.343793	-0.321261	-0.022532
C118	C	0.361701	-0.454719	-0.025047
C119	C	0.343799	-0.488125	-0.022541
O120	O	0.223728	0.336934	-0.009323
O121	O	0.159726	0.227482	0.009227
O122	O	0.223729	0.291478	-0.054775
O123	O	0.159725	0.272938	0.054678
O124	O	0.275711	0.291477	-0.054771
O125	O	0.211707	0.227481	0.009230
O126	O	0.275710	0.336932	-0.009320
Cu127	Cu	0.248455	0.282206	-0.000045
Cu128	Cu	0.186981	0.282208	-0.000049
O129	O	0.211707	0.272936	0.054681
O130	O	0.763271	0.337164	-0.496871
O131	O	0.672367	0.227713	-0.451422
O132	O	0.672365	0.291711	-0.451418
O133	O	0.763273	0.273165	-0.496876
O134	O	0.672366	0.291712	-0.503402
O135	O	0.672368	0.227714	-0.503407
O136	O	0.763272	0.337165	-0.548856
Cu137	Cu	0.717820	0.282440	-0.530878
Cu138	Cu	0.717819	0.282438	-0.469400
O139	O	0.763275	0.273167	-0.548860
O140	O	0.211690	-0.214417	-0.548617
O141	O	0.275691	-0.168962	-0.503167
O142	O	0.211689	-0.168964	-0.503163
O143	O	0.275692	-0.214415	-0.548621
O144	O	0.159706	-0.220947	-0.451179
O145	O	0.223708	-0.220945	-0.451183
O146	O	0.159707	-0.266400	-0.496633
Cu147	Cu	0.186961	-0.248419	-0.469161
Cu148	Cu	0.248437	-0.186943	-0.530639
O149	O	0.223709	-0.266398	-0.496637
C150	C	-0.005343	-0.412572	0.361558
C151	C	0.013375	-0.393590	0.380456
C152	C	0.051255	-0.355974	0.304961
C153	C	0.069887	-0.337077	0.323944
C154	C	0.051254	-0.355974	0.361560
C155	C	0.013375	-0.393589	0.323943
C156	C	-0.131582	-0.549057	0.396116
C157	C	-0.167336	-0.587709	0.413930
C158	C	-0.185271	-0.607098	0.451205
C159	C	-0.224034	-0.649009	0.470519
C160	C	-0.167452	-0.587833	0.470666
C161	C	-0.131705	-0.549184	0.452854
C162	C	-0.113770	-0.529796	0.415578
C163	C	0.096061	-0.321414	0.453239
C164	C	0.116773	-0.303600	0.471179
C165	C	0.155502	-0.266327	0.451842
C166	C	0.177965	-0.247011	0.471288
C167	C	0.173517	-0.246866	0.414562
C168	C	0.152802	-0.264677	0.396625
C169	C	0.114073	-0.301955	0.415968
C170	C	0.096064	-0.321412	0.168474
C171	C	0.116779	-0.303599	0.129820
C172	C	0.155508	-0.266324	0.110432
C173	C	0.177972	-0.247009	0.068521
C174	C	0.173522	-0.246865	0.129696
C175	C	0.152807	-0.264680	0.168348
C176	C	0.114075	-0.301953	0.187735
C177	C	-0.075004	-0.487887	0.396265
C178	C	-0.044106	-0.454481	0.380871
C179	C	0.073715	-0.336660	0.263052
C180	C	0.091618	-0.321265	0.229646
C181	C	0.073714	-0.336661	0.381009
C182	C	0.091616	-0.321267	0.396513
C183	C	0.051046	-0.022794	-0.361634
C184	C	0.069679	-0.041778	-0.380530
C185	C	-0.005555	-0.079390	-0.305034
C186	C	0.013163	-0.098288	-0.324016
C187	C	0.051045	-0.079393	-0.361631
C188	C	0.013164	-0.041775	-0.324018
C189	C	0.095858	0.113693	-0.396200
C190	C	0.116571	0.152344	-0.414015
C191	C	0.155302	0.171732	-0.451290
C192	C	0.177767	0.213642	-0.470607
C193	C	0.173317	0.152465	-0.470750
C194	C	0.152600	0.113815	-0.452936
C195	C	0.113869	0.094429	-0.415659
C196	C	0.152973	-0.113959	-0.453306
C197	C	0.173810	-0.131775	-0.471245
C198	C	0.155926	-0.169048	-0.451906
C199	C	0.178519	-0.188366	-0.471350
C200	C	0.117198	-0.188507	-0.414626
C201	C	0.096358	-0.170694	-0.396690
C202	C	0.114251	-0.133416	-0.416035
C203	C	-0.131801	-0.113944	-0.168548
C204	C	-0.167554	-0.131755	-0.129895
C205	C	-0.185491	-0.169029	-0.110504
C206	C	-0.224255	-0.188343	-0.068593
C207	C	-0.167671	-0.188490	-0.129767
C208	C	-0.131918	-0.170677	-0.168418
C209	C	-0.113988	-0.133404	-0.187808
C210	C	0.091411	0.052521	-0.396344
C211	C	0.073508	0.019115	-0.380949
C212	C	-0.044320	-0.098701	-0.263125
C213	C	-0.075220	-0.114094	-0.229719
C214	C	0.073641	-0.098707	-0.381079
C215	C	0.091652	-0.114103	-0.396582
C216	C	-0.615853	-0.356193	0.361535
C217	C	-0.634487	-0.393808	0.380433
C218	C	-0.559253	-0.356195	0.304938
C219	C	-0.577972	-0.393810	0.323921
C220	C	-0.615854	-0.412792	0.361537
C221	C	-0.577972	-0.337297	0.323920
C222	C	-0.660661	-0.264512	0.396093
C223	C	-0.681373	-0.246571	0.413906
C224	C	-0.720104	-0.265909	0.451181
C225	C	-0.742568	-0.246461	0.470495
C226	C	-0.738120	-0.303189	0.470643
C227	C	-0.717405	-0.321125	0.452831
C228	C	-0.678674	-0.301785	0.415554
C229	C	-0.717784	-0.549275	0.453218
C230	C	-0.738622	-0.587926	0.471159
C231	C	-0.720740	-0.607319	0.451822
C232	C	-0.743333	-0.649227	0.471268
C233	C	-0.682012	-0.588055	0.414542
C234	C	-0.661170	-0.549403	0.396604
C235	C	-0.679063	-0.530016	0.415946
C236	C	-0.433006	-0.264522	0.168449
C237	C	-0.397253	-0.246585	0.129796
C238	C	-0.379317	-0.265926	0.110407
C239	C	-0.340553	-0.246480	0.068496
C240	C	-0.397138	-0.303204	0.129672
C241	C	-0.432891	-0.321139	0.168324
C242	C	-0.450820	-0.301793	0.187711
C243	C	-0.656216	-0.321238	0.396242
C244	C	-0.638314	-0.336743	0.380848
C245	C	-0.520488	-0.336748	0.263028
C246	C	-0.489588	-0.321245	0.229622
C247	C	-0.638451	-0.454700	0.380987
C248	C	-0.656463	-0.488106	0.396492
C249	C	0.440756	0.310302	-0.361620
C250	C	0.422038	0.310564	-0.380518
C251	C	0.384160	0.310312	-0.305026
C252	C	0.365528	0.310574	-0.324010
C253	C	0.384159	0.310303	-0.361624
C254	C	0.422038	0.310573	-0.324006
C255	C	0.566989	0.300046	-0.396172
C256	C	0.602741	0.297145	-0.413984
C257	C	0.620675	0.295684	-0.451257
C258	C	0.659436	0.292531	-0.470569
C259	C	0.602857	0.297127	-0.470719
C260	C	0.567111	0.300033	-0.452909
C261	C	0.549177	0.301493	-0.415634
C262	C	0.339351	0.300042	-0.453303
C263	C	0.318640	0.297142	-0.471244
C264	C	0.279912	0.295690	-0.451908
C265	C	0.257449	0.292541	-0.471354
C266	C	0.261899	0.297143	-0.414629
C267	C	0.282613	0.300049	-0.396692
C268	C	0.321341	0.301496	-0.416033
C269	C	0.339354	0.300088	-0.168540
C270	C	0.318640	0.297192	-0.129888
C271	C	0.279912	0.295742	-0.110501
C272	C	0.257450	0.292601	-0.068591
C273	C	0.261898	0.297184	-0.129766
C274	C	0.282612	0.300078	-0.168417
C275	C	0.321344	0.301533	-0.187802
C276	C	0.510413	0.304640	-0.396323
C277	C	0.479516	0.307151	-0.380931
C278	C	0.361701	0.307173	-0.263117
C279	C	0.343799	0.304671	-0.229712
C280	C	0.361700	0.307154	-0.381073
C281	C	0.343798	0.304644	-0.396578
O282	O	0.275503	0.336913	-0.548651
O283	O	0.211494	0.227461	-0.503201
O284	O	0.275490	0.291455	-0.503192
O285	O	0.211507	0.272919	-0.548659
O286	O	0.223502	0.291457	-0.451211
O287	O	0.159506	0.227463	-0.451219
O288	O	0.223515	0.336915	-0.496669
Cu289	Cu	0.186764	0.282189	-0.469197
Cu290	Cu	0.248246	0.282187	-0.530672
O291	O	0.159519	0.272921	-0.496677
C292	C	0.051032	0.254111	0.361530
C293	C	0.013154	0.253851	0.380425
C294	C	0.051031	0.254102	0.304932
C295	C	0.013153	0.253842	0.323913
C296	C	-0.005564	0.254113	0.361527
C297	C	0.069663	0.253840	0.323916
C298	C	0.152954	0.264360	0.396096
C299	C	0.173791	0.267260	0.413911
C300	C	0.155906	0.268721	0.451185
C301	C	0.178502	0.271871	0.470501
C302	C	0.117182	0.267279	0.470643
C303	C	0.096345	0.264374	0.452830
C304	C	0.114233	0.262915	0.415555
C305	C	-0.131796	0.264379	0.453195
C306	C	-0.167548	0.267281	0.471133
C307	C	-0.185483	0.268734	0.451793
C308	C	-0.224243	0.271886	0.471236
C309	C	-0.167664	0.267282	0.414515
C310	C	-0.131919	0.264374	0.396581
C311	C	-0.113984	0.262925	0.415925
C312	C	0.152952	0.264325	0.168451
C313	C	0.173792	0.267221	0.129798
C314	C	0.155907	0.268673	0.110407
C315	C	0.178502	0.271814	0.068498
C316	C	0.117186	0.267232	0.129669
C317	C	0.096350	0.264339	0.168320
C318	C	0.114234	0.262881	0.187709
C319	C	0.091638	0.259769	0.396240
C320	C	0.073627	0.257260	0.380845
C321	C	0.073626	0.257242	0.263024
C322	C	0.091636	0.259743	0.229619
C323	C	-0.044324	0.257264	0.380973
C324	C	-0.075221	0.259775	0.396474
H325	H	0.102618	0.168275	0.013770
H326	H	-0.182060	-0.603623	0.501016
H327	H	0.333308	0.295959	-0.501595
H328	H	0.552391	0.301235	-0.365822
C329	C	0.097496	-0.229494	0.013364
N330	N	0.082678	-0.260376	0.012156
C331	C	0.443205	0.311138	-0.422272
N332	N	0.459148	0.311571	-0.453720
C333	C	0.053760	-0.192100	-0.355685
N334	N	0.021675	-0.208222	-0.324799
C335	C	-0.186930	-0.608898	0.392520
N336	N	-0.201687	-0.624857	0.376393
H337	H	-0.382753	-0.216236	0.114110
C338	C	0.097512	0.268885	0.511643
N339	N	0.082696	0.270096	0.542525
H340	H	-0.732353	-0.533492	0.468971
H341	H	0.205322	0.268398	0.114116
H342	H	0.230368	0.295965	-0.398887
H343	H	-0.117435	-0.186523	0.019040
C344	C	0.262797	0.301645	-0.355687
N345	N	0.247869	0.302845	-0.324802
C346	C	0.443203	0.311152	-0.303417
N347	N	0.459143	0.311589	-0.287909
C348	C	-0.556805	-0.295544	0.303331
N349	N	-0.540861	-0.264096	0.287824
H350	H	-0.182052	0.268464	0.501484
H351	H	0.617241	0.295963	-0.398133
C352	C	-0.187402	-0.229494	-0.108437
N353	N	-0.202264	-0.260377	-0.092372
C354	C	-0.452730	-0.243242	0.189773
N355	N	-0.467589	-0.227216	0.205834
C356	C	0.381954	0.301639	-0.474581
N357	N	0.414041	0.302843	-0.490606
C358	C	-0.008002	-0.140040	-0.303425
N359	N	-0.023943	-0.171487	-0.287917
C360	C	0.053752	0.262790	0.474234
N361	N	0.021672	0.261598	0.490356
C362	C	-0.780723	-0.324458	0.511643
N363	N	-0.812814	-0.340480	0.542526
C364	C	0.324581	-0.139791	-0.303403
N365	N	0.293569	-0.171239	-0.287897
H366	H	0.617258	-0.216240	-0.013873
H367	H	0.437930	-0.026285	-0.308746
C368	C	0.172618	-0.072940	0.019476
N369	N	0.187440	-0.042056	0.020679
H370	H	0.267941	0.301250	-0.184099
H371	H	0.230365	-0.603862	-0.013858
C372	C	0.338462	-0.609135	-0.013464
N373	N	0.353389	-0.625093	-0.012266
H374	H	0.100165	-0.026535	-0.411435
H375	H	0.617463	0.295940	-0.501068
H376	H	0.100131	-0.026521	0.028807
H377	H	0.230091	-0.219108	-0.114185
C378	C	-0.618056	-0.243234	0.355090
N379	N	-0.585967	-0.227209	0.324206
H380	H	0.205307	-0.115910	0.013801
C381	C	-0.112078	0.262776	0.474479
N382	N	-0.097226	0.261566	0.490508
H383	H	0.552607	0.301210	-0.468757
C384	C	0.547503	0.092619	-0.474562
N385	N	0.532646	0.076557	-0.490588
C386	C	-0.556805	-0.414399	0.303334
N387	N	-0.540863	-0.429906	0.287829
C388	C	0.172630	0.262728	0.189776
N389	N	0.187452	0.261527	0.205839
H390	H	-0.182272	0.268459	0.398770
H391	H	0.335043	-0.409068	-0.028878
C392	C	0.622575	0.173783	-0.512225
N393	N	0.637331	0.189743	-0.543108
C394	C	0.381956	0.301685	-0.189863
N395	N	0.414043	0.302886	-0.205923
C396	C	0.381669	-0.073200	-0.189583
N397	N	0.413756	-0.042317	-0.205543
C398	C	-0.112322	-0.192087	-0.189606
N399	N	-0.097564	-0.208214	-0.205565
C400	C	0.622613	-0.324476	-0.013461
N401	N	0.637483	-0.340494	-0.012269
H402	H	-0.667447	-0.603843	0.398798
H403	H	0.167269	0.098131	-0.468782
C404	C	0.216121	-0.205866	0.393288
N405	N	0.248214	-0.174986	0.377263
H406	H	0.167477	-0.248833	0.184031
H407	H	-0.629638	-0.533721	0.366252
C408	C	0.053737	-0.192084	0.019458
N409	N	0.021652	-0.208209	0.020658
C410	C	0.338458	0.295607	-0.108699
N411	N	0.353387	0.294415	-0.092741
C412	C	0.216384	0.173549	0.013371
N413	N	0.248471	0.189508	0.012168
H414	H	0.552400	-0.248780	-0.019131
C415	C	0.219297	0.295590	-0.108440
N416	N	0.187211	0.294390	-0.092378
C417	C	0.381947	-0.243258	-0.019536
N418	N	0.414034	-0.227233	-0.020738
C419	C	-0.007998	-0.021183	-0.303430
N420	N	-0.023937	-0.005675	-0.287923
H421	H	-0.382532	-0.318952	0.113884
C422	C	-0.008004	0.253273	0.303320
N423	N	-0.023939	0.252846	0.287809
H424	H	0.205059	-0.216514	0.113907
C425	C	-0.675666	-0.414395	0.422187
N426	N	-0.706681	-0.429901	0.453634
H427	H	-0.002512	0.253428	0.411332
H428	H	0.552621	-0.351498	-0.019128
H429	H	-0.666703	-0.216219	0.398058
C430	C	-0.112075	-0.072941	-0.189874
N431	N	-0.097214	-0.042057	-0.205936
C432	C	0.096959	-0.325010	0.512182
N433	N	0.082035	-0.341137	0.543066
H434	H	0.102110	-0.319446	0.114137
C435	C	-0.187154	-0.110347	-0.108708
N436	N	-0.201918	-0.094222	-0.092752
C437	C	0.262794	-0.528234	-0.019532
N438	N	0.247864	-0.512277	-0.020725
H439	H	0.230097	-0.219111	-0.398135
H440	H	0.437935	-0.026287	-0.411409
H441	H	0.100149	0.253421	0.308676
C442	C	0.053462	-0.362415	0.189797
N443	N	0.021375	-0.393299	0.205858
H444	H	0.167522	0.263171	0.365746
H445	H	0.267897	-0.186572	-0.184305
C446	C	-0.452488	-0.362143	0.189514
N447	N	-0.467248	-0.393027	0.205474
H448	H	0.102633	-0.218858	-0.398880
H449	H	0.205320	0.268435	0.398066
C450	C	0.262786	-0.362157	-0.019519
N451	N	0.247861	-0.393042	-0.020720
C452	C	-0.007788	-0.414178	0.303354
N453	N	-0.023728	-0.429685	0.287846
H454	H	0.204850	0.168253	-0.501099
H455	H	0.167516	0.097925	0.019049
C456	C	0.172617	-0.243269	0.355621
N457	N	0.187543	-0.227144	0.324736
C458	C	-0.112321	0.262777	0.355577
N459	N	-0.097559	0.261576	0.324691
C460	C	0.262787	-0.192099	-0.355166
N461	N	0.247967	-0.208126	-0.324284
C462	C	-0.737224	-0.362130	0.474238
N463	N	-0.752153	-0.393016	0.490362
H464	H	0.064821	0.263164	0.184001
C465	C	0.096756	0.173535	-0.392607
N466	N	0.081832	0.189496	-0.376481
H467	H	0.064321	0.097912	-0.365848
C468	C	0.337909	-0.110869	-0.511718
N469	N	0.352726	-0.094846	-0.542601
C470	C	0.381962	-0.527970	-0.019555
N471	N	0.414052	-0.511907	-0.020764
H472	H	0.437709	-0.409066	-0.028885
H473	H	0.437704	-0.306410	-0.028878
H474	H	0.370607	-0.083853	-0.468752
H475	H	0.102624	0.268416	0.113879
C476	C	0.053744	0.092647	0.019445
N477	N	0.021662	0.076689	0.020640
C478	C	-0.781223	-0.609114	0.512162
N479	N	-0.813312	-0.625073	0.543046
H480	H	0.167543	-0.083608	-0.469060
C481	C	0.324352	0.311154	-0.303421
N482	N	0.293340	0.311591	-0.287914
H483	H	-0.002524	-0.026519	0.028802
C484	C	-0.112090	-0.072933	0.019459
N485	N	-0.097233	-0.042050	0.020664
C486	C	-0.008016	-0.140024	0.028941
N487	N	-0.023948	-0.171466	0.029361
H488	H	-0.182070	-0.115902	0.013781
H489	H	-0.182293	-0.218837	0.013775
H490	H	0.617704	0.168507	-0.398859
H491	H	0.552845	0.098385	-0.366316
C492	C	0.338446	-0.205593	-0.013443
N493	N	0.353375	-0.174706	-0.012248
C494	C	0.219280	-0.324493	-0.013422
N495	N	0.187193	-0.340516	-0.012219
C496	C	0.337908	-0.110865	-0.108413
N497	N	0.352728	-0.094841	-0.092349
H498	H	0.205343	-0.115928	-0.501596
H499	H	0.100368	-0.306171	0.308703
H500	H	-0.002298	-0.408829	0.411365
H501	H	-0.117201	-0.533500	0.468702
C502	C	0.053456	-0.362415	0.474519
N503	N	0.021365	-0.393297	0.490547
C504	C	-0.111860	-0.527733	0.355115
N505	N	-0.097005	-0.511670	0.324232
