data_functionalizedCrystal
_audit_creation_method	'MofGen! by Chris Wilmer'
_symmetry_space_group_name_H-M	'P1'
_symmetry_Int_Tables_number	1
_symmetry_cell_setting	triclinic
loop_
_symmetry_equiv_pos_as_xyz
  x,y,z
_cell_length_a	25.639242
_cell_length_b	12.759394
_cell_length_c	25.639217
_cell_angle_alpha	90.108388
_cell_angle_beta	89.918438
_cell_angle_gamma	89.989635
loop_
_atom_site_label
_atom_site_type_symbol
_atom_site_fract_x
_atom_site_fract_y
_atom_site_fract_z
Zn1	Zn	0.799618	0.417540	-0.295761
Zn2	Zn	0.799488	0.593493	-0.208332
Zn3	Zn	0.712104	0.417815	-0.208324
Zn4	Zn	0.712176	0.593164	-0.295722
O5	O	0.755847	0.505503	-0.252035
O6	O	0.872766	0.440903	-0.284182
O7	O	0.787811	0.570441	-0.135165
O8	O	0.723738	0.270757	-0.219936
O9	O	0.872670	0.570175	-0.219949
O10	O	0.788034	0.270556	-0.284175
O11	O	0.723611	0.441371	-0.135160
O12	O	0.638948	0.441052	-0.219899
O13	O	0.723861	0.569615	-0.368893
O14	O	0.639001	0.569881	-0.284109
O15	O	0.788104	0.440585	-0.368921
O16	O	0.787881	0.740470	-0.219911
O17	O	0.723734	0.740229	-0.284117
C18	C	0.620004	0.505462	-0.251999
C19	C	0.561890	0.505469	-0.251997
C20	C	0.755815	0.778471	-0.252022
C21	C	0.755850	0.895247	-0.252034
C22	C	0.756005	0.505033	-0.388408
C23	C	0.756072	0.504833	-0.446522
C24	C	0.201563	0.572696	-0.285438
C25	C	0.146959	0.572703	-0.285446
O26	O	0.118753	0.629810	-0.313849
N27	N	0.119608	0.505532	-0.252069
C28	C	0.146863	0.438342	-0.218685
O29	O	0.118585	0.381208	-0.190297
C30	C	0.201466	0.438331	-0.218680
C31	C	0.228815	0.505514	-0.252055
C32	C	0.228912	0.639873	-0.318811
C33	C	0.283513	0.639868	-0.318802
C34	C	0.310764	0.572686	-0.285419
C35	C	0.283416	0.505509	-0.252046
C36	C	0.228721	0.371138	-0.185299
C37	C	0.283328	0.371132	-0.185297
C38	C	0.310677	0.438315	-0.218673
C39	C	0.365268	0.438322	-0.218655
N40	N	0.392620	0.505493	-0.252032
C41	C	0.365368	0.572675	-0.285414
C42	C	0.032193	0.438369	-0.218699
C43	C	-0.022410	0.438385	-0.218702
C44	C	-0.022310	0.572744	-0.285463
C45	C	0.032293	0.572733	-0.285458
C46	C	0.059544	0.505540	-0.252076
C47	C	0.480033	0.572659	-0.285392
C48	C	0.534638	0.572651	-0.285379
C49	C	0.534534	0.438288	-0.218619
C50	C	0.479933	0.438300	-0.218631
C51	C	0.452684	0.505489	-0.252021
O52	O	0.393508	0.381240	-0.190268
O53	O	0.393653	0.629790	-0.313803
C54	C	0.892220	0.505545	-0.252071
C55	C	0.950334	0.505563	-0.252086
C56	C	0.755892	0.231469	-0.252059
C57	C	0.755912	0.114693	-0.252069
C58	C	0.822696	0.895445	-0.185227
C59	C	0.856134	0.950404	-0.151830
C60	C	0.856164	1.060126	-0.151844
C61	C	0.822755	1.114890	-0.185261
C62	C	0.789318	1.059931	-0.218658
C63	C	0.789290	0.950207	-0.218639
C64	C	0.722475	1.059733	-0.285466
C65	C	0.722441	0.950012	-0.285450
C66	C	0.689066	1.114498	-0.318883
C67	C	0.655625	1.059538	-0.352278
C68	C	0.655596	0.949810	-0.352262
C69	C	0.689004	0.895052	-0.318848
C70	C	0.755719	0.505895	-0.116192
C71	C	0.755753	0.505800	-0.058078
C72	C	0.789085	0.437718	0.192948
C73	C	0.789055	0.437804	0.138344
O74	O	0.817265	0.380280	0.109965
N75	N	0.755839	0.505517	0.111196
C76	C	0.722645	0.573140	0.138655
O77	O	0.694389	0.630743	0.110550
C78	C	0.722672	0.573049	0.193258
C79	C	0.755895	0.505339	0.220403
C80	C	0.822305	0.370013	0.220093
C81	C	0.822335	0.369929	0.274693
C82	C	0.789145	0.437550	0.302149
C83	C	0.755925	0.505255	0.275004
C84	C	0.689477	0.640666	0.220717
C85	C	0.689507	0.640568	0.275323
C86	C	0.722730	0.572858	0.302468
C87	C	0.722766	0.572791	0.357060
N88	N	0.755983	0.505079	0.384207
C89	C	0.789172	0.437458	0.356752
C90	C	0.722590	0.573327	0.023985
C91	C	0.722565	0.573425	-0.030618
C92	C	0.788975	0.438087	-0.030925
C93	C	0.789002	0.437995	0.023678
C94	C	0.755807	0.505614	0.051132
C95	C	0.789233	0.437287	0.471417
C96	C	0.789262	0.437212	0.526022
C97	C	0.722851	0.572546	0.526325
C98	C	0.722824	0.572625	0.471725
C99	C	0.756017	0.504987	0.444272
O100	O	0.694569	0.630283	0.385473
O101	O	0.817419	0.379856	0.384864
H102	H	0.457853	0.627369	-0.312583
C103	C	0.675615	0.738115	-0.269072
C104	C	0.688973	0.774444	-0.318828
H105	H	0.675602	0.663656	-0.269060
H106	H	0.641879	0.763017	-0.260009
H107	H	0.700312	0.763022	-0.244404
H108	H	0.664275	0.749544	-0.343495
H109	H	0.722714	0.749532	-0.327897
H110	H	0.305513	0.316408	-0.158117
H111	H	0.883336	0.905806	-0.124624
C112	C	0.922235	1.049312	-0.085800
C113	C	0.892917	1.120544	-0.115133
H114	H	0.944921	1.086614	-0.063134
H115	H	0.942234	1.006392	-0.108592
H116	H	0.899430	1.006633	-0.065773
H117	H	0.915722	1.163219	-0.135164
H118	H	0.872916	1.163482	-0.092338
H119	H	0.822668	0.806104	-0.185206
C120	C	0.795705	0.296752	-0.092531
C121	C	0.825452	0.363737	-0.061108
H122	H	0.818223	0.250850	-0.111162
H123	H	0.775923	0.337097	-0.116509
H124	H	0.772798	0.256869	-0.071230
H125	H	0.848356	0.403626	-0.082410
H126	H	0.845243	0.323388	-0.037128
H127	H	0.849332	0.314942	0.197744
C128	C	0.418538	0.296965	-0.211511
C129	C	0.449873	0.364439	-0.181948
H130	H	0.399983	0.251360	-0.188867
H131	H	0.439885	0.256796	-0.234322
H132	H	0.394489	0.336984	-0.231387
H133	H	0.473925	0.324420	-0.162075
H134	H	0.428524	0.404612	-0.159128
H135	H	-0.044508	0.627444	-0.312646
C136	C	0.652720	1.271563	-0.355288
C137	C	0.689102	1.235105	-0.318904
H138	H	0.652745	1.346022	-0.355303
H139	H	0.618974	1.246838	-0.346208
H140	H	0.661775	1.246568	-0.389030
H141	H	0.680045	1.260094	-0.285161
H142	H	0.722856	1.259841	-0.327981
H143	H	0.206730	0.694581	-0.345997
C144	C	0.854640	0.304230	0.017876
C145	C	0.825516	0.363558	0.053513
H146	H	0.877180	0.258268	0.036294
H147	H	0.874785	0.349758	-0.003394
H148	H	0.831704	0.264414	-0.003434
H149	H	0.848452	0.403380	0.074820
H150	H	0.805370	0.318024	0.074793
C151	C	0.656925	0.707188	-0.024815
C152	C	0.686049	0.647860	-0.060452
H153	H	0.634377	0.753134	-0.043233
H154	H	0.679857	0.747011	-0.003512
H155	H	0.636784	0.661652	-0.003537
H156	H	0.706193	0.693396	-0.081727
H157	H	0.663114	0.608034	-0.081763
C158	C	0.715846	0.714661	0.085592
C159	C	0.686106	0.647673	0.054163
H160	H	0.693322	0.760553	0.104223
H161	H	0.738751	0.754547	0.064299
H162	H	0.735628	0.674312	0.109574
H163	H	0.666327	0.688023	0.030178
H164	H	0.663193	0.607783	0.075458
H165	H	0.822788	1.204231	-0.185274
C166	C	0.630209	1.092971	-0.440793
C167	C	0.618908	1.119737	-0.389007
H168	H	0.607543	1.130144	-0.463467
H169	H	0.625399	1.019769	-0.445559
H170	H	0.665349	1.110863	-0.448475
H171	H	0.583769	1.101837	-0.381324
H172	H	0.623714	1.192955	-0.384239
C173	C	0.278110	0.772662	-0.384796
C174	C	0.313570	0.713707	-0.355495
H175	H	0.296664	0.818242	-0.407453
H176	H	0.256778	0.812860	-0.361983
H177	H	0.256843	0.726865	-0.404831
H178	H	0.334833	0.759504	-0.335457
H179	H	0.334910	0.673507	-0.378311
C180	C	0.648331	0.826124	-0.422569
C181	C	0.618842	0.889401	-0.388975
H182	H	0.625639	0.788838	-0.445236
H183	H	0.668215	0.777808	-0.402667
H184	H	0.671131	0.868817	-0.442593
H185	H	0.596043	0.846707	-0.368948
H186	H	0.598949	0.937722	-0.408880
H187	H	0.556732	0.383594	-0.191439
H188	H	-0.044673	0.383688	-0.191519
C189	C	0.623826	0.774401	0.226529
C190	C	0.652952	0.715087	0.190889
H191	H	0.601273	0.820341	0.208114
H192	H	0.646756	0.814230	0.247831
H193	H	0.603690	0.728855	0.247807
H194	H	0.673091	0.760633	0.169613
H195	H	0.630019	0.675255	0.169578
C196	C	0.682763	0.781891	0.336932
C197	C	0.653022	0.714902	0.305506
H198	H	0.660239	0.827777	0.355568
H199	H	0.705663	0.821783	0.315637
H200	H	0.702550	0.741542	0.360911
H201	H	0.633237	0.755251	0.281524
H202	H	0.630112	0.675006	0.326802
C203	C	0.854901	0.303436	0.520225
C204	C	0.825780	0.362775	0.555859
H205	H	0.877442	0.257479	0.538645
H206	H	0.875046	0.348958	0.498950
H207	H	0.831964	0.263616	0.498919
H208	H	0.848718	0.402602	0.577163
H209	H	0.805635	0.317247	0.577143
H210	H	0.816261	0.382206	0.449071
H211	H	0.054377	0.383654	-0.191512
H212	H	0.849387	0.314791	0.296790
H213	H	0.695776	0.627770	0.449622
C214	C	0.693409	0.632478	0.610170
C215	C	0.686367	0.646867	0.556511
H216	H	0.670881	0.678353	0.628805
H217	H	0.728591	0.647347	0.619065
H218	H	0.685524	0.561976	0.619030
H219	H	0.694256	0.717367	0.547651
H220	H	0.651177	0.632005	0.547612
H221	H	0.556903	0.627364	-0.312557
H222	H	0.054557	0.627438	-0.312636
H223	H	0.206463	0.316433	-0.158120
