data_functionalizedCrystal
_audit_creation_method	'MofGen! by Chris Wilmer'
_symmetry_space_group_name_H-M	'P1'
_symmetry_Int_Tables_number	1
_symmetry_cell_setting	triclinic
loop_
_symmetry_equiv_pos_as_xyz
  x,y,z
_cell_length_a	14.044220
_cell_length_b	17.699083
_cell_length_c	16.776229
_cell_angle_alpha	90.007545
_cell_angle_beta	89.997978
_cell_angle_gamma	91.764054
loop_
_atom_site_label
_atom_site_type_symbol
_atom_site_fract_x
_atom_site_fract_y
_atom_site_fract_z
O1	O	1.257290	-0.182444	-0.066207
O2	O	1.757290	0.317556	0.433793
O3	O	0.981336	-0.175860	-0.066227
O4	O	1.481336	0.324140	0.433773
O5	O	1.127109	-0.069500	-0.066209
O6	O	1.627109	0.430500	0.433791
O7	O	1.111516	-0.288803	-0.066224
O8	O	1.611516	0.211197	0.433776
O9	O	1.127090	-0.069492	0.066367
O10	O	1.627090	0.430508	0.566367
O11	O	0.981317	-0.175852	0.066350
O12	O	1.481317	0.324148	0.566350
O13	O	1.257271	-0.182435	0.066370
O14	O	1.757271	0.317565	0.566370
Zn15	Zn	1.119290	-0.179142	0.087409
Zn16	Zn	1.619290	0.320858	0.587409
Zn17	Zn	1.119316	-0.179153	-0.087266
Zn18	Zn	1.619316	0.320847	0.412734
O19	O	1.111497	-0.288795	0.066352
O20	O	1.611497	0.211205	0.566352
C21	C	0.946018	-0.172974	0.000059
C22	C	1.446018	0.327026	0.500059
C23	C	0.840812	-0.164378	0.000052
C24	C	1.340812	0.335622	0.500052
C25	C	1.126541	-0.041261	0.000079
C26	C	1.626541	0.458739	0.500079
C27	C	1.124865	0.042873	0.000079
C28	C	1.624865	0.542873	0.500079
N29	N	1.119280	-0.179134	0.206620
N30	N	1.619280	0.320866	0.706620
C31	C	0.648187	-0.148663	0.000069
C32	C	1.148187	0.351337	0.500069
C33	C	0.590414	-0.209629	0.000068
C34	C	1.090414	0.290371	0.500068
C35	C	0.483230	-0.200885	0.000077
C36	C	0.983230	0.299115	0.500077
C37	C	0.755381	-0.157406	0.000059
C38	C	1.255381	0.342594	0.500059
C39	C	1.292588	-0.185321	0.000082
C40	C	1.792588	0.314679	0.500082
C41	C	1.397794	-0.193917	0.000085
C42	C	1.897794	0.306083	0.500085
C43	C	1.112066	-0.317035	0.000062
C44	C	1.612066	0.182965	0.500062
C45	C	1.113742	-0.401168	0.000057
C46	C	1.613742	0.098832	0.500057
C47	C	1.210431	0.085591	0.000087
C48	C	1.710431	0.585591	0.500087
C49	C	1.208850	0.164644	0.000080
C50	C	1.708850	0.664644	0.500080
C51	C	1.121702	0.200976	0.000071
C52	C	1.621702	0.700976	0.500071
C53	C	1.036130	0.158252	0.000061
C54	C	1.536130	0.658252	0.500061
C55	C	1.037712	0.079201	0.000063
C56	C	1.537712	0.579201	0.500063
C57	C	1.029750	0.477055	0.000054
C58	C	1.529750	0.977055	0.500054
C59	C	1.028175	0.556112	0.000055
C60	C	1.528175	1.056112	0.500055
C61	C	1.200888	0.562498	0.000071
C62	C	1.700888	1.062498	0.500071
C63	C	1.202470	0.483447	0.000073
C64	C	1.702470	0.983447	0.500073
C65	C	1.116898	0.440730	0.000059
C66	C	1.616898	0.940730	0.500059
C67	C	1.118613	0.355012	0.000065
C68	C	1.618613	0.855012	0.500065
C69	C	1.119987	0.286692	0.000070
C70	C	1.619987	0.786692	0.500070
N71	N	1.119334	-0.179155	-0.206477
N72	N	1.619334	0.320845	0.293523
C73	C	1.183848	-0.132061	0.248345
C74	C	1.683848	0.367939	0.748345
C75	C	1.183853	-0.132061	0.331798
C76	C	1.683853	0.367939	0.831798
C77	C	1.119294	-0.179138	0.373523
C78	C	1.619294	0.320862	0.873523
C79	C	1.054719	-0.226214	0.331793
C80	C	1.554719	0.273786	0.831793
C81	C	1.054710	-0.226210	0.248342
C82	C	1.554710	0.273790	0.748342
C83	C	1.054754	-0.226231	0.668340
C84	C	1.554754	0.273769	1.168340
C85	C	1.054770	-0.226233	0.751796
C86	C	1.554770	0.273767	1.251796
C87	C	1.183897	-0.132082	0.751795
C88	C	1.683897	0.367918	1.251795
C89	C	1.183888	-0.132078	0.668345
C90	C	1.683888	0.367922	1.168345
C91	C	1.119310	-0.179150	0.626621
C92	C	1.619310	0.320850	1.126621
C93	C	1.119304	-0.179149	0.536133
C94	C	1.619304	0.320851	1.036133
C95	C	1.119304	-0.179144	0.464010
C96	C	1.619304	0.320856	0.964010
H97	H	0.621449	-0.268391	0.000060
H98	H	1.121449	0.231609	0.500060
H99	H	0.617153	-0.089906	0.000077
H100	H	1.117153	0.410094	0.500077
N101	N	1.299460	0.048494	0.000106
N102	N	1.799460	0.548494	0.500106
N103	N	1.375851	0.086649	0.000114
N104	N	1.875851	0.586649	0.500114
H105	H	1.438731	0.060452	0.000127
H106	H	1.938731	0.560452	0.500127
H107	H	0.957205	0.585691	0.000050
H108	H	1.457205	1.085691	0.500050
H109	H	1.278527	0.199422	0.000087
H110	H	1.778527	0.699422	0.500087
N111	N	1.291497	0.446347	0.000089
N112	N	1.791497	0.946347	0.500089
N113	N	1.367891	0.484499	0.000095
N114	N	1.867891	0.984499	0.500095
H115	H	1.430769	0.458299	0.000105
H116	H	1.930769	0.958299	0.500105
N117	N	0.942352	0.433416	0.000055
N118	N	1.442352	0.933416	0.500055
N119	N	0.943768	0.362836	0.000055
N120	N	1.443768	0.862836	0.500055
H121	H	0.882040	0.332011	0.000056
H122	H	1.382040	0.832011	0.500056
H123	H	1.270565	0.597288	0.000079
H124	H	1.770565	1.097288	0.500079
H125	H	1.236477	-0.093750	0.785776
H126	H	1.736477	0.406250	1.285776
N127	N	1.249780	-0.083969	0.374439
N128	N	1.749780	0.416031	0.874439
N129	N	1.308543	-0.111954	0.421021
N130	N	1.808543	0.388046	0.921021
H131	H	1.355091	-0.077980	0.451145
H132	H	1.855091	0.422020	0.951145
H133	H	1.236423	-0.093728	0.214378
H134	H	1.736423	0.406272	0.714378
N135	N	0.988758	-0.274307	0.205731
N136	N	1.488758	0.225693	0.705731
N137	N	0.989891	-0.344343	0.215038
N138	N	1.489891	0.155657	0.715038
H139	H	0.943309	-0.378313	0.184945
H140	H	1.443309	0.121687	0.684945
N141	N	1.249852	-0.083995	0.625736
N142	N	1.749852	0.416005	1.125736
N143	N	1.307503	-0.041971	0.663001
N144	N	1.807503	0.458029	1.163001
H145	H	1.354093	-0.008012	0.632911
H146	H	1.854093	0.491988	1.132911
N147	N	0.947120	0.195377	0.000061
N148	N	1.447120	0.695377	0.500061
N149	N	0.926967	0.238782	0.055946
N150	N	1.426967	0.738782	0.555946
H151	H	0.864103	0.265002	0.055949
H152	H	1.364103	0.765002	0.555949
H153	H	0.968035	0.044420	0.000056
H154	H	1.468035	0.544420	0.500056
H155	H	1.002194	-0.264571	0.785768
H156	H	1.502194	0.235429	1.285768
H157	H	1.002174	-0.264561	0.634375
H158	H	1.502174	0.235439	1.134375
N159	N	0.988772	-0.274293	0.374424
N160	N	1.488772	0.225707	0.874424
N161	N	0.988788	-0.274291	0.448933
N162	N	1.488788	0.225709	0.948933
H163	H	0.942213	-0.308248	0.479041
H164	H	1.442213	0.191752	0.979041
