data_functionalizedCrystal
_audit_creation_method	'MofGen! by Chris Wilmer'
_symmetry_space_group_name_H-M	'P1'
_symmetry_Int_Tables_number	1
_symmetry_cell_setting	triclinic
loop_
_symmetry_equiv_pos_as_xyz
  x,y,z
_cell_length_a	21.295419
_cell_length_b	21.295417
_cell_length_c	17.640968
_cell_angle_alpha	78.766059
_cell_angle_beta	78.778187
_cell_angle_gamma	90.044503
loop_
_atom_site_label
_atom_site_type_symbol
_atom_site_fract_x
_atom_site_fract_y
_atom_site_fract_z
Zn1	Zn	1.034314	-0.178376	-0.446938
Zn2	Zn	1.534314	0.321624	0.053062
Zn3	Zn	1.012935	-0.304941	-0.314743
Zn4	Zn	1.512935	0.195059	0.185257
Zn5	Zn	0.907758	-0.199713	-0.314765
Zn6	Zn	1.407758	0.300287	0.185235
Zn7	Zn	0.929000	-0.283647	-0.446887
Zn8	Zn	1.429000	0.216353	0.053113
O9	O	0.971002	-0.241669	-0.380833
O10	O	1.471002	0.258331	0.119167
O11	O	1.119570	-0.195147	-0.429414
O12	O	1.619570	0.304853	0.070586
O13	O	0.981146	-0.308823	-0.204128
O14	O	1.481146	0.191177	0.295872
O15	O	0.924603	-0.108788	-0.332329
O16	O	1.424603	0.391212	0.167671
O17	O	1.103863	-0.288133	-0.332291
O18	O	1.603863	0.211867	0.167709
O19	O	1.017584	-0.093112	-0.429436
O20	O	1.517584	0.406888	0.070564
O21	O	0.903873	-0.231513	-0.204145
O22	O	1.403873	0.268487	0.295855
O23	O	0.822485	-0.210865	-0.332279
O24	O	1.322485	0.289135	0.167721
O25	O	0.960807	-0.251841	-0.557511
O26	O	1.460807	0.248159	-0.057511
O27	O	0.838091	-0.272531	-0.429348
O28	O	1.338091	0.227469	0.070652
O29	O	1.038181	-0.174499	-0.557549
O30	O	1.538181	0.325501	-0.057549
O31	O	1.001744	-0.390210	-0.332241
O32	O	1.501744	0.109790	0.167759
O33	O	0.940077	-0.374566	-0.429327
O34	O	1.440077	0.125434	0.070673
C35	C	0.807447	-0.241703	-0.380811
C36	C	1.307447	0.258297	0.119189
C37	C	0.737480	-0.241729	-0.380820
C38	C	1.237480	0.258271	0.119180
C39	C	0.970915	-0.405227	-0.380793
C40	C	1.470915	0.094773	0.119207
C41	C	0.970940	-0.475194	-0.380803
C42	C	1.470940	0.024806	0.119197
C43	C	0.712827	-0.193364	-0.431471
C44	C	1.212827	0.306636	0.068529
C45	C	0.647085	-0.193347	-0.431474
C46	C	1.147085	0.306653	0.068526
C47	C	0.606000	-0.241704	-0.380835
C48	C	1.106000	0.258296	0.119165
C49	C	0.630659	-0.290074	-0.330175
C50	C	1.130659	0.209926	0.169825
C51	C	0.696399	-0.290086	-0.330167
C52	C	1.196399	0.209914	0.169833
N53	N	0.501731	-0.297778	-0.374658
N54	N	1.001731	0.202222	0.125342
N55	N	0.439281	-0.297763	-0.374670
N56	N	0.939281	0.202237	0.125330
C57	C	0.407928	-0.241669	-0.380852
C58	C	0.907928	0.258331	0.119148
N59	N	0.441386	-0.185586	-0.387038
N60	N	0.941386	0.314414	0.112962
N61	N	0.503842	-0.185601	-0.387031
N62	N	1.003842	0.314399	0.112969
C63	C	0.534715	-0.241696	-0.380837
C64	C	1.034715	0.258304	0.119163
C65	C	0.311991	-0.193281	-0.431509
C66	C	0.811991	0.306719	0.068491
C67	C	0.246246	-0.193264	-0.431506
C68	C	0.746246	0.306736	0.068494
C69	C	0.229822	-0.289995	-0.330211
C70	C	0.729822	0.210005	0.169789
C71	C	0.295565	-0.290008	-0.330210
C72	C	0.795565	0.209992	0.169790
C73	C	0.336645	-0.241651	-0.380862
C74	C	0.836645	0.258349	0.119138
C75	C	1.019338	-0.499835	-0.431402
C76	C	1.519338	0.000165	0.068598
C77	C	1.019363	-0.565574	-0.431422
C78	C	1.519363	-0.065574	0.068578
C79	C	0.970995	-0.606672	-0.380827
C80	C	1.470995	-0.106672	0.119173
C81	C	0.922589	-0.582024	-0.330224
C82	C	1.422589	-0.082024	0.169776
C83	C	0.922562	-0.516284	-0.330212
C84	C	1.422562	-0.016284	0.169788
N85	N	0.955098	-0.721079	-0.311647
N86	N	1.455098	-0.221079	0.188353
N87	N	0.955128	-0.783528	-0.311661
N88	N	1.455128	-0.283528	0.188339
C89	C	0.971074	-0.804741	-0.380863
C90	C	1.471074	-0.304741	0.119137
N91	N	0.987002	-0.761145	-0.450052
N92	N	1.487002	-0.261145	0.049948
N93	N	0.986975	-0.698690	-0.450037
N94	N	1.486975	-0.198690	0.049963
C95	C	0.971019	-0.677956	-0.380836
C96	C	1.471019	-0.177956	0.119164
C97	C	1.019502	-0.900664	-0.431488
C98	C	1.519502	-0.400664	0.068512
C99	C	1.019523	-0.966404	-0.431509
C100	C	1.519523	-0.466404	0.068491
C101	C	0.922752	-0.982853	-0.330305
C102	C	1.422752	-0.482853	0.169695
C103	C	0.922728	-0.917113	-0.330291
C104	C	1.422728	-0.417113	0.169709
C105	C	0.971107	-0.876022	-0.380882
C106	C	1.471107	-0.376022	0.119118
C107	C	1.135196	-0.241635	-0.380856
C108	C	1.635196	0.258365	0.119144
C109	C	1.205165	-0.241621	-0.380866
C110	C	1.705165	0.258379	0.119134
C111	C	1.004248	-0.208415	-0.587014
C112	C	1.504248	0.291585	-0.087014
C113	C	1.018416	-0.194244	-0.674876
C114	C	1.518416	0.305756	-0.174876
C115	C	0.971109	-0.077469	-0.380891
C116	C	1.471109	0.422531	0.119109
C117	C	0.971154	-0.007497	-0.380915
C118	C	1.471154	0.492503	0.119085
C119	C	0.863613	-0.348982	-0.963744
C120	C	1.363613	0.151018	-0.463744
C121	C	0.876939	-0.335658	-1.046304
C122	C	1.376939	0.164342	-0.546304
C123	C	0.957502	-0.255129	-1.046333
C124	C	1.457502	0.244871	-0.546333
C125	C	0.944181	-0.268443	-0.963771
C126	C	1.444181	0.231557	-0.463771
C127	C	0.897236	-0.315371	-0.922484
C128	C	1.397236	0.184629	-0.422484
C129	C	0.977803	-0.234833	-0.922511
C130	C	1.477803	0.265167	-0.422511
C131	C	0.964485	-0.248149	-0.839957
C132	C	1.464485	0.251851	-0.339957
C133	C	0.917544	-0.295076	-0.798663
C134	C	1.417544	0.204924	-0.298663
C135	C	0.883918	-0.328688	-0.839930
C136	C	1.383918	0.171312	-0.339930
C137	C	1.024751	-0.187909	-0.963800
C138	C	1.524751	0.312091	-0.463800
C139	C	1.058373	-0.154298	-0.922540
C140	C	1.558373	0.345702	-0.422540
C141	C	1.045052	-0.167611	-0.839984
C142	C	1.545052	0.332389	-0.339984
C143	C	0.998111	-0.214538	-0.798690
C144	C	1.498111	0.285462	-0.298690
C145	C	1.078679	-0.134000	-0.798718
C146	C	1.578679	0.366000	-0.298718
C147	C	1.065360	-0.147316	-0.716164
C148	C	1.565360	0.352684	-0.216164
C149	C	0.984793	-0.227854	-0.716136
C150	C	1.484793	0.272146	-0.216136
C151	C	0.937921	-0.274748	-0.175455
C152	C	1.437921	0.225252	0.324545
C153	C	0.923875	-0.288742	-0.087593
C154	C	1.423875	0.211258	0.412407
H155	H	0.746272	-0.153988	-0.472716
H156	H	1.246272	0.346012	0.027284
C157	C	0.219129	-0.140055	-0.487228
C158	C	0.719129	0.359945	0.012772
N159	N	0.198705	-0.099978	-0.529199
N160	N	0.698705	0.400022	-0.029199
H161	H	1.058935	-0.986464	-0.472717
H162	H	1.558935	-0.486464	0.027283
C163	C	0.184632	-0.343189	-0.274507
C164	C	0.684632	0.156811	0.225493
N165	N	0.150591	-0.383255	-0.232548
N166	N	0.650591	0.116745	0.267452
H167	H	0.883207	-0.615490	-0.289032
H168	H	1.383207	-0.115490	0.210968
C169	C	0.869539	-1.028056	-0.274661
C170	C	1.369539	-0.528056	0.225339
N171	N	0.829455	-1.062105	-0.232753
N172	N	1.329455	-0.562105	0.267247
H173	H	1.058729	-0.466380	-0.472598
H174	H	1.558729	0.033620	0.027402
H175	H	0.906704	-0.305920	-0.731442
H176	H	1.406704	0.194080	-0.231442
C177	C	0.869316	-0.489179	-0.274549
C178	C	1.369316	0.010821	0.225451
N179	N	0.829210	-0.468762	-0.232623
N180	N	1.329210	0.031238	0.267377
H181	H	0.627008	-0.153960	-0.472718
H182	H	1.127008	0.346040	0.027282
C183	C	0.585464	-0.343267	-0.274472
C184	C	1.085464	0.156733	0.225528
N185	N	0.551423	-0.383333	-0.232514
N186	N	1.051423	0.116667	0.267486
C187	C	1.009134	-0.203504	-1.091759
C188	C	1.509134	0.296496	-0.591759
N189	N	1.048021	-0.164616	-1.125973
N190	N	1.548021	0.335384	-0.625973
H191	H	0.825371	-0.387180	-0.930125
H192	H	1.325371	0.112820	-0.430125
C193	C	0.322684	-0.343218	-0.274496
C194	C	0.822684	0.156782	0.225504
N195	N	0.343110	-0.383298	-0.232529
N196	N	0.843110	0.116702	0.267471
C197	C	1.110005	-0.102674	-0.967966
C198	C	1.610005	0.397326	-0.467966
N199	N	1.148892	-0.063786	-1.002180
N200	N	1.648892	0.436214	-0.502180
H201	H	0.845676	-0.366886	-0.806311
H202	H	1.345676	0.133114	-0.306311
H203	H	1.035594	-0.177070	-1.031021
H204	H	1.535594	0.322930	-0.531021
H205	H	0.946551	-0.266052	-0.682517
H206	H	1.446551	0.233948	-0.182517
H207	H	0.716470	-0.329472	-0.288921
H208	H	1.216470	0.170528	0.211079
C209	C	0.839946	-0.372635	-1.091688
C210	C	1.339946	0.127365	-0.591688
N211	N	0.812083	-0.400485	-1.125871
N212	N	1.312083	0.099515	-0.625871
H213	H	1.116905	-0.095796	-0.832347
H214	H	1.616905	0.404204	-0.332347
H215	H	0.345440	-0.153903	-0.472748
H216	H	0.845440	0.346097	0.027252
H217	H	0.883321	-0.897050	-0.289084
H218	H	1.383321	-0.397050	0.210916
C219	C	1.072712	-0.855460	-0.487149
C220	C	1.572712	-0.355460	0.012851
N221	N	1.112789	-0.821413	-0.529076
N222	N	1.612789	-0.321413	-0.029076
H223	H	1.092739	-0.119946	-0.682568
H224	H	1.592739	0.380054	-0.182568
H225	H	1.058770	-0.585640	-0.472635
H226	H	1.558770	-0.085640	0.027365
