data_functionalizedCrystal
_audit_creation_method	'MofGen! by Chris Wilmer'
_symmetry_space_group_name_H-M	'P1'
_symmetry_Int_Tables_number	1
_symmetry_cell_setting	triclinic
loop_
_symmetry_equiv_pos_as_xyz
  x,y,z
_cell_length_a	14.908979
_cell_length_b	18.215404
_cell_length_c	18.215399
_cell_angle_alpha	90.026844
_cell_angle_beta	93.275137
_cell_angle_gamma	86.675104
loop_
_atom_site_label
_atom_site_type_symbol
_atom_site_fract_x
_atom_site_fract_y
_atom_site_fract_z
Zn1	Zn	1.379170	0.228009	-0.351272
Zn2	Zn	1.379062	0.351085	-0.228213
Zn3	Zn	1.228309	0.235140	-0.235313
Zn4	Zn	1.228271	0.358148	-0.358328
O5	O	1.303703	0.293095	-0.293281
O6	O	1.505398	0.238395	-0.329023
O7	O	1.359035	0.335733	-0.126172
O8	O	1.248382	0.131207	-0.250713
O9	O	1.505319	0.328818	-0.238613
O10	O	1.359219	0.125968	-0.335908
O11	O	1.248277	0.250549	-0.131388
O12	O	1.102062	0.257398	-0.257555
O13	O	1.248318	0.340856	-0.460375
O14	O	1.102034	0.347771	-0.347934
O15	O	1.359182	0.245243	-0.455191
O16	O	1.358999	0.455009	-0.245455
O17	O	1.248213	0.460198	-0.341050
C18	C	1.069315	0.304125	-0.304281
C19	C	0.969042	0.308861	-0.309005
C20	C	1.303615	0.484306	-0.293263
C21	C	1.303659	0.566103	-0.293275
C22	C	0.827722	0.362661	-0.362633
C23	C	0.921937	0.358211	-0.358201
C24	C	0.921926	0.263960	-0.264235
C25	C	0.827711	0.268409	-0.268667
C26	C	0.780612	0.317761	-0.317868
C27	C	0.686396	0.322207	-0.322303
C28	C	0.686386	0.227959	-0.228334
C29	C	0.780601	0.223509	-0.223902
C30	C	1.361518	0.828426	-0.243602
C31	C	1.361479	0.751569	-0.243584
C32	C	1.246013	0.757018	-0.343050
C33	C	1.246047	0.833874	-0.343064
C34	C	1.303805	0.869575	-0.293341
C35	C	1.303732	0.715863	-0.293308
C36	C	1.303690	0.632531	-0.293288
C37	C	1.303846	0.952912	-0.293360
C38	C	1.539007	0.282023	-0.282239
C39	C	1.639279	0.277305	-0.277533
C40	C	1.303758	0.293042	-0.485232
C41	C	1.303781	0.293019	-0.567030
C42	C	1.303820	1.101137	-0.293326
C43	C	1.303878	1.019335	-0.293374
C44	C	1.361529	0.243189	-0.752524
C45	C	1.361540	0.243167	-0.829383
C46	C	1.246097	0.342733	-0.834770
C47	C	1.246083	0.342751	-0.757913
C48	C	1.303804	0.292980	-0.716792
C49	C	1.303829	0.292940	-0.870507
C50	C	1.303840	0.292916	-0.953840
C51	C	1.303792	0.293002	-0.633454
C52	C	1.303700	0.293093	-0.102075
C53	C	1.303852	0.292900	-0.020270
H54	H	0.648050	0.362389	-0.362368
O55	O	1.190079	0.873813	-0.391486
C56	C	1.146160	0.899314	-0.518700
C57	C	1.209614	0.854047	-0.463950
H58	H	1.161919	0.883339	-0.577299
H59	H	1.156108	0.960386	-0.510231
H60	H	1.073426	0.887693	-0.509096
H61	H	1.282372	0.865606	-0.473520
H62	H	1.199588	0.792990	-0.472432
H63	H	1.408527	0.202660	-0.719046
O64	O	1.417702	0.194774	-0.863975
C65	C	1.532169	0.095993	-0.850517
C66	C	1.468625	0.150773	-0.811248
H67	H	1.573343	0.060394	-0.807906
H68	H	1.579387	0.127514	-0.884261
H69	H	1.490765	0.059483	-0.888467
H70	H	1.509956	0.187297	-0.773262
H71	H	1.421404	0.119207	-0.777551
H72	H	1.408547	0.857491	-0.203114
H73	H	1.199105	0.383257	-0.868260
O74	O	0.640737	0.184371	-0.184727
C75	C	0.611870	0.149889	-0.060952
C76	C	0.663628	0.199284	-0.110253
H77	H	0.630344	0.161939	-0.000730
H78	H	0.630449	0.089676	-0.073042
H79	H	0.536442	0.161519	-0.072593
H80	H	0.739068	0.187718	-0.098640
H81	H	0.644975	0.259481	-0.098154
O82	O	0.782105	0.410652	-0.410449
C83	C	0.792056	0.503614	-0.503237
C84	C	0.843827	0.449313	-0.449100
H85	H	0.841935	0.534875	-0.534511
H86	H	0.747938	0.544190	-0.471503
H87	H	0.747956	0.471934	-0.543812
H88	H	0.887976	0.480931	-0.408511
H89	H	0.887888	0.408738	-0.480882
O90	O	0.967799	0.401717	-0.401720
C91	C	1.074166	0.406717	-0.496092
C92	C	1.022301	0.357358	-0.446836
H93	H	1.118229	0.370873	-0.532591
H94	H	1.118310	0.443059	-0.460203
H95	H	1.024299	0.442769	-0.531982
H96	H	1.072103	0.321261	-0.410937
H97	H	0.978144	0.321066	-0.482768
O98	O	1.189910	0.391022	-0.723170
C99	C	1.068128	0.406673	-0.642064
C100	C	1.131672	0.351933	-0.681381
H101	H	1.021039	0.375092	-0.608256
H102	H	1.026815	0.442237	-0.684625
H103	H	1.109539	0.443225	-0.604163
H104	H	1.090331	0.315333	-0.719280
H105	H	1.172988	0.316420	-0.638780
O106	O	1.417500	0.711680	-0.195168
C107	C	1.461351	0.686128	-0.067952
C108	C	1.397864	0.731362	-0.122705
H109	H	1.445485	0.702013	-0.009353
H110	H	1.534104	0.697770	-0.077459
H111	H	1.451421	0.625067	-0.076515
H112	H	1.407713	0.792436	-0.114174
H113	H	1.325133	0.719657	-0.113183
O114	O	0.967825	0.216043	-0.216506
C115	C	1.112969	0.167462	-0.168001
C116	C	1.061101	0.221747	-0.222099
H117	H	1.188391	0.172067	-0.172494
H118	H	1.094546	0.108989	-0.181895
H119	H	1.094358	0.181180	-0.109521
H120	H	1.079684	0.208097	-0.280598
H121	H	1.079528	0.280205	-0.208142
O122	O	0.826495	0.175588	-0.176175
C123	C	0.971633	0.126991	-0.127672
C124	C	0.919773	0.181285	-0.181765
H125	H	1.047057	0.131590	-0.132162
H126	H	0.953202	0.068521	-0.141571
H127	H	0.953022	0.140705	-0.069190
H128	H	0.938356	0.167638	-0.240265
H129	H	0.938208	0.239739	-0.167802
O130	O	1.189791	0.722377	-0.391285
C131	C	1.036306	0.706201	-0.434145
C132	C	1.099870	0.745465	-0.379460
H133	H	0.963593	0.724864	-0.424613
H134	H	1.046116	0.644195	-0.425599
H135	H	1.052163	0.720514	-0.492748
H136	H	1.084052	0.731212	-0.320834
H137	H	1.090048	0.807461	-0.388069
