data_functionalizedCrystal
_audit_creation_method	'MofGen! by Chris Wilmer'
_symmetry_space_group_name_H-M	'P1'
_symmetry_Int_Tables_number	1
_symmetry_cell_setting	triclinic
loop_
_symmetry_equiv_pos_as_xyz
  x,y,z
_cell_length_a	21.295417
_cell_length_b	17.640112
_cell_length_c	17.640968
_cell_angle_alpha	87.860920
_cell_angle_beta	78.765192
_cell_angle_gamma	78.743761
loop_
_atom_site_label
_atom_site_type_symbol
_atom_site_fract_x
_atom_site_fract_y
_atom_site_fract_z
Zn1	Zn	-0.018088	-1.247775	-0.195079
Zn2	Zn	0.481912	-0.747775	0.304921
Zn3	Zn	-0.147966	-1.221981	-0.068087
Zn4	Zn	0.352034	-0.721981	0.431913
Zn5	Zn	-0.059037	-1.095099	-0.093722
Zn6	Zn	0.440963	-0.595099	0.406278
Zn7	Zn	-0.139680	-1.120723	-0.220669
Zn8	Zn	0.360320	-0.620723	0.279331
O9	O	-0.091193	-1.171395	-0.144389
O10	O	0.408807	-0.671395	0.355611
O11	O	-0.021647	-1.350625	-0.156795
O12	O	0.478353	-0.850625	0.343205
O13	O	-0.156775	-1.183631	0.034787
O14	O	0.343225	-0.683631	0.534787
O15	O	0.034499	-1.115423	-0.107185
O16	O	0.534499	-0.615423	0.392815
O17	O	-0.117068	-1.331674	-0.063494
O18	O	0.382932	-0.831674	0.436506
O19	O	0.064584	-1.227593	-0.181652
O20	O	0.564584	-0.727593	0.318348
O21	O	-0.091439	-1.090412	0.015953
O22	O	0.408561	-0.590412	0.515953
O23	O	-0.083404	-0.992227	-0.132000
O24	O	0.416596	-0.492227	0.368000
O25	O	-0.102945	-1.159096	-0.323549
O26	O	0.397055	-0.659096	0.176451
O27	O	-0.142652	-1.011052	-0.225268
O28	O	0.357348	-0.511052	0.274732
O29	O	-0.013612	-1.252440	-0.304748
O30	O	0.486388	-0.752440	0.195252
O31	O	-0.234971	-1.208478	-0.088309
O32	O	0.265029	-0.708478	0.411691
O33	O	-0.228883	-1.134084	-0.200410
O34	O	0.271117	-0.634084	0.299590
C35	C	-0.116573	-0.974084	-0.184193
C36	C	0.383427	-0.474084	0.315807
C37	C	-0.127442	-0.889678	-0.201239
C38	C	0.372558	-0.389678	0.298761
C39	C	-0.254765	-1.171287	-0.144367
C40	C	0.245235	-0.671287	0.355633
C41	C	-0.324729	-1.171315	-0.144369
C42	C	0.175271	-0.671315	0.355631
C43	C	-0.052786	-1.211503	-0.342475
C44	C	0.447214	-0.711503	0.157525
C45	C	-0.036419	-1.228595	-0.426887
C46	C	0.463581	-0.728595	0.073113
C47	C	-0.360729	-1.210105	-0.086039
C48	C	0.139271	-0.710105	0.413961
C49	C	-0.426464	-1.210144	-0.086049
C50	C	0.073536	-0.710144	0.413951
C51	C	-0.456199	-1.171378	-0.144384
C52	C	0.043801	-0.671378	0.355616
C53	C	-0.420189	-1.132586	-0.202724
C54	C	0.079811	-0.632586	0.297276
C55	C	-0.354454	-1.132555	-0.202717
C56	C	0.145546	-0.632555	0.297283
N57	N	-0.566893	-1.106115	-0.163575
N58	N	-0.066893	-0.606115	0.336425
N59	N	-0.629339	-1.106146	-0.163577
N60	N	-0.129339	-0.606146	0.336423
C61	C	-0.654254	-1.171472	-0.144410
C62	C	-0.154254	-0.671472	0.355590
N63	N	-0.614366	-1.236764	-0.125225
N64	N	-0.114366	-0.736764	0.374775
N65	N	-0.551916	-1.236731	-0.125220
N66	N	-0.051916	-0.736731	0.374780
C67	C	-0.527477	-1.171408	-0.144398
C68	C	-0.027477	-0.671408	0.355602
C69	C	-0.761531	-1.210308	-0.086087
C70	C	-0.261531	-0.710308	0.413913
C71	C	-0.827266	-1.210349	-0.086102
C72	C	-0.327266	-0.710349	0.413898
C73	C	-0.820991	-1.132784	-0.202775
C74	C	-0.320991	-0.632784	0.297225
C75	C	-0.755256	-1.132750	-0.202763
C76	C	-0.255256	-0.632750	0.297237
C77	C	-0.725531	-1.171510	-0.144415
C78	C	-0.225531	-0.671510	0.355585
C79	C	0.073024	-1.171527	-0.144424
C80	C	0.573024	-0.671527	0.355576
C81	C	0.143004	-1.171584	-0.144438
C82	C	0.643004	-0.671584	0.355562
C83	C	-0.065714	-1.369475	-0.104431
C84	C	0.434286	-0.869475	0.395569
C85	C	-0.054856	-1.453885	-0.087403
C86	C	0.445144	-0.953885	0.412597
C87	C	-0.008607	-0.563037	-0.014897
C88	C	0.491393	-0.063037	0.485103
C89	C	-0.018831	-0.483727	-0.030925
C90	C	0.481169	0.016273	0.469075
C91	C	-0.080669	-0.503351	-0.127878
C92	C	0.419331	-0.003351	0.372122
C93	C	-0.070447	-0.582665	-0.111861
C94	C	0.429553	-0.082665	0.388139
C95	C	-0.034416	-0.612502	-0.055369
C96	C	0.465584	-0.112502	0.444631
C97	C	-0.096257	-0.632129	-0.152332
C98	C	0.403743	-0.132129	0.347668
C99	C	-0.086038	-0.711436	-0.136313
C100	C	0.413962	-0.211436	0.363687
C101	C	-0.050011	-0.741279	-0.079823
C102	C	0.449989	-0.241279	0.420177
C103	C	-0.024198	-0.691809	-0.039350
C104	C	0.475802	-0.191809	0.460650
C105	C	-0.132291	-0.602290	-0.208820
C106	C	0.367709	-0.102290	0.291180
C107	C	-0.158101	-0.651755	-0.249291
C108	C	0.341899	-0.151755	0.250709
C109	C	-0.147879	-0.731064	-0.233277
C110	C	0.352121	-0.231064	0.266723
C111	C	-0.111851	-0.760907	-0.176786
C112	C	0.388149	-0.260907	0.323214
C113	C	-0.173691	-0.780534	-0.273749
C114	C	0.326309	-0.280534	0.226251
C115	C	-0.163473	-0.859841	-0.257730
C116	C	0.336527	-0.359841	0.242270
C117	C	-0.101633	-0.840214	-0.160767
C118	C	0.398367	-0.340214	0.339233
C119	C	-0.215148	-1.041841	-0.753447
C120	C	0.284852	-0.541841	-0.253447
C121	C	-0.199759	-1.057917	-0.832762
C122	C	0.300241	-0.557917	-0.332762
C123	C	-0.106745	-1.155108	-0.813176
C124	C	0.393255	-0.655108	-0.313176
C125	C	-0.122124	-1.139037	-0.733858
C126	C	0.377876	-0.639037	-0.233858
C127	C	-0.176327	-1.082403	-0.704000
C128	C	0.323673	-0.582403	-0.204000
C129	C	-0.083303	-1.179600	-0.684411
C130	C	0.416697	-0.679600	-0.184411
C131	C	-0.098683	-1.163533	-0.605099
C132	C	0.401317	-0.663533	-0.105099
C133	C	-0.152885	-1.106903	-0.575235
C134	C	0.347115	-0.606903	-0.075235
C135	C	-0.191707	-1.066336	-0.624689
C136	C	0.308293	-0.566336	-0.124689
C137	C	-0.029103	-1.236237	-0.714269
C138	C	0.470897	-0.736237	-0.214269
C139	C	0.009719	-1.276800	-0.664822
C140	C	0.509719	-0.776800	-0.164822
C141	C	-0.005659	-1.260729	-0.585510
C142	C	0.494341	-0.760729	-0.085510
C143	C	-0.059860	-1.204100	-0.555646
C144	C	0.440140	-0.704100	-0.055646
C145	C	0.033164	-1.301296	-0.536056
C146	C	0.533164	-0.801296	-0.036056
C147	C	0.017784	-1.285229	-0.456745
C148	C	0.517784	-0.785229	0.043255
C149	C	-0.075241	-1.188033	-0.476334
C150	C	0.424759	-0.688033	0.023666
C151	C	-0.129399	-1.131486	0.052935
C152	C	0.370601	-0.631486	0.552935
C153	C	-0.145569	-1.114541	0.137376
C154	C	0.354431	-0.614541	0.637376
H155	H	-0.336528	-1.241668	-0.038530
H156	H	0.163472	-0.741668	0.461470
H157	H	0.020745	-0.587334	0.031092
H158	H	0.520745	-0.087334	0.531092
O159	O	-0.119546	-0.471141	-0.188783
O160	O	0.380454	0.028859	0.311217
H161	H	-0.169523	-0.483676	-0.172558
H162	H	0.330477	0.016324	0.327442
O163	O	0.009002	-0.430386	0.012753
O164	O	0.509002	0.069614	0.512753
H165	H	-0.031294	-0.386413	0.044159
H166	H	0.468706	0.113587	0.544159
O167	O	-0.853052	-1.090974	-0.265698
O168	O	-0.353052	-0.590974	0.234302
H169	H	-0.850684	-1.028730	-0.264647
H170	H	-0.350684	-0.528730	0.235353
O171	O	-0.866098	-1.252197	-0.023191
O172	O	-0.366098	-0.752197	0.476809
H173	H	-0.907961	-1.210427	0.008612
H174	H	-0.407961	-0.710427	0.508612
O175	O	-0.143334	-0.516753	-0.226108
O176	O	0.356666	-0.016753	0.273892
H177	H	-0.095579	-0.498973	-0.245800
H178	H	0.404421	0.001027	0.254200
O179	O	-0.465307	-1.251995	-0.023147
O180	O	0.034693	-0.751995	0.476853
H181	H	-0.507171	-1.210226	0.008657
H182	H	-0.007171	-0.710226	0.508657
O183	O	-0.729453	-1.252136	-0.023179
O184	O	-0.229453	-0.752136	0.476821
H185	H	-0.711410	-1.210345	0.008651
H186	H	-0.211410	-0.710345	0.508651
H187	H	-0.016583	-1.249319	-0.778850
H188	H	0.483417	-0.749319	-0.278850
H189	H	-0.725943	-1.101160	-0.250258
H190	H	-0.225943	-0.601160	0.249742
O191	O	-0.196957	-0.619574	-0.310224
O192	O	0.303043	-0.119574	0.189776
H193	H	-0.199723	-0.556117	-0.314569
H194	H	0.300277	-0.056117	0.185431
H195	H	-0.203033	-0.756228	-0.319739
H196	H	0.296967	-0.256228	0.180261
O197	O	-0.191303	-0.913202	-0.301383
O198	O	0.308697	-0.413202	0.198617
H199	H	-0.218068	-0.879133	-0.343363
H200	H	0.281932	-0.379133	0.156637
H201	H	-0.119366	-1.141897	-0.452027
H202	H	0.380634	-0.641897	0.047973
H203	H	-0.165408	-1.093825	-0.510654
H204	H	0.334592	-0.593825	-0.010654
O205	O	-0.250167	-1.005249	-0.592474
O206	O	0.249833	-0.505249	-0.092474
H207	H	-0.274582	-0.979740	-0.640181
H208	H	0.225418	-0.479740	-0.140181
H209	H	0.049397	-1.318258	-0.416484
H210	H	0.549397	-0.818258	0.083516
H211	H	-0.259273	-0.995706	-0.729140
H212	H	0.240727	-0.495706	-0.229140
O213	O	-0.241630	-1.014160	-0.886100
O214	O	0.258370	-0.514160	-0.386100
H215	H	-0.281900	-0.972077	-0.852011
H216	H	0.218100	-0.472077	-0.352011
H217	H	-0.444402	-1.101025	-0.250222
H218	H	0.055598	-0.601025	0.249778
H219	H	-0.041693	-0.805856	-0.066780
H220	H	0.458307	-0.305856	0.433220
H221	H	-0.062614	-1.201222	-0.837497
H222	H	0.437386	-0.701222	-0.337497
H223	H	-0.325141	-1.100967	-0.250217
H224	H	0.174859	-0.600967	0.249783
O225	O	-0.062771	-0.872401	-0.099835
O226	O	0.437229	-0.372401	0.400165
H227	H	-0.012795	-0.859859	-0.116037
H228	H	0.487205	-0.359859	0.383963
H229	H	0.005154	-0.716105	0.006639
H230	H	0.505154	-0.216105	0.506639
O231	O	0.068194	-1.337861	-0.697030
O232	O	0.568194	-0.837861	-0.197030
H233	H	0.072375	-1.342210	-0.760490
H234	H	0.572375	-0.842210	-0.260490
O235	O	0.091635	-1.362363	-0.568265
O236	O	0.591635	-0.862363	-0.068265
H237	H	0.095812	-1.366713	-0.631724
H238	H	0.595812	-0.866713	-0.131724
