data_functionalizedCrystal
_audit_creation_method	'MofGen! by Chris Wilmer'
_symmetry_space_group_name_H-M	'P1'
_symmetry_Int_Tables_number	1
_symmetry_cell_setting	triclinic
loop_
_symmetry_equiv_pos_as_xyz
  x,y,z
_cell_length_a	19.805407
_cell_length_b	19.805405
_cell_length_c	19.805399
_cell_angle_alpha	90.029301
_cell_angle_beta	90.019573
_cell_angle_gamma	90.026410
loop_
_atom_site_label
_atom_site_type_symbol
_atom_site_fract_x
_atom_site_fract_y
_atom_site_fract_z
Zn1	Zn	1.034736	-0.269479	0.382712
Zn2	Zn	1.034651	-0.382667	0.269520
Zn3	Zn	0.921550	-0.269498	0.269536
Zn4	Zn	0.921514	-0.382631	0.382667
O5	O	0.978113	-0.326069	0.326109
O6	O	1.129441	-0.284501	0.367708
O7	O	1.019627	-0.367678	0.174805
O8	O	0.936616	-0.174778	0.284575
O9	O	1.129378	-0.367660	0.284547
O10	O	1.019772	-0.174765	0.367724
O11	O	0.936533	-0.284533	0.174817
O12	O	0.826829	-0.284498	0.284531
O13	O	0.936553	-0.367598	0.477389
O14	O	0.826802	-0.367617	0.367648
O15	O	1.019737	-0.284466	0.477422
O16	O	1.019592	-0.477379	0.284503
O17	O	0.936471	-0.477353	0.367632
C18	C	0.802257	-0.326056	0.326087
C19	C	0.727025	-0.326067	0.326093
C20	C	0.691684	-0.369412	0.369302
C21	C	0.620996	-0.369413	0.369312
C22	C	0.585649	-0.326072	0.326109
C23	C	0.620994	-0.282722	0.282898
C24	C	0.691681	-0.282718	0.282892
C25	C	0.335921	-0.282737	0.282920
C26	C	0.265229	-0.282746	0.282928
C27	C	0.265235	-0.369432	0.369340
C28	C	0.335922	-0.369428	0.369334
C29	C	0.371262	-0.326076	0.326126
C30	C	0.447910	-0.326074	0.326117
C31	C	0.509002	-0.326076	0.326114
C32	C	0.978036	-0.501925	0.326076
C33	C	0.978066	-0.577157	0.326084
C34	C	1.021389	-0.612492	0.282845
C35	C	1.021418	-0.683181	0.282860
C36	C	0.978119	-0.718532	0.326111
C37	C	0.934794	-0.683192	0.369356
C38	C	0.934769	-0.612505	0.369344
C39	C	0.934894	-0.968265	0.369406
C40	C	0.934921	-1.038957	0.369413
C41	C	1.021542	-1.038941	0.282922
C42	C	1.021517	-0.968254	0.282910
C43	C	0.978195	-0.932920	0.326157
C44	C	0.978166	-0.856271	0.326141
C45	C	0.978145	-0.795179	0.326124
C46	C	1.154655	-0.326082	0.326131
C47	C	1.229887	-0.326088	0.326140
C48	C	0.978151	-0.326026	0.502651
C49	C	0.978167	-0.326008	0.577883
C50	C	0.978207	-0.149526	0.326156
C51	C	0.978248	-0.074294	0.326177
C52	C	0.978114	-0.326062	0.150253
C53	C	0.978229	-0.325890	0.075021
C54	C	1.021481	-0.282719	0.613246
C55	C	1.021488	-0.282699	0.683934
C56	C	0.978184	-0.325973	0.719259
C57	C	0.934864	-0.369264	0.683892
C58	C	0.934854	-0.369279	0.613204
C59	C	0.934902	-0.369201	0.968965
C60	C	0.934917	-0.369183	1.039657
C61	C	1.021536	-0.282620	1.039695
C62	C	1.021527	-0.282636	0.969008
C63	C	0.978205	-0.325924	0.933647
C64	C	0.978197	-0.325944	0.856998
C65	C	0.978194	-0.325957	0.795906
H66	H	0.592209	-0.247430	0.247724
H67	H	0.236452	-0.247448	0.247747
H68	H	1.056809	-0.247370	1.068495
C69	C	1.136189	-1.060609	0.250060
C70	C	1.069177	-1.077773	0.235388
H71	H	1.165594	-1.084576	0.220711
H72	H	1.146068	-1.072160	0.295541
H73	H	1.142352	-1.013448	0.243866
H74	H	1.063013	-1.124934	0.241587
H75	H	1.059295	-1.066226	0.189896
C76	C	0.925365	-0.762638	0.460401
C77	C	0.887200	-0.722051	0.416898
H78	H	0.895979	-0.786630	0.489748
H79	H	0.954822	-0.735022	0.486315
H80	H	0.951167	-0.793797	0.434642
H81	H	0.861401	-0.690889	0.442657
H82	H	0.857730	-0.749670	0.390982
C83	C	1.112536	-0.273278	0.763464
C84	C	1.069093	-0.235112	0.722813
H85	H	1.141920	-0.243895	0.787470
H86	H	1.138414	-0.302767	0.735890
H87	H	1.086737	-0.299047	0.794611
H88	H	1.094892	-0.209346	0.691663
H89	H	1.043213	-0.205611	0.750389
H90	H	0.899650	-0.404423	1.068417
C91	C	1.107018	-0.619584	0.197353
C92	C	1.068984	-0.573637	0.235300
H93	H	1.136405	-0.595596	0.168004
H94	H	1.077553	-0.647195	0.171442
H95	H	1.132899	-0.647114	0.226880
H96	H	1.043100	-0.546110	0.205773
H97	H	1.098453	-0.546015	0.261213
H98	H	0.364698	-0.404723	0.404512
H99	H	0.899637	-0.404459	0.940183
C100	C	0.896393	-0.859920	0.407803
C101	C	0.887272	-0.929431	0.416939
H102	H	0.866994	-0.835945	0.437153
H103	H	0.886508	-0.848375	0.362322
H104	H	0.941862	-0.848299	0.417752
H105	H	0.841804	-0.941053	0.406985
H106	H	0.897153	-0.940981	0.462431
H107	H	1.056773	-0.939473	0.247688
C108	C	0.849302	-1.031877	0.454926
C109	C	0.887330	-1.077818	0.416965
H110	H	0.819927	-1.055869	0.484283
H111	H	0.823415	-1.004349	0.425413
H112	H	0.878777	-1.004264	0.480836
H113	H	0.857855	-1.105428	0.391052
H114	H	0.913219	-1.105358	0.446482
C115	C	0.896419	-0.407680	0.792232
C116	C	0.887262	-0.416832	0.722719
H117	H	0.867034	-0.437052	0.816200
H118	H	0.886539	-0.362205	0.803825
H119	H	0.941895	-0.417589	0.803815
H120	H	0.841787	-0.406918	0.711136
H121	H	0.897138	-0.462317	0.711122
C122	C	0.243515	-0.402556	0.483899
C123	C	0.226388	-0.417079	0.416844
H124	H	0.219536	-0.431974	0.513223
H125	H	0.231952	-0.357098	0.493883
H126	H	0.290673	-0.408760	0.490066
H127	H	0.179230	-0.410870	0.410676
H128	H	0.237947	-0.462547	0.406857
C129	C	0.849148	-0.619616	0.454841
C130	C	0.887148	-0.573661	0.416875
H131	H	0.819748	-0.595635	0.484185
H132	H	0.878633	-0.647146	0.480759
H133	H	0.823282	-0.647227	0.425326
H134	H	0.913018	-0.546054	0.446391
H135	H	0.857659	-0.546120	0.390956
C136	C	1.107099	-0.197146	0.620391
C137	C	1.069083	-0.235148	0.574420
H138	H	1.136483	-0.167773	0.596421
H139	H	1.132977	-0.226631	0.647956
H140	H	1.077618	-0.171250	0.647965
H141	H	1.098564	-0.261048	0.546849
H142	H	1.043203	-0.205659	0.546844
C143	C	1.112607	-0.762465	0.273693
C144	C	1.069150	-0.721959	0.235389
H145	H	1.142112	-0.786382	0.244402
H146	H	1.086830	-0.793681	0.299392
H147	H	1.138359	-0.734797	0.303254
H148	H	1.043394	-0.749628	0.205832
H149	H	1.094930	-0.690739	0.209678
H150	H	0.720455	-0.247418	0.247711
H151	H	1.056792	-0.247400	0.940250
H152	H	0.364686	-0.247442	0.247733
H153	H	0.899576	-0.404523	0.584413
H154	H	0.592225	-0.404709	0.404496
C155	C	0.684583	-0.455094	0.454726
C156	C	0.730534	-0.417052	0.416795
H157	H	0.708567	-0.484501	0.484051
H158	H	0.656992	-0.480948	0.425192
H159	H	0.657033	-0.425630	0.480668
H160	H	0.758081	-0.446516	0.390849
H161	H	0.758136	-0.391196	0.446333
