data_functionalizedCrystal
_audit_creation_method	'MofGen! by Chris Wilmer'
_symmetry_space_group_name_H-M	'P1'
_symmetry_Int_Tables_number	1
_symmetry_cell_setting	triclinic
loop_
_symmetry_equiv_pos_as_xyz
  x,y,z
_cell_length_a	12.837942
_cell_length_b	19.288864
_cell_length_c	18.366186
_cell_angle_alpha	90.023212
_cell_angle_beta	89.994944
_cell_angle_gamma	91.017407
loop_
_atom_site_label
_atom_site_type_symbol
_atom_site_fract_x
_atom_site_fract_y
_atom_site_fract_z
O1	O	0.129276	-0.930181	-0.060785
O2	O	0.629276	-0.430181	0.439215
O3	O	0.146715	-0.729111	-0.060736
O4	O	0.646715	-0.229111	0.439264
O5	O	-0.012887	-0.825187	-0.060755
O6	O	0.487113	-0.325187	0.439245
O7	O	0.288877	-0.834104	-0.060766
O8	O	0.788877	-0.334104	0.439234
O9	O	-0.012894	-0.825168	0.060345
O10	O	0.487106	-0.325168	0.560345
O11	O	0.146707	-0.729091	0.060364
O12	O	0.646707	-0.229091	0.560364
O13	O	0.129268	-0.930161	0.060314
O14	O	0.629268	-0.430161	0.560314
Zn15	Zn	0.137987	-0.829623	0.079566
Zn16	Zn	0.637987	-0.329623	0.579566
Zn17	Zn	0.137997	-0.829649	-0.079987
Zn18	Zn	0.637997	-0.329649	0.420013
O19	O	0.288870	-0.834085	0.060334
O20	O	0.788870	-0.334085	0.560334
C21	C	0.146150	-0.703186	-0.000179
C22	C	0.646150	-0.203186	0.499821
C23	C	0.144466	-0.625968	-0.000160
C24	C	0.644466	-0.125968	0.499840
C25	C	-0.051497	-0.822165	-0.000205
C26	C	0.448503	-0.322165	0.499795
C27	C	-0.166532	-0.813181	-0.000204
C28	C	0.333468	-0.313181	0.499796
N29	N	0.137979	-0.829611	0.188457
N30	N	0.637979	-0.329611	0.688457
C31	C	-0.407995	-0.921187	-0.000245
C32	C	0.092005	-0.421187	0.499755
C33	C	-0.516081	-0.912748	-0.000245
C34	C	-0.016081	-0.412748	0.499755
C35	C	-0.490793	-0.787867	-0.000206
C36	C	0.009207	-0.287867	0.499794
C37	C	-0.382707	-0.796305	-0.000207
C38	C	0.117293	-0.296305	0.499793
C39	C	-0.341312	-0.862967	-0.000226
C40	C	0.158688	-0.362967	0.499774
C41	C	-0.233223	-0.871405	-0.000221
C42	C	0.266777	-0.371405	0.499779
C43	C	-0.207938	-0.746524	-0.000188
C44	C	0.292062	-0.246524	0.499812
C45	C	-0.316024	-0.738086	-0.000187
C46	C	0.183976	-0.238086	0.499813
C47	C	0.327480	-0.837107	-0.000218
C48	C	0.827480	-0.337107	0.499782
C49	C	0.442515	-0.846091	-0.000224
C50	C	0.942515	-0.346091	0.499776
C51	C	0.129833	-0.956086	-0.000243
C52	C	0.629833	-0.456086	0.499757
C53	C	0.131518	-1.033304	-0.000267
C54	C	0.631518	-0.533304	0.499733
C55	C	0.238113	-0.587666	-0.000175
C56	C	0.738113	-0.087666	0.499825
C57	C	0.236530	-0.515111	-0.000183
C58	C	0.736530	-0.015111	0.499817
C59	C	0.141295	-0.480860	-0.000191
C60	C	0.641295	0.019140	0.499809
C61	C	0.047636	-0.519171	-0.000172
C62	C	0.547636	-0.019171	0.499828
C63	C	0.049221	-0.591725	-0.000157
C64	C	0.549221	-0.091725	0.499843
C65	C	0.066433	-0.367493	-0.042639
C66	C	0.566433	0.132507	0.457361
C67	C	0.064852	-0.294941	-0.042659
C68	C	0.564852	0.205059	0.457341
C69	C	0.136402	-0.257081	-0.000235
C70	C	0.636402	0.242919	0.499765
C71	C	0.209552	-0.291782	0.042200
C72	C	0.709552	0.208218	0.542200
C73	C	0.211137	-0.364335	0.042215
C74	C	0.711137	0.135665	0.542215
C75	C	0.139566	-0.402188	-0.000207
C76	C	0.639566	0.097812	0.499793
C77	C	0.228340	-0.140106	-0.000257
C78	C	0.728340	0.359894	0.499743
C79	C	0.226753	-0.067550	-0.000261
C80	C	0.726753	0.432450	0.499739
C81	C	0.037857	-0.071611	-0.000257
C82	C	0.537857	0.428389	0.499743
C83	C	0.039446	-0.144166	-0.000246
C84	C	0.539446	0.355834	0.499754
C85	C	0.134690	-0.178409	-0.000250
C86	C	0.634690	0.321591	0.499750
C87	C	0.067343	-0.872171	0.226549
C88	C	0.567343	-0.372171	0.726549
C89	C	0.067338	-0.872175	0.302777
C90	C	0.567338	-0.372175	0.802777
C91	C	0.137988	-0.829626	0.340910
C92	C	0.637988	-0.329626	0.840910
C93	C	0.208631	-0.787057	0.302809
C94	C	0.708631	-0.287057	0.802809
C95	C	0.208626	-0.787050	0.226583
C96	C	0.708626	-0.287050	0.726583
C97	C	0.232411	-0.826775	0.461668
C98	C	0.732411	-0.326775	0.961668
C99	C	0.232417	-0.826787	0.537893
C100	C	0.732417	-0.326787	1.037893
C101	C	0.138002	-0.829646	0.576018
C102	C	0.638002	-0.329646	1.076018
C103	C	0.043577	-0.832506	0.537908
C104	C	0.543577	-0.332506	1.037908
C105	C	0.043572	-0.832498	0.461681
C106	C	0.543572	-0.332498	0.961681
C107	C	0.138001	-0.829629	0.423565
C108	C	0.638001	-0.329629	0.923565
C109	C	0.067355	-0.872212	0.696764
C110	C	0.567355	-0.372212	1.196764
C111	C	0.067349	-0.872211	0.772994
C112	C	0.567349	-0.372211	1.272994
C113	C	0.208650	-0.787097	0.773024
C114	C	0.708650	-0.287097	1.273024
C115	C	0.208647	-0.787095	0.696796
C116	C	0.708647	-0.287095	1.196796
C117	C	0.138000	-0.829656	0.658671
C118	C	0.638000	-0.329656	1.158671
N119	N	0.137999	-0.829661	0.811121
N120	N	0.637999	-0.329661	1.311121
H121	H	-0.199522	-0.925684	-0.000234
H122	H	0.300478	-0.425684	0.499766
C123	C	-0.010358	-0.919025	0.814898
C124	C	0.489642	-0.419025	1.314898
H125	H	-0.000249	-0.912928	0.865757
H126	H	0.499751	-0.412928	1.365757
H127	H	0.000722	-0.966111	0.802384
H128	H	0.500722	-0.466111	1.302384
H129	H	-0.079497	-0.906905	0.802415
H130	H	0.420503	-0.406905	1.302415
C131	C	-0.057119	-0.481499	-0.000185
C132	C	0.442881	0.018501	0.499815
H133	H	-0.044652	-0.432802	-0.000204
H134	H	0.455348	0.067198	0.499796
H135	H	-0.095671	-0.494196	0.042048
H136	H	0.404329	0.005804	0.542048
H137	H	-0.095658	-0.494250	-0.042417
H138	H	0.404342	0.005750	0.457583
C139	C	0.333099	-0.177780	-0.000252
C140	C	0.833099	0.322220	0.499748
H141	H	0.320632	-0.226476	-0.000251
H142	H	0.820632	0.273524	0.499749
H143	H	0.371642	-0.165034	0.041975
H144	H	0.871642	0.334966	0.541975
H145	H	0.371647	-0.165077	-0.042490
H146	H	0.871647	0.334923	0.457510
C147	C	-0.010362	-0.919018	0.654824
C148	C	0.489638	-0.419018	1.154824
H149	H	-0.052444	-0.944359	0.688430
H150	H	0.447556	-0.444359	1.188430
H151	H	0.026803	-0.950388	0.625068
H152	H	0.526803	-0.450388	1.125068
H153	H	-0.053409	-0.891178	0.625106
H154	H	0.446591	-0.391178	1.125106
C155	C	-0.066900	-0.033945	-0.000270
C156	C	0.433100	0.466055	0.499730
H157	H	-0.054433	0.014752	-0.000286
H158	H	0.445567	0.514752	0.499714
H159	H	-0.105455	-0.046644	0.041961
H160	H	0.394545	0.453356	0.541961
H161	H	-0.105436	-0.046694	-0.042504
H162	H	0.394564	0.453306	0.457496
H163	H	0.005293	-0.266693	-0.077214
H164	H	0.505293	0.233307	0.422786
C165	C	-0.012270	-0.409132	-0.089315
C166	C	0.487730	0.090868	0.410685
H167	H	-0.056048	-0.378076	-0.114599
H168	H	0.443952	0.121924	0.385401
H169	H	-0.053502	-0.438321	-0.058729
H170	H	0.446498	0.061679	0.441271
H171	H	0.024194	-0.436680	-0.123426
H172	H	0.524194	0.063320	0.376574
C173	C	0.286364	-0.740294	0.814961
C174	C	0.786364	-0.240294	1.314961
H175	H	0.276255	-0.746396	0.865815
H176	H	0.776255	-0.246396	1.365815
H177	H	0.275287	-0.693206	0.802494
H178	H	0.775287	-0.193206	1.302494
H179	H	0.355502	-0.752415	0.802457
H180	H	0.855502	-0.252415	1.302457
H181	H	-0.374291	-0.975465	-0.000253
H182	H	0.125709	-0.475465	0.499747
C183	C	0.342877	-0.625330	-0.000166
C184	C	0.842877	-0.125330	0.499834
H185	H	0.398423	-0.592123	-0.000168
H186	H	0.898423	-0.092123	0.499832
H187	H	0.347431	-0.653577	-0.042387
H188	H	0.847431	-0.153577	0.457613
H189	H	0.347415	-0.653520	0.042078
H190	H	0.847415	-0.153520	0.542078
H191	H	0.312791	-0.483920	-0.000193
H192	H	0.812791	0.016080	0.499807
C193	C	0.286365	-0.740293	0.654890
C194	C	0.786365	-0.240293	1.154890
H195	H	0.276243	-0.746381	0.604031
H196	H	0.776243	-0.246381	1.104031
H197	H	0.355497	-0.752416	0.667373
H198	H	0.855497	-0.252416	1.167373
H199	H	0.275291	-0.693202	0.667404
H200	H	0.775291	-0.193202	1.167404
H201	H	-0.570371	-0.960157	-0.000263
H202	H	-0.070371	-0.460157	0.499737
C203	C	-0.536341	-0.714548	-0.000186
C204	C	-0.036341	-0.214548	0.499814
H205	H	-0.610264	-0.717864	-0.000186
H206	H	-0.110264	-0.217864	0.499814
H207	H	-0.513426	-0.690277	-0.042407
H208	H	-0.013426	-0.190277	0.457593
H209	H	-0.513446	-0.690272	0.042059
H210	H	-0.013446	-0.190272	0.542059
H211	H	0.270695	-0.392586	0.076769
H212	H	0.770695	0.107414	0.576769
H213	H	-0.027040	-0.622910	-0.000145
H214	H	0.472960	-0.122910	0.499855
C215	C	-0.063564	-0.186303	-0.000240
C216	C	0.436436	0.313697	0.499760
H217	H	-0.048981	-0.234419	-0.000225
H218	H	0.451019	0.265581	0.499775
H219	H	-0.102627	-0.175271	-0.042472
H220	H	0.397373	0.324729	0.457528
H221	H	-0.102632	-0.175224	0.041994
H222	H	0.397368	0.324776	0.541994
H223	H	0.266154	-0.752412	0.333861
H224	H	0.766154	-0.252412	0.833861
H225	H	0.303015	-0.036366	-0.000269
H226	H	0.803015	0.463634	0.499731
C227	C	-0.361565	-0.664764	-0.000162
C228	C	0.138435	-0.164764	0.499838
H229	H	-0.435488	-0.668076	-0.000160
H230	H	0.064512	-0.168076	0.499840
H231	H	-0.338649	-0.640492	-0.042381
H232	H	0.161351	-0.140492	0.457619
H233	H	-0.338664	-0.640493	0.042084
H234	H	0.161336	-0.140493	0.542084
H235	H	-0.153632	-0.699118	-0.000166
H236	H	0.346368	-0.199118	0.499834
C237	C	0.288267	-0.250146	0.088864
C238	C	0.788267	0.249854	0.588864
H239	H	0.276844	-0.201966	0.082784
H240	H	0.776844	0.298034	0.582784
H241	H	0.357088	-0.260572	0.073944
H242	H	0.857088	0.239428	0.573944
H243	H	0.279417	-0.262204	0.138656
H244	H	0.779417	0.237796	0.638656
C245	C	-0.010359	-0.918995	0.344690
C246	C	0.489641	-0.418995	0.844690
H247	H	-0.000240	-0.912900	0.395548
H248	H	0.499760	-0.412900	0.895548
H249	H	0.000725	-0.966079	0.332172
H250	H	0.500725	-0.466079	0.832172
H251	H	-0.079502	-0.906878	0.332214
H252	H	0.420498	-0.406878	0.832214
H253	H	0.009816	-0.906825	0.195510
H254	H	0.509816	-0.406825	0.695510
H255	H	-0.033312	-0.834825	0.430655
H256	H	0.466688	-0.334825	0.930655
H257	H	0.266148	-0.752391	0.195568
H258	H	0.766148	-0.252391	0.695568
H259	H	-0.033305	-0.834833	0.568947
H260	H	0.466695	-0.334833	1.068947
H261	H	0.309304	-0.824463	0.568917
H262	H	0.809304	-0.324463	1.068917
H263	H	0.309301	-0.824436	0.430634
H264	H	0.809301	-0.324436	0.930634
