data_functionalizedCrystal
_audit_creation_method	'MofGen! by Chris Wilmer'
_symmetry_space_group_name_H-M	'P1'
_symmetry_Int_Tables_number	1
_symmetry_cell_setting	triclinic
loop_
_symmetry_equiv_pos_as_xyz
  x,y,z
_cell_length_a	16.959455
_cell_length_b	19.121063
_cell_length_c	16.959447
_cell_angle_alpha	92.406624
_cell_angle_beta	89.985678
_cell_angle_gamma	92.465894
loop_
_atom_site_label
_atom_site_type_symbol
_atom_site_fract_x
_atom_site_fract_y
_atom_site_fract_z
Zn1	Zn	1.194915	-0.279656	-0.460312
Zn2	Zn	1.189180	-0.397117	-0.333763
Zn3	Zn	1.062742	-0.279678	-0.328150
Zn4	Zn	1.057053	-0.397064	-0.465899
O5	O	1.125973	-0.338379	-0.397031
O6	O	1.304764	-0.295250	-0.443535
O7	O	1.172389	-0.381570	-0.222409
O8	O	1.085056	-0.181391	-0.340995
O9	O	1.300551	-0.381548	-0.350560
O10	O	1.182163	-0.181375	-0.438093
O11	O	1.079495	-0.295288	-0.218285
O12	O	0.951377	-0.295237	-0.346412
O13	O	1.075360	-0.381459	-0.575767
O14	O	0.947198	-0.381480	-0.447615
O15	O	1.176646	-0.295199	-0.571662
O16	O	1.166873	-0.495394	-0.355978
O17	O	1.069800	-0.495356	-0.453058
C18	C	0.920608	-0.338356	-0.397012
C19	C	0.832751	-0.338363	-0.397023
C20	C	0.463428	-0.293435	-0.344438
C21	C	0.459118	-0.383380	-0.449672
C22	C	0.541664	-0.383370	-0.449666
C23	C	0.585096	-0.338393	-0.397045
C24	C	0.545982	-0.293425	-0.344430
C25	C	0.580784	-0.428342	-0.502276
C26	C	0.663336	-0.428334	-0.502272
C27	C	0.706770	-0.383353	-0.449654
C28	C	0.667650	-0.338383	-0.397037
C29	C	0.711082	-0.293405	-0.344416
C30	C	0.671965	-0.248431	-0.291802
C31	C	0.589416	-0.248444	-0.291812
C32	C	0.789319	-0.383340	-0.449644
C33	C	0.793636	-0.293395	-0.344407
C34	C	1.117118	-0.520859	-0.405750
C35	C	1.113402	-0.598924	-0.409507
C36	C	1.162236	-0.635597	-0.360769
C37	C	1.158746	-0.708948	-0.364307
C38	C	1.106417	-0.745625	-0.416579
C39	C	1.057581	-0.708948	-0.465322
C40	C	1.061076	-0.635598	-0.461787
C41	C	1.093339	-0.967094	-0.429780
C42	C	1.089847	-1.040449	-0.433309
C43	C	1.191013	-1.040443	-0.332295
C44	C	1.194500	-0.967092	-0.328762
C45	C	1.145667	-0.930421	-0.377508
C46	C	1.102847	-0.820602	-0.420195
C47	C	1.149242	-0.855446	-0.373896
C48	C	1.332140	-0.338403	-0.397051
C49	C	1.419996	-0.338413	-0.397059
C50	C	1.126008	-0.338321	-0.603196
C51	C	1.126024	-0.338296	-0.691052
C52	C	1.134884	-0.155186	-0.388295
C53	C	1.138681	-0.077121	-0.384572
C54	C	1.073386	-0.383133	-1.064664
C55	C	1.178857	-0.293311	-1.060384
C56	C	1.178835	-0.293326	-0.977839
C57	C	1.126089	-0.338246	-0.938703
C58	C	1.073365	-0.383151	-0.982111
C59	C	1.231564	-0.248426	-0.934425
C60	C	1.231545	-0.248440	-0.851875
C61	C	1.178794	-0.293357	-0.812736
C62	C	1.126067	-0.338263	-0.856150
C63	C	1.073321	-0.383183	-0.817013
C64	C	1.020590	-0.428087	-0.860425
C65	C	1.020614	-0.428068	-0.942973
C66	C	1.178770	-0.293376	-0.730189
C67	C	1.073299	-0.383201	-0.734460
C68	C	1.125985	-0.338386	-0.191665
C69	C	1.126133	-0.338213	-0.103800
H70	H	0.431575	-0.256817	-0.301603
O71	O	1.008396	-0.596047	-0.514353
H72	H	1.045341	-0.562584	-0.552995
O73	O	0.547209	-0.199956	-0.235063
H74	H	0.565699	-0.144840	-0.246080
H75	H	1.053576	-0.937242	-0.469470
H76	H	1.030340	-0.419775	-0.702601
O77	O	1.235636	-0.244951	-0.683363
H78	H	1.272316	-0.213712	-0.724445
H79	H	0.828993	-0.256764	-0.301561
O80	O	1.235747	-0.244868	-1.102597
H81	H	1.272409	-0.213650	-1.058542
H82	H	1.274481	-0.211876	-0.816535
H83	H	1.030452	-0.419690	-1.100013
O84	O	1.211417	-0.748500	-0.311737
H85	H	1.174469	-0.781974	-0.273111
H86	H	0.423750	-0.420003	-0.492509
H87	H	1.237110	-0.937231	-0.286199
H88	H	0.707338	-0.211814	-0.248954
O89	O	0.963697	-0.476535	-0.818212
H90	H	0.972543	-0.468998	-0.753519
O91	O	0.831500	-0.431835	-0.506400
H92	H	0.870635	-0.400431	-0.545167
H93	H	0.977686	-0.464628	-0.978326
H94	H	1.191851	-0.825581	-0.331339
H95	H	1.230772	-1.070309	-0.292611
H96	H	1.274511	-0.211859	-0.966296
O97	O	0.533945	-0.476850	-0.559031
H98	H	0.469972	-0.469293	-0.550204
H99	H	0.695178	-0.464954	-0.545114
H100	H	1.047244	-1.070309	-0.475889
O101	O	1.001129	-0.748502	-0.521694
H102	H	1.006893	-0.805668	-0.515956
H103	H	1.060239	-0.850473	-0.462753
O104	O	1.218680	-0.596038	-0.304393
H105	H	1.252058	-0.633865	-0.271105
