data_functionalizedCrystal
_audit_creation_method	'MofGen! by Chris Wilmer'
_symmetry_space_group_name_H-M	'P1'
_symmetry_Int_Tables_number	1
_symmetry_cell_setting	triclinic
loop_
_symmetry_equiv_pos_as_xyz
  x,y,z
_cell_length_a	16.109318
_cell_length_b	10.489741
_cell_length_c	15.186229
_cell_angle_alpha	89.996534
_cell_angle_beta	90.000224
_cell_angle_gamma	84.003869
loop_
_atom_site_label
_atom_site_type_symbol
_atom_site_fract_x
_atom_site_fract_y
_atom_site_fract_z
O1	O	1.104133	0.164052	-0.073155
O2	O	0.862198	0.184432	-0.073173
O3	O	0.988671	-0.011435	-0.073158
O4	O	0.977661	0.359919	-0.073169
O5	O	0.988662	-0.011438	0.073299
O6	O	0.862190	0.184429	0.073285
O7	O	1.104124	0.164049	0.073303
Zn8	Zn	0.983156	0.174239	0.096547
Zn9	Zn	0.983167	0.174243	-0.096417
O10	O	0.977652	0.359917	0.073288
C11	C	0.831214	0.183601	0.000054
C12	C	0.738905	0.181115	0.000047
C13	C	0.439786	0.173085	-0.079771
C14	C	0.526522	0.175413	-0.079776
C15	C	0.526531	0.175392	0.079899
C16	C	0.439798	0.173055	0.079904
C17	C	0.396427	0.171908	0.000066
C18	C	0.569896	0.176573	0.000056
C19	C	0.663938	0.179097	0.000051
C20	C	0.302378	0.169382	0.000071
C21	C	0.987835	-0.058956	0.000070
C22	C	0.985347	-0.200550	0.000068
C23	C	0.904876	-0.267530	0.000056
C24	C	0.942886	-0.360202	0.072270
C25	C	0.942913	-0.360174	-0.072126
C26	C	1.023389	-0.291357	0.072342
C27	C	1.023406	-0.291319	-0.072119
C28	C	1.061474	-0.383964	0.000113
C29	C	1.135108	0.164880	0.000074
C30	C	1.227418	0.167367	0.000075
C31	C	0.978488	0.407438	0.000058
C32	C	0.980976	0.549031	0.000054
N33	N	0.983154	0.174236	0.228240
N34	N	0.983175	0.174236	-0.228110
C35	C	1.039175	0.087535	0.453969
C36	C	1.039178	0.087532	0.546159
C37	C	0.927148	0.260941	0.546155
C38	C	0.927142	0.260937	0.453967
C39	C	0.983160	0.174235	0.407876
C40	C	0.983169	0.174236	0.592254
C41	C	0.983171	0.174234	0.692210
C42	C	0.983157	0.174236	0.307914
H43	H	0.561821	0.176369	-0.144788
H44	H	0.908858	-0.390646	-0.133183
C45	C	0.574240	0.176669	0.167717
C46	C	0.669642	0.179247	0.167718
C47	C	0.717349	0.180528	0.255538
C48	C	0.669653	0.179230	0.343358
C49	C	0.574245	0.176652	0.343361
C50	C	0.526538	0.175371	0.255541
H51	H	0.704955	0.180208	0.102705
H52	H	0.787976	0.182437	0.255535
H53	H	0.704968	0.180179	0.408368
H54	H	0.538932	0.175691	0.408374
H55	H	0.455911	0.173462	0.255544
H56	H	0.838714	-0.216925	0.000124
C57	C	1.100788	-0.007844	0.403269
C58	C	1.162399	-0.103217	0.453975
C59	C	1.224011	-0.198602	0.403278
C60	C	1.224012	-0.198614	0.301875
C61	C	1.162398	-0.103236	0.251163
C62	C	1.100786	-0.007852	0.301860
H63	H	1.162401	-0.103212	0.529045
H64	H	1.269622	-0.269207	0.440819
H65	H	1.269621	-0.269223	0.264346
H66	H	1.162397	-0.103242	0.176093
H67	H	1.055176	0.062753	0.264319
C68	C	0.392097	0.171760	0.167731
C69	C	0.395242	0.282762	0.233599
C70	C	0.347542	0.281459	0.321422
C71	C	0.296697	0.169154	0.343377
C72	C	0.293550	0.058144	0.277508
C73	C	0.341250	0.059447	0.189685
H74	H	0.432882	0.365904	0.217348
H75	H	0.349871	0.363637	0.370183
H76	H	0.261387	0.168190	0.408389
H77	H	0.255910	-0.024998	0.293759
H78	H	0.338921	-0.022731	0.140924
C79	C	1.069370	-0.250025	-0.154590
C80	C	1.035604	-0.276699	-0.246905
C81	C	1.081560	-0.235400	-0.329385
C82	C	1.161283	-0.167427	-0.319549
C83	C	1.195053	-0.140750	-0.227230
C84	C	1.149097	-0.182049	-0.144751
H85	H	0.976585	-0.327020	-0.254189
H86	H	1.056561	-0.255149	-0.397725
H87	H	1.195302	-0.136856	-0.380606
H88	H	1.254072	-0.090429	-0.219946
H89	H	1.174096	-0.162300	-0.076410
C90	C	1.150932	-0.452031	0.000167
C91	C	1.210627	-0.430162	0.076617
C92	C	1.300085	-0.498228	0.076674
C93	C	1.329848	-0.588164	0.000282
C94	C	1.270152	-0.610037	-0.076174
C95	C	1.180694	-0.541970	-0.076232
H96	H	1.188596	-0.363582	0.133173
H97	H	1.344276	-0.482036	0.133273
H98	H	1.396070	-0.638550	0.000324
H99	H	1.292183	-0.676616	-0.132730
H100	H	1.136503	-0.558163	-0.132830
H101	H	0.881540	0.331533	0.583691
C102	C	0.865522	0.356314	0.403257
C103	C	0.803934	0.451731	0.453949
C104	C	0.742316	0.547098	0.403237
C105	C	0.742284	0.547049	0.301834
C106	C	0.803874	0.451629	0.251137
C107	C	0.865493	0.356261	0.301848
H108	H	0.803955	0.451770	0.529018
H109	H	0.696723	0.617735	0.440768
H110	H	0.696671	0.617646	0.264295
H111	H	0.803853	0.451589	0.176067
H112	H	0.911086	0.285624	0.264317
H113	H	0.404476	0.172149	-0.144780
H114	H	1.057405	-0.261016	0.133461
H115	H	0.908833	-0.390724	0.133316
H116	H	1.084790	0.016931	0.583685
