data_functionalizedCrystal
_audit_creation_method	'MofGen! by Chris Wilmer'
_symmetry_space_group_name_H-M	'P1'
_symmetry_Int_Tables_number	1
_symmetry_cell_setting	triclinic
loop_
_symmetry_equiv_pos_as_xyz
  x,y,z
_cell_length_a	12.477989
_cell_length_b	20.875641
_cell_length_c	20.875652
_cell_angle_alpha	60.088215
_cell_angle_beta	89.725060
_cell_angle_gamma	66.703135
loop_
_atom_site_label
_atom_site_type_symbol
_atom_site_fract_x
_atom_site_fract_y
_atom_site_fract_z
Zr1	Zr	1.026137	0.771512	-0.147183
O2	O	0.877127	0.886548	-0.244434
O3	O	1.066242	0.643272	-0.113870
O4	O	1.081224	0.768423	-0.247947
O5	O	0.856668	0.768437	-0.008576
O6	O	1.248562	0.781007	-0.254700
O7	O	0.862144	0.761396	-0.110357
O8	O	1.221761	0.557134	-0.014860
O9	O	0.883469	0.992310	-0.248416
O10	O	1.214964	0.710300	-0.108931
O11	O	1.085995	0.706164	-0.027934
O12	O	1.103635	0.853513	-0.185793
O13	O	0.974666	0.849376	-0.104795
Zr14	Zr	1.284289	0.802810	0.004375
Zr15	Zr	1.293022	0.791581	-0.157954
Zr16	Zr	1.017404	0.782741	0.015145
Zr17	Zr	1.036253	0.940190	-0.153534
Zr18	Zr	1.274173	0.634132	0.010725
O19	O	1.244185	0.931050	-0.028939
O20	O	1.256602	0.915084	-0.259749
O21	O	0.864709	0.902514	-0.013624
O22	O	1.433299	0.687774	0.101626
O23	O	1.445717	0.671808	-0.129184
O24	O	1.053824	0.659238	0.116940
O25	O	1.453758	0.805885	-0.134232
O26	O	1.229202	0.805898	0.105139
O27	O	1.061864	0.793315	0.111892
O28	O	1.448282	0.812925	-0.032452
O29	O	1.095607	1.008262	-0.256977
O30	O	1.214819	0.566060	0.114169
O31	O	1.426957	0.582012	0.105608
O32	O	1.433899	0.573086	-0.023422
O33	O	0.876528	1.001235	-0.119387
O34	O	1.088665	1.017188	-0.127948
O35	O	1.206791	0.720809	0.042984
O36	O	1.335760	0.724945	-0.038013
O37	O	1.224431	0.868158	-0.114875
O38	O	1.095462	0.864022	-0.033877
C39	C	1.142560	0.576170	-0.063460
C40	C	1.138266	0.504562	-0.060764
C41	C	1.203565	0.473079	-0.101777
C42	C	1.199533	0.405791	-0.099237
C43	C	1.130193	0.369991	-0.055687
C44	C	1.064892	0.401477	-0.014669
C45	C	1.068932	0.468759	-0.017206
C46	C	1.110899	0.168529	-0.043563
C47	C	1.106861	0.101243	-0.041031
C48	C	1.241504	0.105561	-0.125598
C49	C	1.245532	0.172848	-0.128135
C50	C	1.180236	0.204325	-0.087113
N51	N	1.126067	0.301214	-0.053091
N52	N	1.184370	0.273097	-0.089705
C53	C	0.821381	0.762057	-0.057932
C54	C	0.708082	0.753537	-0.053359
C55	C	1.489045	0.812264	-0.084877
C56	C	1.602345	0.820784	-0.089449
C57	C	1.166137	0.773115	-0.274452
C58	C	1.169845	0.768348	-0.343365
C59	C	1.167866	0.998152	-0.079348
C60	C	1.172161	1.069760	-0.082044
C61	C	1.196955	0.733461	-0.726947
C62	C	1.193475	0.737947	-0.662200
C63	C	1.133614	0.814946	-0.669951
C64	C	1.077239	0.887465	-0.742455
C65	C	1.080727	0.882978	-0.807201
C66	C	1.116958	0.836381	-0.480615
C67	C	1.113471	0.840861	-0.415861
C68	C	1.229710	0.691343	-0.335611
C69	C	1.233186	0.686863	-0.400361
C70	C	1.176817	0.759382	-0.472859
N71	N	1.130052	0.819533	-0.603770
N72	N	1.180386	0.754794	-0.539039
C73	C	1.144289	0.801207	0.131644
C74	C	1.140581	0.805974	0.200556
C75	C	1.476392	0.601274	-0.076933
C76	C	1.585397	0.538185	-0.078809
C77	C	1.131636	0.590216	0.139588
C78	C	1.123634	0.523374	0.211196
C79	C	1.465468	0.615319	0.126115
C80	C	1.570765	0.556998	0.193151
C81	C	0.844958	0.959003	-0.268924
C82	C	0.739661	1.017324	-0.335960
C83	C	0.834034	0.973048	-0.065876
C84	C	0.725029	1.036137	-0.063999
C85	C	1.178790	0.984106	-0.282396
C86	C	1.186792	1.050948	-0.354005
C87	C	1.573533	0.500913	-0.116715
C88	C	1.675946	0.441642	-0.118494
C89	C	1.790222	0.419640	-0.082360
C90	C	1.802083	0.456919	-0.044453
C91	C	1.699672	0.516193	-0.042680
C92	C	1.182930	0.499630	0.281850
C93	C	1.175407	0.436835	0.349140
C94	C	1.108594	0.397781	0.345775
C95	C	1.049291	0.421531	0.275114
C96	C	1.056807	0.484329	0.207826
C97	C	1.687546	0.531769	0.182352
C98	C	1.786495	0.476980	0.245333
C99	C	1.768661	0.447415	0.319112
C100	C	1.651869	0.472649	0.329911
C101	C	1.552922	0.527442	0.266930
C102	C	0.622881	1.042561	-0.325161
C103	C	0.523933	1.097371	-0.388142
C104	C	0.541767	1.126939	-0.461922
C105	C	0.658559	1.101701	-0.472720
C106	C	0.757505	1.046896	-0.409739
C107	C	0.736894	1.073416	-0.026100
C108	C	0.634483	1.132704	-0.024340
C109	C	0.520208	1.154708	-0.060476
C110	C	0.508346	1.117426	-0.098380
C111	C	0.610756	1.058143	-0.100144
C112	C	1.253615	1.089983	-0.350615
C113	C	1.261157	1.152781	-0.417893
C114	C	1.201869	1.176546	-0.488561
C115	C	1.135043	1.137504	-0.491949
C116	C	1.127509	1.074704	-0.424671
H117	H	1.252706	0.380158	-0.132632
H118	H	0.415289	1.135351	-0.127800
H119	H	1.071057	0.895431	-0.539637
F120	F	0.598110	1.018469	-0.140479
F121	F	0.881789	1.020039	-0.421244
F122	F	1.910784	0.450131	0.233825
F123	F	1.033054	0.063145	0.005321
H124	H	1.008524	0.503652	0.150299
F125	F	0.713115	0.669759	-0.008399
F126	F	1.209896	1.243388	-0.560158
H127	H	0.598496	0.884875	-0.123850
H128	H	1.480495	0.518825	-0.146149
F129	F	1.013537	0.969414	-0.750703
F130	F	1.310996	0.072054	-0.169251
F131	F	1.041408	0.202018	0.000099
H132	H	1.245693	0.670759	-0.720627
H133	H	1.086774	1.156864	-0.549495
H134	H	0.829932	1.055505	0.003331
F135	F	0.647132	1.172369	0.016007
H136	H	1.637365	0.448569	0.389990
F137	F	0.991111	0.363365	0.031690
H138	H	1.666265	0.411296	-0.149362
H139	H	1.849240	0.402799	0.370388
H140	H	0.608336	1.018488	-0.265091
H141	H	1.073090	1.042927	-0.427441
H142	H	1.239384	0.678899	-0.603173
F143	F	1.899207	0.356553	-0.084253
F144	F	1.100605	0.330946	0.417396
H145	H	1.702090	0.555833	0.122282
F146	F	1.316725	1.064702	-0.275412
F147	F	1.428637	0.554282	0.278436
H148	H	1.275603	0.632302	-0.276577
F149	F	1.332277	1.194325	-0.414272
H150	H	0.428844	1.117910	-0.379335
H151	H	1.281933	0.624162	-0.394041
H152	H	1.064717	0.903566	-0.422180
F153	F	0.436448	1.185267	-0.528946
H154	H	1.260023	0.502226	-0.137244
H155	H	1.034822	0.942026	-0.866231
F156	F	1.923713	0.433492	-0.005998
H157	H	0.436828	1.202981	-0.059034
H158	H	1.301994	0.201995	-0.163596
H159	H	1.015754	0.494393	0.016190
H160	H	1.237336	0.531422	0.284604
F161	F	1.712316	0.555851	-0.002328
F162	F	0.677521	1.133176	-0.551248
H163	H	1.223704	0.417506	0.406668
F164	F	0.978188	0.379958	0.271544
