data_functionalizedCrystal
_audit_creation_method	'MofGen! by Chris Wilmer'
_symmetry_space_group_name_H-M	'P1'
_symmetry_Int_Tables_number	1
_symmetry_cell_setting	triclinic
loop_
_symmetry_equiv_pos_as_xyz
  x,y,z
_cell_length_a	12.759395
_cell_length_b	29.839132
_cell_length_c	12.759387
_cell_angle_alpha	89.960530
_cell_angle_beta	89.979326
_cell_angle_gamma	90.042740
loop_
_atom_site_label
_atom_site_type_symbol
_atom_site_fract_x
_atom_site_fract_y
_atom_site_fract_z
Zn1	Zn	-1.606046	0.178860	0.593946
Zn2	Zn	-1.605842	0.253998	0.418240
Zn3	Zn	-1.430344	0.178879	0.418283
Zn4	Zn	-1.430242	0.253960	0.593879
O5	O	-1.518118	0.216424	0.506087
O6	O	-1.753040	0.188835	0.570649
O7	O	-1.582520	0.244057	0.271225
O8	O	-1.453778	0.116009	0.441631
O9	O	-1.752890	0.244038	0.441558
O10	O	-1.582866	0.115995	0.570690
O11	O	-1.453581	0.188867	0.271256
O12	O	-1.283309	0.188831	0.441565
O13	O	-1.453606	0.243974	0.740909
O14	O	-1.283235	0.243993	0.570575
O15	O	-1.582767	0.188799	0.740959
O16	O	-1.582421	0.316860	0.441493
O17	O	-1.453409	0.316832	0.570534
C18	C	-1.245151	0.216410	0.506068
C19	C	-1.128374	0.216415	0.506085
C20	C	-1.128510	0.159025	0.640724
C21	C	-1.073717	0.130334	0.708051
C22	C	-0.963996	0.130340	0.708062
C23	C	-0.909065	0.159039	0.640736
C24	C	-0.963857	0.187730	0.573409
C25	C	-1.073581	0.187722	0.573408
C26	C	-0.963721	0.245117	0.438766
C27	C	-1.073443	0.245114	0.438759
C28	C	-0.908790	0.273816	0.371441
C29	C	-0.963583	0.302510	0.304118
C30	C	-1.073311	0.302503	0.304111
C31	C	-1.128236	0.273805	0.371433
C32	C	-1.517910	0.333147	0.506024
C33	C	-1.517918	0.383081	0.506033
C34	C	-0.792152	0.216434	0.506101
C35	C	-0.908929	0.216427	0.506093
C36	C	-1.518198	0.216380	0.780121
C37	C	-1.518232	0.216361	0.896897
C38	C	-1.585343	0.692726	0.438950
C39	C	-1.585443	0.880399	0.438974
O40	O	-1.642657	0.904665	0.381920
N41	N	-1.518228	0.903866	0.506104
C42	C	-1.450989	0.880412	0.573237
O43	O	-1.393829	0.904679	0.630344
C44	C	-1.450895	0.692740	0.573218
C45	C	-1.518106	0.669275	0.506077
C46	C	-1.652550	0.669262	0.371815
C47	C	-1.652520	0.622346	0.371806
C48	C	-1.585283	0.598895	0.438932
C49	C	-1.518076	0.622360	0.506067
C50	C	-1.383661	0.669287	0.640356
C51	C	-1.383646	0.622366	0.640347
C52	C	-1.450857	0.598901	0.573206
C53	C	-1.450810	0.551994	0.573184
N54	N	-1.518025	0.528527	0.506054
C55	C	-1.585261	0.551977	0.438928
C56	C	-1.451042	0.978943	0.573241
C57	C	-1.451064	1.025861	0.573245
C58	C	-1.585519	1.025844	0.438983
C59	C	-1.585491	0.978926	0.438975
C60	C	-1.518256	0.955476	0.506112
C61	C	-1.585193	0.453452	0.438913
C62	C	-1.585154	0.406532	0.438907
C63	C	-1.450703	0.406552	0.573172
C64	C	-1.450737	0.453468	0.573175
C65	C	-1.517991	0.476916	0.506042
O66	O	-1.393634	0.527699	0.630216
O67	O	-1.642429	0.527703	0.381847
C68	C	-1.585373	0.739642	0.438960
C69	C	-1.518166	0.763106	0.506095
C70	C	-1.450929	0.739655	0.573221
C71	C	-1.518188	0.810024	0.506099
C72	C	-1.585424	0.833475	0.438973
C73	C	-1.652639	0.810008	0.371843
C74	C	-1.652609	0.763093	0.371834
C75	C	-1.383715	0.763122	0.640351
C76	C	-1.383749	0.810038	0.640354
C77	C	-1.450986	0.833489	0.573228
C78	C	-1.518317	1.099246	0.506150
C79	C	-1.518300	1.049311	0.506119
C80	C	-1.518100	0.216436	0.233119
C81	C	-1.518270	0.216328	0.116343
C82	C	-1.652737	0.158910	0.896969
C83	C	-1.720004	0.130178	0.951865
C84	C	-1.720030	0.130162	1.061587
C85	C	-1.652779	0.158880	1.116415
C86	C	-1.585511	0.187612	1.061518
C87	C	-1.585495	0.187626	0.951794
C88	C	-1.451002	0.245060	1.061447
C89	C	-1.450981	0.245079	0.951725
C90	C	-1.383751	0.273778	1.116274
C91	C	-1.316488	0.302513	1.061378
C92	C	-1.316466	0.302529	0.951649
C93	C	-1.383713	0.273812	0.896828
H94	H	-1.639960	0.472538	0.384249
N95	N	-1.243896	0.333516	0.892454
H96	H	-1.260136	0.365614	0.911528
H97	H	-1.254107	0.329134	0.814643
H98	H	-1.383773	0.273761	1.205616
N99	N	-1.246852	0.159017	0.640727
H100	H	-1.273270	0.150718	0.568695
H101	H	-1.273160	0.189852	0.659941
H102	H	-1.117917	0.325865	0.249281
N103	N	-1.311118	0.597071	0.712749
H104	H	-1.353775	0.577570	0.761472
H105	H	-1.268560	0.619085	0.755208
N106	N	-1.311171	0.694582	0.712788
H107	H	-1.353853	0.714012	0.761519
H108	H	-1.262514	0.714057	0.669998
H109	H	-1.652733	0.158925	0.807628
H110	H	-1.707252	0.603244	0.317136
H111	H	-1.217577	0.273794	0.371428
H112	H	-1.707382	0.829110	0.317184
H113	H	-0.819723	0.159038	0.640742
N114	N	-1.378236	0.478779	0.645578
H115	H	-1.335635	0.456802	0.688097
H116	H	-1.420991	0.498209	0.694243
N117	N	-1.792563	0.099216	0.892732
H118	H	-1.782355	0.103590	0.814893
H119	H	-1.867574	0.106226	0.911935
H120	H	-1.118455	0.106968	0.762864
N121	N	-1.725110	0.737786	0.299427
H122	H	-1.708842	0.745985	0.224348
H123	H	-1.800139	0.745929	0.315911
H124	H	-1.707307	0.688350	0.317153
H125	H	-1.395956	0.387451	0.627822
N126	N	-0.790448	0.273820	0.371459
H127	H	-0.763984	0.304651	0.390629
H128	H	-0.764079	0.265504	0.299414
H129	H	-1.652797	0.158860	1.205756
N130	N	-1.243938	0.333475	1.120509
H131	H	-1.254152	0.329101	1.198347
H132	H	-1.260201	0.365568	1.101324
N133	N	-1.657996	0.953623	0.366566
H134	H	-1.706655	0.934125	0.409304
H135	H	-1.615251	0.934214	0.317848
H136	H	-1.383706	0.273823	0.807487
N137	N	-0.904890	0.099393	0.780666
H138	H	-0.956333	0.081210	0.823312
H139	H	-0.859359	0.117709	0.829205
N140	N	-1.658038	1.051142	0.366578
H141	H	-1.647846	1.084424	0.376775
H142	H	-1.733059	1.042908	0.383002
H143	H	-0.918849	0.325872	0.249302
H144	H	-1.774798	0.106763	1.106284
N145	N	-1.657654	0.381223	0.366494
H146	H	-1.641386	0.389420	0.291414
H147	H	-1.732685	0.389362	0.382976
N148	N	-1.378554	1.051166	0.645643
H149	H	-1.335961	1.029187	0.688164
H150	H	-1.421297	1.070601	0.694308
H151	H	-1.329008	0.829139	0.695028
N152	N	-1.378514	0.953653	0.645652
H153	H	-1.335940	0.975643	0.688170
H154	H	-1.329905	0.934221	0.602840
N155	N	-1.311187	0.737831	0.712747
H156	H	-1.327462	0.745966	0.787830
H157	H	-1.236167	0.746048	0.696264
