data_functionalizedCrystal
_audit_creation_method	'MofGen! by Chris Wilmer'
_symmetry_space_group_name_H-M	'P1'
_symmetry_Int_Tables_number	1
_symmetry_cell_setting	triclinic
loop_
_symmetry_equiv_pos_as_xyz
  x,y,z
_cell_length_a	11.792241
_cell_length_b	11.792241
_cell_length_c	10.868271
_cell_angle_alpha	89.994719
_cell_angle_beta	89.999893
_cell_angle_gamma	84.193416
loop_
_atom_site_label
_atom_site_type_symbol
_atom_site_fract_x
_atom_site_fract_y
_atom_site_fract_z
O1	O	1.506908	0.155568	-0.102203
O2	O	1.756908	0.405568	0.147797
O3	O	2.006908	0.655568	0.397797
O4	O	2.256908	0.905568	0.647797
O5	O	1.176567	0.171601	-0.102232
O6	O	1.426567	0.421601	0.147768
O7	O	1.676567	0.671601	0.397768
O8	O	1.926567	0.921601	0.647768
O9	O	1.349754	-0.001586	-0.102208
O10	O	1.599754	0.248414	0.147792
O11	O	1.849754	0.498414	0.397792
O12	O	2.099754	0.748414	0.647792
O13	O	1.333721	0.328755	-0.102227
O14	O	1.583721	0.578755	0.147773
O15	O	1.833721	0.828755	0.397773
O16	O	2.083721	1.078755	0.647773
O17	O	1.349740	-0.001592	0.102436
O18	O	1.599740	0.248408	0.352436
O19	O	1.849740	0.498408	0.602436
O20	O	2.099740	0.748408	0.852436
O21	O	1.176553	0.171595	0.102413
O22	O	1.426553	0.421595	0.352413
O23	O	1.676553	0.671595	0.602413
O24	O	1.926553	0.921595	0.852413
O25	O	1.506894	0.155562	0.102441
O26	O	1.756894	0.405562	0.352441
O27	O	2.006894	0.655562	0.602441
O28	O	2.256894	0.905562	0.852441
Zn29	Zn	1.341721	0.163577	0.134919
Zn30	Zn	1.591721	0.413577	0.384919
Zn31	Zn	1.841721	0.663577	0.634919
Zn32	Zn	2.091721	0.913577	0.884919
Zn33	Zn	1.341740	0.163586	-0.134709
Zn34	Zn	1.591740	0.413586	0.115291
Zn35	Zn	1.841740	0.663586	0.365291
Zn36	Zn	2.091740	0.913586	0.615291
O37	O	1.333707	0.328749	0.102418
O38	O	1.583707	0.578749	0.352418
O39	O	1.833707	0.828749	0.602418
O40	O	2.083707	1.078749	0.852418
C41	C	1.134269	0.170591	0.000087
C42	C	1.384269	0.420591	0.250087
C43	C	1.634269	0.670591	0.500087
C44	C	1.884269	0.920591	0.750087
C45	C	1.008255	0.167576	0.000076
C46	C	1.258255	0.417576	0.250076
C47	C	1.508255	0.667576	0.500076
C48	C	1.758255	0.917576	0.750076
C49	C	1.348740	-0.043880	0.000114
C50	C	1.598740	0.206120	0.250114
C51	C	1.848740	0.456120	0.500114
C52	C	2.098740	0.706120	0.750114
C53	C	1.345726	-0.169894	0.000112
C54	C	1.595726	0.080106	0.250112
C55	C	1.845726	0.330106	0.500112
C56	C	2.095726	0.580106	0.750112
C57	C	0.777543	0.162034	0.000112
C58	C	1.027543	0.412034	0.250112
C59	C	1.277543	0.662034	0.500112
C60	C	1.527543	0.912034	0.750112
C61	C	0.905928	0.165113	0.000092
C62	C	1.155928	0.415113	0.250092
C63	C	1.405928	0.665113	0.500092
C64	C	1.655928	0.915113	0.750092
C65	C	1.340183	-0.400606	0.000091
C66	C	1.590183	-0.150606	0.250091
C67	C	1.840183	0.099394	0.500091
C68	C	2.090183	0.349394	0.750091
C69	C	1.343262	-0.272221	0.000102
C70	C	1.593262	-0.022221	0.250102
C71	C	1.843262	0.227779	0.500102
C72	C	2.093262	0.477779	0.750102
C73	C	1.549192	0.156572	0.000120
C74	C	1.799192	0.406572	0.250120
C75	C	2.049192	0.656572	0.500120
C76	C	2.299192	0.906572	0.750120
C77	C	1.675206	0.159587	0.000123
C78	C	1.925206	0.409587	0.250123
C79	C	2.175206	0.659587	0.500123
C80	C	2.425206	0.909587	0.750123
C81	C	1.334721	0.371043	0.000093
C82	C	1.584721	0.621043	0.250093
C83	C	1.834721	0.871043	0.500093
C84	C	2.084721	1.121043	0.750093
C85	C	1.337736	0.497057	0.000087
C86	C	1.587736	0.747057	0.250087
C87	C	1.837736	0.997057	0.500087
C88	C	2.087736	1.247057	0.750087
N89	N	1.341717	0.163570	0.318933
N90	N	1.591717	0.413570	0.568933
N91	N	1.841717	0.663570	0.818933
N92	N	2.091717	0.913570	1.068933
N93	N	1.341754	0.163584	-0.318723
N94	N	1.591754	0.413584	-0.068723
N95	N	1.841754	0.663584	0.181277
N96	N	2.091754	0.913584	0.431277
C97	C	1.341734	0.163584	0.569939
C98	C	1.591734	0.413584	0.819939
C99	C	1.841734	0.663584	1.069939
C100	C	2.091734	0.913584	1.319939
C101	C	1.341721	0.163580	0.430261
C102	C	1.591721	0.413580	0.680261
C103	C	1.841721	0.663580	0.930261
C104	C	2.091721	0.913580	1.180261
