data_functionalizedCrystal
_audit_creation_method	'MofGen! by Chris Wilmer'
_symmetry_space_group_name_H-M	'P1'
_symmetry_Int_Tables_number	1
_symmetry_cell_setting	triclinic
loop_
_symmetry_equiv_pos_as_xyz
  x,y,z
_cell_length_a	14.908783
_cell_length_b	12.759387
_cell_length_c	14.908520
_cell_angle_alpha	86.736825
_cell_angle_beta	83.208414
_cell_angle_gamma	86.677293
loop_
_atom_site_label
_atom_site_type_symbol
_atom_site_fract_x
_atom_site_fract_y
_atom_site_fract_z
Zn1	Zn	1.363087	-0.704627	0.280554
Zn2	Zn	1.863087	-0.204627	0.780554
Zn3	Zn	1.354237	-0.538512	0.431949
Zn4	Zn	1.854237	-0.038512	0.931949
Zn5	Zn	1.211704	-0.519358	0.289324
Zn6	Zn	1.711704	-0.019358	0.789324
Zn7	Zn	1.202947	-0.704544	0.440600
Zn8	Zn	1.702947	-0.204544	0.940600
O9	O	1.282994	-0.616760	0.360607
O10	O	1.782994	-0.116760	0.860607
O11	O	1.488583	-0.690643	0.293347
O12	O	1.988583	-0.190643	0.793347
O13	O	1.335290	-0.388951	0.413079
O14	O	1.835290	0.111049	0.913079
O15	O	1.239153	-0.535954	0.161491
O16	O	1.739153	-0.035954	0.661491
O17	O	1.482081	-0.568599	0.404576
O18	O	1.982081	-0.068599	0.904576
O19	O	1.350374	-0.672070	0.155049
O20	O	1.850374	-0.172070	0.655049
O21	O	1.230572	-0.374879	0.308293
O22	O	1.730572	0.125121	0.808293
O23	O	1.083872	-0.535872	0.316681
O24	O	1.583872	-0.035872	0.816681
O25	O	1.224230	-0.851575	0.419320
O26	O	1.724230	-0.351575	0.919320
O27	O	1.077439	-0.671927	0.427823
O28	O	1.577439	-0.171927	0.927823
O29	O	1.341884	-0.851637	0.301735
O30	O	1.841884	-0.351637	0.801735
O31	O	1.326799	-0.568518	0.559765
O32	O	1.826799	-0.068518	1.059765
O33	O	1.215648	-0.690500	0.566121
O34	O	1.715648	-0.190500	1.066121
C35	C	1.047812	-0.601813	0.374143
C36	C	1.547812	-0.101813	0.874143
C37	C	0.947199	-0.595445	0.379956
C38	C	1.447199	-0.095445	0.879956
C39	C	0.764896	-0.710778	0.275214
C40	C	1.264896	-0.210778	0.775214
C41	C	0.670361	-0.704798	0.280672
C42	C	1.170361	-0.204798	0.780672
C43	C	0.663593	-0.577499	0.396326
C44	C	1.163593	-0.077499	0.896326
C45	C	0.758127	-0.583479	0.390868
C46	C	1.258127	-0.083479	0.890868
C47	C	0.808776	-0.650122	0.330310
C48	C	1.308776	-0.150122	0.830310
C49	C	0.903312	-0.656107	0.324857
C50	C	1.403312	-0.156107	0.824857
C51	C	0.896542	-0.528804	0.440506
C52	C	1.396542	-0.028804	0.940506
C53	C	0.802008	-0.522823	0.445964
C54	C	1.302008	-0.022823	0.945964
C55	C	1.283067	-0.890793	0.360514
C56	C	1.783067	-0.390793	0.860514
C57	C	1.283099	-1.007569	0.360475
C58	C	1.783099	-0.507569	0.860475
C59	C	1.405619	-1.007654	0.238041
C60	C	1.905619	-0.507654	0.738041
C61	C	1.466893	-1.062557	0.176809
C62	C	1.966893	-0.562557	0.676809
C63	C	1.466917	-1.172278	0.176775
C64	C	1.966917	-0.672278	0.676775
C65	C	1.405659	-1.227098	0.237977
C66	C	1.905659	-0.727098	0.737977
C67	C	1.344385	-1.172195	0.299208
C68	C	1.844385	-0.672195	0.799208
C69	C	1.344369	-1.062472	0.299238
C70	C	1.844369	-0.562472	0.799238
C71	C	1.221862	-1.172110	0.421636
C72	C	1.721862	-0.672110	0.921636
C73	C	1.221840	-1.062389	0.421676
C74	C	1.721840	-0.562389	0.921676
C75	C	1.160603	-1.226930	0.482838
C76	C	1.660603	-0.726930	0.982838
C77	C	1.099332	-1.172027	0.544075
C78	C	1.599332	-0.672027	1.044075
C79	C	1.099312	-1.062299	0.544107
C80	C	1.599312	-0.562299	1.044107
C81	C	1.160567	-1.007486	0.482907
C82	C	1.660567	-0.507486	0.982907
C83	C	1.519094	-0.631767	0.347018
C84	C	2.019094	-0.131767	0.847018
C85	C	1.619706	-0.638162	0.341227
C86	C	2.119706	-0.138162	0.841227
C87	C	1.269338	-0.631603	0.595786
C88	C	1.769338	-0.131603	1.095786
C89	C	1.263578	-0.637993	0.696391
C90	C	1.763578	-0.137993	1.196391
C91	C	1.282976	-0.343793	0.360631
C92	C	1.782976	0.156207	0.860631
C93	C	1.283135	-0.227013	0.360405
C94	C	1.783135	0.272987	0.860405
C95	C	1.296728	-0.601885	0.124508
C96	C	1.796728	-0.101885	0.624508
C97	C	1.302581	-0.595545	0.023897
C98	C	1.802581	-0.095545	0.523897
C99	C	1.368617	-0.523096	0.878754
C100	C	1.868617	-0.023096	1.378754
C101	C	1.363209	-0.529097	0.973282
C102	C	1.863209	-0.029097	1.473282
C103	C	1.247358	-0.656000	0.979977
C104	C	1.747358	-0.156000	1.479977
C105	C	1.252767	-0.649999	0.885449
C106	C	1.752767	-0.149999	1.385449
C107	C	1.313397	-0.583544	0.834841
C108	C	1.813397	-0.083544	1.334841
C109	C	1.318800	-0.577538	0.740311
C110	C	1.818800	-0.077538	1.240311
C111	C	1.202955	-0.704447	0.747007
C112	C	1.702955	-0.204447	1.247007
C113	C	1.197547	-0.710447	0.841535
C114	C	1.697547	-0.210447	1.341535
H115	H	0.944549	-0.710373	0.275549
H116	H	1.444549	-0.210373	0.775549
F117	F	1.433132	-0.452356	0.824892
F118	F	1.933132	0.047644	1.324892
H119	H	1.405614	-0.918314	0.238070
H120	H	1.905614	-0.418314	0.738070
F121	F	0.609675	-0.506567	0.460760
F122	F	1.109675	-0.006567	0.960760
F123	F	0.818801	-0.781712	0.210773
F124	F	1.318801	-0.281712	0.710773
F125	F	1.532069	-1.004204	0.111661
F126	F	2.032069	-0.504204	0.611661
F127	F	0.748095	-0.451898	0.510407
F128	F	1.248095	0.048102	1.010407
F129	F	1.383324	-0.506807	0.686452
F130	F	1.883324	-0.006807	1.186452
H131	H	1.408176	-0.479876	1.009033
H132	H	1.908176	0.020124	1.509033
H133	H	1.198002	-0.710112	1.021197
H134	H	1.698002	-0.210112	1.521197
H135	H	1.049406	-1.017603	0.593960
H136	H	1.549406	-0.517603	1.093960
H137	H	1.160559	-0.918146	0.482932
H138	H	1.660559	-0.418146	0.982932
F139	F	1.133026	-0.781174	0.895405
F140	F	1.633026	-0.281174	1.395405
F141	F	0.943249	-0.464251	0.499152
F142	F	1.443249	0.035749	0.999152
F143	F	0.623664	-0.769354	0.222029
F144	F	1.123664	-0.269354	0.722029
H145	H	1.516806	-1.216979	0.126910
H146	H	2.016806	-0.716979	0.626910
H147	H	1.160624	-1.316270	0.482802
H148	H	1.660624	-0.816270	0.982802
F149	F	1.405680	-1.343872	0.237930
F150	F	1.905680	-0.843872	0.737930
H151	H	1.049457	-1.216670	0.593896
H152	H	1.549457	-0.716670	1.093896
H153	H	1.157989	-0.753664	0.711243
H154	H	1.657989	-0.253664	1.211243
