data_functionalizedCrystal
_audit_creation_method	'MofGen! by Chris Wilmer'
_symmetry_space_group_name_H-M	'P1'
_symmetry_Int_Tables_number	1
_symmetry_cell_setting	triclinic
loop_
_symmetry_equiv_pos_as_xyz
  x,y,z
_cell_length_a	14.971491
_cell_length_b	14.421503
_cell_length_c	14.971486
_cell_angle_alpha	90.004087
_cell_angle_beta	96.384818
_cell_angle_gamma	90.009490
loop_
_atom_site_label
_atom_site_type_symbol
_atom_site_fract_x
_atom_site_fract_y
_atom_site_fract_z
O1	O	1.186947	0.077152	-0.116572
O2	O	0.926548	0.077145	-0.130526
O3	O	1.063727	0.077142	0.006651
O4	O	1.049768	0.077155	-0.253749
O5	O	1.063704	-0.077081	0.006630
O6	O	0.926525	-0.077078	-0.130547
O7	O	1.186925	-0.077072	-0.116593
Cu8	Cu	1.056723	-0.091157	-0.123572
Cu9	Cu	1.056750	0.091230	-0.123547
O10	O	1.049745	-0.077069	-0.253770
C11	C	0.893212	0.000032	-0.129912
C12	C	0.793915	0.000030	-0.128039
N13	N	1.056710	-0.219438	-0.123588
C14	C	0.366222	0.084118	-0.119948
C15	C	0.459522	0.084115	-0.121704
C16	C	0.506155	0.000044	-0.122600
C17	C	0.459485	-0.084028	-0.121729
C18	C	0.366187	-0.084024	-0.119966
C19	C	0.653947	-0.084032	-0.125406
C20	C	0.747251	-0.084036	-0.127171
C21	C	0.747282	0.084107	-0.127145
C22	C	0.653984	0.084111	-0.125382
C23	C	0.607319	0.000038	-0.124513
C24	C	0.993267	-0.469090	-0.186990
C25	C	1.074109	-0.530890	-0.204439
C26	C	1.056732	-0.408599	-0.123567
C27	C	0.975912	-0.530894	-0.106139
C28	C	1.056746	-0.591321	-0.123548
C29	C	1.137614	-0.469038	-0.141056
C30	C	1.039364	-0.469037	-0.042721
C31	C	1.120264	-0.530808	-0.060135
C32	C	1.056723	-0.303338	-0.123580
C33	C	1.056764	-0.696580	-0.123534
C34	C	1.220261	0.000043	-0.117207
C35	C	1.319557	0.000052	-0.119080
C36	C	1.063091	0.000031	0.039965
C37	C	1.061221	0.000031	0.139262
N38	N	1.056769	0.219511	-0.123524
C39	C	1.050381	0.000045	-0.287084
C40	C	1.052252	0.000050	-0.386381
C41	C	1.141810	0.000033	0.196486
C42	C	1.140046	0.000042	0.289786
C43	C	1.057693	0.000043	0.325859
C44	C	0.977098	0.000045	0.268628
C45	C	0.978862	0.000042	0.175331
C46	C	0.973427	0.000048	0.463091
C47	C	0.971663	0.000049	0.556395
C48	C	1.134611	0.000048	0.577546
C49	C	1.136375	0.000045	0.484248
C50	C	1.055780	0.000045	0.427023
H51	H	0.328259	0.152578	-0.119225
H52	H	0.785216	-0.152494	-0.127905
H53	H	0.328193	-0.152479	-0.119269
F54	F	0.509182	0.173589	-0.122624
F55	F	0.886569	-0.566410	-0.086881
F56	F	0.604286	-0.173512	-0.124472
H57	H	1.205984	-0.441982	-0.155870
F58	F	1.093328	-0.566402	-0.293791
F59	F	1.229462	0.000023	0.158103
H60	H	1.205670	0.000041	0.336374
H61	H	0.785280	0.152562	-0.127853
H62	H	0.904604	0.000035	0.585763
H63	H	0.616017	0.152569	-0.124659
H64	H	0.907797	0.000050	0.416500
F65	F	0.509118	-0.173503	-0.122679
H66	H	0.939652	-0.441991	-0.240668
H67	H	1.173998	-0.557737	-0.006489
F68	F	0.889451	0.000056	0.307023
F69	F	1.020113	-0.433495	0.046605
H70	H	1.203434	0.000038	0.454880
F71	F	1.220388	0.000052	0.638449
H72	H	0.913238	0.000041	0.128739
