data_functionalizedCrystal
_audit_creation_method	'MofGen! by Chris Wilmer'
_symmetry_space_group_name_H-M	'P1'
_symmetry_Int_Tables_number	1
_symmetry_cell_setting	triclinic
loop_
_symmetry_equiv_pos_as_xyz
  x,y,z
_cell_length_a	16.992694
_cell_length_b	14.519709
_cell_length_c	16.053802
_cell_angle_alpha	92.569364
_cell_angle_beta	87.249047
_cell_angle_gamma	87.174184
loop_
_atom_site_label
_atom_site_type_symbol
_atom_site_fract_x
_atom_site_fract_y
_atom_site_fract_z
O1	O	1.043963	0.191936	-0.069327
O2	O	0.815676	0.189789	-0.069352
O3	O	0.935872	0.057059	-0.069332
O4	O	0.923768	0.324666	-0.069348
O5	O	0.929256	0.064333	0.069526
O6	O	0.809060	0.197063	0.069506
O7	O	1.037348	0.199210	0.069530
Zn8	Zn	0.922154	0.199291	0.091565
Zn9	Zn	0.930870	0.189708	-0.091386
O10	O	0.917152	0.331940	0.069510
C11	C	0.783152	0.190666	0.000074
C12	C	0.696097	0.182430	0.000065
C13	C	0.645968	0.261890	0.000061
C14	C	0.564170	0.254147	0.000073
C15	C	0.532503	0.166943	0.000083
C16	C	0.582638	0.087478	0.000089
C17	C	0.664434	0.095222	0.000083
C18	C	0.288859	0.134847	0.000107
C19	C	0.207056	0.127109	0.000111
C20	C	0.188594	0.293779	0.000095
C21	C	0.270393	0.301515	0.000084
C22	C	0.320520	0.222050	0.000095
N23	N	0.448892	0.159027	0.000092
N24	N	0.404129	0.229968	0.000092
C25	C	0.932000	0.026296	0.000097
C26	C	0.930309	-0.076207	0.000098
C27	C	0.924087	-0.451551	0.000075
C28	C	0.925815	-0.347118	0.000082
C29	C	0.927198	-0.263882	0.000087
C30	C	0.928926	-0.159443	0.000092
C31	C	1.069872	0.198333	0.000103
C32	C	1.156927	0.206569	0.000106
C33	C	0.921024	0.362703	0.000079
C34	C	0.922715	0.465206	0.000073
N35	N	0.916210	0.205832	0.216424
N36	N	0.936820	0.183161	-0.216246
C37	C	0.967373	0.149377	0.260127
C38	C	0.963222	0.153962	0.347533
C39	C	0.907913	0.215006	0.391235
C40	C	0.856746	0.271462	0.347526
C41	C	0.860893	0.266872	0.260121
C42	C	0.889799	0.235027	0.652641
C43	C	0.885658	0.239615	0.740052
C44	C	0.992134	0.122113	0.740053
C45	C	0.996279	0.117533	0.652646
C46	C	0.945109	0.173985	0.608945
N47	N	0.903672	0.219695	0.480578
N48	N	0.949347	0.169291	0.519604
H49	H	0.556847	0.016475	0.000110
N50	N	0.837553	0.292703	0.607996
N51	N	0.841260	0.288607	0.529957
H52	H	0.804362	0.329346	0.498422
N53	N	1.015486	0.096285	0.392161
N54	N	1.064868	0.041788	0.353132
H55	H	1.101782	0.001049	0.384649
N56	N	0.340067	0.053687	0.000105
N57	N	0.413098	0.060604	0.000102
H58	H	0.449269	0.003282	0.000100
H59	H	1.041316	0.067826	0.617066
H60	H	1.012414	0.099673	0.224550
N61	N	1.044394	0.064458	0.784706
N62	N	1.040688	0.068561	0.862745
H63	H	1.077597	0.027838	0.894282
N64	N	0.137377	0.374937	0.000101
N65	N	0.086895	0.392272	0.058637
H66	H	0.050721	0.449593	0.058645
N67	N	0.829147	0.301972	0.784681
N68	N	0.783460	0.352365	0.745653
H69	H	0.743550	0.396401	0.777172
H70	H	0.811708	0.321162	0.383113
H71	H	0.819230	0.312842	0.224539
H72	H	0.705249	0.030517	0.000086
H73	H	0.296170	0.372525	0.000066
N74	N	0.678298	0.350975	0.000060
N75	N	0.660196	0.408971	0.058591
H76	H	0.683026	0.471891	0.058595
N77	N	0.512976	0.335323	0.000073
N78	N	0.541260	0.413177	0.000060
H79	H	0.505105	0.470513	0.000061
H80	H	0.181277	0.056094	0.000118
