data_functionalizedCrystal
_audit_creation_method	'MofGen! by Chris Wilmer'
_symmetry_space_group_name_H-M	'P1'
_symmetry_Int_Tables_number	1
_symmetry_cell_setting	triclinic
loop_
_symmetry_equiv_pos_as_xyz
  x,y,z
_cell_length_a	16.625546
_cell_length_b	10.686220
_cell_length_c	10.686551
_cell_angle_alpha	90.307919
_cell_angle_beta	85.590142
_cell_angle_gamma	94.404617
loop_
_atom_site_label
_atom_site_type_symbol
_atom_site_fract_x
_atom_site_fract_y
_atom_site_fract_z
Zn1	Zn	-0.196574	1.972246	-0.562370
Zn2	Zn	0.136759	2.305579	-0.229036
Zn3	Zn	0.470093	2.638913	0.104297
Zn4	Zn	-0.342516	1.955986	-0.352595
Zn5	Zn	-0.009183	2.289319	-0.019261
Zn6	Zn	0.324150	2.622652	0.314072
Zn7	Zn	-0.217201	1.746360	-0.368684
Zn8	Zn	0.116132	2.079693	-0.035351
Zn9	Zn	0.449466	2.413027	0.297982
Zn10	Zn	-0.340883	1.762416	-0.578372
Zn11	Zn	-0.007549	2.095749	-0.245038
Zn12	Zn	0.325784	2.429083	0.088295
O13	O	-0.274293	1.859252	-0.465505
O14	O	0.059040	2.192585	-0.132172
O15	O	0.392373	2.525919	0.201162
O16	O	-0.207985	2.145633	-0.521112
O17	O	0.125348	2.478966	-0.187779
O18	O	0.458682	2.812299	0.145555
O19	O	-0.335209	1.914654	-0.179182
O20	O	-0.001876	2.247987	0.154151
O21	O	0.331458	2.581320	0.487484
O22	O	-0.101626	1.776410	-0.394414
O23	O	0.231707	2.109743	-0.061080
O24	O	0.565040	2.443077	0.272253
O25	O	-0.315208	2.133686	-0.366991
O26	O	0.018125	2.467019	-0.033658
O27	O	0.351459	2.800353	0.299675
O28	O	-0.086472	1.942367	-0.536714
O29	O	0.246861	2.275701	-0.203380
O30	O	0.580195	2.609034	0.129953
O31	O	-0.243141	1.760643	-0.191003
O32	O	0.090193	2.093976	0.142330
O33	O	0.423526	2.427309	0.475663
O34	O	-0.241556	1.572946	-0.409930
O35	O	0.091777	1.906280	-0.076597
O36	O	0.425110	2.239613	0.256736
O37	O	-0.312424	1.803775	-0.751796
O38	O	0.020910	2.137108	-0.418462
O39	O	0.354243	2.470442	-0.085129
O40	O	-0.332425	1.584743	-0.563987
O41	O	0.000909	1.918076	-0.230653
O42	O	0.334242	2.251409	0.102680
O43	O	-0.206401	1.957936	-0.740039
O44	O	0.126933	2.291270	-0.406706
O45	O	0.460266	2.624603	-0.073372
O46	O	-0.455138	1.930223	-0.382508
O47	O	-0.121805	2.263556	-0.049174
O48	O	0.211529	2.596889	0.284159
O49	O	-0.453938	1.788008	-0.548385
O50	O	-0.120604	2.121341	-0.215052
O51	O	0.212729	2.454675	0.118281
C52	C	-0.289052	1.533328	-0.490442
C53	C	0.044281	1.866661	-0.157108
C54	C	0.377614	2.199995	0.176225
C55	C	-0.295384	1.393899	-0.501139
C56	C	0.037949	1.727232	-0.167806
C57	C	0.371283	2.060565	0.165527
C58	C	-0.483793	1.859129	-0.465462
C59	C	-0.150459	2.192462	-0.132128
C60	C	0.182874	2.525796	0.201205
C61	C	-0.573410	1.859195	-0.465476
C62	C	-0.240076	2.192528	-0.132143
C63	C	0.093257	2.525861	0.201190
C64	C	-0.901568	1.859424	-0.465590
C65	C	-0.568235	2.192757	-0.132257
C66	C	-0.234902	2.526090	0.201077
C67	C	-0.810265	1.859356	-0.465562
C68	C	-0.476931	2.192689	-0.132229
C69	C	-0.143598	2.526023	0.201104
C70	C	-0.737492	1.859308	-0.465533
C71	C	-0.404159	2.192641	-0.132199
C72	C	-0.070825	2.525975	0.201134
C73	C	-0.646182	1.859243	-0.465506
C74	C	-0.312849	2.192576	-0.132173
C75	C	0.020484	2.525909	0.201161
C76	C	-0.063973	1.859411	-0.465574
C77	C	0.269360	2.192745	-0.132240
C78	C	0.602693	2.526078	0.201093
C79	C	0.025653	1.859479	-0.465603
C80	C	0.358986	2.192813	-0.132269
C81	C	0.692319	2.526146	0.201064
C82	C	-0.256929	1.884460	-0.792707
C83	C	0.076404	2.217794	-0.459374
C84	C	0.409738	2.551127	-0.126041
C85	C	-0.249529	1.895203	-0.932141
C86	C	0.083804	2.228536	-0.598808
C87	C	0.417137	2.561869	-0.265475
C88	C	-0.259478	2.186449	-0.440472
C89	C	0.073856	2.519782	-0.107139
C90	C	0.407189	2.853115	0.226195
C91	C	-0.253164	2.325880	-0.429804
C92	C	0.080169	2.659214	-0.096471
C93	C	0.413503	2.992547	0.236862
C94	C	-0.291529	1.834214	-0.139570
C95	C	0.041804	2.167547	0.193763
C96	C	0.375138	2.500880	0.527096
C97	C	-0.298690	1.823714	-0.000118
C98	C	0.034643	2.157048	0.333215
C99	C	0.367976	2.490381	0.666548
H100	H	-0.336375	1.345464	-0.570395
H101	H	-0.003042	1.678797	-0.237061
H102	H	0.330292	2.012131	0.096272
H103	H	-0.201780	1.964635	-0.980621
H104	H	0.131554	2.297968	-0.647287
H105	H	0.464887	2.631302	-0.313954
F106	F	-0.199589	1.389189	-0.339264
F107	F	0.133744	1.722522	-0.005931
F108	F	0.467078	2.055856	0.327403
H109	H	-0.346442	1.754296	-0.951645
H110	H	-0.013109	2.087629	-0.618311
H111	H	0.320224	2.420962	-0.284978
