data_functionalizedCrystal
_audit_creation_method	'MofGen! by Chris Wilmer'
_symmetry_space_group_name_H-M	'P1'
_symmetry_Int_Tables_number	1
_symmetry_cell_setting	triclinic
loop_
_symmetry_equiv_pos_as_xyz
  x,y,z
_cell_length_a	10.489741
_cell_length_b	10.489741
_cell_length_c	9.565339
_cell_angle_alpha	89.999484
_cell_angle_beta	89.999100
_cell_angle_gamma	95.460826
loop_
_atom_site_label
_atom_site_type_symbol
_atom_site_fract_x
_atom_site_fract_y
_atom_site_fract_z
O1	O	1.694053	-0.179959	-0.116173
O2	O	1.322857	-0.196852	-0.116194
O3	O	1.516901	-0.002807	-0.116175
O4	O	1.500009	-0.374003	-0.116192
O5	O	1.516886	-0.002819	0.116345
O6	O	1.322842	-0.196864	0.116326
O7	O	1.694038	-0.179971	0.116347
Zn8	Zn	1.508437	-0.188419	0.153254
Zn9	Zn	1.508458	-0.188403	-0.153101
O10	O	1.499993	-0.374015	0.116328
C11	C	1.275318	-0.195582	0.000063
C12	C	1.133688	-0.191765	0.000055
C13	C	1.065548	-0.068300	0.000074
C14	C	0.973429	-0.126617	-0.114571
C15	C	0.973448	-0.126659	0.114676
C16	C	1.043435	-0.250133	-0.114684
C17	C	1.043463	-0.250157	0.114665
C18	C	0.951371	-0.308564	-0.000007
C19	C	1.515618	0.044718	0.000084
C20	C	1.511801	0.186348	0.000082
C21	C	1.741577	-0.181241	0.000087
C22	C	1.883206	-0.185058	0.000086
C23	C	1.501277	-0.421541	0.000066
C24	C	1.505094	-0.563170	0.000059
N25	N	1.508433	-0.188429	0.362334
C26	C	1.388336	0.254488	0.000064
C27	C	1.446652	0.346604	0.114712
C28	C	1.446696	0.346591	-0.114534
C29	C	1.570168	0.276599	0.114824
C30	C	1.570195	0.276576	-0.114525
C31	C	1.628600	0.368665	0.000150
N32	N	1.508472	-0.188383	-0.362180
C33	C	1.418666	-0.278138	0.453528
C34	C	1.534163	-0.303949	0.546712
C35	C	1.392986	-0.162629	0.546704
C36	C	1.623988	-0.214298	0.453466
C37	C	1.482735	-0.072928	0.453451
C38	C	1.598314	-0.098690	0.546593
H39	H	1.115238	0.033196	-0.000065
H40	H	1.394405	0.377611	0.211633
N41	N	1.753361	-0.243346	0.399455
H42	H	1.811971	-0.256442	0.480916
H43	H	1.791410	-0.169363	0.340556
H44	H	1.674328	-0.022802	0.587199
N45	N	0.932349	-0.057425	-0.242955
H46	H	0.974281	0.033331	-0.242871
H47	H	0.836196	-0.056182	-0.242384
H48	H	1.074269	-0.302328	-0.211717
H49	H	0.901947	-0.410168	-0.000074
N50	N	1.318192	-0.378708	0.399403
H51	H	1.337791	-0.465908	0.433335
H52	H	1.318371	-0.377362	0.293828
N53	N	1.763173	0.434157	0.000234
H54	H	1.810200	0.407566	-0.085516
H55	H	1.809516	0.408695	0.086925
N56	N	1.562989	-0.433304	0.600974
H57	H	1.489310	-0.470913	0.660590
H58	H	1.643763	-0.423262	0.658992
H59	H	1.460936	0.024699	0.412454
H60	H	1.295338	-0.140828	0.587664
N61	N	1.084540	-0.319342	0.243046
H62	H	1.059341	-0.272640	0.329609
H63	H	1.180503	-0.322151	0.241502
H64	H	0.942463	-0.074401	0.211599
N65	N	1.639273	0.235742	0.243367
H66	H	1.592971	0.261804	0.329841
H67	H	1.729754	0.278371	0.243663
N68	N	1.253875	0.188720	0.000199
H69	H	1.240954	0.132818	0.085963
H70	H	1.240378	0.134121	-0.086477
N71	N	1.639354	0.235459	-0.242907
H72	H	1.592645	0.260645	-0.329469
H73	H	1.642136	0.139493	-0.241330
H74	H	1.394447	0.377560	-0.211470
