data_functionalizedCrystal
_audit_creation_method	'MofGen! by Chris Wilmer'
_symmetry_space_group_name_H-M	'P1'
_symmetry_Int_Tables_number	1
_symmetry_cell_setting	triclinic
loop_
_symmetry_equiv_pos_as_xyz
  x,y,z
_cell_length_a	17.077404
_cell_length_b	10.685194
_cell_length_c	17.077396
_cell_angle_alpha	85.602381
_cell_angle_beta	89.978556
_cell_angle_gamma	94.375108
loop_
_atom_site_label
_atom_site_type_symbol
_atom_site_fract_x
_atom_site_fract_y
_atom_site_fract_z
Zn1	Zn	1.176177	-0.502467	-0.419923
Zn2	Zn	1.166056	-0.713513	-0.278593
Zn3	Zn	1.044907	-0.502504	-0.288665
Zn4	Zn	1.034852	-0.713431	-0.409816
O5	O	1.105498	-0.607979	-0.349249
O6	O	1.284681	-0.530482	-0.401190
O7	O	1.149957	-0.685573	-0.170080
O8	O	1.070765	-0.325902	-0.314521
O9	O	1.277244	-0.685537	-0.297356
O10	O	1.167208	-0.325875	-0.410956
O11	O	1.060950	-0.530545	-0.177480
O12	O	0.933728	-0.530465	-0.304721
O13	O	1.053627	-0.685397	-0.521006
O14	O	0.926340	-0.685433	-0.393731
O15	O	1.157458	-0.530402	-0.528432
O16	O	1.140207	-0.890100	-0.287556
O17	O	1.043813	-0.890039	-0.383965
C18	C	0.901552	-0.607945	-0.349223
C19	C	0.814301	-0.607961	-0.349228
C20	C	1.089842	-0.935859	-0.333588
C21	C	1.083215	-1.076128	-0.326914
C22	C	0.442347	-0.527422	-0.403416
C23	C	0.524328	-0.527413	-0.403408
C24	C	0.561450	-0.608006	-0.349268
C25	C	0.516587	-0.688622	-0.295138
C26	C	0.434608	-0.688637	-0.295150
C27	C	0.687459	-0.688584	-0.295114
C28	C	0.769444	-0.688568	-0.295101
C29	C	0.777179	-0.527360	-0.403372
C30	C	0.695200	-0.527375	-0.403385
C31	C	0.650342	-0.607990	-0.349253
C32	C	1.310241	-0.608014	-0.349277
C33	C	1.397490	-0.608029	-0.349289
C34	C	1.105550	-0.607886	-0.553998
C35	C	1.105572	-0.607847	-0.641250
C36	C	1.121237	-0.278819	-0.364989
C37	C	1.127944	-0.138550	-0.371697
C38	C	1.159639	-0.527134	-0.686108
C39	C	1.159651	-0.527092	-0.768091
C40	C	1.105598	-0.607770	-0.805213
C41	C	1.051526	-0.688486	-0.760349
C42	C	1.051511	-0.688520	-0.678368
C43	C	1.051561	-0.688410	-0.931223
C44	C	1.051576	-0.688377	-1.013209
C45	C	1.159700	-0.526982	-1.020945
C46	C	1.159686	-0.527016	-0.938964
C47	C	1.105614	-0.607734	-0.894106
C48	C	1.105496	-0.607981	-0.145302
C49	C	1.105643	-0.607665	-0.058067
H50	H	0.412128	-0.461786	-0.447499
H51	H	1.007518	-0.754119	-0.894702
H52	H	1.203726	-0.461256	-1.057473
H53	H	1.171309	-1.084685	-0.415147
H54	H	1.007477	-0.754232	-0.641846
H55	H	0.650938	-0.754235	-0.251038
H56	H	1.203679	-0.461371	-0.804611
F57	F	1.026523	-1.146538	-0.270125
H58	H	0.560847	-0.461779	-0.447487
H59	H	1.007560	-0.754069	-1.043432
H60	H	1.203657	-0.461441	-0.655889
F61	F	0.556098	-0.774401	-0.237521
H62	H	1.203704	-0.461329	-0.908741
H63	H	0.664977	-0.461744	-0.447467
F64	F	0.386867	-0.774438	-0.237545
F65	F	0.993996	-0.774344	-0.799860
H66	H	0.813706	-0.461719	-0.447447
H67	H	0.799667	-0.754197	-0.251017
