data_functionalizedCrystal
_audit_creation_method	'MofGen! by Chris Wilmer'
_symmetry_space_group_name_H-M	'P1'
_symmetry_Int_Tables_number	1
_symmetry_cell_setting	triclinic
loop_
_symmetry_equiv_pos_as_xyz
  x,y,z
_cell_length_a	12.970454
_cell_length_b	12.970454
_cell_length_c	12.970454
_cell_angle_alpha	89.998716
_cell_angle_beta	119.999186
_cell_angle_gamma	120.000007
loop_
_atom_site_label
_atom_site_type_symbol
_atom_site_fract_x
_atom_site_fract_y
_atom_site_fract_z
Zr1	Zr	-1.128486	0.993248	-0.135288
O2	O	-1.343571	0.828630	-0.299904
O3	O	-0.913400	1.043709	-0.084828
O4	O	-1.128485	1.043716	-0.299913
O5	O	-1.128488	0.828622	0.084847
O6	O	-1.128484	1.213383	-0.299915
O7	O	-1.128487	0.828623	-0.084820
O8	O	-0.743737	1.213372	0.084832
O9	O	-1.513234	0.828634	-0.299900
O10	O	-1.001867	1.191855	-0.063305
O11	O	-1.001869	1.065234	0.063317
O12	O	-1.255103	1.065241	-0.189917
O13	O	-1.255104	0.938619	-0.063295
Zr14	Zr	-1.128486	1.263846	0.135306
Zr15	Zr	-1.128484	1.263848	-0.135292
Zr16	Zr	-1.128487	0.993247	0.135310
Zr17	Zr	-1.399079	0.993255	-0.135282
Zr18	Zr	-0.857893	1.263840	0.135300
O19	O	-1.343571	1.213386	0.084846
O20	O	-1.343569	1.213388	-0.299910
O21	O	-1.343573	0.828627	0.084852
O22	O	-0.913400	1.428465	0.299922
O23	O	-0.913398	1.428468	-0.084834
O24	O	-0.913403	1.043707	0.299928
O25	O	-1.128484	1.428473	-0.084829
O26	O	-1.128487	1.213379	0.299931
O27	O	-1.128488	1.043712	0.299933
O28	O	-1.128485	1.428471	0.084838
O29	O	-1.513233	1.043725	-0.299904
O30	O	-0.743739	1.213370	0.299922
O31	O	-0.743737	1.428461	0.299918
O32	O	-0.743736	1.428462	0.084829
O33	O	-1.513235	0.828632	-0.084810
O34	O	-1.513234	1.043723	-0.084814
O35	O	-1.001869	1.191854	0.189935
O36	O	-1.001867	1.318475	0.063313
O37	O	-1.255103	1.191861	-0.063299
O38	O	-1.255104	1.065240	0.063323
C39	C	-0.790015	1.128540	0.000001
C40	C	-0.675141	1.128537	-0.000002
C41	C	-1.128488	0.790068	0.000014
C42	C	-1.128488	0.675191	0.000016
C43	C	-0.466961	1.128550	0.000013
C44	C	-0.581847	1.128538	0.000005
C45	C	-1.128484	1.128550	-0.338468
C46	C	-1.128483	1.128551	-0.453345
C47	C	-1.128484	1.467027	0.000004
C48	C	-1.128483	1.581904	0.000002
C49	C	-1.128488	1.128545	0.338487
C50	C	-1.128488	1.128544	0.453363
C51	C	-0.790013	1.467019	-0.000004
C52	C	-0.675139	1.581893	-0.000009
C53	C	-0.790017	1.128537	0.338479
C54	C	-0.675144	1.128534	0.453352
C55	C	-0.790015	1.467016	0.338473
C56	C	-0.675141	1.581890	0.453345
C57	C	-1.466956	0.790078	-0.338455
C58	C	-1.581830	0.675205	-0.453327
C59	C	-1.466958	0.790076	0.000022
C60	C	-1.581832	0.675202	0.000027
C61	C	-1.466954	1.128558	-0.338460
C62	C	-1.581828	1.128561	-0.453334
