data_functionalizedCrystal
_audit_creation_method	'MofGen! by Chris Wilmer'
_symmetry_space_group_name_H-M	'P1'
_symmetry_Int_Tables_number	1
_symmetry_cell_setting	triclinic
loop_
_symmetry_equiv_pos_as_xyz
  x,y,z
_cell_length_a	10.540510
_cell_length_b	10.540510
_cell_length_c	9.130313
_cell_angle_alpha	90.001199
_cell_angle_beta	89.999498
_cell_angle_gamma	84.513311
loop_
_atom_site_label
_atom_site_type_symbol
_atom_site_fract_x
_atom_site_fract_y
_atom_site_fract_z
O1	O	1.685883	0.178717	-0.121800
O2	O	1.316463	0.195613	-0.121800
O3	O	1.509621	0.002455	-0.121799
O4	O	1.492725	0.371875	-0.121800
O5	O	1.509618	0.002460	0.121800
O6	O	1.316461	0.195618	0.121799
O7	O	1.685881	0.178722	0.121799
Cu8	Cu	1.501170	0.187171	0.144042
Cu9	Cu	1.501173	0.187164	-0.144042
O10	O	1.492723	0.371880	0.121798
C11	C	1.269159	0.194356	-0.000001
C12	C	1.128209	0.190589	-0.000001
C13	C	0.910739	0.324775	-0.000561
C14	C	1.057334	0.328793	-0.000003
C15	C	1.083455	0.119845	0.139103
C16	C	0.936695	0.116806	0.139210
C17	C	0.936892	0.113922	-0.137807
C18	C	1.083232	0.120477	-0.139637
C19	C	1.508361	-0.044846	-0.000003
C20	C	1.504594	-0.185795	-0.000012
C21	C	1.638780	-0.403265	0.000546
C22	C	1.642798	-0.256670	-0.000010
C23	C	1.433848	-0.230549	-0.139116
C24	C	1.430809	-0.377310	-0.139225
C25	C	1.427928	-0.377112	0.137793
C26	C	1.434483	-0.230772	0.139624
C27	C	1.733185	0.179979	-0.000003
C28	C	1.874135	0.183746	-0.000013
C29	C	1.493983	0.419181	-0.000001
C30	C	1.497750	0.560130	-0.000002
N31	N	1.501178	0.187174	0.346664
N32	N	1.501176	0.187151	-0.346665
C33	C	1.586730	0.101673	0.423316
C34	C	1.586727	0.101658	0.576653
C35	C	1.415614	0.272656	0.576672
C36	C	1.415613	0.272664	0.423338
C37	C	1.672295	0.016184	0.346643
C38	C	1.757855	-0.069323	0.423295
C39	C	1.757852	-0.069338	0.576632
C40	C	1.672288	0.016153	0.653316
H41	H	1.086675	0.384138	-0.099722
N42	N	1.328245	0.360003	0.345007
N43	N	1.328260	0.359995	0.208103
H44	H	1.266553	0.421676	0.152778
N45	N	1.845221	-0.156709	0.654918
N46	N	1.842430	-0.274062	0.637756
H47	H	1.904139	-0.335774	0.693038
N48	N	1.672316	0.016218	0.190015
N49	N	1.770575	0.038179	0.121588
H50	H	1.770592	0.038209	0.010969
N51	N	1.144781	-0.006106	-0.150218
N52	N	1.212021	-0.038045	-0.259329
H53	H	1.255487	-0.127451	-0.266798
N54	N	0.909116	-0.016247	-0.139029
N55	N	0.950544	-0.088676	-0.240167
H56	H	0.930921	-0.180605	-0.241024
N57	N	1.495477	-0.191888	-0.269003
N58	N	1.453327	-0.218619	-0.392030
H59	H	1.496858	-0.191319	-0.483763
H60	H	1.345953	0.342261	0.639119
N61	N	1.705928	-0.457856	-0.123895
N62	N	1.650368	-0.523603	-0.212984
H63	H	1.697788	-0.562160	-0.300874
H64	H	0.896472	0.165157	0.243192
H65	H	1.692621	-0.445224	0.100305
N66	N	1.499028	-0.194832	0.268721
N67	N	1.441572	-0.122710	0.360738
H68	H	1.487156	-0.097310	0.451909
N69	N	1.119154	0.185028	-0.268737
N70	N	1.191267	0.127583	-0.360769
H71	H	1.216647	0.173175	-0.451943
N72	N	0.856185	0.391956	0.123878
N73	N	0.874242	0.506204	0.143535
H74	H	0.835713	0.553651	0.231421
N75	N	1.712239	-0.219874	0.125083
N76	N	1.758070	-0.302537	0.213409
H77	H	1.807122	-0.276557	0.301758
H78	H	1.130856	0.018102	0.144277
N79	N	1.482727	-0.430373	0.270053
N80	N	1.573917	-0.515243	0.264357
H81	H	1.612631	-0.552863	0.357758
H82	H	1.114304	0.168980	0.242624
H83	H	1.698475	-0.228273	-0.099897
N84	N	1.306213	-0.171086	-0.145593
N85	N	1.265871	-0.094875	-0.047526
H86	H	1.175728	-0.052876	-0.052096
H87	H	1.324163	-0.399251	0.138730
N88	N	0.858117	0.392319	-0.125716
N89	N	0.887971	0.353803	-0.251696
H90	H	0.850800	0.401505	-0.340094
N91	N	1.845230	-0.156651	0.344949
N92	N	1.845221	-0.156631	0.208045
H93	H	1.906929	-0.218310	0.152713
H94	H	1.672284	0.016125	0.778173
N95	N	1.092938	0.398743	0.125235
N96	N	1.009467	0.444732	0.212510
H97	H	1.034605	0.494174	0.300940
N98	N	0.907832	-0.012856	0.147133
N99	N	0.845304	-0.058630	0.047082
H100	H	0.824923	-0.150203	0.052683
H101	H	0.894340	0.157503	-0.243241
N102	N	1.307927	-0.169149	0.150139
N103	N	1.229225	-0.182540	0.050239
H104	H	1.139849	-0.138994	0.057653
N105	N	1.491462	-0.427758	-0.269674
N106	N	1.535740	-0.354542	-0.360000
H107	H	1.578580	-0.390164	-0.452134
H108	H	1.327440	-0.400294	-0.145527
