data_functionalizedCrystal
_audit_creation_method	'MofGen! by Chris Wilmer'
_symmetry_space_group_name_H-M	'P1'
_symmetry_Int_Tables_number	1
_symmetry_cell_setting	triclinic
loop_
_symmetry_equiv_pos_as_xyz
  x,y,z
_cell_length_a	8.597366
_cell_length_b	14.519709
_cell_length_c	12.996460
_cell_angle_alpha	89.998766
_cell_angle_beta	97.695693
_cell_angle_gamma	84.511450
loop_
_atom_site_label
_atom_site_type_symbol
_atom_site_fract_x
_atom_site_fract_y
_atom_site_fract_z
O1	O	2.082775	0.137647	0.099081
O2	O	2.332775	0.387647	0.349081
O3	O	2.582775	0.637647	0.599081
O4	O	2.832775	0.887647	0.849081
O5	O	1.625883	0.148207	0.058572
O6	O	1.875883	0.398207	0.308572
O7	O	2.125883	0.648207	0.558572
O8	O	2.375883	0.898207	0.808572
O9	O	1.866443	0.008786	0.079910
O10	O	2.116443	0.258786	0.329910
O11	O	2.366443	0.508786	0.579910
O12	O	2.616443	0.758786	0.829910
O13	O	1.842215	0.277068	0.077743
O14	O	2.092215	0.527068	0.327743
O15	O	2.342215	0.777068	0.577743
O16	O	2.592215	1.027068	0.827743
O17	O	1.866412	0.008794	0.251041
O18	O	2.116412	0.258794	0.501041
O19	O	2.366412	0.508794	0.751041
O20	O	2.616412	0.758794	1.001041
O21	O	1.625852	0.148215	0.229704
O22	O	1.875852	0.398215	0.479704
O23	O	2.125852	0.648215	0.729704
O24	O	2.375852	0.898215	0.979704
O25	O	2.082744	0.137655	0.270212
O26	O	2.332744	0.387655	0.520212
O27	O	2.582744	0.637655	0.770212
O28	O	2.832744	0.887655	1.020212
Cu29	Cu	1.854295	0.142936	0.265583
Cu30	Cu	2.104295	0.392936	0.515583
Cu31	Cu	2.354295	0.642936	0.765583
Cu32	Cu	2.604295	0.892936	1.015583
Cu33	Cu	1.854332	0.142926	0.063201
Cu34	Cu	2.104332	0.392926	0.313201
Cu35	Cu	2.354332	0.642926	0.563201
Cu36	Cu	2.604332	0.892926	0.813201
O37	O	1.842184	0.277076	0.248874
O38	O	2.092184	0.527076	0.498874
O39	O	2.342184	0.777076	0.748874
O40	O	2.592184	1.027076	0.998874
C41	C	1.567394	0.147077	0.138954
C42	C	1.817394	0.397077	0.388954
C43	C	2.067394	0.647077	0.638954
C44	C	2.317394	0.897077	0.888954
C45	C	1.393162	0.143686	0.123507
C46	C	1.643162	0.393686	0.373507
C47	C	1.893162	0.643686	0.623507
C48	C	2.143162	0.893686	0.873507
C49	C	1.865298	-0.025579	0.165376
C50	C	2.115298	0.224421	0.415376
C51	C	2.365298	0.474421	0.665376
C52	C	2.615298	0.724421	0.915376
C53	C	1.861915	-0.127987	0.165076
C54	C	2.111915	0.122013	0.415076
C55	C	2.361915	0.372013	0.665076
C56	C	2.611915	0.622013	0.915076
C57	C	1.849458	-0.502983	0.163945
C58	C	2.099458	-0.252983	0.413945
C59	C	2.349458	-0.002983	0.663945
C60	C	2.599458	0.247017	0.913945
C61	C	1.852917	-0.398648	0.164259
C62	C	2.102917	-0.148648	0.414259
C63	C	2.352917	0.101352	0.664259
C64	C	2.602917	0.351352	0.914259
C65	C	1.855686	-0.315489	0.164512
C66	C	2.105686	-0.065489	0.414512
C67	C	2.355686	0.184511	0.664512
C68	C	2.605686	0.434511	0.914512
C69	C	1.859146	-0.211146	0.164824
C70	C	2.109146	0.038854	0.414824
C71	C	2.359146	0.288854	0.664824
C72	C	2.609146	0.538854	0.914824
C73	C	2.141233	0.138785	0.189828
C74	C	2.391233	0.388785	0.439828
C75	C	2.641233	0.638785	0.689828
C76	C	2.891233	0.888785	0.939828
C77	C	2.315465	0.142176	0.205269
C78	C	2.565465	0.392176	0.455269
C79	C	2.815465	0.642176	0.705269
C80	C	3.065465	0.892176	0.955269
C81	C	1.843329	0.311441	0.163407
C82	C	2.093329	0.561441	0.413407
C83	C	2.343329	0.811441	0.663407
C84	C	2.593329	1.061441	0.913407
C85	C	1.846712	0.413849	0.163699
C86	C	2.096712	0.663849	0.413699
C87	C	2.346712	0.913849	0.663699
C88	C	2.596712	1.163849	0.913699
N89	N	1.854281	0.142942	0.407929
N90	N	2.104281	0.392942	0.657929
N91	N	2.354281	0.642942	0.907929
N92	N	2.604281	0.892942	1.157929
N93	N	1.854358	0.142913	-0.079144
N94	N	2.104358	0.392913	0.170856
N95	N	2.354358	0.642913	0.420856
N96	N	2.604358	0.892913	0.670856
C97	C	1.854288	0.142944	0.501036
C98	C	2.104288	0.392944	0.751036
C99	C	2.354288	0.642944	1.001036
C100	C	2.604288	0.892944	1.251036
C101	C	1.854302	0.142938	0.617842
C102	C	2.104302	0.392938	0.867842
C103	C	2.354302	0.642938	1.117842
C104	C	2.604302	0.892938	1.367842
C105	C	1.854322	0.142928	0.710942
C106	C	2.104322	0.392928	0.960942
C107	C	2.354322	0.642928	1.210942
C108	C	2.604322	0.892928	1.460942
C109	C	1.854339	0.142923	0.827756
C110	C	2.104339	0.392923	1.077756
C111	C	2.354339	0.642923	1.327756
C112	C	2.604339	0.892923	1.577756
H113	H	1.326392	0.142378	0.041683
H114	H	1.576392	0.392378	0.291683
H115	H	1.826392	0.642378	0.541683
H116	H	2.076392	0.892378	0.791683
H117	H	1.382244	0.143477	0.287098
H118	H	1.632244	0.393477	0.537098
H119	H	1.882244	0.643477	0.787098
H120	H	2.132244	0.893477	1.037098
