data_functionalizedCrystal
_audit_creation_method	'MofGen! by Chris Wilmer'
_symmetry_space_group_name_H-M	'P1'
_symmetry_Int_Tables_number	1
_symmetry_cell_setting	triclinic
loop_
_symmetry_equiv_pos_as_xyz
  x,y,z
_cell_length_a	12.594517
_cell_length_b	12.594516
_cell_length_c	12.759387
_cell_angle_alpha	89.969834
_cell_angle_beta	89.983812
_cell_angle_gamma	90.011773
loop_
_atom_site_label
_atom_site_type_symbol
_atom_site_fract_x
_atom_site_fract_y
_atom_site_fract_z
Zn1	Zn	1.627318	-0.423687	-0.593889
Zn2	Zn	1.627216	-0.601705	-0.418211
Zn3	Zn	1.449316	-0.423740	-0.418239
Zn4	Zn	1.449317	-0.601624	-0.593863
O5	O	1.538292	-0.512689	-0.506050
O6	O	1.776250	-0.447313	-0.570584
O7	O	1.603574	-0.578153	-0.271193
O8	O	1.472970	-0.274788	-0.441561
O9	O	1.776175	-0.578102	-0.441514
O10	O	1.603748	-0.274749	-0.570610
O11	O	1.472872	-0.447404	-0.271214
O12	O	1.300370	-0.447326	-0.441537
O13	O	1.472973	-0.577964	-0.740888
O14	O	1.300371	-0.578016	-0.570567
O15	O	1.603749	-0.447235	-0.740906
O16	O	1.603575	-0.750640	-0.441489
O17	O	1.472874	-0.750580	-0.570540
C18	C	1.261751	-0.512668	-0.506053
C19	C	1.143445	-0.512685	-0.506079
C20	C	1.003460	-0.583897	-0.576129
C21	C	1.074229	-0.609808	-0.480242
C22	C	1.074248	-0.486821	-0.601954
C23	C	1.003429	-0.538682	-0.410111
C24	C	1.003441	-0.415649	-0.531887
C25	C	1.074179	-0.441524	-0.435935
C26	C	1.538243	-0.789230	-0.506032
C27	C	1.538319	-0.907535	-0.506059
C28	C	1.609490	-0.976782	-0.435943
C29	C	1.635504	-1.047475	-0.531834
C30	C	1.512438	-1.047642	-0.410230
C31	C	1.564382	-0.976670	-0.602001
C32	C	1.441272	-0.976831	-0.480331
C33	C	1.467248	-1.047491	-0.576288
C34	C	1.815913	-0.512710	-0.506048
C35	C	1.934218	-0.512720	-0.506048
C36	C	1.538372	-0.512585	-0.780084
C37	C	1.538406	-0.512540	-0.896861
C38	C	1.538370	-0.235068	-0.506092
C39	C	1.538404	-0.116763	-0.506109
C40	C	1.674593	-0.376421	-0.896900
C41	C	1.742701	-0.308345	-0.951780
C42	C	1.742727	-0.308306	-1.061502
C43	C	1.674635	-0.376348	-1.116346
C44	C	1.606527	-0.444424	-1.061465
C45	C	1.606511	-0.444458	-0.951741
C46	C	1.470337	-0.580536	-1.061426
C47	C	1.470315	-0.580582	-0.951705
C48	C	1.402245	-0.648578	-1.116270
C49	C	1.334140	-0.716661	-1.061390
C50	C	1.334118	-0.716698	-0.951661
C51	C	1.402206	-0.648658	-0.896824
C52	C	1.538273	-0.512716	-0.233083
C53	C	1.538445	-0.512461	-0.116307
H54	H	0.972452	-0.560672	-0.328994
O55	O	1.402262	-0.648532	-1.234613
H56	H	1.423736	-0.728810	-1.263531
H57	H	1.402199	-0.648686	-0.807483
H58	H	1.105034	-0.381317	-0.376615
O59	O	1.115425	-0.718521	-0.451296
H60	H	1.085827	-0.740505	-0.372263
H61	H	1.798180	-0.252866	-1.106185
O62	O	1.744262	-1.088585	-0.560699
H63	H	1.738534	-1.136995	-0.633144
O64	O	0.962307	-0.663706	-0.654505
H65	H	1.030306	-0.703954	-0.693010
H66	H	0.972324	-0.333597	-0.553764
H67	H	1.407098	-1.078343	-0.635673
H68	H	1.490513	-1.078815	-0.329167
H69	H	1.105355	-0.464930	-0.683048
O70	O	1.674566	-0.376469	-0.778557
H71	H	1.733350	-0.317718	-0.749641
O72	O	1.689217	-0.935638	-0.357471
H73	H	1.769749	-0.963928	-0.379106
H74	H	1.278644	-0.772122	-0.906984
O75	O	1.593564	-0.935567	-0.709410
H76	H	1.593342	-0.847443	-0.708534
H77	H	1.359188	-0.945774	-0.458513
O78	O	1.816152	-0.234967	-0.892631
H79	H	1.804706	-0.246436	-0.807115
H80	H	1.674654	-0.376302	-1.205687
O81	O	1.260698	-0.790038	-1.120537
H82	H	1.272156	-0.778571	-1.206053
