data_functionalizedCrystal
_audit_creation_method	'MofGen! by Chris Wilmer'
_symmetry_space_group_name_H-M	'P1'
_symmetry_Int_Tables_number	1
_symmetry_cell_setting	triclinic
loop_
_symmetry_equiv_pos_as_xyz
  x,y,z
_cell_length_a	11.792254
_cell_length_b	11.792241
_cell_length_c	7.540329
_cell_angle_alpha	89.996256
_cell_angle_beta	89.997091
_cell_angle_gamma	84.196007
loop_
_atom_site_label
_atom_site_type_symbol
_atom_site_fract_x
_atom_site_fract_y
_atom_site_fract_z
O1	O	1.506898	0.155635	-0.147482
O2	O	2.006898	0.655635	0.352518
O3	O	1.176559	0.171653	-0.147486
O4	O	1.676559	0.671653	0.352514
O5	O	1.349745	-0.001527	-0.147471
O6	O	1.849745	0.498473	0.352529
O7	O	1.333712	0.328814	-0.147496
O8	O	1.833712	0.828814	0.352504
O9	O	1.349734	-0.001529	0.147494
O10	O	1.849734	0.498471	0.647494
O11	O	1.176548	0.171650	0.147479
O12	O	1.676548	0.671650	0.647479
O13	O	1.506887	0.155632	0.147483
O14	O	2.006887	0.655632	0.647483
Cu15	Cu	1.341717	0.163641	0.174414
Cu16	Cu	1.841717	0.663641	0.674414
Cu17	Cu	1.341729	0.163644	-0.174416
Cu18	Cu	1.841729	0.663644	0.325584
O19	O	1.333701	0.328812	0.147469
O20	O	1.833701	0.828812	0.647469
C21	C	1.134263	0.170642	-0.000004
C22	C	1.634263	0.670642	0.499996
C23	C	1.008250	0.167622	-0.000005
C24	C	1.508250	0.667622	0.499995
C25	C	0.905913	0.165168	-0.000012
C26	C	1.405913	0.665168	0.499988
C27	C	0.777527	0.162100	-0.000013
C28	C	1.277527	0.662100	0.499987
C29	C	1.348732	-0.043819	0.000011
C30	C	1.848732	0.456181	0.500011
C31	C	1.345718	-0.169832	0.000009
C32	C	1.845718	0.330168	0.500009
C33	C	1.340175	-0.400545	-0.000021
C34	C	1.840175	0.099455	0.499979
C35	C	1.343255	-0.272160	-0.000004
C36	C	1.843255	0.227840	0.499996
C37	C	1.549183	0.156643	-0.000003
C38	C	2.049183	0.656643	0.499997
C39	C	1.675196	0.159663	-0.000013
C40	C	2.175196	0.659663	0.499987
C41	C	1.334714	0.371104	-0.000017
C42	C	1.834714	0.871104	0.499983
C43	C	1.337728	0.497118	-0.000027
C44	C	1.837728	0.997118	0.499973
N45	N	1.341717	0.163639	0.419763
N46	N	1.841717	0.663639	0.919763
N47	N	1.341738	0.163637	-0.419765
N48	N	1.841738	0.663637	0.080235
