data_functionalizedCrystal
_audit_creation_method	'MofGen! by Chris Wilmer'
_symmetry_space_group_name_H-M	'P1'
_symmetry_Int_Tables_number	1
_symmetry_cell_setting	triclinic
loop_
_symmetry_equiv_pos_as_xyz
  x,y,z
_cell_length_a	19.288859
_cell_length_b	14.971486
_cell_length_c	13.448316
_cell_angle_alpha	90.002827
_cell_angle_beta	89.994225
_cell_angle_gamma	83.373927
loop_
_atom_site_label
_atom_site_type_symbol
_atom_site_fract_x
_atom_site_fract_y
_atom_site_fract_z
O1	O	0.921715	0.111550	-0.082699
O2	O	1.421715	0.611550	0.417301
O3	O	0.719503	0.126608	-0.082696
O4	O	1.219503	0.626608	0.417304
O5	O	0.826029	-0.011150	-0.082705
O6	O	1.326029	0.488850	0.417295
O7	O	0.815189	0.249309	-0.082690
O8	O	1.315189	0.749309	0.417310
O9	O	0.826019	-0.011149	0.082679
O10	O	1.326019	0.488851	0.582679
O11	O	0.719493	0.126610	0.082688
O12	O	1.219493	0.626610	0.582688
O13	O	0.921705	0.111552	0.082684
O14	O	1.421705	0.611552	0.582684
Cu15	Cu	0.820598	0.119081	0.097787
Cu16	Cu	1.320598	0.619081	0.597787
Cu17	Cu	0.820610	0.119079	-0.097798
Cu18	Cu	1.320610	0.619079	0.402202
O19	O	0.815179	0.249310	0.082694
O20	O	1.315179	0.749310	0.582694
C21	C	0.693620	0.126125	-0.000003
C22	C	1.193620	0.626125	0.499997
C23	C	0.616511	0.124674	-0.000003
C24	C	1.116511	0.624674	0.499997
C25	C	0.052702	0.195684	0.000000
C26	C	0.552702	0.695684	0.500000
C27	C	0.125153	0.197056	-0.000005
C28	C	0.625153	0.697056	0.499995
C29	C	0.169596	0.116225	-0.000008
C30	C	0.669596	0.616225	0.499992
C31	C	0.141583	0.034017	-0.000031
C32	C	0.641583	0.534017	0.499969
C33	C	0.069133	0.032647	-0.000036
C34	C	0.569133	0.532647	0.499964
C35	C	0.290666	0.055943	0.057934
C36	C	0.790666	0.555943	0.557934
C37	C	0.363114	0.057316	0.057945
C38	C	0.863114	0.557316	0.557945
C39	C	0.393056	0.120446	0.000003
C40	C	0.893056	0.620446	0.500003
C41	C	0.350539	0.182218	-0.057938
C42	C	0.850539	0.682218	0.442062
C43	C	0.278089	0.180849	-0.057942
C44	C	0.778089	0.680849	0.442058
C45	C	0.248157	0.117701	-0.000003
C46	C	0.748157	0.617701	0.499997
C47	C	0.499620	0.204136	0.000013
C48	C	0.999620	0.704136	0.500013
C49	C	0.572073	0.205505	0.000002
C50	C	1.072073	0.705505	0.500002
C51	C	0.588502	0.042464	-0.000014
C52	C	1.088502	0.542464	0.499986
C53	C	0.516051	0.041098	-0.000013
C54	C	1.016051	0.541098	0.499987
C55	C	0.471614	0.121937	0.000006
C56	C	0.971614	0.621937	0.500006
C57	C	0.825539	-0.044472	-0.000017
C58	C	1.325539	0.455528	0.499983
C59	C	0.824086	-0.143761	-0.000029
C60	C	1.324086	0.356239	0.499971
C61	C	0.947588	0.112035	-0.000010
C62	C	1.447588	0.612035	0.499990
C63	C	1.024697	0.113486	-0.000017
C64	C	1.524697	0.613486	0.499983
C65	C	0.815669	0.282632	0.000004
C66	C	1.315669	0.782632	0.500004
C67	C	0.817122	0.381921	0.000009
C68	C	1.317122	0.881921	0.500009
N69	N	0.820594	0.119081	0.235351
N70	N	1.320594	0.619081	0.735351
C71	C	0.754541	0.439486	0.000009
C72	C	1.254541	0.939486	0.500009
C73	C	0.755910	0.532778	-0.000004
C74	C	1.255910	1.032778	0.499996
C75	C	0.819861	0.568503	-0.000011
C76	C	1.319861	1.068503	0.499989
C77	C	0.882446	0.510930	-0.000014
C78	C	1.382446	1.010930	0.499986
C79	C	0.881077	0.417640	-0.000008
C80	C	1.381077	0.917640	0.499992
C81	C	0.885297	0.705377	-0.000025
C82	C	1.385297	1.205377	0.499975
C83	C	0.886667	0.798674	-0.000029
C84	C	1.386667	1.298674	0.499971
C85	C	0.760130	0.820515	-0.000021
C86	C	1.260130	1.320515	0.499979
C87	C	0.758760	0.727225	-0.000015
C88	C	1.258760	1.227225	0.499985
C89	C	0.821347	0.669659	-0.000016
C90	C	1.321347	1.169659	0.499984
N91	N	0.820619	0.119072	-0.235363
N92	N	1.320619	0.619072	0.264637
C93	C	0.778451	0.064960	0.712597
C94	C	1.278451	0.564960	1.212597
C95	C	0.778449	0.064958	0.608493
C96	C	1.278449	0.564958	1.108493
C97	C	0.820611	0.119072	0.556433
C98	C	1.320611	0.619072	1.056433
C99	C	0.862784	0.173185	0.608481
C100	C	1.362784	0.673185	1.108481
C101	C	0.862790	0.173182	0.712582
C102	C	1.362790	0.673182	1.212582
C103	C	0.862768	0.173188	0.391501
C104	C	1.362768	0.673188	0.891501
C105	C	0.862762	0.173193	0.287392
C106	C	1.362762	0.673193	0.787392
C107	C	0.778428	0.064964	0.287412
C108	C	1.278428	0.564964	0.787412
C109	C	0.778433	0.064961	0.391513
C110	C	1.278433	0.564961	0.891513
C111	C	0.820605	0.119076	0.443554
C112	C	1.320605	0.619076	0.943554
H113	H	0.624687	-0.023350	-0.000024
H114	H	1.124687	0.476650	0.499976
O115	O	0.952801	0.643288	-0.000013
O116	O	1.452801	1.143288	0.499987
H117	H	0.955217	0.600255	-0.067419
H118	H	1.455217	1.100255	0.432581
H119	H	0.594872	0.272443	0.000008
H120	H	1.094872	0.772443	0.500008
H121	H	0.897117	0.217241	0.566085
H122	H	1.397117	0.717241	1.066085
O123	O	0.485837	-0.047558	-0.000008
O124	O	0.985837	0.452442	0.499992
H125	H	0.528911	-0.103536	0.000001
H126	H	1.028911	0.396464	0.500001
H127	H	0.744114	0.020899	0.754977
H128	H	1.244114	0.520899	1.254977
O129	O	0.955644	0.837204	-0.000050
O130	O	1.455644	1.337204	0.499950
H131	H	0.946079	0.911746	-0.000044
H132	H	1.446079	1.411746	0.499956
O133	O	0.732940	0.006594	0.231291
O134	O	1.232940	0.506594	0.731291
H135	H	0.747994	-0.064946	0.251276
H136	H	1.247994	0.435054	0.751276
O137	O	0.908243	0.231556	0.231248
O138	O	1.408243	0.731556	0.731248
H139	H	0.874980	0.279749	0.183842
H140	H	1.374980	0.779749	0.683842
H141	H	0.744097	0.020901	0.433898
H142	H	1.244097	0.520901	0.933898
O143	O	0.692623	0.882597	-0.000013
O144	O	1.192623	1.382597	0.499987
H145	H	0.662018	0.869915	-0.067408
H146	H	1.162018	1.369915	0.432592
H147	H	0.706686	0.698142	-0.000005
H148	H	1.206686	1.198142	0.499995
O149	O	0.382827	0.250310	-0.120439
O150	O	0.882827	0.750310	0.379561
H151	H	0.361962	0.319169	-0.096574
H152	H	0.861962	0.819169	0.403426
O153	O	0.908267	0.231548	0.768720
O154	O	1.408267	0.731548	1.268720
H155	H	0.937580	0.269185	0.715032
H156	H	1.437580	0.769185	1.215032
O157	O	0.688408	0.594862	0.000014
O158	O	1.188408	1.094862	0.500014
H159	H	0.657802	0.582180	-0.067380
H160	H	1.157802	1.082180	0.432620
H161	H	0.932037	0.370770	-0.000012
H162	H	1.432037	0.870770	0.499988
O163	O	0.258374	-0.012140	0.120448
O164	O	0.758374	0.487860	0.620448
H165	H	0.229619	-0.054936	0.071588
H166	H	0.729619	0.445064	0.571588
H167	H	0.397726	0.007021	0.105128
H168	H	0.897726	0.507021	0.605128
H169	H	0.177774	-0.031796	-0.000036
H170	H	0.677774	0.468204	0.499964
H171	H	0.934517	0.540025	-0.000017
H172	H	1.434517	1.040025	0.499983
O173	O	0.732963	0.006602	0.552360
O174	O	1.232963	0.506602	1.052360
H175	H	0.703638	-0.031017	0.606050
H176	H	1.203638	0.468983	1.106050
H177	H	0.016526	0.261509	0.000010
H178	H	0.516526	0.761509	0.500010
O179	O	0.155373	0.285714	0.000028
O180	O	0.655373	0.785714	0.500028
H181	H	0.112301	0.341695	0.000049
H182	H	0.612301	0.841695	0.500049
O183	O	0.232232	0.247472	-0.120427
O184	O	0.732232	0.747472	0.379573
H185	H	0.247068	0.238505	-0.199856
H186	H	0.747068	0.738505	0.300144
O187	O	0.908253	0.231550	0.447642
O188	O	1.408253	0.731550	0.947642
H189	H	0.893188	0.303093	0.427682
H190	H	1.393188	0.803093	0.927682
O191	O	0.451684	0.291320	0.000016
O192	O	0.951684	0.791320	0.500016
H193	H	0.483333	0.348710	0.000010
H194	H	0.983333	0.848710	0.500010
H195	H	0.046333	-0.034290	-0.000050
H196	H	0.546333	0.465710	0.499950
H197	H	0.702464	0.410407	0.000026
H198	H	1.202464	0.910407	0.500026
