data_functionalizedCrystal
_audit_creation_method	'MofGen! by Chris Wilmer'
_symmetry_space_group_name_H-M	'P1'
_symmetry_Int_Tables_number	1
_symmetry_cell_setting	triclinic
loop_
_symmetry_equiv_pos_as_xyz
  x,y,z
_cell_length_a	27.732048
_cell_length_b	19.288865
_cell_length_c	18.366186
_cell_angle_alpha	90.011479
_cell_angle_beta	90.003554
_cell_angle_gamma	82.889452
loop_
_atom_site_label
_atom_site_type_symbol
_atom_site_fract_x
_atom_site_fract_y
_atom_site_fract_z
O1	O	-0.641180	-0.082649	-0.060464
O2	O	-0.141180	0.417351	0.439536
O3	O	-0.500424	-0.095216	-0.060487
O4	O	-0.000424	0.404784	0.439513
O5	O	-0.574869	0.012223	-0.060461
O6	O	-0.074869	0.512223	0.439539
O7	O	-0.566735	-0.190088	-0.060491
O8	O	-0.066735	0.309912	0.439509
O9	O	-0.574857	0.012228	0.060639
O10	O	-0.074857	0.512228	0.560639
O11	O	-0.500412	-0.095211	0.060612
O12	O	-0.000412	0.404789	0.560612
O13	O	-0.641167	-0.082644	0.060635
O14	O	-0.141167	0.417356	0.560635
Zn15	Zn	-0.570788	-0.088927	0.079851
Zn16	Zn	-0.070788	0.411073	0.579851
Zn17	Zn	-0.570804	-0.088933	-0.079703
Zn18	Zn	-0.070804	0.411067	0.420297
O19	O	-0.566722	-0.190083	0.060609
O20	O	-0.066722	0.309917	0.560609
C21	C	-0.482410	-0.094950	0.000060
C22	C	0.017590	0.405050	0.500060
C23	C	-0.428753	-0.094155	0.000052
C24	C	0.071247	0.405845	0.500052
C25	C	-0.659181	-0.082910	0.000087
C26	C	-0.159181	0.417090	0.500087
C27	C	-0.712839	-0.083705	0.000090
C28	C	-0.212839	0.416295	0.500090
C29	C	-0.574601	0.038100	0.000091
C30	C	-0.074601	0.538100	0.500091
C31	C	-0.573816	0.115199	0.000098
C32	C	-0.073816	0.615199	0.500098
C33	C	-0.090115	-0.152644	0.000074
C34	C	0.409885	0.347356	0.500074
C35	C	0.111554	-0.149697	0.000081
C36	C	0.611554	0.350303	0.500081
O37	O	0.142648	-0.203181	0.000105
O38	O	0.642648	0.296819	0.500105
N39	N	0.130870	-0.085990	0.000089
N40	N	0.630870	0.414010	0.500089
C41	C	0.099766	-0.023015	0.000101
C42	C	0.599766	0.476985	0.500101
O43	O	0.120823	0.031239	0.000115
O44	O	0.620823	0.531239	0.500115
C45	C	-0.101902	-0.025963	0.000099
C46	C	0.398098	0.474037	0.500099
C47	C	-0.121215	-0.089674	0.000083
C48	C	0.378785	0.410326	0.500083
C49	C	-0.109428	-0.216350	0.000060
C50	C	0.390572	0.283650	0.500060
C51	C	-0.159843	-0.217086	0.000054
C52	C	0.340157	0.282914	0.500054
C53	C	-0.190943	-0.154116	0.000063
C54	C	0.309057	0.345884	0.500063
C55	C	-0.171629	-0.090410	0.000078
C56	C	0.328371	0.409590	0.500078
C57	C	-0.133005	0.037011	0.000115
C58	C	0.366995	0.537011	0.500115
C59	C	-0.183425	0.036268	0.000117
C60	C	0.316575	0.536268	0.500117
C61	C	-0.202738	-0.027443	0.000101
C62	C	0.297262	0.472557	0.500101
C63	C	-0.253144	-0.028177	0.000081
C64	C	0.246856	0.471823	0.500081
N65	N	-0.272460	-0.091884	0.000073
N66	N	0.227540	0.408116	0.500073
C67	C	-0.241360	-0.154853	0.000064
C68	C	0.258640	0.345147	0.500064
C69	C	0.205644	-0.021472	0.000100
C70	C	0.705644	0.478528	0.500100
C71	C	0.256061	-0.020735	0.000099
C72	C	0.756061	0.479265	0.500099
C73	C	0.267846	-0.147417	0.000081
C74	C	0.767846	0.352583	0.500081
C75	C	0.217428	-0.148153	0.000077
C76	C	0.717428	0.351847	0.500077
C77	C	0.186328	-0.085179	0.000092
C78	C	0.686328	0.414821	0.500092
C79	C	-0.347234	-0.156395	0.000051
C80	C	0.152766	0.343605	0.500051
C81	C	-0.397653	-0.157125	0.000042
C82	C	0.102347	0.342875	0.500042
C83	C	-0.409433	-0.030444	0.000064
C84	C	0.090567	0.469556	0.500064
C85	C	-0.359018	-0.029713	0.000069
C86	C	0.140982	0.470287	0.500069
C87	C	-0.327919	-0.092694	0.000065
C88	C	0.172081	0.407306	0.500065
O89	O	-0.284266	0.025278	0.000066
O90	O	0.215734	0.525278	0.500066
O91	O	-0.262426	-0.209100	0.000065
O92	O	0.237574	0.290900	0.500065
C93	C	-0.039701	-0.151908	0.000080
C94	C	0.460299	0.348092	0.500080
C95	C	-0.020387	-0.088202	0.000095
C96	C	0.479613	0.411798	0.500095
C97	C	-0.051487	-0.025232	0.000104
C98	C	0.448513	0.474768	0.500104
C99	C	0.030030	-0.087465	0.000094
C100	C	0.530030	0.412535	0.500094
C101	C	0.061130	-0.150435	0.000085
C102	C	0.561130	0.349565	0.500085
C103	C	0.041814	-0.214142	0.000077
C104	C	0.541814	0.285858	0.500077
C105	C	-0.008600	-0.214878	0.000071
C106	C	0.491400	0.285122	0.500071
C107	C	-0.032171	0.038475	0.000112
C108	C	0.467829	0.538475	0.500112
C109	C	0.018244	0.039206	0.000117
C110	C	0.518244	0.539206	0.500117
C111	C	0.049344	-0.023764	0.000108
C112	C	0.549344	0.476236	0.500108
C113	C	-0.566990	-0.215961	0.000055
C114	C	-0.066990	0.284039	0.500055
C115	C	-0.567776	-0.293059	0.000044
C116	C	-0.067776	0.206941	0.500044
N117	N	-0.570780	-0.088922	0.188742
N118	N	-0.070780	0.411078	0.688742
C119	C	-0.617496	0.160168	0.000108
C120	C	-0.117496	0.660168	0.500108
C121	C	-0.616758	0.232610	0.000097
C122	C	-0.116758	0.732610	0.500097
C123	C	-0.572337	0.260081	0.000089
C124	C	-0.072337	0.760081	0.500089
C125	C	-0.528650	0.215102	0.000074
C126	C	-0.028650	0.715102	0.500074
C127	C	-0.529390	0.142661	0.000078
C128	C	-0.029390	0.642661	0.500078
C129	C	-0.537412	0.368152	0.042502
C130	C	-0.037412	0.868152	0.542502
C131	C	-0.536674	0.440592	0.042502
C132	C	-0.036674	0.940592	0.542502
C133	C	-0.570054	0.483512	0.000072
C134	C	-0.070054	0.983512	0.500072
C135	C	-0.604180	0.453985	-0.042348
C136	C	-0.104180	0.953985	0.457652
C137	C	-0.604920	0.381544	-0.042344
C138	C	-0.104920	0.881544	0.457656
C139	C	-0.571530	0.338630	0.000084
C140	C	-0.071530	0.838630	0.500084
C141	C	-0.612938	0.607032	0.000069
C142	C	-0.112938	1.107032	0.500069
C143	C	-0.612198	0.679475	0.000053
C144	C	-0.112198	1.179475	0.500053
C145	C	-0.524089	0.661966	0.000038
C146	C	-0.024089	1.161966	0.500038
C147	C	-0.524830	0.589524	0.000047
C148	C	-0.024830	1.089524	0.500047
C149	C	-0.569256	0.562062	0.000066
C150	C	-0.069256	1.062062	0.500066
N151	N	-0.570816	-0.088933	-0.188594
N152	N	-0.070816	0.411067	0.311406
C153	C	-0.603755	-0.041371	0.226854
C154	C	-0.103755	0.458629	0.726854
C155	C	-0.603758	-0.041368	0.303082
C156	C	-0.103758	0.458632	0.803082
C157	C	-0.570790	-0.088927	0.341195
C158	C	-0.070790	0.411073	0.841195
C159	C	-0.537809	-0.136482	0.303073
C160	C	-0.037809	0.363518	0.803073
C161	C	-0.537804	-0.136479	0.226847
C162	C	-0.037804	0.363521	0.726847
C163	C	-0.564320	-0.152255	0.461945
C164	C	-0.064320	0.347745	0.961945
C165	C	-0.564328	-0.152259	0.538170
C166	C	-0.064328	0.347741	1.038170
C167	C	-0.570804	-0.088936	0.576302
C168	C	-0.070804	0.411064	1.076302
C169	C	-0.577281	-0.025606	0.538200
C170	C	-0.077281	0.474394	1.038200
C171	C	-0.577276	-0.025603	0.461974
C172	C	-0.077276	0.474397	0.961974
C173	C	-0.570792	-0.088935	0.423850
C174	C	-0.070792	0.411065	0.923850
C175	C	-0.603784	-0.041378	0.697069
C176	C	-0.103784	0.458622	1.197069
C177	C	-0.603784	-0.041374	0.773299
C178	C	-0.103784	0.458626	1.273299
C179	C	-0.537838	-0.136494	0.773289
C180	C	-0.037838	0.363506	1.273289
C181	C	-0.537836	-0.136492	0.697061
C182	C	-0.037836	0.363508	1.197061
C183	C	-0.570812	-0.088934	0.658956
C184	C	-0.070812	0.411066	1.158956
H185	H	-0.413374	-0.209008	0.000029
H186	H	0.086626	0.290992	0.500029
H187	H	-0.489260	0.552909	0.000042
H188	H	0.010740	1.052909	0.500042
H189	H	0.201707	-0.200032	0.000068
H190	H	0.701707	0.299968	0.500068
H191	H	-0.631362	0.488930	-0.076899
H192	H	-0.131362	0.988930	0.423101
H193	H	0.033963	0.091091	0.000124
H194	H	0.533963	0.591091	0.500124
H195	H	-0.582549	0.025962	0.430954
H196	H	-0.082549	0.525962	0.930954
H197	H	-0.582554	0.025958	0.569246
H198	H	-0.082554	0.525958	1.069246
H199	H	-0.510228	0.333212	0.077057
H200	H	-0.010228	0.833212	0.577057
H201	H	0.067145	-0.265414	0.000066
H202	H	0.567145	0.234586	0.500066
H203	H	-0.492482	0.237473	0.000066
H204	H	0.007518	0.737473	0.500066
H205	H	-0.652330	0.269231	0.000103
H206	H	-0.152330	0.769231	0.500103
H207	H	-0.508885	0.464627	0.077039
H208	H	-0.008885	0.964627	0.577039
H209	H	-0.487920	0.684331	0.000028
H210	H	0.012080	1.184331	0.500028
H211	H	-0.493818	0.106047	0.000070
H212	H	0.006182	0.606047	0.500070
H213	H	-0.630634	-0.002651	0.666043
H214	H	-0.130634	0.497349	1.166043
H215	H	-0.175562	-0.268966	0.000041
H216	H	0.324438	0.231034	0.500041
H217	H	-0.510951	-0.175201	0.195815
H218	H	-0.010951	0.324799	0.695815
H219	H	-0.647770	0.716089	0.000058
H220	H	-0.147770	1.216089	0.500058
H221	H	-0.630604	-0.002645	0.195831
H222	H	-0.130604	0.497355	0.695831
H223	H	-0.649112	0.584671	0.000082
H224	H	-0.149112	1.084671	0.500082
H225	H	-0.510966	-0.175205	0.334109
H226	H	-0.010966	0.324795	0.834109
H227	H	-0.208745	0.087550	0.000130
H228	H	0.291255	0.587550	0.500130
H229	H	-0.630635	-0.002648	0.804330
H230	H	-0.130635	0.497352	1.304330
H231	H	-0.630611	-0.002644	0.334119
H232	H	-0.130611	0.497356	0.834119
H233	H	-0.510993	-0.175215	0.804319
H234	H	-0.010993	0.324785	1.304319
H235	H	-0.559038	-0.203824	0.430904
H236	H	-0.059038	0.296176	0.930904
H237	H	-0.510986	-0.175215	0.666028
H238	H	-0.010986	0.324785	1.166028
H239	H	-0.559057	-0.203826	0.569187
H240	H	-0.059057	0.296174	1.069187
H241	H	-0.321918	-0.207680	0.000050
H242	H	0.178082	0.292320	0.500050
H243	H	-0.084111	-0.267630	0.000055
H244	H	0.415889	0.232370	0.500055
H245	H	0.271781	0.031145	0.000101
H246	H	0.771781	0.531145	0.500101
H247	H	0.180326	0.029812	0.000113
H248	H	0.680326	0.529812	0.500113
H249	H	0.293177	-0.198689	0.000074
H250	H	0.793177	0.301311	0.500074
H251	H	-0.117290	0.088891	0.000129
H252	H	0.382710	0.588891	0.500129
H253	H	-0.343293	0.022166	0.000071
H254	H	0.156707	0.522166	0.500071
H255	H	-0.024320	-0.266758	0.000059
H256	H	0.475680	0.233242	0.500059
H257	H	-0.434764	0.020825	0.000069
H258	H	0.065236	0.520825	0.500069
H259	H	-0.057489	0.089753	0.000121
H260	H	0.442511	0.589753	0.500121
H261	H	-0.653672	0.137813	0.000121
H262	H	-0.153672	0.637813	0.500121
H263	H	-0.632705	0.357506	-0.076885
H264	H	-0.132705	0.857506	0.423115
