data_functionalizedCrystal
_audit_creation_method	'MofGen! by Chris Wilmer'
_symmetry_space_group_name_H-M	'P1'
_symmetry_Int_Tables_number	1
_symmetry_cell_setting	triclinic
loop_
_symmetry_equiv_pos_as_xyz
  x,y,z
_cell_length_a	10.723024
_cell_length_b	16.109301
_cell_length_c	9.198806
_cell_angle_alpha	90.002139
_cell_angle_beta	90.005409
_cell_angle_gamma	96.035325
loop_
_atom_site_label
_atom_site_type_symbol
_atom_site_fract_x
_atom_site_fract_y
_atom_site_fract_z
O1	O	0.160396	-1.104071	0.120797
O2	O	0.180357	-0.862126	0.120819
O3	O	-0.011274	-0.988679	0.120802
O4	O	0.352027	-0.977518	0.120814
O5	O	-0.011288	-0.988678	-0.120983
O6	O	0.180343	-0.862125	-0.120966
O7	O	0.160382	-1.104070	-0.120988
Cu8	Cu	0.170361	-0.983097	-0.143054
Cu9	Cu	0.170378	-0.983098	0.142885
O10	O	0.352013	-0.977517	-0.120971
C11	C	0.179541	-0.831146	-0.000070
C12	C	0.177117	-0.738836	-0.000062
C13	C	-0.057770	-0.987866	-0.000089
C14	C	-0.196292	-0.985436	-0.000083
N15	N	0.170349	-0.983102	-0.344168
C16	C	-0.272213	-1.056249	-0.000088
C17	C	-0.415383	-1.053739	-0.000082
C18	C	0.398508	-0.978329	-0.000077
C19	C	0.537031	-0.980760	-0.000073
C20	C	0.161198	-1.135050	-0.000096
C21	C	0.163622	-1.227359	-0.000095
C22	C	0.285190	-0.517200	-0.000075
C23	C	0.282903	-0.430466	-0.000084
C24	C	0.055540	-0.449003	-0.000086
C25	C	0.057829	-0.535735	-0.000087
C26	C	0.172657	-0.569831	-0.000074
C27	C	0.168081	-0.396365	-0.000082
C28	C	0.165600	-0.302324	-0.000093
C29	C	0.175139	-0.663877	-0.000066
N30	N	0.170380	-0.983100	0.343999
C31	C	0.089882	-1.036458	0.583593
C32	C	0.089898	-1.036457	0.416180
H33	H	-0.231219	-1.118732	-0.000103
H34	H	-0.037950	-0.421231	-0.000105
H35	H	0.378691	-0.544958	-0.000076
O36	O	-0.493377	-1.125985	-0.000021
C37	C	-0.618961	-1.107396	-0.000053
H38	H	-0.623798	-1.042051	0.045725
H39	H	-0.678020	-1.154801	0.070143
H40	H	-0.656615	-1.110304	-0.116049
H41	H	-0.033815	-0.578589	-0.000090
O42	O	0.252749	-0.928682	0.418024
C43	C	0.376379	-0.942703	0.380935
H44	H	0.377247	-1.009231	0.338993
H45	H	0.438896	-0.933474	0.481113
H46	H	0.412964	-0.896745	0.292710
H47	H	-0.397741	-0.920135	-0.000079
H48	H	-0.237286	-0.922953	-0.000068
O49	O	0.007534	-1.090918	0.342237
C50	C	-0.116096	-1.076865	0.379265
H51	H	-0.116149	-1.044888	0.489818
H52	H	-0.177365	-1.139074	0.384296
H53	H	-0.154746	-1.035270	0.293627
O54	O	0.252382	-0.928567	0.581609
C55	C	0.185304	-0.877027	0.493582
H56	H	0.087731	-0.909714	0.470906
H57	H	0.237275	-0.864165	0.386500
H58	H	0.176665	-0.815527	0.552156
H59	H	0.374539	-0.387617	-0.000088
H60	H	0.020973	-1.082136	0.645682
