data_functionalizedCrystal
_audit_creation_method	'MofGen! by Chris Wilmer'
_symmetry_space_group_name_H-M	'P1'
_symmetry_Int_Tables_number	1
_symmetry_cell_setting	triclinic
loop_
_symmetry_equiv_pos_as_xyz
  x,y,z
_cell_length_a	12.759401
_cell_length_b	18.050589
_cell_length_c	12.759393
_cell_angle_alpha	89.969581
_cell_angle_beta	90.018496
_cell_angle_gamma	89.965141
loop_
_atom_site_label
_atom_site_type_symbol
_atom_site_fract_x
_atom_site_fract_y
_atom_site_fract_z
Zn1	Zn	1.606109	0.295612	0.593990
Zn2	Zn	1.605942	0.419823	0.418313
Zn3	Zn	1.430411	0.295651	0.418329
Zn4	Zn	1.430339	0.419766	0.593955
O5	O	1.518200	0.357713	0.506147
O6	O	1.753108	0.312097	0.570694
O7	O	1.582618	0.403391	0.271294
O8	O	1.453818	0.191722	0.441652
O9	O	1.752986	0.403354	0.441625
O10	O	1.582903	0.191693	0.570709
O11	O	1.453656	0.312163	0.271306
O12	O	1.283381	0.312108	0.441618
O13	O	1.453695	0.403256	0.740981
O14	O	1.283327	0.403294	0.570650
O15	O	1.582833	0.312041	0.741006
O16	O	1.582548	0.523740	0.441591
O17	O	1.453533	0.523698	0.570634
C18	C	1.245233	0.357699	0.506132
C19	C	1.128456	0.357711	0.506151
C20	C	1.073594	0.405268	0.573227
C21	C	0.963870	0.405277	0.573238
C22	C	0.963880	0.310171	0.439089
C23	C	1.073602	0.310159	0.439084
C24	C	1.073587	0.460179	0.650673
C25	C	0.963863	0.460188	0.650685
C26	C	1.518043	0.550665	0.506130
C27	C	1.518071	0.633211	0.506158
C28	C	1.447950	0.832666	0.576308
C29	C	1.422328	0.882114	0.480440
C30	C	1.518151	0.784341	0.506173
C31	C	1.543801	0.881974	0.602053
C32	C	1.518225	0.930326	0.506195
C33	C	1.492478	0.832703	0.410254
C34	C	1.613996	0.832558	0.531931
C35	C	1.588410	0.881985	0.435997
C36	C	1.518105	0.700243	0.506161
C37	C	1.518271	1.014423	0.506196
C38	C	1.792234	0.357727	0.506162
C39	C	1.909010	0.357733	0.506168
C40	C	1.518274	0.357638	0.780180
C41	C	1.518305	0.357606	0.896957
C42	C	1.518347	1.164007	0.506187
C43	C	1.518307	1.081462	0.506208
C44	C	1.518188	0.357734	0.233179
C45	C	1.518360	0.357557	0.116403
C46	C	1.585557	0.310106	0.951834
C47	C	1.585582	0.310079	1.061558
C48	C	1.451101	0.405059	1.061518
C49	C	1.451072	0.405081	0.951796
C50	C	1.663202	0.255273	0.951858
C51	C	1.663227	0.255246	1.061582
H52	H	1.107574	0.514786	0.621390
H53	H	0.929876	0.439658	0.728036
C54	C	1.312875	0.911521	0.451009
C55	C	1.263856	0.891012	0.344615
C56	C	1.154400	0.920413	0.315192
C57	C	1.093964	0.970323	0.392163
C58	C	1.142982	0.990834	0.498564
C59	C	1.252438	0.961433	0.527987
H60	H	1.308595	0.854064	0.287630
H61	H	1.118113	0.905229	0.236426
H62	H	1.012938	0.992087	0.370382
H63	H	1.098243	1.027783	0.555549
H64	H	1.288725	0.976617	0.606753
H65	H	1.396359	0.443710	1.106182
H66	H	1.641461	0.197759	0.922100
C67	C	1.377075	0.457326	0.891444
C68	C	1.257653	0.451237	0.906549
C69	C	1.183647	0.503483	0.846203
C70	C	1.229061	0.561818	0.770752
C71	C	1.348488	0.567910	0.755643
C72	C	1.422495	0.515664	0.815989
H73	H	1.224030	0.408052	0.962406
H74	H	1.095238	0.498974	0.857388
H75	H	1.174276	0.600494	0.726080
H76	H	1.382112	0.611095	0.699787
H77	H	1.510903	0.520173	0.804804
C78	C	1.668643	0.911074	0.355796
C79	C	1.656853	0.891460	0.238945
C80	C	1.737076	0.920556	0.158741
C81	C	1.829089	0.969266	0.195388
C82	C	1.840883	0.988882	0.312245
C83	C	1.760660	0.959786	0.392449
H84	H	1.588736	0.855400	0.211811
H85	H	1.728345	0.906035	0.072235
H86	H	1.888475	0.990804	0.136016
H87	H	1.909000	1.024942	0.339378
H88	H	1.769391	0.974308	0.478954
H89	H	0.919205	0.271455	0.384487
H90	H	1.634140	0.200598	1.095628
C91	C	1.723419	0.803126	0.561394
C92	C	1.784680	0.754322	0.483659
C93	C	1.894104	0.724888	0.513135
C94	C	1.942266	0.744258	0.620346
C95	C	1.881005	0.793064	0.698088
C96	C	1.771581	0.822498	0.668611
H97	H	1.749028	0.739981	0.404289
H98	H	1.939454	0.688758	0.455585
H99	H	2.023269	0.722469	0.642166
H100	H	1.916657	0.807405	0.777458
H101	H	1.726231	0.858628	0.726161
H102	H	0.934039	0.517692	0.628754
H103	H	1.103403	0.444840	0.732080
C104	C	1.573080	0.911214	0.711576
C105	C	1.579414	0.995237	0.731414
C106	C	1.608684	1.024473	0.840939
C107	C	1.631619	0.969687	0.930626
C108	C	1.625286	0.885659	0.910791
C109	C	1.596016	0.856423	0.801266
H110	H	1.562435	1.035797	0.665019
H111	H	1.613372	1.086676	0.855621
H112	H	1.653287	0.991330	1.011703
H113	H	1.642264	0.845099	0.977186
H114	H	1.591327	0.794220	0.786584
H115	H	1.388506	0.811010	0.635535
H116	H	1.740463	0.275891	0.917822
C117	C	1.773129	0.276066	1.101834
C118	C	1.787758	0.345073	1.171213
C119	C	1.897652	0.365895	1.211470
C120	C	1.992917	0.317710	1.182347
C121	C	1.978290	0.248699	1.112965
C122	C	1.868396	0.227877	1.072708
H123	H	1.717235	0.380746	1.192774
H124	H	1.908479	0.416982	1.262831
H125	H	2.074267	0.333124	1.212148
H126	H	2.048813	0.213026	1.091403
H127	H	1.857569	0.176790	1.021346
C128	C	1.133960	0.257845	0.365308
C129	C	1.209343	0.289946	0.282744
C130	C	1.269704	0.237631	0.208966
C131	C	1.254681	0.153214	0.217752
C132	C	1.179294	0.121108	0.300319
C133	C	1.118934	0.173423	0.374097
H134	H	1.220467	0.352441	0.276238
H135	H	1.325511	0.261398	0.147845
H136	H	1.299364	0.114487	0.163137
H137	H	1.168171	0.058613	0.306826
H138	H	1.063127	0.149656	0.435219
C139	C	1.463089	0.803592	0.300691
C140	C	1.457580	0.719590	0.280444
C141	C	1.428193	0.690478	0.170883
C142	C	1.404315	0.745369	0.081571
C143	C	1.409824	0.829377	0.101815
C144	C	1.439210	0.858489	0.211376
H145	H	1.475257	0.678951	0.346561
H146	H	1.424116	0.628289	0.155897
H147	H	1.382562	0.723818	0.000467
H148	H	1.392147	0.870015	0.035698
H149	H	1.443288	0.920677	0.226362
