data_functionalizedCrystal
_audit_creation_method	'MofGen! by Chris Wilmer'
_symmetry_space_group_name_H-M	'P1'
_symmetry_Int_Tables_number	1
_symmetry_cell_setting	triclinic
loop_
_symmetry_equiv_pos_as_xyz
  x,y,z
_cell_length_a	17.699083
_cell_length_b	23.532407
_cell_length_c	16.776229
_cell_angle_alpha	89.988688
_cell_angle_beta	89.998886
_cell_angle_gamma	83.065847
loop_
_atom_site_label
_atom_site_type_symbol
_atom_site_fract_x
_atom_site_fract_y
_atom_site_fract_z
O1	O	1.003713	0.072020	-0.066185
O2	O	0.783287	0.081390	-0.066212
O3	O	0.900147	-0.006208	-0.066183
O4	O	0.886853	0.159617	-0.066214
O5	O	0.900132	-0.006213	0.066394
O6	O	0.783272	0.081384	0.066365
O7	O	1.003698	0.072015	0.066392
Zn8	Zn	0.893482	0.076699	0.087428
Zn9	Zn	0.893503	0.076706	-0.087248
O10	O	0.886838	0.159612	0.066363
C11	C	0.755084	0.081051	0.000073
C12	C	0.671071	0.080044	0.000063
C13	C	0.899801	-0.027427	0.000107
C14	C	0.898783	-0.090647	0.000113
C15	C	0.622189	0.131462	0.000054
C16	C	0.543251	0.130512	0.000065
C17	C	0.513196	0.078144	0.000079
C18	C	0.562084	0.026722	0.000090
C19	C	0.641021	0.027672	0.000086
C20	C	0.243740	0.022888	0.000111
C21	C	0.164797	0.021942	0.000113
C22	C	0.145970	0.125728	0.000090
C23	C	0.224907	0.126678	0.000085
C24	C	0.273788	0.075257	0.000101
C25	C	0.359382	0.076287	0.000091
C26	C	0.427603	0.077113	0.000083
C27	C	0.961554	-0.489570	0.000077
C28	C	0.960609	-0.548973	0.000071
O29	O	1.018799	-0.585550	0.000049
N30	N	0.891136	-0.571799	0.000063
C31	C	0.822604	-0.535218	0.000053
O32	O	0.763424	-0.560088	0.000045
C33	C	0.823550	-0.475816	0.000054
C34	C	0.893028	-0.452994	0.000070
C35	C	1.031026	-0.466747	0.000093
C36	C	1.031972	-0.407348	0.000100
C37	C	0.963445	-0.370772	0.000093
C38	C	0.893973	-0.393595	0.000078
C39	C	0.755019	-0.439237	0.000038
C40	C	0.755971	-0.379832	0.000038
C41	C	0.825448	-0.357009	0.000054
C42	C	0.826391	-0.297620	0.000078
N43	N	0.895864	-0.274795	0.000086
C44	C	0.964391	-0.311371	0.000093
C45	C	0.820622	-0.659966	0.000051
C46	C	0.819674	-0.719367	0.000056
C47	C	0.957680	-0.733118	0.000073
C48	C	0.958626	-0.673716	0.000073
C49	C	0.890095	-0.637141	0.000059
C50	C	0.966371	-0.186628	0.000110
C51	C	0.967310	-0.127223	0.000121
C52	C	0.829305	-0.113478	0.000100
C53	C	0.828365	-0.172877	0.000094
C54	C	0.896904	-0.209452	0.000096
O55	O	0.768232	-0.261008	0.000097
O56	O	1.023560	-0.286493	0.000091
C57	C	1.031901	0.072353	0.000105
C58	C	1.115914	0.073360	0.000110
C59	C	0.887184	0.180832	0.000071
C60	C	0.888202	0.244052	0.000060
N61	N	0.893474	0.076693	0.206639
N62	N	0.893517	0.076706	-0.206459
C63	C	0.945235	0.037921	0.248369
C64	C	0.945239	0.037921	0.331821
C65	C	0.893485	0.076696	0.373542
C66	C	0.841719	0.115470	0.331806
C67	C	0.841712	0.115467	0.248355
C68	C	0.841746	0.115481	0.668353
C69	C	0.841759	0.115482	0.751810
C70	C	0.945274	0.037935	0.751819
C71	C	0.945267	0.037932	0.668368
C72	C	0.893498	0.076704	0.626640
C73	C	0.893493	0.076703	0.536151
C74	C	0.893493	0.076699	0.464029
H75	H	0.646653	0.174106	0.000042
H76	H	0.987412	0.006360	0.634402
O77	O	0.760925	-0.195120	-0.000021
C78	C	0.756250	-0.229040	-0.068703
H79	H	0.816021	-0.243903	-0.091588
H80	H	0.726381	-0.267905	-0.053275
H81	H	0.722569	-0.202741	-0.116782
O82	O	1.024230	-0.768677	-0.000070
C83	C	1.027800	-0.803444	-0.068727
H84	H	0.988932	-0.781627	-0.116717
H85	H	1.088818	-0.810201	-0.091773
H86	H	1.008538	-0.846617	-0.053210
H87	H	1.023889	-0.108645	0.000136
H88	H	0.764811	-0.630189	0.000046
O89	O	1.033018	-0.222070	0.000150
C90	C	1.094531	-0.189177	0.000146
H91	H	1.074962	-0.144823	0.025245
H92	H	1.142514	-0.211150	0.038645
H93	H	1.115858	-0.184961	-0.063453
H94	H	0.763099	-0.737943	0.000057
O95	O	0.791571	0.153174	0.627742
C96	C	0.831835	0.188280	0.579472
H97	H	0.891223	0.165536	0.566961
H98	H	0.800167	0.197328	0.520795
H99	H	0.836671	0.230363	0.611627
O100	O	0.098593	0.175733	0.000047
C101	C	0.142049	0.222157	0.000049
H102	H	0.201077	0.207619	-0.025051
H103	H	0.112656	0.258178	-0.038450
H104	H	0.147554	0.238215	0.063648
O105	O	0.495875	0.180512	0.000019
C106	C	0.539329	0.226937	0.000021
H107	H	0.598356	0.212400	-0.025082
H108	H	0.509934	0.262958	-0.038476
H109	H	0.544835	0.242994	0.063620
O110	O	0.687460	-0.461302	-0.000017
C111	C	0.627190	-0.416271	-0.000008
H112	H	0.648111	-0.375943	-0.025098
H113	H	0.578662	-0.428609	-0.038513
H114	H	0.606061	-0.407846	0.063591
H115	H	0.799612	0.147058	0.785777
H116	H	0.140330	-0.020705	0.000126
O117	O	0.291109	-0.027113	0.000088
C118	C	0.247651	-0.073536	0.000119
H119	H	0.188623	-0.058996	-0.024985
H120	H	0.277041	-0.109557	-0.038362
H121	H	0.242148	-0.089594	0.063727
H122	H	0.799561	0.147039	0.214380
O123	O	0.254134	0.177536	-0.000077
C124	C	0.299239	0.181185	-0.068736
H125	H	0.280793	0.151448	-0.116715
H126	H	0.291801	0.227093	-0.091799
H127	H	0.361596	0.167967	-0.053215
O128	O	0.791414	0.153057	0.372421
C129	C	0.744949	0.122601	0.420696
H130	H	0.775433	0.078008	0.433208
H131	H	0.732803	0.146385	0.479372
H132	H	0.689039	0.118783	0.388545
O133	O	0.762810	-0.077861	0.000057
C134	C	0.778552	-0.020540	0.000082
H135	H	0.837989	-0.018340	-0.025002
H136	H	0.734856	0.006438	-0.038418
H137	H	0.775539	-0.003366	0.063686
O138	O	0.995391	0.000208	0.207775
C139	C	0.955095	-0.034898	0.159562
H140	H	0.895715	-0.012138	0.147040
H141	H	0.986748	-0.043976	0.100886
H142	H	0.950237	-0.076965	0.191771
O143	O	0.995602	0.000242	0.372234
C144	C	1.041274	-0.033986	0.317515
H145	H	1.041935	-0.010639	0.258019
H146	H	1.101785	-0.042719	0.341619
H147	H	1.017034	-0.076277	0.308661
O148	O	0.532765	-0.024099	0.000070
C149	C	0.452611	-0.013914	0.000090
H150	H	0.433736	0.030556	-0.025019
H151	H	0.428624	-0.047416	-0.038392
H152	H	0.430657	-0.016645	0.063695
H153	H	0.680820	-0.014197	0.000093
H154	H	1.086833	-0.496522	0.000096
O155	O	1.099529	-0.385278	0.000074
C156	C	1.159801	-0.430308	0.000098
H157	H	1.138890	-0.470628	-0.025004
H158	H	1.208341	-0.417956	-0.038388
H159	H	1.180911	-0.438752	0.063703
O160	O	1.026068	-0.651481	-0.000025
C161	C	1.030765	-0.617538	-0.068699
H162	H	0.971001	-0.602661	-0.091598
H163	H	1.060638	-0.578681	-0.053255
H164	H	1.064454	-0.643822	-0.116773
H165	H	0.700163	-0.350054	0.000025
H166	H	0.987425	0.006362	0.785803
