data_functionalizedCrystal
_audit_creation_method	'MofGen! by Chris Wilmer'
_symmetry_space_group_name_H-M	'P1'
_symmetry_Int_Tables_number	1
_symmetry_cell_setting	triclinic
loop_
_symmetry_equiv_pos_as_xyz
  x,y,z
_cell_length_a	10.723023
_cell_length_b	14.044220
_cell_length_c	9.798715
_cell_angle_alpha	89.995876
_cell_angle_beta	89.996770
_cell_angle_gamma	88.828213
loop_
_atom_site_label
_atom_site_type_symbol
_atom_site_fract_x
_atom_site_fract_y
_atom_site_fract_z
O1	O	1.670498	0.133036	-0.113481
O2	O	2.170498	0.633036	0.386519
O3	O	1.308619	0.145772	-0.113487
O4	O	1.808619	0.645772	0.386513
O5	O	1.484127	0.001384	-0.113471
O6	O	1.984127	0.501384	0.386529
O7	O	1.494990	0.277424	-0.113498
O8	O	1.994990	0.777424	0.386502
O9	O	1.484112	0.001384	0.113511
O10	O	1.984112	0.501384	0.613511
O11	O	1.308605	0.145771	0.113495
O12	O	1.808605	0.645771	0.613495
O13	O	1.670483	0.133036	0.113501
O14	O	2.170483	0.633036	0.613501
Zn15	Zn	1.489542	0.139403	0.149536
Zn16	Zn	1.989542	0.639403	0.649536
Zn17	Zn	1.489561	0.139404	-0.149523
Zn18	Zn	1.989561	0.639404	0.350477
O19	O	1.494976	0.277423	0.113484
O20	O	1.994976	0.777423	0.613484
C21	C	1.262020	0.144845	0.000003
C22	C	1.762020	0.644845	0.500003
C23	C	1.123188	0.142072	0.000001
C24	C	1.623188	0.642072	0.500001
C25	C	1.061285	0.140836	0.117584
C26	C	1.561285	0.640836	0.617584
C27	C	0.917795	0.137971	0.117584
C28	C	1.417795	0.637971	0.617584
C29	C	1.479364	-0.033962	0.000021
C30	C	1.979364	0.466038	0.500021
C31	C	1.465180	-0.139280	0.000022
C32	C	1.965180	0.360720	0.500022
C33	C	1.439248	-0.332109	0.000002
C34	C	1.939248	0.167891	0.500002
C35	C	1.539850	-0.389089	-0.000000
C36	C	2.039850	0.110911	0.500000
C37	C	1.525421	-0.496386	-0.000012
C38	C	2.025421	0.003614	0.499988
C39	C	1.453675	-0.224802	0.000013
C40	C	1.953675	0.275198	0.500013
C41	C	1.717083	0.133963	0.000007
C42	C	2.217083	0.633963	0.500007
C43	C	1.855915	0.136735	0.000000
C44	C	2.355915	0.636735	0.500000
C45	C	1.499739	0.312769	-0.000010
C46	C	1.999739	0.812769	0.499990
C47	C	1.513923	0.418087	-0.000021
C48	C	2.013923	0.918087	0.499979
N49	N	1.489538	0.139403	0.353636
N50	N	1.989538	0.639403	0.853636
N51	N	1.489574	0.139397	-0.353622
N52	N	1.989574	0.639397	0.146378
C53	C	1.563202	0.078511	0.421420
C54	C	2.063202	0.578511	0.921420
C55	C	1.563222	0.078508	0.578582
C56	C	2.063222	0.578508	1.078582
H57	H	1.114518	0.141894	0.218250
H58	H	1.614518	0.641894	0.718250
H59	H	1.426508	0.191535	0.588095
H60	H	1.926508	0.691535	1.088095
H61	H	1.426481	0.191528	0.411954
H62	H	1.926481	0.691528	0.911954
C63	C	1.051294	0.140642	-0.135999
C64	C	1.551294	0.640642	0.364001
H65	H	1.108739	0.141785	-0.209770
H66	H	1.608739	0.641785	0.290230
H67	H	0.997033	0.194844	-0.141072
H68	H	1.497033	0.694844	0.358928
H69	H	1.003772	0.084400	-0.141070
H70	H	1.503772	0.584400	0.358930
H71	H	0.864560	0.136913	0.218251
H72	H	1.364560	0.636913	0.718251
C73	C	1.670841	-0.346135	0.000032
C74	C	2.170841	0.153865	0.500032
H75	H	1.663484	-0.278607	0.000055
H76	H	2.163484	0.221393	0.500055
H77	H	1.714945	-0.366630	-0.079113
H78	H	2.214945	0.133370	0.420887
H79	H	1.714896	-0.366653	0.079205
H80	H	2.214896	0.133347	0.579205
C81	C	1.308263	-0.375059	-0.000003
C82	C	1.808263	0.124941	0.499997
H83	H	1.247035	-0.325201	-0.000007
H84	H	1.747035	0.174799	0.499993
H85	H	1.298466	-0.413246	0.079146
H86	H	1.798466	0.086754	0.579146
H87	H	1.298475	-0.413226	-0.079171
H88	H	1.798475	0.086774	0.420829
H89	H	0.909141	0.137804	-0.100672
H90	H	1.409141	0.637804	0.399328
H91	H	1.626250	0.026378	0.363103
H92	H	2.126250	0.526378	0.863103
H93	H	1.626294	0.026379	0.636874
H94	H	2.126294	0.526379	1.136874
