data_functionalizedCrystal
_audit_creation_method	'MofGen! by Chris Wilmer'
_symmetry_space_group_name_H-M	'P1'
_symmetry_Int_Tables_number	1
_symmetry_cell_setting	triclinic
loop_
_symmetry_equiv_pos_as_xyz
  x,y,z
_cell_length_a	33.510554
_cell_length_b	33.509711
_cell_length_c	33.506470
_cell_angle_alpha	60.004186
_cell_angle_beta	60.008358
_cell_angle_gamma	59.994760
loop_
_atom_site_label
_atom_site_type_symbol
_atom_site_fract_x
_atom_site_fract_y
_atom_site_fract_z
O1	O	0.055430	-0.583081	0.487524
O2	O	0.555430	-0.083081	0.987524
O3	O	0.020931	-0.453975	0.392819
O4	O	0.520931	0.046025	0.892819
O5	O	0.102693	-0.535652	0.392731
O6	O	0.602693	-0.035652	0.892731
O7	O	-0.026332	-0.501404	0.487613
O8	O	0.473668	-0.001404	0.987613
O9	O	0.129823	-0.508526	0.419767
O10	O	0.629823	-0.008526	0.919767
O11	O	0.048062	-0.426850	0.419856
O12	O	0.548062	0.073150	0.919856
O13	O	0.082561	-0.555956	0.514561
O14	O	0.582561	-0.055956	1.014561
Cu15	Cu	0.067789	-0.488926	0.469677
Cu16	Cu	0.567789	0.011074	0.969677
Cu17	Cu	0.035703	-0.521005	0.437703
Cu18	Cu	0.535703	-0.021005	0.937703
O19	O	0.000799	-0.474279	0.514649
O20	O	0.500799	0.025721	1.014649
N21	N	0.090357	-0.466366	0.492168
N22	N	0.590357	0.033634	0.992168
N23	N	0.013139	-0.543569	0.415212
N24	N	0.513139	-0.043569	0.915212
C25	C	0.143028	-0.279707	0.544737
C26	C	0.643028	0.220293	1.044737
C27	C	0.143165	-0.413746	0.678712
C28	C	0.643165	0.086254	1.178712
C29	C	0.143043	-0.413725	0.544739
C30	C	0.643043	0.086275	1.044739
C31	C	0.277090	-0.413694	0.544637
C32	C	0.777090	0.086306	1.044637
C33	C	0.157791	-0.323929	0.559462
C34	C	0.657791	0.176071	1.059462
C35	C	0.157869	-0.398994	0.634489
C36	C	0.657869	0.101006	1.134489
C37	C	0.232865	-0.398963	0.559407
C38	C	0.732865	0.101037	1.059407
C39	C	0.157801	-0.398982	0.559463
C40	C	0.657801	0.101018	1.059463
C41	C	0.124237	-0.223419	0.525994
C42	C	0.624237	0.276581	1.025994
C43	C	0.124262	-0.432490	0.525997
C44	C	0.624262	0.067510	1.025997
C45	C	0.176583	-0.380217	0.578205
C46	C	0.676583	0.119783	1.078205
C47	C	0.358938	-0.399566	0.501510
C48	C	0.858938	0.100434	1.001510
C49	C	0.410104	-0.416609	0.484423
C50	C	0.910104	0.083391	0.984423
C51	C	0.410135	-0.499402	0.515995
C52	C	0.910135	0.000598	1.015995
C53	C	0.358969	-0.482358	0.533084
C54	C	0.858969	0.017642	1.033084
C55	C	0.136554	-0.197822	0.475693
C56	C	0.636554	0.302178	0.975693
C57	C	0.119469	-0.146653	0.458657
C58	C	0.619469	0.353347	0.958657
C59	C	0.077755	-0.146680	0.542223
C60	C	0.577755	0.353320	1.042223
C61	C	0.094840	-0.197850	0.559260
C62	C	0.594840	0.302150	1.059260
C63	C	0.073954	-0.420144	0.538396
C64	C	0.573954	0.079856	1.038396
C65	C	0.056884	-0.437203	0.521352
C66	C	0.556884	0.062797	1.021352
C67	C	0.140427	-0.478952	0.479524
C68	C	0.640427	0.021048	0.979524
C69	C	0.157498	-0.461894	0.496561
C70	C	0.657498	0.038106	0.996561
C71	C	0.074158	-0.420182	0.760618
C72	C	0.574158	0.079818	1.260618
C73	C	0.057149	-0.437256	0.811786
C74	C	0.557149	0.062744	1.311786
C75	C	0.140732	-0.479014	0.811717
C76	C	0.640732	0.020986	1.311717
C77	C	0.157740	-0.461942	0.760547
C78	C	0.657740	0.038058	1.260547
C79	C	0.124452	-0.432525	0.734999
C80	C	0.624452	0.067475	1.234999
C81	C	0.333372	-0.432439	0.525839
C82	C	0.833372	0.067561	1.025839
C83	C	-0.020612	-0.577650	0.170305
C84	C	0.479388	-0.077650	0.670305
C85	C	-0.020943	-0.788098	0.380897
C86	C	0.479057	-0.288098	0.880897
C87	C	-0.020912	-0.577638	0.380991
C88	C	0.479088	-0.077638	0.880991
C89	C	-0.231336	-0.577418	0.380585
C90	C	0.268664	-0.077418	0.880585
C91	C	-0.129735	-0.611383	0.346870
C92	C	0.370265	-0.111383	0.846870
C93	C	-0.054722	-0.611464	0.347017
C94	C	0.445278	-0.111464	0.847017
C95	C	-0.073450	-0.630202	0.328195
C96	C	0.426550	-0.130202	0.828195
C97	C	-0.087616	-0.712029	0.371239
C98	C	0.412384	-0.212029	0.871239
C99	C	-0.070599	-0.763199	0.388315
C100	C	0.429401	-0.263199	0.888315
C101	C	0.012191	-0.763282	0.356872
C102	C	0.512191	-0.263282	0.856872
C103	C	-0.004828	-0.712113	0.339795
C104	C	0.495172	-0.212113	0.839795
C105	C	-0.155381	-0.623711	0.397158
C106	C	0.344619	-0.123711	0.897158
C107	C	-0.206547	-0.606601	0.414133
C108	C	0.293453	-0.106601	0.914133
C109	C	-0.206417	-0.564839	0.330529
C110	C	0.293583	-0.064839	0.830529
C111	C	-0.155251	-0.581949	0.313554
C112	C	0.344749	-0.081949	0.813554
C113	C	-0.067051	-0.561160	0.334643
C114	C	0.432949	-0.061160	0.834643
C115	C	-0.050026	-0.544131	0.351759
C116	C	0.449974	-0.044131	0.851759
C117	C	-0.008343	-0.627704	0.393612
C118	C	0.491657	-0.127704	0.893612
C119	C	-0.025368	-0.644736	0.376502
C120	C	0.474632	-0.144736	0.876502
C121	C	-0.066922	-0.561168	0.246303
C122	C	0.433078	-0.061168	0.746303
C123	C	-0.049794	-0.544141	0.195134
C124	C	0.450206	-0.044141	0.695134
C125	C	-0.008048	-0.627719	0.195183
C126	C	0.491952	-0.127719	0.695183
C127	C	-0.025175	-0.644745	0.246352
C128	C	0.474825	-0.144745	0.746352
C129	C	-0.054614	-0.611468	0.271911
C130	C	0.445386	-0.111468	0.771911
C131	C	-0.054732	-0.686488	0.346980
C132	C	0.445268	-0.186488	0.846980
C133	C	-0.002117	-0.558258	0.114025
C134	C	0.497883	-0.058258	0.614025
C135	C	-0.002879	-0.844379	0.399940
C136	C	0.497121	-0.344379	0.899940
C137	C	-0.002504	-0.558243	0.399473
C138	C	0.497496	-0.058243	0.899473
C139	C	-0.287615	-0.558285	0.398601
C140	C	0.212385	-0.058285	0.898601
N141	N	0.434975	-0.466279	0.491900
N142	N	0.934975	0.033721	0.991900
O143	O	0.591199	-0.470749	0.375150
O144	O	1.091199	0.029251	0.875150
O145	O	0.591395	-0.565767	0.504116
O146	O	1.091395	-0.065767	1.004116
O147	O	0.591311	-0.565550	0.422329
O148	O	1.091311	-0.065550	0.922329
O149	O	0.591283	-0.470966	0.456937
O150	O	1.091283	0.029034	0.956937
O151	O	0.510024	-0.538522	0.449509
O152	O	1.010024	-0.038522	0.949509
O153	O	0.510108	-0.538739	0.531297
O154	O	1.010108	-0.038739	1.031297
O155	O	0.509913	-0.443721	0.402330
O156	O	1.009913	0.056279	0.902330
Cu157	Cu	0.502588	-0.488762	0.469295
Cu158	Cu	1.002588	0.011238	0.969295
Cu159	Cu	0.598719	-0.520726	0.437151
Cu160	Cu	1.098719	-0.020726	0.937151
O161	O	0.509997	-0.443938	0.484117
O162	O	1.009997	0.056062	0.984117
N163	N	0.666332	-0.543209	0.414541
N164	N	1.166332	-0.043209	0.914541
N165	N	0.090323	-0.121809	0.492157
N166	N	0.590323	0.378191	0.992157
O167	O	-0.026342	0.034503	0.487582
O168	O	0.473658	0.534503	0.987582
O169	O	0.102626	0.034543	0.392540
O170	O	0.602626	0.534543	0.892540
O171	O	0.020797	0.034507	0.392812
O172	O	0.520797	0.534507	0.892812
O173	O	0.055487	0.034539	0.487310
O174	O	0.555487	0.534539	0.987310
O175	O	0.047933	-0.046785	0.419900
O176	O	0.547933	0.453215	0.919900
O177	O	0.129763	-0.046749	0.419628
O178	O	0.629763	0.453251	0.919628
O179	O	0.000794	-0.046789	0.514670
O180	O	0.500794	0.453211	1.014670
Cu181	Cu	0.067756	-0.054192	0.469623
Cu182	Cu	0.567756	0.445808	0.969623
Cu183	Cu	0.035664	0.041946	0.437588
Cu184	Cu	0.535664	0.541946	0.937588
O185	O	0.082623	-0.046753	0.514399
O186	O	0.582623	0.453247	1.014399
N187	N	0.013091	0.109564	0.415054
N188	N	0.513091	0.609564	0.915054
N189	N	0.090671	-0.466416	0.836606
N190	N	0.590671	0.033584	1.336606
O191	O	0.086120	-0.583065	0.992910
O192	O	0.586120	-0.083065	1.492910
O193	O	-0.008880	-0.454051	0.992954
O194	O	0.491120	0.045949	1.492954
O195	O	-0.008658	-0.535864	0.992931
O196	O	0.491342	-0.035864	1.492931
O197	O	0.085897	-0.501252	0.992933
O198	O	0.585897	-0.001252	1.492933
O199	O	0.018407	-0.508749	0.911642
O200	O	0.518407	-0.008749	1.411642
O201	O	0.018185	-0.426936	0.911665
O202	O	0.518185	0.073064	1.411665
O203	O	0.113185	-0.555949	0.911621
O204	O	0.613185	-0.055949	1.411621
Cu205	Cu	0.068156	-0.488967	0.904221
Cu206	Cu	0.568156	0.011033	1.404221
Cu207	Cu	0.036148	-0.521034	1.000355
Cu208	Cu	0.536148	-0.021034	1.500355
O209	O	0.112963	-0.474136	0.911644
O210	O	0.612963	0.025864	1.411644
N211	N	0.013633	-0.543590	1.067970
N212	N	0.513633	-0.043590	1.567970
C213	C	0.031262	-0.424144	0.393290
C214	C	0.531262	0.075856	0.893290
C215	C	0.132513	-0.525291	0.393180
C216	C	0.632513	-0.025291	0.893180
C217	C	0.072229	-0.585787	0.514090
C218	C	0.572229	-0.085787	1.014090
C219	C	-0.029022	-0.484640	0.514200
C220	C	0.470978	0.015360	1.014200
C221	C	0.550775	-0.565338	0.533954
C222	C	1.050775	-0.065338	1.033954
C223	C	0.550672	-0.565070	0.432670
C224	C	1.050672	-0.065070	0.932670
C225	C	0.550530	-0.444149	0.372492
C226	C	1.050530	0.055851	0.872492
C227	C	0.550635	-0.444418	0.473776
C228	C	1.050635	0.055582	0.973776
C229	C	0.132408	-0.005998	0.392963
C230	C	0.632408	0.494002	0.892963
C231	C	0.031106	-0.006142	0.393333
C232	C	0.531106	0.493858	0.893333
C233	C	-0.029021	-0.006147	0.514213
C234	C	0.470979	0.493853	1.014213
C235	C	0.072314	-0.006104	0.513878
C236	C	0.572314	0.493896	1.013878
C237	C	-0.008430	-0.424240	0.952316
C238	C	0.491570	0.075760	1.452316
C239	C	-0.008150	-0.525550	0.952271
C240	C	0.491850	-0.025550	1.452271
C241	C	0.112735	-0.585760	0.952260
C242	C	0.612735	-0.085760	1.452260
C243	C	0.112461	-0.484444	0.952286
C244	C	0.612461	0.015556	1.452286
H245	H	0.016194	-0.427197	0.832639
H246	H	0.516194	0.072803	1.332639
C247	C	0.550622	-0.404276	0.483775
C248	C	1.050622	0.095724	0.983775
C249	C	0.508372	-0.355128	0.480333
C250	C	1.008372	0.144872	0.980333
C251	C	0.508358	-0.314986	0.490333
C252	C	1.008358	0.185014	0.990333
C253	C	0.550594	-0.323990	0.503774
C254	C	1.050594	0.176010	1.003774
C255	C	0.592847	-0.373140	0.507217
C256	C	1.092847	0.126860	1.007217
C257	C	0.592861	-0.413282	0.497217
C258	C	1.092861	0.086718	0.997217
H259	H	0.477103	-0.348461	0.470383
H260	H	0.977103	0.151539	0.970383
H261	H	0.477079	-0.278602	0.487784
H262	H	0.977079	0.221398	0.987784
H263	H	0.550584	-0.294274	0.511176
H264	H	1.050584	0.205726	1.011176
H265	H	0.624116	-0.379807	0.517168
H266	H	1.124116	0.120193	1.017168
H267	H	0.624140	-0.449666	0.499766
H268	H	1.124140	0.050334	0.999766
C269	C	0.037391	-0.387796	0.570769
C270	C	0.537391	0.112204	1.070769
C271	C	0.000612	-0.407388	0.620134
C272	C	0.500612	0.092612	1.120134
C273	C	-0.035951	-0.375039	0.652509
C274	C	0.464049	0.124961	1.152509
C275	C	-0.035736	-0.323097	0.635517
C276	C	0.464264	0.176903	1.135517
C277	C	0.001044	-0.303501	0.586149
C278	C	0.501044	0.196499	1.086149
C279	C	0.037608	-0.335851	0.553775
C280	C	0.537608	0.164149	1.053775
H281	H	0.000452	-0.445842	0.632715
H282	H	0.500452	0.054158	1.132715
H283	H	-0.063179	-0.389545	0.689054
H284	H	0.436821	0.110455	1.189054
H285	H	-0.062803	-0.299150	0.659482
H286	H	0.437197	0.200850	1.159482
H287	H	0.001205	-0.265048	0.573569
H288	H	0.501205	0.234952	1.073569
H289	H	0.064835	-0.321345	0.517229
H290	H	0.564835	0.178655	1.017229
C291	C	0.550688	-0.605213	0.422670
C292	C	1.050688	-0.105213	0.922670
C293	C	0.508518	-0.626289	0.454340
C294	C	1.008518	-0.126289	0.954340
C295	C	0.508534	-0.666432	0.444340
C296	C	1.008534	-0.166432	0.944340
C297	C	0.550718	-0.685499	0.402670
C298	C	1.050718	-0.185499	0.902670
C299	C	0.592890	-0.664423	0.370997
C300	C	1.092890	-0.164423	0.870997
C301	C	0.592875	-0.624280	0.380997
C302	C	1.092875	-0.124280	0.880997
H303	H	0.477288	-0.612174	0.485189
H304	H	0.977288	-0.112174	0.985189
H305	H	0.477315	-0.682034	0.467787
H306	H	0.977315	-0.182034	0.967787
H307	H	0.550729	-0.715216	0.395268
H308	H	1.050729	-0.215216	0.895268
H309	H	0.624120	-0.678538	0.340148
H310	H	1.124120	-0.178538	0.840148
H311	H	0.624094	-0.608678	0.357551
H312	H	1.124094	-0.108678	0.857551
C313	C	0.550449	-0.403846	0.322458
C314	C	1.050449	0.096154	0.822458
C315	C	0.592617	-0.382767	0.290951
C316	C	1.092617	0.117233	0.790951
C317	C	0.592536	-0.342464	0.240917
C318	C	1.092536	0.157536	0.740917
C319	C	0.550288	-0.323238	0.222388
C320	C	1.050288	0.176762	0.722388
C321	C	0.508117	-0.344316	0.253895
C322	C	1.008117	0.155684	0.753895
C323	C	0.508198	-0.384620	0.303930
C324	C	1.008198	0.115380	0.803930
H325	H	0.623894	-0.396999	0.304667
H326	H	1.123894	0.103001	0.804667
H327	H	0.623754	-0.326860	0.217593
H328	H	1.123754	0.173140	0.717593
H329	H	0.550228	-0.293403	0.185350
H330	H	1.050228	0.206597	0.685350
H331	H	0.476840	-0.330084	0.240180
H332	H	0.976840	0.169916	0.740180
H333	H	0.476980	-0.400223	0.327253
H334	H	0.976980	0.099777	0.827253
H335	H	0.550826	-0.595166	0.570996
H336	H	1.050826	-0.095166	1.070996
H337	H	0.023675	-0.006147	0.363643
H338	H	0.523675	0.493853	0.863643
H339	H	0.169370	-0.005761	0.363053
H340	H	0.669370	0.494239	0.863053
H341	H	-0.090896	-0.534066	0.267110
H342	H	0.409104	-0.034066	0.767110
H343	H	-0.097376	-0.783993	0.408060
H344	H	0.402624	-0.283993	0.908060
H345	H	-0.037843	-0.532946	0.952238
H346	H	0.462157	-0.032946	1.452238
H347	H	-0.066081	-0.477343	0.543993
H348	H	0.433919	0.022657	1.043993
H349	H	-0.066059	-0.006159	0.544050
H350	H	0.433941	0.493841	1.044050
C351	C	0.082183	-0.635889	0.554276
C352	C	0.582183	-0.135889	1.054276
C353	C	0.050507	-0.667457	0.575343
C354	C	0.550507	-0.167457	1.075343
C355	C	0.060461	-0.717559	0.615529
C356	C	0.560461	-0.217559	1.115529
C357	C	0.102091	-0.736093	0.634648
C358	C	0.602091	-0.236093	1.134648
C359	C	0.133770	-0.704525	0.613582
C360	C	0.633770	-0.204525	1.113582
C361	C	0.123816	-0.654423	0.573395
C362	C	0.623816	-0.154423	1.073395
H363	H	0.019687	-0.653738	0.561189
H364	H	0.519687	-0.153738	1.061189
H365	H	0.037010	-0.740928	0.631124
H366	H	0.537010	-0.240928	1.131124
H367	H	0.109459	-0.773182	0.664397
H368	H	0.609459	-0.273182	1.164397
H369	H	0.164589	-0.718244	0.627735
H370	H	0.664589	-0.218244	1.127735
H371	H	0.147267	-0.631054	0.557800
H372	H	0.647267	-0.131054	1.057800
H373	H	0.079744	-0.006095	0.543566
H374	H	0.579744	0.493905	1.043566
C375	C	-0.048725	-0.374186	0.952334
C376	C	0.451275	0.125814	1.452334
C377	C	-0.038963	-0.333904	0.952344
C378	C	0.461037	0.166096	1.452344
C379	C	-0.079258	-0.283851	0.952362
C380	C	0.420742	0.216149	1.452362
C381	C	-0.129315	-0.274079	0.952370
C382	C	0.370685	0.225921	1.452370
C383	C	-0.139080	-0.314363	0.952359
C384	C	0.360920	0.185637	1.452359
C385	C	-0.098785	-0.364416	0.952341
C386	C	0.401215	0.135584	1.452341
H387	H	-0.001905	-0.341137	0.952339
H388	H	0.498095	0.158863	1.452339
H389	H	-0.072029	-0.254030	0.952370
H390	H	0.427971	0.245970	1.452370
H391	H	-0.159144	-0.237026	0.952383
H392	H	0.340856	0.262974	1.452383
H393	H	-0.176137	-0.307130	0.952364
H394	H	0.323863	0.192870	1.452364
H395	H	-0.106014	-0.394237	0.952333
H396	H	0.393986	0.105763	1.452333
C397	C	0.153030	-0.635814	0.952242
C398	C	0.653030	-0.135814	1.452242
C399	C	0.143267	-0.676096	0.952232
C400	C	0.643267	-0.176096	1.452232
C401	C	0.183562	-0.726150	0.952214
C402	C	0.683562	-0.226150	1.452214
C403	C	0.233619	-0.735922	0.952207
C404	C	0.733619	-0.235922	1.452207
C405	C	0.243384	-0.695638	0.952218
C406	C	0.743384	-0.195638	1.452218
C407	C	0.203089	-0.645584	0.952235
C408	C	0.703089	-0.145584	1.452235
H409	H	0.106210	-0.668864	0.952237
H410	H	0.606210	-0.168864	1.452237
H411	H	0.176333	-0.755971	0.952206
H412	H	0.676333	-0.255971	1.452206
H413	H	0.263448	-0.772974	0.952194
H414	H	0.763448	-0.272974	1.452194
H415	H	0.280442	-0.702870	0.952212
H416	H	0.780442	-0.202870	1.452212
H417	H	0.210318	-0.615764	0.952243
H418	H	0.710318	-0.115764	1.452243
H419	H	0.142166	-0.477036	0.952281
H420	H	0.642166	0.022964	1.452281
H421	H	0.167840	-0.502959	0.832516
H422	H	0.667840	-0.002959	1.332516
C423	C	0.213067	-0.475519	0.732368
C424	C	0.713067	0.024481	1.232368
C425	C	0.245199	-0.460620	0.739376
C426	C	0.745199	0.039380	1.239376
C427	C	0.300525	-0.474195	0.711198
C428	C	0.800525	0.025805	1.211198
C429	C	0.323720	-0.502670	0.676013
C430	C	0.823720	-0.002670	1.176013
C431	C	0.291588	-0.517571	0.669004
C432	C	0.791588	-0.017571	1.169004
C433	C	0.236262	-0.503996	0.697182
C434	C	0.736262	-0.003996	1.197182
H435	H	0.228028	-0.439539	0.765424
H436	H	0.728028	0.060461	1.265424
H437	H	0.324310	-0.463165	0.716387
H438	H	0.824310	0.036835	1.216387
H439	H	0.364676	-0.512720	0.655154
H440	H	0.864676	-0.012720	1.155154
H441	H	0.308758	-0.538652	0.642956
H442	H	0.808758	-0.038652	1.142956
H443	H	0.212476	-0.515026	0.691993
H444	H	0.712476	-0.015026	1.191993
C445	C	0.001546	-0.423628	0.534986
C446	C	0.501546	0.076372	1.034986
C447	C	-0.030534	-0.438543	0.589038
C448	C	0.469466	0.061457	1.089038
C449	C	-0.085871	-0.424969	0.602670
C450	C	0.414129	0.075031	1.102670
C451	C	-0.109129	-0.396480	0.562249
C452	C	0.390871	0.103520	1.062249
C453	C	-0.077048	-0.381563	0.508193
C454	C	0.422952	0.118437	1.008193
C455	C	-0.021711	-0.395137	0.494562
C456	C	0.478289	0.104863	0.994562
H457	H	-0.013318	-0.459634	0.618963
H458	H	0.486682	0.040366	1.118963
H459	H	-0.109619	-0.436012	0.642686
H460	H	0.390381	0.063988	1.142686
H461	H	-0.150093	-0.386432	0.572340
H462	H	0.349907	0.113568	1.072340
H463	H	-0.094265	-0.360472	0.478268
H464	H	0.405735	0.139528	0.978268
H465	H	0.002037	-0.384094	0.454546
H466	H	0.502037	0.115906	0.954546
H467	H	0.047048	-0.396226	0.739820
H468	H	0.547048	0.103774	1.239820
H469	H	0.167497	-0.502899	0.455559
H470	H	0.667497	-0.002899	0.955559
C471	C	0.021307	-0.374043	0.353103
C472	C	0.521307	0.125957	0.853103
C473	C	0.024806	-0.370645	0.303955
C474	C	0.524806	0.129355	0.803955
C475	C	0.014851	-0.320544	0.263768
C476	C	0.514851	0.179456	0.763768
C477	C	0.001397	-0.273841	0.272728
C478	C	0.501397	0.226159	0.772728
C479	C	-0.002102	-0.277238	0.321878
C480	C	0.497898	0.222762	0.821878
C481	C	0.007853	-0.327339	0.362065
C482	C	0.507853	0.172661	0.862065
H483	H	0.034766	-0.405218	0.297320
H484	H	0.534766	0.094782	0.797320
H485	H	0.017441	-0.318030	0.227383
H486	H	0.517441	0.181970	0.727383
H487	H	-0.005972	-0.236754	0.242979
H488	H	0.494028	0.263246	0.742979
H489	H	-0.012062	-0.242665	0.328513
H490	H	0.487938	0.257335	0.828513
H491	H	0.005263	-0.329853	0.398449
H492	H	0.505263	0.170147	0.898449
H493	H	0.338156	-0.509129	0.552896
H494	H	0.838156	-0.009129	1.052896
C495	C	0.212836	-0.475460	0.482927
C496	C	0.712836	0.024540	0.982927
C497	C	0.244999	-0.529496	0.497782
C498	C	0.744999	-0.029496	0.997782
C499	C	0.300335	-0.543058	0.484148
C500	C	0.800335	-0.043058	0.984148
C501	C	0.323507	-0.502585	0.455659
C502	C	0.823507	-0.002585	0.955659
C503	C	0.291344	-0.448546	0.440802
C504	C	0.791344	0.051454	0.940802
C505	C	0.236008	-0.434984	0.454436
C506	C	0.736008	0.065016	0.954436
H507	H	0.227846	-0.559460	0.518873
H508	H	0.727846	-0.059460	1.018873
H509	H	0.324144	-0.583062	0.495147
H510	H	0.824144	-0.083062	0.995147
H511	H	0.364470	-0.512625	0.445567
H512	H	0.864470	-0.012625	0.945567
H513	H	0.308497	-0.418582	0.419711
H514	H	0.808497	0.081418	0.919711
H515	H	0.212198	-0.394980	0.443437
H516	H	0.712198	0.105020	0.943437
C517	C	0.438292	-0.554312	0.523961
C518	C	0.938292	-0.054312	1.023961
C519	C	0.410172	-0.590475	0.550724
C520	C	0.910172	-0.090475	1.050724
C521	C	0.438332	-0.645386	0.558689
C522	C	0.938332	-0.145386	1.058689
C523	C	0.494613	-0.664134	0.539892
C524	C	0.994613	-0.164134	1.039892
C525	C	0.522736	-0.627970	0.513128
C526	C	1.022736	-0.127970	1.013128
C527	C	0.494576	-0.573060	0.505163
C528	C	0.994576	-0.073060	1.005163
H529	H	0.368506	-0.576598	0.564640
H530	H	0.868506	-0.076598	1.064640
H531	H	0.417512	-0.672157	0.578502
H532	H	0.917512	-0.172157	1.078502
H533	H	0.515458	-0.704782	0.545789
H534	H	1.015458	-0.204782	1.045789
H535	H	0.564401	-0.641848	0.499212
H536	H	1.064401	-0.141848	0.999212
H537	H	0.515395	-0.546289	0.485350
H538	H	1.015395	-0.046289	0.985350
H539	H	0.430920	-0.389838	0.464614
H540	H	0.930920	0.110162	0.964614
C541	C	0.182574	-0.535145	0.352926
C542	C	0.682574	-0.035145	0.852926
C543	C	0.222821	-0.585223	0.362764
C544	C	0.722821	-0.085223	0.862764
C545	C	0.272881	-0.595077	0.322510
C546	C	0.772881	-0.095077	0.822510
C547	C	0.282694	-0.554854	0.272419
C548	C	0.782694	-0.054854	0.772419
C549	C	0.242446	-0.504773	0.262580
C550	C	0.742446	-0.004773	0.762580
C551	C	0.192386	-0.494919	0.302833
C552	C	0.692386	0.005081	0.802833
H553	H	0.215557	-0.615001	0.399846
H554	H	0.715557	-0.115001	0.899846
H555	H	0.302675	-0.632151	0.329794
H556	H	0.802675	-0.132151	0.829794
H557	H	0.319752	-0.562149	0.242621
H558	H	0.819752	-0.062149	0.742621
H559	H	0.249710	-0.474995	0.225498
H560	H	0.749710	0.025005	0.725498
H561	H	0.162592	-0.457846	0.295549
H562	H	0.662592	0.042154	0.795549
H563	H	0.160490	-0.218637	0.448603
H564	H	0.660490	0.281363	0.948603
C565	C	0.330780	-0.344653	0.493543
C566	C	0.830780	0.155347	0.993543
C567	C	0.358905	-0.308495	0.466783
C568	C	0.858905	0.191505	0.966783
C569	C	0.330749	-0.253583	0.458813
C570	C	0.830749	0.246417	0.958813
C571	C	0.274468	-0.234829	0.477604
C572	C	0.774468	0.265171	0.977604
C573	C	0.246340	-0.270989	0.504366
C574	C	0.746340	0.229011	1.004366
C575	C	0.274496	-0.325901	0.512335
C576	C	0.774496	0.174099	1.012335
H577	H	0.400570	-0.322376	0.452871
H578	H	0.900570	0.177624	0.952871
H579	H	0.351571	-0.226815	0.439002
H580	H	0.851571	0.273185	0.939002
H581	H	0.253626	-0.194180	0.471705
H582	H	0.753626	0.305820	0.971705
H583	H	0.204675	-0.257107	0.518278
H584	H	0.704675	0.242893	1.018278
H585	H	0.253673	-0.352668	0.532146
H586	H	0.753673	0.147332	1.032146
H587	H	0.053825	-0.125861	0.569312
H588	H	0.553825	0.374139	1.069312
C589	C	0.133017	-0.118492	0.403324
C590	C	0.633017	0.381508	0.903324
C591	C	0.165357	-0.146618	0.366733
C592	C	0.665357	0.353382	0.866733
C593	C	0.178906	-0.118459	0.311399
C594	C	0.678906	0.381541	0.811399
C595	C	0.160115	-0.062174	0.292657
C596	C	0.660115	0.437826	0.792657
C597	C	0.127773	-0.034045	0.329249
C598	C	0.627773	0.465955	0.829249
C599	C	0.114224	-0.062204	0.384582
C600	C	0.614224	0.437796	0.884582
H601	H	0.179269	-0.188286	0.380606
H602	H	0.679269	0.311714	0.880606
H603	H	0.202848	-0.139282	0.284312
H604	H	0.702848	0.360718	0.784312
H605	H	0.170145	-0.041330	0.251696
H606	H	0.670145	0.458670	0.751696
H607	H	0.113862	0.007623	0.315376
H608	H	0.613862	0.507623	0.815376
H609	H	0.090283	-0.041381	0.411670
H610	H	0.590283	0.458619	0.911670
H611	H	0.084809	-0.218687	0.600218
H612	H	0.584809	0.281313	1.100218
C613	C	-0.063344	-0.488806	0.166971
C614	C	0.436656	0.011194	0.666971
C615	C	-0.048477	-0.456703	0.174056
C616	C	0.451523	0.043297	0.674056
C617	C	-0.062027	-0.401369	0.145892
C618	C	0.437973	0.098631	0.645892
C619	C	-0.090444	-0.378137	0.110643
C620	C	0.409556	0.121863	0.610643
C621	C	-0.105313	-0.410240	0.103557
C622	C	0.394687	0.089760	0.603557
C623	C	-0.091763	-0.465574	0.131721
C624	C	0.408237	0.034426	0.631721
H625	H	-0.027440	-0.473900	0.200150
H626	H	0.472560	0.026100	0.700150
H627	H	-0.051020	-0.377604	0.151138
H628	H	0.448980	0.122396	0.651138
H629	H	-0.100475	-0.337176	0.089795
H630	H	0.399525	0.162824	0.589795
H631	H	-0.126351	-0.393043	0.077463
H632	H	0.373649	0.106957	0.577463
H633	H	-0.102770	-0.489339	0.126475
H634	H	0.397230	0.010661	0.626475
C635	C	0.024324	-0.664325	0.167072
C636	C	0.524324	-0.164325	0.667072
C637	C	0.037857	-0.719654	0.195243
C638	C	0.537857	-0.219654	0.695243
C639	C	0.070229	-0.756262	0.167132
C640	C	0.570229	-0.256262	0.667132
C641	C	0.089068	-0.737539	0.110850
C642	C	0.589068	-0.237539	0.610850
C643	C	0.075535	-0.682207	0.082675
C644	C	0.575535	-0.182207	0.582675
C645	C	0.043163	-0.645599	0.110786
C646	C	0.543163	-0.145599	0.610786
H647	H	0.023911	-0.733516	0.236909
H648	H	0.523911	-0.233516	0.736909
H649	H	0.080247	-0.797223	0.187989
H650	H	0.580247	-0.297223	0.687989
H651	H	0.113032	-0.764638	0.090040
H652	H	0.613032	-0.264638	0.590040
H653	H	0.089481	-0.668345	0.041009
H654	H	0.589481	-0.168345	0.541009
H655	H	0.033145	-0.604639	0.089930
H656	H	0.533145	-0.104639	0.589930
H657	H	-0.015148	-0.685706	0.267200
H658	H	0.484852	-0.185706	0.767200
H659	H	-0.090949	-0.534065	0.310634
H660	H	0.409051	-0.034065	0.810634
H661	H	0.015562	-0.654800	0.417614
H662	H	0.515562	-0.154800	0.917614
C663	C	-0.063582	-0.488797	0.338148
C664	C	0.436418	0.011203	0.838148
C665	C	-0.095865	-0.452196	0.305712
C666	C	0.404135	0.047804	0.805712
C667	C	-0.109421	-0.396862	0.292100
C668	C	0.390579	0.103138	0.792100
C669	C	-0.090692	-0.378130	0.310925
C670	C	0.409308	0.121870	0.810925
C671	C	-0.058407	-0.414731	0.343363
C672	C	0.441593	0.085269	0.843363
C673	C	-0.044852	-0.470064	0.356974
C674	C	0.455148	0.029936	0.856974
H675	H	-0.109731	-0.466062	0.291775
H676	H	0.390269	0.033938	0.791775
H677	H	-0.133320	-0.369768	0.268088
H678	H	0.366680	0.130232	0.768088
H679	H	-0.100727	-0.337168	0.300848
H680	H	0.399273	0.162832	0.800848
H681	H	-0.044542	-0.400864	0.357299
H682	H	0.455458	0.099136	0.857299
H683	H	-0.020952	-0.497159	0.380987
H684	H	0.479048	0.002841	0.880987
H685	H	0.021953	-0.691318	0.320042
H686	H	0.521953	-0.191318	0.820042
C687	C	-0.011799	-0.700068	0.390089
C688	C	0.488201	-0.200068	0.890089
C689	C	0.042240	-0.732225	0.375263
C690	C	0.542240	-0.232225	0.875263
C691	C	0.055815	-0.787556	0.388840
C692	C	0.555815	-0.287556	0.888840
C693	C	0.015352	-0.810730	0.417243
C694	C	0.515352	-0.310730	0.917243
C695	C	-0.038690	-0.778573	0.432071
C696	C	0.461310	-0.278573	0.932071
C697	C	-0.052265	-0.723242	0.418494
C698	C	0.447735	-0.223242	0.918494
H699	H	0.072196	-0.715071	0.354236
H700	H	0.572196	-0.215071	0.854236
H701	H	0.095821	-0.811361	0.377863
H702	H	0.595821	-0.311361	0.877863
H703	H	0.025401	-0.851689	0.427294
H704	H	0.525401	-0.351689	0.927294
H705	H	-0.068646	-0.795727	0.453098
H706	H	0.431354	-0.295727	0.953098
H707	H	-0.092271	-0.699437	0.429470
H708	H	0.407729	-0.199437	0.929470
H709	H	0.052828	-0.784146	0.351024
H710	H	0.552828	-0.284146	0.851024
H711	H	-0.128252	-0.691169	0.377093
H712	H	0.371748	-0.191169	0.877093
C713	C	-0.127310	-0.656087	0.433802
C714	C	0.372690	-0.156087	0.933802
C715	C	-0.092143	-0.639137	0.433640
C716	C	0.407857	-0.139137	0.933640
C717	C	-0.064072	-0.671514	0.470285
C718	C	0.435928	-0.171514	0.970285
C719	C	-0.071169	-0.720841	0.507094
C720	C	0.428831	-0.220841	1.007094
C721	C	-0.106338	-0.737793	0.507257
C722	C	0.393662	-0.237793	1.007257
C723	C	-0.134408	-0.705416	0.470612
C724	C	0.365592	-0.205416	0.970612
H725	H	-0.086888	-0.602620	0.406391
H726	H	0.413112	-0.102620	0.906391
H727	H	-0.038038	-0.658965	0.470164
H728	H	0.461962	-0.158965	0.970164
H729	H	-0.050389	-0.744808	0.534221
H730	H	0.449611	-0.244808	1.034221
H731	H	-0.111593	-0.774310	0.534506
H732	H	0.388407	-0.274310	1.034506
H733	H	-0.160443	-0.717966	0.470733
H734	H	0.339557	-0.217966	0.970733
C735	C	-0.234762	-0.620156	0.469454
C736	C	0.265238	-0.120156	0.969454
C737	C	-0.206696	-0.652530	0.506100
C738	C	0.293304	-0.152530	1.006100
C739	C	-0.234910	-0.666084	0.561420
C740	C	0.265090	-0.166084	1.061420
C741	C	-0.291191	-0.647263	0.580093
C742	C	0.208809	-0.147263	1.080093
C743	C	-0.319260	-0.614887	0.543446
C744	C	0.180740	-0.114887	1.043446
C745	C	-0.291046	-0.601333	0.488126
C746	C	0.208954	-0.101333	0.988126
H747	H	-0.165031	-0.666464	0.492278
H748	H	0.334969	-0.166464	0.992278
H749	H	-0.214131	-0.690051	0.588549
H750	H	0.285869	-0.190051	1.088549
H751	H	-0.312076	-0.657296	0.621044
H752	H	0.187924	-0.157296	1.121044
H753	H	-0.360925	-0.600953	0.557268
H754	H	0.139075	-0.100953	1.057268
H755	H	-0.311826	-0.577366	0.460998
H756	H	0.188174	-0.077366	0.960998
H757	H	-0.227194	-0.540877	0.303400
H758	H	0.272806	-0.040877	0.803400
H759	H	-0.134369	-0.571905	0.272603
H760	H	0.365631	-0.071905	0.772603
