data_functionalizedCrystal
_audit_creation_method	'MofGen! by Chris Wilmer'
_symmetry_space_group_name_H-M	'P1'
_symmetry_Int_Tables_number	1
_symmetry_cell_setting	triclinic
loop_
_symmetry_equiv_pos_as_xyz
  x,y,z
_cell_length_a	10.489711
_cell_length_b	19.288865
_cell_length_c	17.766277
_cell_angle_alpha	90.011603
_cell_angle_beta	89.989120
_cell_angle_gamma	96.168372
loop_
_atom_site_label
_atom_site_type_symbol
_atom_site_fract_x
_atom_site_fract_y
_atom_site_fract_z
O1	O	1.691871	-0.097896	-0.062631
O2	O	1.320462	-0.107115	-0.062628
O3	O	1.516898	-0.001447	-0.062615
O4	O	1.495434	-0.203565	-0.062644
O5	O	1.516864	-0.001441	0.062574
O6	O	1.320427	-0.107110	0.062561
O7	O	1.691836	-0.097890	0.062557
Cu8	Cu	1.506129	-0.102499	0.073990
Cu9	Cu	1.506169	-0.102506	-0.074060
O10	O	1.495400	-0.203559	0.062544
C11	C	1.272928	-0.106421	-0.000033
C12	C	1.131343	-0.104350	-0.000031
C13	C	0.947520	-0.167896	-0.000049
C14	C	1.040400	-0.136157	-0.061767
C15	C	1.040339	-0.136135	0.061659
C16	C	0.971970	-0.068888	-0.061816
C17	C	0.971900	-0.068875	0.061666
C18	C	1.064754	-0.037086	-0.000068
C19	C	1.516190	0.024437	-0.000018
C20	C	1.514117	0.101555	-0.000011
C21	C	1.739370	-0.098585	-0.000039
C22	C	1.880955	-0.100655	-0.000046
C23	C	1.496108	-0.229443	-0.000054
C24	C	1.498181	-0.306560	-0.000065
C25	C	1.629377	0.145485	-0.000009
C26	C	1.627429	0.217945	-0.000021
C27	C	1.510215	0.246471	-0.000020
C28	C	1.394940	0.202532	-0.000027
C29	C	1.396891	0.130073	-0.000023
C30	C	1.418059	0.355373	0.043832
C31	C	1.416113	0.427831	0.043832
C32	C	1.504193	0.469957	-0.000037
C33	C	1.594241	0.439618	-0.043896
C34	C	1.596192	0.367160	-0.043892
C35	C	1.508087	0.325040	-0.000025
C36	C	1.617349	0.592457	-0.000048
C37	C	1.615396	0.664918	-0.000065
C38	C	1.382903	0.649503	-0.000063
C39	C	1.384859	0.577044	-0.000054
C40	C	1.502085	0.548525	-0.000043
N41	N	1.506109	-0.102494	0.178120
N42	N	1.506199	-0.102506	-0.178190
C43	C	1.593119	-0.055728	0.217513
C44	C	1.593127	-0.055724	0.296315
C45	C	1.506136	-0.102500	0.335721
C46	C	1.419110	-0.149270	0.296319
C47	C	1.419096	-0.149268	0.217518
C48	C	1.489061	-0.165674	0.460550
C49	C	1.489083	-0.165678	0.539348
C50	C	1.506170	-0.102509	0.578767
C51	C	1.523262	-0.039333	0.539377
C52	C	1.523249	-0.039330	0.460577
C53	C	1.506140	-0.102508	0.421166
C54	C	1.593193	-0.055734	0.703606
C55	C	1.593192	-0.055730	0.782409
C56	C	1.419181	-0.149282	0.782411
C57	C	1.419176	-0.149281	0.703610
C58	C	1.506189	-0.102507	0.664212
H59	H	1.724832	0.122270	-0.000002
C60	C	1.323397	-0.200711	0.339658
H61	H	1.271559	-0.228557	0.304908
H62	H	1.369085	-0.229873	0.370390
H63	H	1.270465	-0.175428	0.370406
C64	C	1.470256	-0.235163	0.417193
H65	H	1.472681	-0.226114	0.364622
H66	H	1.536797	-0.262734	0.430086
H67	H	1.389664	-0.259504	0.430116
H68	H	1.070766	-0.164613	-0.113952
H69	H	1.712801	0.569236	-0.000043
C70	C	1.754216	0.266280	-0.000013
H71	H	1.736262	0.313517	-0.000021
H72	H	1.802279	0.257580	0.043646
H73	H	1.802318	0.257565	-0.043671
C74	C	1.742189	0.713242	-0.000061
H75	H	1.812278	0.685876	-0.000046
H76	H	1.746284	0.741819	-0.043718
H77	H	1.746236	0.741837	0.043599
H78	H	1.299503	0.225763	-0.000028
C79	C	1.688816	-0.004272	0.174179
H80	H	1.740629	0.023586	0.208931
H81	H	1.741756	-0.029532	0.143420
H82	H	1.643090	0.024888	0.143459
C83	C	0.931248	-0.030495	-0.132389
H84	H	0.840917	-0.029415	-0.131978
H85	H	0.972446	0.015835	-0.132563
H86	H	0.955238	-0.054232	-0.176169
H87	H	1.669509	0.342461	-0.079605
C88	C	0.930817	-0.030469	0.132164
H89	H	0.890795	0.009275	0.117345
H90	H	0.872165	-0.060882	0.160713
H91	H	1.004155	-0.016099	0.161927
H92	H	1.348346	-0.187365	0.814495
H93	H	1.348329	-0.187365	0.671534
C94	C	1.133281	0.037637	-0.000097
H95	H	1.184847	0.044598	0.043771
H96	H	1.185961	0.044307	-0.043545
H97	H	1.071302	0.070107	-0.000524
H98	H	1.303029	0.094305	-0.000024
C99	C	1.691141	0.485945	-0.092153
H100	H	1.745053	0.457499	-0.118266
H101	H	1.646302	0.511280	-0.127424
H102	H	1.741872	0.517631	-0.060528
C103	C	1.081260	-0.174576	0.132152
H104	H	1.040686	-0.221044	0.132064
H105	H	1.171671	-0.175272	0.131899
H106	H	1.056636	-0.151133	0.175985
H107	H	1.287465	0.672729	-0.000067
H108	H	1.664042	-0.017643	0.814483
H109	H	1.291002	0.541275	-0.000052
H110	H	1.537162	0.012110	0.428509
H111	H	1.342785	0.452526	0.079540
C112	C	1.323390	-0.200718	0.174185
H113	H	1.271585	-0.228579	0.208936
H114	H	1.270443	-0.175454	0.143456
H115	H	1.369109	-0.229875	0.143434
H116	H	1.346330	0.321079	0.079559
C117	C	1.688843	-0.004280	0.339656
H118	H	1.740666	0.023574	0.304906
H119	H	1.643143	0.024874	0.370414
H120	H	1.741792	-0.029556	0.370377
C121	C	1.542048	0.030157	0.582727
H122	H	1.539592	0.021111	0.635298
H123	H	1.622628	0.054506	0.569809
H124	H	1.475492	0.057721	0.569826
C125	C	1.688888	-0.004280	0.660265
H126	H	1.740698	0.023581	0.695015
H127	H	1.741832	-0.029543	0.629510
H128	H	1.643162	0.024876	0.629540
H129	H	0.896579	-0.223164	-0.000118
C130	C	1.470292	-0.235167	0.582670
H131	H	1.460093	-0.272788	0.547910
H132	H	1.543152	-0.239409	0.613394
H133	H	1.396019	-0.236181	0.613425
