data_functionalizedCrystal
_audit_creation_method	'MofGen! by Chris Wilmer'
_symmetry_space_group_name_H-M	'P1'
_symmetry_Int_Tables_number	1
_symmetry_cell_setting	triclinic
loop_
_symmetry_equiv_pos_as_xyz
  x,y,z
_cell_length_a	19.121321
_cell_length_b	19.120786
_cell_length_c	18.101390
_cell_angle_alpha	87.524889
_cell_angle_beta	92.421694
_cell_angle_gamma	90.133760
loop_
_atom_site_label
_atom_site_type_symbol
_atom_site_fract_x
_atom_site_fract_y
_atom_site_fract_z
Zn1	Zn	1.059822	-0.324751	-0.356401
Zn2	Zn	1.054732	-0.442006	-0.227509
Zn3	Zn	0.942588	-0.319789	-0.238075
Zn4	Zn	0.937555	-0.436965	-0.356811
O5	O	0.998674	-0.380878	-0.294699
O6	O	1.157248	-0.344491	-0.334710
O7	O	1.039832	-0.425827	-0.125277
O8	O	0.962376	-0.222337	-0.258021
O9	O	1.153509	-0.430639	-0.240014
O10	O	1.048507	-0.225982	-0.344955
O11	O	0.957440	-0.336035	-0.133040
O12	O	0.843819	-0.331146	-0.258419
O13	O	0.953798	-0.422046	-0.460390
O14	O	0.840122	-0.417235	-0.345654
O15	O	1.043627	-0.339603	-0.460089
O16	O	1.034952	-0.539448	-0.240411
O17	O	0.948863	-0.535744	-0.335409
C18	C	0.816534	-0.373105	-0.303228
C19	C	0.738612	-0.369797	-0.306893
C20	C	0.298006	-0.348785	-0.330138
C21	C	0.371220	-0.351907	-0.326689
C22	C	0.405875	-0.398246	-0.275588
C23	C	0.367311	-0.441471	-0.227937
C24	C	0.294097	-0.438353	-0.231390
C25	C	0.626835	-0.409905	-0.262695
C26	C	0.700054	-0.413018	-0.259245
C27	C	0.703958	-0.323454	-0.357998
C28	C	0.630743	-0.320337	-0.361443
C29	C	0.592185	-0.363565	-0.313795
C30	C	0.480712	-0.401436	-0.272060
C31	C	0.517349	-0.360378	-0.317327
C32	C	0.990828	-0.563035	-0.286823
C33	C	0.987536	-0.640966	-0.283476
C34	C	1.030799	-0.679414	-0.327205
C35	C	1.027703	-0.752638	-0.324061
C36	C	0.981346	-0.787413	-0.277183
C37	C	0.938077	-0.748959	-0.233453
C38	C	0.941171	-0.675736	-0.236601
C39	C	0.969760	-1.008406	-0.265414
C40	C	0.966672	-1.081634	-0.262268
C41	C	1.056296	-1.085308	-0.352878
C42	C	1.059389	-1.012083	-0.356018
C43	C	1.016118	-0.973636	-0.312291
C44	C	0.978181	-0.862259	-0.273967
C45	C	1.019279	-0.898791	-0.315511
C46	C	1.181526	-0.388681	-0.286138
C47	C	1.259447	-0.392006	-0.282489
C48	C	0.998719	-0.380815	-0.487862
C49	C	0.998738	-0.380789	-0.570176
C50	C	1.006570	-0.198010	-0.302621
C51	C	1.009935	-0.120082	-0.305997
C52	C	0.998777	-0.380747	-0.869268
C53	C	1.055465	-0.329074	-0.837736
C54	C	1.055304	-0.328867	-0.752135
C55	C	0.998758	-0.380768	-0.720885
C56	C	0.925760	-0.357548	-0.756290
C57	C	0.926103	-0.357157	-0.841938
C58	C	1.014431	-0.455751	-0.833598
C59	C	1.016068	-0.455441	-0.747888
C60	C	0.998743	-0.380781	-0.637026
C61	C	0.998788	-0.380732	-0.953127
C62	C	0.998673	-0.380891	-0.102288
C63	C	0.998798	-0.380726	-0.019976
H64	H	0.262703	-0.473549	-0.192591
Cl65	Cl	1.039690	-0.243177	-0.725082
H66	H	1.091524	-1.116619	-0.388479
Cl67	Cl	0.743618	-0.471291	-0.195012
Cl68	Cl	0.905012	-0.272373	-0.877573
Cl69	Cl	1.077551	-0.855073	-0.374445
Cl70	Cl	0.904214	-0.273662	-0.727948
H71	H	0.900330	-0.777278	-0.195287
Cl72	Cl	0.410876	-0.499730	-0.163698
Cl73	Cl	0.915356	-0.960082	-0.210449
Cl74	Cl	0.858928	-0.412459	-0.874447
Cl75	Cl	0.524284	-0.459687	-0.207818
Cl76	Cl	1.089083	-0.635705	-0.386136
H77	H	1.097136	-0.983772	-0.394190
Cl78	Cl	0.908392	-1.125350	-0.203329
Cl79	Cl	0.578372	-0.464228	-0.202774
Cl80	Cl	0.858988	-0.413656	-0.725317
H81	H	1.062938	-0.783940	-0.359664
Cl82	Cl	1.094952	-0.487422	-0.861902
Cl83	Cl	1.098987	-0.482387	-0.711592
Cl84	Cl	0.919901	-0.905982	-0.215041
H85	H	1.109533	-0.343770	-0.728014
Cl86	Cl	0.254447	-0.290524	-0.394379
Cl87	Cl	0.419691	-0.297573	-0.386597
Cl88	Cl	0.587183	-0.262082	-0.425690
H89	H	0.905940	-0.644432	-0.200993
Cl90	Cl	0.752435	-0.269118	-0.417898
H91	H	0.489130	-0.322651	-0.358936
Cl92	Cl	0.956563	-0.518471	-0.714672
H93	H	1.109879	-0.343830	-0.855224
Cl94	Cl	0.950624	-0.515252	-0.865044
Cl95	Cl	1.040079	-0.243867	-0.875516
