data_functionalizedCrystal
_audit_creation_method	'MofGen! by Chris Wilmer'
_symmetry_space_group_name_H-M	'P1'
_symmetry_Int_Tables_number	1
_symmetry_cell_setting	triclinic
loop_
_symmetry_equiv_pos_as_xyz
  x,y,z
_cell_length_a	6.817900
_cell_length_b	16.305597
_cell_length_c	16.306216
_cell_angle_alpha	95.358262
_cell_angle_beta	103.467292
_cell_angle_gamma	103.455834
loop_
_atom_site_label
_atom_site_type_symbol
_atom_site_fract_x
_atom_site_fract_y
_atom_site_fract_z
V1	V	-4.026286	-0.117377	-0.263317
O2	O	-4.013944	0.004961	-0.258007
O3	O	-3.977676	-0.232085	-0.261802
O4	O	-3.977738	-0.115869	-0.378028
O5	O	-4.013882	-0.112059	-0.140976
V6	V	-4.509961	-0.102709	-0.248649
O7	O	-4.287212	-0.149553	-0.295491
O8	O	-4.699232	-0.070533	-0.216474
O9	O	-4.335364	0.012000	-0.250164
O10	O	-4.639699	-0.225047	-0.253959
O11	O	-4.639762	-0.108026	-0.370989
O12	O	-4.335303	-0.104216	-0.133938
C13	C	-3.822630	-0.260040	-0.257722
C14	C	-3.864172	-0.353817	-0.257248
C15	C	-4.015299	-0.694571	-0.255567
C16	C	-3.779577	-0.653729	-0.250961
C17	C	-3.736039	-0.556131	-0.251119
C18	C	-3.940322	-0.525519	-0.256402
C19	C	-4.023265	-0.550690	-0.177798
C20	C	-4.065071	-0.648221	-0.177216
C21	C	-4.153355	-0.673958	-0.338552
C22	C	-4.106524	-0.576449	-0.340007
C23	C	-3.897958	-0.429978	-0.256871
C24	C	-4.057666	-0.790112	-0.255093
C25	C	-3.822708	-0.111793	-0.405978
C26	C	-3.864297	-0.111320	-0.499757
C27	C	-4.015256	-0.109620	-0.840505
C28	C	-4.219668	-0.115216	-0.810071
C29	C	-4.176398	-0.115385	-0.712479
C30	C	-3.940365	-0.110464	-0.671456
C31	C	-3.804763	-0.026793	-0.691455
C32	C	-3.849391	-0.026273	-0.789052
C33	C	-3.928570	-0.187397	-0.814580
C34	C	-3.890003	-0.189048	-0.717267
C35	C	-3.898026	-0.110938	-0.575916
C36	C	-4.057585	-0.109140	-0.936044
C37	C	-4.153752	0.039950	-0.254241
C38	C	-4.091449	0.133727	-0.254721
C39	C	-4.153674	-0.108295	-0.105983
C40	C	-4.091324	-0.108764	-0.012204
H41	H	-4.325988	-0.700966	-0.342747
C42	C	-4.318604	-0.196629	-0.695294
N43	N	-4.425733	-0.257822	-0.682355
H44	H	-3.776707	-0.183962	-0.833732
H45	H	-3.966066	-0.659564	-0.114782
H46	H	-3.674520	-0.667078	-0.191111
C47	C	-3.850431	0.052064	-0.647980
N48	N	-3.884837	0.111458	-0.615234
H49	H	-3.609224	-0.521547	-0.191096
C50	C	-3.661838	-0.190793	-0.680245
N51	N	-3.489974	-0.192102	-0.652358
H52	H	-4.173293	-0.530840	-0.178656
C53	C	-4.294745	-0.684486	-0.177136
N54	N	-4.467727	-0.711797	-0.177068
C55	C	-4.115980	-0.718082	-0.419084
N56	N	-4.087804	-0.751315	-0.479736
H57	H	-3.905752	0.032560	-0.804066
H58	H	-4.047685	-0.560904	-0.398170
H59	H	-3.990512	-0.250905	-0.705499
H60	H	-3.696487	-0.018733	-0.808259
C61	C	-3.646537	-0.533463	-0.326989
N62	N	-3.579102	-0.516393	-0.384132
C63	C	-4.081480	-0.272338	-0.863207
N64	N	-4.196673	-0.336312	-0.899832
C65	C	-4.391133	-0.196193	-0.856966
N66	N	-4.520288	-0.257186	-0.892297
H67	H	-3.733747	-0.684349	-0.306903
C68	C	-4.309992	-0.039740	-0.833585
N69	N	-4.378014	0.017112	-0.851296
C70	C	-3.863823	-0.502376	-0.094185
N71	N	-3.743720	-0.465988	-0.031209
C72	C	-4.238213	-0.039697	-0.671264
N73	N	-4.284764	0.017318	-0.640219
H74	H	-4.258873	-0.556637	-0.348744
H75	H	-3.631044	-0.020149	-0.663949
