data_functionalizedCrystal
_audit_creation_method	'MofGen! by Chris Wilmer'
_symmetry_space_group_name_H-M	'P1'
_symmetry_Int_Tables_number	1
_symmetry_cell_setting	triclinic
loop_
_symmetry_equiv_pos_as_xyz
  x,y,z
_cell_length_a	17.077404
_cell_length_b	16.959453
_cell_length_c	17.077396
_cell_angle_alpha	89.970905
_cell_angle_beta	89.981638
_cell_angle_gamma	90.022791
loop_
_atom_site_label
_atom_site_type_symbol
_atom_site_fract_x
_atom_site_fract_y
_atom_site_fract_z
Zn1	Zn	1.200044	-0.314724	-0.443815
Zn2	Zn	1.533377	0.018609	-0.110482
Zn3	Zn	1.866711	0.351942	0.222851
Zn4	Zn	1.199947	-0.446912	-0.312548
Zn5	Zn	1.533280	-0.113579	0.020785
Zn6	Zn	1.866613	0.219754	0.354119
Zn7	Zn	1.068776	-0.314747	-0.312566
Zn8	Zn	1.402109	0.018586	0.020767
Zn9	Zn	1.735443	0.351920	0.354101
Zn10	Zn	1.068739	-0.446860	-0.443774
Zn11	Zn	1.402073	-0.113527	-0.110441
Zn12	Zn	1.735406	0.219807	0.222892
O13	O	1.134377	-0.380811	-0.378176
O14	O	1.467710	-0.047478	-0.044843
O15	O	1.801043	0.285856	0.288491
O16	O	1.309878	-0.332272	-0.426412
O17	O	1.643211	0.001062	-0.093079
O18	O	1.976545	0.334395	0.240254
O19	O	1.182521	-0.429411	-0.202703
O20	O	1.515854	-0.096078	0.130630
O21	O	1.849188	0.237255	0.463963
O22	O	1.086245	-0.204133	-0.330001
O23	O	1.419578	0.129200	0.003332
O24	O	1.752912	0.462534	0.336665
O25	O	1.309807	-0.429390	-0.329971
O26	O	1.643140	-0.096056	0.003363
O27	O	1.976473	0.237277	0.336696
O28	O	1.182687	-0.204116	-0.426430
O29	O	1.516020	0.129217	-0.093096
O30	O	1.849354	0.462550	0.240237
O31	O	1.086150	-0.332310	-0.202717
O32	O	1.419484	0.001023	0.130617
O33	O	1.752817	0.334356	0.463950
O34	O	0.958924	-0.332260	-0.329961
O35	O	1.292257	0.001074	0.003372
O36	O	1.625591	0.334407	0.336705
O37	O	1.086183	-0.429301	-0.553627
O38	O	1.419516	-0.095967	-0.220293
O39	O	1.752849	0.237366	0.113040
O40	O	0.958897	-0.429323	-0.426359
O41	O	1.292231	-0.095989	-0.093026
O42	O	1.625564	0.237344	0.240307
O43	O	1.182652	-0.332221	-0.553657
O44	O	1.515985	0.001112	-0.220324
O45	O	1.849318	0.334445	0.113010
O46	O	1.182486	-0.557516	-0.329931
O47	O	1.515819	-0.224183	0.003403
O48	O	1.849152	0.109150	0.336736
O49	O	1.086088	-0.557478	-0.426342
O50	O	1.419422	-0.224145	-0.093009
O51	O	1.752755	0.109189	0.240325
C52	C	0.930429	-0.380789	-0.378158
C53	C	1.263762	-0.047455	-0.044825
C54	C	1.597095	0.285878	0.288508
C55	C	0.843179	-0.380798	-0.378169
C56	C	1.176512	-0.047465	-0.044836
C57	C	1.509846	0.285869	0.288497
C58	C	0.802227	-0.330319	-0.428463
C59	C	1.135560	0.003015	-0.095130
C60	C	1.468893	0.336348	0.238203
C61	C	0.720246	-0.330324	-0.428467
C62	C	1.053580	0.003010	-0.095134
C63	C	1.386913	0.336343	0.238200
C64	C	0.679219	-0.380813	-0.378180
C65	C	1.012553	-0.047479	-0.044847
C66	C	1.345886	0.285854	0.288487
C67	C	0.720177	-0.431294	-0.327881
C68	C	1.053511	-0.097961	0.005453
C69	C	1.386844	0.235372	0.338786
C70	C	0.802156	-0.431285	-0.327874
C71	C	1.135490	-0.097951	0.005460
C72	C	1.468823	0.235382	0.338793
C73	C	0.549307	-0.431312	-0.327900
C74	C	0.882641	-0.097979	0.005433
C75	C	1.215974	0.235354	0.338766
C76	C	0.467323	-0.431323	-0.327908
C77	C	0.800656	-0.097990	0.005425
C78	C	1.133989	0.235344	0.338759
C79	C	0.467397	-0.330351	-0.428493
C80	C	0.800731	0.002982	-0.095160
C81	C	1.134064	0.336315	0.238173
C82	C	0.549376	-0.330342	-0.428486
C83	C	0.882710	0.002992	-0.095153
C84	C	1.216043	0.336325	0.238180
C85	C	0.590328	-0.380824	-0.378188
C86	C	0.923662	-0.047491	-0.044854
C87	C	1.256995	0.285842	0.288479
C88	C	1.134294	-0.586177	-0.378147
C89	C	1.467627	-0.252844	-0.044814
C90	C	1.800961	0.080489	0.288520
C91	C	1.134330	-0.674034	-0.378161
C92	C	1.467664	-0.340700	-0.044828
C93	C	1.800997	-0.007367	0.288506
C94	C	1.084116	-0.715317	-0.428322
C95	C	1.417449	-0.381984	-0.094989
C96	C	1.750783	-0.048650	0.238344
C97	C	1.184584	-0.715304	-0.328017
C98	C	1.517917	-0.381971	0.005316
C99	C	1.851250	-0.048638	0.338650
C100	C	1.184623	-0.797850	-0.328031
C101	C	1.517956	-0.464517	0.005302
C102	C	1.851289	-0.131183	0.338635
C103	C	1.134408	-0.839133	-0.378193
C104	C	1.467742	-0.505800	-0.044859
C105	C	1.801075	-0.172467	0.288474
C106	C	1.084155	-0.797870	-0.428340
C107	C	1.417488	-0.464537	-0.095007
C108	C	1.750822	-0.131204	0.238327
C109	C	1.234881	-0.839119	-0.277891
C110	C	1.568214	-0.505786	0.055443
C111	C	1.901547	-0.172452	0.388776
C112	C	1.234922	-0.921670	-0.277903
C113	C	1.568256	-0.588337	0.055430
C114	C	1.901589	-0.255003	0.388763
C115	C	1.184703	-0.962955	-0.328062
C116	C	1.518037	-0.629621	0.005272
C117	C	1.851370	-0.296288	0.338605
C118	C	1.134447	-0.921687	-0.378210
C119	C	1.467781	-0.588353	-0.044877
C120	C	1.801114	-0.255020	0.288457
C121	C	1.084233	-0.962970	-0.428372
C122	C	1.417566	-0.629636	-0.095038
C123	C	1.750900	-0.296303	0.238295
C124	C	1.033972	-0.921703	-0.478517
C125	C	1.367306	-0.588370	-0.145183
C126	C	1.700639	-0.255037	0.188150
C127	C	1.033936	-0.839155	-0.478498
C128	C	1.367269	-0.505822	-0.145165
C129	C	1.700603	-0.172488	0.188169
C130	C	1.184740	-1.045503	-0.328080
C131	C	1.518073	-0.712170	0.005253
C132	C	1.851406	-0.378836	0.338586
C133	C	1.084272	-1.045523	-0.428389
C134	C	1.417605	-0.712190	-0.095056
C135	C	1.750939	-0.378857	0.238278
C136	C	1.339121	-0.380834	-0.378194
C137	C	1.672454	-0.047501	-0.044861
C138	C	2.005787	0.285833	0.288473
C139	C	1.426371	-0.380844	-0.378202
C140	C	1.759704	-0.047510	-0.044868
C141	C	2.093037	0.285823	0.288465
C142	C	1.134424	-0.380753	-0.582920
C143	C	1.467757	-0.047419	-0.249587
C144	C	1.801091	0.285914	0.083746
C145	C	1.134444	-0.380728	-0.670170
C146	C	1.467778	-0.047395	-0.336837
C147	C	1.801111	0.285939	-0.003504
C148	C	1.134481	-0.174643	-0.378222
C149	C	1.467814	0.158691	-0.044889
C150	C	1.801148	0.492024	0.288445
C151	C	1.134525	-0.086786	-0.378242
C152	C	1.467859	0.246547	-0.044908
C153	C	1.801192	0.579881	0.288425
C154	C	1.184677	-0.330174	-0.711177
C155	C	1.518011	0.003159	-0.377844
C156	C	1.851344	0.336492	-0.044511
C157	C	1.184687	-0.330148	-0.793158
C158	C	1.518020	0.003185	-0.459825
C159	C	1.851354	0.336519	-0.126491
C160	C	1.134467	-0.380680	-0.834130
C161	C	1.467800	-0.047346	-0.500796
C162	C	1.801133	0.285987	-0.167463
C163	C	1.084228	-0.431236	-0.793117
C164	C	1.417561	-0.097902	-0.459783
C165	C	1.750894	0.235431	-0.126450
C166	C	1.084215	-0.431257	-0.711138
C167	C	1.417548	-0.097924	-0.377804
C168	C	1.750882	0.235409	-0.044471
C169	C	1.084259	-0.431188	-0.963987
C170	C	1.417593	-0.097855	-0.630654
C171	C	1.750926	0.235479	-0.297320
C172	C	1.084273	-0.431168	-1.045972
C173	C	1.417606	-0.097834	-0.712638
C174	C	1.750940	0.235499	-0.379305
C175	C	1.184731	-0.330079	-1.046007
C176	C	1.518065	0.003255	-0.712674
C177	C	1.851398	0.336588	-0.379340
C178	C	1.184719	-0.330100	-0.964028
C179	C	1.518052	0.003233	-0.630695
C180	C	1.851385	0.336566	-0.297361
C181	C	1.134481	-0.380658	-0.923021
C182	C	1.467814	-0.047324	-0.589687
C183	C	1.801147	0.286009	-0.256354
C184	C	1.134374	-0.380812	-0.174228
C185	C	1.467708	-0.047479	0.159105
C186	C	1.801041	0.285855	0.492439
C187	C	1.134506	-0.380614	-0.086979
C188	C	1.467840	-0.047281	0.246355
C189	C	1.801173	0.286053	0.579688
H190	H	0.582778	-0.289234	-0.469439
H191	H	0.916111	0.044100	-0.136106
H192	H	1.249445	0.377433	0.197228
N193	N	0.676075	-0.275863	-0.482697
N194	N	1.009409	0.057470	-0.149363
N195	N	1.342742	0.390804	0.183970
H196	H	0.714505	-0.243876	-0.514551
H197	H	1.047839	0.089457	-0.181217
H198	H	1.381172	0.422790	0.152116
H199	H	0.642057	-0.308075	-0.518972
H200	H	0.975391	0.025259	-0.185639
H201	H	1.308724	0.358592	0.147694
H202	H	0.434050	-0.289245	-0.469447
H203	H	0.767383	0.044088	-0.136113
H204	H	1.100717	0.377422	0.197220
H205	H	1.043381	-1.079130	-0.469237
H206	H	1.376714	-0.745797	-0.135904
H207	H	1.710047	-0.412463	0.197430
H208	H	0.835625	-0.289207	-0.469415
H209	H	1.168958	0.044127	-0.136081
H210	H	1.502291	0.377460	0.197252
H211	H	1.225666	-1.079098	-0.287258
H212	H	1.558999	-0.745765	0.046076
H213	H	1.892333	-0.412432	0.379409
H214	H	1.043335	-0.472377	-0.826483
H215	H	1.376668	-0.139043	-0.493149
H216	H	1.710001	0.194290	-0.159816
N217	N	1.289034	-0.794603	-0.223782
N218	N	1.622368	-0.461269	0.109551
N219	N	1.955701	-0.127936	0.442884
H220	H	1.345121	-0.808905	-0.236030
H221	H	1.678454	-0.475572	0.097303
H222	H	2.011787	-0.142239	0.430637
H223	H	1.281315	-0.736060	-0.231397
H224	H	1.614649	-0.402727	0.101937
H225	H	1.947982	-0.069393	0.435270
N226	N	1.238749	-0.670782	-0.273924
N227	N	1.572082	-0.337449	0.059409
N228	N	1.905415	-0.004116	0.392743
H229	H	1.231101	-0.612226	-0.281525
H230	H	1.564434	-0.278893	0.051808
H231	H	1.897767	0.054440	0.385142
H232	H	1.226575	-0.685258	-0.217852
H233	H	1.559908	-0.351925	0.115481
H234	H	1.893242	-0.018591	0.448815
H235	H	1.225594	-0.288984	-0.826542
H236	H	1.558927	0.044349	-0.493209
H237	H	1.892260	0.377683	-0.159876
N238	N	0.423069	-0.485779	-0.273674
N239	N	0.756403	-0.152446	0.059660
N240	N	1.089736	0.180888	0.392993
H241	H	0.461450	-0.517755	-0.241805
H242	H	0.794784	-0.184422	0.091528
H243	H	1.128117	0.148912	0.424862
H244	H	0.389047	-0.453558	-0.237413
H245	H	0.722380	-0.120225	0.095921
H246	H	1.055713	0.213108	0.429254
H247	H	1.043302	-0.472415	-0.677751
H248	H	1.376635	-0.139082	-0.344417
H249	H	1.709969	0.194251	-0.011084
N250	N	1.030106	-0.485651	-1.090183
N251	N	1.363440	-0.152318	-0.756850
N252	N	1.696773	0.181015	-0.423516
H253	H	1.042249	-0.542140	-1.075917
H254	H	1.375583	-0.208806	-0.742584
H255	H	1.708916	0.124527	-0.409250
H256	H	0.974045	-0.473296	-1.075903
H257	H	1.307379	-0.139962	-0.742570
H258	H	1.640712	0.193371	-0.409237
H259	H	0.993016	-0.805551	-0.519325
H260	H	1.326350	-0.472217	-0.185992
H261	H	1.659683	-0.138884	0.147342
N262	N	1.238854	-0.275681	-0.666989
N263	N	1.572187	0.057652	-0.333656
N264	N	1.905520	0.390986	-0.000322
H265	H	1.206974	-0.239056	-0.632973
H266	H	1.540307	0.094277	-0.299639
H267	H	1.873640	0.427610	0.033694
H268	H	1.275194	-0.307884	-0.633026
H269	H	1.608528	0.025449	-0.299692
H270	H	1.941861	0.358783	0.033641
H271	H	1.275847	-0.955262	-0.237071
H272	H	1.609180	-0.621929	0.096262
H273	H	1.942513	-0.288595	0.429595
H274	H	0.582648	-0.472419	-0.286940
H275	H	0.915981	-0.139085	0.046394
H276	H	1.249315	0.194248	0.379727
H277	H	1.225617	-0.288957	-0.930671
H278	H	1.558950	0.044376	-0.597338
H279	H	1.892283	0.377709	-0.264004
H280	H	0.686767	-0.472400	-0.286933
H281	H	1.020100	-0.139066	0.046401
H282	H	1.353433	0.194267	0.379734
H283	H	0.993091	-0.955327	-0.519362
H284	H	1.326425	-0.621993	-0.186028
H285	H	1.659758	-0.288660	0.147305
N286	N	0.846330	-0.485726	-0.273625
N287	N	1.179664	-0.152392	0.059709
N288	N	1.512997	0.180941	0.393042
H289	H	0.807902	-0.517713	-0.241769
H290	H	1.141235	-0.184379	0.091564
H291	H	1.474569	0.148954	0.424897
H292	H	0.880349	-0.522343	-0.305506
H293	H	1.213683	-0.189009	0.027827
H294	H	1.547016	0.144324	0.361160
N295	N	1.029902	-0.670816	-0.482400
N296	N	1.363235	-0.337482	-0.149066
N297	N	1.696569	-0.004149	0.184267
H298	H	1.037491	-0.612256	-0.474778
H299	H	1.370824	-0.278923	-0.141445
H300	H	1.704158	0.054410	0.191889
H301	H	1.042087	-0.685191	-0.538478
H302	H	1.375421	-0.351858	-0.205145
H303	H	1.708754	-0.018524	0.128189
N304	N	1.238920	-0.275550	-1.090230
N305	N	1.572253	0.057783	-0.756897
N306	N	1.905587	0.391116	-0.423564
H307	H	1.231307	-0.283200	-1.148381
H308	H	1.564641	0.050134	-0.815047
H309	H	1.897974	0.383467	-0.481714
H310	H	1.226734	-0.219100	-1.075910
H311	H	1.560068	0.114233	-0.742577
H312	H	1.893401	0.447566	-0.409243
H313	H	1.043338	-0.472345	-0.930601
H314	H	1.376671	-0.139011	-0.597268
H315	H	1.710005	0.194322	-0.263935
