data_functionalizedCrystal
_audit_creation_method	'MofGen! by Chris Wilmer'
_symmetry_space_group_name_H-M	'P1'
_symmetry_Int_Tables_number	1
_symmetry_cell_setting	triclinic
loop_
_symmetry_equiv_pos_as_xyz
  x,y,z
_cell_length_a	27.732064
_cell_length_b	17.038272
_cell_length_c	15.500227
_cell_angle_alpha	86.966746
_cell_angle_beta	87.190835
_cell_angle_gamma	93.119510
loop_
_atom_site_label
_atom_site_type_symbol
_atom_site_fract_x
_atom_site_fract_y
_atom_site_fract_z
O1	O	0.647269	-0.089403	-0.071703
O2	O	0.980602	0.243930	0.261631
O3	O	1.313936	0.577263	0.594964
O4	O	0.507124	-0.103525	-0.071757
O5	O	0.840458	0.229808	0.261576
O6	O	1.173791	0.563141	0.594910
O7	O	0.576364	0.017341	-0.071723
O8	O	0.909697	0.350674	0.261610
O9	O	1.243030	0.684008	0.594943
O10	O	0.578030	-0.210270	-0.071736
O11	O	0.911363	0.123064	0.261597
O12	O	1.244696	0.456397	0.594930
O13	O	0.572161	0.010035	0.072163
O14	O	0.905494	0.343368	0.405497
O15	O	1.238827	0.676702	0.738830
O16	O	0.502922	-0.110831	0.072130
O17	O	0.836255	0.222502	0.405463
O18	O	1.169588	0.555835	0.738796
O19	O	0.643066	-0.096709	0.072184
O20	O	0.976400	0.236624	0.405517
O21	O	1.309733	0.569957	0.738851
Cu22	Cu	0.572610	-0.104437	0.085295
Cu23	Cu	0.905944	0.228896	0.418628
Cu24	Cu	1.239277	0.562229	0.751961
Cu25	Cu	0.577580	-0.095797	-0.084868
Cu26	Cu	0.910914	0.237536	0.248465
Cu27	Cu	1.244247	0.570869	0.581799
O28	O	0.573827	-0.217576	0.072150
O29	O	0.907160	0.115758	0.405484
O30	O	1.240494	0.449091	0.738817
C31	C	0.487003	-0.106879	0.000179
C32	C	0.820336	0.226454	0.333513
C33	C	1.153669	0.559787	0.666846
C34	C	0.433308	-0.105980	0.000159
C35	C	0.766641	0.227354	0.333492
C36	C	1.099974	0.560687	0.666825
C37	C	0.572747	0.042799	0.000219
C38	C	0.906080	0.376132	0.333553
C39	C	1.239414	0.709465	0.666886
C40	C	0.568227	0.129540	0.000217
C41	C	0.901560	0.462873	0.333551
C42	C	1.234893	0.796206	0.666884
C43	C	0.663188	-0.093355	0.000246
C44	C	0.996521	0.239978	0.333579
C45	C	1.329855	0.573312	0.666912
C46	C	0.716883	-0.094255	0.000261
C47	C	1.050216	0.239079	0.333594
C48	C	1.383550	0.572412	0.666927
C49	C	1.097504	-0.171798	0.000215
C50	C	1.430837	0.161535	0.333549
C51	C	1.764171	0.494869	0.666882
C52	C	0.895692	-0.168491	0.000239
C53	C	1.229025	0.164842	0.333573
C54	C	1.562359	0.498175	0.666906
O55	O	0.867191	-0.228666	0.000272
O56	O	1.200524	0.104667	0.333606
O57	O	1.533857	0.438001	0.666939
N58	N	0.873286	-0.096819	0.000247
N59	N	1.206619	0.236514	0.333581
N60	N	1.539952	0.569848	0.666914
C61	C	0.901336	-0.025969	0.000255
C62	C	1.234669	0.307365	0.333589
C63	C	1.568002	0.640698	0.666922
O64	O	0.877647	0.035068	0.000272
O65	O	1.210980	0.368401	0.333605
O66	O	1.544314	0.701735	0.666938
C67	C	1.103147	-0.029277	0.000238
C68	C	1.436480	0.304057	0.333571
C69	C	1.769814	0.637390	0.666904
C70	C	1.125551	-0.100953	0.000221
C71	C	1.458884	0.232380	0.333554
C72	C	1.792217	0.565714	0.666887
C73	C	1.119908	-0.243469	0.000199
C74	C	1.453241	0.089865	0.333533
C75	C	1.786575	0.423198	0.666866
C76	C	1.170358	-0.244294	0.000189
C77	C	1.503692	0.089039	0.333522
C78	C	1.837025	0.422372	0.666855
C79	C	1.198405	-0.173449	0.000194
C80	C	1.531738	0.159884	0.333527
C81	C	1.865071	0.493217	0.666861
C82	C	1.176001	-0.101779	0.000210
C83	C	1.509334	0.231555	0.333543
C84	C	1.842667	0.564888	0.666877
C85	C	1.131196	0.041572	0.000252
C86	C	1.464529	0.374906	0.333585
C87	C	1.797863	0.708239	0.666918
C88	C	1.181652	0.040739	0.000249
C89	C	1.514985	0.374072	0.333583
C90	C	1.848318	0.707405	0.666916
C91	C	1.204055	-0.030938	0.000232
C92	C	1.537388	0.302396	0.333566
C93	C	1.870722	0.635729	0.666899
C94	C	1.254497	-0.031760	0.000204
C95	C	1.587831	0.301574	0.333538
C96	C	1.921164	0.634907	0.666871
N97	N	1.276903	-0.103432	0.000196
N98	N	1.610237	0.229902	0.333530
N99	N	1.943570	0.563235	0.666863
C100	C	1.248857	-0.174277	0.000191
C101	C	1.582190	0.159057	0.333524
C102	C	1.915524	0.492390	0.666858
C103	C	0.795382	-0.024237	0.000263
C104	C	1.128715	0.309096	0.333596
C105	C	1.462049	0.642430	0.666930
C106	C	0.744929	-0.023410	0.000266
C107	C	1.078263	0.309924	0.333599
C108	C	1.411596	0.643257	0.666932
C109	C	0.739289	-0.165933	0.000251
C110	C	1.072622	0.167401	0.333585
C111	C	1.405956	0.500734	0.666918
C112	C	0.789743	-0.166759	0.000242
C113	C	1.123076	0.166575	0.333576
C114	C	1.456409	0.499908	0.666909
C115	C	0.817788	-0.095909	0.000255
C116	C	1.151121	0.237424	0.333588
C117	C	1.484455	0.570757	0.666921
C118	C	1.354806	-0.176005	0.000168
C119	C	1.688140	0.157328	0.333501
C120	C	2.021473	0.490661	0.666834
C121	C	1.405261	-0.176825	0.000153
C122	C	1.738595	0.156509	0.333487
C123	C	2.071928	0.489842	0.666820
C124	C	1.410897	-0.034302	0.000172
C125	C	1.744231	0.299031	0.333506
C126	C	2.077564	0.632364	0.666839
C127	C	1.360447	-0.033482	0.000182
C128	C	1.693780	0.299851	0.333515
C129	C	2.027114	0.633184	0.666849
C130	C	1.332402	-0.104340	0.000183
C131	C	1.665736	0.228993	0.333516
C132	C	1.999069	0.562326	0.666849
O133	O	1.283028	0.028382	0.000181
O134	O	1.616361	0.361716	0.333514
O135	O	1.949695	0.695049	0.666848
O136	O	1.272554	-0.235306	0.000194
O137	O	1.605888	0.098028	0.333527
O138	O	1.939221	0.431361	0.666860
C139	C	1.047054	-0.170972	0.000226
C140	C	1.380387	0.162361	0.333559
C141	C	1.713721	0.495694	0.666893
C142	C	1.024650	-0.099302	0.000242
C143	C	1.357983	0.234032	0.333575
C144	C	1.691317	0.567365	0.666909
C145	C	1.052696	-0.028457	0.000247
C146	C	1.386030	0.304876	0.333581
C147	C	1.719363	0.638210	0.666914
C148	C	0.974198	-0.098474	0.000245
C149	C	1.307531	0.234859	0.333578
C150	C	1.640864	0.568192	0.666912
C151	C	0.946151	-0.169319	0.000240
C152	C	1.279485	0.164014	0.333573
C153	C	1.612818	0.497347	0.666906
C154	C	0.968557	-0.240992	0.000232
C155	C	1.301891	0.092342	0.333565
C156	C	1.635224	0.425675	0.666898
C157	C	1.019008	-0.241817	0.000221
C158	C	1.352341	0.091516	0.333554
C159	C	1.685674	0.424849	0.666887
C160	C	1.030290	0.043215	0.000255
C161	C	1.363624	0.376549	0.333589
C162	C	1.696957	0.709882	0.666922
C163	C	0.979840	0.044035	0.000265
C164	C	1.313173	0.377369	0.333598
C165	C	1.646507	0.710702	0.666932
C166	C	0.951794	-0.026810	0.000260
C167	C	1.285127	0.306524	0.333593
C168	C	1.618460	0.639857	0.666927
C169	C	0.577444	-0.243033	0.000206
C170	C	0.910777	0.090300	0.333539
C171	C	1.244110	0.423633	0.666872
C172	C	0.581964	-0.329774	0.000202
C173	C	0.915297	0.003559	0.333535
C174	C	1.248631	0.336893	0.666869
N175	N	0.569118	-0.110514	0.204978
N176	N	0.902451	0.222820	0.538311
N177	N	1.235785	0.556153	0.871645
C178	C	0.609729	0.180133	0.000234
C179	C	0.943062	0.513466	0.333568
C180	C	1.276396	0.846799	0.666901
C181	C	0.605479	0.261635	0.000224
C182	C	0.938812	0.594968	0.333558
C183	C	1.272146	0.928301	0.666891
C184	C	0.559726	0.292541	0.000204
C185	C	0.893059	0.625875	0.333537
C186	C	1.226393	0.959208	0.666870
C187	C	0.518221	0.241942	0.000184
C188	C	0.851554	0.575275	0.333518
C189	C	1.184888	0.908609	0.666851
C190	C	0.522472	0.160442	0.000188
C191	C	0.855805	0.493775	0.333521
C192	C	1.189138	0.827109	0.666855
C193	C	0.544710	0.538127	0.000186
C194	C	0.878043	0.871460	0.333519
C195	C	1.211376	1.204793	0.666853
C196	C	0.540462	0.619633	0.000185
C197	C	0.873795	0.952966	0.333518
C198	C	1.207129	1.286300	0.666852
C199	C	0.627720	0.639320	0.000224
C200	C	0.961054	0.972653	0.333557
C201	C	1.294387	1.305987	0.666890
C202	C	0.631967	0.557817	0.000233
C203	C	0.965300	0.891151	0.333566
C204	C	1.298634	1.224484	0.666899
C205	C	0.590462	0.507225	0.000208
C206	C	0.923795	0.840559	0.333542
C207	C	1.257128	1.173892	0.666875
C208	C	0.555381	0.375849	0.000196
C209	C	0.888714	0.709182	0.333530
C210	C	1.222047	1.042516	0.666863
C211	C	0.594808	0.423920	0.000210
C212	C	0.928141	0.757253	0.333543
C213	C	1.261474	1.090586	0.666876
N214	N	0.581076	-0.089715	-0.204551
N215	N	0.914410	0.243619	0.128782
N216	N	1.247743	0.576952	0.462116
C217	C	0.598469	-0.059317	0.250269
C218	C	0.931802	0.274016	0.583602
C219	C	1.265135	0.607350	0.916936
C220	C	0.595832	-0.063920	0.340840
C221	C	0.929165	0.269414	0.674174
C222	C	1.262499	0.602747	1.007507
C223	C	0.563847	-0.119723	0.386119
C224	C	0.897180	0.213610	0.719453
C225	C	1.230514	0.546943	1.052786
C226	C	0.534493	-0.170922	0.340822
C227	C	0.867826	0.162411	0.674156
C228	C	1.201160	0.495744	1.007489
C229	C	0.537127	-0.166316	0.250252
C230	C	0.870461	0.167018	0.583586
C231	C	1.203794	0.500351	0.916919
C232	C	0.554357	-0.136307	0.659582
C233	C	0.887690	0.197027	0.992915
C234	C	1.221023	0.530360	1.326248
C235	C	0.551726	-0.140911	0.750158
C236	C	0.885059	0.192422	1.083491
C237	C	1.218392	0.525755	1.416825
C238	C	0.613064	-0.033907	0.750170
C239	C	0.946398	0.299426	1.083503
C240	C	1.279731	0.632760	1.416837
C241	C	0.615698	-0.029308	0.659598
C242	C	0.949031	0.304025	0.992932
C243	C	1.282365	0.637358	1.326265
C244	C	0.586342	-0.080504	0.614309
C245	C	0.919675	0.252829	0.947642
C246	C	1.253009	0.586162	1.280976
C247	C	0.561153	-0.124431	0.478698
C248	C	0.894486	0.208902	0.812031
C249	C	1.227819	0.542236	1.145365
C250	C	0.589034	-0.075793	0.521732
C251	C	0.922368	0.257541	0.855065
C252	C	1.255701	0.590874	1.188399
H253	H	1.423500	-0.235194	0.000139
H254	H	1.756833	0.098139	0.333473
H255	H	2.090166	0.431472	0.666806
H256	H	0.646985	0.154975	0.000256
H257	H	0.980319	0.488308	0.333590
H258	H	1.313652	0.821642	0.666923
Cl259	Cl	0.470295	0.096839	0.000163
Cl260	Cl	0.803629	0.430172	0.333497
Cl261	Cl	1.136962	0.763505	0.666830
H262	H	0.716445	-0.223617	0.000247
H263	H	1.049778	0.109716	0.333581
H264	H	1.383111	0.443049	0.666914
Cl265	Cl	0.632730	0.000444	0.397779
Cl266	Cl	0.966064	0.333777	0.731113
Cl267	Cl	1.299397	0.667110	1.064446
H268	H	0.525678	-0.186357	0.787020
H269	H	0.859012	0.146977	1.120353
H270	H	1.192345	0.480310	1.453687
H271	H	1.112964	0.099939	0.000266
H272	H	1.446297	0.433272	0.333599
H273	H	1.779630	0.766605	0.666933
H274	H	0.535110	-0.169869	0.515572
H275	H	0.868444	0.163464	0.848905
H276	H	1.201777	0.496798	1.182238
H277	H	1.204484	0.098435	0.000260
H278	H	1.537817	0.431768	0.333593
H279	H	1.871151	0.765101	0.666927
H280	H	1.331978	-0.233705	0.000171
H281	H	1.665311	0.099629	0.333504
H282	H	1.998645	0.432962	0.666838
H283	H	0.615075	-0.030354	0.484863
H284	H	0.948408	0.302979	0.818197
H285	H	1.281742	0.636312	1.151530
H286	H	1.097077	-0.301163	0.000198
H287	H	1.430411	0.032171	0.333532
H288	H	1.763744	0.365504	0.666865
Cl289	Cl	0.500226	-0.230678	0.193316
Cl290	Cl	0.833559	0.102656	0.526649
Cl291	Cl	1.166892	0.435989	0.859983
Cl292	Cl	0.652324	0.385064	0.000231
Cl293	Cl	0.985657	0.718397	0.333564
Cl294	Cl	1.318990	1.051731	0.666898
Cl295	Cl	0.817902	-0.256869	0.000224
Cl296	Cl	1.151235	0.076464	0.333557
Cl297	Cl	1.484568	0.409797	0.666891
H298	H	0.624516	-0.013879	0.213409
H299	H	0.957850	0.319454	0.546742
H300	H	1.291183	0.652788	0.880075
Cl301	Cl	0.497865	0.414711	0.000166
Cl302	Cl	0.831198	0.748044	0.333499
Cl303	Cl	1.164531	1.081378	0.666833
Cl304	Cl	1.065541	0.132287	0.000262
Cl305	Cl	1.398875	0.465621	0.333596
Cl306	Cl	1.732208	0.798954	0.666929
Cl307	Cl	0.460703	0.280797	0.000148
Cl308	Cl	0.794036	0.614130	0.333481
Cl309	Cl	1.127370	0.947464	0.666814
H310	H	1.342205	0.024883	0.000183
H311	H	1.675539	0.358216	0.333517
H312	H	2.008872	0.691550	0.666850
H313	H	0.530455	-0.177994	0.622714
H314	H	0.863788	0.155339	0.956048
H315	H	1.197122	0.488672	1.289381
Cl316	Cl	1.198515	-0.334407	0.000174
Cl317	Cl	1.531848	-0.001074	0.333507
Cl318	Cl	1.865181	0.332260	0.666840
H319	H	0.636964	0.007775	0.787053
H320	H	0.970297	0.341109	1.120386
H321	H	1.303631	0.674442	1.453719
Cl322	Cl	0.482940	0.658485	0.000164
Cl323	Cl	0.816273	0.991819	0.333498
Cl324	Cl	1.149606	1.325152	0.666831
Cl325	Cl	0.655909	0.040845	0.602676
Cl326	Cl	0.989242	0.374178	0.936009
Cl327	Cl	1.322575	0.707511	1.269343
H328	H	0.661511	0.680521	0.000242
H329	H	0.994845	1.013854	0.333575
H330	H	1.328178	1.347187	0.666908
Cl331	Cl	0.657656	0.325235	0.000248
Cl332	Cl	0.990989	0.658568	0.333582
Cl333	Cl	1.324322	0.991901	0.666915
H334	H	0.508448	-0.216357	0.377694
H335	H	0.841781	0.116977	0.711027
H336	H	1.175114	0.450310	1.044360
H337	H	0.726693	0.034957	0.000266
H338	H	1.060027	0.368290	0.333599
H339	H	1.393360	0.701624	0.666933
H340	H	0.818212	0.033461	0.000273
H341	H	1.151546	0.366794	0.333606
H342	H	1.484879	0.700127	0.666940
H343	H	0.510913	0.496944	0.000167
H344	H	0.844246	0.830277	0.333500
H345	H	1.177580	1.163610	0.666833
H346	H	1.433742	0.023378	0.000173
H347	H	1.767075	0.356711	0.333507
H348	H	2.100409	0.690044	0.666840
H349	H	0.945713	-0.298676	0.000224
H350	H	1.279046	0.034658	0.333557
H351	H	1.612380	0.367991	0.666890
Cl352	Cl	0.951682	0.134153	0.000275
Cl353	Cl	1.285016	0.467486	0.333609
Cl354	Cl	1.618349	0.800819	0.666942
Cl355	Cl	0.689488	0.518971	0.000230
Cl356	Cl	1.022821	0.852304	0.333564
Cl357	Cl	1.356154	1.185638	0.666897
Cl358	Cl	1.047164	-0.331930	0.000201
Cl359	Cl	1.380498	0.001404	0.333534
Cl360	Cl	1.713831	0.334737	0.666867
