data_functionalizedCrystal
_audit_creation_method	'MofGen! by Chris Wilmer'
_symmetry_space_group_name_H-M	'P1'
_symmetry_Int_Tables_number	1
_symmetry_cell_setting	triclinic
loop_
_symmetry_equiv_pos_as_xyz
  x,y,z
_cell_length_a	16.120530
_cell_length_b	12.827893
_cell_length_c	12.827885
_cell_angle_alpha	90.025051
_cell_angle_beta	92.918515
_cell_angle_gamma	87.099477
loop_
_atom_site_label
_atom_site_type_symbol
_atom_site_fract_x
_atom_site_fract_y
_atom_site_fract_z
Zn1	Zn	1.274699	-0.497104	0.671871
Zn2	Zn	1.774699	0.002896	1.171871
Zn3	Zn	1.274644	-0.671877	0.497143
Zn4	Zn	1.774644	-0.171877	0.997143
Zn5	Zn	1.135276	-0.488282	0.488287
Zn6	Zn	1.635276	0.011718	0.988287
Zn7	Zn	1.135293	-0.662932	0.662989
Zn8	Zn	1.635293	-0.162932	1.162989
O9	O	1.204978	-0.580049	0.580072
O10	O	1.704978	-0.080049	1.080072
O11	O	1.391360	-0.527724	0.656117
O12	O	1.891360	-0.027724	1.156117
O13	O	1.256126	-0.647575	0.349730
O14	O	1.756126	-0.147575	0.849730
O15	O	1.153787	-0.343217	0.512651
O16	O	1.653787	0.156783	1.012651
O17	O	1.391319	-0.656129	0.527744
O18	O	1.891319	-0.156129	1.027744
O19	O	1.256221	-0.349698	0.647530
O20	O	1.756221	0.150302	1.147530
O21	O	1.153733	-0.512688	0.343223
O22	O	1.653733	-0.012688	0.843223
O23	O	1.018610	-0.504014	0.504038
O24	O	1.518610	-0.004014	1.004038
O25	O	1.153816	-0.640882	0.810405
O26	O	1.653816	-0.140882	1.310405
O27	O	1.018623	-0.632328	0.632391
O28	O	1.518623	-0.132328	1.132391
O29	O	1.256237	-0.519049	0.816931
O30	O	1.756237	-0.019049	1.316931
O31	O	1.256143	-0.816926	0.519131
O32	O	1.756143	-0.316926	1.019131
O33	O	1.153762	-0.810353	0.640978
O34	O	1.653762	-0.310353	1.140978
C35	C	0.988366	-0.566243	0.566290
C36	C	1.488366	-0.066243	1.066290
C37	C	0.895698	-0.560363	0.560419
C38	C	1.395698	-0.060363	1.060419
C39	C	1.204971	-0.851558	0.580076
C40	C	1.704971	-0.351558	1.080076
C41	C	1.205044	-0.967716	0.580117
C42	C	1.705044	-0.467716	1.080117
C43	C	1.205035	-0.579952	0.852646
C44	C	1.705035	-0.079952	1.352646
C45	C	1.205059	-0.579911	0.968801
C46	C	1.705059	-0.079911	1.468801
C47	C	0.726033	-0.549602	0.549708
C48	C	1.226033	-0.049602	1.049708
C49	C	0.684763	-0.610572	0.610513
C50	C	1.184763	-0.110572	1.110513
C51	C	0.590356	-0.604585	0.604554
C52	C	1.090356	-0.104585	1.104554
C53	C	0.820449	-0.555588	0.555666
C54	C	1.320449	-0.055588	1.055666
C55	C	1.422436	-0.593908	0.593909
C56	C	1.922436	-0.093908	1.093909
C57	C	1.515104	-0.599815	0.599806
C58	C	2.015104	-0.099815	1.099806
C59	C	1.205008	-0.307480	0.580093
C60	C	1.705008	0.192520	1.080093
C61	C	1.205021	-0.191328	0.580102
C62	C	1.705021	0.308672	1.080102
C63	C	1.154344	-0.136337	0.513371
C64	C	1.654344	0.363663	1.013371
C65	C	1.154356	-0.016287	0.513378
C66	C	1.654356	0.483713	1.013378
C67	C	1.204969	-0.580073	0.308562
C68	C	1.704969	-0.080073	0.808562
C69	C	1.205107	-0.579830	0.192418
C70	C	1.705107	-0.079830	0.692418
C71	C	1.255746	-0.519612	1.023815
C72	C	1.755746	-0.019612	1.523815
C73	C	1.255772	-0.519568	1.143867
C74	C	1.755772	-0.019568	1.643867
H75	H	0.720333	-0.667266	0.667047
H76	H	1.220333	-0.167266	1.167047
H77	H	0.690465	-0.492912	0.493179
H78	H	1.190465	0.007088	0.993179
F79	F	1.097614	-0.190961	0.438695
F80	F	1.597614	0.309039	0.938695
F81	F	1.097650	0.045506	0.438696
F82	F	1.597650	0.545506	0.938696
F83	F	1.261761	-0.029503	0.654793
F84	F	1.761761	0.470497	1.154793
H85	H	1.248413	-0.149533	0.637243
H86	H	1.748413	0.350467	1.137243
F87	F	1.148358	-0.647342	1.023402
F88	F	1.648358	-0.147342	1.523402
F89	F	1.312426	-0.452153	0.969213
F90	F	1.812426	0.047847	1.469213
F91	F	1.312498	-0.452094	1.205687
F92	F	1.812498	0.047906	1.705687
F93	F	1.148386	-0.647317	1.130606
F94	F	1.648386	-0.147317	1.630606
