data_functionalizedCrystal
_audit_creation_method	'MofGen! by Chris Wilmer'
_symmetry_space_group_name_H-M	'P1'
_symmetry_Int_Tables_number	1
_symmetry_cell_setting	triclinic
loop_
_symmetry_equiv_pos_as_xyz
  x,y,z
_cell_length_a	17.077404
_cell_length_b	12.594516
_cell_length_c	17.077396
_cell_angle_alpha	89.976020
_cell_angle_beta	89.983895
_cell_angle_gamma	90.014023
loop_
_atom_site_label
_atom_site_type_symbol
_atom_site_fract_x
_atom_site_fract_y
_atom_site_fract_z
Zn1	Zn	1.200074	-0.423791	-0.443848
Zn2	Zn	1.700074	0.076209	0.056152
Zn3	Zn	1.200002	-0.601794	-0.312594
Zn4	Zn	1.700002	-0.101794	0.187406
Zn5	Zn	1.068811	-0.423824	-0.312599
Zn6	Zn	1.568811	0.076176	0.187401
Zn7	Zn	1.068790	-0.601722	-0.443820
Zn8	Zn	1.568790	-0.101722	0.056180
O9	O	1.134419	-0.512783	-0.378215
O10	O	1.634419	-0.012783	0.121785
O11	O	1.309912	-0.447420	-0.426447
O12	O	1.809912	0.052580	0.073553
O13	O	1.182578	-0.578230	-0.202748
O14	O	1.682578	-0.078230	0.297252
O15	O	1.086263	-0.274874	-0.330022
O16	O	1.586263	0.225126	0.169978
O17	O	1.309859	-0.578198	-0.330015
O18	O	1.809859	-0.078198	0.169985
O19	O	1.182701	-0.274850	-0.426451
O20	O	1.682701	0.225150	0.073549
O21	O	1.086193	-0.447476	-0.202751
O22	O	1.586193	0.052524	0.297249
O23	O	0.958962	-0.447406	-0.329996
O24	O	1.458962	0.052594	0.170004
O25	O	1.086226	-0.578074	-0.553671
O26	O	1.586226	-0.078074	-0.053671
O27	O	0.958946	-0.578106	-0.426404
O28	O	1.458946	-0.078106	0.073596
O29	O	1.182680	-0.447350	-0.553691
O30	O	1.682680	0.052650	-0.053691
O31	O	1.182558	-0.750730	-0.329988
O32	O	1.682558	-0.250730	0.170012
O33	O	1.086156	-0.750677	-0.426400
O34	O	1.586156	-0.250677	0.073600
C35	C	0.930472	-0.512753	-0.378198
C36	C	1.430472	-0.012753	0.121802
C37	C	0.843222	-0.512765	-0.378209
C38	C	1.343222	-0.012765	0.121791
C39	C	0.802260	-0.444790	-0.428497
C40	C	1.302260	0.055210	0.071503
C41	C	0.720280	-0.444797	-0.428501
C42	C	1.220280	0.055203	0.071499
C43	C	0.679262	-0.512785	-0.378219
C44	C	1.179262	-0.012785	0.121781
C45	C	0.720230	-0.580763	-0.327925
C46	C	1.220230	-0.080763	0.172075
C47	C	0.802209	-0.580750	-0.327918
C48	C	1.302209	-0.080750	0.172082
C49	C	0.549360	-0.580787	-0.327945
C50	C	1.049360	-0.080787	0.172055
C51	C	0.467375	-0.580802	-0.327953
C52	C	0.967375	-0.080802	0.172047
C53	C	0.467431	-0.444834	-0.428527
C54	C	0.967431	0.055166	0.071473
C55	C	0.549410	-0.444821	-0.428520
C56	C	1.049410	0.055179	0.071480
C57	C	0.590371	-0.512801	-0.378227
C58	C	1.090371	-0.012801	0.121773
C59	C	1.134368	-0.789324	-0.378208
C60	C	1.634368	-0.289324	0.121792
C61	C	1.134418	-0.907629	-0.378231
C62	C	1.634418	-0.407629	0.121769
C63	C	1.081980	-0.976892	-0.430632
C64	C	1.581980	-0.476892	0.069368
C65	C	1.062859	-1.047753	-0.359004
C66	C	1.562859	-0.547753	0.140996
C67	C	1.153611	-1.047567	-0.449870
C68	C	1.653611	-0.547567	0.050130
C69	C	1.115259	-0.976932	-0.306565
C70	C	1.615259	-0.476932	0.193435
C71	C	1.206044	-0.976740	-0.397479
C72	C	1.706044	-0.476740	0.102521
C73	C	1.186950	-1.047569	-0.325803
C74	C	1.686950	-0.547569	0.174197
C75	C	1.339164	-0.512814	-0.378233
C76	C	1.839164	-0.012814	0.121767
C77	C	1.426414	-0.512827	-0.378241
C78	C	1.926414	-0.012827	0.121759
C79	C	1.134459	-0.512700	-0.582960
C80	C	1.634459	-0.012700	-0.082960
C81	C	1.134476	-0.512665	-0.670209
C82	C	1.634476	-0.012665	-0.170209
C83	C	1.134493	-0.235162	-0.378240
C84	C	1.634493	0.264838	0.121760
C85	C	1.134524	-0.116856	-0.378251
C86	C	1.634524	0.383144	0.121749
C87	C	1.084303	-0.444573	-0.711201
C88	C	1.584303	0.055427	-0.211201
C89	C	1.084316	-0.444549	-0.793181
C90	C	1.584316	0.055451	-0.293181
C91	C	1.134506	-0.512612	-0.834169
C92	C	1.634506	-0.012612	-0.334169
C93	C	1.184681	-0.580712	-0.793172
C94	C	1.684681	-0.080712	-0.293172
C95	C	1.184663	-0.580740	-0.711193
C96	C	1.684663	-0.080740	-0.211193
C97	C	1.184715	-0.580645	-0.964042
C98	C	1.684715	-0.080645	-0.464042
C99	C	1.184733	-0.580615	-1.046027
C100	C	1.684733	-0.080615	-0.546027
C101	C	1.084367	-0.444454	-1.046030
C102	C	1.584367	0.055546	-0.546030
C103	C	1.084350	-0.444483	-0.964051
C104	C	1.584350	0.055517	-0.464051
C105	C	1.134526	-0.512581	-0.923060
C106	C	1.634526	-0.012581	-0.423060
C107	C	1.134425	-0.512788	-0.174267
C108	C	1.634425	-0.012788	0.325733
C109	C	1.134561	-0.512523	-0.087018
C110	C	1.634561	-0.012523	0.412982
H111	H	0.582803	-0.389465	-0.469469
H112	H	1.082803	0.110535	0.030531
C113	C	1.029140	-0.369608	-0.918966
C114	C	1.529140	0.130392	-0.418966
N115	N	0.987553	-0.313214	-0.885008
N116	N	1.487553	0.186786	-0.385008
C117	C	1.287783	-0.934551	-0.419505
C118	C	1.787783	-0.434551	0.080495
N119	N	1.349347	-0.902766	-0.436106
N120	N	1.849347	-0.402766	0.063894
C121	C	1.239939	-0.655495	-1.091112
C122	C	1.739939	-0.155495	-0.591112
N123	N	1.281520	-0.711898	-1.125070
N124	N	1.781520	-0.211898	-0.625070
H125	H	1.098998	-0.946032	-0.245972
H126	H	1.598998	-0.446032	0.254028
C127	C	0.675108	-0.655550	-0.272614
C128	C	1.175108	-0.155550	0.227386
N129	N	0.641123	-0.711883	-0.230954
N130	N	1.141123	-0.211883	0.269046
C131	C	0.847371	-0.369995	-0.483811
C132	C	1.347371	0.130005	0.016189
N133	N	0.881347	-0.313654	-0.525473
N134	N	1.381347	0.186346	-0.025473
C135	C	1.246916	-1.089239	-0.265880
C136	C	1.746916	-0.589239	0.234120
N137	N	1.292079	-1.120628	-0.220744
N138	N	1.792079	-0.620628	0.279256
H139	H	1.169801	-1.078595	-0.510447
H140	H	1.669801	-0.578595	-0.010447
C141	C	1.021966	-0.934955	-0.490407
C142	C	1.521966	-0.434955	0.009593
N143	N	0.976762	-0.903364	-0.535425
N144	N	1.476762	-0.403364	-0.035425
C145	C	0.847266	-0.655531	-0.272598
C146	C	1.347266	-0.155531	0.227402
N147	N	0.881203	-0.711856	-0.230929
N148	N	1.381203	-0.211856	0.269071
H149	H	1.043437	-0.389142	-0.677834
H150	H	1.543437	0.110858	-0.177834
H151	H	1.043457	-0.389106	-0.826553
H152	H	1.543457	0.110894	-0.326553
H153	H	1.002336	-1.078968	-0.342740
H154	H	1.502336	-0.578968	0.157260
H155	H	1.043513	-0.389005	-1.079409
H156	H	1.543513	0.110995	-0.579409
H157	H	0.433981	-0.636165	-0.287009
H158	H	0.933981	-0.136165	0.212991
H159	H	1.225580	-0.636088	-0.930670
H160	H	1.725580	-0.136088	-0.430670
H161	H	1.225525	-0.636180	-0.677819
H162	H	1.725525	-0.136180	-0.177819
C163	C	0.675225	-0.370022	-0.483825
C164	C	1.175225	0.129978	0.016175
N165	N	0.641291	-0.313698	-0.525498
N166	N	1.141291	0.186302	-0.025498
C167	C	0.422371	-0.370059	-0.483853
C168	C	0.922371	0.129941	0.016147
N169	N	0.388428	-0.313745	-0.525527
N170	N	0.888428	0.186255	-0.025527
H171	H	1.225542	-0.636135	-0.826551
H172	H	1.725542	-0.136135	-0.326551
H173	H	0.582709	-0.636141	-0.286989
H174	H	1.082709	-0.136141	0.213011
