data_functionalizedCrystal
_audit_creation_method	'MofGen! by Chris Wilmer'
_symmetry_space_group_name_H-M	'P1'
_symmetry_Int_Tables_number	1
_symmetry_cell_setting	triclinic
loop_
_symmetry_equiv_pos_as_xyz
  x,y,z
_cell_length_a	16.959454
_cell_length_b	16.959455
_cell_length_c	16.959447
_cell_angle_alpha	89.976354
_cell_angle_beta	90.026736
_cell_angle_gamma	89.984932
loop_
_atom_site_label
_atom_site_type_symbol
_atom_site_fract_x
_atom_site_fract_y
_atom_site_fract_z
Zn1	Zn	-0.314771	-1.208384	0.447125
Zn2	Zn	-0.446964	-1.208306	0.314955
Zn3	Zn	-0.314792	-1.076212	0.314941
Zn4	Zn	-0.446900	-1.076177	0.447072
O5	O	-0.380857	-1.142270	0.381023
O6	O	-0.332325	-1.318984	0.429620
O7	O	-0.429466	-1.190766	0.204342
O8	O	-0.204178	-1.093792	0.332492
O9	O	-0.429446	-1.318927	0.332515
O10	O	-0.204163	-1.190898	0.429607
O11	O	-0.332360	-1.093717	0.204332
O12	O	-0.332298	-0.965597	0.332440
O13	O	-0.429338	-1.093732	0.557690
O14	O	-0.429358	-0.965571	0.429516
O15	O	-0.332264	-1.190864	0.557729
O16	O	-0.557566	-1.190732	0.332464
O17	O	-0.557520	-1.093657	0.429530
C18	C	-0.380824	-0.936904	0.380972
C19	C	-0.380829	-0.849047	0.380968
C20	C	-0.431354	-0.477531	0.330397
C21	C	-0.330378	-0.477612	0.431670
C22	C	-0.330368	-0.560158	0.431655
C23	C	-0.380853	-0.601394	0.381012
C24	C	-0.431347	-0.560085	0.330382
C25	C	-0.279880	-0.601473	0.482289
C26	C	-0.279868	-0.684024	0.482277
C27	C	-0.330350	-0.725262	0.431629
C28	C	-0.380846	-0.683948	0.380997
C29	C	-0.431330	-0.725184	0.330354
C30	C	-0.481823	-0.683871	0.279717
C31	C	-0.481829	-0.601323	0.279734
C32	C	-0.330344	-0.807811	0.431612
C33	C	-0.431323	-0.807738	0.330339
C34	C	-0.586223	-1.142204	0.381010
C35	C	-0.674080	-1.142248	0.381030
C36	C	-1.045561	-1.091796	0.431560
C37	C	-1.045550	-1.192964	0.330567
C38	C	-0.963004	-1.192936	0.330560
C39	C	-0.921733	-1.142337	0.381052
C40	C	-0.963007	-1.091765	0.431552
C41	C	-0.921723	-1.243501	0.280055
C42	C	-0.839172	-1.243475	0.280045
C43	C	-0.797899	-1.192879	0.330542
C44	C	-0.839179	-1.142306	0.381045
C45	C	-0.797908	-1.091707	0.431538
C46	C	-0.839186	-1.041138	0.482045
C47	C	-0.921735	-1.041170	0.482050
C48	C	-0.715351	-1.192847	0.330538
C49	C	-0.715354	-1.091676	0.431530
C50	C	-0.174689	-1.142358	0.381054
C51	C	-0.086832	-1.142395	0.381067
C52	C	-0.380791	-1.142303	0.587191
C53	C	-0.380764	-1.142317	0.675048
C54	C	-0.380882	-0.348438	0.381061
C55	C	-0.380870	-0.436295	0.381040
C56	C	-0.380865	-1.142283	0.175657
C57	C	-0.380670	-1.142422	0.087801
C58	C	-0.431222	-1.091839	1.046506
C59	C	-0.330138	-1.192983	1.046542
C60	C	-0.330155	-1.192962	0.963996
C61	C	-0.380707	-1.142380	0.922701
C62	C	-0.431242	-1.091818	0.963952
C63	C	-0.279626	-1.243529	0.922738
C64	C	-0.279641	-1.243510	0.840187
C65	C	-0.330190	-1.192923	0.798891
C66	C	-0.380727	-1.142359	0.840148
C67	C	-0.431279	-1.091776	0.798853
C68	C	-0.481813	-1.041207	0.840108
C69	C	-0.481791	-1.041231	0.922656
C70	C	-0.330211	-1.192899	0.716343
C71	C	-0.431299	-1.091755	0.716299
H72	H	-0.522937	-0.567678	0.238508
H73	H	-0.238783	-0.567892	0.523525
N74	N	-0.536277	-0.728350	0.225099
H75	H	-0.528609	-0.786912	0.232779
H76	H	-0.523903	-0.713898	0.168669
H77	H	-0.805574	-0.999936	0.523153
N78	N	-0.225401	-0.728572	0.536884
H79	H	-0.188728	-0.762806	0.504815
H80	H	-0.257615	-0.762796	0.573445
N81	N	-0.275905	-0.852372	0.486231
H82	H	-0.239229	-0.886616	0.454176
H83	H	-0.308144	-0.886587	0.522779
N84	N	-0.485806	-0.432980	0.275777
H85	H	-0.478150	-0.374427	0.283464
H86	H	-0.542273	-0.447403	0.287978
N87	N	-0.225109	-1.298087	0.967275
H88	H	-0.232763	-1.290423	1.025828
H89	H	-0.168659	-1.285808	0.952855
H90	H	-0.288985	-1.234170	1.080169
N91	N	-0.536275	-0.986689	0.967165
H92	H	-0.572901	-1.018802	1.001416
H93	H	-0.568251	-0.954641	0.928442
H94	H	-0.681756	-1.050475	0.472651
H95	H	-0.289280	-0.444032	0.472906
N96	N	-0.485708	-1.037293	1.091007
H97	H	-0.522336	-1.069399	1.125261
H98	H	-0.517683	-1.005251	1.052276
N99	N	-0.225141	-1.298048	0.795694
H100	H	-0.193115	-1.330095	0.834381
H101	H	-0.188563	-1.265879	0.761450
H102	H	-1.079173	-1.050626	0.472684
H103	H	-0.955351	-0.999998	0.523169
N104	N	-1.090059	-1.247523	0.276096
H105	H	-1.148616	-1.239864	0.283760
H106	H	-1.075595	-1.303965	0.288451
H107	H	-0.955332	-1.284690	0.238940
N108	N	-0.275727	-1.247441	0.671841
H109	H	-0.219240	-1.235205	0.686210
H110	H	-0.283484	-1.239722	0.613296
N111	N	-0.794652	-1.298023	0.225583
H112	H	-0.809053	-1.285795	0.169092
H113	H	-0.809000	-1.354471	0.237995
N114	N	-0.485773	-0.852206	0.275708
H115	H	-0.542266	-0.837835	0.287887
H116	H	-0.478044	-0.910756	0.283405
H117	H	-0.472458	-1.050557	0.682683
N118	N	-0.670828	-1.247376	0.276064
H119	H	-0.709500	-1.279432	0.244075
H120	H	-0.636538	-1.283926	0.308272
N121	N	-0.536341	-0.986657	0.795566
H122	H	-0.528685	-0.994324	0.737013
H123	H	-0.524026	-0.930212	0.809980
