data_functionalizedCrystal
_audit_creation_method	'MofGen! by Chris Wilmer'
_symmetry_space_group_name_H-M	'P1'
_symmetry_Int_Tables_number	1
_symmetry_cell_setting	triclinic
loop_
_symmetry_equiv_pos_as_xyz
  x,y,z
_cell_length_a	16.992694
_cell_length_b	14.853567
_cell_length_c	16.053802
_cell_angle_alpha	92.572962
_cell_angle_beta	87.249047
_cell_angle_gamma	87.151577
loop_
_atom_site_label
_atom_site_type_symbol
_atom_site_fract_x
_atom_site_fract_y
_atom_site_fract_z
O1	O	1.043898	0.187626	-0.069313
O2	O	1.543898	0.687626	0.430687
O3	O	0.815612	0.185528	-0.069338
O4	O	1.315612	0.685528	0.430662
O5	O	0.935853	0.055778	-0.069327
O6	O	1.435853	0.555778	0.430673
O7	O	0.923657	0.317376	-0.069323
O8	O	1.423657	0.817376	0.430677
O9	O	0.929234	0.062888	0.069531
O10	O	1.429234	0.562888	0.569531
O11	O	0.808993	0.192638	0.069521
O12	O	1.308993	0.692638	0.569521
O13	O	1.037280	0.194737	0.069545
O14	O	1.537280	0.694737	0.569545
Zn15	Zn	0.922086	0.194816	0.091580
Zn16	Zn	1.422086	0.694816	0.591580
Zn17	Zn	0.930806	0.185448	-0.091372
Zn18	Zn	1.430806	0.685448	0.408628
O19	O	0.917038	0.324487	0.069535
O20	O	1.417038	0.824487	0.569535
C21	C	0.783087	0.186385	0.000088
C22	C	1.283087	0.686385	0.500088
C23	C	0.696035	0.178334	0.000078
C24	C	1.196035	0.678334	0.500078
C25	C	0.645879	0.256009	0.000080
C26	C	1.145879	0.756009	0.500080
C27	C	0.564083	0.248440	0.000092
C28	C	1.064083	0.748440	0.500092
C29	C	0.532446	0.163195	0.000095
C30	C	1.032446	0.663195	0.500095
C31	C	0.582608	0.085513	0.000096
C32	C	1.082608	0.585513	0.500096
C33	C	0.664401	0.093084	0.000091
C34	C	1.164401	0.593084	0.500091
C35	C	0.288813	0.131819	0.000117
C36	C	0.788813	0.631819	0.500117
C37	C	0.207013	0.124255	0.000120
C38	C	0.707013	0.624255	0.500120
C39	C	0.188494	0.287183	0.000117
C40	C	0.688494	0.787183	0.500117
C41	C	0.270290	0.294745	0.000107
C42	C	0.770290	0.794745	0.500107
C43	C	0.320445	0.217064	0.000112
C44	C	0.820445	0.717064	0.500112
N45	N	0.448838	0.155456	0.000104
N46	N	0.948838	0.655456	0.500104
N47	N	0.404051	0.224804	0.000109
N48	N	0.904051	0.724804	0.500109
C49	C	0.931991	0.025705	0.000099
C50	C	1.431991	0.525705	0.500099
C51	C	0.930335	-0.074496	0.000092
C52	C	1.430335	0.425504	0.500092
C53	C	0.851909	-0.492567	0.000099
C54	C	1.351909	0.007433	0.500099
C55	C	0.994758	-0.503761	0.000115
C56	C	1.494758	-0.003761	0.500115
C57	C	0.996315	-0.409617	0.000110
C58	C	1.496315	0.090383	0.500110
C59	C	0.925668	-0.356944	0.000101
C60	C	1.425668	0.143056	0.500101
C61	C	0.853464	-0.398414	0.000097
C62	C	1.353464	0.101586	0.500097
C63	C	1.068518	-0.368139	0.000123
C64	C	1.568518	0.131861	0.500123
C65	C	1.070078	-0.273990	0.000119
C66	C	1.570078	0.226010	0.500119
C67	C	0.999430	-0.221316	0.000104
C68	C	1.499430	0.278684	0.500104
C69	C	0.927223	-0.262792	0.000099
C70	C	1.427223	0.237208	0.500099
C71	C	0.856576	-0.210118	0.000090
C72	C	1.356576	0.289882	0.500090
C73	C	0.784368	-0.251593	0.000079
C74	C	1.284368	0.248407	0.500079
C75	C	0.782816	-0.345740	0.000082
C76	C	1.282816	0.154260	0.500082
C77	C	1.000983	-0.127169	0.000101
C78	C	1.500983	0.372831	0.500101
C79	C	0.858131	-0.115966	0.000088
C80	C	1.358131	0.384034	0.500088
C81	C	1.069804	0.193880	0.000118
C82	C	1.569804	0.693880	0.500118
C83	C	1.156857	0.201930	0.000122
C84	C	1.656857	0.701930	0.500122
C85	C	0.920900	0.354559	0.000106
C86	C	1.420900	0.854559	0.500106
C87	C	0.922556	0.454760	0.000108
C88	C	1.422556	0.954760	0.500108
N89	N	0.916140	0.201210	0.216440
N90	N	1.416140	0.701210	0.716440
N91	N	0.936757	0.179048	-0.216232
N92	N	1.436757	0.679048	0.283768
C93	C	0.967322	0.146023	0.260138
C94	C	1.467322	0.646023	0.760138
C95	C	0.963170	0.150505	0.347544
C96	C	1.463170	0.650505	0.847544
C97	C	0.907840	0.210178	0.391251
C98	C	1.407840	0.710178	0.891251
C99	C	0.856653	0.265367	0.347546
C100	C	1.356653	0.765367	0.847546
C101	C	0.860801	0.260880	0.260141
C102	C	1.360801	0.760880	0.760141
C103	C	0.889719	0.229750	0.652659
C104	C	1.389719	0.729750	1.152659
C105	C	0.885576	0.234235	0.740070
C106	C	1.385576	0.734235	1.240070
C107	C	0.992092	0.119371	0.740062
C108	C	1.492092	0.619371	1.240062
C109	C	0.996239	0.114894	0.652655
C110	C	1.496239	0.614894	1.152655
C111	C	0.945049	0.170079	0.608958
C112	C	1.445049	0.670079	1.108958
N113	N	0.903597	0.214762	0.480594
N114	N	1.403597	0.714762	0.980594
N115	N	0.949289	0.165490	0.519617
N116	N	1.449289	0.665490	1.019617
H117	H	0.147649	0.350426	0.000115
H118	H	0.647649	0.850426	0.500115
H119	H	1.004845	0.105567	0.383123
H120	H	1.504845	0.605567	0.883123
C121	C	1.186390	-0.403017	0.071522
C122	C	1.686390	0.096983	0.571522
C123	C	1.146171	-0.426034	0.000133
C124	C	1.646171	0.073966	0.500133
H125	H	1.234330	-0.438766	0.071528
H126	H	1.734330	0.061234	0.571528
H127	H	1.197648	-0.341019	0.071520
H128	H	1.697648	0.158981	0.571520
H129	H	1.154472	-0.413673	0.119935
H130	H	1.654472	0.086327	0.619935
H131	H	1.178088	-0.415373	-0.048280
H132	H	1.678088	0.084627	0.451720
H133	H	1.134915	-0.488047	0.000128
H134	H	1.634915	0.011953	0.500128
H135	H	0.819123	0.305817	0.224563
H136	H	1.319123	0.805817	0.724563
H137	H	0.840517	0.282831	0.775651
H138	H	1.340517	0.782831	1.275651
H139	H	0.793119	-0.526340	0.000087
H140	H	1.293119	-0.026340	0.500087
C141	C	0.740252	-0.081098	-0.071310
C142	C	1.240252	0.418902	0.428690
C143	C	0.780471	-0.058072	0.000078
C144	C	1.280471	0.441928	0.500078
H145	H	0.692306	-0.045360	-0.071312
H146	H	1.192306	0.454640	0.428688
H147	H	0.772162	-0.070442	-0.119718
H148	H	1.272162	0.429558	0.380282
H149	H	0.729000	-0.143106	-0.071303
H150	H	1.229000	0.356894	0.428697
H151	H	0.791728	0.003935	0.000068
H152	H	1.291728	0.503935	0.500068
H153	H	0.748554	-0.068721	0.048499
H154	H	1.248554	0.431279	0.548499
H155	H	1.052275	-0.546652	0.000129
H156	H	1.552275	-0.046652	0.500129
H157	H	0.296043	0.364160	0.000094
H158	H	0.796043	0.864160	0.500094
H159	H	0.181257	0.054834	0.000122
H160	H	0.681257	0.554834	0.500122
H161	H	1.041293	0.066303	0.617071
H162	H	1.541293	0.566303	1.117071
C163	C	0.803004	0.323254	0.481533
C164	C	1.303004	0.823254	0.981533
C165	C	0.795834	0.330963	0.395587
C166	C	1.295834	0.830963	0.895587
H167	H	0.765460	0.363758	0.511188
H168	H	1.265460	0.863758	1.011188
H169	H	0.793743	0.263204	0.495862
H170	H	1.293743	0.763204	0.995862
H171	H	0.854670	0.337587	0.495839
H172	H	1.354670	0.837587	0.995839
H173	H	0.744170	0.316624	0.381280
H174	H	1.244170	0.816624	0.881280
H175	H	0.805090	0.391026	0.381252
H176	H	1.305090	0.891026	0.881252
C177	C	0.464748	0.330783	-0.071293
C178	C	0.964748	0.830783	0.428707
C179	C	0.508953	0.333825	0.000085
C180	C	1.008953	0.833825	0.500085
H181	H	0.430712	0.383497	-0.071294
H182	H	0.930712	0.883497	0.428706
H183	H	0.499343	0.327863	-0.119708
H184	H	0.999343	0.827863	0.380292
H185	H	0.434201	0.278930	-0.071275
H186	H	0.934201	0.778930	0.428725
H187	H	0.539505	0.385674	0.000064
H188	H	1.039505	0.885674	0.500064
H189	H	0.474354	0.336753	0.048513
H190	H	0.974354	0.836753	0.548513
C191	C	0.619349	0.416294	0.000087
C192	C	1.119349	0.916294	0.500087
C193	C	0.680650	0.349715	0.000078
C194	C	1.180650	0.849715	0.500078
H195	H	0.640815	0.474145	0.000093
H196	H	1.140815	0.974145	0.500093
H197	H	0.590134	0.407474	-0.048331
H198	H	1.090134	0.907474	0.451669
H199	H	0.585530	0.412423	0.048515
H200	H	1.085530	0.912423	0.548515
H201	H	0.714466	0.353582	-0.048353
H202	H	1.214466	0.853582	0.451647
H203	H	0.709878	0.358538	0.048501
H204	H	1.209878	0.858538	0.548501
H205	H	0.848039	0.274686	0.617088
H206	H	1.348039	0.774686	1.117088
H207	H	0.329640	0.068566	0.000122
H208	H	0.829640	0.568566	0.500122
H209	H	1.128874	-0.240230	0.000127
H210	H	1.628874	0.259770	0.500127
H211	H	0.556842	0.016105	0.000111
H212	H	1.056842	0.516105	0.500111
C213	C	1.066792	0.012181	0.000111
C214	C	1.566792	0.512181	0.500111
C215	C	1.080344	-0.081578	0.000116
C216	C	1.580344	0.418422	0.500116
H217	H	1.115790	0.040324	0.000126
H218	H	1.615790	0.540324	0.500126
H219	H	1.040018	0.027420	-0.048316
H220	H	1.540018	0.527420	0.451684
H221	H	1.035386	0.032385	0.048531
H222	H	1.535386	0.532385	0.548531
H223	H	1.111745	-0.101784	-0.048306
H224	H	1.611745	0.398216	0.451694
H225	H	1.107130	-0.096825	0.048548
H226	H	1.607130	0.403175	0.548548
H227	H	1.012380	0.097435	0.224558
H228	H	1.512380	0.597435	0.724558
H229	H	0.705238	0.029832	0.000089
H230	H	1.205238	0.529832	0.500089
H231	H	0.726847	-0.208694	0.000078
H232	H	1.226847	0.291306	0.500078
C233	C	1.004309	0.002947	0.838359
C234	C	1.504309	0.502947	1.338359
C235	C	1.048349	0.058704	0.788097
C236	C	1.548349	0.558704	1.288097
H237	H	1.039040	-0.034513	0.868009
H238	H	1.539040	0.465487	1.368009
H239	H	0.970772	0.039131	0.876892
H240	H	1.470772	0.539131	1.376892
H241	H	0.973255	-0.033602	0.804257
H242	H	1.473255	0.466398	1.304257
H243	H	1.079398	0.095259	0.822198
H244	H	1.579398	0.595259	1.322198
H245	H	1.081899	0.022517	0.749559
H246	H	1.581899	0.522517	1.249559
C247	C	0.701602	-0.448792	-0.071296
C248	C	1.201602	0.051208	0.428704
C249	C	0.703453	-0.391334	0.000080
C250	C	1.203453	0.108666	0.500080
H251	H	0.652608	-0.476947	-0.071291
H252	H	1.152608	0.023053	0.428709
H253	H	0.707475	-0.414781	-0.119713
H254	H	1.207475	0.085219	0.380287
H255	H	0.743461	-0.493627	-0.071280
H256	H	1.243461	0.006373	0.428720
H257	H	0.661597	-0.346495	0.000061
H258	H	1.161597	0.153505	0.500061
H259	H	0.697571	-0.425347	0.048509
H260	H	1.197571	0.074653	0.548509
