data_functionalizedCrystal
_audit_creation_method	'MofGen! by Chris Wilmer'
_symmetry_space_group_name_H-M	'P1'
_symmetry_Int_Tables_number	1
_symmetry_cell_setting	triclinic
loop_
_symmetry_equiv_pos_as_xyz
  x,y,z
_cell_length_a	16.109295
_cell_length_b	13.596369
_cell_length_c	14.519731
_cell_angle_alpha	90.006971
_cell_angle_beta	96.425980
_cell_angle_gamma	89.997603
loop_
_atom_site_label
_atom_site_type_symbol
_atom_site_fract_x
_atom_site_fract_y
_atom_site_fract_z
O1	O	-1.103349	0.081727	0.118517
O2	O	-0.861313	0.081744	0.133274
O3	O	-0.988739	0.081726	-0.008356
O4	O	-0.975923	0.081744	0.260146
O5	O	-0.988726	-0.081857	-0.008363
O6	O	-0.861300	-0.081839	0.133267
O7	O	-1.103336	-0.081856	0.118509
Zn8	Zn	-0.982316	-0.107820	0.125887
Zn9	Zn	-0.982333	0.107707	0.125897
O10	O	-0.975910	-0.081838	0.260139
C11	C	-0.830331	-0.000046	0.132674
C12	C	-0.738032	-0.000040	0.130884
C13	C	-0.515903	-0.000044	0.210762
C14	C	-0.429179	-0.000051	0.209073
C15	C	-0.448751	-0.000058	0.041037
C16	C	-0.535473	-0.000059	0.042727
C17	C	-0.569046	-0.000047	0.127592
C18	C	-0.395600	-0.000052	0.124214
C19	C	-0.301571	-0.000059	0.122382
C20	C	-0.663082	-0.000043	0.129424
N21	N	-0.982311	-0.254912	0.125879
C22	C	-0.982332	-0.656203	0.125898
C23	C	-0.982324	-0.544552	0.125896
C24	C	-0.982322	-0.455561	0.125889
C25	C	-0.982313	-0.343903	0.125886
C26	C	-0.134318	-0.000064	0.119115
C27	C	-0.226615	-0.000060	0.120922
C28	C	-0.988132	-0.000066	-0.042717
C29	C	-0.986333	-0.000066	-0.145094
N30	N	-0.982345	0.254799	0.125897
C31	C	-0.984870	-0.000064	-0.228235
C32	C	-0.983043	-0.000056	-0.332540
C33	C	-0.981593	-0.000050	-0.415675
C34	C	-0.979767	-0.000044	-0.519987
C35	C	-0.976517	-0.000045	0.294501
C36	C	-0.978317	-0.000038	0.396877
H37	H	-0.385912	-0.000050	0.276799
C38	C	-0.411817	-0.000059	-0.052306
H39	H	-0.352557	-0.000047	-0.041402
H40	H	-0.430046	-0.057103	-0.086558
H41	H	-0.430054	0.056994	-0.086541
C42	C	-0.593938	-0.000061	-0.048762
H43	H	-0.650394	-0.000071	-0.035599
H44	H	-0.583752	0.056981	-0.083558
H45	H	-0.583745	-0.057116	-0.083562
C46	C	-0.552831	-0.000042	0.304109
H47	H	-0.508757	-0.000050	0.353399
H48	H	-0.586257	0.057002	0.308269
H49	H	-0.586251	-0.057095	0.308254
