data_functionalizedCrystal
_audit_creation_method	'MofGen! by Chris Wilmer'
_symmetry_space_group_name_H-M	'P1'
_symmetry_Int_Tables_number	1
_symmetry_cell_setting	triclinic
loop_
_symmetry_equiv_pos_as_xyz
  x,y,z
_cell_length_a	19.805407
_cell_length_b	16.959454
_cell_length_c	19.805399
_cell_angle_alpha	89.976206
_cell_angle_beta	89.983114
_cell_angle_gamma	90.020075
loop_
_atom_site_label
_atom_site_type_symbol
_atom_site_fract_x
_atom_site_fract_y
_atom_site_fract_z
Zn1	Zn	1.034748	-0.314689	-0.382744
Zn2	Zn	1.034680	-0.446875	-0.269566
Zn3	Zn	0.921567	-0.314714	-0.269569
Zn4	Zn	0.921538	-0.446829	-0.382713
O5	O	0.978133	-0.380777	-0.326148
O6	O	1.129455	-0.332232	-0.367743
O7	O	1.019660	-0.429373	-0.174850
O8	O	0.936621	-0.204100	-0.284596
O9	O	1.129406	-0.429348	-0.284591
O10	O	1.019774	-0.204081	-0.367745
O11	O	0.936556	-0.332275	-0.174852
O12	O	0.826847	-0.332231	-0.284565
O13	O	0.936572	-0.429271	-0.477434
O14	O	0.826826	-0.429295	-0.367692
O15	O	1.019746	-0.332188	-0.477457
O16	O	1.019631	-0.557479	-0.284561
O17	O	0.936506	-0.557446	-0.367690
C18	C	0.802277	-0.380762	-0.326126
C19	C	0.727045	-0.380774	-0.326133
C20	C	0.691708	-0.431392	-0.369347
C21	C	0.621019	-0.431393	-0.369356
C22	C	0.585670	-0.380780	-0.326148
C23	C	0.621012	-0.330157	-0.282932
C24	C	0.691700	-0.330152	-0.282926
C25	C	0.335939	-0.330175	-0.282954
C26	C	0.265247	-0.330185	-0.282962
C27	C	0.265259	-0.431415	-0.369384
C28	C	0.335946	-0.431411	-0.369379
C29	C	0.371282	-0.380785	-0.326166
C30	C	0.447931	-0.380783	-0.326157
C31	C	0.509023	-0.380786	-0.326153
C32	C	0.978077	-0.586143	-0.326136
C33	C	0.978114	-0.674000	-0.326154
C34	C	0.934913	-1.045488	-0.369428
C35	C	1.021542	-1.045462	-0.282937
C36	C	1.021519	-0.962917	-0.282930
C37	C	0.978191	-0.921652	-0.326173
C38	C	0.934887	-0.962934	-0.369422
C39	C	1.064817	-0.921629	-0.239677
C40	C	1.064795	-0.839078	-0.239669
C41	C	1.021470	-0.797812	-0.282915
C42	C	0.978164	-0.839099	-0.326167
C43	C	0.934837	-0.797835	-0.369409
C44	C	0.891534	-0.839120	-0.412665
C45	C	0.891562	-0.921669	-0.412669
C46	C	1.021442	-0.715264	-0.282911
C47	C	0.934810	-0.715281	-0.369403
C48	C	1.154676	-0.380792	-0.326170
C49	C	1.229908	-0.380799	-0.326180
C50	C	0.978163	-0.380722	-0.502691
C51	C	0.978176	-0.380698	-0.577923
C52	C	0.978209	-0.174608	-0.326174
C53	C	0.978241	-0.086752	-0.326186
C54	C	0.934916	-0.330135	-0.613267
C55	C	0.934925	-0.330119	-0.683956
C56	C	0.978198	-0.380664	-0.719298
C57	C	1.021460	-0.431233	-0.683949
C58	C	1.021447	-0.431252	-0.613262
C59	C	1.021513	-0.431160	-0.969022
C60	C	1.021525	-0.431135	-1.039714
C61	C	0.934992	-0.330027	-1.039716
C62	C	0.934979	-0.330046	-0.969029
C63	C	0.978238	-0.380617	-0.933686
C64	C	0.978226	-0.380634	-0.857037
C65	C	0.978214	-0.380644	-0.795946
C66	C	0.978143	-0.380774	-0.150292
C67	C	0.978261	-0.380575	-0.075060
H68	H	0.236467	-0.288965	-0.247776
C69	C	1.068521	-0.670582	-0.235925
C70	C	1.106478	-0.724388	-0.198064
C71	C	1.149862	-0.683257	-0.154777
H72	H	1.042710	-0.638416	-0.206351
H73	H	1.098026	-0.638357	-0.261824
H74	H	1.076977	-0.756599	-0.172168
H75	H	1.132303	-0.756556	-0.227620
H76	H	1.179367	-0.651032	-0.180675
H77	H	1.124046	-0.651092	-0.125207
H78	H	1.175626	-0.719758	-0.129087
C79	C	0.226930	-0.486505	-0.416229
C80	C	0.244085	-0.564689	-0.401363
C81	C	0.208786	-0.615459	-0.444495
H82	H	0.238511	-0.475108	-0.461744
H83	H	0.179761	-0.479314	-0.410045
H84	H	0.291243	-0.571877	-0.407553
H85	H	0.232502	-0.576111	-0.355855
H86	H	0.161618	-0.608268	-0.438311
H87	H	0.220370	-0.604055	-0.490008
H88	H	0.220416	-0.668513	-0.434410
H89	H	0.592250	-0.472612	-0.404545
C90	C	0.887857	-0.275228	-0.575021
C91	C	0.849960	-0.230960	-0.621108
C92	C	0.806593	-0.180381	-0.585902
H93	H	0.913678	-0.240725	-0.547450
H94	H	0.858314	-0.305454	-0.547453
H95	H	0.879500	-0.200736	-0.648663
H96	H	0.824126	-0.265442	-0.648679
H97	H	0.777049	-0.210607	-0.558334
H98	H	0.832419	-0.145884	-0.558333
H99	H	0.780870	-0.150344	-0.617166
H100	H	0.899530	-0.681689	-0.404619
C101	C	1.111769	-0.966344	-0.192585
C102	C	1.097019	-0.946287	-0.125618
C103	C	1.140253	-0.987455	-0.082202
H104	H	1.157260	-0.952791	-0.202430
H105	H	1.105601	-1.021435	-0.198708
H106	H	1.103193	-0.891208	-0.119498
H107	H	1.051537	-0.959842	-0.115752
H108	H	1.134085	-1.042547	-0.088325
H109	H	1.185741	-0.973899	-0.092053
H110	H	1.130248	-0.973858	-0.036760
H111	H	0.364701	-0.288958	-0.247763
H112	H	1.100054	-0.805468	-0.204449
C113	C	0.582757	-0.275119	-0.235993
C114	C	0.628837	-0.230773	-0.198160
C115	C	0.593623	-0.180058	-0.154916
H116	H	0.555162	-0.305225	-0.206400
H117	H	0.555214	-0.240677	-0.261922
H118	H	0.656369	-0.265211	-0.172233
H119	H	0.656433	-0.200651	-0.227735
H120	H	0.566079	-0.145616	-0.180845
H121	H	0.566029	-0.210171	-0.125327
H122	H	0.624882	-0.149958	-0.129246
H123	H	0.856253	-0.805513	-0.447870
C124	C	1.068525	-0.485981	-0.722355
C125	C	1.111945	-0.441218	-0.762934
C126	C	1.155318	-0.491623	-0.798315
H127	H	1.042704	-0.520425	-0.749978
H128	H	1.094327	-0.516086	-0.691201
H129	H	1.086146	-0.411127	-0.794084
H130	H	1.137781	-0.406776	-0.735328
H131	H	1.181120	-0.521728	-0.767161
H132	H	1.129492	-0.526065	-0.825935
H133	H	1.184788	-0.461259	-0.825847
C134	C	1.068617	-0.485975	-1.078000
C135	C	1.135589	-0.468796	-1.060801
C136	C	1.178987	-0.519301	-1.096048
H137	H	1.062523	-0.478769	-1.125171
H138	H	1.058726	-0.539099	-1.066394
H139	H	1.145477	-0.415685	-1.072411
H140	H	1.141704	-0.476007	-1.013636
H141	H	1.169095	-0.572425	-1.084442
H142	H	1.172887	-0.512091	-1.143217
H143	H	1.224431	-0.507657	-1.084379
C144	C	0.730157	-0.275327	-0.235967
C145	C	0.770725	-0.320013	-0.192529
C146	C	0.806169	-0.269531	-0.149268
H147	H	0.699061	-0.245165	-0.210168
H148	H	0.757789	-0.240937	-0.261890
H149	H	0.743096	-0.354389	-0.166608
H150	H	0.801834	-0.350173	-0.218310
H151	H	0.833801	-0.235142	-0.175191
H152	H	0.775067	-0.239373	-0.123473
H153	H	0.833703	-0.299843	-0.119795
H154	H	0.856306	-0.955290	-0.447884
H155	H	1.056678	-0.472420	-0.584485
H156	H	0.899659	-1.079106	-0.404647
C157	C	0.374288	-0.486263	-0.416406
C158	C	0.357135	-0.469137	-0.483401
C159	C	0.392448	-0.519642	-0.526744
H160	H	0.362717	-0.539387	-0.406516
H161	H	0.421455	-0.479005	-0.410260
H162	H	0.309979	-0.476402	-0.489544
H163	H	0.368708	-0.416022	-0.493312
H164	H	0.439614	-0.512383	-0.520598
H165	H	0.380874	-0.572763	-0.516848
H166	H	0.380819	-0.508024	-0.572205
H167	H	1.056814	-1.079065	-0.247726
H168	H	0.899767	-0.288851	-1.068502
H169	H	0.720484	-0.472609	-0.404530
H170	H	1.056730	-0.472347	-0.940254
H171	H	0.899744	-0.288884	-0.940257
C172	C	0.887863	-0.275357	-0.722358
C173	C	0.844455	-0.320105	-0.762905
C174	C	0.801079	-0.269688	-0.798280
H175	H	0.913683	-0.240892	-0.750003
H176	H	0.862054	-0.245276	-0.691201
H177	H	0.870262	-0.350173	-0.794058
H178	H	0.818621	-0.354569	-0.735277
H179	H	0.775269	-0.239606	-0.767123
H180	H	0.826904	-0.235225	-0.825921
H181	H	0.771618	-0.300042	-0.825790
