data_functionalizedCrystal
_audit_creation_method	'MofGen! by Chris Wilmer'
_symmetry_space_group_name_H-M	'P1'
_symmetry_Int_Tables_number	1
_symmetry_cell_setting	triclinic
loop_
_symmetry_equiv_pos_as_xyz
  x,y,z
_cell_length_a	23.532355
_cell_length_b	18.366186
_cell_length_c	19.288865
_cell_angle_alpha	89.993214
_cell_angle_beta	97.018127
_cell_angle_gamma	90.000539
loop_
_atom_site_label
_atom_site_type_symbol
_atom_site_fract_x
_atom_site_fract_y
_atom_site_fract_z
O1	O	0.755455	0.060459	-0.084143
O2	O	1.005455	0.310459	0.165857
O3	O	1.255455	0.560459	0.415857
O4	O	1.505455	0.810459	0.665857
O5	O	0.589613	0.060483	-0.096381
O6	O	0.839613	0.310483	0.153619
O7	O	1.089613	0.560483	0.403619
O8	O	1.339613	0.810483	0.653619
O9	O	0.677326	0.060456	0.010884
O10	O	0.927326	0.310456	0.260884
O11	O	1.177326	0.560456	0.510884
O12	O	1.427326	0.810456	0.760884
O13	O	0.667742	0.060486	-0.191408
O14	O	0.917742	0.310486	0.058592
O15	O	1.167742	0.560486	0.308592
O16	O	1.417742	0.810486	0.558592
O17	O	0.677315	-0.060644	0.010881
O18	O	0.927315	0.189356	0.260881
O19	O	1.177315	0.439356	0.510881
O20	O	1.427315	0.689356	0.760881
O21	O	0.589601	-0.060616	-0.096385
O22	O	0.839601	0.189384	0.153615
O23	O	1.089601	0.439384	0.403615
O24	O	1.339601	0.689384	0.653615
O25	O	0.755444	-0.060641	-0.084147
O26	O	1.005444	0.189359	0.165853
O27	O	1.255444	0.439359	0.415853
O28	O	1.505444	0.689359	0.665853
Zn29	Zn	0.672521	-0.079856	-0.090266
Zn30	Zn	0.922521	0.170144	0.159734
Zn31	Zn	1.172521	0.420144	0.409734
Zn32	Zn	1.422521	0.670144	0.659734
Zn33	Zn	0.672536	0.079698	-0.090261
Zn34	Zn	0.922536	0.329698	0.159739
Zn35	Zn	1.172536	0.579698	0.409739
Zn36	Zn	1.422536	0.829698	0.659739
O37	O	0.667731	-0.060613	-0.191412
O38	O	0.917731	0.189387	0.058588
O39	O	1.167731	0.439387	0.308588
O40	O	1.417731	0.689387	0.558588
C41	C	0.568390	-0.000064	-0.096077
C42	C	0.818390	0.249936	0.153923
C43	C	1.068390	0.499936	0.403923
C44	C	1.318390	0.749936	0.653923
C45	C	0.505169	-0.000055	-0.095157
C46	C	0.755169	0.249945	0.154843
C47	C	1.005169	0.499945	0.404843
C48	C	1.255169	0.749945	0.654843
N49	N	0.672515	-0.188747	-0.090269
N50	N	0.922515	0.061253	0.159731
N51	N	1.172515	0.311253	0.409731
N52	N	1.422515	0.561253	0.659731
C53	C	0.706978	-0.773295	-0.132153
C54	C	0.956978	-0.523295	0.117847
C55	C	1.206978	-0.273295	0.367847
C56	C	1.456978	-0.023295	0.617847
C57	C	0.706972	-0.697067	-0.132160
C58	C	0.956972	-0.447067	0.117840
C59	C	1.206972	-0.197067	0.367840
C60	C	1.456972	0.052933	0.617840
C61	C	0.672541	-0.658958	-0.090254
C62	C	0.922541	-0.408958	0.159746
C63	C	1.172541	-0.158958	0.409746
C64	C	1.422541	0.091042	0.659746
C65	C	0.638103	-0.697083	-0.048351
C66	C	0.888103	-0.447083	0.201649
C67	C	1.138103	-0.197083	0.451649
C68	C	1.388103	0.052917	0.701649
C69	C	0.638105	-0.773309	-0.048351
C70	C	0.888105	-0.523309	0.201649
C71	C	1.138105	-0.273309	0.451649
C72	C	1.388105	-0.023309	0.701649
C73	C	0.671125	-0.538201	-0.027634
C74	C	0.921125	-0.288201	0.222366
C75	C	1.171125	-0.038201	0.472366
C76	C	1.421125	0.211799	0.722366
C77	C	0.671127	-0.461976	-0.027633
C78	C	0.921127	-0.211976	0.222367
C79	C	1.171127	0.038024	0.472367
C80	C	1.421127	0.288024	0.722367
C81	C	0.672530	-0.423850	-0.090255
C82	C	0.922530	-0.173850	0.159745
C83	C	1.172530	0.076150	0.409745
C84	C	1.422530	0.326150	0.659745
C85	C	0.673943	-0.461960	-0.152880
C86	C	0.923943	-0.211960	0.097120
C87	C	1.173943	0.038040	0.347120
C88	C	1.423943	0.288040	0.597120
C89	C	0.673946	-0.538186	-0.152880
C90	C	0.923946	-0.288186	0.097120
C91	C	1.173946	-0.038186	0.347120
C92	C	1.423946	0.211814	0.597120
C93	C	0.672534	-0.576303	-0.090250
C94	C	0.922534	-0.326303	0.159750
C95	C	1.172534	-0.076303	0.409750
C96	C	1.422534	0.173697	0.659750
C97	C	0.706957	-0.303080	-0.132166
C98	C	0.956957	-0.053080	0.117834
C99	C	1.206957	0.196920	0.367834
C100	C	1.456957	0.446920	0.617834
C101	C	0.706947	-0.226851	-0.132175
C102	C	0.956947	0.023149	0.117825
C103	C	1.206947	0.273149	0.367825
C104	C	1.456947	0.523149	0.617825
C105	C	0.638081	-0.226868	-0.048360
C106	C	0.888081	0.023132	0.201640
C107	C	1.138081	0.273132	0.451640
C108	C	1.388081	0.523132	0.701640
C109	C	0.638087	-0.303096	-0.048358
C110	C	0.888087	-0.053096	0.201642
C111	C	1.138087	0.196904	0.451642
C112	C	1.388087	0.446904	0.701642
C113	C	0.672528	-0.341197	-0.090260
C114	C	0.922528	-0.091197	0.159740
C115	C	1.172528	0.158803	0.409740
C116	C	1.422528	0.408803	0.659740
C117	C	0.113137	-0.066098	-0.089380
C118	C	0.363137	0.183902	0.160620
C119	C	0.613137	0.433902	0.410620
C120	C	0.863137	0.683902	0.660620
C121	C	0.053736	-0.066101	-0.088505
C122	C	0.303736	0.183899	0.161495
C123	C	0.553736	0.433899	0.411495
C124	C	0.803736	0.683899	0.661495
O125	O	0.023011	-0.122240	-0.088031
O126	O	0.273011	0.127760	0.161969
O127	O	0.523011	0.377760	0.411969
O128	O	0.773011	0.627760	0.661969
N129	N	0.024033	-0.000090	-0.088070
N130	N	0.274033	0.249910	0.161930
N131	N	0.524033	0.499910	0.411930
N132	N	0.774033	0.749910	0.661930
C133	C	0.053735	0.065929	-0.088502
C134	C	0.303735	0.315929	0.161498
C135	C	0.553735	0.565929	0.411498
C136	C	0.803735	0.815929	0.661498
O137	O	0.023016	0.122076	-0.088050
O138	O	0.273016	0.372076	0.161950
O139	O	0.523016	0.622076	0.411950
O140	O	0.773016	0.872076	0.661950
C141	C	0.113136	0.065931	-0.089372
C142	C	0.363136	0.315931	0.160628
C143	C	0.613136	0.565931	0.410628
C144	C	0.863136	0.815931	0.660628
C145	C	0.142835	-0.000084	-0.089815
C146	C	0.392835	0.249916	0.160185
C147	C	0.642835	0.499916	0.410185
C148	C	0.892835	0.749916	0.660185
C149	C	0.142837	-0.132108	-0.089823
C150	C	0.392837	0.117892	0.160177
C151	C	0.642837	0.367892	0.410177
C152	C	0.892837	0.617892	0.660177
C153	C	0.202234	-0.132104	-0.090699
C154	C	0.452234	0.117896	0.159301
C155	C	0.702234	0.367896	0.409301
C156	C	0.952234	0.617896	0.659301
C157	C	0.231931	-0.066091	-0.091133
C158	C	0.481931	0.183909	0.158867
C159	C	0.731931	0.433909	0.408867
C160	C	0.981931	0.683909	0.658867
C161	C	0.202232	-0.000081	-0.090691
C162	C	0.452232	0.249919	0.159309
C163	C	0.702232	0.499919	0.409309
C164	C	0.952232	0.749919	0.659309
C165	C	0.142837	0.131948	-0.089799
C166	C	0.392837	0.381948	0.160201
C167	C	0.642837	0.631948	0.410201
C168	C	0.892837	0.881948	0.660201
C169	C	0.202242	0.131945	-0.090668
C170	C	0.452242	0.381945	0.159332
C171	C	0.702242	0.631945	0.409332
C172	C	0.952242	0.881945	0.659332
C173	C	0.231941	0.065930	-0.091111
C174	C	0.481941	0.315930	0.158889
C175	C	0.731941	0.565930	0.408889
C176	C	0.981941	0.815930	0.658889
C177	C	0.291326	0.065935	-0.092001
C178	C	0.541326	0.315935	0.157999
C179	C	0.791326	0.565935	0.407999
C180	C	1.041326	0.815935	0.657999
N181	N	0.321030	-0.000076	-0.092437
N182	N	0.571030	0.249924	0.157563
N183	N	0.821030	0.499924	0.407563
N184	N	1.071030	0.749924	0.657563
C185	C	0.291332	-0.066089	-0.092003
C186	C	0.541332	0.183911	0.157997
C187	C	0.791332	0.433911	0.407997
C188	C	1.041332	0.683911	0.657997
C189	C	-0.071010	0.065919	-0.086673
C190	C	0.178990	0.315919	0.163327
C191	C	0.428990	0.565919	0.413327
C192	C	0.678990	0.815919	0.663327
C193	C	-0.130411	0.065918	-0.085808
C194	C	0.119589	0.315918	0.164192
C195	C	0.369589	0.565918	0.414192
C196	C	0.619589	0.815918	0.664192
C197	C	-0.130405	-0.066112	-0.085811
C198	C	0.119595	0.183888	0.164189
C199	C	0.369595	0.433888	0.414189
C200	C	0.619595	0.683888	0.664189
C201	C	-0.071004	-0.066110	-0.086681
C202	C	0.178996	0.183890	0.163319
C203	C	0.428996	0.433890	0.413319
C204	C	0.678996	0.683890	0.663319
C205	C	-0.041307	-0.000092	-0.087109
C206	C	0.208693	0.249908	0.162891
C207	C	0.458693	0.499908	0.412891
C208	C	0.708693	0.749908	0.662891
C209	C	0.416070	-0.066077	-0.093844
C210	C	0.666070	0.183923	0.156156
C211	C	0.916070	0.433923	0.406156
C212	C	1.166070	0.683923	0.656156
C213	C	0.475472	-0.066068	-0.094723
C214	C	0.725472	0.183932	0.155277
C215	C	0.975472	0.433932	0.405277
C216	C	1.225472	0.683932	0.655277
C217	C	0.475462	0.065961	-0.094717
C218	C	0.725462	0.315961	0.155283
C219	C	0.975462	0.565961	0.405283
C220	C	1.225462	0.815961	0.655283
C221	C	0.416064	0.065952	-0.093841
C222	C	0.666064	0.315952	0.156159
C223	C	0.916064	0.565952	0.406159
C224	C	1.166064	0.815952	0.656159
C225	C	0.386370	-0.000073	-0.093402
C226	C	0.636370	0.249927	0.156598
C227	C	0.886370	0.499927	0.406598
C228	C	1.136370	0.749927	0.656598
O229	O	0.322089	0.122046	-0.092473
O230	O	0.572089	0.372046	0.157527
O231	O	0.822089	0.622046	0.407527
O232	O	1.072089	0.872046	0.657527
O233	O	0.322060	-0.122227	-0.092446
O234	O	0.572060	0.127773	0.157554
O235	O	0.822060	0.377773	0.407554
O236	O	1.072060	0.627773	0.657554
C237	C	0.776667	-0.000092	-0.084451
C238	C	1.026667	0.249908	0.165549
C239	C	1.276667	0.499908	0.415549
C240	C	1.526667	0.749908	0.665549
C241	C	0.839887	-0.000096	-0.085370
C242	C	1.089887	0.249904	0.164630
C243	C	1.339887	0.499904	0.414630
C244	C	1.589887	0.749904	0.664630
C245	C	0.677012	-0.000096	0.036758
C246	C	0.927012	0.249904	0.286758
C247	C	1.177012	0.499904	0.536758
C248	C	1.427012	0.749904	0.786758
C249	C	0.676086	-0.000102	0.113858
C250	C	0.926086	0.249898	0.363858
C251	C	1.176086	0.499898	0.613858
C252	C	1.426086	0.749898	0.863858
N253	N	0.672546	0.188589	-0.090253
N254	N	0.922546	0.438589	0.159747
N255	N	1.172546	0.688589	0.409747
N256	N	1.422546	0.938589	0.659747
C257	C	0.668045	-0.000060	-0.217285
C258	C	0.918045	0.249940	0.032715
C259	C	1.168045	0.499940	0.282715
C260	C	1.418045	0.749940	0.532715
C261	C	0.668970	-0.000049	-0.294386
C262	C	0.918970	0.249951	-0.044386
C263	C	1.168970	0.499951	0.205614
C264	C	1.418970	0.749951	0.455614
C265	C	0.727552	-0.000113	0.158725
C266	C	0.977552	0.249887	0.408725
C267	C	1.227552	0.499887	0.658725
C268	C	1.477552	0.749887	0.908725
C269	C	0.726683	-0.000102	0.231169
C270	C	0.976683	0.249898	0.481169
C271	C	1.226683	0.499898	0.731169
C272	C	1.476683	0.749898	0.981169
C273	C	0.674344	-0.000094	0.258743
C274	C	0.924344	0.249906	0.508743
C275	C	1.174344	0.499906	0.758743
C276	C	1.424344	0.749906	1.008743
C277	C	0.622871	-0.000078	0.213867
C278	C	0.872871	0.249922	0.463867
C279	C	1.122871	0.499922	0.713867
C280	C	1.372871	0.749922	0.963867
C281	C	0.623742	-0.000083	0.141424
C282	C	0.873742	0.249917	0.391424
C283	C	1.123742	0.499917	0.641424
C284	C	1.373742	0.749917	0.891424
C285	C	0.633196	-0.042506	0.366893
C286	C	0.883196	0.207494	0.616893
C287	C	1.133196	0.457494	0.866893
C288	C	1.383196	0.707494	1.116893
C289	C	0.632327	-0.042506	0.439335
C290	C	0.882327	0.207494	0.689335
C291	C	1.132327	0.457494	0.939335
C292	C	1.382327	0.707494	1.189335
C293	C	0.671655	-0.000077	0.482180
C294	C	0.921655	0.249923	0.732180
C295	C	1.171655	0.499923	0.982180
C296	C	1.421655	0.749923	1.232180
C297	C	0.711862	0.042343	0.452576
C298	C	0.961862	0.292343	0.702576
C299	C	1.211862	0.542343	0.952576
C300	C	1.461862	0.792343	1.202576
C301	C	0.712733	0.042339	0.380134
C302	C	0.962733	0.292339	0.630134
C303	C	1.212733	0.542339	0.880134
C304	C	1.462733	0.792339	1.130134
C305	C	0.673393	-0.000088	0.337294
C306	C	0.923393	0.249912	0.587294
C307	C	1.173393	0.499912	0.837294
C308	C	1.423393	0.749912	1.087294
C309	C	0.722181	-0.000074	0.605600
C310	C	0.972181	0.249926	0.855600
C311	C	1.222181	0.499926	1.105600
C312	C	1.472181	0.749926	1.355600
C313	C	0.721310	-0.000058	0.678045
C314	C	0.971310	0.249942	0.928045
C315	C	1.221310	0.499942	1.178045
C316	C	1.471310	0.749942	1.428045
C317	C	0.617496	-0.000042	0.660741
C318	C	0.867496	0.249958	0.910741
C319	C	1.117496	0.499958	1.160741
C320	C	1.367496	0.749958	1.410741
C321	C	0.618370	-0.000051	0.588297
C322	C	0.868370	0.249949	0.838297
C323	C	1.118370	0.499949	1.088297
C324	C	1.368370	0.749949	1.338297
C325	C	0.670714	-0.000070	0.560731
C326	C	0.920714	0.249930	0.810731
C327	C	1.170714	0.499930	1.060731
C328	C	1.420714	0.749930	1.310731
H329	H	0.735021	-0.804312	-0.166274
H330	H	0.985021	-0.554312	0.083726
H331	H	1.235021	-0.304312	0.333726
H332	H	1.485021	-0.054312	0.583726
H333	H	0.734998	-0.334104	-0.166289
H334	H	0.984998	-0.084104	0.083711
H335	H	1.234998	0.165896	0.333711
H336	H	1.484998	0.415896	0.583711
F337	F	0.743627	-0.656493	-0.176749
F338	F	0.993627	-0.406493	0.073251
F339	F	1.243627	-0.156493	0.323251
F340	F	1.493627	0.093507	0.573251
F341	F	0.233844	0.202212	-0.091122
F342	F	0.483844	0.452212	0.158878
F343	F	0.733844	0.702212	0.408878
F344	F	0.983844	0.952212	0.658878
F345	F	0.589537	-0.087656	0.470835
F346	F	0.839537	0.162344	0.720835
F347	F	1.089537	0.412344	0.970835
F348	F	1.339537	0.662344	1.220835
H349	H	0.601168	-0.077061	0.332014
H350	H	0.851168	0.172939	0.582014
H351	H	1.101168	0.422939	0.832014
H352	H	1.351168	0.672939	1.082014
H353	H	0.610066	-0.804343	-0.014230
H354	H	0.860066	-0.554343	0.235770
H355	H	1.110066	-0.304343	0.485770
H356	H	1.360066	-0.054343	0.735770
F357	F	0.669632	-0.578769	0.039022
F358	F	0.919632	-0.328769	0.289022
F359	F	1.169632	-0.078769	0.539022
F360	F	1.419632	0.171231	0.789022
H361	H	0.743886	0.076894	0.487460
H362	H	0.993886	0.326894	0.737460
H363	H	1.243886	0.576894	0.987460
H364	H	1.493886	0.826894	1.237460
F365	F	-0.039410	0.136189	-0.087136
F366	F	0.210590	0.386189	0.162864
F367	F	0.460590	0.636189	0.412864
F368	F	0.710590	0.886189	0.662864
H369	H	0.675095	-0.569211	-0.203871
H370	H	0.925095	-0.319211	0.046129
H371	H	1.175095	-0.069211	0.296129
H372	H	1.425095	0.180789	0.546129
F373	F	0.601433	-0.186314	-0.003764
F374	F	0.851433	0.063686	0.246236
F375	F	1.101433	0.313686	0.496236
F376	F	1.351433	0.563686	0.746236
F377	F	0.675439	-0.421391	-0.219533
F378	F	0.925439	-0.171391	0.030467
F379	F	1.175439	0.078609	0.280467
F380	F	1.425439	0.328609	0.530467
F381	F	0.601457	-0.656524	-0.003754
F382	F	0.851457	-0.406524	0.246246
F383	F	1.101457	-0.156524	0.496246
F384	F	1.351457	0.093476	0.746246
F385	F	0.384476	-0.136348	-0.093376
F386	F	0.634476	0.113652	0.156624
F387	F	0.884476	0.363652	0.406624
F388	F	1.134476	0.613652	0.656624
H389	H	0.768594	-0.000108	0.267707
H390	H	1.018594	0.249892	0.517707
H391	H	1.268594	0.499892	0.767707
H392	H	1.518594	0.749892	1.017707
F393	F	0.755520	0.087487	0.348629
F394	F	1.005520	0.337487	0.598629
F395	F	1.255520	0.587487	0.848629
F396	F	1.505520	0.837487	1.098629
F397	F	0.601442	-0.343663	-0.003759
F398	F	0.851442	-0.093663	0.246241
F399	F	1.101442	0.156337	0.496241
F400	F	1.351442	0.406337	0.746241
H401	H	0.763221	-0.000063	0.714575
H402	H	1.013221	0.249937	0.964575
H403	H	1.263221	0.499937	1.214575
H404	H	1.513221	0.749937	1.464575
H405	H	0.764803	-0.000087	0.583154
H406	H	1.014803	0.249913	0.833154
H407	H	1.264803	0.499913	1.083154
H408	H	1.514803	0.749913	1.333154
F409	F	-0.162021	-0.136370	-0.085347
F410	F	0.087979	0.113630	0.164653
F411	F	0.337979	0.363630	0.414653
F412	F	0.587979	0.613630	0.664653
F413	F	0.233835	-0.202367	-0.091167
F414	F	0.483835	0.047633	0.158833
F415	F	0.733835	0.297633	0.408833
F416	F	0.983835	0.547633	0.658833
H417	H	0.734984	-0.195818	-0.166299
H418	H	0.984984	0.054182	0.083701
H419	H	1.234984	0.304182	0.333701
H420	H	1.484984	0.554182	0.583701
H421	H	0.574881	-0.000032	0.683191
H422	H	0.824881	0.249968	0.933191
H423	H	1.074881	0.499968	1.183191
H424	H	1.324881	0.749968	1.433191
H425	H	0.669980	-0.430953	0.023361
H426	H	0.919980	-0.180953	0.273361
H427	H	1.169980	0.069047	0.523361
H428	H	1.419980	0.319047	0.773361
F429	F	0.783262	-0.000118	0.129392
F430	F	1.033262	0.249882	0.379392
F431	F	1.283262	0.499882	0.629392
F432	F	1.533262	0.749882	0.879392
F433	F	0.507077	-0.136334	-0.095197
F434	F	0.757077	0.113666	0.154803
F435	F	1.007077	0.363666	0.404803
F436	F	1.257077	0.613666	0.654803
F437	F	-0.162014	0.136180	-0.085350
F438	F	0.087986	0.386180	0.164650
F439	F	0.337986	0.636180	0.414650
F440	F	0.587986	0.886180	0.664650
H441	H	0.118664	-0.185866	-0.089468
H442	H	0.368664	0.064134	0.160532
H443	H	0.618664	0.314134	0.410532
H444	H	0.868664	0.564134	0.660532
F445	F	-0.039401	-0.136371	-0.087151
F446	F	0.210599	0.113629	0.162849
F447	F	0.460599	0.363629	0.412849
F448	F	0.710599	0.613629	0.662849
F449	F	0.111242	0.202212	-0.089326
F450	F	0.361242	0.452212	0.160674
F451	F	0.611242	0.702212	0.410674
F452	F	0.861242	0.952212	0.660674
H453	H	0.580256	-0.000070	0.236322
H454	H	0.830256	0.249930	0.486322
H455	H	1.080256	0.499930	0.736322
H456	H	1.330256	0.749930	0.986322
H457	H	0.391881	0.119707	-0.093492
H458	H	0.641881	0.369707	0.156508
H459	H	0.891881	0.619707	0.406508
H460	H	1.141881	0.869707	0.656508
F461	F	0.507078	0.136213	-0.095177
F462	F	0.757078	0.386213	0.154823
F463	F	1.007078	0.636213	0.404823
F464	F	1.257078	0.886213	0.654823
F465	F	0.568962	-0.000070	0.093672
F466	F	0.818962	0.249930	0.343672
F467	F	1.068962	0.499930	0.593672
F468	F	1.318962	0.749930	0.843672
F469	F	0.563592	-0.000042	0.540545
F470	F	0.813592	0.249958	0.790545
F471	F	1.063592	0.499958	1.040545
F472	F	1.313592	0.749958	1.290545
