data_functionalizedCrystal
_audit_creation_method	'MofGen! by Chris Wilmer'
_symmetry_space_group_name_H-M	'P1'
_symmetry_Int_Tables_number	1
_symmetry_cell_setting	triclinic
loop_
_symmetry_equiv_pos_as_xyz
  x,y,z
_cell_length_a	16.109302
_cell_length_b	14.044190
_cell_length_c	14.586319
_cell_angle_alpha	89.991348
_cell_angle_beta	89.994552
_cell_angle_gamma	88.326779
loop_
_atom_site_label
_atom_site_type_symbol
_atom_site_fract_x
_atom_site_fract_y
_atom_site_fract_z
O1	O	1.112198	0.121838	-0.076292
O2	O	1.445531	0.455171	0.257041
O3	O	1.778865	0.788505	0.590374
O4	O	0.871264	0.136999	-0.076287
O5	O	1.204598	0.470333	0.257047
O6	O	1.537931	0.803666	0.590380
O7	O	0.988112	-0.008565	-0.076271
O8	O	1.321445	0.324768	0.257062
O9	O	1.654778	0.658102	0.590395
O10	O	0.995351	0.267402	-0.076308
O11	O	1.328684	0.600736	0.257026
O12	O	1.662017	0.934069	0.590359
O13	O	0.988103	-0.008567	0.076209
O14	O	1.321436	0.324766	0.409543
O15	O	1.654769	0.658100	0.742876
O16	O	0.871255	0.136997	0.076194
O17	O	1.204589	0.470331	0.409528
O18	O	1.537922	0.803664	0.742861
O19	O	1.112189	0.121836	0.076188
O20	O	1.445522	0.455169	0.409522
O21	O	1.778856	0.788503	0.742855
Cu22	Cu	0.991721	0.129416	0.090114
Cu23	Cu	1.325055	0.462750	0.423447
Cu24	Cu	1.658388	0.796083	0.756781
Cu25	Cu	0.991732	0.129419	-0.090212
Cu26	Cu	1.325065	0.462752	0.243121
Cu27	Cu	1.658399	0.796086	0.576455
O28	O	0.995342	0.267400	0.076173
O29	O	1.328675	0.600734	0.409507
O30	O	1.662008	0.934067	0.742840
C31	C	0.840239	0.136384	-0.000045
C32	C	1.173573	0.469718	0.333288
C33	C	1.506906	0.803051	0.666622
C34	C	0.747807	0.134543	-0.000042
C35	C	1.081140	0.467876	0.333291
C36	C	1.414474	0.801209	0.666625
C37	C	0.535144	0.130283	0.083067
C38	C	0.868478	0.463616	0.416400
C39	C	1.201811	0.796950	0.749733
C40	C	0.448295	0.128542	0.083064
C41	C	0.781628	0.461876	0.416397
C42	C	1.114961	0.795209	0.749730
C43	C	0.448315	0.128550	-0.083179
C44	C	0.781649	0.461883	0.250154
C45	C	1.114982	0.795216	0.583487
C46	C	0.535164	0.130283	-0.083175
C47	C	0.868497	0.463617	0.250158
C48	C	1.201830	0.796950	0.583491
C49	C	0.578576	0.131155	-0.000050
C50	C	0.911909	0.464488	0.333284
C51	C	1.245242	0.797822	0.666617
C52	C	0.404878	0.127681	-0.000056
C53	C	0.738211	0.461014	0.333277
C54	C	1.071544	0.794347	0.666610
C55	C	0.310712	0.125793	-0.000060
C56	C	0.644045	0.459127	0.333273
C57	C	0.977378	0.792460	0.666606
C58	C	0.672748	0.133040	-0.000045
C59	C	1.006081	0.466374	0.333288
C60	C	1.339415	0.799707	0.666621
C61	C	0.984940	-0.043879	-0.000028
C62	C	1.318274	0.289454	0.333305
C63	C	1.651607	0.622787	0.666639
C64	C	0.975494	-0.149103	-0.000020
C65	C	1.308828	0.184231	0.333313
C66	C	1.642161	0.517564	0.666647
C67	C	1.025219	-0.399404	-0.000057
C68	C	1.358552	-0.066071	0.333276
C69	C	1.691886	0.267262	0.666610
C70	C	0.958238	-0.341755	-0.000049
C71	C	1.291571	-0.008421	0.333284
C72	C	1.624905	0.324912	0.666618
C73	C	0.967842	-0.234553	-0.000033
C74	C	1.301175	0.098780	0.333300
C75	C	1.634508	0.432113	0.666634
C76	C	1.015617	-0.506616	-0.000073
C77	C	1.348950	-0.173282	0.333260
C78	C	1.682283	0.160051	0.666593
C79	C	1.143214	0.122451	-0.000055
C80	C	1.476547	0.455785	0.333278
C81	C	1.809881	0.789118	0.666612
C82	C	1.235646	0.124293	-0.000064
C83	C	1.568980	0.457626	0.333269
C84	C	1.902313	0.790960	0.666603
C85	C	0.998513	0.302715	-0.000072
C86	C	1.331846	0.636048	0.333261
C87	C	1.665180	0.969382	0.666595
C88	C	1.007959	0.407938	-0.000086
C89	C	1.341292	0.741271	0.333247
C90	C	1.674626	1.074605	0.666580
N91	N	0.991720	0.129414	0.216946
N92	N	1.325053	0.462747	0.550279
N93	N	1.658387	0.796081	0.883612
N94	N	0.991740	0.129414	-0.217044
N95	N	1.325073	0.462747	0.116289
N96	N	1.658406	0.796080	0.449623
C97	C	1.043480	0.064980	0.451959
C98	C	1.376813	0.398313	0.785292
C99	C	1.710147	0.731646	1.118626
C100	C	1.043482	0.064977	0.547940
C101	C	1.376816	0.398311	0.881274
C102	C	1.710149	0.731644	1.214607
C103	C	0.939973	0.193851	0.547936
C104	C	1.273307	0.527185	0.881270
C105	C	1.606640	0.860518	1.214603
C106	C	0.939967	0.193848	0.451957
C107	C	1.273301	0.527182	0.785290
C108	C	1.606634	0.860515	1.118623
C109	C	0.991726	0.129414	0.403971
C110	C	1.325059	0.462747	0.737304
C111	C	1.658392	0.796080	1.070637
C112	C	0.991734	0.129414	0.595931
C113	C	1.325067	0.462748	0.929265
C114	C	1.658400	0.796081	1.262598
C115	C	0.991736	0.129412	0.699998
C116	C	1.325069	0.462746	1.033332
C117	C	1.658402	0.796079	1.366665
C118	C	0.991723	0.129414	0.299897
C119	C	1.325056	0.462747	0.633230
C120	C	1.658389	0.796081	0.966563
H121	H	0.412937	0.127833	0.150745
H122	H	0.746270	0.461166	0.484079
H123	H	1.079603	0.794499	0.817412
H124	H	0.412959	0.127841	-0.150857
H125	H	0.746292	0.461174	0.182476
H126	H	1.079625	0.794508	0.515810
H127	H	0.897819	0.246318	0.412882
H128	H	1.231152	0.579652	0.746215
H129	H	1.564485	0.912985	1.079549
O130	O	0.582020	0.131220	-0.172824
O131	O	0.915353	0.464553	0.160509
O132	O	1.248686	0.797887	0.493842
H133	H	0.562746	0.195458	-0.212690
H134	H	0.896079	0.528792	0.120643
H135	H	1.229413	0.862125	0.453976
O136	O	0.581971	0.131225	0.172718
O137	O	0.915305	0.464558	0.506052
O138	O	1.248638	0.797891	0.839385
H139	H	0.537176	0.130321	0.230513
H140	H	0.870510	0.463655	0.563846
H141	H	1.203843	0.796988	0.897180
O142	O	0.884163	0.263361	0.599691
O143	O	1.217497	0.596695	0.933025
O144	O	1.550830	0.930028	1.266358
H145	H	0.840801	0.223458	0.643445
H146	H	1.174135	0.556792	0.976779
H147	H	1.507468	0.890125	1.310112
O148	O	0.872721	-0.383011	-0.000041
O149	O	1.206054	-0.049678	0.333292
O150	O	1.539388	0.283655	0.666626
H151	H	0.878497	-0.461959	-0.000041
H152	H	1.211830	-0.128626	0.333292
H153	H	1.545164	0.204708	0.666625
O154	O	1.110730	-0.358148	-0.000047
O155	O	1.444063	-0.024815	0.333287
O156	O	1.777397	0.308519	0.666620
H157	H	1.118284	-0.313656	0.062114
H158	H	1.451617	0.019677	0.395448
H159	H	1.784951	0.353010	0.728781
O160	O	1.099292	-0.004524	0.400198
O161	O	1.432625	0.328809	0.733531
O162	O	1.765958	0.662143	1.066864
H163	H	1.135273	-0.049336	0.449696
H164	H	1.468606	0.283997	0.783030
H165	H	1.801939	0.617330	1.116363
O166	O	1.099314	-0.004507	0.599703
O167	O	1.432647	0.328827	0.933036
O168	O	1.765981	0.662160	1.266370
H169	H	1.135308	-0.049302	0.550207
H170	H	1.468641	0.284032	0.883540
H171	H	1.801975	0.617365	1.216874
