data_functionalizedCrystal
_audit_creation_method	'MofGen! by Chris Wilmer'
_symmetry_space_group_name_H-M	'P1'
_symmetry_Int_Tables_number	1
_symmetry_cell_setting	triclinic
loop_
_symmetry_equiv_pos_as_xyz
  x,y,z
_cell_length_a	12.759401
_cell_length_b	12.759400
_cell_length_c	12.759393
_cell_angle_alpha	90.025341
_cell_angle_beta	90.019322
_cell_angle_gamma	90.000960
loop_
_atom_site_label
_atom_site_type_symbol
_atom_site_fract_x
_atom_site_fract_y
_atom_site_fract_z
Zn1	Zn	-1.606340	0.418263	-0.594050
Zn2	Zn	-1.606271	0.593982	-0.418389
Zn3	Zn	-1.430642	0.418311	-0.418387
Zn4	Zn	-1.430667	0.593894	-0.594028
O5	O	-1.518480	0.506112	-0.506213
O6	O	-1.753352	0.441589	-0.570758
O7	O	-1.582934	0.570735	-0.271368
O8	O	-1.453968	0.271283	-0.441697
O9	O	-1.753301	0.570689	-0.441701
O10	O	-1.583053	0.271248	-0.570756
O11	O	-1.453900	0.441671	-0.271366
O12	O	-1.283625	0.441586	-0.441676
O13	O	-1.454010	0.570539	-0.741052
O14	O	-1.283643	0.570586	-0.570719
O15	O	-1.583076	0.441504	-0.741068
O16	O	-1.582957	0.740991	-0.441680
O17	O	-1.453942	0.740926	-0.570721
C18	C	-1.245513	0.506082	-0.506195
C19	C	-1.128736	0.506095	-0.506212
C20	C	-1.518516	0.232079	-0.506229
C21	C	-1.518531	0.115302	-0.506235
C22	C	-1.073911	0.573370	-0.573293
C23	C	-0.964187	0.573379	-0.573303
C24	C	-0.964123	0.438834	-0.439142
C25	C	-1.073845	0.438821	-0.439139
C26	C	-1.128802	0.640645	-0.640367
C27	C	-1.073977	0.707927	-0.707452
C28	C	-0.964253	0.707936	-0.707462
C29	C	-0.909354	0.640663	-0.640387
C30	C	-1.451336	0.060457	-0.439045
C31	C	-1.451351	-0.049267	-0.439059
C32	C	-1.585764	-0.049291	-0.573458
C33	C	-1.585743	0.060431	-0.573448
C34	C	-1.384124	0.115328	-0.371832
C35	C	-1.316925	0.060483	-0.304635
C36	C	-1.316940	-0.049241	-0.304650
C37	C	-1.384154	-0.104120	-0.371861
C38	C	-0.792513	0.506133	-0.506229
C39	C	-0.909290	0.506117	-0.506226
C40	C	-1.518473	0.779080	-0.506221
C41	C	-1.518566	0.895856	-0.506260
C42	C	-1.518554	0.506006	-0.780247
C43	C	-1.518585	0.505961	-0.897024
C44	C	-1.585799	0.438766	-0.951896
C45	C	-1.585824	0.438728	-1.061620
C46	C	-1.451418	0.573089	-1.061590
C47	C	-1.451388	0.573121	-0.951868
C48	C	-1.652996	0.371606	-0.897051
C49	C	-1.720217	0.304406	-0.951924
C50	C	-1.720242	0.304368	-1.061648
C51	C	-1.653046	0.371530	-1.116500
C52	C	-1.518467	0.506142	-0.233246
C53	C	-1.518639	0.505891	-0.116470
H54	H	-1.118683	0.762691	-0.762069
H55	H	-0.919617	0.762712	-0.762094
C56	C	-1.243021	-0.109573	-0.230741
C57	C	-1.169093	-0.049213	-0.156815
C58	C	-1.095176	-0.109542	-0.082899
C59	C	-1.095187	-0.230232	-0.082909
C60	C	-1.169118	-0.290599	-0.156838
C61	C	-1.243035	-0.230270	-0.230754
H62	H	-1.169083	0.040135	-0.156804
H63	H	-1.040447	-0.064854	-0.028172
H64	H	-1.040469	-0.274892	-0.028192
H65	H	-1.169128	-0.379947	-0.156848
H66	H	-1.297764	-0.274959	-0.285481
H67	H	-1.640488	-0.093980	-0.628177
C68	C	-0.903737	0.364843	-0.365359
C69	C	-0.964043	0.290836	-0.291571
C70	C	-0.903659	0.216845	-0.217785
C71	C	-0.782969	0.216860	-0.217786
C72	C	-0.722657	0.290869	-0.291576
C73	C	-0.783041	0.364861	-0.365363
H74	H	-1.053391	0.290822	-0.291568
H75	H	-0.948307	0.162058	-0.163160
H76	H	-0.738269	0.162087	-0.163165
H77	H	-0.633309	0.290883	-0.291579
H78	H	-0.738392	0.419647	-0.419987
C79	C	-1.134167	0.364815	-0.365358
C80	C	-1.119074	0.245391	-0.374138
C81	C	-1.179400	0.171378	-0.300365
C82	C	-1.254819	0.216787	-0.217812
C83	C	-1.269915	0.336217	-0.209028
C84	C	-1.209589	0.410231	-0.282801
H85	H	-1.063242	0.211771	-0.435252
H86	H	-1.168224	0.082968	-0.306868
H87	H	-1.299475	0.161998	-0.163201
H88	H	-1.325748	0.369838	-0.147915
H89	H	-1.220765	0.498641	-0.276299
C90	C	-1.794126	0.230529	-0.891592
C91	C	-1.794106	0.230568	-0.770902
C92	C	-1.868017	0.156688	-0.710573
C93	C	-1.941949	0.082770	-0.770935
C94	C	-1.941971	0.082728	-0.891631
C95	C	-1.868060	0.156608	-0.951960
H96	H	-1.739376	0.285289	-0.726213
H97	H	-1.868000	0.156719	-0.621225
H98	H	-1.996662	0.028080	-0.726276
H99	H	-1.996702	0.028007	-0.936321
H100	H	-1.868077	0.156577	-1.041308
C101	C	-1.377465	0.647039	-0.891489
C102	C	-1.258031	0.638456	-0.906550
C103	C	-1.184108	0.712371	-0.846164
C104	C	-1.229618	0.794869	-0.770719
C105	C	-1.349058	0.803455	-0.755655
C106	C	-1.422982	0.729540	-0.816040
H107	H	-1.224336	0.577383	-0.962402
H108	H	-1.095690	0.706015	-0.857316
H109	H	-1.174896	0.849585	-0.726018
H110	H	-1.382753	0.864528	-0.699802
H111	H	-1.511399	0.735896	-0.804888
H112	H	-1.218145	0.640647	-0.640365
H113	H	-0.820009	0.640666	-0.640409
H114	H	-1.384107	0.204671	-0.371811
H115	H	-1.640446	0.105087	-0.628172
H116	H	-1.262196	0.105172	-0.249921
H117	H	-1.384158	-0.193465	-0.371870
H118	H	-1.652985	0.371631	-0.807709
H119	H	-1.774968	0.249643	-1.106322
H120	H	-1.653059	0.371481	-1.205845
H121	H	-1.396710	0.627769	-1.106259
