data_functionalizedCrystal
_audit_creation_method	'MofGen! by Chris Wilmer'
_symmetry_space_group_name_H-M	'P1'
_symmetry_Int_Tables_number	1
_symmetry_cell_setting	triclinic
loop_
_symmetry_equiv_pos_as_xyz
  x,y,z
_cell_length_a	19.319731
_cell_length_b	19.318970
_cell_length_c	19.315557
_cell_angle_alpha	60.007379
_cell_angle_beta	60.014690
_cell_angle_gamma	59.991495
loop_
_atom_site_label
_atom_site_type_symbol
_atom_site_fract_x
_atom_site_fract_y
_atom_site_fract_z
O1	O	0.095954	-1.011347	0.845684
O2	O	0.036156	-0.787405	0.681392
O3	O	0.177960	-0.929104	0.681276
O4	O	-0.045850	-0.869648	0.845799
O5	O	0.225008	-0.882072	0.728208
O6	O	0.083204	-0.740373	0.728324
O7	O	0.143002	-0.964315	0.892616
Cu8	Cu	0.117399	-0.848050	0.814755
Cu9	Cu	0.061759	-0.903670	0.759252
O10	O	0.001198	-0.822616	0.892732
N11	N	0.156535	-0.808935	0.853797
N12	N	0.022631	-0.942793	0.720211
C13	C	0.182113	-0.653200	0.879374
C14	C	0.182221	-0.783395	1.009518
C15	C	0.312319	-0.783375	0.879314
C16	C	0.182127	-0.783371	0.879357
C17	C	0.214696	-0.750836	0.911890
C18	C	-0.132988	-0.968144	0.694232
C19	C	-0.002674	-0.968326	0.564242
C20	C	-0.002907	-1.098444	0.694459
C21	C	-0.002887	-0.968321	0.694542
C22	C	-0.035363	-1.000810	0.661869
N23	N	0.389025	-0.808944	0.853717
O24	O	0.660019	-0.816766	0.651282
O25	O	0.660312	-0.981573	0.874999
O26	O	0.660193	-0.981192	0.733108
O27	O	0.660138	-0.817147	0.793174
O28	O	0.519202	-0.934278	0.780210
O29	O	0.519321	-0.934658	0.922102
O30	O	0.519028	-0.769852	0.698384
Cu31	Cu	0.506300	-0.847971	0.814544
Cu32	Cu	0.673039	-0.903453	0.758840
O33	O	0.519147	-0.770232	0.840276
N34	N	0.790314	-0.942480	0.719658
N35	N	0.156514	-0.576494	0.853827
O36	O	-0.045823	-0.305328	0.845846
O37	O	0.177892	-0.305317	0.681053
O38	O	0.035967	-0.305340	0.681465
O39	O	0.096102	-0.305306	0.845434
O40	O	0.083020	-0.446347	0.728459
O41	O	0.224945	-0.446325	0.728047
O42	O	0.001230	-0.446335	0.892839
Cu43	Cu	0.117383	-0.459205	0.814734
Cu44	Cu	0.061738	-0.292448	0.759159
O45	O	0.143154	-0.446313	0.892428
N46	N	0.022597	-0.175159	0.720067
N47	N	0.156703	-0.808977	1.086224
O48	O	0.148753	-1.011298	1.357359
O49	O	-0.016009	-0.787491	1.357400
O50	O	-0.015627	-0.929387	1.357339
O51	O	0.148372	-0.869401	1.357420
O52	O	0.031342	-0.882367	1.216340
O53	O	0.030961	-0.740471	1.216400
O54	O	0.195723	-0.964278	1.216360
Cu55	Cu	0.117631	-0.848081	1.203506
Cu56	Cu	0.062083	-0.903688	1.370254
O57	O	0.195341	-0.822381	1.216420
N58	N	0.023010	-0.942801	1.487536
C59	C	0.054075	-0.735670	0.682223
C60	C	0.229681	-0.911148	0.682079
C61	C	0.125082	-1.016051	0.891784
C62	C	-0.050524	-0.840572	0.891928
C63	C	0.589851	-0.980810	0.926735
C64	C	0.589706	-0.980340	0.751019
C65	C	0.589484	-0.770613	0.646650
C66	C	0.589634	-0.771085	0.822364
C67	C	0.229543	-0.375646	0.681799
C68	C	0.053845	-0.375847	0.682366
C69	C	-0.050480	-0.375832	0.892036
C70	C	0.125277	-0.375807	0.891527
C71	C	-0.015214	-0.735785	1.286905
C72	C	-0.014732	-0.911497	1.286802
C73	C	0.194928	-1.015984	1.286855
C74	C	0.194457	-0.840261	1.286926
H75	H	0.293962	-0.923825	0.630414
H76	H	-0.066941	-0.671507	1.286916
H77	H	0.246659	-1.080258	1.286832
O78	O	-0.076069	-0.926900	1.286663
C79	C	-0.045188	-1.010240	1.286636
H80	H	0.027023	-1.032576	1.259994
H81	H	-0.070961	-1.011428	1.245630
H82	H	-0.066654	-1.054108	1.354259
O83	O	0.589726	-0.709708	0.837756
C84	C	0.662801	-0.738874	0.857636
H85	H	0.687211	-0.811145	0.881949
H86	H	0.646409	-0.714385	0.908656
H87	H	0.713871	-0.714675	0.798380
H88	H	0.040966	-0.375849	0.630853
O89	O	0.255846	-0.824805	1.286905
C90	C	0.224960	-0.741470	1.286950
H91	H	0.170530	-0.701345	1.260255
H92	H	0.278047	-0.712956	1.246026
H93	H	0.201328	-0.742723	1.354602
H94	H	-0.114728	-0.375837	0.943771
H95	H	0.041301	-0.671339	0.630625
H96	H	0.137858	-1.080380	0.943384
O97	O	0.589767	-1.041929	0.735818
C98	C	0.589851	-1.115102	0.808604
H99	H	0.616580	-1.114370	0.849069
H100	H	0.630805	-1.173950	0.788695
H101	H	0.522237	-1.116158	0.846905
H102	H	-0.114808	-0.827900	0.943589
O103	O	0.590098	-1.042560	1.003349
C104	C	0.663135	-1.062196	1.018531
H105	H	0.714115	-1.043394	0.955587
H106	H	0.687718	-1.133192	1.052767
H107	H	0.646633	-1.025883	1.059514
O108	O	0.589409	-0.708985	0.569945
C109	C	0.589358	-0.739499	0.517192
H110	H	0.616123	-0.811717	0.540114
H111	H	0.630213	-0.713466	0.449266
H112	H	0.521699	-0.717990	0.519539
H113	H	0.293660	-0.375252	0.629934
H114	H	0.138154	-0.375795	0.943037
