data_functionalizedCrystal
_audit_creation_method	'MofGen! by Chris Wilmer'
_symmetry_space_group_name_H-M	'P1'
_symmetry_Int_Tables_number	1
_symmetry_cell_setting	triclinic
loop_
_symmetry_equiv_pos_as_xyz
  x,y,z
_cell_length_a	25.639239
_cell_length_b	12.645331
_cell_length_c	12.645323
_cell_angle_alpha	89.977324
_cell_angle_beta	90.031874
_cell_angle_gamma	89.962335
loop_
_atom_site_label
_atom_site_type_symbol
_atom_site_fract_x
_atom_site_fract_y
_atom_site_fract_z
Zn1	Zn	-0.208161	-1.620577	0.599395
Zn2	Zn	0.291839	-1.120577	1.099395
Zn3	Zn	-0.295600	-1.620393	0.422113
Zn4	Zn	0.204400	-1.120393	0.922113
Zn5	Zn	-0.208179	-1.443291	0.422139
Zn6	Zn	0.291821	-0.943291	0.922139
Zn7	Zn	-0.295566	-1.443208	0.599328
Zn8	Zn	0.204434	-0.943208	1.099328
O9	O	-0.251876	-1.531867	0.510744
O10	O	0.248124	-1.031867	1.010744
O11	O	-0.219767	-1.768900	0.575895
O12	O	0.280233	-1.268900	1.075895
O13	O	-0.284025	-1.596858	0.273769
O14	O	0.215975	-1.096858	0.773769
O15	O	-0.135011	-1.466920	0.445691
O16	O	0.364989	-0.966920	0.945691
O17	O	-0.284008	-1.768765	0.445647
O18	O	0.215992	-1.268765	0.945647
O19	O	-0.134998	-1.597171	0.575920
O20	O	0.365002	-1.097171	1.075920
O21	O	-0.219797	-1.466742	0.273788
O22	O	0.280203	-0.966742	0.773788
O23	O	-0.219764	-1.294933	0.445627
O24	O	0.280236	-0.794933	0.945627
O25	O	-0.283949	-1.466778	0.747685
O26	O	0.216051	-0.966778	1.247685
O27	O	-0.283967	-1.294872	0.575807
O28	O	0.216033	-0.794872	1.075807
O29	O	-0.219734	-1.597090	0.747733
O30	O	0.280266	-1.097090	1.247733
O31	O	-0.368760	-1.596778	0.445582
O32	O	0.131240	-1.096778	0.945582
O33	O	-0.368735	-1.466600	0.575782
O34	O	0.131265	-0.966600	1.075782
C35	C	-0.251864	-1.256438	0.510713
C36	C	0.248136	-0.756438	1.010713
C37	C	-0.251871	-1.138607	0.510725
C38	C	0.248129	-0.638607	1.010725
C39	C	-0.387719	-1.531689	0.510695
C40	C	0.112281	-1.031689	1.010695
C41	C	-0.445833	-1.531710	0.510710
C42	C	0.054167	-1.031710	1.010710
C43	C	-0.251836	-1.531945	0.787249
C44	C	0.248164	-1.031945	1.287249
C45	C	-0.251819	-1.531979	0.905079
C46	C	0.248181	-1.031979	1.405079
C47	C	-0.806196	-1.599827	0.443064
C48	C	-0.306196	-1.099827	0.943064
C49	C	-0.860801	-1.599869	0.443079
C50	C	-0.360801	-1.099869	0.943079
O51	O	-0.889038	-1.657600	0.385511
O52	O	-0.389038	-1.157600	0.885511
N53	N	-0.888115	-1.532054	0.510814
N54	N	-0.388115	-1.032054	1.010814
C55	C	-0.860823	-1.464201	0.578547
C56	C	-0.360823	-0.964201	1.078547
O57	O	-0.889070	-1.406523	0.636163
O58	O	-0.389070	-0.906523	1.136163
C59	C	-0.806219	-1.464166	0.578538
C60	C	-0.306219	-0.964166	1.078538
C61	C	-0.778908	-1.531978	0.510790
C62	C	-0.278908	-1.031978	1.010790
C63	C	-0.778884	-1.667635	0.375323
C64	C	-0.278884	-1.167635	0.875323
C65	C	-0.724284	-1.667592	0.375308
C66	C	-0.224284	-1.167592	0.875308
C67	C	-0.696995	-1.599742	0.443034
C68	C	-0.196995	-1.099742	0.943034
C69	C	-0.724307	-1.531935	0.510775
C70	C	-0.224307	-1.031935	1.010775
C71	C	-0.778928	-1.396319	0.646275
C72	C	-0.278928	-0.896319	1.146275
C73	C	-0.724321	-1.396290	0.646260
C74	C	-0.224321	-0.896290	1.146260
C75	C	-0.697009	-1.464102	0.578513
C76	C	-0.197009	-0.964102	1.078513
C77	C	-0.642418	-1.464042	0.578485
C78	C	-0.142418	-0.964042	1.078485
N79	N	-0.615103	-1.531857	0.510750
N80	N	-0.115103	-1.031857	1.010750
C81	C	-0.642392	-1.599707	0.443024
C82	C	-0.142392	-1.099707	0.943024
C83	C	-0.975493	-1.464281	0.578564
C84	C	-0.475493	-0.964281	1.078564
C85	C	-1.030096	-1.464309	0.578569
C86	C	-0.530096	-0.964309	1.078569
C87	C	-1.030070	-1.599979	0.443101
C88	C	-0.530070	-1.099979	0.943101
C89	C	-0.975466	-1.599944	0.443092
C90	C	-0.475466	-1.099944	0.943092
C91	C	-0.948179	-1.532096	0.510828
C92	C	-0.448179	-1.032096	1.010828
C93	C	-0.527727	-1.599611	0.442997
C94	C	-0.027727	-1.099611	0.942997
C95	C	-0.473122	-1.599560	0.442984
C96	C	0.026878	-1.099560	0.942984
C97	C	-0.473152	-1.463894	0.578455
C98	C	0.026848	-0.963894	1.078455
C99	C	-0.527753	-1.463942	0.578464
C100	C	-0.027753	-0.963942	1.078464
C101	C	-0.555039	-1.531809	0.510731
C102	C	-0.055039	-1.031809	1.010731
O103	O	-0.614146	-1.406343	0.636027
O104	O	-0.114146	-0.906343	1.136027
O105	O	-0.614138	-1.657385	0.385428
O106	O	-0.114138	-1.157385	0.885428
C107	C	-0.115503	-1.532075	0.510816
C108	C	0.384497	-1.032075	1.010816
C109	C	-0.057389	-1.532164	0.510846
C110	C	0.442611	-1.032164	1.010846
C111	C	-0.251889	-1.808372	0.510775
C112	C	0.248111	-1.308372	1.010775
C113	C	-0.251895	-1.926203	0.510788
C114	C	0.248105	-1.426203	1.010788
C115	C	-0.211295	-0.971047	0.429281
C116	C	0.288705	-0.471047	0.929281
C117	C	-0.211400	-1.093606	0.428922
C118	C	0.288600	-0.593606	0.928922
C119	C	-0.306949	-1.094046	0.480197
C120	C	0.193051	-0.594046	0.980197
C121	C	-0.306727	-0.971448	0.479641
C122	C	0.193273	-0.471448	0.979641
C123	C	-0.237893	-0.971468	0.623013
C124	C	0.262107	-0.471468	1.123013
C125	C	-0.236663	-1.094075	0.622389
C126	C	0.263337	-0.594075	1.122389
C127	C	-0.251879	-1.531850	0.235314
C128	C	0.248121	-1.031850	0.735314
C129	C	-0.251749	-1.532023	0.117485
C130	C	0.248251	-1.032023	0.617485
C131	C	-0.292026	-1.449747	1.072613
C132	C	0.207974	-0.949747	1.572613
C133	C	-0.292225	-1.449962	0.950053
C134	C	0.207775	-0.949962	1.450053
C135	C	-0.266773	-1.643667	0.949595
C136	C	0.233227	-1.143667	1.449595
C137	C	-0.267025	-1.643216	1.072194
C138	C	0.232975	-1.143216	1.572194
C139	C	-0.196432	-1.503578	1.072291
C140	C	0.303568	-1.003578	1.572291
C141	C	-0.196764	-1.501086	0.949684
C142	C	0.303236	-1.001086	1.449684
H143	H	-0.450886	-1.654780	0.387812
H144	H	0.049114	-1.154780	0.887812
H145	H	-0.338001	-0.941780	0.536418
H146	H	0.161999	-0.441780	1.036418
N147	N	-0.319777	-1.676167	0.908949
N148	N	0.180223	-1.176167	1.408949
H149	H	-0.316493	-1.743990	0.867319
H150	H	0.183507	-1.243990	1.367319
H151	H	-0.334150	-1.618651	0.861752
H152	H	0.165850	-1.118651	1.361752
N153	N	-0.178372	-1.397580	1.113224
N154	N	0.321628	-0.897580	1.613224
H155	H	-0.205870	-1.366923	1.161486
H156	H	0.294130	-0.866923	1.661486
H157	H	-0.172405	-1.348076	1.051721
H158	H	0.327595	-0.848076	1.551721
N159	N	-1.059506	-1.673175	0.370060
N160	N	-0.559506	-1.173175	0.870060
H161	H	-1.050040	-1.656750	0.294296
H162	H	-0.550040	-1.156750	0.794296
H163	H	-1.098231	-1.662874	0.380443
H164	H	-0.598231	-1.162874	0.880443
H165	H	-0.220447	-0.940192	0.346607
H166	H	0.279553	-0.440192	0.846607
H167	H	-0.166423	-1.563505	1.101312
H168	H	0.333577	-1.063505	1.601312
N169	N	-0.223654	-1.132392	0.318766
N170	N	0.276346	-0.632392	0.818766
H171	H	-0.229013	-1.069848	0.270253
H172	H	0.270987	-0.569848	0.770253
H173	H	-0.256443	-1.176575	0.320505
H174	H	0.243557	-0.676575	0.820505
H175	H	-0.332779	-1.468338	1.103422
H176	H	0.167221	-0.968338	1.603422
N177	N	-0.322951	-1.134611	0.372682
N178	N	0.177049	-0.634611	0.872682
H179	H	-0.356404	-1.176227	0.379231
H180	H	0.143596	-0.676227	0.879231
H181	H	-0.294577	-1.181803	0.343651
H182	H	0.205423	-0.681803	0.843651
H183	H	-0.198432	-0.940601	0.650774
H184	H	0.301568	-0.440601	1.150774
N185	N	-1.059546	-1.391151	0.651626
N186	N	-0.559546	-0.891151	1.151626
H187	H	-1.050007	-1.407567	0.727382
H188	H	-0.550007	-0.907567	1.227382
H189	H	-1.098270	-1.401493	0.641279
H190	H	-0.598270	-0.901493	1.141279
H191	H	-0.238364	-1.706611	0.920467
H192	H	0.261636	-1.206611	1.420467
H193	H	-0.170558	-1.123737	0.448058
H194	H	0.329442	-0.623737	0.948058
H195	H	-0.196132	-1.123209	0.645409
H196	H	0.303868	-0.623209	1.145409
N197	N	-0.694831	-1.740751	0.302255
N198	N	-0.194831	-1.240751	0.802255
H199	H	-0.672212	-1.697698	0.253071
H200	H	-0.172212	-1.197698	0.753071
H201	H	-0.720445	-1.783722	0.259437
H202	H	-0.220445	-1.283722	0.759437
H203	H	-0.185486	-1.418894	0.920588
H204	H	0.314514	-0.918894	1.420588
H205	H	-0.282867	-1.367140	0.919953
H206	H	0.217133	-0.867140	1.419953
H207	H	-0.165168	-1.556637	0.919071
H208	H	0.334832	-1.056637	1.419071
N209	N	-0.946063	-1.391088	0.651618
N210	N	-0.446063	-0.891088	1.151618
H211	H	-0.971656	-1.348136	0.694523
H212	H	-0.471656	-0.848136	1.194523
H213	H	-0.923447	-1.342035	0.608416
H214	H	-0.423447	-0.842035	1.108416
H215	H	-0.801156	-1.341094	0.701438
H216	H	-0.301156	-0.841094	1.201438
H217	H	-0.801097	-1.722892	0.320173
H218	H	-0.301097	-1.222892	0.820173
N219	N	-0.346545	-1.474874	0.911228
N220	N	0.153455	-0.974874	1.411228
H221	H	-0.345691	-1.541377	0.867052
H222	H	0.154309	-1.041377	1.367052
H223	H	-0.359868	-1.414119	0.866914
H224	H	0.140132	-0.914119	1.366914
H225	H	-0.338007	-1.123193	0.537699
H226	H	0.161993	-0.623193	1.037699
H227	H	-0.953232	-1.655163	0.387927
H228	H	-0.453232	-1.155163	0.887927
N229	N	-0.557152	-1.672809	0.369945
N230	N	-0.057152	-1.172809	0.869945
H231	H	-0.531558	-1.715751	0.327033
H232	H	-0.031558	-1.215751	0.827033
H233	H	-0.579845	-1.629703	0.320848
H234	H	-0.079845	-1.129703	0.820848
N235	N	-0.279745	-1.339704	1.111625
N236	N	0.220255	-0.839704	1.611625
H237	H	-0.247955	-1.342112	1.158770
H238	H	0.252045	-0.842112	1.658770
H239	H	-0.310430	-1.311416	1.152935
H240	H	0.189570	-0.811416	1.652935
H241	H	-0.450925	-1.408649	0.633594
H242	H	0.049075	-0.908649	1.133594
H243	H	-0.702106	-1.341041	0.701423
H244	H	-0.202106	-0.841041	1.201423
N245	N	-0.272974	-1.134646	0.707144
N246	N	0.227026	-0.634646	1.207144
H247	H	-0.299919	-1.182681	0.674209
H248	H	0.200081	-0.682681	1.174209
H249	H	-0.290991	-1.072963	0.742350
H250	H	0.209009	-0.572963	1.242350
N251	N	-0.557214	-1.390793	0.651520
N252	N	-0.057214	-0.890793	1.151520
H253	H	-0.531639	-1.347802	0.694418
H254	H	-0.031639	-0.847802	1.194418
H255	H	-0.579828	-1.433939	0.700629
H256	H	-0.079828	-0.933939	1.200629
H257	H	-0.267464	-0.942468	0.683743
H258	H	0.232536	-0.442468	1.183743
N259	N	-0.229863	-1.727181	1.111522
N260	N	0.270137	-1.227181	1.611522
H261	H	-0.249576	-1.780274	1.155794
H262	H	0.250424	-1.280274	1.655794
H263	H	-0.201737	-1.693118	1.155855
H264	H	0.298263	-1.193118	1.655855
H265	H	-0.307463	-1.667331	1.100794
H266	H	0.192537	-1.167331	1.600794
H267	H	-0.170330	-0.941613	0.448212
H268	H	0.329670	-0.441613	0.948212
H269	H	-0.318601	-0.942793	0.397599
H270	H	0.181399	-0.442793	0.897599
