data_functionalizedCrystal
_audit_creation_method	'MofGen! by Chris Wilmer'
_symmetry_space_group_name_H-M	'P1'
_symmetry_Int_Tables_number	1
_symmetry_cell_setting	triclinic
loop_
_symmetry_equiv_pos_as_xyz
  x,y,z
_cell_length_a	10.723023
_cell_length_b	14.519731
_cell_length_c	9.198806
_cell_angle_alpha	89.995832
_cell_angle_beta	89.996513
_cell_angle_gamma	84.078200
loop_
_atom_site_label
_atom_site_type_symbol
_atom_site_fract_x
_atom_site_fract_y
_atom_site_fract_z
O1	O	1.655992	0.129343	-0.120881
O2	O	1.292725	0.141724	-0.120888
O3	O	1.483976	0.001346	-0.120871
O4	O	1.464741	0.269722	-0.120898
O5	O	1.483961	0.001345	0.120914
O6	O	1.292710	0.141724	0.120897
O7	O	1.655977	0.129342	0.120904
Cu8	Cu	1.474342	0.135533	0.142977
Cu9	Cu	1.474360	0.135534	-0.142961
O10	O	1.464726	0.269721	0.120887
C11	C	1.246226	0.140823	0.000004
C12	C	1.107697	0.138128	0.000002
C13	C	1.045928	0.136926	0.125253
C14	C	0.902751	0.134140	0.125254
C15	C	1.483067	-0.033019	0.000022
C16	C	1.480367	-0.135413	0.000023
C17	C	1.478172	-0.218568	0.000019
C18	C	1.475430	-0.322891	0.000008
C19	C	1.473254	-0.406041	-0.000001
C20	C	1.470512	-0.510370	-0.000010
C21	C	1.702476	0.130243	0.000009
C22	C	1.841005	0.132939	0.000001
C23	C	1.465635	0.304085	-0.000009
C24	C	1.468336	0.406479	-0.000019
N25	N	1.474339	0.135532	0.344091
N26	N	1.474373	0.135527	-0.344075
C27	C	1.554642	0.076331	0.416295
C28	C	1.554661	0.076328	0.583708
H29	H	0.849630	0.133112	0.232485
O30	O	1.044427	0.136735	-0.127970
C31	C	1.018368	0.056235	-0.353250
C32	C	1.090093	0.057686	-0.208355
H33	H	1.055280	-0.007660	-0.418296
H34	H	0.914179	0.054148	-0.330543
H35	H	1.032605	0.121190	-0.418224
H36	H	1.075960	-0.007256	-0.143308
H37	H	1.194257	0.059821	-0.231164
H38	H	1.623375	0.025645	0.354175
H39	H	1.623417	0.025647	0.645800
H40	H	1.405623	0.186218	0.593842
H41	H	1.405597	0.186211	0.406214
H42	H	1.099045	0.137954	0.232484
O43	O	0.904474	0.134299	-0.127845
C44	C	1.037589	0.216948	-0.280658
C45	C	0.965781	0.215514	-0.135807
H46	H	1.087154	0.282613	-0.287155
H47	H	1.109882	0.153753	-0.287171
H48	H	0.968809	0.215564	-0.374938
H49	H	1.034466	0.216929	-0.041445
H50	H	0.893471	0.278703	-0.129420
