data_functionalizedCrystal
_audit_creation_method	'MofGen! by Chris Wilmer'
_symmetry_space_group_name_H-M	'P1'
_symmetry_Int_Tables_number	1
_symmetry_cell_setting	triclinic
loop_
_symmetry_equiv_pos_as_xyz
  x,y,z
_cell_length_a	14.044220
_cell_length_b	15.944551
_cell_length_c	12.503572
_cell_angle_alpha	93.522593
_cell_angle_beta	86.164750
_cell_angle_gamma	88.343808
loop_
_atom_site_label
_atom_site_type_symbol
_atom_site_fract_x
_atom_site_fract_y
_atom_site_fract_z
O1	O	1.263178	0.198062	-0.089210
O2	O	0.987210	0.190753	-0.089237
O3	O	1.132730	0.072697	-0.089213
O4	O	1.117659	0.316117	-0.089234
O5	O	1.121786	0.081592	0.089427
O6	O	0.976267	0.199647	0.089403
O7	O	1.252235	0.206956	0.089430
Cu8	Cu	1.113251	0.204114	0.105728
Cu9	Cu	1.126194	0.193595	-0.105535
O10	O	1.106715	0.325012	0.089406
C11	C	0.946424	0.192001	0.000079
C12	C	0.841198	0.182459	0.000069
C13	C	0.648534	0.165017	0.000092
C14	C	0.590906	0.232688	0.000091
C15	C	0.483701	0.222983	0.000104
C16	C	0.755749	0.174721	0.000079
C17	C	1.126632	0.045804	0.000107
C18	C	1.124756	-0.047583	0.000107
C19	C	1.030073	-0.269530	0.000083
C20	C	1.068645	-0.322870	0.088168
C21	C	1.121363	-0.218563	0.000099
C22	C	1.079457	-0.331621	-0.087957
C23	C	1.118079	-0.383722	0.000086
C24	C	1.159956	-0.270669	0.088256
C25	C	1.170759	-0.279418	-0.087948
C26	C	1.209396	-0.332734	0.000158
C27	C	1.123252	-0.123419	0.000107
C28	C	1.116197	-0.478865	0.000085
C29	C	1.293021	0.205708	0.000111
C30	C	1.398247	0.215249	0.000114
C31	C	1.112813	0.351905	0.000083
C32	C	1.114689	0.445291	0.000076
N33	N	1.104155	0.211512	0.254318
N34	N	1.135297	0.186191	-0.254126
C35	C	1.090774	0.222403	0.473431
C36	C	1.148675	0.175303	0.526768
C37	C	1.141230	0.181362	0.648690
C38	C	1.098218	0.216344	0.351498
H39	H	0.622081	0.297911	0.000080
C40	C	0.606426	0.076907	0.000099
C41	C	0.673081	-0.001495	0.000095
C42	C	0.630959	-0.089604	0.000099
C43	C	0.522183	-0.099310	0.000107
C44	C	0.455522	-0.020904	0.000110
C45	C	0.497644	0.067204	0.000107
H46	H	0.753609	0.005687	0.000090
H47	H	0.680307	-0.147645	0.000096
H48	H	0.491002	-0.164533	0.000109
H49	H	0.374994	-0.028087	0.000116
H50	H	0.448296	0.125245	0.000110
H51	H	0.954293	-0.241893	0.000164
H52	H	1.025471	-0.342162	0.162629
H53	H	1.193969	-0.244078	0.162806
C54	C	1.033443	-0.367675	-0.188559
C55	C	0.929671	-0.342284	-0.207893
C56	C	0.883649	-0.378334	-0.308488
C57	C	0.941399	-0.439775	-0.389749
C58	C	1.045177	-0.465168	-0.370418
C59	C	1.091199	-0.429118	-0.269823
H60	H	0.886915	-0.296800	-0.147736
H61	H	0.806825	-0.359536	-0.322798
H62	H	0.907331	-0.466461	-0.464216
H63	H	1.087932	-0.510653	-0.430574
H64	H	1.168023	-0.447917	-0.255512
H65	H	1.203838	0.130429	0.480864
C66	C	1.311847	-0.369860	0.000227
C67	C	1.374049	-0.345713	0.093477
C68	C	1.476498	-0.382839	0.093550
C69	C	1.516744	-0.444111	0.000373
C70	C	1.454541	-0.468261	-0.092884
C71	C	1.352092	-0.431136	-0.092957
H72	H	1.344258	-0.300353	0.162459
H73	H	1.522545	-0.364961	0.162586
H74	H	1.592583	-0.471594	0.000427
H75	H	1.484333	-0.513622	-0.161866
H76	H	1.306046	-0.449013	-0.161993
C77	C	1.229041	-0.253320	-0.188542
C78	C	1.197617	-0.279372	-0.301143
C79	C	1.255889	-0.253270	-0.401747
C80	C	1.345586	-0.201117	-0.389750
C81	C	1.377015	-0.175063	-0.277144
C82	C	1.318742	-0.201164	-0.176540
H83	H	1.131213	-0.317981	-0.310028
H84	H	1.232623	-0.272558	-0.485105
H85	H	1.388723	-0.181796	-0.464223
H86	H	1.443418	-0.136453	-0.268259
H87	H	1.342008	-0.181876	-0.093182
H88	H	1.035617	0.267275	0.519330
