data_functionalizedCrystal
_audit_creation_method	'MofGen! by Chris Wilmer'
_symmetry_space_group_name_H-M	'P1'
_symmetry_Int_Tables_number	1
_symmetry_cell_setting	triclinic
loop_
_symmetry_equiv_pos_as_xyz
  x,y,z
_cell_length_a	17.038272
_cell_length_b	17.038272
_cell_length_c	16.098538
_cell_angle_alpha	87.079695
_cell_angle_beta	87.069734
_cell_angle_gamma	88.888444
loop_
_atom_site_label
_atom_site_type_symbol
_atom_site_fract_x
_atom_site_fract_y
_atom_site_fract_z
O1	O	1.052033	-0.167266	-0.069152
O2	O	1.552033	0.332734	0.430848
O3	O	0.824222	-0.164557	-0.069177
O4	O	1.324222	0.335443	0.430823
O5	O	0.936773	-0.052006	-0.069158
O6	O	1.436773	0.447994	0.430842
O7	O	0.939482	-0.279817	-0.069171
O8	O	1.439482	0.220183	0.430829
O9	O	0.930197	-0.058553	0.069354
O10	O	1.430197	0.441447	0.569354
O11	O	0.817646	-0.171104	0.069335
O12	O	1.317646	0.328896	0.569335
O13	O	1.045456	-0.173813	0.069359
O14	O	1.545456	0.326187	0.569359
Zn15	Zn	0.930507	-0.173498	0.091339
Zn16	Zn	1.430507	0.326502	0.591339
Zn17	Zn	0.939172	-0.164872	-0.091156
Zn18	Zn	1.439172	0.335128	0.408844
O19	O	0.932905	-0.286364	0.069341
O20	O	1.432905	0.213636	0.569341
C21	C	0.791641	-0.165367	0.000076
C22	C	1.291641	0.334633	0.500076
C23	C	0.704358	-0.158019	0.000067
C24	C	1.204358	0.341981	0.500067
C25	C	0.931022	-0.025987	0.000097
C26	C	1.431022	0.474013	0.500097
C27	C	0.923674	0.061297	0.000096
C28	C	1.423674	0.561297	0.500096
N29	N	0.924599	-0.179385	0.215887
N30	N	1.424599	0.320615	0.715887
C31	C	0.658749	-0.225482	0.000064
C32	C	1.158749	0.274518	0.500064
C33	C	0.576737	-0.218574	0.000075
C34	C	1.076737	0.281426	0.500075
C35	C	0.540335	-0.144201	0.000085
C36	C	1.040335	0.355799	0.500085
C37	C	0.585950	-0.076733	0.000090
C38	C	1.085950	0.423267	0.500090
C39	C	0.667961	-0.083642	0.000084
C40	C	1.167961	0.416358	0.500084
C41	C	0.292946	-0.119792	0.000108
C42	C	0.792946	0.380208	0.500108
C43	C	0.210929	-0.112887	0.000112
C44	C	0.710929	0.387113	0.500112
C45	C	0.201722	-0.254729	0.000098
C46	C	0.701722	0.245271	0.500098
C47	C	0.283734	-0.261632	0.000088
C48	C	0.783734	0.238368	0.500088
C49	C	0.329342	-0.194164	0.000098
C50	C	0.829342	0.305836	0.500098
C51	C	0.456505	-0.137138	0.000094
C52	C	0.956505	0.362862	0.500094
C53	C	0.413170	-0.201228	0.000094
C54	C	0.913170	0.298772	0.500094
C55	C	1.078037	-0.173002	0.000105
C56	C	1.578037	0.326998	0.500105
C57	C	1.165320	-0.180351	0.000108
C58	C	1.665320	0.319649	0.500108
C59	C	0.938656	-0.312383	0.000083
C60	C	1.438656	0.187617	0.500083
C61	C	0.946005	-0.399666	0.000079
C62	C	1.446005	0.100334	0.500079
C63	C	0.991137	0.106906	0.000104
C64	C	1.491137	0.606906	0.500104
C65	C	0.984229	0.188918	0.000096
C66	C	1.484229	0.688918	0.500096
C67	C	0.909856	0.225320	0.000085
C68	C	1.409856	0.725320	0.500085
C69	C	0.842388	0.179705	0.000074
C70	C	1.342388	0.679705	0.500074
C71	C	0.849297	0.097694	0.000077
C72	C	1.349297	0.597694	0.500077
C73	C	0.885446	0.472708	0.000071
C74	C	1.385446	0.972708	0.500071
C75	C	0.878541	0.554725	0.000071
C76	C	1.378541	1.054725	0.500071
C77	C	1.020383	0.563932	0.000091
C78	C	1.520383	1.063932	0.500091
C79	C	1.027286	0.481920	0.000098
C80	C	1.527286	0.981920	0.500098
C81	C	0.959818	0.436312	0.000083
C82	C	1.459818	0.936312	0.500083
C83	C	0.902792	0.309149	0.000079
C84	C	1.402792	0.809149	0.500079
C85	C	0.966882	0.352485	0.000084
C86	C	1.466882	0.852485	0.500084
N87	N	0.945085	-0.158979	-0.215705
N88	N	1.445085	0.341021	0.284295
C89	C	0.972390	-0.131633	0.259480
C90	C	1.472390	0.368367	0.759480
C91	C	0.968265	-0.135759	0.346668
C92	C	1.468265	0.364241	0.846668
C93	C	0.916352	-0.187642	0.390262
C94	C	1.416352	0.312358	0.890262
C95	C	0.868556	-0.235395	0.346663
C96	C	1.368556	0.264605	0.846663
C97	C	0.872678	-0.231265	0.259476
C98	C	1.372678	0.268735	0.759476
C99	C	0.901410	-0.202602	0.653510
C100	C	1.401410	0.297398	1.153510
C101	C	0.897294	-0.206731	0.740702
C102	C	1.397294	0.293269	1.240702
C103	C	0.997003	-0.107093	0.740702
C104	C	1.497003	0.392907	1.240702
C105	C	1.001123	-0.102971	0.653513
C106	C	1.501123	0.397029	1.153513
C107	C	0.953324	-0.150721	0.609922
C108	C	1.453324	0.349279	1.109922
C109	C	0.912136	-0.191862	0.479383
C110	C	1.412136	0.308138	0.979383
C111	C	0.957536	-0.146496	0.520803
C112	C	1.457536	0.353504	1.020803
H113	H	0.688381	-0.286045	0.000056
H114	H	1.188381	0.213955	0.500056
Cl115	Cl	1.060377	0.306721	0.000093
Cl116	Cl	1.560377	0.806721	0.500093
H117	H	1.043394	-0.060724	0.618021
H118	H	1.543394	0.439276	1.118021
H119	H	1.035918	-0.068216	0.776202
H120	H	1.535918	0.431784	1.276202
Cl121	Cl	0.458933	-0.294722	0.000085
Cl122	Cl	0.958933	0.205278	0.500085
Cl123	Cl	0.329490	-0.355133	0.000071
Cl124	Cl	0.829490	0.144867	0.500071
Cl125	Cl	0.800628	0.415384	0.000050
Cl126	Cl	1.300628	0.915384	0.500050
Cl127	Cl	1.037659	-0.066410	0.204686
Cl128	Cl	1.537659	0.433590	0.704686
Cl129	Cl	0.785037	0.600485	0.000062
Cl130	Cl	1.285037	1.100485	0.500062
Cl131	Cl	0.748890	0.225468	0.000051
Cl132	Cl	1.248890	0.725468	0.500051
Cl133	Cl	1.084639	0.061152	0.000127
Cl134	Cl	1.584639	0.561152	0.500127
Cl135	Cl	1.105194	0.621272	0.000107
Cl136	Cl	1.605194	1.121272	0.500107
Cl137	Cl	0.832027	-0.271962	0.795500
Cl138	Cl	1.332027	0.228038	1.295500
Cl139	Cl	0.812591	-0.291296	0.204674
Cl140	Cl	1.312591	0.208704	0.704674
H141	H	0.705095	-0.028706	0.000086
H142	H	1.205095	0.471294	0.500086
H143	H	0.999800	-0.104250	0.485307
H144	H	1.499800	0.395750	0.985307
Cl145	Cl	0.846878	-0.257087	0.534190
Cl146	Cl	1.346878	0.242913	1.034190
Cl147	Cl	0.410737	-0.043643	0.000102
Cl148	Cl	0.910737	0.456357	0.500102
Cl149	Cl	0.764483	0.040357	0.000064
Cl150	Cl	1.264483	0.540357	0.500064
H151	H	1.007180	-0.096876	0.382161
H152	H	1.507180	0.403124	0.882161
Cl153	Cl	1.069044	0.246252	0.000108
Cl154	Cl	1.569044	0.746252	0.500108
H155	H	0.862492	-0.241484	0.618024
H156	H	1.362492	0.258516	1.118024
H157	H	1.087848	0.452287	0.000107
H158	H	1.587848	0.952287	0.500107
H159	H	0.842238	0.338796	0.000072
H160	H	1.342238	0.838796	0.500072
Cl161	Cl	0.803289	-0.300616	0.401465
Cl162	Cl	1.303289	0.199384	0.901465
Cl163	Cl	0.350271	-0.034973	0.000120
Cl164	Cl	0.850271	0.465027	0.500120
Cl165	Cl	0.165168	-0.019384	0.000142
Cl166	Cl	0.665168	0.480616	0.500142
Cl167	Cl	0.519403	-0.303390	0.000066
Cl168	Cl	1.019403	0.196610	0.500066
H169	H	0.556305	-0.016177	0.000110
H170	H	1.056305	0.483823	0.500110
H171	H	0.164579	-0.309658	0.000092
H172	H	0.664579	0.190342	0.500092
