data_functionalizedCrystal
_audit_creation_method	'MofGen! by Chris Wilmer'
_symmetry_space_group_name_H-M	'P1'
_symmetry_Int_Tables_number	1
_symmetry_cell_setting	triclinic
loop_
_symmetry_equiv_pos_as_xyz
  x,y,z
_cell_length_a	20.875641
_cell_length_b	23.196402
_cell_length_c	23.196402
_cell_angle_alpha	90.003332
_cell_angle_beta	62.437895
_cell_angle_gamma	57.593675
loop_
_atom_site_label
_atom_site_type_symbol
_atom_site_fract_x
_atom_site_fract_y
_atom_site_fract_z
Zr1	Zr	0.702091	-0.098816	0.578524
O2	O	0.835911	-0.195276	0.490878
O3	O	0.568272	-0.066186	0.602332
O4	O	0.702089	-0.190866	0.606735
O5	O	0.702096	0.024274	0.486483
O6	O	0.702086	-0.190868	0.701607
O7	O	0.702094	-0.070596	0.486475
O8	O	0.462713	0.032163	0.693730
O9	O	0.941469	-0.198757	0.494360
O10	O	0.623312	-0.055967	0.686985
O11	O	0.623315	0.014834	0.616189
O12	O	0.780867	-0.131961	0.621374
O13	O	0.780870	-0.061160	0.550578
Zr14	Zr	0.702090	0.052488	0.729847
Zr15	Zr	0.702087	-0.098819	0.729834
Zr16	Zr	0.702094	0.052491	0.578537
Zr17	Zr	0.870445	-0.104367	0.584077
Zr18	Zr	0.533736	0.058039	0.724294
O19	O	0.835909	0.019857	0.706039
O20	O	0.835905	-0.195281	0.706021
O21	O	0.835915	0.019862	0.490897
O22	O	0.568270	0.148948	0.817493
O23	O	0.568266	-0.066190	0.817474
O24	O	0.568276	0.148953	0.602350
O25	O	0.702085	-0.070602	0.821888
O26	O	0.702092	0.144538	0.701636
O27	O	0.702095	0.144540	0.606764
O28	O	0.702086	0.024267	0.821896
O29	O	0.941466	-0.198760	0.614631
O30	O	0.462715	0.152432	0.693740
O31	O	0.462712	0.152429	0.814011
O32	O	0.462709	0.032161	0.814001
O33	O	0.941471	-0.078489	0.494370
O34	O	0.941468	-0.078491	0.614641
O35	O	0.623314	0.085633	0.686997
O36	O	0.623311	0.014832	0.757793
O37	O	0.780866	-0.061162	0.692182
O38	O	0.780869	0.009639	0.621386
C39	C	0.491506	-0.016220	0.647240
C40	C	0.420035	-0.013864	0.644882
C41	C	0.702096	-0.023160	0.464920
C42	C	0.702098	-0.023159	0.400685
C43	C	0.702094	0.166097	0.654202
C44	C	0.702095	0.230331	0.654207
C45	C	0.386457	-0.049714	0.680728
C46	C	0.319298	-0.047493	0.678514
C47	C	0.285723	-0.009425	0.640451
C48	C	0.319305	0.026430	0.604605
C49	C	0.386458	0.024213	0.606823
C50	C	0.084880	0.001173	0.629860
C51	C	0.017724	0.003386	0.627643
C52	C	0.017721	-0.070536	0.701554
C53	C	0.084879	-0.072754	0.703765
C54	C	0.118451	-0.036895	0.667922
N55	N	0.217078	-0.007156	0.638186
N56	N	0.187090	-0.039161	0.670191
C57	C	0.912675	-0.030108	0.661131
C58	C	0.984146	-0.032464	0.663489
C59	C	0.702087	-0.212425	0.654169
C60	C	0.702086	-0.276659	0.654164
C61	C	0.784334	0.220838	0.619962
C62	C	0.784336	0.281192	0.619952
C63	C	0.702093	0.351039	0.654200
C64	C	0.619842	0.360530	0.688447
C65	C	0.619843	0.300176	0.688450
C66	C	0.639082	0.477053	0.714025
C67	C	0.639084	0.537404	0.714023
C68	C	0.702086	0.537193	0.654188
C69	C	0.765100	0.476616	0.594355
C70	C	0.765101	0.416262	0.594359
C71	C	0.702082	0.416488	0.654200
C72	C	0.784332	0.593141	0.619928
C73	C	0.784330	0.653498	0.619916
C74	C	0.619834	0.732836	0.688418
C75	C	0.619839	0.672479	0.688424
C76	C	0.702090	0.602634	0.654180
C77	C	0.702103	-0.075427	0.370509
C78	C	0.702095	-0.075427	0.310158
C79	C	0.702100	-0.023164	0.279977
C80	C	0.702089	0.029114	0.310163
C81	C	0.702088	0.029116	0.370517
C82	C	0.754959	-0.008621	0.162347
C83	C	0.754966	-0.008629	0.101992
C84	C	0.702099	-0.023168	0.093827
C85	C	0.649236	-0.037715	0.146020
C86	C	0.649235	-0.037712	0.206374
C87	C	0.702100	-0.023161	0.214534
C88	C	0.702094	-0.075438	-0.001789
C89	C	0.702080	-0.075433	-0.062139
C90	C	0.702083	0.029104	-0.062136
C91	C	0.702088	0.029102	-0.001783
C92	C	0.702098	-0.023173	0.028385
C93	C	0.702085	-0.023168	0.843451
C94	C	0.702083	-0.023169	0.907686
C95	C	0.491500	-0.016224	0.836505
C96	C	0.420028	-0.013869	0.898382
C97	C	0.491509	0.173041	0.647256
C98	C	0.420040	0.239631	0.644904
C99	C	0.491504	0.173037	0.836521
C100	C	0.420032	0.239626	0.898404
C101	C	0.912677	-0.219365	0.471850
C102	C	0.984148	-0.285954	0.409967
C103	C	0.912680	-0.030104	0.471866
C104	C	0.984153	-0.032459	0.409989
C105	C	0.912672	-0.219369	0.661115
C106	C	0.984141	-0.285959	0.663467
C107	C	0.386464	-0.049725	0.890480
C108	C	0.319318	-0.047527	0.948615
C109	C	0.285732	-0.009467	1.014652
C110	C	0.319302	0.026391	1.022553
C111	C	0.386452	0.024187	0.964419
C112	C	0.386477	0.307865	0.680760
C113	C	0.319333	0.370439	0.678548
C114	C	0.285749	0.364778	0.640483
C115	C	0.319319	0.296537	0.604622
C116	C	0.386466	0.233964	0.606831
C117	C	0.386467	0.233939	0.964426
C118	C	0.319322	0.296500	1.022578
C119	C	0.285738	0.364748	1.014706
C120	C	0.319310	0.370433	0.948677
C121	C	0.386459	0.307873	0.890527
C122	C	1.017722	-0.280267	0.343945
C123	C	1.084888	-0.342829	0.285794
C124	C	1.118475	-0.411077	0.293666
C125	C	1.084899	-0.416762	0.359695
C126	C	1.017738	-0.354201	0.417845
C127	C	1.017724	0.003391	0.417891
C128	C	1.084889	0.001175	0.359757
C129	C	1.118477	-0.036887	0.293720
C130	C	1.084904	-0.072742	0.285819
C131	C	1.017744	-0.070530	0.343953
C132	C	1.017704	-0.280275	0.701539
C133	C	1.084848	-0.342837	0.703762
C134	C	1.118433	-0.411084	0.667909
C135	C	1.084864	-0.416767	0.629836
C136	C	1.017716	-0.354205	0.627618
H137	H	0.291958	-0.076685	0.707703
C138	C	0.702088	0.086609	0.403713
H139	H	0.702084	0.079126	0.443981
H140	H	0.754700	0.082709	0.371911
H141	H	0.649466	0.133464	0.415739
H142	H	0.231061	0.415683	1.062061
C143	C	1.121772	-0.336573	0.745634
H144	H	1.092162	-0.286967	0.766656
H145	H	1.110762	-0.358207	0.780252
H146	H	1.185177	-0.360671	0.715818
C147	C	0.980812	-0.109957	0.335251
H148	H	1.010432	-0.132933	0.287594
H149	H	0.991807	-0.145297	0.357615
H150	H	0.917411	-0.075959	0.355162
H151	H	0.291957	0.426009	0.942278
H152	H	0.990369	-0.224710	0.730735
H153	H	0.413771	0.053390	0.970863
C154	C	1.121802	-0.336563	0.213172
H155	H	1.092165	-0.286955	0.216817
H156	H	1.185200	-0.360648	0.190175
H157	H	1.110795	-0.358208	0.187724
H158	H	0.413799	0.053404	0.577632
C159	C	0.211883	0.433612	0.638064
H160	H	0.196702	0.475058	0.664878
H161	H	0.233886	0.432900	0.591706
H162	H	0.159478	0.435350	0.656132
H163	H	1.173109	-0.462020	0.669722
C164	C	0.282340	0.068267	1.095193
H165	H	0.311942	0.089310	1.091581
H166	H	0.218939	0.105321	1.118172
H167	H	0.293344	0.036004	1.120638
H168	H	0.702079	-0.117994	-0.086707
H169	H	0.552879	0.417404	0.716330
C170	C	-0.019213	-0.109972	0.740984
H171	H	0.010404	-0.132964	0.763967
H172	H	-0.082614	-0.075982	0.773868
H173	H	-0.008200	-0.145311	0.709440
C174	C	0.423418	0.314107	0.722624
H175	H	0.393815	0.363710	0.743651
H176	H	0.412414	0.292467	0.757238
H177	H	0.486822	0.290006	0.692801
H178	H	0.112203	0.030375	0.600677
H179	H	0.413784	0.178407	0.577634
H180	H	0.552870	0.680212	0.716313
H181	H	1.173163	-0.038683	0.246390
H182	H	0.606191	-0.049554	0.248868
C183	C	0.282370	0.290315	0.562757
H184	H	0.311975	0.240715	0.541711
H185	H	0.218968	0.314421	0.592574
H186	H	0.293384	0.311962	0.528147
C187	C	1.121821	-0.491841	0.590396
H188	H	1.166626	-0.528281	0.597167
H189	H	1.073625	-0.495561	0.607046
H190	H	1.148035	-0.498001	0.542632
H191	H	0.851307	0.273462	0.592062
C192	C	0.980815	-0.360468	0.585727
H193	H	1.010446	-0.410075	0.564689
H194	H	0.917414	-0.336374	0.615525
H195	H	0.991841	-0.338831	0.551110
C196	C	1.121810	0.040615	0.368457
H197	H	1.166629	0.033842	0.324381
H198	H	1.073600	0.090826	0.391947
H199	H	1.147998	0.021496	0.394405
H200	H	-0.009608	0.034386	0.596645
C201	C	0.980789	-0.205202	0.335277
H202	H	0.935975	-0.168750	0.379360
H203	H	1.028999	-0.201497	0.311794
H204	H	0.954594	-0.199045	0.309331
C205	C	0.282347	0.068333	0.562762
H206	H	0.311951	0.089381	0.541744
H207	H	0.293335	0.036094	0.528142
H208	H	0.218946	0.105396	0.592598
C209	C	0.980787	0.045263	0.490524
H210	H	1.010414	0.066287	0.486895
H211	H	0.917389	0.082329	0.513517
H212	H	0.991794	0.012996	0.515966
C213	C	0.423387	-0.091589	0.722596
H214	H	0.468196	-0.087782	0.718779
H215	H	0.375176	-0.071750	0.769629
H216	H	0.449586	-0.141077	0.705199
H217	H	0.587770	0.477237	0.762752
C218	C	0.569772	0.604032	0.779835
H219	H	0.532240	0.595520	0.815467
H220	H	0.600963	0.612535	0.793859
H221	H	0.533337	0.645146	0.770782
H222	H	0.112214	-0.103752	0.734759
C223	C	0.702109	-0.132927	0.276953
H224	H	0.702121	-0.164062	0.303562
H225	H	0.649500	-0.109730	0.275315
H226	H	0.754733	-0.160476	0.231497
C227	C	1.121848	-0.114602	0.213178
H228	H	1.092243	-0.135642	0.216790
H229	H	1.110843	-0.082330	0.187744
H230	H	1.185252	-0.151666	0.190188
C231	C	0.874805	0.144012	0.582285
H232	H	0.863030	0.109425	0.587193
H233	H	0.908595	0.137605	0.534776
H234	H	0.908598	0.137606	0.601652
C235	C	0.702096	-0.132931	0.031405
H236	H	0.702107	-0.125450	0.071667
H237	H	0.649481	-0.129030	0.043427
H238	H	0.754715	-0.179786	-0.000402
H239	H	0.816408	0.366943	0.545640
C240	C	0.874796	0.643058	0.582245
H241	H	0.863017	0.689005	0.587140
H242	H	0.908584	0.616876	0.601614
H243	H	0.908594	0.616859	0.534733
H244	H	0.291994	0.291858	1.076336
C245	C	0.834409	0.476372	0.528534
H246	H	0.825381	0.520994	0.537097
H247	H	0.894113	0.437686	0.515486
H248	H	0.826480	0.470300	0.492416
H249	H	0.413801	0.178374	0.970848
H250	H	1.173161	-0.462013	0.246311
H251	H	0.797955	0.003279	0.169011
H252	H	0.413779	0.312513	0.836771
C253	C	1.121843	-0.491837	0.368345
H254	H	1.166641	-0.528275	0.324253
H255	H	1.148043	-0.498009	0.394286
H256	H	1.073632	-0.495546	0.391822
C257	C	0.874803	0.516312	0.582252
H258	H	0.923784	0.519304	0.561845
H259	H	0.878228	0.491120	0.614264
H260	H	0.878217	0.491118	0.547391
H261	H	0.552870	0.789705	0.716299
H262	H	0.702108	-0.117991	0.395071
C263	C	0.529378	0.310615	0.726124
H264	H	0.541159	0.264666	0.721218
H265	H	0.495580	0.336812	0.773632
H266	H	0.495590	0.336796	0.706751
C267	C	0.591066	-0.053695	0.137054
H268	H	0.598624	-0.051602	0.093640
H269	H	0.609640	-0.100600	0.139204
H270	H	0.529039	-0.018727	0.172782
C271	C	0.702098	0.086599	0.276966
H272	H	0.702109	0.079107	0.236695
H273	H	0.649485	0.133453	0.308765
H274	H	0.754719	0.082692	0.264946
C275	C	0.282393	-0.086963	0.939911
H276	H	0.312004	-0.109932	0.892254
H277	H	0.293401	-0.122309	0.962268
H278	H	0.218989	-0.052969	0.959831
C279	C	0.702090	0.086591	-0.095328
H280	H	0.702097	0.079102	-0.135597
H281	H	0.649479	0.133446	-0.063526
H282	H	0.754712	0.082683	-0.107350
H283	H	0.702088	0.071661	0.022786
H284	H	0.413810	-0.080727	0.836715
H285	H	0.231053	-0.007678	1.061982
H286	H	0.798013	0.003212	0.059498
C287	C	0.282410	0.445495	0.718004
H288	H	0.312020	0.439900	0.740999
H289	H	0.293422	0.470219	0.686477
H290	H	0.219006	0.472666	0.750891
H291	H	0.990403	-0.358840	0.471601
