data_functionalizedCrystal
_audit_creation_method	'MofGen! by Chris Wilmer'
_symmetry_space_group_name_H-M	'P1'
_symmetry_Int_Tables_number	1
_symmetry_cell_setting	triclinic
loop_
_symmetry_equiv_pos_as_xyz
  x,y,z
_cell_length_a	6.817900
_cell_length_b	19.551900
_cell_length_c	16.255661
_cell_angle_alpha	95.875214
_cell_angle_beta	103.488922
_cell_angle_gamma	101.664829
loop_
_atom_site_label
_atom_site_type_symbol
_atom_site_fract_x
_atom_site_fract_y
_atom_site_fract_z
V1	V	-4.017653	-0.097241	-0.264271
O2	O	-4.014572	0.004092	-0.258831
O3	O	-3.960353	-0.192253	-0.262858
O4	O	-3.969330	-0.096000	-0.379349
O5	O	-4.005532	-0.092828	-0.141533
V6	V	-4.502424	-0.085090	-0.249543
O7	O	-4.276173	-0.123894	-0.296579
O8	O	-4.694101	-0.058436	-0.217235
O9	O	-4.336517	0.009923	-0.250957
O10	O	-4.622902	-0.186422	-0.254983
O11	O	-4.631941	-0.089503	-0.372281
O12	O	-4.327540	-0.086331	-0.134465
C13	C	-3.803186	-0.215407	-0.258790
C14	C	-3.837624	-0.293083	-0.258401
C15	C	-4.267833	-0.856442	-0.260645
C16	C	-4.235491	-0.783457	-0.261004
C17	C	-4.037141	-0.743287	-0.256152
C18	C	-3.871111	-0.776105	-0.250918
C19	C	-3.903453	-0.849087	-0.250550
C20	C	-3.870367	-0.631341	-0.302682
C21	C	-3.838035	-0.558361	-0.303055
C22	C	-3.937377	-0.518184	-0.257283
C23	C	-4.069093	-0.550998	-0.211149
C24	C	-4.101435	-0.623981	-0.210781
C25	C	-4.002050	-0.664149	-0.256550
C26	C	-4.068327	-0.406235	-0.262901
C27	C	-4.035975	-0.333248	-0.263255
C28	C	-3.671594	-0.325898	-0.253177
C29	C	-3.703947	-0.398883	-0.252814
C30	C	-3.902320	-0.439048	-0.257681
C31	C	-3.814637	-0.092625	-0.407386
C32	C	-3.856353	-0.092240	-0.501466
C33	C	-3.767339	-0.087630	-0.724265
C34	C	-3.918212	-0.147124	-0.793986
C35	C	-3.932804	-0.091516	-0.673711
C36	C	-3.856285	-0.031341	-0.771625
C37	C	-4.006638	-0.090814	-0.840092
C38	C	-4.083155	-0.151063	-0.742202
C39	C	-4.021171	-0.035228	-0.719825
C40	C	-4.172179	-0.094739	-0.789527
C41	C	-3.890266	-0.091921	-0.577864
C42	C	-4.049193	-0.090414	-0.935939
C43	C	-4.157026	0.033073	-0.255022
C44	C	-4.101826	0.110748	-0.255416
C45	C	-4.145575	-0.089707	-0.106424
C46	C	-4.083098	-0.090090	-0.012343
H47	H	-4.429359	-0.889140	-0.264605
H48	H	-3.730797	-0.531650	-0.340624
H49	H	-3.760762	0.019242	-0.785026
H50	H	-3.595857	-0.084702	-0.695773
C51	C	-4.246288	-0.660076	-0.160027
C52	C	-4.355568	-0.615893	-0.109673
C53	C	-4.500410	-0.651987	-0.058914
C54	C	-4.535973	-0.732265	-0.058509
C55	C	-4.426690	-0.776453	-0.108864
C56	C	-4.281847	-0.740358	-0.159624
H57	H	-4.329245	-0.556462	-0.109972
H58	H	-4.581308	-0.619276	-0.021637
H59	H	-4.643194	-0.758984	-0.020933
H60	H	-4.453013	-0.835883	-0.108566
H61	H	-4.200949	-0.773070	-0.196900
C62	C	-4.079256	0.028682	-0.676173
C63	C	-3.969717	0.104329	-0.682153
C64	C	-4.027777	0.168246	-0.638496
C65	C	-4.195376	0.156516	-0.588859
C66	C	-4.304925	0.080866	-0.582877
C67	C	-4.246865	0.016949	-0.626535
H68	H	-3.845641	0.113015	-0.718899
H69	H	-3.946680	0.224247	-0.642924
H70	H	-4.238355	0.203831	-0.556542
H71	H	-4.429001	0.072179	-0.546131
H72	H	-4.327962	-0.039053	-0.622106
C73	C	-4.178394	-0.506819	-0.160793
C74	C	-4.416991	-0.523447	-0.182476
C75	C	-4.526297	-0.479267	-0.132125
C76	C	-4.397005	-0.418459	-0.060089
C77	C	-4.158394	-0.401828	-0.038402
C78	C	-4.049088	-0.446008	-0.088754
H79	H	-4.512713	-0.568463	-0.235804
H80	H	-4.702934	-0.491579	-0.148179
H81	H	-4.477920	-0.385755	-0.022816
H82	H	-4.062672	-0.356812	0.014926
H83	H	-3.872452	-0.433696	-0.072700
H84	H	-3.709610	-0.743393	-0.246965
H85	H	-3.768264	-0.875800	-0.246294
H86	H	-4.171165	-0.306536	-0.267509
C87	C	-3.761094	-0.675537	-0.353037
C88	C	-3.890425	-0.736352	-0.425056
C89	C	-3.781161	-0.780549	-0.475408
C90	C	-3.542566	-0.763931	-0.453741
C91	C	-3.413221	-0.703114	-0.381718
C92	C	-3.522485	-0.658917	-0.331366
H93	H	-4.067060	-0.748656	-0.441099
H94	H	-3.876912	-0.825570	-0.528725
H95	H	-3.461682	-0.796648	-0.491014
H96	H	-3.236586	-0.690810	-0.365675
H97	H	-3.426734	-0.613895	-0.278049
C98	C	-3.860017	-0.211028	-0.837607
C99	C	-3.890921	-0.222705	-0.935355
C100	C	-3.832705	-0.286604	-0.978972
C101	C	-3.743586	-0.338827	-0.924841
C102	C	-3.712678	-0.327151	-0.827088
C103	C	-3.770893	-0.263252	-0.783471
H104	H	-3.956896	-0.184045	-0.975431
H105	H	-3.855586	-0.295247	-1.051336
H106	H	-3.700491	-0.386129	-0.957129
H107	H	-3.646702	-0.365811	-0.787012
H108	H	-3.748013	-0.254609	-0.711107
C109	C	-4.212168	-0.219492	-0.724300
C110	C	-4.196175	-0.232529	-0.631385
C111	C	-4.325177	-0.300959	-0.613481
C112	C	-4.470173	-0.356351	-0.688492
C113	C	-4.486172	-0.343315	-0.781414
C114	C	-4.357169	-0.274886	-0.799318
H115	H	-4.088835	-0.191523	-0.575852
H116	H	-4.313333	-0.310608	-0.544694
H117	H	-4.565668	-0.407006	-0.675238
H118	H	-4.593512	-0.384321	-0.836947
H119	H	-4.369014	-0.265237	-0.868105
H120	H	-4.229852	-0.438939	-0.266859
H121	H	-4.370676	-0.756738	-0.265257
H122	H	-3.510093	-0.293192	-0.249223
H123	H	-3.568766	-0.425597	-0.248560
H124	H	-4.343770	-0.097760	-0.817886
