data_functionalizedCrystal
_audit_creation_method	'MofGen! by Chris Wilmer'
_symmetry_space_group_name_H-M	'P1'
_symmetry_Int_Tables_number	1
_symmetry_cell_setting	triclinic
loop_
_symmetry_equiv_pos_as_xyz
  x,y,z
_cell_length_a	10.967926
_cell_length_b	14.519731
_cell_length_c	10.065875
_cell_angle_alpha	98.805316
_cell_angle_beta	93.120479
_cell_angle_gamma	84.211611
loop_
_atom_site_label
_atom_site_type_symbol
_atom_site_fract_x
_atom_site_fract_y
_atom_site_fract_z
O1	O	1.613252	0.160830	0.265929
O2	O	1.263214	0.163463	0.183600
O3	O	1.447499	0.028218	0.226956
O4	O	1.428968	0.296075	0.222573
O5	O	1.412359	0.054116	0.445678
O6	O	1.228074	0.189361	0.402321
O7	O	1.578112	0.186728	0.484651
Zn8	Zn	1.397514	0.192156	0.478213
Zn9	Zn	1.443813	0.158035	0.190038
O10	O	1.393828	0.321973	0.441294
C11	C	1.200846	0.174264	0.282424
C12	C	1.067361	0.167851	0.251028
C13	C	1.429060	0.006779	0.336113
C14	C	1.426458	-0.095688	0.335502
C15	C	0.989646	0.178408	0.350335
C16	C	0.851682	0.171780	0.317889
C17	C	1.424344	-0.178902	0.335001
C18	C	1.421703	-0.283300	0.334370
C19	C	1.419607	-0.366509	0.333868
C20	C	1.416966	-0.470913	0.333239
C21	C	1.640481	0.175927	0.385824
C22	C	1.773967	0.182339	0.417210
C23	C	1.412267	0.343412	0.332135
C24	C	1.414871	0.445877	0.332737
N25	N	1.365925	0.215443	0.674886
N26	N	1.475411	0.134741	-0.006634
C27	C	1.432814	0.166131	0.758402
C28	C	1.408512	0.184060	0.909852
H29	H	1.025250	0.192347	0.459377
H30	H	0.816085	0.157832	0.208841
H31	H	1.508069	0.110635	0.717783
O32	O	1.318564	0.250162	0.958195
C33	C	1.204773	0.227342	0.896616
H34	H	1.209810	0.149029	0.858433
H35	H	1.182484	0.267902	0.808544
C36	C	1.097594	0.349599	1.046795
C37	C	1.103777	0.253412	0.999909
H38	H	1.035293	0.365683	1.110507
H39	H	1.174257	0.364976	1.088280
H40	H	1.079024	0.383387	0.973391
H41	H	1.122361	0.219626	1.073309
H42	H	1.027115	0.238030	0.958439
O43	O	1.275981	0.281541	0.723236
C44	C	1.162191	0.258721	0.661657
H45	H	1.167228	0.180408	0.623474
H46	H	1.139902	0.299281	0.573585
C47	C	1.055012	0.380978	0.811836
C48	C	1.061195	0.284791	0.764950
H49	H	0.992711	0.397062	0.875548
H50	H	1.131674	0.396355	0.853321
H51	H	1.036442	0.414766	0.738432
H52	H	1.079779	0.251005	0.838350
H53	H	0.984533	0.269409	0.723479
H54	H	1.031758	0.153904	0.141988
O55	O	0.816223	0.198941	0.547384
C56	C	0.717169	0.207495	0.633415
H57	H	0.638231	0.170066	0.578708
H58	H	0.685535	0.284710	0.664030
C59	C	0.855287	0.209067	0.827128
C60	C	0.758337	0.163089	0.759940
H61	H	0.880681	0.181679	0.905178
H62	H	0.922022	0.203308	0.769169
H63	H	0.828912	0.273410	0.852628
H64	H	0.784718	0.098750	0.734427
H65	H	0.691607	0.168836	0.817899
H66	H	1.550670	0.079242	0.952752
