data_functionalizedCrystal
_audit_creation_method	'MofGen! by Chris Wilmer'
_symmetry_space_group_name_H-M	'P1'
_symmetry_Int_Tables_number	1
_symmetry_cell_setting	triclinic
loop_
_symmetry_equiv_pos_as_xyz
  x,y,z
_cell_length_a	10.654550
_cell_length_b	14.044220
_cell_length_c	9.730223
_cell_angle_alpha	89.997406
_cell_angle_beta	89.996251
_cell_angle_gamma	88.836890
loop_
_atom_site_label
_atom_site_type_symbol
_atom_site_fract_x
_atom_site_fract_y
_atom_site_fract_z
O1	O	1.681222	0.133227	-0.114408
O2	O	1.317019	0.145921	-0.114387
O3	O	1.493654	0.001554	-0.114384
O4	O	1.504587	0.277595	-0.114411
O5	O	1.493652	0.001557	0.114196
O6	O	1.317017	0.145925	0.114193
O7	O	1.681220	0.133231	0.114172
Zn8	Zn	1.499118	0.139578	0.150474
Zn9	Zn	1.499121	0.139574	-0.150689
O10	O	1.504585	0.277598	0.114169
C11	C	1.270127	0.144991	-0.000094
C12	C	1.130403	0.142202	-0.000085
C13	C	1.059459	0.227203	-0.000114
C14	C	0.928175	0.224578	-0.000137
C15	C	0.938790	0.051942	-0.000109
C16	C	1.070072	0.054569	-0.000076
C17	C	1.119790	0.314837	-0.000123
C18	C	1.048846	0.399845	-0.000153
C19	C	0.917561	0.397219	-0.000177
C20	C	0.857221	0.309585	-0.000170
C21	C	1.488867	-0.033790	-0.000093
C22	C	1.474592	-0.139110	-0.000090
C23	C	1.448493	-0.331943	-0.000108
C24	C	1.549741	-0.388911	-0.000119
C25	C	1.535219	-0.496210	-0.000129
C26	C	1.463013	-0.224634	-0.000098
C27	C	1.728113	0.134161	-0.000124
C28	C	1.867836	0.136950	-0.000142
C29	C	1.509372	0.312942	-0.000125
C30	C	1.523648	0.418262	-0.000137
N31	N	1.499126	0.139581	0.356011
N32	N	1.499123	0.139563	-0.356226
C33	C	1.577364	0.075677	0.427938
C34	C	1.577359	0.075666	0.571821
C35	C	1.420876	0.203470	0.571837
C36	C	1.420875	0.203477	0.427956
C37	C	1.655615	0.011782	0.355993
C38	C	1.733861	-0.052127	0.427920
C39	C	1.733856	-0.052138	0.571803
C40	C	1.655606	0.011759	0.643759
H41	H	1.097984	0.471193	-0.000147
O42	O	0.880320	-0.033237	-0.000300
C43	C	0.849194	-0.181565	-0.118767
C44	C	0.915511	-0.085141	-0.118697
H45	H	0.877599	-0.223548	-0.214495
H46	H	0.877620	-0.223681	-0.023161
H47	H	0.743181	-0.168816	-0.118733
H48	H	1.021534	-0.097803	-0.118779
H49	H	0.886981	-0.043056	-0.214294
H50	H	0.750320	0.307454	-0.000168
H51	H	1.357169	0.255494	0.630432
H52	H	1.655600	0.011737	0.760918
O53	O	1.666193	-0.351013	-0.000350
C54	C	1.863855	-0.338579	-0.118705
C55	C	1.732008	-0.381547	-0.118638
H56	H	1.917114	-0.363265	-0.214315
H57	H	1.855058	-0.257543	-0.118780
H58	H	1.917034	-0.363173	-0.022998
H59	H	1.678755	-0.357026	-0.214327
H60	H	1.740894	-0.462578	-0.118491
O61	O	1.139132	-0.027935	-0.000237
C62	C	1.293504	-0.125178	-0.118646
C63	C	1.215389	-0.031697	-0.118626
H64	H	1.355158	-0.128259	-0.214368
H65	H	1.355291	-0.128268	-0.023034
H66	H	1.227815	-0.188249	-0.118590
H67	H	1.280985	0.031427	-0.118730
H68	H	1.153588	-0.028690	-0.214230
H69	H	1.350913	-0.363754	-0.000106
O70	O	0.848588	0.479764	0.000040
C71	C	0.694121	0.576974	0.118358
C72	C	0.772175	0.483464	0.118311
H73	H	0.632303	0.579987	0.213955
H74	H	0.759737	0.640092	0.118444
H75	H	0.632474	0.580040	0.022638
H76	H	0.833830	0.480306	0.214014
H77	H	0.706489	0.420390	0.118152
H78	H	1.226688	0.316985	-0.000110
O79	O	1.655733	0.011636	0.216227
C80	C	1.741662	-0.058427	0.009740
C81	C	1.741631	-0.058383	0.168021
H82	H	1.811122	-0.115018	-0.029283
H83	H	1.643566	-0.074743	-0.029397
H84	H	1.770383	0.014507	-0.029280
H85	H	1.712965	-0.131296	0.207158
H86	H	1.839740	-0.042014	0.207065
H87	H	1.797562	-0.104155	0.369327
H88	H	1.797557	-0.104181	0.630365
O89	O	1.344844	0.265646	0.358290
C90	C	1.189583	0.392376	0.373476
C91	C	1.275652	0.322037	0.452545
H92	H	1.133599	0.437972	0.449647
H93	H	1.249090	0.440212	0.306149
H94	H	1.122274	0.350962	0.306082
H95	H	1.342976	0.363373	0.520014
H96	H	1.216067	0.274201	0.519785
