data_functionalizedCrystal
_audit_creation_method	'MofGen! by Chris Wilmer'
_symmetry_space_group_name_H-M	'P1'
_symmetry_Int_Tables_number	1
_symmetry_cell_setting	triclinic
loop_
_symmetry_equiv_pos_as_xyz
  x,y,z
_cell_length_a	11.169417
_cell_length_b	11.169416
_cell_length_c	11.169409
_cell_angle_alpha	90.028030
_cell_angle_beta	90.021649
_cell_angle_gamma	90.011311
loop_
_atom_site_label
_atom_site_type_symbol
_atom_site_fract_x
_atom_site_fract_y
_atom_site_fract_z
Zn1	Zn	-1.834939	0.477767	-0.678637
Zn2	Zn	-1.501606	0.811100	-0.345304
Zn3	Zn	-1.168273	1.144434	-0.011970
Zn4	Zn	-1.834819	0.678507	-0.477969
Zn5	Zn	-1.501486	1.011841	-0.144636
Zn6	Zn	-1.168152	1.345174	0.188698
Zn7	Zn	-1.634225	0.477831	-0.477965
Zn8	Zn	-1.300892	0.811164	-0.144632
Zn9	Zn	-0.967559	1.144497	0.188702
Zn10	Zn	-1.634223	0.678400	-0.678608
Zn11	Zn	-1.300890	1.011734	-0.345274
Zn12	Zn	-0.967557	1.345067	-0.011941
O13	O	-1.734552	0.578126	-0.578295
O14	O	-1.401218	0.911460	-0.244961
O15	O	-1.067885	1.244793	0.088372
O16	O	-2.002873	0.504414	-0.652032
O17	O	-1.669540	0.837747	-0.318699
O18	O	-1.336206	1.171080	0.014635
O19	O	-1.808161	0.651959	-0.310019
O20	O	-1.474827	0.985292	0.023315
O21	O	-1.141494	1.318625	0.356648
O22	O	-1.660902	0.309873	-0.504595
O23	O	-1.327568	0.643206	-0.171262
O24	O	-0.994235	0.976539	0.162071
O25	O	-2.002785	0.651897	-0.504602
O26	O	-1.669451	0.985230	-0.171269
O27	O	-1.336118	1.318563	0.162065
O28	O	-1.808365	0.309826	-0.652028
O29	O	-1.475032	0.643159	-0.318695
O30	O	-1.141699	0.976492	0.014639
O31	O	-1.660785	0.504522	-0.310016
O32	O	-1.327452	0.837856	0.023318
O33	O	-0.994118	1.171189	0.356651
O34	O	-1.466275	0.504419	-0.504567
O35	O	-1.132942	0.837752	-0.171233
O36	O	-0.799609	1.171085	0.162100
O37	O	-1.660898	0.651714	-0.846561
O38	O	-1.327565	0.985048	-0.513228
O39	O	-0.994231	1.318381	-0.179895
O40	O	-1.466274	0.651776	-0.651978
O41	O	-1.132940	0.985110	-0.318644
O42	O	-0.799607	1.318443	0.014689
O43	O	-1.808363	0.504310	-0.846583
O44	O	-1.475030	0.837643	-0.513250
O45	O	-1.141697	1.170976	-0.179916
O46	O	-1.808158	0.846443	-0.504573
O47	O	-1.474825	1.179776	-0.171240
O48	O	-1.141492	1.513110	0.162093
O49	O	-1.660781	0.846364	-0.651982
O50	O	-1.327448	1.179698	-0.318648
O51	O	-0.994115	1.513031	0.014685
C52	C	-1.422727	0.578094	-0.578269
C53	C	-1.089394	0.911427	-0.244936
C54	C	-0.756060	1.244760	0.088397
C55	C	-1.289327	0.578109	-0.578287
C56	C	-0.955994	0.911442	-0.244954
C57	C	-0.622660	1.244775	0.088380
C58	C	-1.734489	0.889951	-0.578301
C59	C	-1.401156	1.223284	-0.244968
C60	C	-1.067823	1.556618	0.088366
C61	C	-1.734572	1.023351	-0.578344
C62	C	-1.401239	1.356684	-0.245011
C63	C	-1.067906	1.690018	0.088323
C64	C	-1.047594	0.578148	-0.578313
C65	C	-0.714261	0.911482	-0.244979
C66	C	-0.380927	1.244815	0.088354
C67	C	-1.180994	0.578128	-0.578300
C68	C	-0.847661	0.911461	-0.244967
C69	C	-0.514327	1.244795	0.088367
C70	C	-1.734644	0.577993	-0.891337
C71	C	-1.401311	0.911326	-0.558004
C72	C	-1.067977	1.244660	-0.224671
C73	C	-1.734683	0.577936	-1.024737
C74	C	-1.401350	0.911270	-0.691404
C75	C	-1.068017	1.244603	-0.358071
C76	C	-1.734635	1.265084	-0.578327
C77	C	-1.401302	1.598417	-0.244994
C78	C	-1.067969	1.931751	0.088340
C79	C	-1.734640	1.131684	-0.578373
C80	C	-1.401307	1.465017	-0.245039
C81	C	-1.067973	1.798351	0.088294
C82	C	-1.734529	0.578172	-0.266470
C83	C	-1.401196	0.911506	0.066863
C84	C	-1.067862	1.244839	0.400197
C85	C	-1.734722	0.577891	-0.133070
C86	C	-1.401389	0.911225	0.200263
C87	C	-1.068056	1.244558	0.533596
