data_functionalizedCrystal
_audit_creation_method	'MofGen! by Chris Wilmer'
_symmetry_space_group_name_H-M	'P1'
_symmetry_Int_Tables_number	1
_symmetry_cell_setting	triclinic
loop_
_symmetry_equiv_pos_as_xyz
  x,y,z
_cell_length_a	12.759401
_cell_length_b	18.215405
_cell_length_c	12.759393
_cell_angle_alpha	90.033485
_cell_angle_beta	90.019676
_cell_angle_gamma	90.023158
loop_
_atom_site_label
_atom_site_type_symbol
_atom_site_fract_x
_atom_site_fract_y
_atom_site_fract_z
Zn1	Zn	1.606208	-0.292940	0.593963
Zn2	Zn	2.106208	0.207060	1.093963
Zn3	Zn	1.606074	-0.416024	0.418274
Zn4	Zn	2.106074	0.083976	0.918274
Zn5	Zn	1.430506	-0.292977	0.418302
Zn6	Zn	1.930506	0.207023	0.918302
Zn7	Zn	1.430474	-0.415971	0.593915
Zn8	Zn	1.930474	0.084029	1.093915
O9	O	1.518316	-0.354478	0.506113
O10	O	2.018316	0.145522	1.006113
O11	O	1.753211	-0.309275	0.570666
O12	O	2.253211	0.190725	1.070666
O13	O	1.582743	-0.399740	0.271256
O14	O	2.082743	0.100260	0.771256
O15	O	1.453883	-0.189988	0.441636
O16	O	1.953883	0.310012	0.941636
O17	O	1.753113	-0.399704	0.441588
O18	O	2.253113	0.100296	0.941588
O19	O	1.582970	-0.189961	0.570693
O20	O	2.082970	0.310039	1.070693
O21	O	1.453754	-0.309337	0.271277
O22	O	1.953754	0.190663	0.771277
O23	O	1.283481	-0.309285	0.441589
O24	O	1.783481	0.190715	0.941589
O25	O	1.453827	-0.399612	0.740942
O26	O	1.953827	0.100388	1.240942
O27	O	1.283457	-0.399648	0.570611
O28	O	1.783457	0.100352	1.070611
O29	O	1.582938	-0.309223	0.740978
O30	O	2.082938	0.190777	1.240978
O31	O	1.582711	-0.519001	0.441541
O32	O	2.082711	-0.019001	0.941541
O33	O	1.453698	-0.518962	0.570584
O34	O	1.953698	-0.018962	1.070584
C35	C	1.245348	-0.354465	0.506099
C36	C	1.745348	0.145535	1.006099
C37	C	1.128572	-0.354478	0.506117
C38	C	1.628572	0.145522	1.006117
C39	C	1.073761	-0.307476	0.573432
C40	C	1.573761	0.192524	1.073432
C41	C	0.964037	-0.307484	0.573439
C42	C	1.464037	0.192516	1.073439
C43	C	0.963943	-0.401500	0.438814
C44	C	1.463943	0.098500	0.938814
C45	C	1.073665	-0.401489	0.438802
C46	C	1.573665	0.098511	0.938802
C47	C	1.518215	-0.545684	0.506077
C48	C	2.018215	-0.045684	1.006077
C49	C	1.518268	-0.627483	0.506097
C50	C	2.018268	-0.127483	1.006097
C51	C	1.585515	-0.815602	0.573388
C52	C	2.085515	-0.315602	1.073388
C53	C	1.585554	-0.892461	0.573408
C54	C	2.085554	-0.392461	1.073408
C55	C	1.451245	-0.892602	0.438904
C56	C	1.951245	-0.392602	0.938904
C57	C	1.451203	-0.815745	0.438890
C58	C	1.951203	-0.315745	0.938890
C59	C	1.518344	-0.777247	0.506131
C60	C	2.018344	-0.277247	1.006131
C61	C	1.518425	-0.930963	0.506164
C62	C	2.018425	-0.430963	1.006164
C63	C	1.518465	-1.014296	0.506185
C64	C	2.018465	-0.514296	1.006185
C65	C	1.518302	-0.693908	0.506112
C66	C	2.018302	-0.193908	1.006112
C67	C	1.792349	-0.354491	0.506129
C68	C	2.292349	0.145509	1.006129
C69	C	1.909125	-0.354497	0.506136
C70	C	2.409125	0.145503	1.006136
C71	C	1.518394	-0.354407	0.780147
C72	C	2.018394	0.145593	1.280147
C73	C	1.518428	-0.354377	0.896924
C74	C	2.018428	0.145623	1.396924
C75	C	1.518445	-0.162525	0.506173
C76	C	2.018445	0.337475	1.006173
C77	C	1.518500	-0.080726	0.506198
C78	C	2.018500	0.419274	1.006198
C79	C	1.518298	-0.354495	0.233146
C80	C	2.018298	0.145505	0.733146
C81	C	1.518468	-0.354318	0.116370
C82	C	2.018468	0.145682	0.616370
C83	C	1.585661	-0.307304	0.951806
C84	C	2.085661	0.192696	1.451806
C85	C	1.585679	-0.307272	1.061530
C86	C	2.085679	0.192728	1.561530
C87	C	1.451227	-0.401394	1.061480
C88	C	1.951227	0.098606	1.561480
C89	C	1.451205	-0.401421	0.951758
C90	C	1.951205	0.098579	1.451758
H91	H	1.118293	-0.439764	0.383981
H92	H	1.618293	0.060236	0.883981
F93	F	1.379637	-0.451522	0.893345
F94	F	1.879637	0.048478	1.393345
H95	H	1.118463	-0.269194	0.628241
H96	H	1.618463	0.230806	1.128241
H97	H	0.919416	-0.269209	0.628251
H98	H	1.419416	0.230791	1.128251
H99	H	0.919225	-0.439776	0.384009
H100	H	1.419225	0.060224	0.884009
H101	H	1.640395	-0.268996	0.907163
H102	H	2.140395	0.231004	1.407163
H103	H	1.640184	-0.784259	0.628141
H104	H	2.140184	-0.284259	1.128141
H105	H	1.640425	-0.268939	1.106210
H106	H	2.140425	0.231061	1.606210
H107	H	1.640249	-0.923686	0.628178
H108	H	2.140249	-0.423686	1.128178
F109	F	1.379699	-0.774922	0.367309
F110	F	1.879699	-0.274922	0.867309
F111	F	1.379792	-0.933581	0.367347
F112	F	1.879792	-0.433581	0.867347
H113	H	1.396499	-0.439697	1.106140
H114	H	1.896499	0.060303	1.606140
