data_functionalizedCrystal
_audit_creation_method	'MofGen! by Chris Wilmer'
_symmetry_space_group_name_H-M	'P1'
_symmetry_Int_Tables_number	1
_symmetry_cell_setting	triclinic
loop_
_symmetry_equiv_pos_as_xyz
  x,y,z
_cell_length_a	21.395362
_cell_length_b	16.120444
_cell_length_c	21.395355
_cell_angle_alpha	87.118536
_cell_angle_beta	90.043940
_cell_angle_gamma	92.943436
loop_
_atom_site_label
_atom_site_type_symbol
_atom_site_fract_x
_atom_site_fract_y
_atom_site_fract_z
Zn1	Zn	0.945240	-0.331660	0.367218
Zn2	Zn	1.445240	0.168340	0.867218
Zn3	Zn	0.939838	-0.471059	0.267751
Zn4	Zn	1.439838	0.028941	0.767751
Zn5	Zn	0.840453	-0.331699	0.262421
Zn6	Zn	1.340453	0.168301	0.762421
Zn7	Zn	0.835119	-0.471077	0.372456
Zn8	Zn	1.335119	0.028923	0.872456
O9	O	0.890163	-0.401374	0.317462
O10	O	1.390163	0.098626	0.817462
O11	O	1.032202	-0.350128	0.354062
O12	O	1.532202	0.149872	0.854062
O13	O	0.926626	-0.452582	0.179366
O14	O	1.426626	0.047418	0.679366
O15	O	0.858846	-0.215025	0.271900
O16	O	1.358846	0.284975	0.771900
O17	O	1.028234	-0.452544	0.280984
O18	O	1.528234	0.047456	0.780984
O19	O	0.935833	-0.214996	0.348895
O20	O	1.435833	0.285004	0.848895
O21	O	0.853609	-0.350194	0.175451
O22	O	1.353609	0.149806	0.675451
O23	O	0.752067	-0.350211	0.276979
O24	O	1.252067	0.149789	0.776979
O25	O	0.849755	-0.452574	0.459439
O26	O	1.349755	0.047426	0.959439
O27	O	0.748148	-0.452611	0.357821
O28	O	1.248148	0.047389	0.857821
O29	O	0.930660	-0.350145	0.455591
O30	O	1.430660	0.149855	0.955591
O31	O	0.921454	-0.587731	0.286062
O32	O	1.421454	-0.087731	0.786062
O33	O	0.844518	-0.587743	0.362989
O34	O	1.344518	-0.087743	0.862989
C35	C	0.727373	-0.401418	0.317391
C36	C	1.227373	0.098582	0.817391
C37	C	0.657731	-0.401457	0.317376
C38	C	1.157731	0.098543	0.817376
C39	C	0.881838	-0.617988	0.325686
C40	C	1.381838	-0.117988	0.825686
C41	C	0.878334	-0.710657	0.329225
C42	C	1.378334	-0.210657	0.829225
C43	C	0.622991	-0.454847	0.359413
C44	C	1.122991	0.045153	0.859413
C45	C	0.557556	-0.454827	0.359440
C46	C	1.057556	0.045173	0.859440
C47	C	0.526864	-0.401425	0.317419
C48	C	1.026864	0.098575	0.817419
C49	C	0.561612	-0.348024	0.275379
C50	C	1.061612	0.151976	0.775379
C51	C	0.627045	-0.348040	0.275357
C52	C	1.127045	0.151960	0.775357
C53	C	0.423394	-0.394708	0.260758
C54	C	0.923394	0.105292	0.760758
C55	C	0.357962	-0.394698	0.260779
C56	C	0.857962	0.105302	0.760779
C57	C	0.325045	-0.401370	0.317486
C58	C	0.825045	0.098630	0.817486
C59	C	0.357568	-0.408070	0.374175
C60	C	0.857568	0.091930	0.874175
C61	C	0.423002	-0.408086	0.374153
C62	C	0.923002	0.091914	0.874153
C63	C	0.455912	-0.401401	0.317438
C64	C	0.955912	0.098599	0.817438
C65	C	0.219353	-0.454741	0.359556
C66	C	0.719353	0.045259	0.859556
C67	C	0.153918	-0.454715	0.359584
C68	C	0.653918	0.045285	0.859584
C69	C	0.157975	-0.347917	0.275518
C70	C	0.657975	0.152083	0.775518
C71	C	0.223409	-0.347939	0.275495
C72	C	0.723409	0.152061	0.775495
C73	C	0.254094	-0.401355	0.317514
C74	C	0.754094	0.098645	0.817514
C75	C	0.908494	-0.921578	0.299236
C76	C	1.408494	-0.421578	0.799236
C77	C	0.871948	-0.880318	0.335694
C78	C	1.371948	-0.380318	0.835694
C79	C	0.875502	-0.785910	0.332094
C80	C	1.375502	-0.285910	0.832094
C81	C	0.904940	-1.015995	0.302835
C82	C	1.404940	-0.515995	0.802835
C83	C	1.053588	-0.401330	0.317533
C84	C	1.553588	0.098670	0.817533
C85	C	1.123230	-0.401312	0.317564
C86	C	1.623230	0.098688	0.817564
C87	C	0.890215	-0.401357	0.480884
C88	C	1.390215	0.098643	0.980884
C89	C	0.890238	-0.401350	0.550525
C90	C	1.390238	0.098650	1.050525
C91	C	0.898537	-0.183914	0.309219
C92	C	1.398537	0.316086	0.809219
C93	C	0.902106	-0.091245	0.305706
C94	C	1.402106	0.408755	0.805706
C95	C	0.890149	-0.401330	0.154672
C96	C	1.390149	0.098670	0.654672
C97	C	0.890257	-0.401103	0.085023
C98	C	1.390257	0.098897	0.585023
C99	C	0.932363	-0.348013	0.581236
C100	C	1.432363	0.151987	1.081236
C101	C	0.932364	-0.347977	0.646670
C102	C	1.432364	0.152023	1.146670
C103	C	0.890245	-0.401293	0.681392
C104	C	1.390245	0.098707	1.181392
C105	C	0.848111	-0.454633	0.650673
C106	C	1.348111	0.045367	1.150673
C107	C	0.848108	-0.454662	0.585240
C108	C	1.348108	0.045338	1.085240
C109	C	0.882412	-0.476364	0.787915
C110	C	1.382412	0.023636	1.287915
C111	C	0.882420	-0.476337	0.853347
C112	C	1.382420	0.023663	1.353347
C113	C	0.890252	-0.401205	0.883209
C114	C	1.390252	0.098795	1.383209
C115	C	0.898089	-0.326097	0.847631
C116	C	1.398089	0.173903	1.347631
C117	C	0.898086	-0.326126	0.782198
C118	C	1.398086	0.173874	1.282198
C119	C	0.890244	-0.401268	0.752343
C120	C	1.390244	0.098732	1.252343
C121	C	0.932381	-0.347825	0.984870
C122	C	1.432381	0.152175	1.484870
C123	C	0.932377	-0.347787	1.050306
C124	C	1.432377	0.152213	1.550306
C125	C	0.848127	-0.454451	1.054308
C126	C	1.348127	0.045549	1.554308
C127	C	0.848128	-0.454481	0.988874
C128	C	1.348128	0.045519	1.488874
C129	C	0.890258	-0.401169	0.954159
C130	C	1.390258	0.098831	1.454159
H131	H	0.647970	-0.498342	0.393629
H132	H	1.147970	0.001658	0.893629
Br133	Br	0.815348	-0.939613	0.392224
Br134	Br	1.315348	-0.439613	0.892224
H135	H	0.813816	-0.498041	0.678948
H136	H	1.313816	0.001959	1.178948
Br137	Br	0.965088	-0.862282	0.242707
Br138	Br	1.465088	-0.362282	0.742707
Br139	Br	0.989537	-0.275658	0.534125
Br140	Br	1.489537	0.224342	1.034125
H141	H	0.813801	-0.498094	0.560236
H142	H	1.313801	0.001906	1.060236
Br143	Br	0.989524	-0.275565	0.688357
Br144	Br	1.489524	0.224435	1.188357
H145	H	0.904465	-0.264970	0.753233
H146	H	1.404465	0.235030	1.253233
Br147	Br	0.790957	-0.526800	1.101423
Br148	Br	1.290957	-0.026800	1.601423
H149	H	0.132986	-0.304432	0.241306
H150	H	0.632986	0.195568	0.741306
H151	H	0.904468	-0.264917	0.871943
H152	H	1.404468	0.235083	1.371943
Br153	Br	0.989554	-0.275472	0.937753
Br154	Br	1.489554	0.224528	1.437753
H155	H	0.655331	-0.304561	0.241125
H156	H	1.155331	0.195439	0.741125
Br157	Br	0.510399	-0.527289	0.416496
Br158	Br	1.010399	-0.027289	0.916496
H159	H	0.330769	-0.413502	0.420352
H160	H	0.830769	0.086498	0.920352
Br161	Br	0.270560	-0.275476	0.218441
Br162	Br	0.770560	0.224524	0.718441
Br163	Br	0.989562	-0.275407	1.091986
Br164	Br	1.489562	0.224593	1.591986
H165	H	0.876043	-0.537494	0.882309
H166	H	1.376043	-0.037494	1.382309
H167	H	0.449479	-0.413539	0.420311
H168	H	0.949479	0.086461	0.920311
H169	H	0.813828	-0.497919	0.963870
H170	H	1.313828	0.002081	1.463870
H171	H	0.244339	-0.498232	0.393774
H172	H	0.744339	0.001768	0.893774
Br173	Br	0.871801	-0.578341	0.747395
Br174	Br	1.371801	-0.078341	1.247395
H175	H	0.331486	-0.389248	0.214620
H176	H	0.831486	0.110752	0.714620
Br177	Br	0.106769	-0.527173	0.416645
Br178	Br	0.606769	-0.027173	0.916645
H179	H	0.536618	-0.304542	0.241166
H180	H	1.036618	0.195458	0.741166
Br181	Br	0.468061	-0.385653	0.183791
Br182	Br	0.968061	0.114347	0.683791
