data_functionalizedCrystal
_audit_creation_method	'MofGen! by Chris Wilmer'
_symmetry_space_group_name_H-M	'P1'
_symmetry_Int_Tables_number	1
_symmetry_cell_setting	triclinic
loop_
_symmetry_equiv_pos_as_xyz
  x,y,z
_cell_length_a	19.077312
_cell_length_b	19.076808
_cell_length_c	21.395355
_cell_angle_alpha	92.317436
_cell_angle_beta	87.724797
_cell_angle_gamma	90.121844
loop_
_atom_site_label
_atom_site_type_symbol
_atom_site_fract_x
_atom_site_fract_y
_atom_site_fract_z
Zn1	Zn	1.062991	-0.322927	0.304661
Zn2	Zn	1.058172	-0.440419	0.195852
Zn3	Zn	0.945478	-0.318214	0.204272
Zn4	Zn	0.940734	-0.435691	0.304964
O5	O	1.001844	-0.379313	0.252437
O6	O	1.160679	-0.342463	0.286576
O7	O	1.043191	-0.424214	0.109292
O8	O	0.965068	-0.220504	0.220986
O9	O	1.157139	-0.428784	0.206635
O10	O	1.051405	-0.223966	0.294741
O11	O	0.960395	-0.334431	0.115478
O12	O	0.846521	-0.329847	0.221280
O13	O	0.956984	-0.420726	0.392601
O14	O	0.843036	-0.416156	0.295258
O15	O	1.046805	-0.337879	0.392378
O16	O	1.038592	-0.538127	0.206929
O17	O	0.952311	-0.534653	0.287093
C18	C	0.819283	-0.371978	0.259216
C19	C	0.741182	-0.368857	0.262131
C20	C	0.301757	-0.346416	0.283041
C21	C	0.375141	-0.349361	0.280299
C22	C	0.409983	-0.395703	0.237244
C23	C	0.371438	-0.439107	0.196933
C24	C	0.298056	-0.436164	0.199679
C25	C	0.629255	-0.409318	0.224566
C26	C	0.702642	-0.412256	0.221822
C27	C	0.706340	-0.322511	0.305188
C28	C	0.632956	-0.319570	0.307928
C29	C	0.594417	-0.362976	0.267619
N30	N	0.484993	-0.398713	0.234439
N31	N	0.519409	-0.359969	0.270428
C32	C	0.994433	-0.561888	0.246143
C33	C	0.991326	-0.639997	0.243469
C34	C	1.034784	-0.678434	0.280647
C35	C	1.031862	-0.751825	0.278136
C36	C	0.985486	-0.786779	0.238443
C37	C	0.942024	-0.748337	0.201264
C38	C	0.944942	-0.674947	0.203779
C39	C	0.971938	-1.006086	0.226803
C40	C	0.969024	-1.079482	0.224289
C41	C	1.058862	-1.082965	0.301162
C42	C	1.061780	-1.009573	0.303671
C43	C	1.018315	-0.971138	0.266494
N44	N	0.982500	-0.861797	0.235874
N45	N	1.021297	-0.896121	0.269067
C46	C	1.185117	-0.386677	0.245632
C47	C	1.263217	-0.389815	0.242732
C48	C	1.001903	-0.379301	0.415859
C49	C	1.001928	-0.379296	0.485500
C50	C	1.009303	-0.196025	0.258769
C51	C	1.012482	-0.117919	0.261467
C52	C	1.001828	-0.379275	0.089652
C53	C	1.001947	-0.379088	0.020013
C54	C	1.048696	-0.336155	0.518098
C55	C	1.048696	-0.336125	0.583534
C56	C	1.001935	-0.379248	0.616369
C57	C	0.955158	-0.422391	0.583764
C58	C	0.955154	-0.422415	0.518329
C59	C	0.993819	-0.442298	0.718069
C60	C	0.993827	-0.442276	0.783503
C61	C	1.001943	-0.379174	0.818193
C62	C	1.010064	-0.316093	0.787440
C63	C	1.010061	-0.316117	0.722005
C64	C	1.001934	-0.379227	0.687323
C65	C	1.048714	-0.335997	0.921745
C66	C	1.048709	-0.335965	0.987182
C67	C	0.955174	-0.422238	0.987410
C68	C	0.955175	-0.422263	0.921974
C69	C	1.001949	-0.379144	0.889145
H70	H	0.406517	-0.314024	0.313125
C71	C	1.099372	-0.289025	1.022615
C72	C	1.061421	-0.242355	1.063176
C73	C	1.108067	-0.199094	1.095820
H74	H	1.128912	-0.317041	1.046148
H75	H	1.127213	-0.263310	0.993708
H76	H	1.033592	-0.268068	1.092079
H77	H	1.031884	-0.214323	1.039660
H78	H	1.135908	-0.173378	1.066913
H79	H	1.137604	-0.227116	1.119349
H80	H	1.082324	-0.167419	1.123340
C81	C	0.587382	-0.456529	0.180902
C82	C	0.543464	-0.499960	0.216329
C83	C	0.504886	-0.543469	0.176126
H84	H	0.559766	-0.428537	0.155627
H85	H	0.618624	-0.484585	0.154879
H86	H	0.512226	-0.471906	0.242341
H87	H	0.571062	-0.527966	0.241602
H88	H	0.536128	-0.571525	0.150103
H89	H	0.477274	-0.515472	0.150853
H90	H	0.475088	-0.572946	0.200157
H91	H	0.909553	-0.643652	0.173506
H92	H	1.094248	-1.114267	0.331430
H93	H	1.086782	-0.301043	0.491372
H94	H	1.099543	-0.981115	0.335992
H95	H	0.931256	-1.107939	0.191966
H96	H	1.086779	-0.300991	0.610081
H97	H	0.917083	-0.457500	0.610502
C98	C	1.085046	-0.640519	0.323851
C99	C	1.068986	-0.657727	0.385791
C100	C	1.115264	-0.622808	0.425611
H101	H	1.131812	-0.654374	0.312638
H102	H	1.080555	-0.591298	0.320068
H103	H	1.073483	-0.706937	0.389572
H104	H	1.022227	-0.643870	0.397023
H105	H	1.110774	-0.573587	0.421828
H106	H	1.162028	-0.636666	0.414393
H107	H	1.104370	-0.634473	0.467642
H108	H	0.936548	-0.974798	0.196531
H109	H	0.399812	-0.476842	0.161880
C110	C	1.019016	-0.247575	0.825062
C111	C	1.083457	-0.217151	0.807971
C112	C	1.091732	-0.154042	0.842625
H113	H	0.982053	-0.216408	0.816788
H114	H	1.017891	-0.256574	0.868441
H115	H	1.084576	-0.208150	0.764602
H116	H	1.120433	-0.248298	0.816246
H117	H	1.090607	-0.163041	0.886004
H118	H	1.054766	-0.122881	0.834349
H119	H	1.135458	-0.133395	0.831038
H120	H	0.266677	-0.471506	0.166856
H121	H	0.731009	-0.449995	0.186760
H122	H	0.987218	-0.493640	0.808536
H123	H	0.604593	-0.281836	0.342990
H124	H	0.737727	-0.287173	0.338006
C125	C	1.078935	-0.793583	0.318579
C126	C	1.037462	-0.834121	0.358763
C127	C	1.080805	-0.872586	0.396036
H128	H	1.108437	-0.823484	0.292586
H129	H	1.106960	-0.762271	0.342609
H130	H	1.009449	-0.865429	0.334735
H131	H	1.007961	-0.804237	0.384769
H132	H	1.108830	-0.841274	0.420066
H133	H	1.110305	-0.902483	0.370038
H134	H	1.052672	-0.900091	0.423309
C135	C	1.018728	-0.247593	0.688657
C136	C	0.964076	-0.201904	0.708133
C137	C	0.972028	-0.138776	0.677421
H138	H	1.062381	-0.226745	0.698549
H139	H	1.017528	-0.256613	0.644716
H140	H	0.965283	-0.192883	0.752064
H141	H	0.920416	-0.222730	0.698240
H142	H	0.970828	-0.147796	0.633479
H143	H	1.015683	-0.117934	0.687315
H144	H	0.934946	-0.107771	0.690626
C145	C	0.891744	-0.786415	0.158184
C146	C	0.898503	-0.858915	0.163923
C147	C	0.852205	-0.894012	0.124239
H148	H	0.844972	-0.772615	0.169440
H149	H	0.902535	-0.774850	0.116108
H150	H	0.887707	-0.870474	0.205990
H151	H	0.945265	-0.872735	0.152662
H152	H	0.862996	-0.882448	0.082163
H153	H	0.805436	-0.880207	0.135499
H154	H	0.856789	-0.943207	0.128123
H155	H	1.086795	-0.300882	0.895014
H156	H	0.273394	-0.308675	0.318098
C157	C	0.904488	-0.469042	1.023162
C158	C	0.914513	-0.459803	1.087444
C159	C	0.867839	-0.502916	1.120401
H160	H	0.857662	-0.456915	1.014610
H161	H	0.912863	-0.516687	1.010471
H162	H	0.906132	-0.412168	1.100131
H163	H	0.961329	-0.471934	1.096016
H164	H	0.876214	-0.550562	1.107710
H165	H	0.821016	-0.490786	1.111843
H166	H	0.874639	-0.496658	1.164019
C167	C	0.985101	-0.510793	0.680354
C168	C	1.044139	-0.522157	0.640270
C169	C	1.036118	-0.585245	0.605525
H170	H	0.980295	-0.548398	0.707987
H171	H	0.944420	-0.508268	0.656333
H172	H	1.084808	-0.524687	0.664290
H173	H	1.048955	-0.484568	0.612625
H174	H	0.995437	-0.582721	0.581504
H175	H	1.031311	-0.622845	0.633163
H176	H	1.076170	-0.592961	0.578320
H177	H	0.917096	-0.457397	0.895432
C178	C	0.904351	-0.469338	0.483043
C179	C	0.863408	-0.507111	0.525800
C180	C	0.816609	-0.550353	0.493316
H181	H	0.874763	-0.441316	0.459562
H182	H	0.929969	-0.501083	0.455491
H183	H	0.837791	-0.475370	0.553341
H184	H	0.892976	-0.535147	0.549283
H185	H	0.842227	-0.582098	0.465764
H186	H	0.787026	-0.522325	0.469836
H187	H	0.788828	-0.575992	0.522321
