data_functionalizedCrystal
_audit_creation_method	'MofGen! by Chris Wilmer'
_symmetry_space_group_name_H-M	'P1'
_symmetry_Int_Tables_number	1
_symmetry_cell_setting	triclinic
loop_
_symmetry_equiv_pos_as_xyz
  x,y,z
_cell_length_a	10.540539
_cell_length_b	14.853567
_cell_length_c	13.330367
_cell_angle_alpha	90.004582
_cell_angle_beta	89.997527
_cell_angle_gamma	95.919789
loop_
_atom_site_label
_atom_site_type_symbol
_atom_site_fract_x
_atom_site_fract_y
_atom_site_fract_z
O1	O	0.165727	-1.197288	-0.083349
O2	O	0.185470	-0.934938	-0.083366
O3	O	-0.009174	-1.072099	-0.083356
O4	O	0.360371	-1.060128	-0.083359
O5	O	-0.009178	-1.072079	0.083491
O6	O	0.185465	-0.934918	0.083481
O7	O	0.165723	-1.197268	0.083498
Cu8	Cu	0.175594	-1.066092	0.098724
Cu9	Cu	0.175599	-1.066115	-0.098592
O10	O	0.360367	-1.060108	0.083488
C11	C	0.184573	-0.901335	0.000055
C12	C	0.181892	-0.801236	0.000049
C13	C	-0.056469	-1.071191	0.000066
C14	C	-0.197388	-1.068505	0.000060
C15	C	0.166620	-1.230872	0.000074
C16	C	0.169300	-1.330971	0.000074
C17	C	-0.379682	-0.965588	-0.000321
C18	C	-0.233094	-0.968311	0.000055
C19	C	-0.259578	-1.116712	0.095341
C20	C	-0.406085	-1.113292	0.095421
C21	C	-0.406621	-1.115353	-0.094315
C22	C	-0.259649	-1.116276	-0.095575
C23	C	0.407662	-1.061016	0.000064
C24	C	0.548580	-1.063702	0.000063
N25	N	0.175589	-1.066081	0.237505
C26	C	0.054938	-0.387998	0.000072
C27	C	0.286179	-0.368000	0.000069
C28	C	0.288700	-0.462048	0.000066
C29	C	0.174338	-0.519075	0.000065
C30	C	0.057455	-0.482055	0.000066
C31	C	0.405580	-0.499075	0.000054
C32	C	0.408105	-0.593129	0.000050
C33	C	0.293742	-0.650158	0.000056
C34	C	0.176855	-0.613132	0.000058
C35	C	0.062493	-0.670159	0.000057
C36	C	-0.054396	-0.633135	0.000067
C37	C	-0.056908	-0.539084	0.000072
C38	C	0.296254	-0.744209	0.000050
C39	C	0.065010	-0.764216	0.000050
N40	N	0.175593	-1.066133	-0.237374
C41	C	0.261753	-1.005378	0.710124
C42	C	0.089435	-1.126877	0.710101
C43	C	0.089431	-1.126867	0.605082
C44	C	0.175591	-1.066112	0.552580
C45	C	0.261754	-1.005368	0.605096
C46	C	0.003277	-1.187616	0.552559
C47	C	0.003271	-1.187609	0.447534
C48	C	0.089426	-1.126849	0.395029
C49	C	0.175592	-1.066102	0.447552
C50	C	0.261752	-1.005347	0.395049
C51	C	0.347913	-0.944594	0.447570
C52	C	0.347909	-0.944608	0.552591
C53	C	0.089430	-1.126836	0.290008
C54	C	0.261753	-1.005337	0.290021
H55	H	-0.190072	-0.930378	-0.068247
C56	C	-0.091517	-1.254431	0.389771
N57	N	-0.162917	-1.304758	0.346263
C58	C	0.442672	-0.877781	0.610371
N59	N	0.514044	-0.827447	0.653896
H60	H	0.498687	-0.452638	0.000045
H61	H	-0.190919	-0.930096	0.068465
H62	H	-0.407845	-0.926017	-0.068649
C63	C	-0.443656	-1.065129	0.191630
N64	N	-0.471946	-1.028847	0.264094
C65	C	-0.073633	-0.347271	0.000083
N66	N	-0.170474	-0.316594	0.000090
H67	H	0.331901	-0.955911	0.752889
H68	H	0.019292	-1.176346	0.752851
H69	H	-0.454847	-1.185351	0.099748
C70	C	-0.230448	-1.216109	0.100150
N71	N	-0.208496	-1.290974	0.103774
H72	H	-0.152072	-0.508930	0.000104
C73	C	-0.201544	-1.071446	0.191127
N74	N	-0.157835	-1.037346	0.263270
H75	H	0.391423	-0.774350	0.000044
C76	C	-0.091492	-1.254442	0.610317
N77	N	-0.162878	-1.304775	0.653826
C78	C	0.411970	-0.305268	0.000071
N79	N	0.506721	-0.258013	0.000077
C80	C	-0.448756	-1.071553	-0.191877
N81	N	-0.480490	-1.038552	-0.265356
H82	H	0.331911	-0.955860	0.247280
H83	H	0.418071	-0.895131	0.404810
H84	H	0.503283	-0.623265	0.000042
H85	H	-0.409458	-0.926162	0.067619
C86	C	-0.203852	-1.068670	-0.190803
N87	N	-0.161829	-1.032805	-0.262527
H88	H	0.019284	-1.176304	0.247250
C89	C	-0.228024	-1.214968	-0.103339
N90	N	-0.204208	-1.289308	-0.109177
C91	C	-0.180189	-0.695877	0.000067
N92	N	-0.274934	-0.743137	0.000071
H93	H	-0.454643	-1.187723	-0.094951
H94	H	-0.028119	-0.810642	0.000053
