data_functionalizedCrystal
_audit_creation_method	'MofGen! by Chris Wilmer'
_symmetry_space_group_name_H-M	'P1'
_symmetry_Int_Tables_number	1
_symmetry_cell_setting	triclinic
loop_
_symmetry_equiv_pos_as_xyz
  x,y,z
_cell_length_a	15.995350
_cell_length_b	27.732048
_cell_length_c	15.072220
_cell_angle_alpha	89.993868
_cell_angle_beta	89.991149
_cell_angle_gamma	83.067515
loop_
_atom_site_label
_atom_site_type_symbol
_atom_site_fract_x
_atom_site_fract_y
_atom_site_fract_z
O1	O	1.110190	0.062301	-0.073717
O2	O	0.866315	0.069995	-0.073737
O3	O	0.995827	-0.004216	-0.073709
O4	O	0.980678	0.136512	-0.073744
O5	O	0.995795	-0.004212	0.073856
O6	O	0.866283	0.069999	0.073828
O7	O	1.110158	0.062305	0.073848
Zn8	Zn	0.988215	0.066153	0.097267
Zn9	Zn	0.988257	0.066148	-0.097156
O10	O	0.980646	0.136516	0.073821
C11	C	0.835108	0.069679	0.000044
C12	C	0.742170	0.068726	0.000037
C13	C	0.404467	0.065301	0.000056
C14	C	0.452585	0.012449	0.000399
C15	C	0.549263	0.013403	0.000060
C16	C	0.572006	0.067000	0.000047
C17	C	0.530599	0.093065	-0.084223
C18	C	0.433981	0.091738	-0.084287
C19	C	0.433592	0.092834	0.083522
C20	C	0.530537	0.092822	0.084630
C21	C	0.666691	0.067962	0.000039
C22	C	0.309782	0.064340	0.000058
C23	C	0.995493	-0.022222	0.000076
C24	C	0.994535	-0.075881	0.000083
C25	C	1.065040	-0.414392	0.000043
C26	C	1.061487	-0.616067	0.000030
O27	O	1.125959	-0.647045	-0.000004
N28	N	0.984692	-0.635522	0.000025
C29	C	0.908780	-0.604555	0.000017
O30	O	0.843380	-0.625730	0.000003
C31	C	0.912334	-0.402881	0.000023
C32	C	0.989134	-0.383429	0.000037
C33	C	1.141834	-0.394940	0.000056
C34	C	1.142721	-0.344524	0.000064
C35	C	1.066815	-0.313561	0.000059
C36	C	0.990021	-0.333013	0.000045
C37	C	0.836422	-0.371914	0.000009
C38	C	0.837317	-0.321493	0.000008
C39	C	0.914117	-0.302041	0.000023
C40	C	0.915002	-0.251634	0.000048
N41	N	0.991797	-0.232179	0.000053
C42	C	1.067703	-0.263142	0.000059
C43	C	0.906920	-0.710437	0.000015
C44	C	0.906031	-0.760855	0.000015
C45	C	1.058739	-0.772364	0.000027
C46	C	1.059627	-0.721945	0.000033
C47	C	0.983715	-0.690982	0.000021
C48	C	1.069561	-0.157265	0.000076
C49	C	1.070442	-0.106844	0.000088
C50	C	0.917734	-0.095340	0.000072
C51	C	0.916853	-0.145756	0.000065
C52	C	0.992773	-0.176718	0.000064
O53	O	0.850565	-0.220628	0.000072
O54	O	1.133094	-0.241958	0.000053
C55	C	1.064153	-0.464808	0.000035
C56	C	0.987359	-0.484260	0.000022
C57	C	0.911452	-0.453297	0.000016
C58	C	0.986470	-0.534679	0.000022
C59	C	1.062377	-0.565642	0.000027
C60	C	1.139172	-0.546187	0.000032
C61	C	1.140059	-0.495771	0.000040
C62	C	0.834657	-0.472752	0.000011
C63	C	0.833776	-0.523168	0.000004
C64	C	0.909683	-0.554132	0.000009
C65	C	1.141364	0.062621	0.000066
C66	C	1.234302	0.063575	0.000066
C67	C	0.980980	0.154523	0.000034
C68	C	0.981938	0.208182	0.000021
N69	N	0.988193	0.066156	0.229956
N70	N	0.988287	0.066140	-0.229845
C71	C	0.988256	0.066146	0.589158
C72	C	0.918727	0.105721	0.551536
C73	C	0.918884	0.105866	0.448710
C74	C	0.988224	0.066151	0.410954
C75	C	1.075446	0.077167	0.448249
C76	C	1.075056	0.077448	0.551106
C77	C	0.971342	0.015437	0.551269
C78	C	0.969333	0.015775	0.448405
C79	C	0.988211	0.066153	0.310240
C80	C	0.988274	0.066145	0.689871
H81	H	0.544216	0.132441	-0.087365
H82	H	0.843493	-0.776688	0.000019
H83	H	1.090060	0.114429	0.575080
H84	H	0.771232	-0.539001	-0.000000
H85	H	0.772844	-0.447546	0.000005
F86	F	1.222631	-0.427887	0.000061
H87	H	1.022054	-0.014014	0.575598
F88	F	0.754680	-0.392605	-0.000010
H89	H	0.909157	0.004845	0.577257
F90	F	0.836954	-0.062378	0.000066
F91	F	0.410387	0.066888	-0.166612
H92	H	1.128375	0.049759	0.575992
F93	F	1.221801	-0.475076	0.000050
F94	F	1.150364	-0.190210	0.000075
H95	H	1.128393	0.049109	0.423790
H96	H	0.905175	0.007416	0.424030
F97	F	1.095550	0.124953	0.414558
H98	H	1.016735	-0.015055	0.422708
F99	F	0.834101	0.097312	0.415751
H100	H	1.132984	-0.091010	0.000102
F101	F	0.833676	0.097279	0.583879
F102	F	0.932563	0.154632	0.585283
F103	F	0.932884	0.155055	0.416523
H104	H	1.122164	-0.706111	0.000044
F105	F	0.566463	0.067912	0.166115
F106	F	0.826118	-0.677489	0.000002
F107	F	0.568008	0.069398	-0.166187
F108	F	0.586754	-0.013379	0.079017
H109	H	1.120545	-0.797583	0.000032
H110	H	0.434323	-0.008675	0.060832
H111	H	0.433276	-0.008581	-0.059692
F112	F	0.391172	0.142455	-0.089297
H113	H	0.577401	-0.007228	-0.060444
H114	H	0.413266	0.075558	0.147396
F115	F	0.835115	-0.166459	0.000066
F116	F	0.391419	0.143767	0.084256
F117	F	0.549952	0.143910	0.091270
F118	F	1.219957	-0.579149	0.000043
H119	H	1.205260	-0.328691	0.000072
F120	F	0.756519	-0.288543	-0.000007
