data_functionalizedCrystal
_audit_creation_method	'MofGen! by Chris Wilmer'
_symmetry_space_group_name_H-M	'P1'
_symmetry_Int_Tables_number	1
_symmetry_cell_setting	triclinic
loop_
_symmetry_equiv_pos_as_xyz
  x,y,z
_cell_length_a	16.959455
_cell_length_b	19.121063
_cell_length_c	19.121175
_cell_angle_alpha	85.048230
_cell_angle_beta	92.455975
_cell_angle_gamma	92.465894
loop_
_atom_site_label
_atom_site_type_symbol
_atom_site_fract_x
_atom_site_fract_y
_atom_site_fract_z
Zn1	Zn	1.213747	-0.297163	0.409756
Zn2	Zn	1.713747	0.202837	0.909756
Zn3	Zn	1.202835	-0.409811	0.297106
Zn4	Zn	1.702835	0.090189	0.797106
Zn5	Zn	1.076168	-0.292158	0.292110
Zn6	Zn	1.576168	0.207842	0.792110
Zn7	Zn	1.076115	-0.414783	0.414729
Zn8	Zn	1.576115	0.085217	0.914729
O9	O	1.142216	-0.353479	0.353425
O10	O	1.642216	0.146521	0.853425
O11	O	1.322911	-0.312119	0.394822
O12	O	1.822911	0.187881	0.894822
O13	O	1.181488	-0.390028	0.197982
O14	O	1.681488	0.109972	0.697982
O15	O	1.099007	-0.194360	0.303544
O16	O	1.599007	0.305640	0.803544
O17	O	1.314894	-0.394881	0.312058
O18	O	1.814894	0.105119	0.812058
O19	O	1.200086	-0.198037	0.389978
O20	O	1.700086	0.301963	0.889978
O21	O	1.088426	-0.303590	0.194311
O22	O	1.588426	0.196410	0.694311
O23	O	0.965550	-0.308412	0.308366
O24	O	1.465550	0.191588	0.808366
O25	O	1.098916	-0.403356	0.512531
O26	O	1.598916	0.096644	1.012531
O27	O	0.965511	-0.398504	0.398454
O28	O	1.465511	0.101496	0.898454
O29	O	1.200035	-0.316941	0.508877
O30	O	1.700035	0.183059	1.008877
O31	O	1.181437	-0.508933	0.316881
O32	O	1.681437	-0.008933	0.816881
O33	O	1.088335	-0.512586	0.403299
O34	O	1.588335	-0.012586	0.903299
C35	C	0.936850	-0.353455	0.353408
C36	C	1.436850	0.146545	0.853408
C37	C	0.848994	-0.353462	0.353418
C38	C	1.348994	0.146538	0.853418
C39	C	1.133718	-0.536290	0.361187
C40	C	1.633718	-0.036290	0.861187
C41	C	1.130156	-0.614499	0.364531
C42	C	1.630156	-0.114499	0.864531
C43	C	0.477520	-0.306535	0.306609
C44	C	0.977520	0.193465	0.806609
C45	C	0.477515	-0.400482	0.400284
C46	C	0.977515	0.099518	0.900284
C47	C	0.560061	-0.400472	0.400280
C48	C	1.060061	0.099528	0.900280
C49	C	0.601340	-0.353493	0.353438
C50	C	1.101340	0.146507	0.853438
C51	C	0.560073	-0.306525	0.306601
C52	C	1.060073	0.193475	0.806601
C53	C	0.601334	-0.447444	0.447111
C54	C	1.101334	0.052556	0.947111
C55	C	0.683885	-0.447437	0.447108
C56	C	1.183885	0.052563	0.947108
C57	C	0.725166	-0.400454	0.400269
C58	C	1.225166	0.099546	0.900269
C59	C	0.683894	-0.353483	0.353430
C60	C	1.183894	0.146517	0.853430
C61	C	0.725173	-0.306504	0.306589
C62	C	1.225173	0.193496	0.806589
C63	C	0.683903	-0.259529	0.259753
C64	C	1.183903	0.240471	0.759753
C65	C	0.601355	-0.259542	0.259762
C66	C	1.101355	0.240458	0.759762
C67	C	0.807715	-0.400441	0.400260
C68	C	1.307715	0.099559	0.900260
C69	C	0.807727	-0.306494	0.306581
C70	C	1.307727	0.193506	0.806581
C71	C	1.176996	-0.649317	0.321146
C72	C	1.676996	-0.149317	0.821146
C73	C	1.173651	-0.722803	0.324295
C74	C	1.673651	-0.222803	0.824295
C75	C	1.123461	-0.761468	0.370826
C76	C	1.623461	-0.261468	0.870826
C77	C	1.076619	-0.726645	0.414216
C78	C	1.576619	-0.226645	0.914216
C79	C	1.079969	-0.653161	0.411070
C80	C	1.579969	-0.153161	0.911070
C81	C	1.110923	-0.983439	0.382578
C82	C	1.610923	-0.483439	0.882578
C83	C	1.107575	-1.056928	0.385719
C84	C	1.607575	-0.556928	0.885719
C85	C	1.204608	-1.053081	0.295800
C86	C	1.704608	-0.553081	0.795800
C87	C	1.207950	-0.979596	0.292655
C88	C	1.707950	-0.479596	0.792655
C89	C	1.161111	-0.944779	0.336047
C90	C	1.661111	-0.444779	0.836047
C91	C	1.120038	-0.836582	0.374045
C92	C	1.620038	-0.336582	0.874045
C93	C	1.164539	-0.869666	0.332831
C94	C	1.664539	-0.369666	0.832831
C95	C	1.348384	-0.353503	0.353443
C96	C	1.848384	0.146497	0.853443
C97	C	1.436241	-0.353514	0.353450
C98	C	1.936241	0.146486	0.853450
C99	C	1.150687	-0.361262	0.536948
C100	C	1.650687	0.138738	1.036948
C101	C	1.154296	-0.364578	0.615154
C102	C	1.654296	0.135422	1.115154
C103	C	1.150770	-0.169954	0.345649
C104	C	1.650770	0.330046	0.845649
C105	C	1.154415	-0.091747	0.342335
C106	C	1.654415	0.408253	0.842335
C107	C	1.133827	-0.345676	0.170615
C108	C	1.633827	0.154324	0.670615
C109	C	1.130379	-0.342161	0.092400
C110	C	1.630379	0.157839	0.592400
C111	C	1.107542	-0.321133	0.649984
C112	C	1.607542	0.178867	1.149984
C113	C	1.110930	-0.324255	0.723467
C114	C	1.610930	0.175745	1.223467
C115	C	1.161078	-0.370819	0.762119
C116	C	1.661078	0.129181	1.262119
C117	C	1.207834	-0.414269	0.727285
C118	C	1.707834	0.085731	1.227285
C119	C	1.204441	-0.411150	0.653803
C120	C	1.704441	0.088850	1.153803
C121	C	1.173743	-0.382491	0.984083
C122	C	1.673743	0.117509	1.484083
C123	C	1.177134	-0.385606	1.057570
C124	C	1.677134	0.114394	1.557570
C125	C	1.080229	-0.295593	1.053748
C126	C	1.580229	0.204407	1.553748
C127	C	1.076843	-0.292475	0.980265
C128	C	1.576843	0.207525	1.480265
C129	C	1.123597	-0.335927	0.945436
C130	C	1.623597	0.164073	1.445436
C131	C	1.164544	-0.374010	0.837231
C132	C	1.664544	0.125990	1.337231
C133	C	1.120125	-0.332739	0.870326
C134	C	1.620125	0.167261	1.370326
H135	H	0.841331	-0.268233	0.268441
H136	H	1.341331	0.231767	0.768441
N137	N	1.029789	-0.248744	1.091316
N138	N	1.529789	0.251256	1.591316
H139	H	1.064829	-0.217434	1.120432
H140	H	1.564829	0.282566	1.620432
H141	H	0.993246	-0.278689	1.122967
H142	H	1.493246	0.221311	1.622967
N143	N	0.728400	-0.498089	0.497626
N144	N	1.228400	0.001911	0.997626
H145	H	0.759817	-0.529433	0.470361
H146	H	1.259817	-0.029433	0.970361
H147	H	0.689678	-0.527805	0.527290
H148	H	1.189678	-0.027805	1.027290
H149	H	1.035756	-0.758132	0.452105
H150	H	1.535756	-0.258132	0.952105
H151	H	0.443914	-0.268287	0.268478
H152	H	0.943914	0.231713	0.768478
N153	N	0.556822	-0.498108	0.497639
N154	N	1.056822	0.001892	0.997639
H155	H	0.568346	-0.547898	0.488763
H156	H	1.068346	-0.047898	0.988763
H157	H	0.498281	-0.490926	0.490520
H158	H	0.998281	0.009074	0.990520
H159	H	1.242520	-0.446522	0.625445
H160	H	1.742520	0.053478	1.125445
N161	N	0.432997	-0.451156	0.450798
N162	N	0.932997	0.048844	0.950798
H163	H	0.374440	-0.444037	0.443694
H164	H	0.874440	0.055963	0.943694
H165	H	0.450256	-0.442413	0.500605
H166	H	0.950256	0.057587	1.000605
H167	H	1.066714	-1.088408	0.423623
H168	H	1.566714	-0.588408	0.923623
H169	H	0.567745	-0.221298	0.221631
H170	H	1.067745	0.278702	0.721631
N171	N	0.728423	-0.208859	0.209229
N172	N	1.228423	0.291141	0.709229
H173	H	0.759834	-0.236017	0.177785
H174	H	1.259834	0.263983	0.677785
H175	H	0.765469	-0.177523	0.236542
H176	H	1.265469	0.322477	0.736542
N177	N	1.255136	-1.090629	0.249006
N178	N	1.755136	-0.590629	0.749006
H179	H	1.241167	-1.075736	0.198178
H180	H	1.741167	-0.575736	0.698178
H181	H	1.245383	-1.143038	0.258114
H182	H	1.745383	-0.643038	0.758114
H183	H	1.205374	-0.411923	0.868710
H184	H	1.705374	0.088077	1.368710
H185	H	0.841313	-0.438689	0.438390
H186	H	1.341313	0.061311	0.938390
N187	N	1.261927	-0.464492	0.768965
N188	N	1.761927	0.035508	1.268965
H189	H	1.246715	-0.514220	0.758304
H190	H	1.746715	-0.014220	1.258304
H191	H	1.256966	-0.459817	0.820786
H192	H	1.756966	0.040183	1.320786
N193	N	1.231227	-0.435827	1.099262
N194	N	1.731227	0.064173	1.599262
H195	H	1.260330	-0.462882	1.066049
H196	H	1.760330	0.037118	1.566049
H197	H	1.198942	-0.469675	1.131130
H198	H	1.698942	0.030325	1.631130
H199	H	1.211803	-0.417881	0.955735
H200	H	1.711803	0.082119	1.455735
H201	H	1.072783	-0.955097	0.417908
H202	H	1.572783	-0.455097	0.917908
N203	N	1.066047	-0.282517	0.828634
N204	N	1.566047	0.217483	1.328634
H205	H	1.081262	-0.232788	0.839291
H206	H	1.581262	0.267212	1.339291
H207	H	1.009667	-0.294032	0.841892
H208	H	1.509667	0.205968	1.341892
N209	N	1.029450	-0.615598	0.457860
N210	N	1.529450	-0.115598	0.957860
H211	H	1.043419	-0.630489	0.508688
H212	H	1.543419	-0.130489	1.008688
H213	H	0.971909	-0.627974	0.447377
H214	H	1.471909	-0.127974	0.947377
H215	H	1.205407	-0.838183	0.294948
H216	H	1.705407	-0.338183	0.794948
H217	H	1.217863	-0.617841	0.283253
H218	H	1.717863	-0.117841	0.783253
N219	N	1.262093	-0.937896	0.242473
N220	N	1.762093	-0.437896	0.742473
H221	H	1.257106	-0.886061	0.247063
H222	H	1.757106	-0.386061	0.747063
H223	H	1.246930	-0.948639	0.192763
H224	H	1.746930	-0.448639	0.692763
N225	N	1.065898	-0.878284	0.424226
N226	N	1.565898	-0.378284	0.924226
H227	H	1.098108	-0.910121	0.458162
H228	H	1.598108	-0.410121	0.958162
H229	H	1.026597	-0.907553	0.396853
H230	H	1.526597	-0.407553	0.896853
H231	H	1.066711	-0.283212	0.618518
H232	H	1.566711	0.216788	1.118518
N233	N	1.224171	-0.760358	0.277502
N234	N	1.724171	-0.260358	0.777502
H235	H	1.256470	-0.724713	0.247545
H236	H	1.756470	-0.224713	0.747545
H237	H	1.189128	-0.789503	0.246225
H238	H	1.689128	-0.289503	0.746225
H239	H	1.072855	-0.288881	0.751823
H240	H	1.572855	0.211119	1.251823
H241	H	1.036006	-0.254559	0.948799
H242	H	1.536006	0.245441	1.448799
