data_functionalizedCrystal
_audit_creation_method	'MofGen! by Chris Wilmer'
_symmetry_space_group_name_H-M	'P1'
_symmetry_Int_Tables_number	1
_symmetry_cell_setting	triclinic
loop_
_symmetry_equiv_pos_as_xyz
  x,y,z
_cell_length_a	23.196402
_cell_length_b	18.760487
_cell_length_c	23.196401
_cell_angle_alpha	90.040886
_cell_angle_beta	59.997774
_cell_angle_gamma	60.024681
loop_
_atom_site_label
_atom_site_type_symbol
_atom_site_fract_x
_atom_site_fract_y
_atom_site_fract_z
Zr1	Zr	0.630989	0.686745	-0.075295
O2	O	0.751266	0.572922	-0.167406
O3	O	0.510723	0.721627	-0.047061
O4	O	0.631004	0.721614	-0.167337
O5	O	0.630968	0.572956	0.047748
O6	O	0.631004	0.838917	-0.167278
O7	O	0.630984	0.572934	-0.047131
O8	O	0.415842	0.838940	0.047872
O9	O	0.846130	0.572934	-0.167402
O10	O	0.560185	0.824058	-0.034972
O11	O	0.560173	0.736532	0.035791
O12	O	0.701790	0.736518	-0.105818
O13	O	0.701778	0.648992	-0.035054
Zr14	Zr	0.630962	0.873864	0.076119
Zr15	Zr	0.630988	0.873829	-0.075202
Zr16	Zr	0.630963	0.686779	0.076026
Zr17	Zr	0.782286	0.686763	-0.075289
Zr18	Zr	0.479665	0.873845	0.076113
O19	O	0.751228	0.838981	0.047885
O20	O	0.751265	0.838932	-0.167274
O21	O	0.751229	0.572971	0.047753
O22	O	0.510685	0.987686	0.168230
O23	O	0.510722	0.987637	-0.046929
O24	O	0.510686	0.721676	0.168097
O25	O	0.630983	0.987652	-0.046924
O26	O	0.630947	0.838994	0.168160
O27	O	0.630947	0.721691	0.168102
O28	O	0.630967	0.987674	0.047955
O29	O	0.846130	0.721641	-0.167328
O30	O	0.415821	0.838967	0.168152
O31	O	0.415821	0.987674	0.168226
O32	O	0.415842	0.987647	0.047946
O33	O	0.846109	0.572961	-0.047123
O34	O	0.846109	0.721669	-0.047049
O35	O	0.560161	0.824090	0.106642
O36	O	0.560173	0.911616	0.035878
O37	O	0.701777	0.824076	-0.034967
O38	O	0.701765	0.736550	0.035796
C39	C	0.441726	0.780280	0.000405
C40	C	0.377496	0.780272	0.000402
C41	C	0.295058	0.844908	0.052699
C42	C	0.234698	0.844914	0.052706
C43	C	0.256780	0.780291	0.000405
C44	C	0.339232	0.715644	-0.051897
C45	C	0.399590	0.715635	-0.051898
C46	C	0.201204	0.760155	-0.063402
C47	C	0.140845	0.760170	-0.063402
C48	C	0.070618	0.780314	0.000407
C49	C	0.060749	0.800462	0.064220
C50	C	0.121107	0.800453	0.064219
C51	C	0.191338	0.780293	0.000400
C52	C	-0.077273	0.844960	0.052716
C53	C	-0.137632	0.844961	0.052723
C54	C	-0.033095	0.715693	-0.051886
C55	C	0.027261	0.715690	-0.051887
C56	C	0.005168	0.780328	0.000413
C57	C	0.630976	0.546290	0.000295
C58	C	0.630976	0.466867	0.000256
C59	C	0.704894	0.085355	-0.036446
C60	C	0.557057	0.176754	0.037518
C61	C	0.557056	0.251376	0.037457
C62	C	0.630975	0.242990	0.000444
C63	C	0.704895	0.159983	-0.036509
C64	C	0.483137	0.334388	0.074404
C65	C	0.483132	0.409016	0.074344
C66	C	0.557053	0.400632	0.037334
C67	C	0.630976	0.317618	0.000380
C68	C	0.704895	0.309233	-0.036633
C69	C	0.778820	0.226220	-0.073584
C70	C	0.778816	0.151598	-0.073519
C71	C	0.557057	0.475253	0.037270
C72	C	0.704896	0.383860	-0.036697
C73	C	0.820225	0.780328	0.000419
C74	C	0.884455	0.780336	0.000421
C75	C	0.631008	0.780261	-0.188867
C76	C	0.631019	0.780246	-0.253107
C77	C	0.630975	1.014318	0.000528
C78	C	0.630975	1.093741	0.000568
C79	C	0.631020	0.844871	-0.283238
C80	C	0.631004	0.844891	-0.343585
C81	C	0.631003	0.780271	-0.373806
C82	C	0.630997	0.715641	-0.343665
C83	C	0.631005	0.715628	-0.283316
C84	C	0.678496	0.701413	-0.493225
C85	C	0.678493	0.701425	-0.553576
C86	C	0.630974	0.780310	-0.559942
C87	C	0.583468	0.859188	-0.505955
C88	C	0.583476	0.859175	-0.445606
C89	C	0.630993	0.780278	-0.439245
C90	C	0.630956	0.844961	-0.655507
C91	C	0.630935	0.844981	-0.715853
C92	C	0.630935	0.715724	-0.715936
C93	C	0.630949	0.715711	-0.655588
C94	C	0.630963	0.780329	-0.625379
C95	C	0.630943	0.780347	0.189691
C96	C	0.630932	0.780362	0.253931
C97	C	0.441725	1.014295	0.000521
C98	C	0.377496	1.093709	0.000558
C99	C	0.441693	0.780324	0.189684
C100	C	0.377452	0.780330	0.253921
C101	C	0.441693	1.014338	0.189800
C102	C	0.377452	1.093767	0.254077
C103	C	0.820258	0.546270	-0.188977
C104	C	0.884499	0.466841	-0.253253
C105	C	0.820226	0.546313	0.000303
C106	C	0.884455	0.466899	0.000265
C107	C	0.820258	0.780284	-0.188860
C108	C	0.884499	0.780278	-0.253097
C109	C	0.347339	1.085299	-0.036414
C110	C	0.286997	1.159910	-0.036393
C111	C	0.256808	1.242930	0.000604
C112	C	0.286970	1.251339	0.037578
C113	C	0.347316	1.176729	0.037552
C114	C	0.347278	0.826038	0.321077
C115	C	0.286925	0.826041	0.381441
C116	C	0.256744	0.780341	0.374647
C117	C	0.286925	0.734628	0.307484
C118	C	0.347280	0.734620	0.247122
C119	C	0.347290	1.176763	0.247325
C120	C	0.286938	1.251402	0.307714
C121	C	0.256744	1.243043	0.374855
C122	C	0.286912	1.160039	0.381606
C123	C	0.347267	1.085401	0.321218
C124	C	0.914668	0.383845	-0.246501
C125	C	0.975039	0.309206	-0.306890
C126	C	1.005236	0.317565	-0.374031
C127	C	0.975065	0.400570	-0.380782
C128	C	0.914699	0.475207	-0.320394
C129	C	0.914618	0.475310	0.037231
C130	C	0.974977	0.400699	0.037194
C131	C	1.005168	0.317678	0.000194
C132	C	0.975003	0.309269	-0.036776
C133	C	0.914649	0.383879	-0.036742
C134	C	0.914660	0.825987	-0.246281
C135	C	0.975013	0.825997	-0.306633
C136	C	1.005207	0.780294	-0.373801
C137	C	0.975040	0.734583	-0.380616
C138	C	0.914684	0.734578	-0.320265
H139	H	0.167565	0.897549	0.095294
C140	C	0.190344	1.325156	0.441277
N141	N	0.140329	1.387006	0.491304
C142	C	-0.016498	0.822619	0.134416
N143	N	-0.074682	0.839307	0.187286
C144	C	0.110252	0.822607	0.134411
N145	N	0.102078	0.839290	0.187281
H146	H	0.631029	0.897489	-0.258642
H147	H	0.371865	1.183586	0.192660
C148	C	1.008191	0.876279	-0.299120
N149	N	1.033179	0.914151	-0.293459
C150	C	1.008216	0.217909	-0.299447
N151	N	1.033202	0.149146	-0.293840
C152	C	0.631033	0.644564	-0.622486
N153	N	0.631123	0.590957	-0.597566
H154	H	0.496875	0.183574	0.067650
C155	C	0.117949	0.644593	-0.109425
N156	N	0.186257	0.591038	-0.152765
H157	H	1.054353	0.780305	-0.422937
C158	C	1.008141	0.409968	0.077872
N159	N	1.033117	0.416952	0.108513
C160	C	0.881468	0.374629	-0.172651
N161	N	0.856470	0.367680	-0.117029
H162	H	0.371841	0.697403	0.192442
H163	H	1.054390	0.256783	-0.423197
C164	C	-0.008800	0.644606	-0.109418
N165	N	0.009497	0.591060	-0.152751
C166	C	0.190343	0.780367	0.441054
N167	N	0.140326	0.780395	0.491075
H168	H	0.631005	0.897518	-0.368122
H169	H	0.999659	0.407365	-0.435456
H170	H	0.544773	0.923424	-0.511135
C171	C	1.008233	0.684349	-0.454508
N172	N	1.033228	0.646522	-0.510165
H173	H	0.262382	1.318945	0.067700
H174	H	0.207670	1.303676	0.000620
H175	H	0.262381	1.318982	0.302204
H176	H	0.890086	0.863204	-0.191594
C177	C	-0.101574	0.916055	0.110253
N178	N	-0.119880	0.969603	0.153591
H179	H	0.371817	1.017825	0.326726
H180	H	-0.204760	0.897594	0.095313
C181	C	1.008210	0.217938	-0.077462
N182	N	1.033218	0.149145	-0.108099
C183	C	0.253822	1.150640	-0.077061
N184	N	0.228834	1.143656	-0.107690
C185	C	0.253712	0.684366	0.300022
N186	N	0.228691	0.646514	0.294404
C187	C	1.071556	0.235612	0.000168
N188	N	1.121556	0.173804	0.000153
C189	C	0.380540	0.993982	-0.077121
N190	N	0.405547	0.925205	-0.107789
H191	H	0.277062	0.897541	0.095287
C192	C	0.151716	0.737989	-0.133598
N193	N	0.159910	0.721273	-0.186472
C194	C	0.881509	0.566501	-0.327834
N195	N	0.856513	0.635263	-0.333443
C196	C	0.253683	1.150859	0.455468
N197	N	0.228648	1.143947	0.511103
C198	C	0.881423	0.566626	0.077933
N199	N	0.856429	0.635404	0.108588
H200	H	0.890132	0.697353	-0.325825
C201	C	0.278452	0.737995	-0.133602
N202	N	0.336633	0.721305	-0.186475
C203	C	0.363521	0.644559	-0.109429
N204	N	0.381818	0.591014	-0.152763
H205	H	0.466718	0.662996	-0.094484
H206	H	0.890092	0.377019	-0.066842
C207	C	0.401831	0.343604	0.115113
N208	N	0.340589	0.350544	0.145777
C209	C	0.860128	0.217007	-0.114299
N210	N	0.921368	0.210072	-0.144965
C211	C	0.860125	0.060283	-0.114170
N212	N	0.921366	-0.008498	-0.144792
H213	H	0.765091	0.377021	-0.066831
C214	C	0.380473	1.185996	0.078235
N215	N	0.405444	1.192982	0.108881
H216	H	0.765082	0.017764	-0.066527
C217	C	0.475745	0.566560	0.077912
N218	N	0.414497	0.635335	0.108528
C219	C	0.531214	0.945938	-0.386219
N220	N	0.491844	1.011289	-0.341486
C221	C	0.401815	0.500324	0.114994
N222	N	0.340566	0.569098	0.145615
H223	H	0.630931	0.897611	-0.740383
C224	C	0.630960	0.916049	-0.622270
N225	N	0.630962	0.969594	-0.597236
C226	C	0.630935	0.644641	-0.749177
N227	N	0.630934	0.591100	-0.774216
H228	H	0.717184	0.637170	-0.488046
C229	C	0.730743	0.614658	-0.612953
N230	N	0.770096	0.549301	-0.657674
H231	H	0.630994	0.663028	-0.368274
H232	H	0.371845	0.863253	0.326623
C233	C	0.631055	0.644500	-0.250197
N234	N	0.631112	0.590913	-0.225260
H235	H	0.262360	0.863269	0.436122
