data_functionalizedCrystal
_audit_creation_method	'MofGen! by Chris Wilmer'
_symmetry_space_group_name_H-M	'P1'
_symmetry_Int_Tables_number	1
_symmetry_cell_setting	triclinic
loop_
_symmetry_equiv_pos_as_xyz
  x,y,z
_cell_length_a	16.959455
_cell_length_b	21.295417
_cell_length_c	16.959447
_cell_angle_alpha	89.968373
_cell_angle_beta	89.982507
_cell_angle_gamma	90.027454
loop_
_atom_site_label
_atom_site_type_symbol
_atom_site_fract_x
_atom_site_fract_y
_atom_site_fract_z
Zn1	Zn	1.208351	-0.250670	-0.446882
Zn2	Zn	1.708351	0.249330	0.053118
Zn3	Zn	1.208242	-0.355940	-0.314692
Zn4	Zn	1.708242	0.144060	0.185308
Zn5	Zn	1.076172	-0.250683	-0.314719
Zn6	Zn	1.576172	0.249317	0.185281
Zn7	Zn	1.076120	-0.355900	-0.446831
Zn8	Zn	1.576120	0.144100	0.053169
O9	O	1.142221	-0.303298	-0.380781
O10	O	1.642221	0.196702	0.119219
O11	O	1.318948	-0.264646	-0.429357
O12	O	1.818948	0.235354	0.070643
O13	O	1.190699	-0.342000	-0.204085
O14	O	1.690699	0.158000	0.295915
O15	O	1.093773	-0.162592	-0.332284
O16	O	1.593773	0.337408	0.167716
O17	O	1.318868	-0.341988	-0.332237
O18	O	1.818868	0.158012	0.167763
O19	O	1.190885	-0.162583	-0.429383
O20	O	1.690885	0.337417	0.070617
O21	O	1.093668	-0.264668	-0.204105
O22	O	1.593668	0.235332	0.295895
O23	O	0.965555	-0.264629	-0.332234
O24	O	1.465555	0.235371	0.167766
O25	O	1.093685	-0.341918	-0.557448
O26	O	1.593685	0.158082	-0.057448
O27	O	0.965516	-0.341931	-0.429296
O28	O	1.465516	0.158069	0.070704
O29	O	1.190834	-0.264607	-0.557486
O30	O	1.690834	0.235393	-0.057486
O31	O	1.190649	-0.444024	-0.332188
O32	O	1.690649	0.055976	0.167812
O33	O	1.093579	-0.443995	-0.429269
O34	O	1.593579	0.056005	0.070731
C35	C	0.936855	-0.303278	-0.380763
C36	C	1.436855	0.196722	0.119237
C37	C	0.848999	-0.303284	-0.380774
C38	C	1.348999	0.196716	0.119226
C39	C	0.477519	-0.263014	-0.330347
C40	C	0.977519	0.236986	0.169653
C41	C	0.477528	-0.343634	-0.431261
C42	C	0.977528	0.156366	0.068739
C43	C	0.560073	-0.343625	-0.431256
C44	C	1.060073	0.156375	0.068744
C45	C	0.601346	-0.303311	-0.380795
C46	C	1.101346	0.196689	0.119205
C47	C	0.560072	-0.263005	-0.330339
C48	C	1.060072	0.236995	0.169661
C49	C	0.601353	-0.383935	-0.481705
C50	C	1.101353	0.116065	0.018295
C51	C	0.683904	-0.383928	-0.481702
C52	C	1.183904	0.116072	0.018298
C53	C	0.725178	-0.343610	-0.431244
C54	C	1.225178	0.156390	0.068756
C55	C	0.683899	-0.303302	-0.380787
C56	C	1.183899	0.196698	0.119213
C57	C	0.725172	-0.262987	-0.330326
C58	C	1.225172	0.237013	0.169674
C59	C	0.683894	-0.222676	-0.279871
C60	C	1.183894	0.277324	0.220129
C61	C	0.601346	-0.222687	-0.279881
C62	C	1.101346	0.277313	0.220119
C63	C	0.807726	-0.343599	-0.431235
C64	C	1.307726	0.156401	0.068765
C65	C	0.807725	-0.262978	-0.330318
C66	C	1.307725	0.237022	0.169682
C67	C	1.142118	-0.466850	-0.380737
C68	C	1.642118	0.033150	0.119263
C69	C	1.142146	-0.536818	-0.380745
C70	C	1.642146	-0.036818	0.119255
C71	C	1.192735	-0.569679	-0.330246
C72	C	1.692735	-0.069679	0.169754
C73	C	1.192772	-0.635422	-0.330264
C74	C	1.692772	-0.135422	0.169736
C75	C	1.142206	-0.668301	-0.380772
C76	C	1.642206	-0.168301	0.119228
C77	C	1.091613	-0.635432	-0.431281
C78	C	1.591613	-0.135432	0.068719
C79	C	1.091583	-0.569690	-0.431267
C80	C	1.591583	-0.069690	0.068733
N81	N	1.073059	-0.771564	-0.386792
N82	N	1.573059	-0.271564	0.113208
N83	N	1.073090	-0.834015	-0.386800
N84	N	1.573090	-0.334015	0.113200
C85	C	1.142294	-0.866375	-0.380818
C86	C	1.642294	-0.366375	0.119182
N87	N	1.211468	-0.833925	-0.374811
N88	N	1.711468	-0.333925	0.125189
N89	N	1.211437	-0.771468	-0.374798
N90	N	1.711437	-0.271468	0.125202
C91	C	1.142233	-0.739586	-0.380793
C92	C	1.642233	-0.239586	0.119207
C93	C	1.192928	-0.970522	-0.330335
C94	C	1.692928	-0.470522	0.169665
C95	C	1.192966	-1.036266	-0.330359
C96	C	1.692966	-0.536266	0.169641
C97	C	1.091801	-1.036274	-0.431371
C98	C	1.591801	-0.536274	0.068629
C99	C	1.091769	-0.970532	-0.431352
C100	C	1.591769	-0.470532	0.068648
C101	C	1.142332	-0.937660	-0.380830
C102	C	1.642332	-0.437660	0.119170
C103	C	1.348390	-0.303320	-0.380800
C104	C	1.848390	0.196680	0.119200
C105	C	1.436246	-0.303329	-0.380808
C106	C	1.936246	0.196671	0.119192
C107	C	1.142266	-0.303257	-0.586949
C108	C	1.642266	0.196743	-0.086949
C109	C	1.142285	-0.303239	-0.674806
C110	C	1.642285	0.196761	-0.174806
C111	C	1.142347	-0.139108	-0.380842
C112	C	1.642347	0.360892	0.119158
C113	C	1.142401	-0.069140	-0.380868
C114	C	1.642401	0.430860	0.119132
C115	C	1.091713	-0.343484	-0.716062
C116	C	1.591713	0.156516	-0.216062
C117	C	1.192869	-0.262973	-0.716104
C118	C	1.692869	0.237027	-0.216104
C119	C	1.192886	-0.262952	-0.798650
C120	C	1.692886	0.237048	-0.298650
C121	C	1.142314	-0.303197	-0.839906
C122	C	1.642314	0.196803	-0.339906
C123	C	1.091726	-0.343463	-0.798616
C124	C	1.591726	0.156537	-0.298616
C125	C	1.243467	-0.222683	-0.839946
C126	C	1.743467	0.277317	-0.339946
C127	C	1.243485	-0.222660	-0.922497
C128	C	1.743485	0.277340	-0.422497
C129	C	1.192917	-0.262909	-0.963754
C130	C	1.692917	0.237091	-0.463754
C131	C	1.142328	-0.303177	-0.922459
C132	C	1.642328	0.196823	-0.422459
C133	C	1.091756	-0.343422	-0.963715
C134	C	1.591756	0.156578	-0.463715
C135	C	1.041170	-0.383693	-0.922421
C136	C	1.541170	0.116307	-0.422421
C137	C	1.041158	-0.383712	-0.839873
C138	C	1.541158	0.116288	-0.339873
C139	C	1.192929	-0.262890	-1.046303
C140	C	1.692929	0.237110	-0.546303
C141	C	1.091769	-0.343401	-1.046269
C142	C	1.591769	0.156599	-0.546269
C143	C	1.142223	-0.303295	-0.175415
C144	C	1.642223	0.196705	0.324585
C145	C	1.142357	-0.303135	-0.087559
C146	C	1.642357	0.196865	0.412441
H147	H	0.567731	-0.189869	-0.238803
H148	H	1.067731	0.310131	0.261197
C149	C	1.036133	-0.934383	-0.486921
C150	C	1.536133	-0.434383	0.013079
N151	N	0.994233	-0.907156	-0.528788
N152	N	1.494233	-0.407156	-0.028788
H153	H	0.717509	-0.189855	-0.238783
H154	H	1.217509	0.310145	0.261217
C155	C	1.248422	-0.671577	-0.274705
C156	C	1.748422	-0.171577	0.225295
N157	N	1.290336	-0.698806	-0.232856
N158	N	1.790336	-0.198806	0.267144
C159	C	1.035988	-0.671599	-0.486837
C160	C	1.535988	-0.171599	0.013163
N161	N	0.994089	-0.698841	-0.528684
N162	N	1.494089	-0.198841	-0.028684
C163	C	0.729301	-0.428268	-0.537205
C164	C	1.229301	0.071732	-0.037205
N165	N	0.763495	-0.461665	-0.579012
N166	N	1.263495	0.038335	-0.079012
C167	C	0.555949	-0.428279	-0.537206
C168	C	1.055949	0.071721	-0.037206
N169	N	0.521747	-0.461680	-0.579013
N170	N	1.021747	0.038320	-0.079013
C171	C	0.853118	-0.218628	-0.274805
C172	C	1.353118	0.281372	0.225195
N173	N	0.887307	-0.185224	-0.232992
N174	N	1.387307	0.314776	0.267008
C175	C	0.985512	-0.428000	-0.794444
C176	C	1.485512	0.072000	-0.294444
N177	N	0.943595	-0.461355	-0.760224
N178	N	1.443595	0.038645	-0.260224
H179	H	1.050387	-0.542934	-0.472390
H180	H	1.550387	-0.042934	0.027610
H181	H	1.050590	-0.376176	-1.079853
H182	H	1.550590	0.123824	-0.579853
H183	H	1.234102	-0.943757	-0.289200
H184	H	1.734102	-0.443757	0.210800
H185	H	0.999991	-0.416457	-0.956023
H186	H	1.499991	0.083543	-0.456023
H187	H	1.234167	-1.063020	-0.289238
H188	H	1.734167	-0.563020	0.210762
C189	C	1.036069	-0.387778	-0.670639
C190	C	1.536069	0.112222	-0.170639
N191	N	0.994156	-0.421140	-0.636425
N192	N	1.494156	0.078860	-0.136425
H193	H	1.050632	-1.063043	-0.472499
H194	H	1.550632	-0.563043	0.027501
H195	H	1.234039	-0.230205	-0.682508
H196	H	1.734039	0.269795	-0.182508
C197	C	1.248569	-0.218594	-1.091722
C198	C	1.748569	0.281406	-0.591722
N199	N	1.290483	-0.185230	-1.125931
N200	N	1.790483	0.314770	-0.625931
H201	H	0.443919	-0.376460	-0.472339
H202	H	0.943919	0.123540	0.027661
C203	C	0.432114	-0.218673	-0.274850
C204	C	0.932114	0.281327	0.225150
N205	N	0.397914	-0.185276	-0.233049
N206	N	0.897914	0.314724	0.266951
H207	H	0.841331	-0.376421	-0.472312
H208	H	1.341331	0.123579	0.027688
H209	H	1.233908	-0.542917	-0.289110
H210	H	1.733908	-0.042917	0.210890
C211	C	1.299086	-0.178412	-0.794560
C212	C	1.799086	0.321588	-0.294560
N213	N	1.340980	-0.145066	-0.760371
N214	N	1.840980	0.354934	-0.260371
C215	C	1.299135	-0.178365	-0.967912
C216	C	1.799135	0.321635	-0.467912
N217	N	1.341054	-0.145004	-1.002120
N218	N	1.841054	0.354996	-0.502120
