data_functionalizedCrystal
_audit_creation_method	'MofGen! by Chris Wilmer'
_symmetry_space_group_name_H-M	'P1'
_symmetry_Int_Tables_number	1
_symmetry_cell_setting	triclinic
loop_
_symmetry_equiv_pos_as_xyz
  x,y,z
_cell_length_a	16.625539
_cell_length_b	21.395362
_cell_length_c	21.395362
_cell_angle_alpha	89.954332
_cell_angle_beta	89.969394
_cell_angle_gamma	90.036465
loop_
_atom_site_label
_atom_site_type_symbol
_atom_site_fract_x
_atom_site_fract_y
_atom_site_fract_z
Zn1	Zn	-0.456304	-0.957817	-0.249183
Zn2	Zn	-0.321461	-0.957735	-0.353962
Zn3	Zn	-0.321439	-0.853046	-0.249231
Zn4	Zn	-0.456205	-0.853003	-0.353956
O5	O	-0.388852	-0.905400	-0.301583
O6	O	-0.438467	-1.045484	-0.263065
O7	O	-0.208626	-0.943831	-0.340091
O8	O	-0.339360	-0.866996	-0.161547
O9	O	-0.339399	-1.045424	-0.340045
O10	O	-0.438445	-0.943971	-0.161512
O11	O	-0.208609	-0.866917	-0.263146
O12	O	-0.339265	-0.765362	-0.263141
O13	O	-0.569051	-0.866923	-0.340036
O14	O	-0.438278	-0.765331	-0.340082
O15	O	-0.569123	-0.943930	-0.263059
O16	O	-0.339303	-0.943790	-0.441639
O17	O	-0.438299	-0.866844	-0.441635
C18	C	-0.388759	-0.742613	-0.301616
C19	C	-0.388738	-0.672971	-0.301645
C20	C	-0.388811	-0.905320	-0.464371
C21	C	-0.388820	-0.905343	-0.534012
C22	C	-0.599161	-0.905431	-0.301542
C23	C	-0.688782	-0.905444	-0.301524
C24	C	-0.761565	-0.905454	-0.301510
C25	C	-0.852873	-0.905469	-0.301487
C26	C	-0.925650	-0.905484	-0.301465
C27	C	-1.016964	-0.905499	-0.301442
C28	C	-0.179361	-0.905406	-0.301579
C29	C	-0.089741	-0.905514	-0.301420
C30	C	-0.388947	-1.068824	-0.301550
C31	C	-0.388987	-1.138465	-0.301536
C32	C	-0.440216	-0.640258	-0.341762
C33	C	-0.440252	-0.574823	-0.341746
C34	C	-0.388795	-0.542103	-0.301621
C35	C	-0.337313	-0.574824	-0.261497
C36	C	-0.337284	-0.640258	-0.261509
C37	C	-0.316208	-0.438386	-0.296584
C38	C	-0.316235	-0.372953	-0.296576
C39	C	-0.388884	-0.340282	-0.301580
C40	C	-0.461508	-0.373053	-0.306606
C41	C	-0.461480	-0.438487	-0.306618
C42	C	-0.388821	-0.471151	-0.301603
C43	C	-0.440406	-0.236617	-0.341682
C44	C	-0.440443	-0.171180	-0.341662
C45	C	-0.337497	-0.171183	-0.261416
C46	C	-0.337467	-0.236618	-0.261433
C47	C	-0.388920	-0.269331	-0.301569
C48	C	-0.440450	-0.945401	-0.566650
C49	C	-0.440470	-0.945423	-0.632085
C50	C	-0.388845	-0.905394	-0.664880
C51	C	-0.337211	-0.865328	-0.632234
C52	C	-0.337199	-0.865303	-0.566800
C53	C	-0.316212	-0.900524	-0.768592
C54	C	-0.316223	-0.900554	-0.834025
C55	C	-0.388884	-0.905468	-0.866701
C56	C	-0.461536	-0.910366	-0.833936
C57	C	-0.461523	-0.910341	-0.768502
C58	C	-0.388853	-0.905417	-0.735833
C59	C	-0.440540	-0.945552	-0.970291
C60	C	-0.440561	-0.945570	-1.035728
C61	C	-0.337295	-0.865478	-1.035876
C62	C	-0.337281	-0.865457	-0.970440
C63	C	-0.388903	-0.905498	-0.937652
C64	C	-0.388911	-0.905498	-0.138160
C65	C	-0.388937	-0.905539	-0.068518
H66	H	-0.482115	-0.666889	-0.374443
H67	H	-0.482523	-0.978038	-0.658664
C68	C	-0.541470	-0.915770	-0.869875
N69	N	-0.601674	-0.919841	-0.896947
C70	C	-0.280518	-0.821436	-1.071946
N71	N	-0.237756	-0.788259	-1.099118
C72	C	-0.497015	-0.272603	-0.385825
N73	N	-0.539655	-0.299707	-0.419073
H74	H	-0.257066	-0.896570	-0.860697
H75	H	-0.295180	-0.832735	-0.658940
C76	C	-0.541439	-0.915723	-0.732463
N77	N	-0.601633	-0.919774	-0.705319
C78	C	-0.496882	-0.538831	-0.385881
N79	N	-0.539535	-0.511724	-0.419125
H80	H	-0.295364	-0.666893	-0.228840
C81	C	-0.497335	-0.989589	-0.934222
N82	N	-0.540116	-1.022755	-0.907057
H83	H	-0.295154	-0.832682	-0.540226
H84	H	-0.295418	-0.548179	-0.228826
C85	C	-0.236273	-0.895130	-0.732654
N86	N	-0.176064	-0.891071	-0.705587
C87	C	-0.541364	-0.474533	-0.312145
N88	N	-0.601535	-0.501682	-0.316307
H89	H	-0.257044	-0.464980	-0.292506
H90	H	-0.482608	-0.978190	-1.062301
C91	C	-0.541429	-0.337121	-0.312108
N92	N	-0.601624	-0.310054	-0.316253
C93	C	-0.497070	-0.135196	-0.385801
N94	N	-0.539719	-0.108092	-0.419051
C95	C	-0.280894	-0.135195	-0.217278
N96	N	-0.238260	-0.108085	-0.184030
C97	C	-0.280488	-0.821386	-0.934537
N98	N	-0.237713	-0.788186	-0.907495
H99	H	-0.295543	-0.263253	-0.228769
C100	C	-0.497231	-0.989451	-0.530587
N101	N	-0.539997	-1.022631	-0.503423
H102	H	-0.257100	-0.346276	-0.292488
