data_functionalizedCrystal
_audit_creation_method	'MofGen! by Chris Wilmer'
_symmetry_space_group_name_H-M	'P1'
_symmetry_Int_Tables_number	1
_symmetry_cell_setting	triclinic
loop_
_symmetry_equiv_pos_as_xyz
  x,y,z
_cell_length_a	15.995350
_cell_length_b	11.792241
_cell_length_c	14.472311
_cell_angle_alpha	89.996568
_cell_angle_beta	89.997596
_cell_angle_gamma	96.157105
loop_
_atom_site_label
_atom_site_type_symbol
_atom_site_fract_x
_atom_site_fract_y
_atom_site_fract_z
O1	O	1.111653	-0.146281	-0.076763
O2	O	0.867959	-0.164347	-0.076782
O3	O	0.995720	0.009906	-0.076766
O4	O	0.983892	-0.320534	-0.076779
O5	O	0.995703	0.009883	0.076916
O6	O	0.867942	-0.164370	0.076900
O7	O	1.111636	-0.146304	0.076919
Cu8	Cu	0.989787	-0.155339	0.090942
Cu9	Cu	0.989808	-0.155312	-0.090805
O10	O	0.983875	-0.320557	0.076903
C11	C	0.836753	-0.163612	0.000057
C12	C	0.743792	-0.161372	0.000049
N13	N	0.989822	-0.155285	-0.218636
C14	C	0.994968	0.052179	0.000075
C15	C	0.992745	0.178174	0.000074
C16	C	0.406008	-0.153331	0.000069
C17	C	0.452879	-0.029232	0.000417
C18	C	0.549579	-0.031471	0.000064
C19	C	0.573587	-0.157320	0.000060
C20	C	0.532787	-0.218517	-0.087699
C21	C	0.436137	-0.215399	-0.087766
C22	C	0.435791	-0.217989	0.086999
C23	C	0.532736	-0.217960	0.088153
C24	C	0.668295	-0.159581	0.000052
C25	C	0.311300	-0.151074	0.000071
C26	C	1.142842	-0.147040	0.000078
C27	C	1.235803	-0.149279	0.000079
C28	C	0.984627	-0.362830	0.000060
C29	C	0.986850	-0.488825	0.000055
C30	C	0.988655	0.408852	0.000058
C31	C	0.990927	0.280486	0.000067
N32	N	0.989779	-0.155357	0.218773
C33	C	0.989794	-0.155332	0.407273
C34	C	0.921420	-0.248538	0.446494
C35	C	0.921183	-0.248284	0.553582
C36	C	0.989808	-0.155310	0.592864
C37	C	0.970545	-0.036742	0.553977
C38	C	0.970045	-0.037302	0.446856
C39	C	1.077637	-0.179626	0.446738
C40	C	1.077069	-0.182303	0.553866
C41	C	0.989818	-0.155289	0.697752
C42	C	0.989782	-0.155345	0.302385
H43	H	0.434124	0.020364	0.063353
N44	N	0.408352	-0.164252	0.175113
H45	H	0.428120	-0.207048	0.230011
H46	H	0.345001	-0.167653	0.176268
H47	H	0.547332	-0.310974	-0.090965
H48	H	0.932684	-0.336404	0.579876
N49	N	0.886649	-0.007795	0.589515
H50	H	0.874817	0.068644	0.564106
H51	H	0.888046	-0.004392	0.659235
H52	H	0.856007	-0.232707	0.579222
H53	H	1.096094	-0.264269	0.419727
N54	N	1.033436	0.057397	0.412443
H55	H	1.077232	0.024035	0.373633
H56	H	1.061541	0.099313	0.466903
H57	H	0.559842	-0.173287	0.153076
N58	N	0.411618	-0.156259	-0.174654
H59	H	0.463572	-0.132454	-0.212551
H60	H	0.383351	-0.086601	-0.157566
N61	N	1.034748	0.057385	0.587671
H62	H	1.077040	0.023993	0.628566
H63	H	1.005501	0.114716	0.623987
H64	H	1.091674	-0.269538	0.579268
H65	H	0.404444	-0.309487	0.087590
H66	H	1.130355	-0.118848	0.580605
H67	H	0.932731	-0.336959	0.420743
N68	N	1.145038	-0.089601	0.413136
H69	H	1.147085	-0.090782	0.343394
H70	H	1.201294	-0.105697	0.438773
N71	N	0.835561	-0.228215	0.410865
H72	H	0.840762	-0.158896	0.369427
H73	H	0.797579	-0.215190	0.464714
H74	H	0.433068	0.020155	-0.062167
H75	H	0.577224	0.016978	-0.062951
N76	N	0.586946	0.032240	0.083395
H77	H	0.540604	0.062038	0.120688
H78	H	0.628005	0.098243	0.062369
N79	N	0.393960	-0.336081	-0.093009
H80	H	0.438177	-0.391068	-0.095276
H81	H	0.358104	-0.345191	-0.150518
H82	H	0.548517	-0.309734	0.093450
N83	N	0.570110	-0.162200	-0.174219
H84	H	0.632740	-0.167238	-0.175225
H85	H	0.559085	-0.079464	-0.175035
N86	N	0.885183	-0.009036	0.413767
H87	H	0.848451	0.003668	0.468766
H88	H	0.857770	-0.074334	0.375470
