data_functionalizedCrystal
_audit_creation_method	'MofGen! by Chris Wilmer'
_symmetry_space_group_name_H-M	'P1'
_symmetry_Int_Tables_number	1
_symmetry_cell_setting	triclinic
loop_
_symmetry_equiv_pos_as_xyz
  x,y,z
_cell_length_a	14.971482
_cell_length_b	10.654551
_cell_length_c	13.448316
_cell_angle_alpha	89.996249
_cell_angle_beta	89.993798
_cell_angle_gamma	84.048985
loop_
_atom_site_label
_atom_site_type_symbol
_atom_site_fract_x
_atom_site_fract_y
_atom_site_fract_z
O1	O	1.187840	0.163637	-0.082673
O2	O	0.927546	0.183240	-0.082677
O3	O	1.063678	-0.009365	-0.082675
O4	O	1.051709	0.356242	-0.082674
O5	O	1.063660	-0.009377	0.082709
O6	O	0.927529	0.183228	0.082707
O7	O	1.187823	0.163625	0.082711
Cu8	Cu	1.057675	0.173426	0.097810
Cu9	Cu	1.057695	0.173440	-0.097776
O10	O	1.051692	0.356230	0.082710
C11	C	0.894208	0.182358	0.000015
C12	C	0.794897	0.179734	0.000013
C13	C	0.748236	0.178491	0.090165
C14	C	0.654924	0.176005	0.090166
C15	C	0.608274	0.174770	0.000014
C16	C	0.654941	0.176009	-0.090145
C17	C	0.748252	0.178486	-0.090145
C18	C	0.460451	0.170849	-0.090138
C19	C	0.367134	0.168374	-0.090139
C20	C	0.367123	0.168367	0.090172
C21	C	0.460434	0.170845	0.090172
C22	C	0.507095	0.172086	0.000013
C23	C	1.062790	-0.056159	0.000015
C24	C	1.060160	-0.195574	0.000008
C25	C	1.058936	-0.261067	-0.090141
C26	C	1.056457	-0.392060	-0.090137
C27	C	1.056431	-0.392059	0.090174
C28	C	1.058903	-0.261066	0.090168
C29	C	1.060193	-0.195575	-0.180302
C30	C	1.058970	-0.261067	-0.270458
C31	C	1.056491	-0.392061	-0.270453
C32	C	1.055236	-0.457562	-0.180293
C33	C	1.221161	0.164507	0.000018
C34	C	1.320473	0.167131	0.000013
C35	C	1.052580	0.403025	0.000018
C36	C	1.055209	0.542439	0.000018
N37	N	1.057667	0.173415	0.235374
N38	N	1.057710	0.173440	-0.235340
C39	C	1.117965	0.088164	0.287415
C40	C	1.117970	0.088163	0.391519
C41	C	1.057681	0.173420	0.443579
C42	C	0.997377	0.258674	0.391531
C43	C	0.997368	0.258668	0.287429
C44	C	0.997402	0.258683	0.608511
C45	C	0.997412	0.258691	0.712619
C46	C	1.118004	0.088178	0.712600
C47	C	1.117995	0.088172	0.608499
C48	C	1.057692	0.173428	0.556458
H49	H	0.616939	0.174972	0.163576
H50	H	0.786242	0.179501	-0.163556
C51	C	0.931094	0.352462	0.769889
H52	H	0.939746	0.340261	0.839340
H53	H	0.871315	0.338678	0.752849
H54	H	0.941321	0.436306	0.752818
H55	H	1.062214	-0.088914	-0.180315
C56	C	1.055056	-0.464102	0.189343
H57	H	1.056132	-0.406333	0.243034
H58	H	1.106159	-0.524703	0.193096
H59	H	1.002016	-0.505699	0.193088
H60	H	0.948293	0.328104	0.566142
H61	H	1.167069	0.018745	0.433890
H62	H	0.786211	0.179507	0.163577
C63	C	1.052485	-0.601648	-0.180289
H64	H	1.051932	-0.631274	-0.246892
H65	H	0.999848	-0.621757	-0.146992
H66	H	1.103990	-0.640804	-0.146993
H67	H	0.498413	0.171858	0.163582
C68	C	0.315752	0.167560	0.189344
H69	H	0.253485	0.166064	0.176435
H70	H	0.324802	0.241318	0.226096
H71	H	0.337252	0.094949	0.226674
C72	C	1.055140	-0.464105	-0.369616
H73	H	1.053478	-0.551498	-0.356704
H74	H	1.107619	-0.452140	-0.406656
H75	H	1.003477	-0.433131	-0.406661
C76	C	1.184288	-0.005607	0.230153
H77	H	1.175656	0.006606	0.160700
H78	H	1.174066	-0.089448	0.247221
H79	H	1.244067	0.008188	0.247204
H80	H	0.329153	0.167370	-0.163548
H81	H	1.167091	0.018756	0.566111
C82	C	0.511776	0.172224	-0.189311
H83	H	0.470629	0.171149	-0.243003
H84	H	0.554551	0.100017	-0.193066
H85	H	0.541801	0.246381	-0.193052
C86	C	1.060350	-0.189022	-0.369626
H87	H	1.062010	-0.101629	-0.356720
H88	H	1.007882	-0.200984	-0.406674
H89	H	1.112025	-0.219998	-0.406661
H90	H	0.616952	0.174995	-0.163548
C91	C	1.060251	-0.189020	0.189330
H92	H	1.059161	-0.246786	0.243027
H93	H	1.009147	-0.128420	0.193070
H94	H	1.113290	-0.147421	0.193076
C95	C	1.184330	-0.005612	0.769841
H96	H	1.175694	0.006587	0.839295
H97	H	1.244106	0.008163	0.752769
H98	H	1.174092	-0.089453	0.752784
H99	H	0.948284	0.328088	0.433924
H100	H	0.948266	0.328086	0.245058
