data_functionalizedCrystal
_audit_creation_method	'MofGen! by Chris Wilmer'
_symmetry_space_group_name_H-M	'P1'
_symmetry_Int_Tables_number	1
_symmetry_cell_setting	triclinic
loop_
_symmetry_equiv_pos_as_xyz
  x,y,z
_cell_length_a	14.044191
_cell_length_b	12.503572
_cell_length_c	11.792241
_cell_angle_alpha	93.547243
_cell_angle_beta	91.307404
_cell_angle_gamma	93.837835
loop_
_atom_site_label
_atom_site_type_symbol
_atom_site_fract_x
_atom_site_fract_y
_atom_site_fract_z
O1	O	1.264548	0.089269	-0.267796
O2	O	1.597881	0.422602	0.065538
O3	O	1.931214	0.755936	0.398871
O4	O	0.988528	0.089283	-0.257907
O5	O	1.321861	0.422616	0.075426
O6	O	1.655195	0.755949	0.408759
O7	O	1.133235	0.089268	-0.098311
O8	O	1.466569	0.422601	0.235023
O9	O	1.799902	0.755935	0.568356
O10	O	1.119840	0.089284	-0.427393
O11	O	1.453173	0.422617	-0.094059
O12	O	1.786507	0.755950	0.239274
O13	O	1.122353	-0.089373	-0.110335
O14	O	1.455686	0.243960	0.222998
O15	O	1.789019	0.577294	0.556332
O16	O	0.977645	-0.089358	-0.269932
O17	O	1.310978	0.243975	0.063402
O18	O	1.644312	0.577308	0.396735
O19	O	1.253665	-0.089372	-0.279820
O20	O	1.586998	0.243961	0.053513
O21	O	1.920331	0.577295	0.386847
Cu22	Cu	1.114661	-0.105676	-0.275974
Cu23	Cu	1.447995	0.227657	0.057359
Cu24	Cu	1.781328	0.560990	0.390693
Cu25	Cu	1.127531	0.105587	-0.261754
Cu26	Cu	1.460865	0.438920	0.071580
Cu27	Cu	1.794198	0.772254	0.404913
O28	O	1.108957	-0.089357	-0.439417
O29	O	1.442291	0.243976	-0.106084
O30	O	1.775624	0.577309	0.227250
C31	C	0.947750	-0.000036	-0.259594
C32	C	1.281083	0.333297	0.073739
C33	C	1.614417	0.666630	0.407073
C34	C	0.842458	-0.000031	-0.246692
C35	C	1.175791	0.333302	0.086642
C36	C	1.509125	0.666635	0.419975
C37	C	0.592520	-0.000039	-0.314609
C38	C	0.925853	0.333295	0.018724
C39	C	1.259187	0.666628	0.352057
C40	C	0.649679	-0.000041	-0.223123
C41	C	0.983012	0.333292	0.110211
C42	C	1.316345	0.666625	0.443544
C43	C	0.756951	-0.000036	-0.236240
C44	C	1.090284	0.333298	0.097094
C45	C	1.423618	0.666631	0.430427
C46	C	0.485238	-0.000044	-0.301494
C47	C	0.818571	0.333289	0.031839
C48	C	1.151905	0.666622	0.365172
N49	N	1.105616	-0.254268	-0.285976
N50	N	1.438949	0.079066	0.047358
N51	N	1.772283	0.412399	0.380691
C52	C	1.092310	-0.473382	-0.300698
C53	C	1.425643	-0.140048	0.032635
C54	C	1.758977	0.193285	0.365969
C55	C	1.149887	-0.526715	-0.237025
C56	C	1.483220	-0.193381	0.096309
C57	C	1.816554	0.139952	0.429642
C58	C	1.142483	-0.648637	-0.245217
C59	C	1.475817	-0.315304	0.088117
C60	C	1.809150	0.018030	0.421450
C61	C	1.099713	-0.351448	-0.292508
C62	C	1.433046	-0.018115	0.040826
C63	C	1.766379	0.315219	0.374159
C64	C	1.294443	-0.000051	-0.278133
C65	C	1.627776	0.333283	0.055200
C66	C	1.961110	0.666616	0.388533
C67	C	1.399735	-0.000049	-0.291035
C68	C	1.733069	0.333285	0.042298
C69	C	2.066402	0.666618	0.375631
C70	C	1.126953	-0.000052	-0.061953
C71	C	1.460286	0.333281	0.271381
C72	C	1.793619	0.666615	0.604714
C73	C	1.124434	-0.000051	0.064297
C74	C	1.457767	0.333282	0.397631
C75	C	1.791101	0.666616	0.730964
N76	N	1.136584	0.254178	-0.251744
N77	N	1.469917	0.587512	0.081590
N78	N	1.803251	0.920845	0.414923
C79	C	1.115240	-0.000035	-0.475775
C80	C	1.448574	0.333299	-0.142441
C81	C	1.781907	0.666632	0.190892
C82	C	1.117759	-0.000029	-0.602024
C83	C	1.451093	0.333304	-0.268691
C84	C	1.784426	0.666638	0.064642
C85	C	1.119804	-0.000033	0.295446
C86	C	1.453137	0.333301	0.628779
C87	C	1.786470	0.666634	0.962112
C88	C	1.122376	-0.000043	0.166818
C89	C	1.455710	0.333291	0.500152
C90	C	1.789043	0.666624	0.833485
H91	H	0.618055	0.000030	-0.134942
H92	H	0.951388	0.333364	0.198391
H93	H	1.284721	0.666697	0.531725
C94	C	1.018192	-0.535385	-0.382622
C95	C	1.351525	-0.202052	-0.049289
C96	C	1.684859	0.131282	0.284044
H97	H	0.983027	-0.485892	-0.421486
H98	H	1.316361	-0.152559	-0.088153
H99	H	1.649694	0.180774	0.245180
H100	H	1.049979	-0.579267	-0.436206
H101	H	1.383312	-0.245934	-0.102873
H102	H	1.716646	0.087399	0.230461
H103	H	0.975825	-0.579246	-0.340698
H104	H	1.309158	-0.245912	-0.007365
H105	H	1.642491	0.087421	0.325968
C106	C	0.635243	-0.000017	-0.433718
C107	C	0.968576	0.333317	-0.100384
C108	C	1.301909	0.666650	0.232949
H109	H	0.702784	-0.000003	-0.427017
H110	H	1.036117	0.333330	-0.093683
H111	H	1.369450	0.666664	0.239650
H112	H	0.610872	-0.062305	-0.478012
H113	H	0.944205	0.271028	-0.144679
H114	H	1.277539	0.604361	0.188655
H115	H	0.618449	0.062294	-0.469599
H116	H	0.951782	0.395628	-0.136265
H117	H	1.285116	0.728961	0.197068
C118	C	1.223996	-0.464711	-0.155076
C119	C	1.557329	-0.131377	0.178257
C120	C	1.890663	0.201956	0.511590
H121	H	1.259145	-0.514209	-0.116200
H122	H	1.592478	-0.180875	0.217133
H123	H	1.925812	0.152458	0.550467
H124	H	1.266366	-0.420835	-0.196970
H125	H	1.599700	-0.087502	0.136363
H126	H	1.933033	0.245831	0.469696
H127	H	1.192189	-0.420844	-0.101488
H128	H	1.525522	-0.087511	0.231845
H129	H	1.858856	0.245823	0.565178
