data_functionalizedCrystal
_audit_creation_method	'MofGen! by Chris Wilmer'
_symmetry_space_group_name_H-M	'P1'
_symmetry_Int_Tables_number	1
_symmetry_cell_setting	triclinic
loop_
_symmetry_equiv_pos_as_xyz
  x,y,z
_cell_length_a	16.625546
_cell_length_b	12.759395
_cell_length_c	12.759387
_cell_angle_alpha	89.980569
_cell_angle_beta	89.964440
_cell_angle_gamma	90.022313
loop_
_atom_site_label
_atom_site_type_symbol
_atom_site_fract_x
_atom_site_fract_y
_atom_site_fract_z
Zn1	Zn	-0.320962	1.606212	-0.593940
Zn2	Zn	0.179038	2.106212	-0.093940
Zn3	Zn	-0.455818	1.606079	-0.418246
Zn4	Zn	0.044182	2.106079	0.081754
Zn5	Zn	-0.321002	1.430510	-0.418280
Zn6	Zn	0.178998	1.930510	0.081720
Zn7	Zn	-0.455756	1.430479	-0.593888
Zn8	Zn	0.044244	1.930479	-0.093888
O9	O	-0.388385	1.518320	-0.506089
O10	O	0.111615	2.018320	-0.006089
O11	O	-0.338860	1.753215	-0.570641
O12	O	0.161140	2.253215	-0.070641
O13	O	-0.437977	1.582747	-0.271229
O14	O	0.062023	2.082747	0.228771
O15	O	-0.208165	1.453886	-0.441618
O16	O	0.291835	1.953886	0.058382
O17	O	-0.437938	1.753117	-0.441559
O18	O	0.062062	2.253117	0.058441
O19	O	-0.208135	1.582974	-0.570674
O20	O	0.291865	2.082974	-0.070674
O21	O	-0.338928	1.453757	-0.271255
O22	O	0.161072	1.953757	0.228745
O23	O	-0.338869	1.283485	-0.441568
O24	O	0.161131	1.783485	0.058432
O25	O	-0.437833	1.453833	-0.740916
O26	O	0.062167	1.953833	-0.240916
O27	O	-0.437872	1.283462	-0.570586
O28	O	0.062128	1.783462	-0.070586
O29	O	-0.338801	1.582943	-0.740954
O30	O	0.161199	2.082943	-0.240954
O31	O	-0.568642	1.582716	-0.441509
O32	O	-0.068642	2.082716	0.058491
O33	O	-0.568597	1.453703	-0.570553
O34	O	-0.068597	1.953703	-0.070553
C35	C	-0.388369	1.245352	-0.506076
C36	C	0.111631	1.745352	-0.006076
C37	C	-0.388381	1.128576	-0.506095
C38	C	0.111619	1.628576	-0.006095
C39	C	-0.285379	1.128658	-0.640725
C40	C	0.214621	1.628658	-0.140725
C41	C	-0.233887	1.073839	-0.708048
C42	C	0.266113	1.573839	-0.208048
C43	C	-0.233901	0.964117	-0.708062
C44	C	0.266099	1.464117	-0.208062
C45	C	-0.285411	0.909213	-0.640742
C46	C	0.214589	1.409213	-0.140742
C47	C	-0.336903	0.964032	-0.573418
C48	C	0.163097	1.464032	-0.073418
C49	C	-0.336884	1.073756	-0.573415
C50	C	0.163116	1.573756	-0.073415
C51	C	-0.439900	0.963949	-0.438785
C52	C	0.060100	1.463949	0.061215
C53	C	-0.439891	1.073671	-0.438775
C54	C	0.060109	1.573671	0.061225
C55	C	-0.491410	0.909045	-0.371465
C56	C	0.008590	1.409045	0.128535
C57	C	-0.542907	0.963864	-0.304145
C58	C	-0.042907	1.463864	0.195855
C59	C	-0.542891	1.073593	-0.304136
C60	C	-0.042891	1.573593	0.195864
C61	C	-0.491383	1.128491	-0.371452
C62	C	0.008617	1.628491	0.128548
C63	C	-0.597876	1.518220	-0.506045
C64	C	-0.097876	2.018220	-0.006045
C65	C	-0.687497	1.518274	-0.506061
C66	C	-0.187497	2.018274	-0.006061
C67	C	-1.015672	1.518457	-0.506170
C68	C	-0.515672	2.018457	-0.006170
C69	C	-0.924364	1.518403	-0.506143
C70	C	-0.424364	2.018403	-0.006143
C71	C	-0.851587	1.518365	-0.506115
C72	C	-0.351587	2.018365	-0.006115
C73	C	-0.760273	1.518312	-0.506089
C74	C	-0.260273	2.018312	-0.006089
C75	C	-0.178076	1.518448	-0.506156
C76	C	0.321924	2.018448	-0.006156
C77	C	-0.088455	1.518503	-0.506184
C78	C	0.411545	2.018503	-0.006184
C79	C	-0.388306	1.518399	-0.780122
C80	C	0.111694	2.018399	-0.280122
C81	C	-0.388272	1.518433	-0.896899
C82	C	0.111728	2.018433	-0.396899
C83	C	-0.388401	1.792353	-0.506102
C84	C	0.111599	2.292353	-0.006102
C85	C	-0.388409	1.909130	-0.506108
C86	C	0.111591	2.409130	-0.006108
C87	C	-0.285156	1.652885	-0.896958
C88	C	0.214844	2.152885	-0.396958
C89	C	-0.233586	1.720125	-0.951849
C90	C	0.266414	2.220125	-0.451849
C91	C	-0.233557	1.720151	-1.061571
C92	C	0.266443	2.220151	-0.561571
C93	C	-0.285101	1.652927	-1.116404
C94	C	0.214899	2.152927	-0.616404
C95	C	-0.336671	1.585686	-1.061514
C96	C	0.163329	2.085686	-0.561514
C97	C	-0.336697	1.585670	-0.951790
C98	C	0.163303	2.085670	-0.451790
C99	C	-0.439782	1.451230	-1.061454
C100	C	0.060218	1.951230	-0.561454
C101	C	-0.439817	1.451209	-0.951733
C102	C	0.060183	1.951209	-0.451733
C103	C	-0.491326	1.384006	-1.116288
C104	C	0.008674	1.884006	-0.616288
C105	C	-0.542902	1.316769	-1.061398
C106	C	-0.042902	1.816769	-0.561398
C107	C	-0.542929	1.316747	-0.951669
C108	C	-0.042929	1.816747	-0.451669
C109	C	-0.491386	1.383968	-0.896842
C110	C	0.008614	1.883968	-0.396842
C111	C	-0.388405	1.518301	-0.233121
C112	C	0.111595	2.018301	0.266879
C113	C	-0.388212	1.518471	-0.116345
C114	C	0.111788	2.018471	0.383655
H115	H	-0.285358	1.217999	-0.640717
H116	H	0.214642	1.717999	-0.140717
H117	H	-0.491408	1.383961	-0.807501
H118	H	0.008592	1.883961	-0.307501
H119	H	-0.191947	1.118554	-0.762857
H120	H	0.308053	1.618554	-0.262857
Br121	Br	-0.285051	1.652950	-1.265313
Br122	Br	0.214949	2.152950	-0.765313
H123	H	-0.191559	1.774898	-1.106262
H124	H	0.308441	2.274898	-0.606262
H125	H	-0.491361	1.217832	-0.371446
H126	H	0.008639	1.717832	0.128554
Br127	Br	-0.612840	1.225537	-1.135818
Br128	Br	-0.112840	1.725537	-0.635818
Br129	Br	-0.612915	1.225478	-0.877184
Br130	Br	-0.112915	1.725478	-0.377184
Br131	Br	-0.164012	0.889715	-0.799419
Br132	Br	0.335988	1.389715	-0.299419
H133	H	-0.491296	1.384028	-1.205629
H134	H	0.008704	1.884028	-0.705629
H135	H	-0.285412	0.819871	-0.640750
H136	H	0.214588	1.319871	-0.140750
H137	H	-0.491416	0.819704	-0.371477
H138	H	0.008584	1.319704	0.128523
H139	H	-0.584838	0.919152	-0.249334
H140	H	-0.084838	1.419152	0.250666
H141	H	-0.285183	1.652881	-0.807617
H142	H	0.214817	2.152881	-0.307617
Br143	Br	-0.612771	1.147981	-0.212756
Br144	Br	-0.112771	1.647981	0.287244
H145	H	-0.191619	1.774856	-0.907191
H146	H	0.308381	2.274856	-0.407191
