data_functionalizedCrystal
_audit_creation_method	'MofGen! by Chris Wilmer'
_symmetry_space_group_name_H-M	'P1'
_symmetry_Int_Tables_number	1
_symmetry_cell_setting	triclinic
loop_
_symmetry_equiv_pos_as_xyz
  x,y,z
_cell_length_a	27.732048
_cell_length_b	13.185407
_cell_length_c	12.376457
_cell_angle_alpha	97.389854
_cell_angle_beta	78.807411
_cell_angle_gamma	67.308069
loop_
_atom_site_label
_atom_site_type_symbol
_atom_site_fract_x
_atom_site_fract_y
_atom_site_fract_z
O1	O	0.636437	0.108970	-0.093859
O2	O	0.493141	0.128735	-0.093893
O3	O	0.589339	-0.040307	-0.093866
O4	O	0.540239	0.278013	-0.093886
O5	O	0.565304	0.001896	0.094140
O6	O	0.469105	0.170939	0.094112
O7	O	0.612401	0.151174	0.094147
Zn8	Zn	0.536937	0.167757	0.123980
Zn9	Zn	0.568605	0.112152	-0.123726
O10	O	0.516203	0.320217	0.094120
C11	C	0.582299	-0.059918	0.000137
C12	C	0.597126	-0.181228	0.000136
C13	C	0.463169	0.149421	0.000105
C14	C	0.409675	0.148169	0.000093
C15	C	0.455627	-0.468109	0.000092
C16	C	0.441696	-0.354134	0.000081
C17	C	0.480552	-0.310901	0.000095
C18	C	0.533342	-0.381656	0.000119
C19	C	0.547276	-0.495644	0.000121
C20	C	0.572201	-0.338437	0.000125
C21	C	0.624991	-0.409192	0.000149
C22	C	0.638922	-0.523168	0.000152
C23	C	0.600066	-0.566400	0.000137
C24	C	0.558268	-0.224449	0.000123
C25	C	0.649916	-0.251984	0.000152
C26	C	0.663847	-0.365959	0.000163
C27	C	0.059186	0.240207	0.000136
C28	C	-0.141887	0.235572	0.000146
O29	O	-0.183817	0.319735	0.000190
N30	N	-0.148302	0.135334	0.000150
C31	C	-0.104447	0.036249	0.000159
O32	O	-0.114519	-0.049113	0.000175
C33	C	0.096624	0.040887	0.000157
C34	C	0.103038	0.141129	0.000142
C35	C	0.065601	0.340441	0.000121
C36	C	0.115868	0.341597	0.000113
C37	C	0.159719	0.242519	0.000118
C38	C	0.153304	0.142285	0.000133
C39	C	0.140478	-0.058195	0.000174
C40	C	0.190747	-0.057026	0.000177
C41	C	0.197160	0.043216	0.000161
C42	C	0.247421	0.044364	0.000130
N43	N	0.253837	0.144602	0.000125
C44	C	0.209986	0.243679	0.000120
C45	C	-0.210013	0.033821	0.000158
C46	C	-0.260280	0.032661	0.000157
C47	C	-0.297717	0.231984	0.000146
C48	C	-0.247447	0.233142	0.000139
C49	C	-0.203597	0.134059	0.000154
C50	C	0.315550	0.246100	0.000100
C51	C	0.365823	0.247246	0.000087
C52	C	0.403255	0.047925	0.000104
C53	C	0.352987	0.046776	0.000112
C54	C	0.309134	0.145874	0.000114
O55	O	0.289373	-0.039752	0.000099
O56	O	0.220066	0.329035	0.000129
C57	C	0.008920	0.239051	0.000145
C58	C	0.002505	0.138816	0.000159
C59	C	0.046357	0.039739	0.000165
C60	C	-0.047762	0.137656	0.000158
C61	C	-0.091613	0.236734	0.000152
C62	C	-0.085197	0.336972	0.000148
C63	C	-0.034931	0.338128	0.000139
C64	C	0.039941	-0.060500	0.000169
C65	C	-0.010327	-0.061648	0.000176
C66	C	-0.054178	0.037430	0.000171
C67	C	0.642373	0.130487	0.000146
C68	C	0.695869	0.131738	0.000151
C69	C	0.523243	0.339827	0.000115
C70	C	0.508417	0.461135	0.000108
N71	N	0.515328	0.205705	0.293032
N72	N	0.590219	0.074195	-0.292778
C73	C	0.640382	-0.013916	0.648052
C74	C	0.655504	-0.040476	0.529716
C75	C	0.620461	0.021067	0.470539
C76	C	0.570295	0.109175	0.529710
C77	C	0.555174	0.135743	0.648057
C78	C	0.535252	0.170726	0.470544
C79	C	0.485086	0.258834	0.529715
C80	C	0.469967	0.285397	0.648050
C81	C	0.505010	0.223854	0.707227
C82	C	0.550373	0.144157	0.352197
C83	C	0.465165	0.293816	0.352202
C84	C	0.450043	0.320376	0.470538
H85	H	0.515285	-0.166851	0.000104
C86	C	0.383631	-0.276310	0.000067
H87	H	0.362484	-0.318376	0.000071
H88	H	0.384671	-0.245986	-0.065494
H89	H	0.367910	-0.216560	0.065637
H90	H	0.681908	-0.580777	0.000160
C91	C	-0.017375	-0.171921	0.000196
H92	H	0.015942	-0.230754	0.000210
H93	H	-0.027830	-0.191248	-0.065356
H94	H	-0.044583	-0.161791	0.065775
H95	H	0.591219	0.072420	0.304031
H96	H	0.696349	-0.112211	0.481544
C97	C	0.692659	-0.204439	0.000177
H98	H	0.676799	-0.126420	0.000186
H99	H	0.722155	-0.243486	-0.065377
H100	H	0.705385	-0.214059	0.065755
C101	C	0.678923	-0.081600	0.713146
H102	H	0.662731	-0.053159	0.792099
H103	H	0.712181	-0.074587	0.693746
H104	H	0.685630	-0.158817	0.693766
C105	C	0.451495	-0.061057	0.000104
H106	H	0.440481	-0.120929	0.000104
H107	H	0.463506	-0.050025	0.065662
H108	H	0.480259	-0.079461	-0.065469
C109	C	0.238982	-0.166023	0.000180
H110	H	0.227960	-0.225884	0.000179
H111	H	0.250996	-0.155004	0.065736
H112	H	0.267746	-0.184434	-0.065395
C113	C	0.088173	-0.169494	0.000166
H114	H	0.077148	-0.229351	0.000161
H115	H	0.100189	-0.158484	0.065720
H116	H	0.116937	-0.187905	-0.065411
H117	H	0.469206	-0.218097	0.000088
C118	C	0.412892	-0.515666	0.000076
H119	H	0.428752	-0.593681	0.000086
H120	H	0.400162	-0.506047	-0.065491
H121	H	0.383399	-0.476618	0.065641
C122	C	0.488379	0.253072	0.837397
H123	H	0.516435	0.203801	0.864161
H124	H	0.455949	0.244609	0.864178
H125	H	0.482502	0.328834	0.864161
C126	C	0.426613	0.361521	0.287125
H127	H	0.394574	0.417810	0.339312
H128	H	0.417466	0.312157	0.240967
H129	H	0.444018	0.396384	0.240955
C130	C	0.615388	-0.691773	0.000150
H131	H	0.584686	-0.707382	0.000137
H132	H	0.627083	-0.707925	0.065716
H133	H	0.643845	-0.737363	-0.065415
C134	C	0.345932	-0.063489	0.000117
H135	H	0.379249	-0.122329	0.000122
H136	H	0.335475	-0.082802	-0.065437
H137	H	0.318725	-0.053364	0.065695
C138	C	0.637091	-0.008156	0.340373
H139	H	0.671985	-0.069450	0.313609
H140	H	0.638049	0.055582	0.313587
H141	H	0.611502	-0.028656	0.313617
C142	C	0.414791	0.382329	0.713135
H143	H	0.396085	0.415175	0.660947
H144	H	0.420402	0.437911	0.759287
H145	H	0.393843	0.353694	0.759311
C146	C	0.372874	0.357518	0.000076
H147	H	0.339554	0.416360	0.000086
H148	H	0.400082	0.347402	-0.065487
H149	H	0.383326	0.376832	0.065644
C150	C	-0.240398	0.343408	0.000132
H151	H	-0.273718	0.402245	0.000134
H152	H	-0.213188	0.333294	-0.065426
H153	H	-0.229951	0.362728	0.065705
H154	H	0.706829	-0.423584	0.000182
H155	H	0.279849	0.326796	0.000106
C156	C	-0.267330	-0.077607	0.000154
H157	H	-0.303545	-0.064120	0.000142
H158	H	-0.259777	-0.103650	0.065716
H159	H	-0.243018	-0.133077	-0.065415
H160	H	-0.174311	-0.046869	0.000171
C161	C	-0.027884	0.448398	0.000133
H162	H	-0.061206	0.507233	0.000141
H163	H	-0.000676	0.438289	-0.065427
H164	H	-0.017435	0.467716	0.065704
H165	H	-0.333430	0.312657	0.000142
H166	H	0.409197	0.392116	0.518729
C167	C	0.122913	0.451869	0.000118
H168	H	0.089591	0.510705	0.000129
H169	H	0.150121	0.441767	-0.065440
H170	H	0.133361	0.471181	0.065692
H171	H	0.029899	0.421128	0.000121
C172	C	-0.133438	0.445957	0.000139
H173	H	-0.122422	0.505827	0.000124
H174	H	-0.162203	0.464359	0.065701
H175	H	-0.145444	0.434921	-0.065430
H176	H	0.135267	-0.139822	0.000188
