data_functionalizedCrystal
_audit_creation_method	'MofGen! by Chris Wilmer'
_symmetry_space_group_name_H-M	'P1'
_symmetry_Int_Tables_number	1
_symmetry_cell_setting	triclinic
loop_
_symmetry_equiv_pos_as_xyz
  x,y,z
_cell_length_a	23.096457
_cell_length_b	20.875641
_cell_length_c	20.875641
_cell_angle_alpha	60.089808
_cell_angle_beta	89.999757
_cell_angle_gamma	62.439477
loop_
_atom_site_label
_atom_site_type_symbol
_atom_site_fract_x
_atom_site_fract_y
_atom_site_fract_z
Zr1	Zr	0.584269	0.694356	-0.105794
O2	O	0.499421	0.820595	-0.209055
O3	O	0.607105	0.563101	-0.070863
O4	O	0.615632	0.687125	-0.204336
O5	O	0.487780	0.704025	0.025977
O6	O	0.710912	0.687126	-0.204339
O7	O	0.490894	0.696572	-0.075582
O8	O	0.695660	0.465271	0.034419
O9	O	0.503032	0.925880	-0.212781
O10	O	0.691787	0.618947	-0.059926
O11	O	0.618356	0.624509	0.015869
O12	O	0.628395	0.770530	-0.141277
O13	O	0.554963	0.776091	-0.065482
Zr14	Zr	0.731263	0.706246	0.056176
Zr15	Zr	0.736231	0.694359	-0.105800
Zr16	Zr	0.579302	0.706243	0.056182
Zr17	Zr	0.590029	0.862274	-0.111736
Zr18	Zr	0.725504	0.538328	0.062118
O19	O	0.708427	0.837501	0.021245
O20	O	0.715490	0.820599	-0.209063
O21	O	0.492358	0.837497	0.021254
O22	O	0.816112	0.580007	0.159436
O23	O	0.823175	0.563105	-0.070872
O24	O	0.600042	0.580004	0.159445
O25	O	0.827753	0.696577	-0.075595
O26	O	0.699901	0.713477	0.154717
O27	O	0.604620	0.713476	0.154721
O28	O	0.824638	0.704030	0.025964
O29	O	0.623821	0.925882	-0.212785
O30	O	0.691711	0.474720	0.163167
O31	O	0.812500	0.474722	0.163163
O32	O	0.816449	0.465273	0.034414
O33	O	0.499084	0.935329	-0.084032
O34	O	0.619873	0.935331	-0.084037
O35	O	0.687138	0.630072	0.091659
O36	O	0.760569	0.624511	0.015864
O37	O	0.697177	0.776094	-0.065488
O38	O	0.623746	0.781655	0.010308
C39	C	0.650562	0.490262	-0.017376
C40	C	0.648117	0.418976	-0.014853
C41	C	0.467686	0.700298	-0.024802
C42	C	0.403174	0.700297	-0.024799
C43	C	0.685297	0.382583	-0.053232
C44	C	0.683001	0.315599	-0.050854
C45	C	0.643521	0.285013	-0.010101
C46	C	0.606340	0.321409	0.028283
C47	C	0.608640	0.388388	0.025909
C48	C	0.632535	0.085001	0.001245
C49	C	0.630236	0.018019	0.003614
C50	C	0.706898	0.012212	-0.075522
C51	C	0.709191	0.079197	-0.077896
C52	C	0.672013	0.115584	-0.039509
N53	N	0.641171	0.216546	-0.007672
N54	N	0.674367	0.184045	-0.041934
C55	C	0.405959	0.621174	0.017658
C56	C	0.345343	0.621173	0.017662
C57	C	0.281944	0.700299	-0.024807
C58	C	0.279162	0.779432	-0.067267
C59	C	0.339777	0.779431	-0.067262
N60	N	0.163217	0.756632	-0.091359
N61	N	0.105638	0.756627	-0.091362
C62	C	0.099312	0.700306	-0.024821
N63	N	0.152746	0.643976	0.041722
N64	N	0.210332	0.643978	0.041723
C65	C	0.216213	0.700308	-0.024816
C66	C	0.036372	0.621176	0.017644
C67	C	-0.024246	0.621179	0.017649
C68	C	-0.090427	0.779439	-0.067287
C69	C	-0.029809	0.779435	-0.067284
C70	C	0.033588	0.700301	-0.024821
C71	C	0.847847	0.700304	-0.024817
C72	C	0.912359	0.700305	-0.024819
C73	C	0.663980	0.685432	-0.227416
C74	C	0.666089	0.680385	-0.296178
C75	C	0.664971	0.910341	-0.032243
C76	C	0.667416	0.981626	-0.034765
C77	C	0.633990	0.757137	-0.370948
C78	C	0.635981	0.752390	-0.435555
C79	C	0.670066	0.670891	-0.425391
C80	C	0.702168	0.594133	-0.350614
C81	C	0.700182	0.598881	-0.286008
C82	C	0.679560	0.648207	-0.614057
C83	C	0.681542	0.643465	-0.678671
C84	C	0.615356	0.801723	-0.763607
C85	C	0.613368	0.806463	-0.698997
C86	C	0.645474	0.729706	-0.624225
N87	N	0.672099	0.666037	-0.491429
N88	N	0.643444	0.734561	-0.558189
C89	C	0.651553	0.715170	0.177797
C90	C	0.649444	0.720217	0.246560
C91	C	0.840643	0.490265	-0.017383
C92	C	0.902709	0.418980	-0.014863
C93	C	0.644348	0.505131	0.185231
C94	C	0.639794	0.438892	0.256516
C95	C	0.834429	0.505134	0.185223
C96	C	0.894387	0.438896	0.256506
C97	C	0.481104	0.895468	-0.234841
C98	C	0.421146	0.961706	-0.306125
C99	C	0.474890	0.910338	-0.032235
C100	C	0.412823	0.981622	-0.034755
C101	C	0.671184	0.895471	-0.234849
C102	C	0.675738	0.961710	-0.306135
C103	C	0.895953	0.382600	-0.053248
C104	C	0.954266	0.315628	-0.050895
C105	C	1.019334	0.285035	-0.010153
C106	C	1.026090	0.321422	0.028233
C107	C	0.967777	0.388396	0.025875
C108	C	0.673559	0.410690	0.329561
C109	C	0.669278	0.348461	0.396548
C110	C	0.631235	0.314431	0.390488
C111	C	0.597466	0.342639	0.317435
C112	C	0.601744	0.404871	0.250450
C113	C	0.960880	0.404887	0.250417
C114	C	1.017223	0.342658	0.317389
C115	C	1.007071	0.314435	0.390449
C116	C	0.940571	0.348450	0.396536
C117	C	0.884229	0.410682	0.329565
C118	C	0.354653	0.995724	-0.300036
C119	C	0.298310	1.057973	-0.367008
C120	C	0.308463	1.086200	-0.440068
C121	C	0.374963	1.052180	-0.446155
C122	C	0.431304	0.989936	-0.379184
C123	C	0.419580	1.018009	0.003622
C124	C	0.361268	1.084997	0.001251
C125	C	0.296200	1.115593	-0.039493
C126	C	0.289445	1.079203	-0.077876
C127	C	0.347756	1.012220	-0.075509
C128	C	0.713787	0.995721	-0.300050
C129	C	0.718079	1.057951	-0.367024
C130	C	0.684318	1.086174	-0.440082
C131	C	0.646268	1.052157	-0.446165
C132	C	0.641981	0.989923	-0.379192
H133	H	0.713276	0.285967	-0.082105
H134	H	0.578362	0.418020	0.057159
H135	H	0.932314	0.325462	0.456031
O136	O	0.368567	1.124225	0.042664
H137	H	0.317092	1.175949	0.034173
H138	H	0.696780	0.325502	0.456023
O139	O	1.088936	0.306007	0.310790
H140	H	1.117913	0.320915	0.337850
H141	H	0.717442	0.407485	-0.086421
O142	O	0.751771	0.112189	-0.121853
H143	H	0.777242	0.075626	-0.148139
H144	H	0.383221	1.075170	-0.505649
H145	H	0.472557	0.993104	0.036806
O146	O	0.975069	0.427617	0.067295
H147	H	1.006257	0.456446	0.043361
H148	H	0.749062	1.085642	-0.362055
H149	H	0.830089	0.438365	0.334534
O150	O	0.592430	0.124249	0.042639
H151	H	0.537130	0.153091	0.018688
O152	O	0.600941	0.953241	-0.385758
H153	H	0.559511	0.968115	-0.358670
H154	H	-0.142046	0.843865	-0.101866
H155	H	0.347610	0.556740	0.052236
H156	H	0.589218	0.864214	-0.824491
H157	H	0.737168	-0.017421	-0.106774
O158	O	-0.032801	0.864770	-0.113105
H159	H	-0.008056	0.871642	-0.073313
H160	H	0.227538	0.843856	-0.101845
O161	O	0.587662	-0.014985	0.047582
H162	H	0.562203	0.021560	0.073886
O163	O	0.563753	0.288428	0.072236
H164	H	0.568392	0.235746	0.067431
H165	H	1.052954	0.263761	0.444975
O166	O	0.556457	0.305907	0.310904
H167	H	0.559174	0.257881	0.369759
H168	H	0.485444	0.962239	-0.384151
O169	O	0.233304	1.187834	-0.042042
H170	H	0.199658	1.163939	-0.016376
O171	O	0.343695	0.965291	-0.221239
H172	H	0.287989	0.999419	-0.228270
O173	O	0.219262	1.112206	-0.121821
H174	H	0.179855	1.164890	-0.117008
H175	H	0.627757	0.263758	0.445037
O176	O	0.688941	1.153308	-0.512312
H177	H	0.712338	1.125106	-0.545523
O178	O	0.340465	0.972971	-0.116899
H179	H	0.309283	0.944139	-0.092945
H180	H	1.079076	0.296503	0.061404
H181	H	0.457575	0.556737	0.052231
H182	H	0.704538	0.438391	0.334510
O183	O	0.718309	0.555558	-0.667710
H184	H	0.740306	0.502981	-0.604864
H185	H	0.244168	1.085662	-0.362036
H186	H	0.741279	0.972753	-0.240568
H187	H	1.066810	0.230499	-0.008238
O188	O	0.565434	0.435161	0.171670
H189	H	0.538308	0.400988	0.178720
O190	O	0.609848	1.082609	-0.524966
H191	H	0.619219	1.131606	-0.570508
H192	H	0.337505	0.843865	-0.101835
O193	O	0.104754	0.535832	0.063450
H194	H	0.096505	0.480811	0.092986
H195	H	0.606230	0.823503	-0.379233
O196	O	0.946973	0.276382	-0.092291
H197	H	0.891928	0.308900	-0.121003
O198	O	0.825776	0.415600	-0.097205
H199	H	0.816979	0.361055	-0.072368
O200	O	0.971839	0.435331	0.171620
H201	H	1.027545	0.401230	0.178650
O202	O	0.714179	0.565419	-0.533419
H203	H	0.691169	0.526577	-0.525462
O204	O	-0.021246	0.535835	0.063438
H205	H	0.033023	0.480812	0.092956
H206	H	0.729925	0.527775	-0.342343
O207	O	0.601358	0.835172	-0.516201
H208	H	0.577316	0.892640	-0.512414
H209	H	0.726319	0.536381	-0.225128
O210	O	0.576601	0.894366	-0.709958
H211	H	0.554617	0.946940	-0.772806
O212	O	0.247693	1.153344	-0.512300
H213	H	0.199752	1.172250	-0.495784
