data_functionalizedCrystal
_audit_creation_method	'MofGen! by Chris Wilmer'
_symmetry_space_group_name_H-M	'P1'
_symmetry_Int_Tables_number	1
_symmetry_cell_setting	triclinic
loop_
_symmetry_equiv_pos_as_xyz
  x,y,z
_cell_length_a	12.759395
_cell_length_b	10.686285
_cell_length_c	10.685880
_cell_angle_alpha	90.361115
_cell_angle_beta	85.605753
_cell_angle_gamma	94.366707
loop_
_atom_site_label
_atom_site_type_symbol
_atom_site_fract_x
_atom_site_fract_y
_atom_site_fract_z
Zn1	Zn	1.684538	0.553646	-0.671026
Zn2	Zn	1.682405	0.747384	-0.445198
Zn3	Zn	1.494419	0.537643	-0.461276
Zn4	Zn	1.521218	0.763363	-0.654921
O5	O	1.595645	0.650509	-0.558105
O6	O	1.831277	0.579355	-0.641081
O7	O	1.645360	0.706176	-0.271780
O8	O	1.509316	0.364222	-0.502568
O9	O	1.829710	0.721693	-0.475166
O10	O	1.648996	0.375979	-0.656671
O11	O	1.507248	0.552081	-0.283592
O12	O	1.350952	0.567576	-0.486952
O13	O	1.554991	0.748928	-0.832609
O14	O	1.370641	0.733411	-0.629222
O15	O	1.674981	0.594850	-0.844441
O16	O	1.671346	0.925048	-0.459550
O17	O	1.552923	0.936788	-0.613633
C18	C	1.614841	0.976436	-0.533126
C19	C	1.623152	1.115873	-0.522482
C20	C	1.322675	0.650492	-0.558085
C21	C	1.205901	0.650517	-0.558104
C22	C	1.618214	0.675457	-0.885316
C23	C	1.627831	0.686088	-1.024754
C24	C	1.226440	0.823441	-0.705971
C25	C	1.181849	0.909913	-0.779907
C26	C	1.072129	0.909930	-0.779921
C27	C	1.006997	0.823462	-0.705994
C28	C	1.051588	0.736990	-0.632058
C29	C	1.161311	0.736986	-0.632048
C30	C	1.031050	0.564063	-0.484199
C31	C	1.140769	0.564050	-0.484176
C32	C	0.965917	0.477595	-0.410272
C33	C	1.010508	0.391127	-0.336327
C34	C	1.120235	0.391115	-0.336315
C35	C	1.185360	0.477578	-0.410240
C36	C	1.869681	0.650527	-0.558126
C37	C	1.986459	0.650535	-0.558136
C38	C	1.576405	0.323311	-0.583209
C39	C	1.568205	0.183879	-0.593907
C40	C	1.573220	0.625568	-0.232175
C41	C	1.563785	0.614583	-0.092765
H42	H	1.315780	0.823445	-0.705956
H43	H	1.514806	1.135430	-0.663202
C44	C	1.689858	1.311384	-0.436189
C45	C	1.695285	1.181278	-0.428970
H46	H	1.734406	1.351761	-0.378478
H47	H	1.619293	1.331480	-0.416082
H48	H	1.712211	1.339149	-0.518903
H49	H	1.672923	1.153511	-0.346258
H50	H	1.765864	1.161172	-0.449069
H51	H	1.501587	0.545235	-1.044318
H52	H	1.690029	0.755446	-1.073206
H53	H	1.035824	0.980337	-0.840133
C54	C	1.359166	0.986698	-0.845532
C55	C	1.253444	1.004961	-0.861159
H56	H	1.403360	1.045382	-0.895690
H57	H	1.373459	0.903864	-0.870500
H58	H	1.372380	0.998485	-0.759808
H59	H	1.240227	0.993165	-0.946882
H60	H	1.239145	1.087815	-0.836198
H61	H	0.876578	0.477610	-0.410295
C62	C	0.861007	0.917634	-0.786520
C63	C	0.886391	0.823478	-0.706011
H64	H	0.786549	0.917646	-0.786520
H65	H	0.890150	0.902236	-0.869150
H66	H	0.889093	0.996878	-0.758476
H67	H	0.858311	0.744232	-0.734061
H68	H	0.857235	0.838867	-0.623364
H69	H	0.957469	0.320727	-0.276148
H70	H	1.156533	0.320690	-0.276116
H71	H	1.274701	0.477580	-0.410233
