data_functionalizedCrystal
_audit_creation_method	'MofGen! by Chris Wilmer'
_symmetry_space_group_name_H-M	'P1'
_symmetry_Int_Tables_number	1
_symmetry_cell_setting	triclinic
loop_
_symmetry_equiv_pos_as_xyz
  x,y,z
_cell_length_a	12.594517
_cell_length_b	21.295417
_cell_length_c	12.594510
_cell_angle_alpha	89.958049
_cell_angle_beta	89.977213
_cell_angle_gamma	90.030306
loop_
_atom_site_label
_atom_site_type_symbol
_atom_site_fract_x
_atom_site_fract_y
_atom_site_fract_z
Zn1	Zn	1.627175	-0.250558	-0.601801
Zn2	Zn	1.627017	-0.355847	-0.423797
Zn3	Zn	1.449175	-0.250596	-0.423830
Zn4	Zn	1.449117	-0.355793	-0.601727
O5	O	1.538121	-0.303199	-0.512789
O6	O	1.776100	-0.264532	-0.578205
O7	O	1.603384	-0.341924	-0.274856
O8	O	1.472878	-0.162501	-0.447482
O9	O	1.775984	-0.341888	-0.447427
O10	O	1.603654	-0.162474	-0.578237
O11	O	1.472724	-0.264596	-0.274879
O12	O	1.300221	-0.264543	-0.447411
O13	O	1.472779	-0.341795	-0.750683
O14	O	1.300179	-0.341831	-0.578112
O15	O	1.603598	-0.264479	-0.750737
O16	O	1.603327	-0.443930	-0.447356
O17	O	1.472625	-0.443890	-0.578080
C18	C	1.261580	-0.303186	-0.512757
C19	C	1.143274	-0.303196	-0.512769
C20	C	1.074014	-0.261101	-0.441817
C21	C	1.003178	-0.318523	-0.415623
C22	C	1.003312	-0.245802	-0.538981
C23	C	1.073997	-0.360647	-0.486525
C24	C	1.074137	-0.287888	-0.609928
C25	C	1.003333	-0.345349	-0.583771
C26	C	1.537981	-0.466750	-0.512730
C27	C	1.538019	-0.536718	-0.512740
C28	C	1.606136	-0.569585	-0.444742
C29	C	1.606186	-0.635327	-0.444766
C30	C	1.538100	-0.668201	-0.512777
C31	C	1.469978	-0.635326	-0.580789
C32	C	1.469937	-0.569585	-0.580770
N33	N	1.444990	-0.771465	-0.520881
N34	N	1.445031	-0.833917	-0.520892
C35	C	1.538219	-0.866275	-0.512838
N36	N	1.631366	-0.833823	-0.504752
N37	N	1.631324	-0.771366	-0.504735
C38	C	1.538137	-0.739486	-0.512805
C39	C	1.606396	-0.970427	-0.444862
C40	C	1.606448	-1.036171	-0.444893
C41	C	1.470230	-1.036169	-0.580911
C42	C	1.470188	-0.970427	-0.580885
C43	C	1.538269	-0.937560	-0.512855
C44	C	1.815742	-0.303212	-0.512821
C45	C	1.934047	-0.303217	-0.512835
C46	C	1.538199	-0.303127	-0.790410
C47	C	1.538233	-0.303097	-0.908715
C48	C	1.538290	-0.139008	-0.512871
C49	C	1.538362	-0.069040	-0.512906
C50	C	1.609410	-0.261032	-1.048762
C51	C	1.635374	-0.318471	-0.977927
C52	C	1.512317	-0.245664	-0.977978
C53	C	1.564291	-0.360547	-1.048667
C54	C	1.441189	-0.287701	-1.048724
C55	C	1.467115	-0.345180	-0.977921
C56	C	1.538104	-0.303224	-0.236248
C57	C	1.538277	-0.303077	-0.117943
H58	H	0.972493	-0.380997	-0.643801
H59	H	1.586348	-0.409119	-1.079588
H60	H	1.406941	-0.380785	-0.947015
N61	N	1.679582	-0.534137	-0.371386
H62	H	1.636345	-0.506908	-0.322009
H63	H	1.722729	-0.564979	-0.328389
N64	N	1.679648	-0.670793	-0.371421
H65	H	1.755687	-0.659309	-0.388005
H66	H	1.663051	-0.659390	-0.295383
N67	N	1.396539	-0.670784	-0.654135
H68	H	1.320493	-0.659390	-0.637531
H69	H	1.413113	-0.659284	-0.730170
H70	H	1.359127	-0.274666	-1.079847
N71	N	1.396463	-0.534131	-0.654112
H72	H	1.353338	-0.564930	-0.697205
H73	H	1.347212	-0.506907	-0.610729
H74	H	1.490380	-0.197102	-0.946923
H75	H	0.972011	-0.331484	-0.333486
H76	H	1.661924	-1.062930	-0.389523
H77	H	1.104917	-0.409208	-0.464291
N78	N	1.679824	-0.934972	-0.371494
H79	H	1.722991	-0.965772	-0.328425
H80	H	1.729038	-0.907643	-0.414855
H81	H	1.414797	-1.062934	-0.636291
N82	N	1.396708	-0.934970	-0.654213
H83	H	1.413200	-0.946361	-0.730282
H84	H	1.320705	-0.946475	-0.637520
N85	N	1.115135	-0.213994	-0.362249
H86	H	1.089321	-0.225651	-0.288899
H87	H	1.195318	-0.214057	-0.363359
N88	N	1.115452	-0.270698	-0.718697
H89	H	1.160742	-0.231670	-0.713447
H90	H	1.159525	-0.306445	-0.747511
N91	N	0.962173	-0.181501	-0.568317
H92	H	0.987883	-0.149734	-0.514644
H93	H	0.989101	-0.169658	-0.641178
N94	N	1.689170	-0.213984	-1.089980
H95	H	1.762475	-0.225693	-1.064230
H96	H	1.688046	-0.214052	-1.170162
H97	H	1.717460	-0.331488	-0.946826
