data_functionalizedCrystal
_audit_creation_method	'MofGen! by Chris Wilmer'
_symmetry_space_group_name_H-M	'P1'
_symmetry_Int_Tables_number	1
_symmetry_cell_setting	triclinic
loop_
_symmetry_equiv_pos_as_xyz
  x,y,z
_cell_length_a	21.395362
_cell_length_b	14.908178
_cell_length_c	21.395355
_cell_angle_alpha	93.314561
_cell_angle_beta	90.043940
_cell_angle_gamma	93.328618
loop_
_atom_site_label
_atom_site_type_symbol
_atom_site_fract_x
_atom_site_fract_y
_atom_site_fract_z
Zn1	Zn	0.943530	-0.358911	0.340196
Zn2	Zn	1.443530	0.141089	0.840196
Zn3	Zn	0.937410	-0.509764	0.229370
Zn4	Zn	1.437410	-0.009764	0.729370
Zn5	Zn	0.838744	-0.358953	0.235395
Zn6	Zn	1.338744	0.141047	0.735395
Zn7	Zn	0.832691	-0.509782	0.334074
Zn8	Zn	1.332691	-0.009782	0.834074
O9	O	0.888094	-0.434352	0.284759
O10	O	1.388094	0.065648	0.784759
O11	O	1.030397	-0.378896	0.325535
O12	O	1.530397	0.121104	0.825535
O13	O	0.924294	-0.489768	0.142491
O14	O	1.424294	0.010232	0.642491
O15	O	0.857738	-0.232692	0.254381
O16	O	1.357738	0.267308	0.754381
O17	O	1.025901	-0.489727	0.244112
O18	O	1.525901	0.010273	0.744112
O19	O	0.934725	-0.232661	0.331377
O20	O	1.434725	0.267339	0.831377
O21	O	0.851804	-0.378968	0.146918
O22	O	1.351804	0.121032	0.646918
O23	O	0.750262	-0.378986	0.248445
O24	O	1.250262	0.121014	0.748445
O25	O	0.847422	-0.489759	0.422564
O26	O	1.347422	0.010241	0.922564
O27	O	0.745815	-0.489800	0.320944
O28	O	1.245815	0.010200	0.820944
O29	O	0.928856	-0.378914	0.427062
O30	O	1.428856	0.121086	0.927062
O31	O	0.918425	-0.636021	0.238176
O32	O	1.418425	-0.136021	0.738176
O33	O	0.841488	-0.636035	0.315101
O34	O	1.341488	-0.136035	0.815101
C35	C	0.725304	-0.434400	0.284684
C36	C	1.225304	0.065600	0.784684
C37	C	0.655661	-0.434442	0.284666
C38	C	1.155661	0.065558	0.784666
C39	C	0.878652	-0.668765	0.275334
C40	C	1.378652	-0.168765	0.775334
C41	C	0.874671	-0.769047	0.271323
C42	C	1.374671	-0.269047	0.771323
C43	C	0.620646	-0.492219	0.322353
C44	C	1.120646	0.007781	0.822353
C45	C	0.555212	-0.492197	0.322382
C46	C	1.055212	0.007803	0.822382
C47	C	0.524794	-0.434407	0.284712
C48	C	1.024794	0.065593	0.784712
C49	C	0.559818	-0.376619	0.247023
C50	C	1.059818	0.123381	0.747023
C51	C	0.625251	-0.376636	0.247000
C52	C	1.125251	0.123364	0.747000
C53	C	0.421360	-0.427139	0.228598
C54	C	0.921360	0.072861	0.728598
C55	C	0.355927	-0.427128	0.228620
C56	C	0.855927	0.072872	0.728620
C57	C	0.322976	-0.434348	0.284784
C58	C	0.822976	0.065652	0.784784
C59	C	0.355465	-0.441599	0.340927
C60	C	0.855465	0.058401	0.840927
C61	C	0.420898	-0.441616	0.340904
C62	C	0.920898	0.058384	0.840904
C63	C	0.453843	-0.434382	0.284733
C64	C	0.953843	0.065618	0.784733
C65	C	0.217009	-0.492105	0.322505
C66	C	0.717009	0.007895	0.822505
C67	C	0.151574	-0.492076	0.322535
C68	C	0.651574	0.007924	0.822535
C69	C	0.156181	-0.376503	0.247170
C70	C	0.656181	0.123497	0.747170
C71	C	0.221616	-0.376527	0.247146
C72	C	0.721616	0.123473	0.747146
C73	C	0.252025	-0.434332	0.284812
C74	C	0.752025	0.065668	0.784812
C75	C	0.947294	-0.957307	0.344048
C76	C	1.447294	-0.457307	0.844048
C77	C	0.943555	-1.051531	0.340282
C78	C	1.443555	-0.551531	0.840282
C79	C	0.863451	-1.051722	0.260027
C80	C	1.363451	-0.551722	0.760027
C81	C	0.867190	-0.957498	0.263793
C82	C	1.367190	-0.457498	0.763793
C83	C	0.909113	-0.910293	0.305805
C84	C	1.409113	-0.410293	0.805805
C85	C	0.912855	-0.816067	0.309568
C86	C	1.412855	-0.316067	0.809568
C87	C	0.832749	-0.816260	0.229317
C88	C	1.332749	-0.316260	0.729317
C89	C	0.829010	-0.910484	0.225550
C90	C	1.329010	-0.410484	0.725550
C91	C	1.051519	-0.434305	0.284834
C92	C	1.551519	0.065695	0.784834
C93	C	1.121161	-0.434285	0.284866
C94	C	1.621161	0.065715	0.784866
C95	C	0.888147	-0.434334	0.448183
C96	C	1.388147	0.065666	0.948183
C97	C	0.888169	-0.434326	0.517824
C98	C	1.388169	0.065674	1.017824
C99	C	0.897589	-0.199025	0.294234
C100	C	1.397589	0.300975	0.794234
C101	C	0.901635	-0.098742	0.298272
C102	C	1.401635	0.401258	0.798272
C103	C	0.888080	-0.434305	0.121973
C104	C	1.388080	0.065695	0.621973
C105	C	0.888189	-0.434059	0.052342
C106	C	1.388189	0.065941	0.552342
C107	C	0.930570	-0.376607	0.552881
C108	C	1.430570	0.123393	1.052881
C109	C	0.930570	-0.376568	0.618318
C110	C	1.430570	0.123432	1.118318
C111	C	0.888176	-0.434265	0.648695
C112	C	1.388176	0.065735	1.148695
C113	C	0.845768	-0.491988	0.613631
C114	C	1.345768	0.008012	1.113631
C115	C	0.845764	-0.492019	0.548196
C116	C	1.345764	0.007981	1.048196
C117	C	0.879957	-0.515504	0.749102
C118	C	1.379957	-0.015504	1.249102
C119	C	0.879965	-0.515475	0.814536
C120	C	1.379965	-0.015475	1.314536
C121	C	0.888184	-0.434169	0.850520
C122	C	1.388184	0.065831	1.350520
C123	C	0.896408	-0.352891	0.821062
C124	C	1.396408	0.147109	1.321062
C125	C	0.896405	-0.352921	0.755626
C126	C	1.396405	0.147079	1.255626
C127	C	0.888175	-0.434237	0.719649
C128	C	1.388175	0.065763	1.219649
C129	C	0.930588	-0.376403	0.956531
C130	C	1.430588	0.123597	1.456531
C131	C	0.930584	-0.376363	1.021969
C132	C	1.430584	0.123637	1.521969
C133	C	0.845785	-0.491791	1.017281
C134	C	1.345785	0.008209	1.517281
C135	C	0.845785	-0.491823	0.951844
C136	C	1.345785	0.008177	1.451844
C137	C	0.888190	-0.434130	0.921473
C138	C	1.388190	0.065870	1.421473
H139	H	0.645402	-0.539288	0.353025
H140	H	1.145402	-0.039288	0.853025
N141	N	0.800022	-0.554263	0.510381
N142	N	1.300022	-0.054263	1.010381
H143	H	0.773160	-0.590803	0.539552
H144	H	1.273160	-0.090803	1.039552
H145	H	0.823832	-0.596027	0.481573
H146	H	1.323832	-0.096027	0.981573
N147	N	0.976308	-0.314321	0.656141
N148	N	1.476308	0.185679	1.156141
H149	H	0.952538	-0.272503	0.684949
H150	H	1.452538	0.227497	1.184949
H151	H	1.003160	-0.277838	0.626931
H152	H	1.503160	0.222162	1.126931
N153	N	0.249811	-0.554445	0.363133
N154	N	0.749811	-0.054445	0.863133
H155	H	0.278483	-0.517852	0.393670
H156	H	0.778483	-0.017852	0.893670
H157	H	0.275195	-0.596198	0.335887
H158	H	0.775195	-0.096198	0.835887
H159	H	0.447348	-0.447517	0.386617
H160	H	0.947348	0.052483	0.886617
H161	H	0.873272	-0.581657	0.838516
H162	H	1.373272	-0.081657	1.338516
H163	H	0.965098	-0.329628	0.528157
H164	H	1.465098	0.170372	1.028157
H165	H	0.448184	-0.421255	0.182860
H166	H	0.948184	0.078745	0.682860
N167	N	0.871100	-0.603204	0.710293
N168	N	1.371100	-0.103204	1.210293
H169	H	0.865900	-0.654688	0.738882
H170	H	1.365900	-0.154688	1.238882
H171	H	0.908942	-0.611571	0.682842
H172	H	1.408942	-0.111571	1.182842
N173	N	0.984723	-1.102240	0.381541
N174	N	1.484723	-0.602240	0.881541
H175	H	1.011843	-1.058036	0.408728
H176	H	1.511843	-0.558036	0.908728
H177	H	1.012186	-1.141312	0.354524
H178	H	1.512186	-0.641312	0.854524
H179	H	0.965111	-0.329356	1.050511
H180	H	1.465111	0.170644	1.550511
H181	H	0.903100	-0.286741	0.731644
H182	H	1.403100	0.213259	1.231644
H183	H	0.946993	-0.777634	0.343774
H184	H	1.446993	-0.277634	0.843774
N185	N	0.123384	-0.314164	0.206545
N186	N	0.623384	0.185836	0.706545
H187	H	0.076619	-0.322917	0.212279
H188	H	0.576619	0.177083	0.712279
H189	H	0.134204	-0.328113	0.161216
H190	H	0.634204	0.171887	0.661216
H191	H	0.653761	-0.329584	0.216310
H192	H	1.153761	0.170416	0.716310
N193	N	0.791570	-0.765549	0.188063
N194	N	1.291570	-0.265549	0.688063
H195	H	0.764069	-0.726482	0.215044
H196	H	1.264069	-0.226482	0.715044
H197	H	0.764487	-0.809810	0.160884
H198	H	1.264487	-0.309810	0.660884
N199	N	0.783797	-0.961399	0.180237
N200	N	1.283797	-0.461399	0.680237
H201	H	0.787222	-1.028225	0.183652
H202	H	1.287222	-0.528225	0.683652
H203	H	0.794235	-0.944942	0.136163
H204	H	1.294235	-0.444942	0.636163
H205	H	0.903102	-0.286684	0.850359
H206	H	1.403102	0.213316	1.350359
H207	H	0.965113	-0.329421	0.931801
H208	H	1.465113	0.170579	1.431801
N209	N	0.319935	-0.449392	0.401509
N210	N	0.819935	0.050608	0.901509
H211	H	0.273554	-0.448277	0.393007
H212	H	0.773554	0.051723	0.893007
H213	H	0.333524	-0.397282	0.431671
H214	H	0.833524	0.102718	0.931671
H215	H	0.250125	-0.329483	0.216454
H216	H	0.750125	0.170517	0.716454
N217	N	0.800053	-0.554015	1.050036
N218	N	1.300053	-0.054015	1.550036
H219	H	0.806487	-0.545236	1.096809
H220	H	1.306487	-0.045236	1.596809
H221	H	0.807203	-0.618455	1.036024
H222	H	1.307203	-0.118455	1.536024
H223	H	0.526697	-0.539246	0.353074
H224	H	1.026697	-0.039246	0.853074
H225	H	0.329480	-0.421230	0.182905
H226	H	0.829480	0.078770	0.682905
H227	H	0.981434	-0.918872	0.378251
H228	H	1.481434	-0.418872	0.878251
H229	H	0.811249	-0.538962	0.638369
H230	H	1.311249	-0.038962	1.138369
H231	H	0.535048	-0.329564	0.216353
H232	H	1.035048	0.170436	0.716353
H233	H	0.123065	-0.539124	0.353229
H234	H	0.623065	-0.039124	0.853229
N235	N	0.800043	-0.554063	0.914029
N236	N	1.300043	-0.054063	1.414029
H237	H	0.773183	-0.590604	0.943201
H238	H	1.273183	-0.090604	1.443201
H239	H	0.823849	-0.595828	0.885217
H240	H	1.323849	-0.095828	1.385217
N241	N	0.818240	-1.102643	0.214715
N242	N	1.318240	-0.602643	0.714715
H243	H	0.821668	-1.169467	0.218133
H244	H	1.321668	-0.669467	0.718133
H245	H	0.828677	-1.086189	0.170640
H246	H	1.328677	-0.586189	0.670640
