data_functionalizedCrystal
_audit_creation_method	'MofGen! by Chris Wilmer'
_symmetry_space_group_name_H-M	'P1'
_symmetry_Int_Tables_number	1
_symmetry_cell_setting	triclinic
loop_
_symmetry_equiv_pos_as_xyz
  x,y,z
_cell_length_a	25.639239
_cell_length_b	16.625547
_cell_length_c	16.625539
_cell_angle_alpha	89.976455
_cell_angle_beta	90.029947
_cell_angle_gamma	89.961530
loop_
_atom_site_label
_atom_site_type_symbol
_atom_site_fract_x
_atom_site_fract_y
_atom_site_fract_z
Zn1	Zn	-0.208171	-1.232558	0.456029
Zn2	Zn	0.291829	-0.732558	0.956029
Zn3	Zn	-0.295606	-1.232430	0.321188
Zn4	Zn	0.204394	-0.732430	0.821188
Zn5	Zn	-0.208185	-1.097728	0.321195
Zn6	Zn	0.291815	-0.597728	0.821195
Zn7	Zn	-0.295576	-1.097651	0.455963
Zn8	Zn	0.204424	-0.597651	0.955963
O9	O	-0.251884	-1.165092	0.388594
O10	O	0.248116	-0.665092	0.888594
O11	O	-0.219776	-1.345374	0.438167
O12	O	0.280224	-0.845374	0.938167
O13	O	-0.284028	-1.214541	0.208357
O14	O	0.215972	-0.714541	0.708357
O15	O	-0.135018	-1.115700	0.339111
O16	O	0.364982	-0.615700	0.839111
O17	O	-0.284014	-1.345280	0.339100
O18	O	0.215986	-0.845280	0.839100
O19	O	-0.135007	-1.214759	0.438174
O20	O	0.364993	-0.714759	0.938174
O21	O	-0.219800	-1.115576	0.208361
O22	O	0.280200	-0.615576	0.708361
O23	O	-0.219771	-0.984886	0.339047
O24	O	0.280229	-0.484886	0.839047
O25	O	-0.283963	-1.115568	0.568804
O26	O	0.216037	-0.615568	1.068804
O27	O	-0.283977	-0.984829	0.438060
O28	O	0.216023	-0.484829	0.938060
O29	O	-0.219747	-1.214684	0.568853
O30	O	0.280253	-0.714684	1.068853
O31	O	-0.368767	-1.214465	0.339036
O32	O	0.131233	-0.714465	0.839036
O33	O	-0.368745	-1.115444	0.438054
O34	O	0.131255	-0.615444	0.938054
C35	C	-0.251872	-0.955601	0.388547
C36	C	0.248128	-0.455601	0.888547
C37	C	-0.251880	-0.865980	0.388547
C38	C	0.248120	-0.365980	0.888547
C39	C	-0.251880	-0.793198	0.388554
C40	C	0.248120	-0.293198	0.888554
C41	C	-0.251882	-0.701889	0.388571
C42	C	0.248118	-0.201889	0.888571
C43	C	-0.251886	-0.629113	0.388588
C44	C	0.248114	-0.129113	0.888588
C45	C	-0.251889	-0.537798	0.388604
C46	C	0.248111	-0.037798	0.888604
C47	C	-0.387727	-1.164954	0.388555
C48	C	0.112273	-0.664954	0.888555
C49	C	-0.445841	-1.164969	0.388565
C50	C	0.054159	-0.664969	0.888565
C51	C	-0.697035	-1.113522	0.440136
C52	C	-0.197035	-0.613522	0.940136
C53	C	-0.642431	-1.113492	0.440127
C54	C	-0.142431	-0.613492	0.940127
O55	O	-0.614195	-1.069617	0.483947
O56	O	-0.114195	-0.569617	0.983947
N57	N	-0.615115	-1.165070	0.388607
N58	N	-0.115115	-0.665070	0.888607
C59	C	-0.642406	-1.216688	0.337099
C60	C	-0.142406	-0.716688	0.837099
O61	O	-0.614157	-1.260558	0.293278
O62	O	-0.114157	-0.760558	0.793278
C63	C	-0.697009	-1.216722	0.337113
C64	C	-0.197009	-0.716722	0.837113
C65	C	-0.724322	-1.165134	0.388631
C66	C	-0.224322	-0.665134	0.888631
C67	C	-0.724349	-1.061939	0.491650
C68	C	-0.224349	-0.561939	0.991650
C69	C	-0.778949	-1.061968	0.491658
C70	C	-0.278949	-0.561968	0.991658
C71	C	-0.806236	-1.113580	0.440152
C72	C	-0.306236	-0.613580	0.940152
C73	C	-0.778923	-1.165163	0.388639
C74	C	-0.278923	-0.665163	0.888639
C75	C	-0.724299	-1.268343	0.285610
C76	C	-0.224299	-0.768343	0.785610
C77	C	-0.778906	-1.268372	0.285629
C78	C	-0.278906	-0.768372	0.785629
C79	C	-0.806219	-1.216784	0.337146
C80	C	-0.306219	-0.716784	0.837146
C81	C	-0.860811	-1.216804	0.337141
C82	C	-0.360811	-0.716804	0.837141
N83	N	-0.888127	-1.165225	0.388661
N84	N	-0.388127	-0.665225	0.888661
C85	C	-0.860840	-1.113613	0.440166
C86	C	-0.360840	-0.613613	0.940166
C87	C	-0.527735	-1.216615	0.337075
C88	C	-0.027735	-0.716615	0.837075
C89	C	-0.473133	-1.216578	0.337056
C90	C	0.026867	-0.716578	0.837056
C91	C	-0.473162	-1.113383	0.440085
C92	C	0.026838	-0.613383	0.940085
C93	C	-0.527765	-1.113416	0.440099
C94	C	-0.027765	-0.613416	0.940099
C95	C	-0.555051	-1.165037	0.388594
C96	C	-0.055051	-0.665037	0.888594
C97	C	-0.975505	-1.113677	0.440179
C98	C	-0.475505	-0.613677	0.940179
C99	C	-1.030110	-1.113709	0.440180
C100	C	-0.530110	-0.613709	0.940180
C101	C	-1.030076	-1.216907	0.337155
C102	C	-0.530076	-0.716907	0.837155
C103	C	-0.975476	-1.216873	0.337150
C104	C	-0.475476	-0.716873	0.837150
C105	C	-0.948191	-1.165255	0.388669
C106	C	-0.448191	-0.665255	0.888669
O107	O	-0.889081	-1.260658	0.293345
O108	O	-0.389081	-0.760658	0.793345
O109	O	-0.889095	-1.069758	0.483988
O110	O	-0.389095	-0.569758	0.983988
C111	C	-0.115511	-1.165252	0.388650
C112	C	0.384489	-0.665252	0.888650
C113	C	-0.057397	-1.165321	0.388675
C114	C	0.442603	-0.665321	0.888675
C115	C	-0.251850	-1.165132	0.598903
C116	C	0.248150	-0.665132	1.098903
C117	C	-0.251835	-1.165148	0.688524
C118	C	0.248165	-0.665148	1.188524
C119	C	-0.251895	-0.375401	0.388631
C120	C	0.248105	0.124599	0.888631
C121	C	-0.251893	-0.465022	0.388622
C122	C	0.248107	0.034978	0.888622
C123	C	-0.251881	-1.165099	0.179103
C124	C	0.248119	-0.665099	0.679103
C125	C	-0.251748	-1.165238	0.089482
C126	C	0.248252	-0.665238	0.589482
C127	C	-0.251824	-1.165162	0.761306
C128	C	0.248176	-0.665162	1.261306
C129	C	-0.251804	-1.165180	0.852615
C130	C	0.248196	-0.665180	1.352615
C131	C	-0.251786	-1.165199	0.925391
C132	C	0.248214	-0.665199	1.425391
C133	C	-0.251767	-1.165219	1.016706
C134	C	0.248233	-0.665219	1.516706
H135	H	-0.953296	-1.071647	0.482131
H136	H	-0.453296	-0.571647	0.982131
N137	N	-1.058009	-1.061023	0.492819
N138	N	-0.558009	-0.561023	0.992819
N139	N	-1.088437	-1.089376	0.544237
N140	N	-0.588437	-0.589376	1.044237
H141	H	-1.108140	-1.052170	0.581414
H142	H	-0.608140	-0.552170	1.081414
H143	H	-0.450898	-1.258577	0.295097
H144	H	0.049102	-0.758577	0.795097
H145	H	-0.953237	-1.258872	0.295192
H146	H	-0.453237	-0.758872	0.795192
N147	N	-0.806769	-1.321108	0.233012
N148	N	-0.306769	-0.821108	0.733012
N149	N	-0.782371	-1.367158	0.187021
N150	N	-0.282371	-0.867158	0.687021
H151	H	-0.802048	-1.404400	0.149857
H152	H	-0.302048	-0.904400	0.649857
N153	N	-1.057963	-1.269616	0.284547
N154	N	-0.557963	-0.769616	0.784547
N155	N	-1.106716	-1.269630	0.284570
N156	N	-0.606716	-0.769630	0.784570
H157	H	-1.126413	-1.306859	0.247418
H158	H	-0.626413	-0.806859	0.747418
H159	H	-0.801183	-1.019958	0.533607
H160	H	-0.301183	-0.519958	1.033607
H161	H	-0.450935	-1.071359	0.482025
H162	H	0.049065	-0.571359	0.982025
N163	N	-0.696489	-1.009212	0.544275
N164	N	-0.196489	-0.509212	1.044275
N165	N	-0.720893	-0.963166	0.590262
N166	N	-0.220893	-0.463166	1.090262
H167	H	-0.701221	-0.925921	0.627430
H168	H	-0.201221	-0.425921	1.127430
H169	H	-0.549948	-1.258649	0.295127
H170	H	-0.049948	-0.758649	0.795127
N171	N	-0.555655	-1.060713	0.492724
N172	N	-0.055655	-0.560713	0.992724
N173	N	-0.531278	-1.014633	0.538701
N174	N	-0.031278	-0.514633	1.038701
H175	H	-0.550972	-0.977409	0.575871
H176	H	-0.050972	-0.477409	1.075871
N177	N	-0.696416	-1.321043	0.232979
N178	N	-0.196416	-0.821043	0.732979
N179	N	-0.720797	-1.367121	0.187005
N180	N	-0.220797	-0.867121	0.687005
H181	H	-0.701106	-1.404345	0.149832
H182	H	-0.201106	-0.904345	0.649832
