data_functionalizedCrystal
_audit_creation_method	'MofGen! by Chris Wilmer'
_symmetry_space_group_name_H-M	'P1'
_symmetry_Int_Tables_number	1
_symmetry_cell_setting	triclinic
loop_
_symmetry_equiv_pos_as_xyz
  x,y,z
_cell_length_a	6.817900
_cell_length_b	10.943632
_cell_length_c	19.453030
_cell_angle_alpha	94.440722
_cell_angle_beta	101.707737
_cell_angle_gamma	108.838880
loop_
_atom_site_label
_atom_site_type_symbol
_atom_site_fract_x
_atom_site_fract_y
_atom_site_fract_z
V1	V	-4.034365	-0.179974	-0.218982
O2	O	-3.993612	0.007265	-0.214830
O3	O	-4.012876	-0.355528	-0.217467
O4	O	-3.976941	-0.177812	-0.314495
O5	O	-4.029796	-0.171680	-0.117131
V6	V	-4.515675	-0.157506	-0.206802
O7	O	-4.300477	-0.229258	-0.245700
O8	O	-4.699760	-0.108221	-0.180084
O9	O	-4.313957	0.018048	-0.208316
O10	O	-4.673825	-0.344745	-0.210953
O11	O	-4.637641	-0.165800	-0.308652
O12	O	-4.349892	-0.159668	-0.111289
C13	C	-3.864716	-0.398305	-0.214009
C14	C	-3.928373	-0.541826	-0.213407
C15	C	-3.774701	-0.618954	-0.209407
C16	C	-3.874544	-0.691253	-0.152705
C17	C	-3.941980	-0.725260	-0.269044
C18	C	-4.027350	-0.612221	-0.156665
C19	C	-4.094786	-0.646234	-0.273056
C20	C	-4.194743	-0.718495	-0.216343
C21	C	-3.818876	-0.171610	-0.337776
C22	C	-3.853387	-0.171004	-0.415858
C23	C	-3.926970	-0.289015	-0.462552
C24	C	-3.959423	-0.288460	-0.535920
C25	C	-3.918248	-0.169885	-0.562590
C26	C	-3.844665	-0.051858	-0.515886
C27	C	-3.812235	-0.052418	-0.442520
N28	N	-3.812320	-0.076918	-0.668093
N29	N	-3.843127	-0.076394	-0.737788
C30	C	-4.015959	-0.168192	-0.783638
N31	N	-4.156805	-0.260552	-0.757160
N32	N	-4.125988	-0.261080	-0.687458
C33	C	-3.953408	-0.169265	-0.642142
C34	C	-4.124738	-0.285609	-0.909887
C35	C	-4.157201	-0.285050	-0.983256
C36	C	-4.042421	-0.048444	-0.963220
C37	C	-4.009980	-0.049008	-0.889853
C38	C	-4.051133	-0.167594	-0.863190
C39	C	-4.125461	0.060818	-0.211773
C40	C	-4.041042	0.204338	-0.212379
C41	C	-4.171301	-0.165874	-0.088004
C42	C	-4.116027	-0.166474	-0.009921
H43	H	-3.782091	-0.711698	-0.101815
C44	C	-3.890071	-0.418971	-0.626680
C45	C	-4.040301	-0.418186	-0.587259
H46	H	-3.940010	-0.499056	-0.658374
H47	H	-3.758130	-0.410136	-0.595353
H48	H	-3.870219	-0.348263	-0.653056
H49	H	-4.060142	-0.488888	-0.560878
H50	H	-4.172280	-0.427035	-0.618590
H51	H	-3.596499	-0.575452	-0.206408
H52	H	-4.008908	0.048102	-0.984934
C53	C	-4.014599	-0.411259	-0.093595
C54	C	-4.075191	-0.546002	-0.092482
H55	H	-4.044117	-0.370379	-0.053968
H56	H	-4.092496	-0.395627	-0.136268
H57	H	-3.866076	-0.376389	-0.091292
H58	H	-4.223718	-0.580874	-0.094790
H59	H	-3.997298	-0.561643	-0.049798
H60	H	-3.960493	-0.385578	-0.440849
H61	H	-3.811147	0.044686	-0.537606
H62	H	-4.158250	-0.382169	-0.888178
C63	C	-4.480098	-0.719054	-0.161396
C64	C	-4.435273	-0.776889	-0.220276
H65	H	-4.628586	-0.755113	-0.163821
H66	H	-4.440437	-0.627496	-0.161406
H67	H	-4.401691	-0.735351	-0.119027
H68	H	-4.513668	-0.760583	-0.262645
H69	H	-4.474957	-0.868468	-0.220273
H70	H	-4.187158	-0.625756	-0.323946
H71	H	-3.906471	-0.774471	-0.316521
H72	H	-3.752315	0.043684	-0.404501
H73	H	-3.950051	0.047090	-0.851832
C74	C	-4.437353	-0.492657	-1.026283
C75	C	-4.238091	-0.414782	-1.034584
H76	H	-4.487280	-0.572752	-1.057968
H77	H	-4.536013	-0.448105	-1.036482
H78	H	-4.423891	-0.509945	-0.978769
H79	H	-4.251557	-0.397485	-1.082097
H80	H	-4.139408	-0.459343	-1.024390
