data_functionalizedCrystal
_audit_creation_method	'MofGen! by Chris Wilmer'
_symmetry_space_group_name_H-M	'P1'
_symmetry_Int_Tables_number	1
_symmetry_cell_setting	triclinic
loop_
_symmetry_equiv_pos_as_xyz
  x,y,z
_cell_length_a	15.297475
_cell_length_b	18.050589
_cell_length_c	18.050582
_cell_angle_alpha	89.981795
_cell_angle_beta	80.321138
_cell_angle_gamma	80.331321
loop_
_atom_site_label
_atom_site_type_symbol
_atom_site_fract_x
_atom_site_fract_y
_atom_site_fract_z
Zn1	Zn	1.379108	-0.492498	-0.616076
Zn2	Zn	1.879108	0.007502	-0.116076
Zn3	Zn	1.378999	-0.616666	-0.491880
Zn4	Zn	1.878999	-0.116666	0.008120
Zn5	Zn	1.228258	-0.470984	-0.470446
Zn6	Zn	1.728258	0.029016	0.029554
Zn7	Zn	1.228195	-0.595116	-0.594581
Zn8	Zn	1.728195	-0.095116	-0.094581
O9	O	1.303640	-0.543816	-0.543246
O10	O	1.803640	-0.043816	-0.043246
O11	O	1.505337	-0.526991	-0.617567
O12	O	2.005337	-0.026991	-0.117567
O13	O	1.358984	-0.597356	-0.385110
O14	O	1.858984	-0.097356	0.114890
O15	O	1.248340	-0.369924	-0.489790
O16	O	1.748340	0.130076	0.010210
O17	O	1.505257	-0.618217	-0.526321
O18	O	2.005257	-0.118217	-0.026321
O19	O	1.359169	-0.385730	-0.596784
O20	O	1.859169	0.114270	-0.096784
O21	O	1.248235	-0.490324	-0.369362
O22	O	1.748235	0.009676	0.130638
O23	O	1.102006	-0.469428	-0.468946
O24	O	1.602006	0.030572	0.031054
O25	O	1.248233	-0.581489	-0.701360
O26	O	1.748233	-0.081489	-0.201360
O27	O	1.101960	-0.560628	-0.560148
O28	O	1.601960	-0.060628	-0.060148
O29	O	1.359108	-0.506095	-0.717152
O30	O	1.859108	-0.006095	-0.217152
O31	O	1.358923	-0.717721	-0.505478
O32	O	1.858923	-0.217721	-0.005478
O33	O	1.248128	-0.701889	-0.580932
O34	O	1.748128	-0.201889	-0.080932
C35	C	1.069249	-0.510355	-0.509889
C36	C	1.569249	-0.010355	-0.009889
C37	C	0.968976	-0.496059	-0.495637
C38	C	1.468976	0.003941	0.004363
C39	C	0.686326	-0.646002	-0.645112
C40	C	1.186326	-0.146002	-0.145112
C41	C	0.780537	-0.659440	-0.658501
C42	C	1.280537	-0.159440	-0.158501
C43	C	0.827652	-0.618595	-0.617786
C44	C	1.327652	-0.118595	-0.117786
C45	C	0.780545	-0.564311	-0.563680
C46	C	1.280545	-0.064311	-0.063680
C47	C	0.686324	-0.550876	-0.550286
C48	C	1.186324	-0.050876	-0.050286
C49	C	0.827650	-0.523470	-0.522960
C50	C	1.327650	-0.023470	-0.022960
C51	C	0.780543	-0.469186	-0.468854
C52	C	1.280543	0.030814	0.031146
C53	C	0.686332	-0.455753	-0.455462
C54	C	1.186332	0.044247	0.044538
C55	C	0.639217	-0.496597	-0.496177
C56	C	1.139217	0.003403	0.003823
C57	C	0.921871	-0.536905	-0.536354
C58	C	1.421871	-0.036905	-0.036354
C59	C	0.921870	-0.441780	-0.441528
C60	C	1.421870	0.058220	0.058472
C61	C	0.827658	-0.428342	-0.428139
C62	C	1.327658	0.071658	0.071861
C63	C	1.303531	-0.736753	-0.543218
C64	C	1.803531	-0.236753	-0.043218
C65	C	1.303567	-0.819303	-0.543243
C66	C	1.803567	-0.319303	-0.043243
C67	C	1.243376	-1.010180	-0.584265
C68	C	1.743376	-0.510180	-0.084265
C69	C	1.221391	-1.056477	-0.513371
C70	C	1.721391	-0.556477	-0.013371
C71	C	1.303656	-0.970446	-0.543265
C72	C	1.803656	-0.470446	-0.043265
C73	C	1.325685	-1.071238	-0.614173
C74	C	1.825685	-0.571238	-0.114173
C75	C	1.303740	-1.116444	-0.543292
C76	C	1.803740	-0.616444	-0.043292
C77	C	1.281628	-1.015650	-0.472329
C78	C	1.781628	-0.515650	0.027671
C79	C	1.385960	-1.030412	-0.573182
C80	C	1.885960	-0.530412	-0.073182
C81	C	1.364006	-1.076691	-0.502245
C82	C	1.864006	-0.576691	-0.002245
C83	C	1.303605	-0.886341	-0.543250
C84	C	1.803605	-0.386341	-0.043250
C85	C	1.303790	-1.200547	-0.543300
C86	C	1.803790	-0.700547	-0.043300
C87	C	1.538946	-0.577408	-0.576733
C88	C	2.038946	-0.077408	-0.076733
C89	C	1.639219	-0.591722	-0.591003
C90	C	2.139219	-0.091722	-0.091003
C91	C	1.303675	-0.543788	-0.736956
C92	C	1.803675	-0.043788	-0.236956
C93	C	1.303690	-0.543776	-0.819504
C94	C	1.803690	-0.043776	-0.319504
C95	C	1.303774	-0.350129	-0.543293
C96	C	1.803774	0.149871	-0.043293
C97	C	1.303831	-0.267592	-0.543314
C98	C	1.803831	0.232408	-0.043314
C99	C	1.243443	-0.584714	-1.010374
C100	C	1.743443	-0.084714	-0.510374
C101	C	1.325749	-0.614612	-1.071472
C102	C	1.825749	-0.114612	-0.571472
C103	C	1.303735	-0.543726	-0.970641
C104	C	1.803735	-0.043726	-0.470641
C105	C	1.221474	-0.513814	-1.056631
C106	C	1.721474	-0.013814	-0.556631
C107	C	1.303771	-0.543678	-1.116631
C108	C	1.803771	-0.043678	-0.616631
C109	C	1.386084	-0.573666	-1.030659
C110	C	1.886084	-0.073666	-0.530659
C111	C	1.281754	-0.472828	-1.015805
C112	C	1.781754	0.027172	-0.515805
C113	C	1.364117	-0.502708	-1.076889
C114	C	1.864117	-0.002708	-0.576889
C115	C	1.303713	-0.543755	-0.886540
C116	C	1.803713	-0.043755	-0.386540
C117	C	1.303802	-0.543649	-1.200732
C118	C	1.803802	-0.043649	-0.700732
C119	C	1.303657	-0.543798	-0.350296
C120	C	1.803657	-0.043798	0.149704
C121	C	1.303817	-0.543625	-0.267773
C122	C	1.803817	-0.043625	0.232227
H123	H	0.818885	-0.703639	-0.702553
H124	H	1.318885	-0.203639	-0.202553
F125	F	1.350079	-0.692954	-1.103302
F126	F	1.850079	-0.192954	-0.603302
H127	H	1.455687	-0.599012	-1.018956
H128	H	1.955687	-0.099012	-0.518956
H129	H	0.647957	-0.679256	-0.678252
H130	H	1.147957	-0.179256	-0.178252
F131	F	1.430855	-0.457387	-1.114530
F132	F	1.930855	0.042613	-0.614530
H133	H	1.263116	-0.412903	-0.991434
H134	H	1.763116	0.087097	-0.491434
F135	F	1.257215	-0.983981	-0.393926
F136	F	1.757215	-0.483981	0.106074
H137	H	1.151892	-0.488535	-1.068427
H138	H	1.651892	0.011465	-0.568427
H139	H	1.151829	-1.068331	-0.488089
H140	H	1.651829	-0.568331	0.011911
F141	F	0.971995	-0.594676	-0.593937
F142	F	1.471995	-0.094676	-0.093937
F143	F	0.538945	-0.482294	-0.481934
F144	F	1.038945	0.017706	0.018066
H145	H	1.415019	-1.105480	-0.467536
H146	H	1.915019	-0.605480	0.032464
H147	H	0.904363	-0.629540	-0.628691
H148	H	1.404363	-0.129540	-0.128691
H149	H	0.647980	-0.411559	-0.411397
H150	H	1.147980	0.088441	0.088603
H151	H	1.455506	-1.018558	-0.598494
H152	H	1.955506	-0.518558	-0.098494
H153	H	1.344283	-1.095547	-0.674129
H154	H	1.844283	-0.595547	-0.174129
F155	F	0.972007	-0.398310	-0.398190
F156	F	1.472007	0.101690	0.101810
F157	F	0.777512	-0.370570	-0.370557
F158	F	1.277512	0.129430	0.129443
H159	H	1.192324	-0.981248	-0.618868
H160	H	1.692324	-0.481248	-0.118868
F161	F	1.176861	-0.630098	-0.972578
F162	F	1.676861	-0.130098	-0.472578
