data_functionalizedCrystal
_audit_creation_method	'MofGen! by Chris Wilmer'
_symmetry_space_group_name_H-M	'P1'
_symmetry_Int_Tables_number	1
_symmetry_cell_setting	triclinic
loop_
_symmetry_equiv_pos_as_xyz
  x,y,z
_cell_length_a	12.759394
_cell_length_b	13.033304
_cell_length_c	13.032268
_cell_angle_alpha	89.077769
_cell_angle_beta	82.850556
_cell_angle_gamma	82.816541
loop_
_atom_site_label
_atom_site_type_symbol
_atom_site_fract_x
_atom_site_fract_y
_atom_site_fract_z
Zn1	Zn	-0.326901	-1.498472	0.781530
Zn2	Zn	0.173099	-0.998472	1.281530
Zn3	Zn	-0.477882	-1.520222	0.609560
Zn4	Zn	0.022118	-1.020222	1.109560
Zn5	Zn	-0.321349	-1.348333	0.587701
Zn6	Zn	0.178651	-0.848333	1.087701
Zn7	Zn	-0.521674	-1.326475	0.759595
Zn8	Zn	-0.021674	-0.826475	1.259595
O9	O	-0.411952	-1.423375	0.684596
O10	O	0.088048	-0.923375	1.184596
O11	O	-0.330926	-1.645275	0.777045
O12	O	0.169074	-1.145275	1.277045
O13	O	-0.436467	-1.515670	0.462752
O14	O	0.063533	-1.015670	0.962752
O15	O	-0.175063	-1.368294	0.613444
O16	O	0.324937	-0.868294	1.113444
O17	O	-0.441851	-1.661254	0.650700
O18	O	0.058149	-1.161254	1.150700
O19	O	-0.179142	-1.478601	0.755849
O20	O	0.320858	-0.978601	1.255849
O21	O	-0.321463	-1.389384	0.446692
O22	O	0.178537	-0.889384	0.946692
O23	O	-0.363927	-1.201516	0.592176
O24	O	0.136073	-0.701516	1.092176
O25	O	-0.516488	-1.331041	0.906413
O26	O	-0.016488	-0.831041	1.406413
O27	O	-0.511104	-1.185457	0.718466
O28	O	-0.011104	-0.685457	1.218466
O29	O	-0.373389	-1.457407	0.922528
O30	O	0.126611	-0.957407	1.422528
O31	O	-0.630714	-1.494476	0.629431
O32	O	-0.130714	-0.994476	1.129431
O33	O	-0.662888	-1.352131	0.739661
O34	O	-0.162888	-0.852131	1.239661
C35	C	-0.441666	-1.156170	0.650569
C36	C	0.058334	-0.656170	1.150569
C37	C	-0.454407	-1.041855	0.636036
C38	C	0.045593	-0.541855	1.136036
C39	C	-0.405316	-0.982972	0.692167
C40	C	0.094684	-0.482972	1.192167
C41	C	-0.418483	-0.864821	0.677148
C42	C	0.081517	-0.364821	1.177148
C43	C	-0.684923	-1.423317	0.684564
C44	C	-0.184923	-0.923317	1.184564
C45	C	-0.801695	-1.423381	0.684596
C46	C	-0.301695	-0.923381	1.184596
C47	C	-0.768142	-1.571691	0.569924
C48	C	-0.268142	-1.071691	1.069924
C49	C	-0.806226	-1.645871	0.512604
C50	C	-0.306226	-1.145871	1.012604
C51	C	-0.915944	-1.645928	0.512639
C52	C	-0.415944	-1.145928	1.012639
C53	C	-0.987585	-1.571799	0.570004
C54	C	-0.487585	-1.071799	1.070004
C55	C	-0.949501	-1.497618	0.627325
C56	C	-0.449501	-0.997618	1.127325
C57	C	-0.839778	-1.497568	0.627280
C58	C	-0.339778	-0.997568	1.127280
C59	C	-0.983054	-1.349315	0.742001
C60	C	-0.483054	-0.849315	1.242001
C61	C	-0.873335	-1.349252	0.741961
C62	C	-0.373335	-0.849252	1.241961
C63	C	-1.054694	-1.275185	0.799366
C64	C	-0.554694	-0.775185	1.299366
C65	C	-1.016611	-1.200999	0.856681
C66	C	-0.516611	-0.700999	1.356681
C67	C	-0.906885	-1.200945	0.856642
C68	C	-0.406885	-0.700945	1.356642
C69	C	-0.835252	-1.275072	0.799281
C70	C	-0.335252	-0.775072	1.299281
C71	C	-0.137915	-1.423459	0.684655
C72	C	0.362085	-0.923459	1.184655
C73	C	-0.021137	-1.423495	0.684680
C74	C	0.478863	-0.923495	1.184680
C75	C	-0.450443	-1.389360	0.952828
C76	C	0.049557	-0.889360	1.452828
C77	C	-0.466845	-1.374864	1.067132
C78	C	0.033155	-0.874864	1.567132
C79	C	-0.382116	-0.691625	0.718750
C80	C	0.117884	-0.191625	1.218750
C81	C	-0.369386	-0.805939	0.733287
C82	C	0.130614	-0.305939	1.233287
C83	C	-0.373528	-1.457318	0.417416
C84	C	0.126472	-0.957318	0.917416
C85	C	-0.356808	-1.472013	0.303138
C86	C	0.143192	-0.972013	0.803138
C87	C	-0.403355	-1.430925	1.126066
C88	C	0.096645	-0.930925	1.626066
C89	C	-0.420306	-1.415944	1.244206
C90	C	0.079694	-0.915944	1.744206
H91	H	-0.470260	-0.827768	0.617968
H92	H	0.029740	-0.327768	1.117968
H93	H	-0.317600	-0.842991	0.792461
H94	H	0.182400	-0.342991	1.292461
N95	N	-0.508943	-1.337678	1.293211
N96	N	-0.008943	-0.837678	1.793211
H97	H	-0.548985	-1.302325	1.237651
H98	H	-0.048985	-0.802325	1.737651
H99	H	-0.477819	-1.284485	1.331730
H100	H	0.022181	-0.784485	1.831730
H101	H	-0.289892	-1.531097	1.266136
H102	H	0.210108	-1.031097	1.766136
H103	H	-0.678801	-1.571641	0.569875
H104	H	-0.178801	-1.071641	1.069875
H105	H	-0.747887	-1.706229	0.465900
H106	H	-0.247887	-1.206229	0.965900
N107	N	-0.522982	-0.992784	0.557641
N108	N	-0.022982	-0.492784	1.057641
H109	H	-0.522664	-0.915337	0.558022
H110	H	-0.022664	-0.415337	1.058022
H111	H	-0.598251	-1.009486	0.575879
H112	H	-0.098251	-0.509486	1.075879
H113	H	-0.946950	-1.706336	0.465970
H114	H	-0.446950	-1.206336	0.965970
H115	H	-1.076922	-1.571859	0.570038
H116	H	-0.576922	-1.071859	1.070038
H117	H	-1.144032	-1.275241	0.799395
H118	H	-0.644032	-0.775241	1.299395
N119	N	-1.093875	-1.121057	0.918553
N120	N	-0.593875	-0.621057	1.418553
H121	H	-1.169159	-1.132354	0.909883
H122	H	-0.669159	-0.632354	1.409883
H123	H	-1.080640	-1.049645	0.893132
H124	H	-0.580640	-0.549645	1.393132
H125	H	-0.875885	-1.140542	0.903324
H126	H	-0.375885	-0.640542	1.403324
H127	H	-0.745911	-1.275029	0.799236
H128	H	-0.245911	-0.775029	1.299236
H129	H	-0.533744	-1.315772	1.104138
H130	H	-0.033744	-0.815772	1.604138
H131	H	-0.336447	-1.490007	1.089059
H132	H	0.163553	-0.990007	1.589059
H133	H	-0.353536	-1.020029	0.751338
H134	H	0.146464	-0.520029	1.251338
