data_functionalizedCrystal
_audit_creation_method	'MofGen! by Chris Wilmer'
_symmetry_space_group_name_H-M	'P1'
_symmetry_Int_Tables_number	1
_symmetry_cell_setting	triclinic
loop_
_symmetry_equiv_pos_as_xyz
  x,y,z
_cell_length_a	19.077105
_cell_length_b	12.594516
_cell_length_c	19.077258
_cell_angle_alpha	92.303825
_cell_angle_beta	90.096589
_cell_angle_gamma	87.712633
loop_
_atom_site_label
_atom_site_type_symbol
_atom_site_fract_x
_atom_site_fract_y
_atom_site_fract_z
Zn1	Zn	1.058242	-0.461598	0.440451
Zn2	Zn	1.062919	-0.646964	0.322954
Zn3	Zn	0.945480	-0.462137	0.318243
Zn4	Zn	0.940721	-0.632669	0.435707
O5	O	1.001840	-0.550842	0.379339
O6	O	1.157194	-0.491944	0.428821
O7	O	1.051289	-0.628654	0.223998
O8	O	0.960473	-0.313121	0.334467
O9	O	1.160630	-0.628131	0.342498
O10	O	1.043319	-0.312725	0.424253
O11	O	0.965007	-0.492863	0.220536
O12	O	0.846517	-0.479002	0.329868
O13	O	0.952361	-0.603768	0.534668
O14	O	0.843020	-0.604291	0.416168
O15	O	1.038704	-0.478083	0.538153
O16	O	1.046674	-0.794012	0.337898
O17	O	0.956896	-0.783510	0.420737
C18	C	0.819272	-0.540154	0.371992
C19	C	0.741168	-0.535607	0.368866
C20	C	0.702676	-0.598808	0.412259
C21	C	0.629288	-0.594521	0.409325
C22	C	0.594395	-0.527037	0.362995
C23	C	0.632893	-0.463828	0.319600
C24	C	0.706279	-0.468110	0.322538
C25	C	0.375108	-0.507218	0.349401
C26	C	0.301717	-0.502942	0.346464
C27	C	0.298118	-0.633635	0.436191
C28	C	0.371505	-0.637916	0.439122
C29	C	0.409996	-0.574703	0.395730
N30	N	0.519382	-0.522656	0.359993
N31	N	0.485008	-0.579079	0.398736
C32	C	1.001795	-0.827381	0.379330
C33	C	1.001838	-0.945687	0.379352
C34	C	0.953005	-1.009269	0.424375
C35	C	0.938475	-1.083150	0.359570
C36	C	1.016431	-1.082608	0.444171
C37	C	0.987276	-1.018010	0.314512
C38	C	1.065261	-1.017461	0.399158
C39	C	1.050757	-1.091315	0.334309
C40	C	1.185121	-0.561572	0.386714
C41	C	1.263225	-0.566144	0.389857
C42	C	0.994480	-0.539271	0.562620
C43	C	0.991343	-0.534340	0.640723
C44	C	1.001905	-0.273223	0.379364
C45	C	1.001932	-0.154919	0.379374
C46	C	1.034789	-0.602719	0.679221
C47	C	1.031841	-0.598073	0.752608
C48	C	0.985445	-0.525052	0.787495
C49	C	0.941998	-0.456666	0.748991
C50	C	0.944949	-0.461307	0.675606
C51	C	0.971805	-0.503584	1.006779
C52	C	0.968856	-0.498949	1.080169
C53	C	1.058700	-0.640355	1.083780
C54	C	1.061644	-0.644995	1.010394
C55	C	1.018200	-0.576605	0.971897
N56	N	0.982430	-0.520303	0.862507
N57	N	1.021219	-0.581349	0.896886
C58	C	1.009166	-0.562393	1.196770
C59	C	1.012301	-0.567328	1.118667
H60	H	0.266770	-0.685098	0.471519
Br61	Br	0.966667	-0.970770	0.223130
Br62	Br	1.119662	-1.150730	0.270793
H63	H	0.884884	-1.112115	0.342835
H64	H	1.118839	-0.988496	0.415922
H65	H	0.936427	-0.447900	0.975443
H66	H	1.099414	-0.704472	0.981993
Br67	Br	0.758520	-0.382327	0.263649
Br68	Br	1.117658	-0.733164	1.136029
H69	H	1.067219	-0.653754	0.783950
Br70	Br	1.036940	-1.130076	0.535519
Br71	Br	0.577050	-0.680297	0.468220
H72	H	1.072572	-0.662177	0.650822
Br73	Br	0.905914	-0.399800	1.127516
H74	H	0.904224	-0.397206	0.777402
Br75	Br	0.885990	-0.368497	0.623358
H76	H	0.399910	-0.692871	0.476847
Br77	Br	0.750023	-0.690407	0.475134
H78	H	0.406440	-0.455754	0.314062
H79	H	0.604477	-0.408876	0.281880
Br80	Br	0.254363	-0.411363	0.283575
Br81	Br	0.884064	-0.949531	0.487737
