data_functionalizedCrystal
_audit_creation_method	'MofGen! by Chris Wilmer'
_symmetry_space_group_name_H-M	'P1'
_symmetry_Int_Tables_number	1
_symmetry_cell_setting	triclinic
loop_
_symmetry_equiv_pos_as_xyz
  x,y,z
_cell_length_a	14.908571
_cell_length_b	16.625546
_cell_length_c	14.908308
_cell_angle_alpha	93.264070
_cell_angle_beta	90.175053
_cell_angle_gamma	86.718495
loop_
_atom_site_label
_atom_site_type_symbol
_atom_site_fract_x
_atom_site_fract_y
_atom_site_fract_z
Zn1	Zn	1.345280	-0.420778	-0.587557
Zn2	Zn	1.353856	-0.548312	-0.437189
Zn3	Zn	1.203596	-0.405291	-0.428555
Zn4	Zn	1.194884	-0.547354	-0.578841
O5	O	1.274404	-0.480434	-0.508036
O6	O	1.472243	-0.444578	-0.574871
O7	O	1.341159	-0.523260	-0.310220
O8	O	1.222448	-0.294517	-0.449681
O9	O	1.478544	-0.538277	-0.464397
O10	O	1.326543	-0.305896	-0.566499
O11	O	1.230763	-0.418182	-0.303876
O12	O	1.076615	-0.417254	-0.441230
O13	O	1.207599	-0.536644	-0.705821
O14	O	1.070214	-0.521627	-0.551644
O15	O	1.318095	-0.443649	-0.712225
O16	O	1.332711	-0.661013	-0.455945
O17	O	1.215914	-0.660309	-0.560016
C18	C	1.040789	-0.467656	-0.494555
C19	C	0.940846	-0.462211	-0.488810
C20	C	1.274321	-0.689918	-0.507993
C21	C	1.274366	-0.779542	-0.508010
C22	C	0.746435	-0.560814	-0.592833
C23	C	0.652530	-0.555700	-0.587437
C24	C	0.659128	-0.446865	-0.472629
C25	C	0.753033	-0.451979	-0.478024
C26	C	0.796683	-0.508956	-0.538127
C27	C	0.890591	-0.514074	-0.543517
C28	C	0.897187	-0.405236	-0.428714
C29	C	0.803282	-0.400121	-0.423318
C30	C	1.274517	-1.107731	-0.508112
C31	C	1.274472	-1.016419	-0.508086
C32	C	1.274441	-0.943640	-0.508060
C33	C	1.274397	-0.852322	-0.508035
C34	C	1.508931	-0.493262	-0.521569
C35	C	1.608873	-0.498728	-0.527336
C36	C	1.260918	-0.491767	-0.742560
C37	C	1.255172	-0.496597	-0.842501
C38	C	1.274511	-0.270134	-0.508099
C39	C	1.274556	-0.180516	-0.508127
C40	C	1.359429	-0.408817	-1.036969
C41	C	1.354033	-0.413353	-1.130872
C42	C	1.238977	-0.510198	-1.124211
C43	C	1.244374	-0.505662	-1.030308
C44	C	1.304603	-0.454971	-0.986690
C45	C	1.310004	-0.450441	-0.892786
C46	C	1.194945	-0.547281	-0.886127
C47	C	1.189548	-0.551817	-0.980030
C48	C	1.287889	-0.469089	-0.274426
C49	C	1.293810	-0.464042	-0.174497
H50	H	0.926129	-0.560469	-0.592455
H51	H	1.398676	-0.375767	-1.171805
C52	C	1.173664	-0.565197	-1.171745
C53	C	1.180683	-0.559292	-1.264742
C54	C	1.120533	-0.609949	-1.308559
H55	H	1.114102	-0.549397	-1.152973
H56	H	1.187676	-0.619372	-1.157165
H57	H	1.166665	-0.505129	-1.279315
H58	H	1.240232	-0.575099	-1.283540
H59	H	1.134545	-0.664124	-1.293979
H60	H	1.060974	-0.594144	-1.289780
H61	H	1.125293	-0.605955	-1.371662
C62	C	0.793665	-0.622700	-0.658170
C63	C	0.729559	-0.667012	-0.704938
C64	C	0.773032	-0.724021	-0.765144
H65	H	0.832261	-0.658188	-0.625909
H66	H	0.828036	-0.595820	-0.699561
H67	H	0.695203	-0.693890	-0.663553
H68	H	0.690960	-0.631546	-0.737218
H69	H	0.807402	-0.697141	-0.806535
H70	H	0.811627	-0.759503	-0.732875
H71	H	0.729542	-0.754088	-0.796889
C72	C	1.124220	-0.606979	-1.027280
C73	C	1.145068	-0.686717	-1.005531
C74	C	1.084902	-0.737557	-1.049030
H75	H	1.128799	-0.603177	-1.090417
H76	H	1.064681	-0.591185	-1.008389
H77	H	1.204592	-0.702507	-1.024428
H78	H	1.140483	-0.690545	-0.942402
H79	H	1.025363	-0.721763	-1.030138
H80	H	1.089486	-0.733748	-1.112165
H81	H	1.099034	-0.791664	-1.034273
H82	H	0.623571	-0.400472	-0.423701
C83	C	0.597918	-0.611872	-0.646939
C84	C	0.540730	-0.566150	-0.701577
C85	C	0.490416	-0.617869	-0.756413
H86	H	0.563170	-0.643314	-0.610471
H87	H	0.637334	-0.646523	-0.683557
H88	H	0.501318	-0.531513	-0.664963
H89	H	0.575454	-0.534710	-0.738064
H90	H	0.529833	-0.652520	-0.793031
H91	H	0.455674	-0.649308	-0.719938
H92	H	0.451615	-0.586854	-0.793497
C93	C	0.755722	-0.338342	-0.358094
C94	C	0.662729	-0.344971	-0.365064
C95	C	0.618891	-0.288079	-0.304984
H96	H	0.770264	-0.285623	-0.372180
H97	H	0.774515	-0.347982	-0.298518
H98	H	0.643943	-0.335325	-0.424627
H99	H	0.648160	-0.397677	-0.350970
H100	H	0.637683	-0.297719	-0.245407
H101	H	0.633439	-0.235365	-0.319075
H102	H	0.555791	-0.292574	-0.309699
C103	C	1.424707	-0.353651	-0.989645
C104	C	1.403846	-0.273905	-1.011358
C105	C	1.463954	-0.223062	-0.967772
H106	H	1.484265	-0.369392	-1.008478
H107	H	1.420060	-0.357506	-0.926510
H108	H	1.408501	-0.270053	-1.074479
H109	H	1.344298	-0.258139	-0.992524
H110	H	1.459307	-0.226917	-0.904637
H111	H	1.523508	-0.238811	-0.986608
H112	H	1.449802	-0.168949	-0.982491
H113	H	1.150303	-0.584866	-0.845180
H114	H	1.359047	-0.409167	-0.857274
C115	C	0.951901	-0.348974	-0.369420
C116	C	1.043482	-0.365634	-0.387018
C117	C	1.093910	-0.313820	-0.332421
H118	H	0.940075	-0.356888	-0.308070
H119	H	0.935820	-0.294604	-0.381810
H120	H	1.059557	-0.419990	-0.374621
H121	H	1.055336	-0.357714	-0.448358
H122	H	1.077829	-0.259450	-0.344812
H123	H	1.082077	-0.321738	-0.271074
H124	H	1.156053	-0.325111	-0.344360
