data_functionalizedCrystal
_audit_creation_method	'MofGen! by Chris Wilmer'
_symmetry_space_group_name_H-M	'P1'
_symmetry_Int_Tables_number	1
_symmetry_cell_setting	triclinic
loop_
_symmetry_equiv_pos_as_xyz
  x,y,z
_cell_length_a	15.944551
_cell_length_b	13.339070
_cell_length_c	15.021413
_cell_angle_alpha	90.004806
_cell_angle_beta	89.999557
_cell_angle_gamma	80.435984
loop_
_atom_site_label
_atom_site_type_symbol
_atom_site_fract_x
_atom_site_fract_y
_atom_site_fract_z
O1	O	0.421095	-1.342295	0.074072
O2	O	0.365822	-1.047765	0.074066
O3	O	0.273058	-1.203073	0.074061
O4	O	0.513859	-1.186987	0.074077
O5	O	0.273070	-1.203091	-0.074003
O6	O	0.365834	-1.047783	-0.073999
O7	O	0.421107	-1.342313	-0.073992
Zn8	Zn	0.393473	-1.195051	-0.097504
Zn9	Zn	0.393456	-1.195027	0.097577
O10	O	0.513871	-1.187005	-0.073988
C11	C	0.356492	-1.010084	0.000033
C12	C	0.328661	-0.897780	0.000030
C13	C	0.241614	-1.202414	0.000029
C14	C	0.147902	-1.200412	0.000028
N15	N	0.393485	-1.195075	-0.230641
C16	C	-0.090501	-1.099359	0.000038
C17	C	-0.140578	-1.146294	-0.072965
C18	C	-0.023668	-1.196790	0.000035
C19	C	-0.140569	-1.146299	0.073014
C20	C	-0.189398	-1.193285	0.000045
C21	C	-0.072511	-1.243752	-0.073029
C22	C	-0.072498	-1.243743	0.073016
C23	C	-0.122541	-1.290748	-0.000005
C24	C	0.071804	-1.198807	0.000028
C25	C	-0.284867	-1.191275	0.000046
C26	C	0.545315	-1.187664	0.000047
C27	C	0.639027	-1.189666	0.000053
C28	C	0.430437	-1.379994	0.000043
C29	C	0.458268	-1.492298	0.000051
C30	C	0.545054	-0.533002	0.000058
C31	C	0.571205	-0.638516	0.000063
C32	C	0.510571	-0.703337	0.000055
C33	C	0.423783	-0.662634	0.000041
C34	C	0.397630	-0.557109	0.000043
C35	C	0.363146	-0.727444	0.000040
C36	C	0.276358	-0.686741	0.000026
C37	C	0.250209	-0.581226	0.000027
C38	C	0.310843	-0.516405	0.000036
C39	C	0.389299	-0.832969	0.000038
C40	C	0.241875	-0.857076	0.000023
C41	C	0.215724	-0.751562	0.000018
C42	C	0.350580	-1.266903	-0.470303
C43	C	0.312963	-1.175491	-0.529635
C44	C	0.393469	-1.195051	-0.412248
C45	C	0.431031	-1.286441	-0.529658
C46	C	0.393453	-1.195037	-0.587672
C47	C	0.355803	-1.103593	-0.470274
C48	C	0.473919	-1.214603	-0.470292
C49	C	0.436318	-1.123124	-0.529597
C50	C	0.393476	-1.195061	-0.311191
C51	C	0.393444	-1.195016	-0.688728
N52	N	0.393439	-1.195011	0.230715
H53	H	-0.076038	-1.018487	-0.000036
C54	C	-0.180714	-1.090632	-0.156345
N55	N	-0.210943	-1.048700	-0.219143
H56	H	0.541949	-1.231182	-0.444205
H57	H	-0.170256	-1.105069	0.134737
C58	C	0.282081	-0.400331	0.000030
N59	N	0.260420	-0.312902	0.000025
H60	H	0.244920	-1.158941	-0.555703
H61	H	0.462807	-1.363734	-0.555743
H62	H	-0.042921	-1.284934	-0.134816
H63	H	0.314268	-1.327603	-0.444268
H64	H	0.531868	-0.789251	0.000061
C65	C	0.666669	-0.683283	0.000066
N66	N	0.738577	-0.717000	0.000063
C67	C	-0.032345	-1.299356	0.156403
N68	N	-0.002101	-1.341237	0.219217
C69	C	-0.141866	-1.400095	-0.000061
N70	N	-0.156426	-1.482452	-0.000108
H71	H	0.472569	-1.062289	-0.555467
H72	H	0.459963	-0.866099	0.000045
C73	C	0.611740	-0.461694	0.000069
N74	N	0.661973	-0.407982	0.000077
H75	H	0.179541	-0.548089	0.000026
H76	H	0.323951	-1.026282	-0.444299
C77	C	0.120258	-0.706773	0.000009
N78	N	0.048353	-0.673038	0.000003
H79	H	0.192502	-0.909854	0.000020
