data_functionalizedCrystal
_audit_creation_method	'MofGen! by Chris Wilmer'
_symmetry_space_group_name_H-M	'P1'
_symmetry_Int_Tables_number	1
_symmetry_cell_setting	triclinic
loop_
_symmetry_equiv_pos_as_xyz
  x,y,z
_cell_length_a	14.044220
_cell_length_b	15.944551
_cell_length_c	13.101039
_cell_angle_alpha	93.361595
_cell_angle_beta	86.340132
_cell_angle_gamma	88.343808
loop_
_atom_site_label
_atom_site_type_symbol
_atom_site_fract_x
_atom_site_fract_y
_atom_site_fract_z
O1	O	1.262927	0.198266	-0.085109
O2	O	0.986959	0.190957	-0.085135
O3	O	1.132479	0.072901	-0.085112
O4	O	1.117408	0.316322	-0.085132
O5	O	1.122038	0.081387	0.085316
O6	O	0.976518	0.199443	0.085293
O7	O	1.252486	0.206752	0.085319
Zn8	Zn	1.112845	0.204444	0.112365
Zn9	Zn	1.126601	0.193264	-0.112181
O10	O	1.106967	0.324807	0.085296
C11	C	0.946424	0.192001	0.000076
C12	C	0.841198	0.182459	0.000066
C13	C	0.648535	0.165017	0.000088
C14	C	0.590906	0.232688	0.000087
C15	C	0.483701	0.222982	0.000099
C16	C	0.755749	0.174721	0.000076
C17	C	1.126633	0.045803	0.000102
C18	C	1.124757	-0.047583	0.000102
C19	C	1.030074	-0.269531	0.000079
C20	C	1.068894	-0.323071	0.084115
C21	C	1.121364	-0.218563	0.000094
C22	C	1.079209	-0.331419	-0.083914
C23	C	1.118080	-0.383723	0.000082
C24	C	1.160204	-0.270871	0.084199
C25	C	1.170512	-0.279217	-0.083905
C26	C	1.209397	-0.332734	0.000151
C27	C	1.123253	-0.123419	0.000102
C28	C	1.116197	-0.478865	0.000081
C29	C	1.293021	0.205707	0.000106
C30	C	1.398248	0.215249	0.000108
C31	C	1.112813	0.351905	0.000079
C32	C	1.114689	0.445291	0.000072
N33	N	1.103463	0.212075	0.265612
N34	N	1.135990	0.185628	-0.265429
C35	C	1.090699	0.222464	0.474653
C36	C	1.148750	0.175242	0.525537
C37	C	1.141649	0.181022	0.641855
C38	C	1.097800	0.216684	0.358325
H39	H	0.954293	-0.241893	0.000156
O40	O	0.611316	0.087218	-0.000090
C41	C	0.517955	-0.014959	-0.088351
C42	C	0.560084	0.073156	-0.088283
H43	H	0.476508	-0.026349	-0.159637
H44	H	0.578219	-0.064428	-0.088423
H45	H	0.467893	-0.019310	-0.016992
H46	H	0.610134	0.077590	-0.159630
H47	H	0.499772	0.122584	-0.088158
O48	O	1.214210	0.121738	0.473142
C49	C	1.280750	0.066829	0.307751
C50	C	1.206707	0.127574	0.366965
H51	H	1.274696	0.071514	0.221897
H52	H	1.355578	0.084189	0.328543
H53	H	1.266748	-0.000237	0.328989
H54	H	1.220620	0.194660	0.345760
H55	H	1.131904	0.110142	0.346169
H56	H	1.035671	0.267230	0.518441
O57	O	1.017495	-0.346254	0.168787
C58	C	0.864903	-0.340205	0.264551
C59	C	0.923001	-0.313913	0.168611
H60	H	0.788499	-0.314053	0.264452
H61	H	0.864482	-0.411713	0.264124
H62	H	0.898746	-0.314262	0.336149
H63	H	0.889202	-0.339798	0.096963
H64	H	0.923425	-0.242402	0.169129
O65	O	1.221603	-0.255862	-0.168682
C66	C	1.220791	-0.179959	-0.322365
C67	C	1.162836	-0.206334	-0.226375
H68	H	1.173296	-0.139926	-0.369048
H69	H	1.284034	-0.142009	-0.298210
H70	H	1.247936	-0.238474	-0.370939
H71	H	1.135625	-0.147865	-0.177759
H72	H	1.099641	-0.244314	-0.250602
O73	O	1.299874	-0.365547	0.000011
C74	C	1.422315	-0.456373	-0.088625
C75	C	1.319838	-0.419272	-0.088601
H76	H	1.438482	-0.499831	-0.160249
H77	H	1.474943	-0.403259	-0.087983
H78	H	1.429362	-0.493541	-0.017608
H79	H	1.312699	-0.382113	-0.159606
H80	H	1.267260	-0.472423	-0.089190
H81	H	1.194427	-0.244450	0.155322
O82	O	0.628141	0.310476	-0.000129
C83	C	0.732258	0.403865	-0.088462
C84	C	0.690141	0.315750	-0.088343
H85	H	0.782409	0.408152	-0.159764
H86	H	0.671991	0.453315	-0.088537
H87	H	0.773605	0.415343	-0.017119
H88	H	0.648804	0.304190	-0.159673
H89	H	0.750450	0.266346	-0.088214
O90	O	1.038195	-0.362947	-0.168641
C91	C	0.897282	-0.366470	-0.264342
C92	C	0.943629	-0.330693	-0.168365
H93	H	0.820812	-0.340422	-0.264140
H94	H	0.939776	-0.347594	-0.335984
H95	H	0.896934	-0.437939	-0.263919
H96	H	0.943986	-0.259223	-0.168689
H97	H	0.901121	-0.349635	-0.096766
