data_functionalizedCrystal
_audit_creation_method	'MofGen! by Chris Wilmer'
_symmetry_space_group_name_H-M	'P1'
_symmetry_Int_Tables_number	1
_symmetry_cell_setting	triclinic
loop_
_symmetry_equiv_pos_as_xyz
  x,y,z
_cell_length_a	14.044191
_cell_length_b	11.026607
_cell_length_c	9.482944
_cell_angle_alpha	81.873049
_cell_angle_beta	99.639312
_cell_angle_gamma	79.111103
loop_
_atom_site_label
_atom_site_type_symbol
_atom_site_fract_x
_atom_site_fract_y
_atom_site_fract_z
O1	O	1.324996	-0.316745	0.120814
O2	O	1.047193	-0.305983	0.120833
O3	O	1.163070	-0.132218	0.120820
O4	O	1.209119	-0.490511	0.120827
O5	O	1.130193	-0.094916	-0.120971
O6	O	1.014316	-0.268682	-0.120958
O7	O	1.292119	-0.279444	-0.120977
Cu8	Cu	1.150216	-0.270657	-0.143045
Cu9	Cu	1.189096	-0.314770	0.142901
O10	O	1.176242	-0.453210	-0.120963
C11	C	0.994636	-0.282624	-0.000060
C12	C	0.887014	-0.268577	-0.000053
C13	C	0.649344	-0.342521	-0.000066
C14	C	0.689977	-0.242914	-0.000065
C15	C	0.799619	-0.257196	-0.000058
C16	C	0.539692	-0.328240	-0.000073
C17	C	1.138136	-0.067437	-0.000073
C18	C	1.112813	0.070018	-0.000066
C19	C	1.344676	-0.302804	-0.000080
C20	C	1.452299	-0.316852	-0.000078
C21	C	1.201176	-0.517991	-0.000067
C22	C	1.226501	-0.655448	-0.000064
N23	N	1.122876	-0.239630	-0.344163
C24	C	1.182737	0.136253	-0.000069
C25	C	1.156566	0.278320	-0.000062
C26	C	1.181025	-0.305617	-0.416365
C27	C	1.158284	-0.279791	-0.583782
N28	N	1.216442	-0.345788	0.344020
H29	H	1.261977	0.087784	-0.000083
H30	H	0.696898	-0.438517	-0.000059
C31	C	1.049507	0.343791	-0.000057
N32	N	0.968872	0.393107	-0.000057
C33	C	1.333560	0.279085	-0.000074
N34	N	1.414195	0.229774	-0.000082
C35	C	1.005759	0.135495	-0.000061
N36	N	0.925124	0.184810	-0.000061
H37	H	1.283069	-0.421404	-0.593859
H38	H	1.247648	-0.381226	-0.354237
H39	H	1.091662	-0.204170	-0.645905
C40	C	1.032872	-0.137479	-0.428089
N41	N	0.965078	-0.060538	-0.491300
H42	H	0.642434	-0.146927	0.000035
