data_functionalizedCrystal
_audit_creation_method	'MofGen! by Chris Wilmer'
_symmetry_space_group_name_H-M	'P1'
_symmetry_Int_Tables_number	1
_symmetry_cell_setting	triclinic
loop_
_symmetry_equiv_pos_as_xyz
  x,y,z
_cell_length_a	17.077404
_cell_length_b	21.395361
_cell_length_c	17.077396
_cell_angle_alpha	90.031624
_cell_angle_beta	89.983895
_cell_angle_gamma	89.971496
loop_
_atom_site_label
_atom_site_type_symbol
_atom_site_fract_x
_atom_site_fract_y
_atom_site_fract_z
Zn1	Zn	1.199995	0.249467	-0.443806
Zn2	Zn	1.533329	0.582801	-0.110473
Zn3	Zn	1.866662	0.916134	0.222860
Zn4	Zn	1.199890	0.354250	-0.312535
Zn5	Zn	1.533223	0.687583	0.020798
Zn6	Zn	1.866557	1.020917	0.354132
Zn7	Zn	1.068732	0.249487	-0.312557
Zn8	Zn	1.402066	0.582820	0.020777
Zn9	Zn	1.735399	0.916153	0.354110
Zn10	Zn	1.068678	0.354207	-0.443761
Zn11	Zn	1.402011	0.687541	-0.110428
Zn12	Zn	1.735344	1.020874	0.222906
O13	O	1.134324	0.301853	-0.378165
O14	O	1.467657	0.635186	-0.044831
O15	O	1.800991	0.968520	0.288502
O16	O	1.309828	0.263377	-0.426403
O17	O	1.643162	0.596710	-0.093069
O18	O	1.976495	0.930043	0.240264
O19	O	1.182471	0.340379	-0.202691
O20	O	1.515804	0.673712	0.130642
O21	O	1.849137	1.007046	0.463976
O22	O	1.086212	0.161806	-0.329995
O23	O	1.419545	0.495140	0.003338
O24	O	1.752878	0.828473	0.336671
O25	O	1.309751	0.340360	-0.329958
O26	O	1.643084	0.673694	0.003375
O27	O	1.976418	1.007027	0.336709
O28	O	1.182650	0.161792	-0.426424
O29	O	1.515983	0.495125	-0.093090
O30	O	1.849317	0.828459	0.240243
O31	O	1.086110	0.263410	-0.202707
O32	O	1.419443	0.596743	0.130626
O33	O	1.752776	0.930077	0.463960
O34	O	0.958878	0.263368	-0.329952
O35	O	1.292212	0.596702	0.003382
O36	O	1.625545	0.930035	0.336715
O37	O	1.086118	0.340287	-0.553614
O38	O	1.419452	0.673621	-0.220281
O39	O	1.752785	1.006954	0.113053
O40	O	0.958838	0.340306	-0.426347
O41	O	1.292171	0.673639	-0.093014
O42	O	1.625505	1.006973	0.240320
O43	O	1.182597	0.263335	-0.553647
O44	O	1.515930	0.596669	-0.220314
O45	O	1.849264	0.930002	0.113019
O46	O	1.182418	0.441922	-0.329914
O47	O	1.515751	0.775256	0.003419
O48	O	1.849084	1.108589	0.336752
O49	O	1.086016	0.441891	-0.426326
O50	O	1.419350	0.775224	-0.092992
O51	O	1.752683	1.108558	0.240341
C52	C	0.930376	0.301835	-0.378147
C53	C	1.263709	0.635168	-0.044814
C54	C	1.597043	0.968502	0.288520
C55	C	0.843126	0.301843	-0.378158
C56	C	1.176460	0.635176	-0.044825
C57	C	1.509793	0.968509	0.288508
C58	C	0.802177	0.261829	-0.428454
C59	C	1.135510	0.595162	-0.095120
C60	C	1.468844	0.928495	0.238213
C61	C	0.720197	0.261833	-0.428457
C62	C	1.053530	0.595166	-0.095124
C63	C	1.386863	0.928499	0.238210
C64	C	0.679167	0.301854	-0.378169
C65	C	1.012500	0.635188	-0.044836
C66	C	1.345834	0.968521	0.288498
C67	C	0.720122	0.341870	-0.327868
C68	C	1.053455	0.675203	0.005465
C69	C	1.386788	1.008537	0.338799
C70	C	0.802101	0.341862	-0.327861
C71	C	1.135434	0.675196	0.005472
C72	C	1.468767	1.008529	0.338806
C73	C	0.549252	0.341884	-0.327888
C74	C	0.882585	0.675218	0.005446
C75	C	1.215918	1.008551	0.338779
C76	C	0.467267	0.341893	-0.327895
C77	C	0.800600	0.675226	0.005438
C78	C	1.133934	1.008560	0.338771
C79	C	0.467348	0.261854	-0.428484
C80	C	0.800681	0.595188	-0.095150
C81	C	1.134014	0.928521	0.238183
C82	C	0.549327	0.261847	-0.428477
C83	C	0.882660	0.595180	-0.095143
C84	C	1.215993	0.928513	0.238190
C85	C	0.590276	0.301864	-0.378177
C86	C	0.923609	0.635197	-0.044843
C87	C	1.256942	0.968530	0.288490
C88	C	1.134221	0.464641	-0.378130
C89	C	1.467554	0.797974	-0.044797
C90	C	1.800888	1.131307	0.288537
C91	C	1.134249	0.534282	-0.378141
C92	C	1.467582	0.867615	-0.044808
C93	C	1.800915	1.200948	0.288525
C94	C	1.184489	0.566990	-0.327993
C95	C	1.517823	0.900324	0.005340
C96	C	1.851156	1.233657	0.338674
C97	C	1.184526	0.632426	-0.328014
C98	C	1.517859	0.965759	0.005319
C99	C	1.851193	1.299093	0.338653
C100	C	1.134308	0.665150	-0.378175
C101	C	1.467641	0.998483	-0.044842
C102	C	1.800975	1.331817	0.288492
C103	C	1.084064	0.632433	-0.428333
C104	C	1.417397	0.965767	-0.095000
C105	C	1.750731	1.299100	0.238334
C106	C	1.084034	0.566999	-0.428316
C107	C	1.417368	0.900333	-0.094983
C108	C	1.750701	1.233666	0.238351
C109	C	1.063629	0.768862	-0.384334
C110	C	1.396962	1.102195	-0.051000
C111	C	1.730296	1.435529	0.282333
C112	C	1.063657	0.834295	-0.384345
C113	C	1.396991	1.167628	-0.051012
C114	C	1.730324	1.500962	0.282322
C115	C	1.134400	0.866971	-0.378232
C116	C	1.467734	1.200304	-0.044899
C117	C	1.801067	1.533637	0.288435
C118	C	1.205117	0.834205	-0.372091
C119	C	1.538450	1.167539	-0.038758
C120	C	1.871784	1.500872	0.294576
C121	C	1.205087	0.768771	-0.372074
C122	C	1.538421	1.102105	-0.038741
C123	C	1.871754	1.435438	0.294593
C124	C	1.134335	0.736102	-0.378199
C125	C	1.467669	1.069436	-0.044866
C126	C	1.801002	1.402769	0.288467
C127	C	1.184685	0.970632	-0.328104
C128	C	1.518018	1.303965	0.005229
C129	C	1.851352	1.637299	0.338563
C130	C	1.184723	1.036069	-0.328131
C131	C	1.518057	1.369402	0.005203
C132	C	1.851390	1.702735	0.338536
C133	C	1.084254	1.036075	-0.428446
C134	C	1.417587	1.369408	-0.095112
C135	C	1.750921	1.702742	0.238221
C136	C	1.084223	0.970640	-0.428423
C137	C	1.417556	1.303973	-0.095090
C138	C	1.750890	1.637306	0.238244
C139	C	1.134437	0.937922	-0.378248
C140	C	1.467771	1.271255	-0.044915
C141	C	1.801104	1.604589	0.288419
C142	C	1.339068	0.301871	-0.378183
C143	C	1.672401	0.635204	-0.044850
C144	C	2.005735	0.968538	0.288484
C145	C	1.426318	0.301879	-0.378191
C146	C	1.759651	0.635212	-0.044857
C147	C	2.092985	0.968546	0.288476
C148	C	1.134363	0.301804	-0.582909
C149	C	1.467697	0.635138	-0.249576
C150	C	1.801030	0.968471	0.083758
C151	C	1.134380	0.301784	-0.670159
C152	C	1.467713	0.635117	-0.336826
C153	C	1.801047	0.968450	-0.003492
C154	C	1.134450	1.138430	-0.378231
C155	C	1.467783	1.471763	-0.044897
C156	C	1.801116	1.805096	0.288436
C157	C	1.134506	1.068788	-0.378293
C158	C	1.467839	1.402122	-0.044960
C159	C	1.801172	1.735455	0.288374
C160	C	1.084220	0.261701	-0.711157
C161	C	1.417554	0.595034	-0.377824
C162	C	1.750887	0.928368	-0.044490
C163	C	1.084233	0.261687	-0.793137
C164	C	1.417566	0.595020	-0.459804
C165	C	1.750900	0.928353	-0.126471
C166	C	1.134410	0.301753	-0.834118
C167	C	1.467744	0.635086	-0.500785
C168	C	1.801077	0.968419	-0.167452
C169	C	1.184572	0.341840	-0.793115
C170	C	1.517906	0.675173	-0.459781
C171	C	1.851239	1.008506	-0.126448
C172	C	1.184555	0.341857	-0.711136
C173	C	1.517888	0.675190	-0.377802
C174	C	1.851222	1.008523	-0.044469
C175	C	1.184606	0.341800	-0.963985
C176	C	1.517940	0.675134	-0.630652
C177	C	1.851273	1.008467	-0.297318
C178	C	1.184625	0.341783	-1.045970
C179	C	1.517958	0.675116	-0.712636
C180	C	1.851292	1.008450	-0.379303
C181	C	1.084284	0.261631	-1.045987
C182	C	1.417618	0.594964	-0.712653
C183	C	1.750951	0.928297	-0.379320
C184	C	1.084267	0.261648	-0.964008
C185	C	1.417600	0.594981	-0.630674
C186	C	1.750934	0.928314	-0.297341
C187	C	1.134430	0.301734	-0.923010
C188	C	1.467764	0.635067	-0.589676
C189	C	1.801097	0.968401	-0.256343
C190	C	1.134330	0.301856	-0.174217
C191	C	1.467663	0.635189	0.159116
C192	C	1.800996	0.968523	0.492450
C193	C	1.134465	0.301700	-0.086968
C194	C	1.467798	0.635034	0.246366
C195	C	1.801132	0.968367	0.579699
H196	H	0.582731	0.229261	-0.469430
H197	H	0.916064	0.562595	-0.136097
H198	H	1.249398	0.895928	0.197236
H199	H	1.225379	0.540354	-0.287140
H200	H	1.558712	0.873687	0.046194
H201	H	1.892045	1.207020	0.379527
H202	H	1.262723	0.860809	-0.367113
H203	H	1.596056	1.194142	-0.033780
H204	H	1.929390	1.527475	0.299553
C205	C	0.675156	0.217818	-0.483784
C206	C	1.008489	0.551152	-0.150450
C207	C	1.341822	0.884485	0.182883
H208	H	0.711333	0.193988	-0.513739
H209	H	1.044666	0.527321	-0.180406
H210	H	1.378000	0.860654	0.152928
H211	H	0.643179	0.190489	-0.453823
H212	H	0.976513	0.523823	-0.120490
H213	H	1.309846	0.857156	0.212844
H214	H	0.643176	0.241828	-0.517935
H215	H	0.976510	0.575161	-0.184602
H216	H	1.309843	0.908494	0.148731
H217	H	1.006017	0.742264	-0.389315
H218	H	1.339350	1.075597	-0.055981
H219	H	1.672683	1.408931	0.277352
C220	C	1.028948	0.934658	-0.483577
C221	C	1.362281	1.267992	-0.150244
C222	C	1.695614	1.601325	0.183090
H223	H	0.999039	0.963517	-0.513450
H224	H	1.332372	1.296851	-0.180117
H225	H	1.665706	1.630184	0.153217
H226	H	1.058938	0.909089	-0.517800
H227	H	1.392272	1.242422	-0.184467
H228	H	1.725605	1.575755	0.148867
H229	H	0.994750	0.909177	-0.453503
H230	H	1.328084	1.242510	-0.120170
H231	H	1.661417	1.575844	0.213164
H232	H	1.043385	0.229050	-0.826514
H233	H	1.376718	0.562383	-0.493181
H234	H	1.710052	0.895716	-0.159848
H235	H	0.835578	0.229240	-0.469406
H236	H	1.168911	0.562573	-0.136073
H237	H	1.502244	0.895907	0.197260
C238	C	1.029018	0.217633	-0.666085
C239	C	1.362351	0.550966	-0.332751
C240	C	1.695685	0.884300	0.000582
H241	H	0.999140	0.193765	-0.702246
H242	H	1.332473	0.527099	-0.368913
H243	H	1.665807	0.860432	-0.035579
H244	H	1.059051	0.190340	-0.634113
H245	H	1.392385	0.523674	-0.300779
H246	H	1.725718	0.857007	0.032554
H247	H	0.994790	0.241613	-0.634099
H248	H	1.328123	0.574947	-0.300765
H249	H	1.661456	0.908280	0.032568
H250	H	1.043412	0.229020	-0.930643
H251	H	1.376745	0.562353	-0.597310
H252	H	1.710078	0.895686	-0.263976
H253	H	1.225441	0.659062	-0.287178
H254	H	1.558774	0.992396	0.046156
H255	H	1.892108	1.325729	0.379489
C256	C	1.029082	0.217556	-1.091081
C257	C	1.362415	0.550889	-0.757747
C258	C	1.695748	0.884222	-0.424414
H259	H	1.036264	0.223293	-1.145774
H260	H	1.369597	0.556626	-0.812440
H261	H	1.702930	0.889960	-0.479107
H262	H	1.040581	0.175457	-1.077674
H263	H	1.373915	0.508790	-0.744341
H264	H	1.707248	0.842123	-0.411008
H265	H	0.976334	0.226741	-1.077624
H266	H	1.309668	0.560075	-0.744291
H267	H	1.643001	0.893408	-0.410958
C268	C	0.847145	0.385883	-0.272543
C269	C	1.180478	0.719216	0.060791
C270	C	1.513811	1.052549	0.394124
H271	H	0.810969	0.409725	-0.242600
H272	H	1.144302	0.743058	0.090734
H273	H	1.477636	1.076391	0.424067
H274	H	0.879126	0.361881	-0.238391
H275	H	1.212459	0.695214	0.094942
H276	H	1.545793	1.028548	0.428275
H277	H	0.879120	0.413211	-0.302514
H278	H	1.212453	0.746544	0.030819
H279	H	1.545786	1.079878	0.364153
H280	H	1.262667	0.742095	-0.367076
H281	H	1.596000	1.075429	-0.033743
H282	H	1.929333	1.408762	0.299591
C283	C	1.239823	0.385850	-1.091048
C284	C	1.573157	0.719183	-0.757714
C285	C	1.906490	1.052517	-0.424381
H286	H	1.269691	0.409730	-1.054891
H287	H	1.603025	0.743064	-0.721558
H288	H	1.936358	1.076397	-0.388225
H289	H	1.274049	0.361874	-1.123034
H290	H	1.607383	0.695207	-0.789700
H291	H	1.940716	1.028540	-0.456367
H292	H	1.209780	0.413140	-1.123021
H293	H	1.543113	0.746474	-0.789687
H294	H	1.876447	1.079807	-0.456354
H295	H	1.225575	0.943992	-0.287251
H296	H	1.558909	1.277326	0.046082
H297	H	1.892242	1.610659	0.379416
C298	C	1.239784	0.385896	-0.918889
C299	C	1.573117	0.719229	-0.585555
C300	C	1.906450	1.052562	-0.252222
H301	H	1.269675	0.409751	-0.955035
H302	H	1.603009	0.743085	-0.621702
H303	H	1.936342	1.076418	-0.288369
H304	H	1.209728	0.413199	-0.886896
H305	H	1.543062	0.746532	-0.553563
H306	H	1.876395	1.079865	-0.220230
H307	H	1.274001	0.361934	-0.886921
H308	H	1.607334	0.695267	-0.553587
H309	H	1.940667	1.028601	-0.220254
H310	H	1.225424	0.374465	-0.826488
H311	H	1.558757	0.707798	-0.493155
H312	H	1.892090	1.041132	-0.159821
C313	C	0.422307	0.217835	-0.483811
C314	C	0.755641	0.551169	-0.150477
C315	C	1.088974	0.884502	0.182856
H316	H	0.367607	0.223566	-0.476608
H317	H	0.700941	0.556899	-0.143275
H318	H	1.034274	0.890232	0.190058
H319	H	0.435757	0.227060	-0.536530
H320	H	0.769090	0.560393	-0.203196
H321	H	1.102423	0.893726	0.130137
H322	H	0.435761	0.175723	-0.472416
H323	H	0.769094	0.509056	-0.139082
H324	H	1.102427	0.842389	0.194251
H325	H	0.433863	0.374483	-0.286947
H326	H	0.767196	0.707816	0.046387
H327	H	1.100529	1.041149	0.379720
H328	H	0.582590	0.374469	-0.286926
H329	H	0.915923	0.707802	0.046407
H330	H	1.249257	1.041135	0.379741
C331	C	1.028824	0.668427	-0.483507
C332	C	1.362158	1.001760	-0.150174
C333	C	1.695491	1.335094	0.183160
H334	H	1.036031	0.712083	-0.476330
H335	H	1.369365	1.045416	-0.142996
H336	H	1.702698	1.378749	0.190337
H337	H	1.040274	0.657665	-0.536257
H338	H	1.373607	0.990999	-0.202924
H339	H	1.706941	1.324332	0.130410
H340	H	0.976082	0.657745	-0.471964
H341	H	1.309415	0.991078	-0.138631
H342	H	1.642749	1.324412	0.194703
C343	C	0.674995	0.385895	-0.272551
C344	C	1.008328	0.719228	0.060782
C345	C	1.341662	1.052561	0.394116
H346	H	0.711126	0.409721	-0.242591
H347	H	1.044460	0.743054	0.090742
H348	H	1.377793	1.076387	0.424076
H349	H	0.643014	0.413228	-0.302520
H350	H	0.976347	0.746561	0.030814
H351	H	1.309680	1.079894	0.364147
H352	H	0.643014	0.361893	-0.238403
H353	H	0.976347	0.695226	0.094930
H354	H	1.309680	1.028559	0.428264
H355	H	1.225640	1.062699	-0.287295
H356	H	1.558973	1.396032	0.046038
H357	H	1.892307	1.729366	0.379371
C358	C	1.239731	0.385948	-0.666038
C359	C	1.573064	0.719281	-0.332705
C360	C	1.906397	1.052614	0.000629
H361	H	1.269622	0.409804	-0.702185
H362	H	1.602955	0.743137	-0.368851
H363	H	1.936288	1.076470	-0.035518
H364	H	1.209673	0.413250	-0.634047
H365	H	1.543006	0.746583	-0.300714
H366	H	1.876340	1.079916	0.032620
H367	H	1.273948	0.361988	-0.634069
H368	H	1.607282	0.695321	-0.300735
H369	H	1.940615	1.028655	0.032598
H370	H	1.043369	1.062718	-0.469291
H371	H	1.376702	1.396052	-0.135958
H372	H	1.710036	1.729385	0.197376
C373	C	0.985876	0.870334	-0.391106
C374	C	1.319210	1.203667	-0.057773
C375	C	1.652543	1.537001	0.275560
H376	H	0.996024	0.913983	-0.390233
H377	H	1.329357	1.247317	-0.056900
H378	H	1.662691	1.580650	0.276433
H379	H	0.960751	0.859598	-0.438872
H380	H	1.294084	1.192931	-0.105539
H381	H	1.627417	1.526264	0.227794
H382	H	0.952871	0.859659	-0.348373
H383	H	1.286205	1.192993	-0.015040
H384	H	1.619538	1.526326	0.318294
C385	C	1.028763	0.531018	-0.483477
C386	C	1.362096	0.864352	-0.150144
C387	C	1.695429	1.197685	0.183189
H388	H	0.998856	0.559877	-0.513353
H389	H	1.332190	0.893210	-0.180020
H390	H	1.665523	1.226543	0.153313
H391	H	1.058756	0.505448	-0.517697
H392	H	1.392089	0.838781	-0.184364
H393	H	1.725423	1.172115	0.148970
H394	H	0.994563	0.505538	-0.453405
H395	H	1.327897	0.838871	-0.120071
H396	H	1.661230	1.172204	0.213262
