data_functionalizedCrystal
_audit_creation_method	'MofGen! by Chris Wilmer'
_symmetry_space_group_name_H-M	'P1'
_symmetry_Int_Tables_number	1
_symmetry_cell_setting	triclinic
loop_
_symmetry_equiv_pos_as_xyz
  x,y,z
_cell_length_a	14.519709
_cell_length_b	17.699077
_cell_length_c	16.176319
_cell_angle_alpha	89.993140
_cell_angle_beta	90.000602
_cell_angle_gamma	96.519640
loop_
_atom_site_label
_atom_site_type_symbol
_atom_site_fract_x
_atom_site_fract_y
_atom_site_fract_z
O1	O	-0.116598	1.004415	-0.068724
O2	O	-0.131777	0.784080	-0.068727
O3	O	0.010076	0.900090	-0.068733
O4	O	-0.258451	0.888406	-0.068718
O5	O	0.010085	0.900074	0.068760
O6	O	-0.131768	0.784064	0.068766
O7	O	-0.116589	1.004399	0.068769
Cu8	Cu	-0.124178	0.894230	0.081322
Cu9	Cu	-0.124188	0.894249	-0.081280
O10	O	-0.258442	0.888390	0.068775
C11	C	-0.131230	0.755873	0.000019
C12	C	-0.129601	0.671850	0.000018
C13	C	-0.128828	0.632372	0.074966
C14	C	-0.127283	0.553425	0.074967
C15	C	-0.126517	0.513957	0.000018
C16	C	-0.127287	0.553441	-0.074936
C17	C	-0.128825	0.632387	-0.074936
C18	C	-0.121081	0.235060	-0.074938
C19	C	-0.119545	0.156108	-0.074932
C20	C	-0.119538	0.156098	0.074965
C21	C	-0.121077	0.235044	0.074965
C22	C	-0.121842	0.274522	0.000011
C23	C	-0.123515	0.360125	0.000011
C24	C	-0.124850	0.428354	0.000017
C25	C	-0.292804	0.888942	0.000030
C26	C	-0.395178	0.890574	0.000036
C27	C	-0.770048	0.896581	0.000003
C28	C	-0.665748	0.894913	0.000013
C29	C	-0.582617	0.893578	0.000020
C30	C	-0.478309	0.891909	0.000028
C31	C	0.044438	0.899537	0.000010
C32	C	0.146812	0.897905	-0.000001
C33	C	-0.117137	1.032606	0.000021
C34	C	-0.118766	1.116629	0.000017
N35	N	-0.124170	0.894222	0.195687
N36	N	-0.124189	0.894263	-0.195645
C37	C	-0.061383	0.945607	0.238949
C38	C	-0.061382	0.945611	0.325496
C39	C	-0.124173	0.894233	0.368780
C40	C	-0.186963	0.842843	0.325512
C41	C	-0.186959	0.842836	0.238967
C42	C	-0.186980	0.842869	0.674540
C43	C	-0.186981	0.842881	0.761092
C44	C	-0.061403	0.945644	0.761069
C45	C	-0.061399	0.945637	0.674524
C46	C	-0.124185	0.894244	0.631264
C47	C	-0.124184	0.894240	0.537420
C48	C	-0.124179	0.894241	0.462622
H49	H	-0.121700	0.267194	-0.135970
N50	N	0.002773	0.998088	0.194754
N51	N	-0.026367	1.045123	0.146447
H52	H	0.018956	1.082188	0.115246
N53	N	-0.129607	0.672729	-0.151486
N54	N	-0.065482	0.723675	-0.168208
H55	H	-0.066029	0.752168	-0.222273
N56	N	-0.126521	0.513127	-0.151495
N57	N	-0.191678	0.515059	-0.201676
H58	H	-0.191140	0.486588	-0.255748
N59	N	-0.251131	0.790392	0.805294
N60	N	-0.307184	0.744510	0.766661
H61	H	-0.352489	0.707442	0.797878
N62	N	0.002744	0.998124	0.805271
N63	N	0.059954	0.974039	0.853568
H64	H	0.105257	1.011102	0.884785
H65	H	-0.238085	0.800993	0.203744
N66	N	0.002763	0.998101	0.369673
N67	N	0.058819	1.043972	0.331017
H68	H	0.104126	1.081046	0.362216
N69	N	0.002734	0.998133	0.630324
N70	N	0.058787	1.044013	0.668961
H71	H	0.104082	1.081091	0.637747
N72	N	-0.251115	0.790367	0.630372
N73	N	-0.307171	0.744499	0.669031
H74	H	-0.352469	0.707416	0.637835
H75	H	-0.238085	0.801006	0.360759
N76	N	-0.129639	0.672685	0.151523
N77	N	-0.194453	0.656968	0.201704
H78	H	-0.195028	0.685439	0.255774
N79	N	-0.121848	0.275371	0.151516
N80	N	-0.123217	0.345859	0.151504
H81	H	-0.123758	0.374341	0.205569
H82	H	-0.126639	0.521287	0.135997
N83	N	-0.118758	0.115759	0.151523
N84	N	-0.117385	0.045272	0.151519
H85	H	-0.116839	0.016783	0.205586
N86	N	-0.118764	0.115803	-0.151502
N87	N	-0.119447	0.151058	-0.218419
H88	H	-0.118897	0.122593	-0.272494
