data_functionalizedCrystal
_audit_creation_method	'MofGen! by Chris Wilmer'
_symmetry_space_group_name_H-M	'P1'
_symmetry_Int_Tables_number	1
_symmetry_cell_setting	triclinic
loop_
_symmetry_equiv_pos_as_xyz
  x,y,z
_cell_length_a	10.540514
_cell_length_b	15.944551
_cell_length_c	14.421503
_cell_angle_alpha	89.996660
_cell_angle_beta	90.008227
_cell_angle_gamma	84.006949
loop_
_atom_site_label
_atom_site_type_symbol
_atom_site_fract_x
_atom_site_fract_y
_atom_site_fract_z
O1	O	1.684303	0.118260	0.077126
O2	O	1.314734	0.129436	0.077125
O3	O	1.509611	0.001633	0.077117
O4	O	1.489427	0.246063	0.077134
O5	O	1.509578	0.001652	-0.077106
O6	O	1.314702	0.129455	-0.077098
O7	O	1.684271	0.118279	-0.077098
Cu8	Cu	1.499483	0.123869	-0.091180
Cu9	Cu	1.499522	0.123846	0.091207
O10	O	1.489394	0.246082	-0.077090
C11	C	1.267426	0.128612	0.000013
C12	C	1.126510	0.126118	0.000013
C13	C	1.508757	-0.029657	0.000005
C14	C	1.506245	-0.122917	0.000005
C15	C	1.054560	0.217521	0.000021
C16	C	0.907982	0.214957	0.000375
C17	C	0.934867	0.076398	0.087913
C18	C	1.081363	0.079609	0.087982
C19	C	1.081748	0.078278	-0.087405
C20	C	0.934781	0.077396	-0.088556
C21	C	1.379446	-0.338523	0.000017
C22	C	1.438311	-0.399183	-0.076024
C23	C	1.501700	-0.293670	0.000012
C24	C	1.438372	-0.399185	0.076028
C25	C	1.497301	-0.458609	0.000023
C26	C	1.560598	-0.353102	-0.076093
C27	C	1.560642	-0.353098	0.076028
C28	C	1.619596	-0.413740	-0.000032
C29	C	1.504230	-0.198653	0.000005
C30	C	1.494780	-0.553625	0.000023
C31	C	1.731579	0.119104	0.000016
C32	C	1.872495	0.121597	0.000023
C33	C	1.490248	0.277372	0.000024
C34	C	1.492760	0.370633	0.000031
N35	N	1.499466	0.123884	-0.219461
C36	C	1.409339	0.182953	-0.469111
C37	C	1.524041	0.199938	-0.530912
C38	C	1.499497	0.123864	-0.408623
C39	C	1.384824	0.106900	-0.530915
C40	C	1.499516	0.123847	-0.591344
C41	C	1.614256	0.140887	-0.469063
C42	C	1.474965	0.047816	-0.469061
C43	C	1.589749	0.064768	-0.530834
C44	C	1.499484	0.123876	-0.303362
C45	C	1.499542	0.123834	-0.696603
N46	N	1.499549	0.123824	0.219488
H47	H	0.864821	0.250508	-0.062613
H48	H	1.112814	0.108712	-0.154044
H49	H	1.277970	-0.305814	-0.000059
H50	H	1.666084	0.014788	-0.557765
H51	H	1.386589	-0.419588	-0.140311
O52	O	1.369885	-0.426217	0.161183
H53	H	1.336841	-0.369850	0.203257
H54	H	0.891852	0.107365	0.153574
O55	O	1.145577	-0.011021	-0.088545
H56	H	1.071734	-0.055778	-0.086440
H57	H	1.454161	-0.016469	-0.441871
H58	H	1.544809	0.264243	-0.558080
H59	H	1.612319	-0.332671	0.140318
H60	H	1.287840	0.092559	-0.558087
O61	O	1.754146	-0.456841	-0.000010
H62	H	1.751401	-0.526239	0.000622
O63	O	0.852075	0.261824	0.084328
H64	H	0.747067	0.260163	0.084870
H65	H	0.913487	0.007827	0.090928
O66	O	1.308453	0.249196	-0.433205
H67	H	1.213497	0.235694	-0.459055
O68	O	1.742755	0.159990	-0.433239
H69	H	1.741721	0.159881	-0.356279
O70	O	0.879881	0.121159	-0.174686
H71	H	0.775246	0.117860	-0.176539
O72	O	1.091682	0.266661	-0.083442
H73	H	1.161816	0.226469	-0.125822
H74	H	1.084303	0.254049	0.062960
O75	O	0.903892	-0.012723	-0.095991
H76	H	0.843415	-0.027488	-0.036393
O77	O	1.118210	0.123311	0.175340
H78	H	1.068919	0.188301	0.177140
O79	O	1.146181	-0.009323	0.092952
H80	H	1.072849	-0.054431	0.095303
O81	O	1.629012	-0.326220	-0.161348
H82	H	1.630288	-0.256703	-0.160702
