data_functionalizedCrystal
_audit_creation_method	'MofGen! by Chris Wilmer'
_symmetry_space_group_name_H-M	'P1'
_symmetry_Int_Tables_number	1
_symmetry_cell_setting	triclinic
loop_
_symmetry_equiv_pos_as_xyz
  x,y,z
_cell_length_a	31.640172
_cell_length_b	16.704579
_cell_length_c	16.704494
_cell_angle_alpha	66.028929
_cell_angle_beta	89.995619
_cell_angle_gamma	62.453549
loop_
_atom_site_label
_atom_site_type_symbol
_atom_site_fract_x
_atom_site_fract_y
_atom_site_fract_z
Zr1	Zr	0.439592	0.814689	-0.043854
O2	O	0.380706	0.960063	-0.155684
O3	O	0.453672	0.661160	-0.017110
O4	O	0.463155	0.802911	-0.166560
O5	O	0.368261	0.830448	0.120230
O6	O	0.532711	0.802897	-0.166566
O7	O	0.371223	0.818312	-0.006233
O8	O	0.515747	0.549331	0.100773
O9	O	0.385224	1.084014	-0.147110
O10	O	0.516384	0.727320	0.003398
O11	O	0.462265	0.736386	0.097780
O12	O	0.473430	0.903280	-0.078178
O13	O	0.419311	0.912346	0.016204
Zr14	Zr	0.545802	0.834023	0.157830
Zr15	Zr	0.550526	0.814668	-0.043864
Zr16	Zr	0.434868	0.834045	0.157839
Zr17	Zr	0.446799	1.012377	-0.030180
Zr18	Zr	0.538595	0.636336	0.144156
O19	O	0.531722	0.987553	0.131085
O20	O	0.538439	0.960033	-0.155697
O21	O	0.373989	0.987583	0.131099
O22	O	0.604688	0.688650	0.269659
O23	O	0.611405	0.661130	-0.017123
O24	O	0.446955	0.688680	0.269672
O25	O	0.617133	0.818265	-0.006254
O26	O	0.522239	0.845802	0.280536
O27	O	0.452683	0.845816	0.280542
O28	O	0.614171	0.830401	0.120209
O29	O	0.473402	1.083997	-0.147117
O30	O	0.511992	0.564716	0.261093
O31	O	0.600170	0.564699	0.261085
O32	O	0.603924	0.549315	0.100766
O33	O	0.381469	1.099398	0.013210
O34	O	0.469647	1.099381	0.013202
O35	O	0.511964	0.745433	0.192154
O36	O	0.566083	0.736367	0.097771
O37	O	0.523129	0.912326	0.016195
O38	O	0.469010	0.921393	0.110577
C39	C	0.483683	0.577079	0.039883
C40	C	0.480623	0.493156	0.034078
C41	C	0.442115	0.436490	-0.039063
C42	C	0.444988	0.515341	-0.033598
C43	C	0.513387	0.392111	0.096296
C44	C	0.510514	0.313260	0.090830
C45	C	0.474877	0.335455	0.023148
C46	C	0.472007	0.256602	0.017680
C47	C	0.540404	0.133375	0.147576
C48	C	0.543277	0.212225	0.153041
C49	C	0.353936	0.824383	0.057000
C50	C	0.306842	0.824392	0.057004
C51	C	0.016466	0.817652	-0.012681
C52	C	-0.160521	0.817638	-0.012689
O53	O	-0.182008	0.811907	-0.071921
N54	N	-0.184283	0.824325	0.056980
C55	C	-0.163794	0.831011	0.126658
O56	O	-0.188064	0.836688	0.185920
C57	C	0.013194	0.831017	0.126669
C58	C	0.036951	0.824339	0.056991
C59	C	0.040224	0.810973	-0.082353
C60	C	0.084467	0.810982	-0.082353
C61	C	0.104952	0.817670	-0.012681
C62	C	0.081194	0.824348	0.056991
C63	C	0.033683	0.837695	0.196350
C64	C	0.077934	0.837693	0.196347
C65	C	0.101691	0.831016	0.126669
C66	C	0.145922	0.831045	0.126663
N67	N	0.169684	0.824357	0.056994
C68	C	0.149199	0.817670	-0.012678
C69	C	-0.256716	0.831009	0.126647
C70	C	-0.300963	0.831009	0.126644
C71	C	-0.297686	0.817634	-0.012703
C72	C	-0.253440	0.817641	-0.012702
C73	C	-0.232953	0.824321	0.056978
C74	C	0.242111	0.817690	-0.012673
C75	C	0.286357	0.817704	-0.012668
C76	C	0.283077	0.831074	0.126680
C77	C	0.238834	0.831065	0.126674
C78	C	0.218353	0.824369	0.056993
O79	O	0.167440	0.836762	0.185868
O80	O	0.173482	0.811971	-0.071921
C81	C	-0.027776	0.817643	-0.012681
C82	C	-0.051534	0.824321	0.056990
C83	C	-0.031049	0.831009	0.126662
C84	C	-0.095781	0.824321	0.056987
C85	C	-0.116266	0.817634	-0.012685
C86	C	-0.092504	0.810946	-0.082353
C87	C	-0.048261	0.810955	-0.082353
C88	C	-0.054811	0.837696	0.196331
C89	C	-0.099054	0.837688	0.196325
C90	C	-0.119539	0.831000	0.126653
C91	C	0.631458	0.824330	0.056976
C92	C	0.678552	0.824321	0.056972
C93	C	0.498606	0.800146	-0.195300
C94	C	0.500611	0.791929	-0.280924
C95	C	0.501711	1.071633	0.074092
C96	C	0.504771	1.155557	0.079897
C97	C	0.459539	0.960208	-0.526996
C98	C	0.461422	0.952492	-0.607450
C99	C	0.506263	0.768784	-0.522288
C100	C	0.504380	0.776499	-0.441834
C101	C	0.481017	0.872215	-0.444193
C102	C	0.479131	0.879929	-0.363737
C103	C	0.523974	0.696222	-0.278577
C104	C	0.525858	0.688506	-0.359030
C105	C	0.486788	0.848567	0.309276
C106	C	0.484783	0.856783	0.394900
C107	C	0.622444	0.577053	0.039871
C108	C	0.666478	0.493120	0.034062
C109	C	0.477774	0.601290	0.292171
C110	C	0.472709	0.525583	0.371990
C111	C	0.616535	0.601263	0.292159
C112	C	0.658564	0.525547	0.371974
C113	C	0.368859	1.047450	-0.178184
C114	C	0.326830	1.123165	-0.257999
C115	C	0.362950	1.071660	0.074104
C116	C	0.318916	1.155592	0.079913
C117	C	0.507620	1.047423	-0.178196
C118	C	0.512685	1.123130	-0.258015
C119	C	0.661216	0.448982	-0.017936
C120	C	0.702588	0.370127	-0.023412
C121	C	0.749222	0.335408	0.023115
C122	C	0.754483	0.379555	0.075116
C123	C	0.713112	0.458413	0.080586
C124	C	0.496272	0.494753	0.458745
C125	C	0.491512	0.423630	0.533752
C126	C	0.463190	0.383333	0.522002
C127	C	0.439624	0.414169	0.435239
C128	C	0.444382	0.485296	0.360234
C129	C	0.706556	0.485258	0.360190
C130	C	0.746052	0.414125	0.435178
C131	C	0.737555	0.383278	0.521949
C132	C	0.689558	0.423575	0.533732
C133	C	0.650064	0.494712	0.458746
C134	C	0.278838	1.163465	-0.246214
C135	C	0.239343	1.234622	-0.321200
C136	C	0.247840	1.265473	-0.407971
C137	C	0.295837	1.225171	-0.419755
C138	C	0.335331	1.154020	-0.344769
C139	C	0.324179	1.199739	0.131903
C140	C	0.282808	1.278613	0.137359
C141	C	0.236174	1.313334	0.090829
C142	C	0.230912	1.269184	0.038832
C143	C	0.272283	1.190316	0.033372
C144	C	0.541010	1.163405	-0.246237
C145	C	0.545778	1.234530	-0.321229
C146	C	0.522219	1.265384	-0.407997
C147	C	0.493892	1.225101	-0.419774
C148	C	0.489127	1.153972	-0.344783
H149	H	0.413101	0.454562	-0.094179
H150	H	0.769718	0.325353	0.583000
H151	H	0.362146	1.171475	0.169801
O152	O	0.187580	1.278072	-0.308473
H153	H	0.161541	1.332742	-0.375187
H154	H	0.219487	0.836517	0.183405
H155	H	0.526103	1.323303	-0.469051
O156	O	0.576331	1.277967	-0.308511
H157	H	0.552955	1.361668	-0.336796
H158	H	0.271910	1.138349	-0.175568
O159	O	0.191560	1.398389	0.096745
H160	H	0.172528	1.463226	0.028368
O161	O	0.468477	1.258393	-0.513361
H162	H	0.476546	1.314630	-0.563519
O163	O	0.266603	1.142694	-0.022697
H164	H	0.227224	1.180087	-0.054123
H165	H	0.525291	0.690857	-0.520384
H166	H	0.287102	1.314547	0.179703
H167	H	0.466060	1.121187	-0.354386
O168	O	0.797812	0.370704	0.422432
H169	H	0.819009	0.389161	0.457745
O170	O	0.180613	1.306637	-0.011354
H171	H	0.152734	1.368888	0.001191
O172	O	0.438260	1.047402	-0.696759
H173	H	0.443498	1.025961	-0.752309
H174	H	0.460105	0.957866	-0.365661
H175	H	-0.028921	0.805517	-0.139091
H176	H	0.215677	1.323409	-0.469022
H177	H	0.442991	0.274678	-0.037433
H178	H	0.418306	0.597607	-0.084251
O179	O	0.598300	0.538144	0.471459
H180	H	0.599031	0.504724	0.544395
O181	O	0.526819	0.538209	0.471437
H182	H	0.557026	0.519766	0.436106
H183	H	0.682647	0.398449	0.604391
O184	O	0.581713	0.188287	0.226040
H185	H	0.618682	0.140070	0.219293
O186	O	0.387093	1.110542	-0.357485
H187	H	0.386361	1.143945	-0.430423
H188	H	0.302750	1.250300	-0.490412
O189	O	0.715730	0.518531	0.266608
H190	H	0.735004	0.451550	0.253844
O191	O	0.551053	0.585273	-0.356488
H192	H	0.548752	0.594689	-0.426343
H193	H	0.560196	1.138296	-0.175592
H194	H	0.542399	0.374058	0.151403
H195	H	0.305698	0.812269	-0.069411
O196	O	0.575743	0.024397	0.214686
H197	H	0.567758	-0.026707	0.199520
H198	H	0.225441	0.812236	-0.069413
H199	H	0.023550	0.805524	-0.139089
O200	O	0.110092	0.803769	-0.157500
H201	H	0.088410	0.799109	-0.205936
O202	O	0.434340	1.063435	-0.529528
H203	H	0.419722	1.123328	-0.600625
O204	O	0.793839	0.250349	0.017209
H205	H	0.819029	0.277649	-0.011538
O206	O	-0.227813	0.810429	-0.087849
H207	H	-0.249495	0.805774	-0.136290
H208	H	-0.314372	0.812191	-0.069434
H209	H	0.792458	0.351275	0.112996
H210	H	-0.320307	0.836462	0.183374
H211	H	0.014346	0.843132	0.253088
O212	O	-0.234622	0.838216	0.201806
H213	H	-0.258585	0.842873	0.250239
O214	O	0.547149	0.601304	-0.189265
H215	H	0.541919	0.622745	-0.133714
O216	O	0.100030	0.844901	0.271503
H217	H	0.076071	0.849551	0.319944
O218	O	0.305181	0.838271	0.201830
H219	H	0.308500	0.907262	0.173329
O220	O	-0.114604	0.803740	-0.157506
H221	H	-0.149360	0.804853	-0.145789
O222	O	0.610921	0.486431	-0.068137
H223	H	0.603339	0.422974	-0.044265
O224	O	-0.124673	0.844875	0.271489
H225	H	-0.102987	0.849510	0.319940
H226	H	0.510705	0.398532	0.604391
O227	O	-0.032719	0.844909	0.271481
H228	H	-0.056681	0.849562	0.319917
O229	O	0.696907	0.322512	-0.079492
H230	H	0.657527	0.359895	-0.110909
H231	H	0.459320	0.325418	0.583084
O232	O	0.718790	0.506004	0.136688
H233	H	0.758168	0.468598	0.168128
H234	H	0.416565	0.381349	0.425686
H235	H	0.425195	0.510387	0.289597
