data_functionalizedCrystal
_audit_creation_method	'MofGen! by Chris Wilmer'
_symmetry_space_group_name_H-M	'P1'
_symmetry_Int_Tables_number	1
_symmetry_cell_setting	triclinic
loop_
_symmetry_equiv_pos_as_xyz
  x,y,z
_cell_length_a	6.817900
_cell_length_b	14.125469
_cell_length_c	16.255661
_cell_angle_alpha	95.870770
_cell_angle_beta	103.488922
_cell_angle_gamma	100.398878
loop_
_atom_site_label
_atom_site_type_symbol
_atom_site_fract_x
_atom_site_fract_y
_atom_site_fract_z
V1	V	-4.010936	-0.133890	-0.263542
O2	O	-4.014854	0.005634	-0.258862
O3	O	-3.947073	-0.264713	-0.261416
O4	O	-3.962699	-0.132182	-0.378630
O5	O	-3.999120	-0.127814	-0.140837
V6	V	-4.496546	-0.117160	-0.248905
O7	O	-4.267615	-0.170589	-0.295650
O8	O	-4.690064	-0.080461	-0.216797
O9	O	-4.337203	0.013662	-0.251031
O10	O	-4.610025	-0.256684	-0.253585
O11	O	-4.625759	-0.123236	-0.371610
O12	O	-4.321576	-0.118869	-0.133818
C13	C	-3.788307	-0.296593	-0.257175
C14	C	-3.817379	-0.403545	-0.256204
C15	C	-3.870675	-0.599365	-0.254439
C16	C	-4.056174	-0.651697	-0.258011
C17	C	-4.085830	-0.760658	-0.257029
C18	C	-3.841011	-0.490394	-0.255421
C19	C	-3.808239	-0.127536	-0.406692
C20	C	-3.849981	-0.127004	-0.500774
C21	C	-3.761285	-0.120657	-0.723608
C22	C	-3.908049	-0.202574	-0.792883
C23	C	-3.926483	-0.126008	-0.673025
C24	C	-3.854120	-0.043154	-0.771390
C25	C	-4.000365	-0.125041	-0.839411
C26	C	-4.072720	-0.207998	-0.741070
C27	C	-4.018737	-0.048505	-0.719561
C28	C	-4.165635	-0.130445	-0.788817
C29	C	-3.883916	-0.126566	-0.577175
C30	C	-4.042948	-0.124491	-0.935261
C31	C	-4.159310	0.045538	-0.255270
C32	C	-4.109476	0.152488	-0.256246
C33	C	-4.139379	-0.123518	-0.105751
C34	C	-4.076875	-0.124044	-0.011668
H35	H	-3.590007	-0.116625	-0.695138
C36	C	-3.845449	-0.290567	-0.836023
C37	C	-3.619941	-0.302335	-0.810960
C38	C	-3.557324	-0.390324	-0.854095
C39	C	-3.720216	-0.466545	-0.922294
C40	C	-3.945738	-0.454780	-0.947360
C41	C	-4.008355	-0.366791	-0.904225
H42	H	-3.499346	-0.245909	-0.760473
H43	H	-3.390377	-0.399033	-0.835539
H44	H	-3.673863	-0.531680	-0.954225
H45	H	-4.066333	-0.511205	-0.997848
H46	H	-4.175302	-0.358082	-0.922781
C47	C	-4.197000	-0.302219	-0.722654
C48	C	-4.163026	-0.401865	-0.757493
C49	C	-4.287292	-0.496086	-0.739074
C50	C	-4.445534	-0.490661	-0.685815
C51	C	-4.479516	-0.391012	-0.650973
C52	C	-4.355249	-0.296791	-0.669392
H53	H	-4.045879	-0.405884	-0.796921
H54	H	-4.262136	-0.569853	-0.764867
H55	H	-4.537524	-0.560409	-0.672180
H56	H	-4.596662	-0.386993	-0.611544
H57	H	-4.380406	-0.223024	-0.643598
H58	H	-4.192711	-0.614668	-0.261806
H59	H	-3.734148	-0.636392	-0.250642
C60	C	-4.081238	0.039492	-0.676388
C61	C	-3.976924	0.143650	-0.682935
C62	C	-4.039399	0.231657	-0.639757
C63	C	-4.206187	0.215506	-0.590033
C64	C	-4.310511	0.111343	-0.583484
C65	C	-4.248036	0.023337	-0.626662
H66	H	-3.853448	0.155610	-0.719746
H67	H	-3.962170	0.308764	-0.644605
H68	H	-4.252435	0.280654	-0.558070
H69	H	-4.433987	0.099384	-0.546673
H70	H	-4.325265	-0.053771	-0.621813
H71	H	-4.337017	-0.134605	-0.817153
C72	C	-3.729816	0.050965	-0.789966
C73	C	-3.492449	0.074203	-0.760172
C74	C	-3.368130	0.168316	-0.778747
C75	C	-3.481176	0.239190	-0.827115
C76	C	-3.718555	0.215954	-0.856912
C77	C	-3.842875	0.121841	-0.838338
H78	H	-3.408754	0.021736	-0.724364
H79	H	-3.192405	0.185517	-0.756689
H80	H	-3.389147	0.308858	-0.840865
H81	H	-3.802251	0.268421	-0.892720
H82	H	-4.018599	0.104640	-0.860396
