data_functionalizedCrystal
_audit_creation_method	'MofGen! by Chris Wilmer'
_symmetry_space_group_name_H-M	'P1'
_symmetry_Int_Tables_number	1
_symmetry_cell_setting	triclinic
loop_
_symmetry_equiv_pos_as_xyz
  x,y,z
_cell_length_a	14.971506
_cell_length_b	14.971496
_cell_length_c	13.448316
_cell_angle_alpha	90.012677
_cell_angle_beta	89.999097
_cell_angle_gamma	83.620256
loop_
_atom_site_label
_atom_site_type_symbol
_atom_site_fract_x
_atom_site_fract_y
_atom_site_fract_z
O1	O	1.186929	0.116658	0.082701
O2	O	1.520262	0.449992	0.416034
O3	O	1.853596	0.783325	0.749368
O4	O	0.926532	0.130598	0.082702
O5	O	1.259865	0.463931	0.416035
O6	O	1.593199	0.797265	0.749368
O7	O	1.063705	-0.006571	0.082692
O8	O	1.397039	0.326763	0.416026
O9	O	1.730372	0.660096	0.749359
O10	O	1.049756	0.253827	0.082710
O11	O	1.383089	0.587161	0.416043
O12	O	1.716422	0.920494	0.749377
O13	O	1.063710	-0.006595	-0.082691
O14	O	1.397044	0.326738	0.250642
O15	O	1.730377	0.660072	0.583975
O16	O	0.926537	0.130574	-0.082682
O17	O	1.259870	0.463907	0.250651
O18	O	1.593204	0.797240	0.583984
O19	O	1.186934	0.116634	-0.082683
O20	O	1.520268	0.449967	0.250650
O21	O	1.853601	0.783301	0.583984
Cu22	Cu	1.056736	0.123602	-0.097783
Cu23	Cu	1.390069	0.456935	0.235550
Cu24	Cu	1.723403	0.790268	0.568883
Cu25	Cu	1.056730	0.123630	0.097802
Cu26	Cu	1.390063	0.456964	0.431135
Cu27	Cu	1.723397	0.790297	0.764469
O28	O	1.049761	0.253803	-0.082674
O29	O	1.383094	0.587136	0.250660
O30	O	1.716428	0.920470	0.583993
C31	C	0.893210	0.129959	0.000010
C32	C	1.226543	0.463293	0.333343
C33	C	1.559877	0.796626	0.666676
C34	C	0.793914	0.128081	0.000010
C35	C	1.127247	0.461415	0.333343
C36	C	1.460581	0.794748	0.666676
C37	C	1.063082	-0.039908	0.000000
C38	C	1.396416	0.293426	0.333334
C39	C	1.729749	0.626759	0.666667
C40	C	1.061208	-0.139204	-0.000000
C41	C	1.394542	0.194129	0.333333
C42	C	1.727875	0.527462	0.666667
C43	C	0.355634	0.201499	0.000025
C44	C	0.688967	0.534832	0.333358
C45	C	1.022301	0.868166	0.666692
C46	C	0.448934	0.203257	0.000029
C47	C	0.782268	0.536590	0.333363
C48	C	1.115601	0.869923	0.666696
C49	C	0.506151	0.122665	0.000019
C50	C	0.839485	0.455998	0.333353
C51	C	1.172818	0.789331	0.666686
C52	C	0.470064	0.040310	0.000015
C53	C	0.803397	0.373643	0.333349
C54	C	1.136731	0.706976	0.666682
C55	C	0.376765	0.038553	0.000018
C56	C	0.710099	0.371887	0.333351
C57	C	1.043432	0.705220	0.666685
C58	C	0.664527	0.043977	0.000007
C59	C	0.997860	0.377310	0.333340
C60	C	1.331194	0.710643	0.666674
C61	C	0.757832	0.045733	0.000003
C62	C	1.091166	0.379066	0.333336
C63	C	1.424499	0.712400	0.666669
C64	C	0.736696	0.208680	0.000019
C65	C	1.070029	0.542013	0.333352
C66	C	1.403363	0.875347	0.666685
C67	C	0.643397	0.206923	0.000021
C68	C	0.976731	0.540257	0.333355
C69	C	1.310064	0.873590	0.666688
C70	C	0.607316	0.124568	0.000015
C71	C	0.940650	0.457902	0.333349
C72	C	1.273983	0.791235	0.666682
C73	C	1.053138	-0.566896	0.090177
C74	C	1.386471	-0.233562	0.423510
C75	C	1.719804	0.099771	0.756843
C76	C	1.054903	-0.473596	0.090172
C77	C	1.388237	-0.140263	0.423506
C78	C	1.721570	0.193070	0.756839
C79	C	1.055783	-0.426966	0.000018
C80	C	1.389116	-0.093633	0.333351
C81	C	1.722450	0.239701	0.666684
C82	C	1.054906	-0.473641	-0.090138
C83	C	1.388239	-0.140308	0.243195
C84	C	1.721573	0.193026	0.576528
C85	C	1.053147	-0.566939	-0.090133
C86	C	1.386480	-0.233606	0.243200
C87	C	1.719813	0.099727	0.576534
C88	C	1.058571	-0.279177	-0.090143
C89	C	1.391904	0.054156	0.243190
C90	C	1.725237	0.387489	0.576523
C91	C	1.060329	-0.185872	-0.090149
C92	C	1.393662	0.147461	0.243184
C93	C	1.726995	0.480794	0.576518
C94	C	1.060328	-0.185834	0.090162
C95	C	1.393661	0.147499	0.423495
C96	C	1.726994	0.480832	0.756828
C97	C	1.058568	-0.279133	0.090167
C98	C	1.391902	0.054201	0.423501
C99	C	1.725235	0.387534	0.756834
C100	C	1.057690	-0.325801	0.000011
C101	C	1.391023	0.007532	0.333344
C102	C	1.724356	0.340866	0.666677
C103	C	1.220256	0.117273	0.000011
C104	C	1.553589	0.450606	0.333345
C105	C	1.886923	0.783939	0.666678
C106	C	1.319552	0.119151	0.000018
C107	C	1.652886	0.452484	0.333351
C108	C	1.986219	0.785817	0.666684
C109	C	1.050384	0.287140	0.000021
C110	C	1.383717	0.620473	0.333354
C111	C	1.717050	0.953806	0.666687
C112	C	1.052258	0.386436	0.000028
C113	C	1.385591	0.719770	0.333361
C114	C	1.718925	1.053103	0.666694
N115	N	1.056726	0.123644	0.235366
N116	N	1.390060	0.456977	0.568700
N117	N	1.723393	0.790311	0.902033
N118	N	1.056747	0.123581	-0.235348
N119	N	1.390080	0.456914	0.097986
N120	N	1.723414	0.790248	0.431319
C121	C	1.002539	0.069182	0.287395
C122	C	1.335872	0.402515	0.620728
C123	C	1.669206	0.735849	0.954062
C124	C	1.002546	0.069165	0.391498
C125	C	1.335880	0.402498	0.724832
C126	C	1.669213	0.735832	1.058165
C127	C	1.056737	0.123615	0.443571
C128	C	1.390070	0.456949	0.776904
C129	C	1.723404	0.790282	1.110238
C130	C	1.110931	0.178080	0.391535
C131	C	1.444264	0.511413	0.724868
C132	C	1.777597	0.844746	1.058202
C133	C	1.110927	0.178091	0.287434
C134	C	1.444261	0.511425	0.620767
C135	C	1.777594	0.844758	0.954100
C136	C	1.110932	0.178053	0.608515
C137	C	1.444265	0.511386	0.941849
C138	C	1.777599	0.844720	1.275182
C139	C	1.110934	0.178043	0.712624
C140	C	1.444268	0.511376	1.045957
C141	C	1.777601	0.844710	1.379290
C142	C	1.002551	0.069127	0.712580
C143	C	1.335884	0.402460	1.045913
C144	C	1.669218	0.735793	1.379246
C145	C	1.002548	0.069138	0.608478
C146	C	1.335881	0.402472	0.941812
C147	C	1.669214	0.735805	1.275145
C148	C	1.056740	0.123604	0.556450
C149	C	1.390074	0.456938	0.889783
C150	C	1.723407	0.790271	1.223116
H151	H	0.309053	0.267127	0.000025
H152	H	0.642387	0.600460	0.333359
H153	H	0.975720	0.933794	0.666692
H154	H	0.958406	0.024847	0.245005
H155	H	1.291739	0.358180	0.578338
H156	H	1.625072	0.691514	0.911671
F157	F	0.530961	-0.045463	0.000008
F158	F	0.864294	0.287871	0.333341
F159	F	1.197628	0.621204	0.666675
H160	H	0.635154	-0.023086	0.000007
H161	H	0.968487	0.310248	0.333340
H162	H	1.301821	0.643581	0.666674
F163	F	0.582504	0.292698	0.000026
F164	F	0.915837	0.626032	0.333360
F165	F	1.249171	0.959365	0.666693
H166	H	1.061036	-0.147832	0.163570
H167	H	1.394369	0.185502	0.496904
H168	H	1.727702	0.518835	0.830237
H169	H	0.766077	0.275737	0.000023
H170	H	1.099410	0.609070	0.333356
H171	H	1.432744	0.942403	0.666689
F172	F	0.944874	0.011160	0.767953
F173	F	1.278208	0.344494	1.101286
F174	F	1.611541	0.677827	1.434620
F175	F	1.061282	-0.136249	-0.186101
F176	F	1.394615	0.197084	0.147232
F177	F	1.727949	0.530418	0.480565
H178	H	1.155053	0.222439	0.245073
H179	H	1.488386	0.555773	0.578407
H180	H	1.821719	0.889106	0.911740
H181	H	0.958424	0.024814	0.433855
H182	H	1.291757	0.358147	0.767189
H183	H	1.625091	0.691481	1.100522
F184	F	1.057641	-0.328844	-0.186099
F185	F	1.390974	0.004490	0.147235
F186	F	1.724308	0.337823	0.480568
F187	F	0.487330	0.290903	0.000042
F188	F	0.820664	0.624237	0.333375
F189	F	1.153997	0.957570	0.666708
F190	F	0.818725	-0.040042	-0.000002
F191	F	1.152059	0.293291	0.333331
F192	F	1.485392	0.626625	0.666665
F193	F	1.168637	0.235968	0.768042
F194	F	1.501970	0.569301	1.101375
F195	F	1.835304	0.902635	1.434708
F196	F	1.168614	0.236018	0.553145
F197	F	1.501948	0.569351	0.886478
F198	F	1.835281	0.902685	1.219812
H199	H	0.347390	-0.028503	0.000014
H200	H	0.680723	0.304830	0.333347
H201	H	1.014056	0.638163	0.666681
F202	F	1.168609	0.236026	0.446958
F203	F	1.501943	0.569359	0.780291
F204	F	1.835276	0.902692	1.113624
H205	H	1.052413	-0.604854	0.163591
H206	H	1.385746	-0.271521	0.496924
H207	H	1.719080	0.061812	0.830258
F208	F	1.055848	-0.424012	-0.186088
F209	F	1.389181	-0.090678	0.147245
F210	F	1.722514	0.242655	0.480579
H211	H	1.055621	-0.435604	0.163581
H212	H	1.388955	-0.102270	0.496914
H213	H	1.722288	0.231063	0.830247
H214	H	1.052430	-0.604935	-0.163542
H215	H	1.385763	-0.271602	0.169792
H216	H	1.719096	0.061731	0.503125
F217	F	0.944865	0.011193	0.553061
F218	F	1.278198	0.344527	0.886394
F219	F	1.611532	0.677860	1.219727
F220	F	1.057626	-0.328758	0.186120
F221	F	1.390959	0.004576	0.519453
F222	F	1.724292	0.337909	0.852786
