data_functionalizedCrystal
_audit_creation_method	'MofGen! by Chris Wilmer'
_symmetry_space_group_name_H-M	'P1'
_symmetry_Int_Tables_number	1
_symmetry_cell_setting	triclinic
loop_
_symmetry_equiv_pos_as_xyz
  x,y,z
_cell_length_a	15.995350
_cell_length_b	17.666332
_cell_length_c	15.995292
_cell_angle_alpha	90.002020
_cell_angle_beta	83.480495
_cell_angle_gamma	90.005607
loop_
_atom_site_label
_atom_site_type_symbol
_atom_site_fract_x
_atom_site_fract_y
_atom_site_fract_z
O1	O	1.110969	0.062879	0.107929
O2	O	0.867191	0.062894	0.121257
O3	O	0.995769	0.062887	-0.007298
O4	O	0.982391	0.062885	0.236484
O5	O	0.995746	-0.063010	-0.007301
O6	O	0.867168	-0.063003	0.121254
O7	O	1.110946	-0.063018	0.107926
Cu8	Cu	0.989055	-0.074506	0.114589
Cu9	Cu	0.989082	0.074382	0.114594
O10	O	0.982368	-0.063011	0.236481
C11	C	0.835985	-0.000053	0.120704
C12	C	0.743035	-0.000047	0.119053
N13	N	0.989042	-0.179225	0.114586
C14	C	0.405288	-0.000063	0.113120
C15	C	0.452742	-0.000343	0.021566
C16	C	0.549431	-0.000054	0.023218
C17	C	0.572848	-0.000055	0.116063
C18	C	0.531765	0.071835	0.161223
C19	C	0.435130	0.071890	0.158923
C20	C	0.434764	-0.071278	0.160810
C21	C	0.531710	-0.072223	0.160788
C22	C	0.667546	-0.000048	0.117731
C23	C	0.310591	-0.000064	0.111455
C24	C	1.039805	-0.218832	0.165404
C25	C	1.039818	-0.298080	0.165401
C26	C	0.989054	-0.337718	0.114590
C27	C	0.938288	-0.298101	0.063762
C28	C	0.938282	-0.218855	0.063759
N29	N	0.915716	-0.462152	0.112304
N30	N	0.915724	-0.537433	0.112311
C31	C	0.989069	-0.576482	0.114593
N32	N	1.062407	-0.537406	0.116885
N33	N	1.062398	-0.462118	0.116882
C34	C	0.989054	-0.423647	0.114587
C35	C	1.039850	-0.702018	0.165412
C36	C	1.039865	-0.781267	0.165403
C37	C	0.938327	-0.781286	0.063769
C38	C	0.938320	-0.702039	0.063772
C39	C	0.989080	-0.662409	0.114598
C40	C	1.142152	-0.000070	0.108479
C41	C	1.235102	-0.000071	0.110130
C42	C	0.995213	-0.000059	-0.038495
C43	C	0.993581	-0.000054	-0.131448
N44	N	0.989101	0.179101	0.114591
C45	C	0.987580	-0.000060	-0.469186
C46	C	1.080384	-0.000347	-0.445874
C47	C	1.082148	-0.000061	-0.349199
C48	C	0.990557	-0.000057	-0.301631
C49	C	0.944173	0.071836	-0.330729
C50	C	0.943055	0.071894	-0.427520
C51	C	0.941134	-0.071274	-0.427381
C52	C	0.944573	-0.072222	-0.330889
C53	C	0.992235	-0.000053	-0.206934
C54	C	0.985899	-0.000059	-0.563882
C55	C	0.982924	-0.000063	0.267678
C56	C	0.984556	-0.000064	0.360631
H57	H	0.577858	-0.051588	-0.012280
F58	F	0.985073	0.142132	-0.462572
F59	F	0.884247	-0.176701	0.009673
F60	F	0.884263	-0.340287	0.009683
H61	H	1.081141	-0.186571	0.206787
H62	H	0.434218	-0.051898	-0.015032
F63	F	1.093850	-0.340241	0.219490
H64	H	0.875011	0.075154	-0.442070
H65	H	0.402989	-0.071766	0.228312
H66	H	0.559024	-0.125407	0.127822
H67	H	0.433165	0.050928	-0.014861
F68	F	0.585844	0.067530	-0.023300
F69	F	1.093888	-0.659839	0.219490
F70	F	1.127130	-0.067738	-0.482469
H71	H	1.115965	0.050917	-0.474890
F72	F	1.093901	-0.823419	0.219490
H73	H	0.896994	-0.813558	0.022396
F74	F	0.884277	-0.659884	0.009697
H75	H	0.402868	0.075151	0.226141
H76	H	1.118476	-0.051596	-0.330175
H77	H	0.560155	0.125338	0.129860
F78	F	1.129933	0.067414	-0.325136
F79	F	0.856079	0.075338	-0.289074
F80	F	0.986299	0.141767	-0.304511
F81	F	0.407923	-0.142503	0.121684
H82	H	0.970351	-0.125769	-0.455472
F83	F	0.988714	-0.141742	-0.306619
F84	F	0.851848	-0.071906	-0.445669
F85	F	0.411218	0.142132	0.115881
F86	F	0.550228	0.075342	0.250373
H87	H	0.547060	-0.076567	0.228494
F88	F	0.857190	-0.077895	-0.287798
