data_functionalizedCrystal
_audit_creation_method	'MofGen! by Chris Wilmer'
_symmetry_space_group_name_H-M	'P1'
_symmetry_Int_Tables_number	1
_symmetry_cell_setting	triclinic
loop_
_symmetry_equiv_pos_as_xyz
  x,y,z
_cell_length_a	16.992701
_cell_length_b	14.853569
_cell_length_c	15.455313
_cell_angle_alpha	92.667679
_cell_angle_beta	87.136501
_cell_angle_gamma	87.151367
loop_
_atom_site_label
_atom_site_type_symbol
_atom_site_fract_x
_atom_site_fract_y
_atom_site_fract_z
O1	O	1.044034	0.187471	-0.072141
O2	O	1.544034	0.687471	0.427859
O3	O	0.815746	0.185376	-0.072141
O4	O	1.315746	0.685376	0.427859
O5	O	0.935987	0.055624	-0.072133
O6	O	1.435987	0.555624	0.427867
O7	O	0.923793	0.317222	-0.072149
O8	O	1.423793	0.817222	0.427851
O9	O	0.929111	0.063011	0.072129
O10	O	1.429111	0.563011	0.572129
O11	O	0.808870	0.192763	0.072120
O12	O	1.308870	0.692763	0.572120
O13	O	1.037158	0.194858	0.072121
O14	O	1.537158	0.694858	0.572121
Cu15	Cu	0.922386	0.194485	0.085293
Cu16	Cu	1.422386	0.694485	0.585293
Cu17	Cu	0.930518	0.185749	-0.085313
Cu18	Cu	1.430518	0.685749	0.414687
O19	O	0.916917	0.324609	0.072112
O20	O	1.416917	0.824609	0.572112
C21	C	0.783093	0.186371	-0.000010
C22	C	1.283093	0.686371	0.499990
C23	C	0.696040	0.178322	-0.000010
C24	C	1.196040	0.678322	0.499990
C25	C	0.207021	0.124236	-0.000010
C26	C	0.707021	0.624236	0.499990
C27	C	0.288815	0.131807	-0.000005
C28	C	0.788815	0.631807	0.499995
C29	C	0.320452	0.217053	-0.000015
C30	C	0.820452	0.717053	0.499985
C31	C	0.270290	0.294733	-0.000020
C32	C	0.770290	0.794733	0.499980
C33	C	0.188496	0.287162	-0.000018
C34	C	0.688496	0.787162	0.499982
C35	C	0.564084	0.248431	-0.000014
C36	C	1.064084	0.748431	0.499986
C37	C	0.645883	0.255996	-0.000018
C38	C	1.145883	0.755996	0.499982
C39	C	0.664404	0.093069	-0.000002
C40	C	1.164404	0.593069	0.499998
C41	C	0.582608	0.085506	-0.000006
C42	C	1.082608	0.585506	0.499994
C43	C	0.532452	0.163186	-0.000006
C44	C	1.032452	0.663186	0.499994
N45	N	0.404059	0.224793	-0.000012
N46	N	0.904059	0.724793	0.499988
N47	N	0.448847	0.155446	-0.000002
N48	N	0.948847	0.655446	0.499998
C49	C	0.931996	0.025690	-0.000002
C50	C	1.431996	0.525690	0.499998
C51	C	0.930340	-0.074510	-0.000001
C52	C	1.430340	0.425490	0.499999
C53	C	0.858137	-0.115984	0.000001
C54	C	1.358137	0.384016	0.500001
C55	C	1.000987	-0.127189	-0.000009
C56	C	1.500987	0.372811	0.499991
C57	C	0.999433	-0.221333	-0.000012
C58	C	1.499433	0.278667	0.499988
C59	C	0.927230	-0.262807	-0.000011
C60	C	1.427230	0.237193	0.499989
C61	C	0.856581	-0.210137	-0.000006
C62	C	1.356581	0.289863	0.499994
C63	C	1.070082	-0.274011	-0.000026
C64	C	1.570082	0.225989	0.499974
C65	C	1.068531	-0.368161	-0.000031
C66	C	1.568531	0.131839	0.499969
C67	C	0.996326	-0.409636	-0.000023
C68	C	1.496326	0.090364	0.499977
C69	C	0.925674	-0.356960	-0.000017
C70	C	1.425674	0.143040	0.499983
C71	C	0.853471	-0.398434	-0.000016
C72	C	1.353471	0.101566	0.499984
C73	C	0.782818	-0.345759	-0.000003
C74	C	1.282818	0.154241	0.499997
C75	C	0.784376	-0.251612	0.000002
C76	C	1.284376	0.248388	0.500002
C77	C	0.994768	-0.503783	-0.000029
C78	C	1.494768	-0.003783	0.499971
C79	C	0.851915	-0.492586	-0.000022
C80	C	1.351915	0.007414	0.499978
C81	C	1.069811	0.193862	-0.000012
C82	C	1.569811	0.693862	0.499988
C83	C	1.156865	0.201911	-0.000018
C84	C	1.656865	0.701911	0.499982
C85	C	0.920908	0.354543	-0.000021
C86	C	1.420908	0.854543	0.499979
C87	C	0.922565	0.454743	-0.000027
C88	C	1.422565	0.954743	0.499973
N89	N	0.916673	0.200629	0.205288
N90	N	1.416673	0.700629	0.705288
N91	N	0.936238	0.179597	-0.205308
N92	N	1.436238	0.679597	0.294692
C93	C	0.967773	0.145529	0.250686
C94	C	1.467773	0.645529	0.750686
C95	C	0.963459	0.150185	0.341493
C96	C	1.463459	0.650185	0.841493
C97	C	0.908048	0.209946	0.386901
C98	C	1.408048	0.709946	0.886901
C99	C	0.856943	0.265048	0.341497
C100	C	1.356943	0.765048	0.841497
C101	C	0.861253	0.260387	0.250691
C102	C	1.361253	0.760387	0.750691
C103	C	0.889442	0.230039	0.658482
C104	C	1.389442	0.730039	1.158482
C105	C	0.885137	0.234697	0.749294
C106	C	1.385137	0.734697	1.249294
C107	C	0.991653	0.119833	0.749283
C108	C	1.491653	0.619833	1.249283
C109	C	0.995962	0.115181	0.658476
C110	C	1.495962	0.615181	1.158476
C111	C	0.944854	0.170280	0.613080
C112	C	1.444854	0.670280	1.113080
N113	N	0.903639	0.214708	0.479721
N114	N	1.403639	0.714708	0.979721
N115	N	0.949260	0.165512	0.520261
N116	N	1.449260	0.665512	1.020261
H117	H	0.671638	0.325418	-0.000013
H118	H	1.171638	0.825418	0.499987
H119	H	0.523256	0.311685	-0.000019
H120	H	1.023256	0.811685	0.499981
C121	C	0.305093	0.388505	-0.000027
C122	C	0.805093	0.888505	0.499973
N123	N	0.331306	0.459136	-0.000036
N124	N	0.831306	0.959136	0.499964
C125	C	0.833323	0.290774	0.608558
C126	C	1.333323	0.790774	1.108558
N127	N	0.791087	0.336568	0.570952
N128	N	1.291087	0.836568	1.070952
C129	C	1.028729	0.079787	0.200745
C130	C	1.528729	0.579787	0.700745
N131	N	1.074641	0.030264	0.163132
N132	N	1.574641	0.530264	0.663132
H133	H	0.147659	0.350414	-0.000022
H134	H	0.647659	0.850414	0.499978
C135	C	0.772485	-0.538199	-0.000020
C136	C	1.272485	-0.038199	0.499980
N137	N	0.712657	-0.572555	-0.000020
N138	N	1.212657	-0.072555	0.499980
C139	C	0.703397	-0.391392	0.000001
C140	C	1.203397	0.108608	0.500001
N141	N	0.643578	-0.425767	0.000008
N142	N	1.143578	0.074233	0.500008
H143	H	0.726855	-0.208716	0.000010
H144	H	1.226855	0.291284	0.500010
H145	H	0.800612	-0.073092	0.000014
H146	H	1.300612	0.426908	0.500014
H147	H	0.705249	0.029827	-0.000000
H148	H	1.205249	0.529827	0.500000
C149	C	1.056914	0.049435	0.608533
C150	C	1.556914	0.549435	1.108533
N151	N	1.102825	-0.000086	0.570917
N152	N	1.602825	0.499914	1.070917
H153	H	1.059771	-0.093415	0.000007
H154	H	1.559771	0.406585	0.500007
H155	H	1.126061	-0.411041	-0.000039
H156	H	1.626061	0.088959	0.499961
C157	C	1.047862	0.059221	0.799226
C158	C	1.547862	0.559221	1.299226
N159	N	1.090199	0.013562	0.836844
N160	N	1.590199	0.513562	1.336844
C161	C	0.824176	0.300439	0.799241
C162	C	1.324176	0.800439	1.299241
N163	N	0.778263	0.349953	0.836861
N164	N	1.278263	0.849953	1.336861
H165	H	0.819641	0.305254	0.213729
H166	H	1.319641	0.805254	0.713729
H167	H	1.052293	-0.546667	-0.000047
H168	H	1.552293	-0.046667	0.499953
H169	H	0.181269	0.054820	-0.000008
H170	H	0.681269	0.554820	0.499992
C171	C	0.343984	0.046358	0.000003
C172	C	0.843984	0.546358	0.500003
N173	N	0.385538	-0.018006	0.000009
N174	N	0.885538	0.481994	0.500009
H175	H	0.811822	0.313703	0.378474
H176	H	1.311822	0.813703	0.878474
H177	H	1.128863	-0.240233	0.000026
H178	H	1.628863	0.259767	0.500026
C179	C	1.019655	0.089547	0.391427
C180	C	1.519655	0.589547	0.891427
N181	N	1.061977	0.043863	0.429036
N182	N	1.561977	0.543863	0.929036
H183	H	0.556856	0.016090	0.000002
H184	H	1.056856	0.516090	0.500002
