data_functionalizedCrystal
_audit_creation_method	'MofGen! by Chris Wilmer'
_symmetry_space_group_name_H-M	'P1'
_symmetry_Int_Tables_number	1
_symmetry_cell_setting	triclinic
loop_
_symmetry_equiv_pos_as_xyz
  x,y,z
_cell_length_a	16.992694
_cell_length_b	9.130313
_cell_length_c	10.654551
_cell_angle_alpha	89.998448
_cell_angle_beta	87.576792
_cell_angle_gamma	89.994745
loop_
_atom_site_label
_atom_site_type_symbol
_atom_site_fract_x
_atom_site_fract_y
_atom_site_fract_z
O1	O	1.041836	0.121601	0.266426
O2	O	0.813535	0.121644	0.263503
O3	O	0.932934	0.121622	0.082678
O4	O	0.922437	0.121623	0.447250
O5	O	0.932933	-0.121977	0.082683
O6	O	0.813534	-0.121955	0.263508
O7	O	1.041835	-0.121998	0.266431
Cu8	Cu	0.927684	-0.144219	0.264970
Cu9	Cu	0.927686	0.143865	0.264964
O10	O	0.922436	-0.121976	0.447255
C11	C	0.784301	-0.000150	0.259745
C12	C	0.697196	-0.000133	0.248526
N13	N	0.927689	-0.346842	0.264973
C14	C	0.647545	-0.000134	0.356776
C15	C	0.565701	-0.000154	0.346227
C16	C	0.533510	-0.000163	0.227426
C17	C	0.583168	-0.000166	0.119167
C18	C	0.665010	-0.000156	0.129718
C19	C	0.289674	-0.000202	0.183699
C20	C	0.207825	-0.000207	0.173157
C21	C	0.190364	-0.000198	0.400218
C22	C	0.272209	-0.000179	0.410758
C23	C	0.321859	-0.000190	0.302499
N24	N	0.449852	-0.000179	0.216640
N25	N	0.405515	-0.000185	0.313286
C26	C	0.980572	-0.423503	0.184935
C27	C	0.980570	-0.576840	0.184920
C28	C	0.874798	-0.576840	0.344992
C29	C	0.874797	-0.423506	0.345000
C30	C	1.033464	-0.346839	0.104908
C31	C	1.086352	-0.423501	0.024864
C32	C	1.086350	-0.576837	0.024848
C33	C	1.033460	-0.653512	0.104877
C34	C	1.071069	-0.000201	0.270188
C35	C	1.158174	-0.000208	0.281408
C36	C	0.932163	-0.000174	0.035816
C37	C	0.929856	-0.000163	-0.103826
N38	N	0.927688	0.346488	0.264950
C39	C	0.928775	0.132620	-0.169434
C40	C	0.926601	0.132614	-0.300643
C41	C	0.926593	-0.132971	-0.300623
C42	C	0.928761	-0.132963	-0.169417
C43	C	0.929870	0.265420	-0.103844
C44	C	0.928790	0.398214	-0.169452
C45	C	0.926616	0.398208	-0.300660
C46	C	0.925522	0.265407	-0.366260
C47	C	0.923207	-0.000177	0.494117
C48	C	0.925514	-0.000178	0.633759
H49	H	0.525277	-0.000153	0.434377
O50	O	0.718570	-0.000160	0.012965
H51	H	0.707051	0.099128	-0.043503
H52	H	1.033457	-0.778370	0.104849
O53	O	0.306933	-0.000171	0.538890
H54	H	0.343818	-0.099447	0.549119
O55	O	0.136815	-0.000217	0.516980
H56	H	0.074496	-0.000242	0.489691
H57	H	0.925728	0.506335	-0.354074
O58	O	1.143381	-0.340792	-0.061462
H59	H	1.204627	-0.370231	-0.039278
O60	O	0.817765	-0.340803	0.431332
H61	H	0.780995	-0.419870	0.486994
H62	H	0.931642	0.265440	0.002992
H63	H	1.033472	-0.221984	0.104916
H64	H	0.929672	0.506335	-0.116031
H65	H	0.181619	-0.000213	0.076410
H66	H	0.330090	-0.000212	0.095546
H67	H	0.556952	-0.000194	0.022437
O68	O	1.143395	-0.659531	-0.061469
H69	H	1.180177	-0.580456	-0.117100
O70	O	0.817762	-0.659529	0.431321
H71	H	0.826654	-0.779031	0.417879
H72	H	0.923740	0.265413	-0.473098
H73	H	0.929625	-0.241087	-0.115995
O74	O	0.682264	-0.000139	0.484912
H75	H	0.633985	-0.000162	0.558412
O76	O	0.925434	-0.276201	-0.371370
H77	H	0.923757	-0.253897	-0.473630
