data_functionalizedCrystal
_audit_creation_method	'MofGen! by Chris Wilmer'
_symmetry_space_group_name_H-M	'P1'
_symmetry_Int_Tables_number	1
_symmetry_cell_setting	triclinic
loop_
_symmetry_equiv_pos_as_xyz
  x,y,z
_cell_length_a	14.519709
_cell_length_b	19.288865
_cell_length_c	17.766277
_cell_angle_alpha	90.011603
_cell_angle_beta	90.003743
_cell_angle_gamma	83.408197
loop_
_atom_site_label
_atom_site_type_symbol
_atom_site_fract_x
_atom_site_fract_y
_atom_site_fract_z
O1	O	-1.223296	-0.091051	-0.062505
O2	O	-0.954751	-0.101773	-0.062529
O3	O	-1.096783	0.004690	-0.062502
O4	O	-1.081264	-0.197514	-0.062533
O5	O	-1.096759	0.004696	0.062687
O6	O	-0.954726	-0.101768	0.062659
O7	O	-1.223271	-0.091045	0.062683
Cu8	Cu	-1.088997	-0.096406	0.074102
Cu9	Cu	-1.089026	-0.096413	-0.073948
O10	O	-1.081239	-0.197509	0.062656
C11	C	-1.096272	0.030571	0.000095
C12	C	-1.094773	0.107680	0.000101
C13	C	-0.920382	-0.101271	0.000062
C14	C	-0.818010	-0.099773	0.000054
C15	C	-1.257640	-0.091548	0.000090
C16	C	-1.360012	-0.093045	0.000094
C17	C	-0.443150	-0.094261	0.000089
C18	C	-0.547448	-0.095792	0.000079
C19	C	-0.630577	-0.097017	0.000070
C20	C	-0.734882	-0.098548	0.000062
C21	C	-1.081751	-0.223390	0.000058
C22	C	-1.083250	-0.300499	0.000046
N23	N	-1.088983	-0.096401	0.178232
C24	C	-1.178111	0.152077	0.000112
C25	C	-1.176702	0.224529	0.000100
C26	C	-1.091951	0.252581	0.000092
C27	C	-1.008602	0.208175	0.000077
C28	C	-1.010013	0.135725	0.000081
C29	C	-1.025318	0.361110	0.043937
C30	C	-1.023911	0.433560	0.043937
C31	C	-1.087597	0.476043	0.000075
C32	C	-1.152705	0.446068	-0.043778
C33	C	-1.154116	0.373618	-0.043773
C34	C	-1.090412	0.331141	0.000087
C35	C	-1.169414	0.599000	0.000072
C36	C	-1.168002	0.671454	0.000055
C37	C	-0.999899	0.655098	0.000040
C38	C	-1.001314	0.582647	0.000049
C39	C	-1.086073	0.554602	0.000069
N40	N	-1.089047	-0.096412	-0.178078
C41	C	-1.151895	-0.049282	0.217631
C42	C	-1.151900	-0.049279	0.296433
C43	C	-1.089002	-0.096407	0.335833
C44	C	-1.026078	-0.143529	0.296424
C45	C	-1.026069	-0.143526	0.217624
C46	C	-1.076656	-0.159650	0.460660
C47	C	-1.076672	-0.159654	0.539459
C48	C	-1.089027	-0.096415	0.578879
C49	C	-1.101385	-0.033170	0.539491
C50	C	-1.101375	-0.033167	0.460690
C51	C	-1.089005	-0.096415	0.421279
C52	C	-1.151948	-0.049289	0.703724
C53	C	-1.151947	-0.049285	0.782528
C54	C	-1.026129	-0.143541	0.782517
C55	C	-1.026126	-0.143539	0.703715
C56	C	-1.089040	-0.096414	0.664324
H57	H	-1.244568	0.260683	0.000106
H58	H	-1.203174	-0.010914	0.671650
H59	H	-1.203121	-0.010909	0.185561
H60	H	-0.974901	-0.181910	0.671634
N61	N	-0.961893	-0.191690	0.822754
N62	N	-0.962888	-0.255894	0.813939
H63	H	-0.917519	-0.289901	0.842360
H64	H	-1.111435	0.018329	0.428623
N65	N	-1.216169	-0.001139	0.336678
N66	N	-1.272332	0.040934	0.301498
H67	H	-1.317723	0.074933	0.329918
H68	H	-1.066615	-0.211151	0.571523
H69	H	-1.207128	0.349216	-0.079481
H70	H	-1.203175	-0.010911	0.814607
N71	N	-1.217778	0.489441	-0.088588
N72	N	-1.302819	0.489606	-0.077522
H73	H	-1.348778	0.520239	-0.109167
H74	H	-1.111445	0.018325	0.571585
N75	N	-0.961794	-0.191662	0.177386
N76	N	-0.905632	-0.233734	0.212569
H77	H	-0.860237	-0.267732	0.184150
N78	N	-1.064045	-0.224258	0.420410
N79	N	-1.053033	-0.280719	0.455584
H80	H	-1.044132	-0.326348	0.427158
H81	H	-0.942147	0.099576	0.000073
N82	N	-0.961830	-0.191660	0.336678
N83	N	-0.961847	-0.191657	0.407034
H84	H	-0.916466	-0.225648	0.435464
H85	H	-1.247128	0.129248	0.000126
H86	H	-1.235869	0.707601	0.000060
N87	N	-1.255997	0.570360	0.000094
N88	N	-1.330403	0.610012	0.000100
H89	H	-1.391554	0.589787	0.000117
H90	H	-0.930893	0.677938	0.000029
H91	H	-0.970892	0.457959	0.079640
N92	N	-0.916176	0.537303	0.000040
N93	N	-0.840510	0.562355	0.000030
H94	H	-0.780376	0.530331	0.000021
H95	H	-0.973455	0.326526	0.079659
N96	N	-0.922039	0.236838	0.000062
N97	N	-0.920790	0.301526	0.000059
H98	H	-0.859652	0.321770	0.000044
