data_functionalizedCrystal
_audit_creation_method	'MofGen! by Chris Wilmer'
_symmetry_space_group_name_H-M	'P1'
_symmetry_Int_Tables_number	1
_symmetry_cell_setting	triclinic
loop_
_symmetry_equiv_pos_as_xyz
  x,y,z
_cell_length_a	14.044191
_cell_length_b	14.044220
_cell_length_c	12.996460
_cell_angle_alpha	90.006978
_cell_angle_beta	90.002997
_cell_angle_gamma	93.190327
loop_
_atom_site_label
_atom_site_type_symbol
_atom_site_fract_x
_atom_site_fract_y
_atom_site_fract_z
O1	O	1.277174	0.230202	0.085522
O2	O	1.610507	0.563535	0.418855
O3	O	1.943841	0.896868	0.752188
O4	O	1.000501	0.221889	0.085535
O5	O	1.333835	0.555222	0.418868
O6	O	1.667168	0.888556	0.752201
O7	O	1.134685	0.087710	0.085518
O8	O	1.468018	0.421043	0.418851
O9	O	1.801352	0.754376	0.752185
O10	O	1.142991	0.364381	0.085538
O11	O	1.476324	0.697715	0.418871
O12	O	1.809657	1.031048	0.752205
O13	O	1.134669	0.087700	-0.085616
O14	O	1.468002	0.421034	0.247718
O15	O	1.801336	0.754367	0.581051
O16	O	1.000486	0.221880	-0.085599
O17	O	1.333819	0.555213	0.247734
O18	O	1.667152	0.888546	0.581067
O19	O	1.277158	0.230192	-0.085612
O20	O	1.610491	0.563526	0.247721
O21	O	1.943825	0.896859	0.581055
Cu22	Cu	1.138820	0.226035	-0.101232
Cu23	Cu	1.472154	0.559369	0.232102
Cu24	Cu	1.805487	0.892702	0.565435
Cu25	Cu	1.138839	0.226046	0.101154
Cu26	Cu	1.472172	0.559380	0.434487
Cu27	Cu	1.805506	0.892713	0.767821
O28	O	1.142975	0.364372	-0.085596
O29	O	1.476308	0.697705	0.247738
O30	O	1.809641	1.031039	0.581071
C31	C	0.964872	0.218248	-0.000031
C32	C	1.298205	0.551581	0.333303
C33	C	1.631538	0.884914	0.666636
C34	C	0.858728	0.207401	-0.000026
C35	C	1.192062	0.540734	0.333307
C36	C	1.525395	0.874067	0.666640
C37	C	1.131041	0.052083	-0.000049
C38	C	1.464375	0.385416	0.333284
C39	C	1.797708	0.718750	0.666618
C40	C	1.120197	-0.054060	-0.000050
C41	C	1.453530	0.279273	0.333284
C42	C	1.786863	0.612607	0.666617
C43	C	0.613270	0.264501	-0.000032
C44	C	0.946603	0.597834	0.333301
C45	C	1.279937	0.931168	0.666634
C46	C	0.664395	0.187585	-0.000036
C47	C	0.997729	0.520918	0.333297
C48	C	1.331062	0.854251	0.666630
C49	C	0.772532	0.198613	-0.000031
C50	C	1.105866	0.531946	0.333303
C51	C	1.439199	0.865280	0.666636
C52	C	0.505123	0.253474	-0.000038
C53	C	0.838457	0.586808	0.333295
C54	C	1.171790	0.920141	0.666629
C55	C	1.100370	-0.248398	-0.000034
C56	C	1.433704	0.084935	0.333299
C57	C	1.767037	0.418268	0.666633
C58	C	1.177285	-0.299526	-0.000034
C59	C	1.510618	0.033807	0.333299
C60	C	1.843952	0.367140	0.666632
C61	C	1.166253	-0.407663	-0.000026
C62	C	1.499587	-0.074329	0.333308
C63	C	1.832920	0.259004	0.666641
C64	C	1.111400	-0.140252	-0.000043
C65	C	1.444734	0.193081	0.333291
C66	C	1.778067	0.526415	0.666624
C67	C	1.312788	0.233834	-0.000044
C68	C	1.646121	0.567167	0.333289
C69	C	1.979455	0.900500	0.666622
C70	C	1.418931	0.244681	-0.000042
C71	C	1.752264	0.578014	0.333291
C72	C	2.085598	0.911348	0.666624
C73	C	1.146618	0.399998	-0.000026
C74	C	1.479952	0.733332	0.333307
C75	C	1.813285	1.066665	0.666640
C76	C	1.157463	0.506142	-0.000019
C77	C	1.490796	0.839475	0.333315
C78	C	1.824130	1.172808	0.666648
N79	N	1.138814	0.226027	-0.243579
N80	N	1.472147	0.559361	0.089755
N81	N	1.805481	0.892694	0.423088
C82	C	1.138838	0.226047	-0.663393
C83	C	1.472171	0.559380	-0.330060
C84	C	1.805505	0.892714	0.003274
C85	C	1.138829	0.226045	-0.546588
C86	C	1.472162	0.559378	-0.213255
C87	C	1.805495	0.892711	0.120079
C88	C	1.138826	0.226038	-0.453490
C89	C	1.472160	0.559371	-0.120156
C90	C	1.805493	0.892705	0.213177
C91	C	1.138816	0.226034	-0.336677
C92	C	1.472150	0.559367	-0.003344
C93	C	1.805483	0.892701	0.329990
N94	N	1.138852	0.226047	0.243501
N95	N	1.472186	0.559380	0.576834
N96	N	1.805519	0.892714	0.910168
H97	H	0.626952	0.113452	0.000031
H98	H	0.960285	0.446786	0.333364
H99	H	1.293619	0.780119	0.666698
Cl100	Cl	0.985920	-0.306201	-0.000024
Cl101	Cl	1.319253	0.027132	0.333310
Cl102	Cl	1.652587	0.360465	0.666643
H103	H	0.650711	0.338628	-0.000024
H104	H	0.984045	0.671961	0.333309
H105	H	1.317378	1.005294	0.666643
H106	H	1.251419	-0.262085	0.000031
H107	H	1.584752	0.071248	0.333364
H108	H	1.918085	0.404582	0.666698
