data_functionalizedCrystal
_audit_creation_method	'MofGen! by Chris Wilmer'
_symmetry_space_group_name_H-M	'P1'
_symmetry_Int_Tables_number	1
_symmetry_cell_setting	triclinic
loop_
_symmetry_equiv_pos_as_xyz
  x,y,z
_cell_length_a	19.188905
_cell_length_b	19.188924
_cell_length_c	18.266242
_cell_angle_alpha	89.991576
_cell_angle_beta	89.983837
_cell_angle_gamma	83.138260
loop_
_atom_site_label
_atom_site_type_symbol
_atom_site_fract_x
_atom_site_fract_y
_atom_site_fract_z
O1	O	0.926158	0.087086	-0.061005
O2	O	0.722844	0.098838	-0.060980
O3	O	0.830371	-0.008694	-0.060985
O4	O	0.818632	0.194619	-0.061001
O5	O	0.830353	-0.008700	0.060777
O6	O	0.722826	0.098833	0.060782
O7	O	0.926140	0.087080	0.060757
Zn8	Zn	0.824480	0.092956	0.080102
Zn9	Zn	0.824504	0.092963	-0.080325
O10	O	0.818613	0.194613	0.060761
C11	C	0.696824	0.098458	-0.000096
C12	C	0.619318	0.097324	-0.000086
C13	C	0.582937	0.096783	-0.066461
C14	C	0.510113	0.095710	-0.066470
C15	C	0.473676	0.095164	-0.000101
C16	C	0.510066	0.095710	0.066282
C17	C	0.582887	0.096790	0.066290
N18	N	0.364649	0.053733	0.049295
N19	N	0.295472	0.052706	0.049283
C20	C	0.254269	0.091911	-0.000118
N21	N	0.284858	0.132175	-0.049519
N22	N	0.354041	0.133199	-0.049510
C23	C	0.394713	0.093993	-0.000101
C24	C	0.138924	0.090207	-0.066507
C25	C	0.066098	0.089139	-0.066513
C26	C	0.066054	0.089132	0.066241
C27	C	0.138877	0.090208	0.066245
C28	C	0.175308	0.090742	-0.000131
C29	C	0.829982	-0.034708	-0.000103
C30	C	0.828844	-0.112213	-0.000101
C31	C	0.828322	-0.148609	-0.066473
C32	C	0.827242	-0.221431	-0.066479
C33	C	0.826698	-0.257857	-0.000108
C34	C	0.827216	-0.221452	0.066273
C35	C	0.828289	-0.148630	0.066277
N36	N	0.864739	-0.377526	0.049286
N37	N	0.863721	-0.446704	0.049278
C38	C	0.823464	-0.477266	-0.000115
N39	N	0.784271	-0.436038	-0.049510
N40	N	0.785292	-0.366853	-0.049504
C41	C	0.825534	-0.336821	-0.000104
C42	C	0.821770	-0.592624	-0.066498
C43	C	0.820686	-0.665448	-0.066500
C44	C	0.820666	-0.665468	0.066254
C45	C	0.821744	-0.592645	0.066255
C46	C	0.822299	-0.556228	-0.000123
C47	C	0.952160	0.087461	-0.000129
C48	C	1.029666	0.088594	-0.000143
C49	C	0.819002	0.220627	-0.000122
C50	C	0.820141	0.298132	-0.000129
N51	N	0.824469	0.092950	0.189589
N52	N	0.824521	0.092963	-0.189812
C53	C	0.872097	0.045358	0.227896
C54	C	0.872102	0.045355	0.304541
C55	C	0.824484	0.092956	0.342876
C56	C	0.776847	0.140552	0.304559
C57	C	0.776839	0.140549	0.227916
N58	N	0.815407	0.154764	0.463204
N59	N	0.815419	0.154765	0.536012
C60	C	0.824504	0.092966	0.573798
N61	N	0.833591	0.031165	0.536025
N62	N	0.833583	0.031165	0.463211
C63	C	0.824487	0.092964	0.425983
C64	C	0.872140	0.045366	0.695212
C65	C	0.872139	0.045362	0.771858
C66	C	0.776888	0.140565	0.771876
C67	C	0.776885	0.140563	0.695231
C68	C	0.824515	0.092964	0.656904
H69	H	0.480394	0.095267	0.120321
H70	H	0.826813	-0.251070	-0.120529
H71	H	0.738075	0.179308	0.335776
H72	H	0.820218	-0.695124	0.120294
O73	O	0.470866	0.095111	-0.138065
H74	H	0.478476	0.142889	-0.169909
O75	O	0.828861	-0.109376	0.137871
H76	H	0.781771	-0.069825	0.141059
O77	O	0.178120	0.090786	0.137839
H78	H	0.234877	0.091634	0.126694
H79	H	0.826770	-0.251114	0.120313
H80	H	0.168586	0.090650	-0.120554
O81	O	0.725542	0.191930	0.813203
H82	H	0.671136	0.183186	0.798524
O83	O	0.622225	0.097364	-0.138052
H84	H	0.678977	0.098201	-0.126899
H85	H	0.910888	0.006598	0.335736
H86	H	0.738054	0.179305	0.196726
H87	H	0.910922	0.006603	0.803048
H88	H	0.910921	0.006606	0.664005
O89	O	0.725523	0.191903	0.653906
H90	H	0.692415	0.225008	0.693437
O91	O	0.822355	-0.553336	-0.138085
H92	H	0.821798	-0.590880	-0.184241
O93	O	0.026759	0.088549	0.137825
H94	H	0.064296	0.089110	0.183983
O95	O	0.828903	-0.109326	-0.138063
H96	H	0.828350	-0.146873	-0.184217
O97	O	0.822324	-0.553389	0.137845
H98	H	0.774541	-0.561001	0.169685
O99	O	0.820116	-0.704712	-0.138089
H100	H	0.772042	-0.731504	-0.141255
O101	O	0.923458	-0.005987	0.186555
H102	H	0.956572	-0.039087	0.226074
H103	H	0.612509	0.097231	0.120341
H104	H	0.036477	0.088702	-0.120565
