data_functionalizedCrystal
_audit_creation_method	'MofGen! by Chris Wilmer'
_symmetry_space_group_name_H-M	'P1'
_symmetry_Int_Tables_number	1
_symmetry_cell_setting	triclinic
loop_
_symmetry_equiv_pos_as_xyz
  x,y,z
_cell_length_a	17.699083
_cell_length_b	9.198806
_cell_length_c	17.699104
_cell_angle_alpha	90.004383
_cell_angle_beta	83.287266
_cell_angle_gamma	89.997927
loop_
_atom_site_label
_atom_site_type_symbol
_atom_site_fract_x
_atom_site_fract_y
_atom_site_fract_z
O1	O	1.004083	0.120692	0.095709
O2	O	1.337416	0.454025	0.429042
O3	O	1.670749	0.787358	0.762376
O4	O	0.783705	0.120740	0.108161
O5	O	1.117038	0.454073	0.441495
O6	O	1.450372	0.787406	0.774828
O7	O	0.900112	0.120701	-0.008253
O8	O	1.233445	0.454035	0.325080
O9	O	1.566778	0.787368	0.658414
O10	O	0.887676	0.120730	0.212123
O11	O	1.221009	0.454063	0.545456
O12	O	1.554342	0.787397	0.878790
O13	O	0.900103	-0.121084	-0.008254
O14	O	1.233436	0.212250	0.325079
O15	O	1.566769	0.545583	0.658413
O16	O	0.783696	-0.121045	0.108160
O17	O	1.117029	0.212288	0.441494
O18	O	1.450363	0.545621	0.774827
O19	O	1.004073	-0.121093	0.095708
O20	O	1.337407	0.212240	0.429041
O21	O	1.670740	0.545573	0.762375
Cu22	Cu	0.893884	-0.143146	0.101934
Cu23	Cu	1.227217	0.190187	0.435267
Cu24	Cu	1.560550	0.523520	0.768601
Cu25	Cu	0.893895	0.142793	0.101935
Cu26	Cu	1.227228	0.476126	0.435268
Cu27	Cu	1.560561	0.809459	0.768602
O28	O	0.887667	-0.121055	0.212122
O29	O	1.221000	0.212278	0.545456
O30	O	1.554333	0.545612	0.878789
C31	C	0.755503	-0.000147	0.107715
C32	C	1.088837	0.333187	0.441048
C33	C	1.422170	0.666520	0.774381
C34	C	0.671485	-0.000129	0.106376
C35	C	1.004819	0.333204	0.439709
C36	C	1.338152	0.666538	0.773043
N37	N	0.893882	-0.344260	0.101933
N38	N	1.227215	-0.010927	0.435266
N39	N	1.560548	0.322406	0.768600
C40	C	0.622869	-0.000120	0.174709
C41	C	0.956203	0.333213	0.508042
C42	C	1.289536	0.666546	0.841375
C43	C	0.543926	-0.000139	0.173446
C44	C	0.877259	0.333194	0.506780
C45	C	1.210593	0.666527	0.840113
C46	C	0.513600	-0.000156	0.103851
C47	C	0.846933	0.333177	0.437184
C48	C	1.180267	0.666510	0.770517
C49	C	0.562222	-0.000169	0.035513
C50	C	0.895555	0.333164	0.368846
C51	C	1.228889	0.666497	0.702179
C52	C	0.641164	-0.000161	0.036776
C53	C	0.974497	0.333173	0.370109
C54	C	1.307831	0.666506	0.703442
C55	C	0.243859	-0.000206	0.030418
C56	C	0.577192	0.333127	0.363751
C57	C	0.910525	0.666461	0.697084
C58	C	0.164911	-0.000210	0.029160
C59	C	0.498244	0.333123	0.362493
C60	C	0.831577	0.666457	0.695826
C61	C	0.146621	-0.000185	0.167088
C62	C	0.479954	0.333149	0.500422
C63	C	0.813287	0.666482	0.833755
C64	C	0.225563	-0.000176	0.168351
C65	C	0.558896	0.333157	0.501685
C66	C	0.892229	0.666491	0.835018
C67	C	0.274178	-0.000196	0.100014
C68	C	0.607511	0.333137	0.433347
C69	C	0.940844	0.666470	0.766680
C70	C	0.359777	-0.000179	0.101383
C71	C	0.693110	0.333155	0.434717
C72	C	1.026444	0.666488	0.768050
C73	C	0.428002	-0.000164	0.102480
C74	C	0.761336	0.333169	0.435814
C75	C	1.094669	0.666503	0.769147
C76	C	0.937564	-0.416462	0.145365
C77	C	1.270898	-0.083129	0.478698
C78	C	1.604231	0.250204	0.812031
C79	C	0.937576	-0.583875	0.145364
C80	C	1.270910	-0.250541	0.478697
C81	C	1.604243	0.082792	0.812030
C82	C	1.032275	-0.000204	0.096155
C83	C	1.365608	0.333130	0.429488
C84	C	1.698942	0.666463	0.762821
C85	C	1.116293	-0.000212	0.097493
C86	C	1.449626	0.333121	0.430827
C87	C	1.782960	0.666455	0.764160
C88	C	0.899659	-0.000191	-0.036450
C89	C	1.232992	0.333142	0.296883
C90	C	1.566326	0.666475	0.630216
C91	C	0.898314	-0.000192	-0.120467
C92	C	1.231647	0.333142	0.212866
C93	C	1.564981	0.666475	0.546199
N94	N	0.893903	0.343907	0.101930
N95	N	1.227236	0.677240	0.435264
N96	N	1.560569	1.010573	0.768597
C97	C	0.959058	-0.000164	-0.645338
C98	C	1.292391	0.333170	-0.312005
C99	C	1.625725	0.666503	0.021328
C100	C	0.960317	-0.000177	-0.566395
C101	C	1.293650	0.333157	-0.233061
C102	C	1.626984	0.666490	0.100272
C103	C	0.891982	-0.000165	-0.517777
C104	C	1.225315	0.333168	-0.184444
C105	C	1.558648	0.666501	0.148890
C106	C	0.822383	-0.000155	-0.548107
C107	C	1.155716	0.333178	-0.214774
C108	C	1.489050	0.666511	0.118560
C109	C	0.821125	-0.000152	-0.627049
C110	C	1.154458	0.333181	-0.293716
C111	C	1.487791	0.666514	0.039617
C112	C	0.827456	-0.000168	-0.229741
C113	C	1.160789	0.333165	0.103592
C114	C	1.494123	0.666498	0.436926
C115	C	0.828720	-0.000167	-0.150794
C116	C	1.162053	0.333166	0.182540
C117	C	1.495386	0.666500	0.515873
C118	C	0.966648	-0.000193	-0.169086
C119	C	1.299982	0.333140	0.164247
C120	C	1.633315	0.666474	0.497580
C121	C	0.965390	-0.000190	-0.248029
C122	C	1.298723	0.333143	0.085305
C123	C	1.632057	0.666477	0.418638
C124	C	0.895792	-0.000188	-0.278352
C125	C	1.229125	0.333146	0.054982
C126	C	1.562458	0.666479	0.388315
C127	C	0.894427	-0.000176	-0.363951
C128	C	1.227761	0.333157	-0.030618
C129	C	1.561094	0.666490	0.302715
C130	C	0.893345	-0.000166	-0.432179
C131	C	1.226679	0.333167	-0.098845
C132	C	1.560012	0.666500	0.234488
C133	C	0.888120	-0.000159	0.240319
C134	C	1.221453	0.333174	0.573653
C135	C	1.554786	0.666508	0.906986
C136	C	0.889464	-0.000149	0.324337
C137	C	1.222798	0.333184	0.657670
C138	C	1.556131	0.666517	0.991003
H139	H	0.647554	-0.000105	0.231382
H140	H	0.980887	0.333228	0.564715
H141	H	1.314221	0.666561	0.898048
H142	H	1.021036	-0.000192	-0.287610
H143	H	1.354369	0.333141	0.045723
H144	H	1.687702	0.666474	0.379057
H145	H	0.504346	-0.000131	0.229090
H146	H	0.837679	0.333202	0.562423
H147	H	1.171012	0.666536	0.895757
H148	H	0.856494	-0.406386	0.064747
H149	H	1.189827	-0.073052	0.398080
H150	H	1.523161	0.260281	0.731413
F151	F	0.986457	-0.665028	0.193971
F152	F	1.319790	-0.331695	0.527305
F153	F	1.653123	0.001639	0.860638
H154	H	0.856499	-0.594011	0.064748
H155	H	1.189832	-0.260677	0.398082
H156	H	1.523165	0.072656	0.731415
F157	F	0.753383	-0.000155	-0.262003
F158	F	1.086717	0.333178	0.071331
F159	F	1.420050	0.666511	0.404664
F160	F	0.749655	-0.000150	-0.496362
F161	F	1.082989	0.333183	-0.163029
F162	F	1.416322	0.666517	0.170304
F163	F	0.132638	-0.000229	-0.044917
F164	F	0.465971	0.333105	0.288416
F165	F	0.799305	0.666438	0.621749
H166	H	1.014705	-0.000161	-0.684918
H167	H	1.348038	0.333172	-0.351585
H168	H	1.681371	0.666506	-0.018251
H169	H	1.016987	-0.000190	-0.541708
H170	H	1.350320	0.333143	-0.208375
H171	H	1.683654	0.666477	0.124958
F172	F	1.040722	-0.000202	-0.136808
F173	F	1.374055	0.333131	0.196525
F174	F	1.707389	0.666465	0.529858
H175	H	0.974957	-0.354337	0.182546
H176	H	1.308291	-0.021004	0.515879
H177	H	1.641624	0.312330	0.849213
F178	F	0.755984	-0.000156	-0.099052
F179	F	1.089318	0.333177	0.234282
F180	F	1.422651	0.666511	0.567615
F181	F	0.094875	-0.000169	0.239820
F182	F	0.428208	0.333165	0.573153
F183	F	0.761541	0.666498	0.906487
H184	H	0.764455	-0.000153	-0.651738
H185	H	1.097788	0.333181	-0.318405
H186	H	1.431121	0.666514	0.014929
H187	H	0.283432	-0.000224	-0.025227
H188	H	0.616765	0.333110	0.308106
H189	H	0.950099	0.666443	0.641439
F190	F	0.257833	-0.000149	0.242424
F191	F	0.591166	0.333184	0.575758
F192	F	0.924500	0.666518	0.909091
H193	H	0.680747	-0.000167	-0.018868
H194	H	1.014080	0.333167	0.314465
H195	H	1.347414	0.666500	0.647799
F196	F	0.529945	-0.000197	-0.038557
F197	F	0.863278	0.333136	0.294777
F198	F	1.196611	0.666470	0.628110
