data_functionalizedCrystal
_audit_creation_method	'MofGen! by Chris Wilmer'
_symmetry_space_group_name_H-M	'P1'
_symmetry_Int_Tables_number	1
_symmetry_cell_setting	triclinic
loop_
_symmetry_equiv_pos_as_xyz
  x,y,z
_cell_length_a	27.732064
_cell_length_b	27.732048
_cell_length_c	10.065875
_cell_angle_alpha	98.710990
_cell_angle_beta	81.333551
_cell_angle_gamma	82.646040
loop_
_atom_site_label
_atom_site_type_symbol
_atom_site_fract_x
_atom_site_fract_y
_atom_site_fract_z
O1	O	0.648033	0.050412	-0.113260
O2	O	0.898033	0.300412	0.136740
O3	O	1.148033	0.550412	0.386740
O4	O	1.398033	0.800412	0.636740
O5	O	0.507244	0.059146	-0.113318
O6	O	0.757244	0.309146	0.136682
O7	O	1.007244	0.559146	0.386682
O8	O	1.257244	0.809146	0.636682
O9	O	0.582009	-0.015616	-0.113261
O10	O	0.832009	0.234384	0.136739
O11	O	1.082009	0.484384	0.386739
O12	O	1.332009	0.734384	0.636739
O13	O	0.573268	0.125174	-0.113317
O14	O	0.823268	0.375174	0.136683
O15	O	1.073268	0.625174	0.386683
O16	O	1.323268	0.875174	0.636683
O17	O	0.567752	-0.001303	0.113717
O18	O	0.817752	0.248697	0.363717
O19	O	1.067752	0.498697	0.613717
O20	O	1.317752	0.748697	0.863717
O21	O	0.492987	0.073458	0.113660
O22	O	0.742987	0.323458	0.363660
O23	O	0.992987	0.573458	0.613660
O24	O	1.242987	0.823458	0.863660
O25	O	0.633776	0.064725	0.113718
O26	O	0.883776	0.314725	0.363718
O27	O	1.133776	0.564725	0.613718
O28	O	1.383776	0.814725	0.863718
Zn29	Zn	0.561118	0.071364	0.149726
Zn30	Zn	0.811118	0.321364	0.399726
Zn31	Zn	1.061118	0.571364	0.649726
Zn32	Zn	1.311118	0.821364	0.899726
Zn33	Zn	0.579902	0.052506	-0.149327
Zn34	Zn	0.829902	0.302506	0.100673
Zn35	Zn	1.079902	0.552506	0.350673
Zn36	Zn	1.329902	0.802506	0.600673
O37	O	0.559010	0.139486	0.113661
O38	O	0.809010	0.389486	0.363661
O39	O	1.059010	0.639486	0.613661
O40	O	1.309010	0.889486	0.863661
C41	C	0.482109	0.066117	0.000164
C42	C	0.732109	0.316117	0.250164
C43	C	0.982109	0.566117	0.500164
C44	C	1.232109	0.816117	0.750164
C45	C	0.428456	0.065560	0.000143
C46	C	0.678456	0.315560	0.250143
C47	C	0.928456	0.565560	0.500143
C48	C	1.178456	0.815560	0.750143
C49	C	0.051377	0.017598	0.000239
C50	C	0.301377	0.267598	0.250239
C51	C	0.551377	0.517598	0.500239
C52	C	0.801377	0.767598	0.750239
C53	C	0.253040	0.019642	0.000203
C54	C	0.503040	0.269642	0.250203
C55	C	0.753040	0.519642	0.500203
C56	C	1.003040	0.769642	0.750203
O57	O	0.284288	-0.017575	0.000269
O58	O	0.534288	0.232425	0.250269
O59	O	0.784288	0.482425	0.500269
O60	O	1.034288	0.732425	0.750269
N61	N	0.272169	0.063975	0.000179
N62	N	0.522169	0.313975	0.250179
N63	N	0.772169	0.563975	0.500179
N64	N	1.022169	0.813975	0.750179
C65	C	0.240878	0.107801	0.000174
C66	C	0.490878	0.357801	0.250174
C67	C	0.740878	0.607801	0.500174
C68	C	0.990878	0.857801	0.750174
O69	O	0.261775	0.145556	0.000167
O70	O	0.511775	0.395556	0.250167
O71	O	0.761775	0.645556	0.500167
O72	O	1.011775	0.895556	0.750167
C73	C	0.039216	0.105757	0.000220
C74	C	0.289216	0.355757	0.250220
C75	C	0.539216	0.605757	0.500220
C76	C	0.789216	0.855757	0.750220
C77	C	0.020091	0.061420	0.000230
C78	C	0.270091	0.311420	0.250230
C79	C	0.520091	0.561420	0.500230
C80	C	0.770091	0.811420	0.750230
C81	C	0.032252	-0.026734	0.000251
C82	C	0.282252	0.223266	0.250251
C83	C	0.532252	0.473266	0.500251
C84	C	0.782252	0.723266	0.750251
C85	C	-0.018161	-0.027245	0.000252
C86	C	0.231839	0.222755	0.250252
C87	C	0.481839	0.472755	0.500252
C88	C	0.731839	0.722755	0.750252
C89	C	-0.049447	0.016576	0.000243
C90	C	0.200553	0.266576	0.250243
C91	C	0.450553	0.516576	0.500243
C92	C	0.700553	0.766576	0.750243
C93	C	-0.030321	0.060909	0.000231
C94	C	0.219679	0.310909	0.250231
C95	C	0.469679	0.560909	0.500231
C96	C	0.719679	0.810909	0.750231
C97	C	0.007926	0.149582	0.000224
C98	C	0.257926	0.399582	0.250224
C99	C	0.507926	0.649582	0.500224
C100	C	0.757926	0.899582	0.750224
C101	C	-0.042493	0.149068	0.000239
C102	C	0.207507	0.399068	0.250239
C103	C	0.457507	0.649068	0.500239
C104	C	0.707507	0.899068	0.750239
C105	C	-0.061618	0.104731	0.000249
C106	C	0.188382	0.354731	0.250249
C107	C	0.438382	0.604731	0.500249
C108	C	0.688382	0.854731	0.750249
C109	C	-0.112020	0.104220	0.000223
C110	C	0.137980	0.354220	0.250223
C111	C	0.387980	0.604220	0.500223
C112	C	0.637980	0.854220	0.750223
N113	N	-0.131149	0.059887	0.000247
N114	N	0.118851	0.309887	0.250247
N115	N	0.368851	0.559887	0.500247
N116	N	0.618851	0.809887	0.750247
C117	C	-0.099863	0.016066	0.000257
C118	C	0.150137	0.266066	0.250257
C119	C	0.400137	0.516066	0.500257
C120	C	0.650137	0.766066	0.750257
C121	C	0.346754	0.108870	0.000147
C122	C	0.596754	0.358870	0.250147
C123	C	0.846754	0.608870	0.500147
C124	C	1.096754	0.858870	0.750147
C125	C	0.397170	0.109381	0.000133
C126	C	0.647170	0.359381	0.250133
C127	C	0.897170	0.609381	0.500133
C128	C	1.147170	0.859381	0.750133
C129	C	0.409328	0.021223	0.000165
C130	C	0.659328	0.271223	0.250165
C131	C	0.909328	0.521223	0.500165
C132	C	1.159328	0.771223	0.750165
C133	C	0.358912	0.020712	0.000169
C134	C	0.608912	0.270712	0.250169
C135	C	0.858912	0.520712	0.500169
C136	C	1.108912	0.770712	0.750169
C137	C	0.327625	0.064538	0.000171
C138	C	0.577625	0.314538	0.250171
C139	C	0.827625	0.564538	0.500171
C140	C	1.077625	0.814538	0.750171
C141	C	-0.205732	0.014996	0.000259
C142	C	0.044268	0.264996	0.250259
C143	C	0.294268	0.514996	0.500259
C144	C	0.544268	0.764996	0.750259
C145	C	-0.256149	0.014488	0.000255
C146	C	-0.006149	0.264488	0.250255
C147	C	0.243851	0.514488	0.500255
C148	C	0.493851	0.764488	0.750255
C149	C	-0.268303	0.102647	0.000230
C150	C	-0.018303	0.352647	0.250230
C151	C	0.231697	0.602647	0.500230
C152	C	0.481697	0.852647	0.750230
C153	C	-0.217890	0.103154	0.000227
C154	C	0.032110	0.353154	0.250227
C155	C	0.282110	0.603154	0.500227
C156	C	0.532110	0.853154	0.750227
C157	C	-0.186606	0.059325	0.000246
C158	C	0.063394	0.309325	0.250246
C159	C	0.313394	0.559325	0.500246
C160	C	0.563394	0.809325	0.750246
O161	O	-0.143298	0.141418	0.000173
O162	O	0.106702	0.391418	0.250173
O163	O	0.356702	0.641418	0.500173
O164	O	0.606702	0.891418	0.750173
O165	O	-0.120771	-0.021683	0.000294
O166	O	0.129229	0.228317	0.250294
O167	O	0.379229	0.478317	0.500294
O168	O	0.629229	0.728317	0.750294
C169	C	0.101790	0.018109	0.000238
C170	C	0.351790	0.268109	0.250238
C171	C	0.601790	0.518109	0.500238
C172	C	0.851790	0.768109	0.750238
C173	C	0.120915	0.062442	0.000226
C174	C	0.370915	0.312442	0.250226
C175	C	0.620915	0.562442	0.500226
C176	C	0.870915	0.812442	0.750226
C177	C	0.089629	0.106264	0.000217
C178	C	0.339629	0.356264	0.250217
C179	C	0.589629	0.606264	0.500217
C180	C	0.839629	0.856264	0.750217
C181	C	0.171331	0.062953	0.000212
C182	C	0.421331	0.312953	0.250212
C183	C	0.671331	0.562953	0.500212
C184	C	0.921331	0.812953	0.750212
C185	C	0.202617	0.019131	0.000222
C186	C	0.452617	0.269131	0.250222
C187	C	0.702617	0.519131	0.500222
C188	C	0.952617	0.769131	0.750222
C189	C	0.183488	-0.025201	0.000246
C190	C	0.433488	0.224799	0.250246
C191	C	0.683488	0.474799	0.500246
C192	C	0.933488	0.724799	0.750246
C193	C	0.133076	-0.025712	0.000247
C194	C	0.383076	0.224288	0.250247
C195	C	0.633076	0.474288	0.500247
C196	C	0.883076	0.724288	0.750247
C197	C	0.108758	0.150597	0.000193
C198	C	0.358758	0.400597	0.250193
C199	C	0.608758	0.650597	0.500193
C200	C	0.858758	0.900597	0.750193
C201	C	0.159171	0.151104	0.000190
C202	C	0.409171	0.401104	0.250190
C203	C	0.659171	0.651104	0.500190
C204	C	0.909171	0.901104	0.750190
C205	C	0.190457	0.107282	0.000200
C206	C	0.440457	0.357282	0.250200
C207	C	0.690457	0.607282	0.500200
C208	C	0.940457	0.857282	0.750200
C209	C	0.574697	-0.026466	0.000231
C210	C	0.824697	0.223534	0.250231
C211	C	1.074697	0.473534	0.500231
C212	C	1.324697	0.723534	0.750231
C213	C	0.574144	-0.080120	0.000242
C214	C	0.824144	0.169880	0.250242
C215	C	1.074144	0.419880	0.500242
C216	C	1.324144	0.669880	0.750242
C217	C	0.614850	-0.418936	0.000189
C218	C	0.864850	-0.168936	0.250189
C219	C	1.114850	0.081064	0.500189
C220	C	1.364850	0.331064	0.750189
C221	C	0.612801	-0.620597	0.000169
C222	C	0.862801	-0.370597	0.250169
C223	C	1.112801	-0.120597	0.500169
C224	C	1.362801	0.129403	0.750169
O225	O	0.650024	-0.651854	0.000125
O226	O	0.900024	-0.401854	0.250125
O227	O	1.150024	-0.151854	0.500125
O228	O	1.400024	0.098146	0.750125
N229	N	0.568467	-0.639725	0.000152
N230	N	0.818467	-0.389725	0.250152
N231	N	1.068467	-0.139725	0.500152
N232	N	1.318467	0.110275	0.750152
C233	C	0.524643	-0.608434	0.000131
C234	C	0.774643	-0.358434	0.250131
C235	C	1.024643	-0.108434	0.500131
C236	C	1.274643	0.141566	0.750131
O237	O	0.486888	-0.629331	0.000102
O238	O	0.736888	-0.379331	0.250102
O239	O	0.986888	-0.129331	0.500102
O240	O	1.236888	0.120669	0.750102
C241	C	0.526694	-0.406775	0.000141
C242	C	0.776694	-0.156775	0.250141
C243	C	1.026694	0.093225	0.500141
C244	C	1.276694	0.343225	0.750141
C245	C	0.571030	-0.387649	0.000172
C246	C	0.821030	-0.137649	0.250172
C247	C	1.071030	0.112351	0.500172
C248	C	1.321030	0.362351	0.750172
C249	C	0.659183	-0.399811	0.000219
C250	C	0.909183	-0.149811	0.250219
C251	C	1.159183	0.100189	0.500219
C252	C	1.409183	0.350189	0.750219
C253	C	0.659694	-0.349398	0.000231
C254	C	0.909694	-0.099398	0.250231
C255	C	1.159694	0.150602	0.500231
C256	C	1.409694	0.400602	0.750231
C257	C	0.615873	-0.318111	0.000214
C258	C	0.865873	-0.068111	0.250214
C259	C	1.115873	0.181889	0.500214
C260	C	1.365873	0.431889	0.750214
C261	C	0.571541	-0.337237	0.000185
C262	C	0.821541	-0.087237	0.250185
C263	C	1.071541	0.162763	0.500185
C264	C	1.321541	0.412763	0.750185
C265	C	0.482871	-0.375486	0.000110
C266	C	0.732871	-0.125486	0.250110
C267	C	0.982871	0.124514	0.500110
C268	C	1.232871	0.374514	0.750110
C269	C	0.483388	-0.325068	0.000110
C270	C	0.733388	-0.075068	0.250110
C271	C	0.983388	0.174932	0.500110
C272	C	1.233388	0.424932	0.750110
C273	C	0.527724	-0.305943	0.000140
C274	C	0.777724	-0.055943	0.250140
C275	C	1.027724	0.194057	0.500140
C276	C	1.277724	0.444057	0.750140
C277	C	0.528232	-0.255537	0.000180
C278	C	0.778232	-0.005537	0.250180
C279	C	1.028232	0.244463	0.500180
C280	C	1.278232	0.494463	0.750180
N281	N	0.572566	-0.236410	0.000197
N282	N	0.822566	0.013590	0.250197
N283	N	1.072566	0.263590	0.500197
N284	N	1.322566	0.513590	0.750197
C285	C	0.616386	-0.267696	0.000214
C286	C	0.866386	-0.017696	0.250214
C287	C	1.116386	0.232304	0.500214
C288	C	1.366386	0.482304	0.750214
C289	C	0.523569	-0.714309	0.000129
C290	C	0.773569	-0.464309	0.250129
C291	C	1.023569	-0.214309	0.500129
C292	C	1.273569	0.035691	0.750129
C293	C	0.523056	-0.764723	0.000129
C294	C	0.773056	-0.514723	0.250129
C295	C	1.023056	-0.264723	0.500129
C296	C	1.273056	-0.014723	0.750129
C297	C	0.611214	-0.776883	0.000164
C298	C	0.861214	-0.526883	0.250164
C299	C	1.111214	-0.276883	0.500164
C300	C	1.361214	-0.026883	0.750164
C301	C	0.611726	-0.726467	0.000174
C302	C	0.861726	-0.476467	0.250174
C303	C	1.111726	-0.226467	0.500174
C304	C	1.361726	0.023533	0.750174
C305	C	0.567903	-0.695181	0.000146
C306	C	0.817903	-0.445181	0.250146
C307	C	1.067903	-0.195181	0.500146
C308	C	1.317903	0.054819	0.750146
C309	C	0.617457	-0.161826	0.000241
C310	C	0.867457	0.088174	0.250241
C311	C	1.117457	0.338174	0.500241
C312	C	1.367457	0.588174	0.750241
C313	C	0.617964	-0.111407	0.000259
C314	C	0.867964	0.138593	0.250259
C315	C	1.117964	0.388593	0.500259
C316	C	1.367964	0.638593	0.750259
C317	C	0.529807	-0.099252	0.000217
C318	C	0.779807	0.150748	0.250217
C319	C	1.029807	0.400748	0.500217
C320	C	1.279807	0.650748	0.750217
C321	C	0.529299	-0.149666	0.000206
C322	C	0.779299	0.100334	0.250206
C323	C	1.029299	0.350334	0.500206
C324	C	1.279299	0.600334	0.750206
C325	C	0.573128	-0.180952	0.000213
C326	C	0.823128	0.069048	0.250213
C327	C	1.073128	0.319048	0.500213
C328	C	1.323128	0.569048	0.750213
O329	O	0.491030	-0.224253	0.000209
O330	O	0.741030	0.025747	0.250209
O331	O	0.991030	0.275747	0.500209
O332	O	1.241030	0.525747	0.750209
O333	O	0.654138	-0.246792	0.000213
O334	O	0.904138	0.003208	0.250213
O335	O	1.154138	0.253208	0.500213
O336	O	1.404138	0.503208	0.750213
C337	C	0.614339	-0.469349	0.000177
C338	C	0.864339	-0.219349	0.250177
C339	C	1.114339	0.030651	0.500177
C340	C	1.364339	0.280651	0.750177
C341	C	0.570007	-0.488475	0.000147
C342	C	0.820007	-0.238475	0.250147
C343	C	1.070007	0.011525	0.500147
C344	C	1.320007	0.261525	0.750147
C345	C	0.526186	-0.457188	0.000130
C346	C	0.776186	-0.207188	0.250130
C347	C	1.026186	0.042812	0.500130
C348	C	1.276186	0.292812	0.750130
C349	C	0.569494	-0.538889	0.000147
C350	C	0.819494	-0.288889	0.250147
C351	C	1.069494	-0.038889	0.500147
C352	C	1.319494	0.211111	0.750147
C353	C	0.613314	-0.570176	0.000164
C354	C	0.863314	-0.320176	0.250164
C355	C	1.113314	-0.070176	0.500164
C356	C	1.363314	0.179824	0.750164
C357	C	0.657648	-0.551049	0.000181
C358	C	0.907648	-0.301049	0.250181
C359	C	1.157648	-0.051049	0.500181
C360	C	1.407648	0.198951	0.750181
C361	C	0.658160	-0.500636	0.000194
C362	C	0.908160	-0.250636	0.250194
C363	C	1.158160	-0.000636	0.500194
C364	C	1.408160	0.249364	0.750194
C365	C	0.481852	-0.476315	0.000113
C366	C	0.731852	-0.226315	0.250113
C367	C	0.981852	0.023685	0.500113
C368	C	1.231852	0.273685	0.750113
C369	C	0.481344	-0.526729	0.000103
C370	C	0.731344	-0.276729	0.250103
C371	C	0.981344	-0.026729	0.500103
C372	C	1.231344	0.223271	0.750103
C373	C	0.525165	-0.558016	0.000119
C374	C	0.775165	-0.308016	0.250119
C375	C	1.025165	-0.058016	0.500119
C376	C	1.275165	0.191984	0.750119
C377	C	0.658911	0.057753	0.000233
C378	C	0.908911	0.307753	0.250233
C379	C	1.158911	0.557753	0.500233
C380	C	1.408911	0.807753	0.750233
C381	C	0.712564	0.058310	0.000245
C382	C	0.962564	0.308310	0.250245
C383	C	1.212564	0.558310	0.500245
C384	C	1.462564	0.808310	0.750245
C385	C	0.566323	0.150336	0.000165
C386	C	0.816323	0.400336	0.250165
C387	C	1.066323	0.650336	0.500165
C388	C	1.316323	0.900336	0.750165
C389	C	0.566877	0.203990	0.000145
C390	C	0.816877	0.453990	0.250145
C391	C	1.066877	0.703990	0.500145
C392	C	1.316877	0.953990	0.750145
N393	N	0.548301	0.084234	0.353822
N394	N	0.798301	0.334234	0.603822
N395	N	1.048301	0.584234	0.853822
N396	N	1.298301	0.834234	1.103822
N397	N	0.592722	0.039633	-0.353422
N398	N	0.842722	0.289633	-0.103422
N399	N	1.092722	0.539633	0.146578
N400	N	1.342722	0.789633	0.396578
C401	C	0.575440	0.056981	0.421622
C402	C	0.825440	0.306981	0.671622
C403	C	1.075440	0.556981	0.921622
C404	C	1.325440	0.806981	1.171622
C405	C	0.565580	0.066889	0.578782
C406	C	0.815580	0.316889	0.828782
C407	C	1.065580	0.566889	1.078782
C408	C	1.315580	0.816889	1.328782
H409	H	-0.271717	-0.021618	0.000259
H410	H	-0.021717	0.228382	0.250259
H411	H	0.228283	0.478382	0.500259
H412	H	0.478283	0.728382	0.750259
C413	C	0.474282	-0.785754	0.000112
C414	C	0.724282	-0.535754	0.250112
C415	C	0.974282	-0.285754	0.500112
C416	C	1.224282	-0.035754	0.750112
N417	N	0.437545	-0.801592	0.000090
N418	N	0.687545	-0.551592	0.250090
N419	N	0.937545	-0.301592	0.500090
N420	N	1.187545	-0.051592	0.750090
H421	H	0.623257	0.008962	0.588280
H422	H	0.873257	0.258962	0.838280
H423	H	1.123257	0.508962	1.088280
H424	H	1.373257	0.758962	1.338280
C425	C	0.028950	0.198358	0.000236
C426	C	0.278950	0.448358	0.250236
C427	C	0.528950	0.698358	0.500236
C428	C	0.778950	0.948358	0.750236
N429	N	0.044784	0.235100	0.000254
N430	N	0.294784	0.485100	0.250254
N431	N	0.544784	0.735100	0.500254
N432	N	0.794784	0.985100	0.750254
C433	C	-0.171326	-0.033219	0.000269
C434	C	0.078674	0.216781	0.250269
C435	C	0.328674	0.466781	0.500269
C436	C	0.578674	0.716781	0.750269
N437	N	-0.145410	-0.069536	0.000266
N438	N	0.104590	0.180464	0.250266
N439	N	0.354590	0.430464	0.500266
N440	N	0.604590	0.680464	0.750266
C441	C	0.507049	0.125663	0.432582
C442	C	0.757049	0.375663	0.682582
C443	C	1.007049	0.625663	0.932582
C444	C	1.257049	0.875663	1.182582
N445	N	0.475976	0.156869	0.491902
N446	N	0.725976	0.406869	0.741902
N447	N	0.975976	0.656869	0.991902
N448	N	1.225976	0.906869	1.241902
C449	C	0.435177	-0.290656	0.000083
C450	C	0.685177	-0.040656	0.250083
C451	C	0.935177	0.209344	0.500083
C452	C	1.185177	0.459344	0.750083
N453	N	0.398865	-0.264738	0.000069
N454	N	0.648865	-0.014738	0.250069
N455	N	0.898865	0.235262	0.500069
N456	N	1.148865	0.485262	0.750069
C457	C	0.475357	-0.679899	0.000099
C458	C	0.725357	-0.429899	0.250099
C459	C	0.975357	-0.179899	0.500099
C460	C	1.225357	0.070101	0.750099
N461	N	0.439043	-0.653984	0.000080
N462	N	0.689043	-0.403984	0.250080
N463	N	0.939043	-0.153984	0.500080
N464	N	1.189043	0.096016	0.750080
C465	C	0.660499	-0.705435	0.000196
C466	C	0.910499	-0.455435	0.250196
C467	C	1.160499	-0.205435	0.500196
C468	C	1.410499	0.044565	0.750196
N469	N	0.697237	-0.689597	0.000208
N470	N	0.947237	-0.439597	0.250208
N471	N	1.197237	-0.189597	0.500208
N472	N	1.447237	0.060403	0.750208
H473	H	-0.033727	-0.063348	0.000266
H474	H	0.216273	0.186652	0.250266
H475	H	0.466273	0.436652	0.500266
H476	H	0.716273	0.686652	0.750266
C477	C	0.066660	-0.074947	0.000255
C478	C	0.316660	0.175053	0.250255
C479	C	0.566660	0.425053	0.500255
C480	C	0.816660	0.675053	0.750255
N481	N	0.092575	-0.111264	0.000248
N482	N	0.342575	0.138736	0.250248
N483	N	0.592575	0.388736	0.500248
N484	N	0.842575	0.638736	0.750248
H485	H	0.083288	0.186283	0.000187
H486	H	0.333288	0.436283	0.250187
H487	H	0.583288	0.686283	0.500187
H488	H	0.833288	0.936283	0.750187
H489	H	0.494129	-0.073769	0.000208
H490	H	0.744129	0.176231	0.250208
H491	H	0.994129	0.426231	0.500208
H492	H	1.244129	0.676231	0.750208
C493	C	0.705851	-0.585475	0.000198
C494	C	0.955851	-0.335475	0.250198
C495	C	1.205851	-0.085475	0.500198
C496	C	1.455851	0.164525	0.750198
N497	N	0.742156	-0.611407	0.000201
N498	N	0.992156	-0.361407	0.250201
N499	N	1.242156	-0.111407	0.500201
N500	N	1.492156	0.138593	0.750201
H501	H	0.535042	0.097557	0.637079
H502	H	0.785042	0.347557	0.887079
H503	H	1.035042	0.597557	1.137079
H504	H	1.285042	0.847557	1.387079
H505	H	-0.067965	0.184757	0.000247
H506	H	0.182035	0.434757	0.250247
H507	H	0.432035	0.684757	0.500247
H508	H	0.682035	0.934757	0.750247
C509	C	0.337879	-0.028060	0.000195
C510	C	0.587879	0.221940	0.250195
C511	C	0.837879	0.471940	0.500195
C512	C	1.087879	0.721940	0.750195
N513	N	0.322039	-0.064797	0.000222
N514	N	0.572039	0.185203	0.250222
N515	N	0.822039	0.435203	0.500222
N516	N	1.072039	0.685203	0.750222
H517	H	0.434810	-0.014459	0.000168
H518	H	0.684810	0.235541	0.250168
H519	H	0.934810	0.485541	0.500168
H520	H	1.184810	0.735541	0.750168
H521	H	0.646895	-0.802366	0.000179
H522	H	0.896895	-0.552366	0.250179
H523	H	1.146895	-0.302366	0.500179
H524	H	1.396895	-0.052366	0.750179
H525	H	0.446167	-0.450846	0.000097
H526	H	0.696167	-0.200846	0.250097
H527	H	0.946167	0.049154	0.500097
H528	H	1.196167	0.299154	0.750097
C529	C	0.217913	-0.073405	0.000264
C530	C	0.467913	0.176595	0.250264
C531	C	0.717913	0.426595	0.500264
C532	C	0.967913	0.676595	0.750264
N533	N	0.243843	-0.109709	0.000289
N534	N	0.493843	0.140291	0.250289
N535	N	0.743843	0.390291	0.500289
N536	N	0.993843	0.640291	0.750289
H537	H	0.412738	0.145483	0.000106
H538	H	0.662738	0.395483	0.250106
H539	H	0.912738	0.645483	0.500106
H540	H	1.162738	0.895483	0.750106
H541	H	0.321284	0.144561	0.000147
H542	H	0.571284	0.394561	0.250147
H543	H	0.821284	0.644561	0.500147
H544	H	1.071284	0.894561	0.750147
H545	H	0.694262	-0.485069	0.000218
H546	H	0.944262	-0.235069	0.250218
H547	H	1.194262	0.014931	0.500218
H548	H	1.444262	0.264931	0.750218
C549	C	0.432568	-0.547760	0.000070
C550	C	0.682568	-0.297760	0.250070
C551	C	0.932568	-0.047760	0.500070
C552	C	1.182568	0.202240	0.750070
N553	N	0.395831	-0.563600	0.000032
N554	N	0.645831	-0.313600	0.250032
N555	N	0.895831	-0.063600	0.500032
N556	N	1.145831	0.186400	0.750032
H557	H	0.446769	-0.391049	0.000077
H558	H	0.696769	-0.141049	0.250077
H559	H	0.946769	0.108951	0.500077
H560	H	1.196769	0.358951	0.750077
H561	H	-0.202318	0.139256	0.000218
H562	H	0.047682	0.389256	0.250218
H563	H	0.297682	0.639256	0.500218
H564	H	0.547682	0.889256	0.750218
H565	H	0.605972	0.026312	0.363321
H566	H	0.855972	0.276312	0.613321
H567	H	1.105972	0.526312	0.863321
H568	H	1.355972	0.776312	1.113321
H569	H	-0.293785	0.138325	0.000216
H570	H	-0.043785	0.388325	0.250216
H571	H	0.206215	0.638325	0.500216
H572	H	0.456215	0.888325	0.750216
H573	H	0.493195	-0.165236	0.000219
H574	H	0.743195	0.084764	0.250219
H575	H	0.993195	0.334764	0.500219
H576	H	1.243195	0.584764	0.750219
H577	H	0.174737	0.187210	0.000172
H578	H	0.424737	0.437210	0.250172
H579	H	0.674737	0.687210	0.500172
H580	H	0.924737	0.937210	0.750172
C581	C	0.666739	-0.090374	0.000289
C582	C	0.916739	0.159626	0.250289
C583	C	1.166739	0.409626	0.500289
C584	C	1.416739	0.659626	0.750289
N585	N	0.703476	-0.074533	0.000308
N586	N	0.953476	0.175467	0.250308
N587	N	1.203476	0.425467	0.500308
N588	N	1.453476	0.675467	0.750308
H589	H	0.653148	-0.187294	0.000242
H590	H	0.903148	0.062706	0.250242
H591	H	1.153148	0.312706	0.500242
H592	H	1.403148	0.562706	0.750242
C593	C	0.708468	-0.328368	0.000250
C594	C	0.958468	-0.078368	0.250250
C595	C	1.208468	0.171632	0.500250
C596	C	1.458468	0.421632	0.750250
N597	N	0.745208	-0.312532	0.000259
N598	N	0.995208	-0.062532	0.250259
N599	N	1.245208	0.187468	0.500259
N600	N	1.495208	0.437468	0.750259
H601	H	0.694869	-0.425281	0.000227
H602	H	0.944869	-0.175281	0.250227
H603	H	1.194869	0.074719	0.500227
H604	H	1.444869	0.324719	0.750227
H605	H	0.117509	-0.061816	0.000256
H606	H	0.367509	0.188184	0.250256
H607	H	0.617509	0.438184	0.500256
H608	H	0.867509	0.688184	0.750256
