data_functionalizedCrystal
_audit_creation_method	'MofGen! by Chris Wilmer'
_symmetry_space_group_name_H-M	'P1'
_symmetry_Int_Tables_number	1
_symmetry_cell_setting	triclinic
loop_
_symmetry_equiv_pos_as_xyz
  x,y,z
_cell_length_a	16.120484
_cell_length_b	18.050591
_cell_length_c	16.120256
_cell_angle_alpha	87.117897
_cell_angle_beta	95.616173
_cell_angle_gamma	87.074737
loop_
_atom_site_label
_atom_site_type_symbol
_atom_site_fract_x
_atom_site_fract_y
_atom_site_fract_z
Zn1	Zn	-0.356761	-1.097121	-0.489377
Zn2	Zn	-0.489447	-1.097028	-0.356686
Zn3	Zn	-0.349693	-0.979562	-0.349630
Zn4	Zn	-0.496493	-0.966265	-0.496419
O5	O	-0.423098	-1.034994	-0.423028
O6	O	-0.374372	-1.201033	-0.471780
O7	O	-0.465002	-1.086972	-0.238787
O8	O	-0.233665	-1.000760	-0.362268
O9	O	-0.471855	-1.200964	-0.374294
O10	O	-0.238858	-1.087131	-0.464939
O11	O	-0.362325	-1.000670	-0.233603
O12	O	-0.369157	-0.873874	-0.369097
O13	O	-0.483864	-0.978097	-0.612448
O14	O	-0.477010	-0.864105	-0.476942
O15	O	-0.381204	-1.074237	-0.607274
O16	O	-0.607347	-1.074078	-0.381122
O17	O	-0.612523	-0.978007	-0.483784
C18	C	-0.423082	-0.842043	-0.423018
C19	C	-0.423096	-0.759496	-0.423035
C20	C	-0.481863	-0.505377	-0.481608
C21	C	-0.498335	-0.557398	-0.406348
C22	C	-0.423128	-0.462374	-0.423032
C23	C	-0.406679	-0.557434	-0.498291
C24	C	-0.423114	-0.608360	-0.423037
C25	C	-0.439637	-0.513308	-0.347733
C26	C	-0.347949	-0.513339	-0.439726
C27	C	-0.364389	-0.565341	-0.364411
C28	C	-0.423138	-0.378276	-0.423030
C29	C	-0.423104	-0.692457	-0.423031
C30	C	-0.640264	-1.024609	-0.434001
C31	C	-0.733170	-1.020232	-0.438723
C32	C	-0.903270	-1.012246	-0.447362
C33	C	-0.942087	-1.057874	-0.398708
C34	C	-1.036737	-1.053431	-0.403515
C35	C	-0.808612	-1.016689	-0.442556
C36	C	-0.205086	-1.045439	-0.412031
C37	C	-0.112182	-1.049890	-0.407344
C38	C	-0.434108	-1.024694	-0.641036
C39	C	-0.438799	-1.020305	-0.733938
C40	C	-0.423121	-0.228698	-0.423036
C41	C	-0.423144	-0.311243	-0.423033
C42	C	-0.398611	-1.057882	-0.942861
C43	C	-0.447330	-1.012269	-0.904023
C44	C	-0.442582	-1.016742	-0.809379
C45	C	-0.403358	-1.053410	-1.037514
C46	C	-0.412072	-1.045299	-0.205865
C47	C	-0.407145	-1.049843	-0.112952
H48	H	-0.561906	-0.576839	-0.392224
N49	N	-0.389216	-0.581846	-0.578130
N50	N	-0.322198	-0.566900	-0.606460
H51	H	-0.309869	-0.584138	-0.662848
H52	H	-0.353339	-1.100290	-0.905033
N53	N	-0.457193	-0.489014	-0.267873
N54	N	-0.469664	-0.535522	-0.210972
H55	H	-0.482066	-0.518364	-0.154572
N56	N	-0.504126	-0.959058	-0.951471
N57	N	-0.477118	-0.910881	-0.998702
H58	H	-0.517230	-0.873302	-1.032214
N59	N	-0.894614	-1.111066	-0.341917
N60	N	-0.904483	-1.178887	-0.347988
H61	H	-0.870950	-1.216450	-0.307879
N62	N	-0.950759	-0.959062	-0.504140
N63	N	-1.028694	-0.955487	-0.508008
H64	H	-1.062243	-0.917925	-0.548106
H65	H	-0.314710	-0.591363	-0.314823
N66	N	-0.544226	-0.472570	-0.543673
N67	N	-0.619298	-0.485182	-0.539682
H68	H	-0.663344	-0.462011	-0.583512
H69	H	-0.284397	-0.493879	-0.453872
