data_functionalizedCrystal
_audit_creation_method	'MofGen! by Chris Wilmer'
_symmetry_space_group_name_H-M	'P1'
_symmetry_Int_Tables_number	1
_symmetry_cell_setting	triclinic
loop_
_symmetry_equiv_pos_as_xyz
  x,y,z
_cell_length_a	8.559649
_cell_length_b	10.654551
_cell_length_c	7.681481
_cell_angle_alpha	84.205011
_cell_angle_beta	94.913240
_cell_angle_gamma	77.132013
loop_
_atom_site_label
_atom_site_type_symbol
_atom_site_fract_x
_atom_site_fract_y
_atom_site_fract_z
O1	O	2.104699	-0.029228	-0.146402
O2	O	1.640213	0.035559	-0.146408
O3	O	1.883134	-0.180676	-0.146406
O4	O	1.861777	0.187008	-0.146404
O5	O	1.913033	-0.207345	0.146452
O6	O	1.670112	0.008891	0.146450
O7	O	2.134598	-0.055896	0.146456
Zn8	Zn	1.907102	-0.027737	0.192951
Zn9	Zn	1.867709	0.007400	-0.192902
O10	O	1.891676	0.160339	0.146454
C11	C	1.595687	0.027135	0.000020
C12	C	1.418468	0.041749	0.000018
C13	C	1.896515	-0.240646	0.000019
C14	C	1.891821	-0.379604	0.000007
C15	C	1.873322	-0.430351	-0.159626
C16	C	1.868899	-0.560916	-0.159618
C17	C	1.901484	-0.589975	0.159672
C18	C	1.905894	-0.459411	0.159662
C19	C	1.859248	-0.350544	-0.319281
C20	C	1.840749	-0.401291	-0.478927
C21	C	1.836327	-0.531855	-0.478919
C22	C	1.850404	-0.611672	-0.319264
C23	C	2.179123	-0.047472	0.000024
C24	C	2.356341	-0.062085	0.000015
C25	C	1.878295	0.220310	0.000025
C26	C	1.882988	0.359268	0.000025
N27	N	1.933998	-0.051719	0.456285
N28	N	1.840825	0.031371	-0.456237
H29	H	1.336071	0.141835	0.000009
O30	O	1.924069	-0.410012	0.314624
C31	C	2.065605	-0.362915	0.324220
H32	H	2.098135	-0.339910	0.185621
H33	H	2.044556	-0.271063	0.391786
H34	H	2.168572	-0.439684	0.403012
H35	H	1.829274	-0.336293	-0.608912
O36	O	2.047693	-0.152796	0.545910
C37	C	2.201413	-0.143715	0.500922
H38	H	2.198336	-0.038797	0.450132
H39	H	2.293645	-0.176882	0.622226
H40	H	2.236562	-0.208122	0.394034
O41	O	1.818130	-0.580962	-0.634101
C42	C	1.671288	-0.512701	-0.731215
H43	H	1.633122	-0.412855	-0.685831
H44	H	1.687573	-0.501135	-0.877257
H45	H	1.574431	-0.568914	-0.709088
O46	O	1.727548	0.132598	0.453872
C47	C	1.803219	0.211319	0.347251
H48	H	1.924707	0.151723	0.319790
H49	H	1.723695	0.249344	0.217547
H50	H	1.822445	0.296544	0.418194
H51	H	1.846778	-0.717981	-0.319271
O52	O	1.454853	-0.181395	0.000092
C53	C	1.615797	-0.169915	0.000048
H54	H	1.628778	-0.077011	0.055494
H55	H	1.699210	-0.256981	0.085071
H56	H	1.649547	-0.166473	-0.140451
H57	H	1.912945	-0.654972	0.289655
O58	O	1.863245	-0.223649	-0.319384
C59	C	1.717813	-0.144521	-0.407014
H60	H	1.619103	-0.200768	-0.404205
H61	H	1.681467	-0.054188	-0.338244
H62	H	1.735269	-0.114620	-0.549448
