data_functionalizedCrystal
_audit_creation_method	'MofGen! by Chris Wilmer'
_symmetry_space_group_name_H-M	'P1'
_symmetry_Int_Tables_number	1
_symmetry_cell_setting	triclinic
loop_
_symmetry_equiv_pos_as_xyz
  x,y,z
_cell_length_a	14.519709
_cell_length_b	17.699083
_cell_length_c	16.776229
_cell_angle_alpha	89.994534
_cell_angle_beta	89.992406
_cell_angle_gamma	83.481580
loop_
_atom_site_label
_atom_site_type_symbol
_atom_site_fract_x
_atom_site_fract_y
_atom_site_fract_z
O1	O	0.116624	1.004412	-0.066259
O2	O	0.131797	0.784077	-0.066267
O3	O	-0.010052	0.900087	-0.066256
O4	O	0.258474	0.888403	-0.066270
O5	O	-0.010061	0.900071	0.066321
O6	O	0.131789	0.784062	0.066309
O7	O	0.116616	1.004397	0.066318
Zn8	Zn	0.124201	0.894227	0.087363
Zn9	Zn	0.124212	0.894247	-0.087312
O10	O	0.258465	0.888388	0.066306
C11	C	-0.044414	0.899534	0.000033
C12	C	-0.146789	0.897903	0.000033
C13	C	0.131249	0.755871	0.000020
C14	C	0.129618	0.671848	0.000017
C15	C	0.117164	1.032603	0.000029
C16	C	0.118795	1.116626	0.000027
C17	C	-0.521659	0.891896	0.000012
C18	C	-0.417358	0.893564	0.000018
C19	C	-0.334227	0.894899	0.000023
C20	C	-0.229920	0.896568	0.000028
C21	C	0.292827	0.888940	0.000016
C22	C	0.395202	0.890572	0.000010
N23	N	0.124192	0.894219	0.206574
C24	C	0.035532	1.165009	0.000029
C25	C	0.037070	1.243956	0.000031
C26	C	0.121872	1.274520	0.000026
C27	C	0.205141	1.226131	0.000027
C28	C	0.203602	1.147185	0.000030
C29	C	0.211349	1.544512	0.000015
C30	C	0.212882	1.623464	0.000009
C31	C	0.044817	1.641283	0.000016
C32	C	0.043278	1.562337	0.000019
C33	C	0.126547	1.513955	0.000024
C34	C	0.124878	1.428351	0.000023
C35	C	0.123541	1.360122	0.000022
N36	N	0.124213	0.894262	-0.206524
C37	C	0.061407	0.945603	0.248296
C38	C	0.061406	0.945607	0.331749
C39	C	0.124196	0.894230	0.373477
C40	C	0.186984	0.842840	0.331749
C41	C	0.186980	0.842833	0.248298
C42	C	0.187002	0.842867	0.668296
C43	C	0.187004	0.842880	0.751753
C44	C	0.061429	0.945642	0.751747
C45	C	0.061424	0.945635	0.668296
C46	C	0.124209	0.894242	0.626575
C47	C	0.124208	0.894238	0.536087
C48	C	0.124202	0.894238	0.463964
H49	H	-0.033524	1.140130	0.000028
N50	N	-0.043335	1.531104	0.000020
N51	N	-0.062939	1.489038	-0.055858
H52	H	-0.124111	1.466978	-0.055855
N53	N	-0.002716	0.998104	0.625660
N54	N	-0.002713	0.998087	0.551151
H55	H	-0.048016	1.035142	0.521039
H56	H	-0.022984	1.680686	0.000015
N57	N	0.251127	0.790381	0.794379
N58	N	0.221926	0.743376	0.840960
H59	H	0.267210	0.706299	0.871065
H60	H	0.238105	0.800989	0.214329
N61	N	0.296395	1.495087	0.000025
N62	N	0.295017	1.424601	0.000043
H63	H	0.355084	1.389690	0.000057
H64	H	0.274188	1.251022	0.000028
N65	N	0.299519	1.654672	0.000020
N66	N	0.355602	1.639888	0.055908
H67	H	0.416786	1.661928	0.055916
N68	N	-0.002705	0.998132	0.794377
N69	N	-0.002700	0.998132	0.868886
H70	H	-0.047992	1.035203	0.898993
H71	H	0.010281	0.987448	0.365719
N72	N	0.251136	0.790366	0.625699
N73	N	0.307191	0.744498	0.662969
H74	H	0.352488	0.707415	0.632883
N75	N	0.251108	0.790347	0.374373
N76	N	0.221915	0.743338	0.420953
H77	H	0.267204	0.706263	0.451056
N78	N	-0.047983	1.293376	0.000044
N79	N	-0.104429	1.290519	0.055929
H80	H	-0.164502	1.325421	0.055940
N81	N	0.288662	1.097771	0.000035
N82	N	0.364372	1.125067	0.000033
H83	H	0.424450	1.090170	0.000041
H84	H	0.010280	0.987444	0.214327
