data_functionalizedCrystal
_audit_creation_method	'MofGen! by Chris Wilmer'
_symmetry_space_group_name_H-M	'P1'
_symmetry_Int_Tables_number	1
_symmetry_cell_setting	triclinic
loop_
_symmetry_equiv_pos_as_xyz
  x,y,z
_cell_length_a	17.077404
_cell_length_b	18.050590
_cell_length_c	17.077396
_cell_angle_alpha	89.969391
_cell_angle_beta	89.983895
_cell_angle_gamma	90.016523
loop_
_atom_site_label
_atom_site_type_symbol
_atom_site_fract_x
_atom_site_fract_y
_atom_site_fract_z
Zn1	Zn	1.200061	-0.295694	-0.443812
Zn2	Zn	1.199983	-0.419893	-0.312543
Zn3	Zn	1.068798	-0.295717	-0.312562
Zn4	Zn	1.068770	-0.419842	-0.443769
O5	O	1.134403	-0.357786	-0.378171
O6	O	1.309897	-0.312180	-0.426408
O7	O	1.182560	-0.403451	-0.202698
O8	O	1.086254	-0.191789	-0.329999
O9	O	1.309840	-0.403429	-0.329966
O10	O	1.182692	-0.191772	-0.426427
O11	O	1.086179	-0.312220	-0.202713
O12	O	0.958947	-0.312170	-0.329957
O13	O	1.086208	-0.403342	-0.553622
O14	O	0.958927	-0.403365	-0.426354
O15	O	1.182666	-0.312131	-0.553653
O16	O	1.182533	-0.523810	-0.329924
O17	O	1.086132	-0.523773	-0.426336
C18	C	0.930455	-0.357765	-0.378154
C19	C	0.843205	-0.357774	-0.378165
C20	C	0.802246	-0.310345	-0.428459
C21	C	0.720265	-0.310350	-0.428463
C22	C	0.679246	-0.357788	-0.378176
C23	C	0.720211	-0.405219	-0.327876
C24	C	0.802190	-0.405209	-0.327869
C25	C	0.549341	-0.405235	-0.327895
C26	C	0.467357	-0.405246	-0.327903
C27	C	0.467416	-0.310376	-0.428489
C28	C	0.549395	-0.310367	-0.428482
C29	C	0.590355	-0.357799	-0.378183
C30	C	1.134343	-0.550738	-0.378140
C31	C	1.134389	-0.633284	-0.378153
C32	C	1.186921	-0.832728	-0.325798
C33	C	1.206093	-0.882059	-0.397440
C34	C	1.134433	-0.784414	-0.378184
C35	C	1.115341	-0.882165	-0.306574
C36	C	1.134478	-0.930399	-0.378208
C37	C	1.153642	-0.832658	-0.449864
C38	C	1.062857	-0.832760	-0.358950
C39	C	1.082002	-0.882069	-0.430642
C40	C	1.134410	-0.700316	-0.378170
C41	C	1.134501	-1.014496	-0.378231
C42	C	1.339147	-0.357808	-0.378190
C43	C	1.426397	-0.357817	-0.378197
C44	C	1.134442	-0.357729	-0.582916
C45	C	1.134459	-0.357704	-0.670166
C46	C	1.134485	-0.164081	-0.378220
C47	C	1.134520	-0.081535	-0.378241
C48	C	1.084289	-0.310194	-0.711163
C49	C	1.084302	-0.310177	-0.793143
C50	C	1.134489	-0.357667	-0.834125
C51	C	1.184662	-0.405182	-0.793122
C52	C	1.184645	-0.405202	-0.711143
C53	C	1.184696	-0.405136	-0.963993
C54	C	1.184715	-0.405115	-1.045977
C55	C	1.084353	-0.310111	-1.045992
C56	C	1.084336	-0.310131	-0.964013
C57	C	1.134509	-0.357645	-0.923016
C58	C	1.134409	-0.357790	-0.174224
C59	C	1.134544	-0.357605	-0.086974
H60	H	0.835638	-0.271718	-0.469411
C61	C	0.847249	-0.457384	-0.272546
C62	C	0.937423	-0.457374	-0.272533
C63	C	0.982481	-0.509547	-0.217206
C64	C	0.937365	-0.561730	-0.161892
C65	C	0.847186	-0.561742	-0.161903
C66	C	0.802128	-0.509569	-0.217230
H67	H	0.970825	-0.418743	-0.313482
H68	H	1.049237	-0.509538	-0.217198
H69	H	0.970720	-0.600352	-0.120935
H70	H	0.813784	-0.600373	-0.120954
H71	H	0.735372	-0.509578	-0.217237
C72	C	1.239864	-0.457434	-0.838194
C73	C	1.329101	-0.451401	-0.826926
C74	C	1.384304	-0.503657	-0.871992
C75	C	1.350268	-0.561945	-0.928325
C76	C	1.261026	-0.567981	-0.939596
C77	C	1.205824	-0.515725	-0.894530
H78	H	1.354300	-0.408250	-0.785222
H79	H	1.450367	-0.499189	-0.863649
H80	H	1.391132	-0.600628	-0.961686
H81	H	1.235827	-0.611131	-0.981299
H82	H	1.139761	-0.520193	-0.902873
H83	H	0.686920	-0.271730	-0.469419
C84	C	1.029080	-0.257954	-0.666087
C85	C	0.967427	-0.290141	-0.609714
C86	C	0.912213	-0.237901	-0.564641
C87	C	0.918653	-0.153474	-0.575941
C88	C	0.980309	-0.121282	-0.632316
C89	C	1.035522	-0.173522	-0.677389
H90	H	0.962657	-0.352644	-0.601347
H91	H	0.866572	-0.261733	-0.522908
H92	H	0.877781	-0.114803	-0.542575
H93	H	0.985079	-0.058779	-0.640683
H94	H	1.081164	-0.149691	-0.719122
H95	H	0.582688	-0.443858	-0.286934
C96	C	0.675091	-0.457401	-0.272559
C97	C	0.618711	-0.425156	-0.211000
C98	C	0.573593	-0.477342	-0.155685
C99	C	0.584854	-0.561773	-0.161928
C100	C	0.641236	-0.594023	-0.223490
C101	C	0.686355	-0.541837	-0.278805
H102	H	0.610373	-0.362650	-0.206376
H103	H	0.531855	-0.453468	-0.110113
H104	H	0.551454	-0.600405	-0.120981
H105	H	0.649575	-0.656529	-0.228114
H106	H	0.728093	-0.565712	-0.324377
C107	C	0.981084	-0.803474	-0.336924
C108	C	0.965924	-0.719441	-0.333587
C109	C	0.884151	-0.690153	-0.311550
C110	C	0.817537	-0.744898	-0.292851
C111	C	0.832695	-0.828936	-0.296188
C112	C	0.914468	-0.858224	-0.318225
H113	H	1.015238	-0.678911	-0.347430
H114	H	0.872931	-0.627942	-0.309080
H115	H	0.757004	-0.723217	-0.276538
H116	H	0.783381	-0.869466	-0.282345
H117	H	0.925688	-0.920435	-0.320695
H118	H	1.266642	-0.903715	-0.413724
C119	C	1.239829	-0.457468	-0.666043
C120	C	1.239805	-0.457500	-0.575870
C121	C	1.294985	-0.509773	-0.530771
C122	C	1.350188	-0.562014	-0.575845
C123	C	1.350214	-0.561985	-0.666024
C124	C	1.295035	-0.509712	-0.711123
H125	H	1.198938	-0.418826	-0.542498
H126	H	1.294965	-0.509794	-0.464014
H127	H	1.391036	-0.600710	-0.542460
H128	H	1.391081	-0.600659	-0.699395
H129	H	1.295054	-0.509690	-0.777880
H130	H	1.169748	-0.811004	-0.510486
H131	H	1.225560	-0.443821	-0.930615
C132	C	1.022064	-0.911160	-0.490568
C133	C	1.030847	-0.891416	-0.577867
C134	C	0.970913	-0.920510	-0.637795
C135	C	0.902196	-0.969347	-0.610424
C136	C	0.893409	-0.989093	-0.523121
C137	C	0.953343	-0.960000	-0.463193
H138	H	1.081718	-0.855262	-0.598133
H139	H	0.977418	-0.905892	-0.702423
H140	H	0.857829	-0.990884	-0.654786
H141	H	0.842538	-1.025248	-0.502855
H142	H	0.946839	-0.974618	-0.398565
C143	C	0.594514	-0.258187	-0.483802
C144	C	0.583272	-0.264356	-0.573028
C145	C	0.628390	-0.212173	-0.628348
C146	C	0.684749	-0.153822	-0.594443
C147	C	0.695993	-0.147650	-0.505212
C148	C	0.650876	-0.199833	-0.449892
H149	H	0.541550	-0.307553	-0.598131
H150	H	0.620066	-0.216742	-0.694403
H151	H	0.718148	-0.115193	-0.635394
H152	H	0.737716	-0.104453	-0.480109
H153	H	0.659200	-0.195264	-0.383838
H154	H	1.043472	-0.271457	-0.930648
C155	C	1.093492	-0.911539	-0.224750
C156	C	1.144840	-0.892071	-0.153559
C157	C	1.122998	-0.921441	-0.071734
C158	C	1.049808	-0.970279	-0.061100
C159	C	0.998456	-0.989749	-0.132294
C160	C	1.020298	-0.960379	-0.214119
H161	H	1.199023	-0.855916	-0.161428
H162	H	1.161013	-0.907028	-0.019031
H163	H	1.033640	-0.992020	-0.000528
H164	H	0.944273	-1.025904	-0.124425
H165	H	0.982283	-0.974793	-0.266822
C166	C	1.029158	-0.257843	-1.091083
C167	C	0.939917	-0.263887	-1.079796
C168	C	0.884728	-0.211617	-1.124889
C169	C	0.918781	-0.153304	-1.181268
C170	C	1.008027	-0.147258	-1.192557
C171	C	1.063216	-0.199528	-1.147465
H172	H	0.914704	-0.307056	-1.038058
H173	H	0.818662	-0.216093	-1.116531
H174	H	0.877927	-0.114611	-1.214648
H175	H	1.033240	-0.104089	-1.234295
H176	H	1.129282	-0.195052	-1.155822
C177	C	1.246899	-0.803451	-0.266011
C178	C	1.334232	-0.822912	-0.274972
C179	C	1.394211	-0.793634	-0.215189
C180	C	1.366857	-0.744895	-0.146447
C181	C	1.279520	-0.725432	-0.137483
C182	C	1.219541	-0.754710	-0.197265
H183	H	1.354485	-0.858994	-0.325862
H184	H	1.458864	-0.808042	-0.221825
H185	H	1.411258	-0.723222	-0.102192
H186	H	1.259267	-0.689350	-0.086593
H187	H	1.154888	-0.740302	-0.190629
C188	C	1.029118	-0.257908	-0.838236
C189	C	0.939876	-0.263948	-0.826950
C190	C	0.884690	-0.211674	-0.872041
C191	C	0.918746	-0.153361	-0.928418
C192	C	1.007992	-0.147318	-0.939707
C193	C	1.063178	-0.199592	-0.894616
H194	H	0.914662	-0.307117	-0.785214
H195	H	0.818624	-0.216148	-0.863684
H196	H	0.877894	-0.114665	-0.961797
H197	H	1.033207	-0.104149	-0.981443
H198	H	1.129245	-0.195118	-0.902973
H199	H	0.433961	-0.443874	-0.286955
C200	C	0.422370	-0.258202	-0.483827
C201	C	0.366032	-0.290470	-0.545397
C202	C	0.320985	-0.238303	-0.600740
C203	C	0.332276	-0.153868	-0.594512
C204	C	0.388617	-0.121595	-0.532939
C205	C	0.433664	-0.173762	-0.477596
H206	H	0.357672	-0.352977	-0.550010
H207	H	0.279278	-0.262193	-0.646321
H208	H	0.298930	-0.115251	-0.635480
H209	H	0.396977	-0.059088	-0.528326
H210	H	0.475371	-0.149872	-0.432015
H211	H	1.225582	-0.443786	-1.079343
