data_functionalizedCrystal
_audit_creation_method	'MofGen! by Chris Wilmer'
_symmetry_space_group_name_H-M	'P1'
_symmetry_Int_Tables_number	1
_symmetry_cell_setting	triclinic
loop_
_symmetry_equiv_pos_as_xyz
  x,y,z
_cell_length_a	10.723024
_cell_length_b	14.044220
_cell_length_c	9.798715
_cell_angle_alpha	89.995876
_cell_angle_beta	89.996609
_cell_angle_gamma	88.828373
loop_
_atom_site_label
_atom_site_type_symbol
_atom_site_fract_x
_atom_site_fract_y
_atom_site_fract_z
O1	O	1.670498	0.133040	-0.113486
O2	O	1.308619	0.145774	-0.113491
O3	O	1.484127	0.001387	-0.113476
O4	O	1.494990	0.277427	-0.113502
O5	O	1.484112	0.001387	0.113507
O6	O	1.308605	0.145774	0.113491
O7	O	1.670483	0.133039	0.113496
Zn8	Zn	1.489542	0.139407	0.149532
Zn9	Zn	1.489561	0.139407	-0.149527
O10	O	1.494976	0.277427	0.113480
C11	C	1.262020	0.144847	-0.000001
C12	C	1.123188	0.142075	-0.000002
C13	C	1.056288	0.222866	-0.000011
C14	C	0.912798	0.220002	-0.000013
C15	C	1.479364	-0.033958	0.000016
C16	C	1.465180	-0.139276	0.000018
C17	C	1.439248	-0.332106	-0.000002
C18	C	1.539849	-0.389085	-0.000005
C19	C	1.525420	-0.496383	-0.000016
C20	C	1.453675	-0.224799	0.000009
C21	C	1.717083	0.133966	0.000002
C22	C	1.855914	0.136739	-0.000005
C23	C	1.499738	0.312772	-0.000015
C24	C	1.513923	0.418090	-0.000025
N25	N	1.489538	0.139406	0.353631
N26	N	1.489573	0.139401	-0.353627
C27	C	1.563202	0.078514	0.421415
C28	C	1.563222	0.078511	0.578578
H29	H	1.636814	-0.357284	-0.000095
H30	H	1.626250	0.026381	0.363098
O31	O	1.114876	0.307836	-0.000073
C32	C	1.245101	0.291779	-0.000029
H33	H	1.267322	0.217934	-0.042998
H34	H	1.281866	0.296570	0.108868
C35	C	1.280378	0.458219	-0.036266
C36	C	1.307671	0.367524	-0.089052
H37	H	1.318977	0.504944	-0.091174
H38	H	1.192643	0.469038	-0.036291
H39	H	1.311017	0.462197	0.054481
H40	H	1.277019	0.363543	-0.179790
H41	H	1.395403	0.356706	-0.089045
H42	H	1.342291	-0.363906	-0.000007
H43	H	1.626294	0.026383	0.636869
H44	H	1.426508	0.191538	0.588091
H45	H	1.426481	0.191531	0.411950
H46	H	0.855286	0.289166	-0.000026
H47	H	1.074234	0.070786	-0.000030
O48	O	0.924642	0.054282	-0.000180
C49	C	1.000398	0.050685	-0.117754
H50	H	1.015244	0.126035	-0.156954
H51	H	0.952801	0.007038	-0.200066
C52	C	1.109156	-0.088614	-0.033895
C53	C	1.127399	0.003933	-0.082035
H54	H	1.187495	-0.117457	-0.011866
H55	H	1.058116	-0.086194	0.045314
H56	H	1.069488	-0.124975	-0.102497
H57	H	1.167052	0.040295	-0.013428
H58	H	1.178450	0.001518	-0.161233
