data_functionalizedCrystal
_audit_creation_method	'MofGen! by Chris Wilmer'
_symmetry_space_group_name_H-M	'P1'
_symmetry_Int_Tables_number	1
_symmetry_cell_setting	triclinic
loop_
_symmetry_equiv_pos_as_xyz
  x,y,z
_cell_length_a	18.215407
_cell_length_b	18.215405
_cell_length_c	18.215399
_cell_angle_alpha	89.969449
_cell_angle_beta	89.982632
_cell_angle_gamma	90.022329
loop_
_atom_site_label
_atom_site_type_symbol
_atom_site_fract_x
_atom_site_fract_y
_atom_site_fract_z
Zn1	Zn	1.125072	-0.293042	-0.416054
Zn2	Zn	1.625072	0.206958	0.083946
Zn3	Zn	1.124980	-0.416113	-0.292982
Zn4	Zn	1.624980	0.083887	0.207018
Zn5	Zn	1.002004	-0.293060	-0.293007
Zn6	Zn	1.502004	0.206940	0.206993
Zn7	Zn	1.001970	-0.416066	-0.416012
Zn8	Zn	1.501970	0.083934	0.083988
O9	O	1.063507	-0.354570	-0.354514
O10	O	1.563507	0.145430	0.145486
O11	O	1.228044	-0.309380	-0.399736
O12	O	1.728044	0.190620	0.100264
O13	O	1.108643	-0.399817	-0.190001
O14	O	1.608643	0.100183	0.309999
O15	O	1.018382	-0.190073	-0.309357
O16	O	1.518382	0.309927	0.190643
O17	O	1.227977	-0.399800	-0.309315
O18	O	1.727977	0.100200	0.190685
O19	O	1.108799	-0.190060	-0.399759
O20	O	1.608799	0.309940	0.100241
O21	O	1.018293	-0.309410	-0.190019
O22	O	1.518293	0.190590	0.309981
O23	O	0.899016	-0.309364	-0.309317
O24	O	1.399016	0.190636	0.190683
O25	O	1.018324	-0.399719	-0.519002
O26	O	1.518324	0.100281	-0.019002
O27	O	0.898991	-0.399736	-0.399688
O28	O	1.398991	0.100264	0.100312
O29	O	1.108766	-0.309334	-0.519033
O30	O	1.608766	0.190666	-0.019033
O31	O	1.108610	-0.519091	-0.309275
O32	O	1.608610	-0.019091	0.190725
O33	O	1.018235	-0.519056	-0.399665
O34	O	1.518235	-0.019056	0.100335
C35	C	0.872301	-0.354548	-0.354501
C36	C	1.372301	0.145452	0.145499
C37	C	0.790502	-0.354556	-0.354513
C38	C	1.290502	0.145444	0.145487
C39	C	0.602342	-0.307571	-0.401669
C40	C	1.102342	0.192429	0.098331
C41	C	0.525483	-0.307577	-0.401672
C42	C	1.025483	0.192423	0.098328
C43	C	0.525424	-0.401590	-0.307372
C44	C	1.025424	0.098410	0.192628
C45	C	0.602281	-0.401580	-0.307366
C46	C	1.102281	0.098420	0.192634
C47	C	0.640738	-0.354571	-0.354519
C48	C	1.140738	0.145429	0.145481
C49	C	0.487022	-0.354588	-0.354527
C50	C	0.987022	0.145412	0.145473
C51	C	0.403688	-0.354595	-0.354529
C52	C	0.903688	0.145405	0.145471
C53	C	0.724077	-0.354563	-0.354516
C54	C	1.224077	0.145437	0.145484
C55	C	1.063429	-0.545777	-0.354479
C56	C	1.563429	-0.045777	0.145521
C57	C	1.063463	-0.627575	-0.354488
C58	C	1.563463	-0.127575	0.145512
C59	C	1.110632	-0.815763	-0.307509
C60	C	1.610632	-0.315763	0.192491
C61	C	1.110665	-0.892622	-0.307526
C62	C	1.610665	-0.392622	0.192474
C63	C	1.016476	-0.892625	-0.401572
C64	C	1.516476	-0.392625	0.098428
C65	C	1.016447	-0.815768	-0.401557
C66	C	1.516447	-0.315768	0.098443
C67	C	1.063524	-0.777339	-0.354522
C68	C	1.563524	-0.277339	0.145478
C69	C	1.063586	-0.931055	-0.354554
C70	C	1.563586	-0.431055	0.145446
C71	C	1.063621	-1.014389	-0.354574
C72	C	1.563621	-0.514389	0.145426
C73	C	1.063490	-0.694000	-0.354503
C74	C	1.563490	-0.194000	0.145497
C75	C	1.255460	-0.354593	-0.354527
C76	C	1.755460	0.145407	0.145473
C77	C	1.337259	-0.354603	-0.354533
C78	C	1.837259	0.145397	0.145467
C79	C	1.063552	-0.354520	-0.546467
C80	C	1.563552	0.145480	-0.046467
C81	C	1.063571	-0.354498	-0.628266
C82	C	1.563571	0.145502	-0.128266
C83	C	1.063605	-0.162617	-0.354566
C84	C	1.563605	0.337383	0.145434
C85	C	1.063647	-0.080818	-0.354588
C86	C	1.563647	0.419182	0.145412
C87	C	1.110681	-0.307390	-0.816477
C88	C	1.610681	0.192610	-0.316477
C89	C	1.110690	-0.307369	-0.893336
C90	C	1.610690	0.192631	-0.393336
C91	C	1.016513	-0.401492	-0.893293
C92	C	1.516513	0.098508	-0.393293
C93	C	1.016501	-0.401509	-0.816435
C94	C	1.516501	0.098491	-0.316435
C95	C	1.063589	-0.354459	-0.778029
C96	C	1.563589	0.145541	-0.278029
C97	C	1.063610	-0.354421	-0.931746
C98	C	1.563610	0.145579	-0.431746
C99	C	1.063619	-0.354398	-1.015079
C100	C	1.563619	0.145602	-0.515079
C101	C	1.063579	-0.354481	-0.694690
C102	C	1.563579	0.145519	-0.194690
C103	C	1.063504	-0.354568	-0.163308
C104	C	1.563504	0.145432	0.336692
C105	C	1.063628	-0.354382	-0.081509
C106	C	1.563628	0.145618	0.418491
H107	H	0.633651	-0.269291	-0.440062
H108	H	1.133651	0.230709	0.059938
H109	H	1.149035	-0.269039	-0.924636
H110	H	1.649035	0.230961	-0.424636
C111	C	1.162473	-0.934889	-0.255805
C112	C	1.662473	-0.434889	0.244195
H113	H	1.155754	-0.986166	-0.262552
H114	H	1.655754	-0.486166	0.237448
H115	H	1.151722	-0.922335	-0.206349
H116	H	1.651722	-0.422335	0.293651
H117	H	1.211913	-0.922248	-0.266616
H118	H	1.711913	-0.422248	0.233384
H119	H	0.978148	-0.439837	-0.785130
H120	H	1.478148	0.060163	-0.285130
H121	H	0.978146	-0.923924	-0.439866
H122	H	1.478146	-0.423924	0.060134
C123	C	0.964724	-0.453249	-0.935538
C124	C	1.464724	0.046751	-0.435538
H125	H	0.936672	-0.481279	-0.901630
H126	H	1.436672	0.018721	-0.401630
H127	H	0.992866	-0.485310	-0.965514
H128	H	1.492866	0.014690	-0.465514
H129	H	0.932674	-0.425084	-0.965524
H130	H	1.432674	0.074916	-0.465524
C131	C	0.483250	-0.255881	-0.453541
C132	C	0.983250	0.244119	0.046459
H133	H	0.517164	-0.227889	-0.481624
H134	H	1.017164	0.272111	0.018376
H135	H	0.453266	-0.223782	-0.425452
H136	H	0.953266	0.276218	0.074548
H137	H	0.453273	-0.284083	-0.485559
H138	H	0.953273	0.215917	0.014441
H139	H	0.494103	-0.439864	-0.268982
H140	H	0.994103	0.060136	0.231018
H141	H	0.633544	-0.439854	-0.268967
H142	H	1.133544	0.060146	0.231033
H143	H	1.148966	-0.784476	-0.269210
H144	H	1.648966	-0.284476	0.230790
H145	H	0.978086	-0.784481	-0.439845
H146	H	1.478086	-0.284481	0.060155
C147	C	1.162466	-0.255629	-0.774233
C148	C	1.662466	0.244371	-0.274233
H149	H	1.190507	-0.227588	-0.808142
H150	H	1.690507	0.272412	-0.308142
H151	H	1.194516	-0.283784	-0.744244
H152	H	1.694516	0.216216	-0.244244
H153	H	1.134316	-0.223567	-0.744260
H154	H	1.634316	0.276433	-0.244260
