data_functionalizedCrystal
_audit_creation_method	'MofGen! by Chris Wilmer'
_symmetry_space_group_name_H-M	'P1'
_symmetry_Int_Tables_number	1
_symmetry_cell_setting	triclinic
loop_
_symmetry_equiv_pos_as_xyz
  x,y,z
_cell_length_a	15.298709
_cell_length_b	15.298852
_cell_length_c	12.827885
_cell_angle_alpha	99.703852
_cell_angle_beta	80.354486
_cell_angle_gamma	91.642159
loop_
_atom_site_label
_atom_site_type_symbol
_atom_site_fract_x
_atom_site_fract_y
_atom_site_fract_z
Zn1	Zn	1.399344	-0.116628	0.287459
Zn2	Zn	1.424610	-0.263130	0.078311
Zn3	Zn	1.252887	-0.142050	0.136947
Zn4	Zn	1.278211	-0.288431	0.277238
O5	O	1.338763	-0.202560	0.194989
O6	O	1.525257	-0.114835	0.239453
O7	O	1.401806	-0.247119	-0.060152
O8	O	1.251143	-0.016106	0.185729
O9	O	1.543819	-0.222469	0.085793
O10	O	1.358744	0.002572	0.296310
O11	O	1.275642	-0.158162	-0.017073
O12	O	1.133685	-0.182695	0.175818
O13	O	1.294303	-0.265590	0.424835
O14	O	1.152290	-0.290241	0.278890
O15	O	1.383300	-0.139368	0.432345
O16	O	1.426361	-0.389059	0.075882
O17	O	1.318802	-0.407647	0.222033
C18	C	1.111209	-0.241973	0.232608
C19	C	1.013864	-0.258855	0.248722
C20	C	0.977860	-0.322864	0.309828
C21	C	0.886399	-0.338721	0.324978
C22	C	0.830934	-0.290576	0.279017
C23	C	0.866938	-0.226570	0.217903
C24	C	0.958407	-0.210706	0.202758
C25	C	0.811480	-0.178418	0.171948
C26	C	0.847485	-0.114412	0.110834
C27	C	0.938945	-0.098552	0.095691
C28	C	0.994411	-0.146697	0.141652
C29	C	0.720011	-0.194282	0.187093
C30	C	0.700558	-0.082124	0.080023
C31	C	0.792019	-0.066267	0.064873
C32	C	1.378095	-0.430130	0.141505
C33	C	1.395002	-0.527472	0.118646
C34	C	1.218501	-0.840727	0.358371
C35	C	1.202619	-0.749269	0.379855
C36	C	1.250713	-0.693816	0.314554
C37	C	1.314693	-0.729828	0.227766
C38	C	1.330582	-0.821294	0.206285
C39	C	1.362793	-0.674383	0.162469
C40	C	1.426773	-0.710396	0.075681
C41	C	1.442659	-0.801853	0.054203
C42	C	1.394565	-0.857306	0.119503
C43	C	1.346904	-0.582917	0.183950
C44	C	1.458985	-0.563484	0.031864
C45	C	1.474867	-0.654942	0.010380
C46	C	1.567205	-0.162994	0.157223
C47	C	1.664554	-0.146133	0.141129
C48	C	1.338808	-0.202465	0.467569
C49	C	1.338827	-0.202425	0.583726
C50	C	1.299301	0.025903	0.248700
C51	C	1.282484	0.123261	0.271589
C52	C	1.338757	-0.202582	-0.076525
C53	C	1.338865	-0.202346	-0.192651
C54	C	1.382869	-0.139955	0.639228
C55	C	1.382890	-0.139912	0.759283
H56	H	0.655397	-0.042918	0.042601
O57	O	0.851521	-0.400840	0.384469
C58	C	0.830960	-0.448365	0.556736
C59	C	0.870519	-0.377954	0.489480
H60	H	0.846290	-0.429878	0.641657
H61	H	0.861172	-0.515863	0.518743
H62	H	0.756068	-0.451452	0.559611
H63	H	0.945409	-0.374788	0.486581
H64	H	0.840239	-0.310492	0.527498
O65	O	1.235278	-0.604976	0.335223
C66	C	1.189975	-0.477715	0.269553
C67	C	1.207449	-0.578330	0.245997
H68	H	1.167454	-0.456144	0.197437
H69	H	1.253457	-0.441006	0.285876
H70	H	1.136013	-0.461516	0.342829
H71	H	1.261381	-0.594611	0.172709
H72	H	1.143926	-0.614985	0.229739
O73	O	0.742090	-0.305986	0.293536
C74	C	0.614677	-0.351221	0.209786
C75	C	0.715296	-0.333773	0.193190
H76	H	0.592986	-0.373708	0.128673
H77	H	0.578074	-0.287726	0.251589
H78	H	0.598491	-0.405209	0.261403
H79	H	0.731564	-0.279815	0.141550
H80	H	0.751845	-0.397310	0.151436
O81	O	1.140531	-0.714139	0.464136
C82	C	1.066349	-0.581859	0.564594
C83	C	1.136708	-0.621525	0.469122
H84	H	1.063221	-0.506978	0.568643
H85	H	1.084795	-0.597054	0.642166
H86	H	0.998890	-0.612200	0.553608
H87	H	1.204192	-0.591207	0.480004
H88	H	1.118185	-0.606339	0.391586
H89	H	1.420556	-0.086501	0.597867
O90	O	1.427796	-0.076144	0.816369
C91	C	1.468831	-0.018008	0.988054
C92	C	1.417922	-0.090269	0.923535
H93	H	1.460882	-0.029414	1.074704
H94	H	1.441253	0.049985	0.985885
H95	H	1.542109	-0.021134	0.951306
H96	H	1.344638	-0.087225	0.960235
H97	H	1.445573	-0.158231	0.925701
O98	O	1.031814	-0.369485	0.354534
C99	C	1.137166	-0.363481	0.475735
C100	C	1.076115	-0.310569	0.425160
H101	H	1.172986	-0.315871	0.532864
H102	H	1.187939	-0.401779	0.409876
H103	H	1.095716	-0.411979	0.521962
H104	H	1.117493	-0.262025	0.378941
H105	H	1.025340	-0.272331	0.491067
H106	H	0.690705	-0.246395	0.236854
O107	O	1.504949	-0.836666	-0.030035
C108	C	1.658821	-0.838618	-0.111676
C109	C	1.588343	-0.799143	-0.016233
H110	H	1.726264	-0.808311	-0.100538
H111	H	1.640449	-0.823307	-0.189232
H112	H	1.661931	-0.913517	-0.115879
H113	H	1.585197	-0.724238	-0.011928
H114	H	1.606743	-0.814523	0.061276
H115	H	1.179355	-0.885884	0.411534
H116	H	1.068887	-0.133793	0.129315
O117	O	1.410154	-0.946123	0.098615
C118	C	1.516864	-1.062749	0.080930
C119	C	1.499341	-0.962142	0.104575
H120	H	1.588965	-1.075733	0.085763
H121	H	1.503118	-1.090827	-0.002887
H122	H	1.471455	-1.096174	0.142490
H123	H	1.544738	-0.928642	0.043084
H124	H	1.513059	-0.934130	0.188422
O125	O	0.973946	-0.036274	0.036497
C126	C	1.056802	0.099870	0.033359
C127	C	1.017193	0.029417	0.100523
H128	H	1.091793	0.152989	0.085089
H129	H	1.001483	0.131629	0.003133
H130	H	1.106511	0.067108	-0.037905
H131	H	0.967495	0.062112	0.171833
H132	H	1.072560	-0.002336	0.130666
H133	H	1.294812	-0.553604	0.254614
H134	H	1.301161	-0.255835	0.759638
H135	H	1.301130	-0.255872	0.625091
H136	H	1.526961	-0.684277	-0.060283
H137	H	1.498149	-0.518334	-0.021307
H138	H	0.821347	-0.014152	0.015114
