data_functionalizedCrystal
_audit_creation_method	'MofGen! by Chris Wilmer'
_symmetry_space_group_name_H-M	'P1'
_symmetry_Int_Tables_number	1
_symmetry_cell_setting	triclinic
loop_
_symmetry_equiv_pos_as_xyz
  x,y,z
_cell_length_a	19.805407
_cell_length_b	19.805404
_cell_length_c	19.805399
_cell_angle_alpha	90.025147
_cell_angle_beta	89.982197
_cell_angle_gamma	89.971921
loop_
_atom_site_label
_atom_site_type_symbol
_atom_site_fract_x
_atom_site_fract_y
_atom_site_fract_z
Zn1	Zn	1.034715	0.269527	-0.382699
Zn2	Zn	1.034621	0.382716	-0.269516
Zn3	Zn	0.921530	0.269541	-0.269527
Zn4	Zn	0.921485	0.382674	-0.382666
O5	O	0.978088	0.326115	-0.326102
O6	O	1.129419	0.284554	-0.367694
O7	O	1.019599	0.367726	-0.174801
O8	O	0.936602	0.174822	-0.284558
O9	O	1.129350	0.367713	-0.284539
O10	O	1.019759	0.174813	-0.367705
O11	O	0.936511	0.284576	-0.174809
O12	O	0.826807	0.284536	-0.284526
O13	O	0.936525	0.367642	-0.477387
O14	O	0.826774	0.367655	-0.367649
O15	O	1.019715	0.284514	-0.477411
O16	O	1.019555	0.477427	-0.284507
O17	O	0.936434	0.477397	-0.367638
C18	C	0.802232	0.326093	-0.326086
C19	C	0.727000	0.326101	-0.326095
C20	C	0.691692	0.282876	-0.369459
C21	C	0.621004	0.282880	-0.369462
C22	C	0.585624	0.326112	-0.326103
C23	C	0.620937	0.369338	-0.282733
C24	C	0.691624	0.369330	-0.282728
C25	C	0.335864	0.369368	-0.282754
C26	C	0.265171	0.369374	-0.282764
C27	C	0.265243	0.282918	-0.369488
C28	C	0.335930	0.282910	-0.369483
C29	C	0.371237	0.326134	-0.326111
C30	C	0.447885	0.326128	-0.326108
C31	C	0.508977	0.326121	-0.326109
C32	C	0.977998	0.501971	-0.326082
C33	C	0.978022	0.577203	-0.326096
C34	C	1.021521	1.038987	-0.282935
C35	C	1.021490	0.968298	-0.282919
C36	C	0.978164	0.932964	-0.326159
C37	C	0.934861	0.968322	-0.369412
C38	C	0.934888	1.039009	-0.369423
C39	C	0.934749	0.683249	-0.369365
C40	C	0.934726	0.612557	-0.369351
C41	C	1.021351	0.612538	-0.282861
C42	C	1.021378	0.683225	-0.282872
C43	C	0.978073	0.718577	-0.326122
C44	C	0.978105	0.795225	-0.326138
C45	C	0.978135	0.856317	-0.326147
C46	C	1.154630	0.326136	-0.326119
C47	C	1.229862	0.326146	-0.326126
C48	C	0.978126	0.326072	-0.502645
C49	C	0.978142	0.326054	-0.577877
C50	C	0.978191	1.149572	-0.326145
C51	C	0.978222	1.074340	-0.326186
C52	C	1.021460	0.282767	-0.613235
C53	C	1.021467	0.282747	-0.683923
C54	C	0.978159	0.326018	-0.719252
C55	C	0.934836	0.369308	-0.683890
C56	C	0.934826	0.369323	-0.613202
C57	C	0.934874	0.369244	-0.968963
C58	C	0.934889	0.369227	-1.039655
C59	C	1.021515	0.282668	-1.039684
C60	C	1.021505	0.282684	-0.968997
C61	C	0.978180	0.325970	-0.933640
C62	C	0.978172	0.325990	-0.856991
C63	C	0.978170	0.326002	-0.795900
C64	C	0.978089	0.326108	-0.150246
C65	C	0.978204	0.325936	-0.075014
H66	H	0.720493	0.247674	-0.404769
H67	H	0.899580	0.939549	-0.404616
H68	H	1.056661	0.711991	-0.247665
H69	H	1.056729	0.247532	-0.584475
H70	H	0.899633	1.067793	-0.404646
H71	H	1.056806	1.067751	-0.247728
H72	H	1.056773	0.247450	-0.940235
H73	H	1.056790	0.247420	-1.068480
H74	H	1.056747	0.939514	-0.247700
H75	H	1.056611	0.583747	-0.247642
H76	H	1.056742	0.247500	-0.712709
H77	H	0.899442	0.583789	-0.404563
H78	H	0.592259	0.247684	-0.404775
H79	H	0.899619	0.404465	-1.068418
H80	H	0.899571	0.404538	-0.712660
H81	H	0.899481	0.712024	-0.404577
H82	H	0.899545	0.404565	-0.584415
H83	H	0.236488	0.247721	-0.404801
H84	H	0.364733	0.247709	-0.404793
H85	H	0.236367	0.404580	-0.247453
H86	H	0.364601	0.404564	-0.247438
H87	H	0.592125	0.404535	-0.247426
H88	H	0.720371	0.404528	-0.247415
H89	H	0.899606	0.404501	-0.940184
