data_functionalizedCrystal
_audit_creation_method	'MofGen! by Chris Wilmer'
_symmetry_space_group_name_H-M	'P1'
_symmetry_Int_Tables_number	1
_symmetry_cell_setting	triclinic
loop_
_symmetry_equiv_pos_as_xyz
  x,y,z
_cell_length_a	13.032891
_cell_length_b	13.034570
_cell_length_c	19.076919
_cell_angle_alpha	80.270825
_cell_angle_beta	94.613894
_cell_angle_gamma	76.684200
loop_
_atom_site_label
_atom_site_type_symbol
_atom_site_fract_x
_atom_site_fract_y
_atom_site_fract_z
Zn1	Zn	1.646058	-0.660779	0.595107
Zn2	Zn	2.146058	-0.160779	1.095107
Zn3	Zn	1.673831	-0.833036	0.494543
Zn4	Zn	2.173831	-0.333036	0.994543
Zn5	Zn	1.475578	-0.631092	0.460327
Zn6	Zn	1.975578	-0.131092	0.960327
Zn7	Zn	1.490951	-0.815722	0.595101
Zn8	Zn	1.990951	-0.315722	1.095101
O9	O	1.571604	-0.735157	0.536269
O10	O	2.071604	-0.235157	1.036269
O11	O	1.797625	-0.703299	0.596089
O12	O	2.297625	-0.203299	1.096089
O13	O	1.652722	-0.801069	0.391515
O14	O	2.152722	-0.301069	0.891515
O15	O	1.480136	-0.485672	0.463888
O16	O	1.980136	0.014328	0.963888
O17	O	1.818030	-0.829855	0.522206
O18	O	2.318030	-0.329855	1.022206
O19	O	1.605386	-0.507483	0.562910
O20	O	2.105386	-0.007483	1.062910
O21	O	1.507067	-0.652702	0.366376
O22	O	2.007067	-0.152702	0.866376
O23	O	1.329735	-0.635914	0.463882
O24	O	1.829735	-0.135914	0.963882
O25	O	1.506336	-0.800347	0.693591
O26	O	2.006336	-0.300347	1.193591
O27	O	1.341029	-0.771561	0.562901
O28	O	1.841029	-0.271561	1.062901
O29	O	1.620293	-0.686511	0.693596
O30	O	2.120293	-0.186511	1.193596
O31	O	1.667629	-0.980098	0.522200
O32	O	2.167629	-0.480098	1.022200
O33	O	1.533267	-0.967377	0.596079
O34	O	2.033267	-0.467377	1.096079
C35	C	1.297037	-0.698638	0.509678
C36	C	1.797037	-0.198638	1.009678
C37	C	1.179579	-0.683041	0.498322
C38	C	1.679579	-0.183041	0.998322
C39	C	1.605158	-1.012469	0.562870
C40	C	2.105158	-0.512469	1.062870
C41	C	1.619607	-1.131118	0.574283
C42	C	2.119607	-0.631118	1.074283
C43	C	1.011443	-0.727184	0.530466
C44	C	1.511443	-0.227184	1.030466
C45	C	1.132844	-0.743309	0.542203
C46	C	1.632844	-0.243309	1.042203
C47	C	1.579070	-1.295939	0.542140
C48	C	2.079070	-0.795939	1.042140
C49	C	1.564135	-1.173309	0.530348
C50	C	2.064135	-0.673309	1.030348
C51	C	1.847244	-0.771820	0.562965
C52	C	2.347244	-0.271820	1.062965
C53	C	1.964705	-0.787444	0.574341
C54	C	2.464705	-0.287444	1.074341
C55	C	1.561931	-0.744809	0.719845
C56	C	2.061931	-0.244809	1.219845
C57	C	1.557809	-0.748922	0.798074
C58	C	2.057809	-0.248922	1.298074
C59	C	1.537948	-0.456767	0.509583
C60	C	2.037948	0.043233	1.009583
C61	C	1.523606	-0.338134	0.498211
C62	C	2.023606	0.161866	0.998211
C63	C	1.581292	-0.725474	0.353407
C64	C	2.081292	-0.225474	0.853407
C65	C	1.585582	-0.721088	0.275169
C66	C	2.085582	-0.221088	0.775169
C67	C	1.615200	-0.691589	0.834829
C68	C	2.115200	-0.191589	1.334829
C69	C	1.611314	-0.695448	0.908332
C70	C	2.111314	-0.195448	1.408332
C71	C	1.550041	-0.756647	0.945079
C72	C	2.050041	-0.256647	1.445079
C73	C	1.492643	-0.813982	0.908318
C74	C	1.992643	-0.313982	1.408318
C75	C	1.496524	-0.810116	0.834815
C76	C	1.996524	-0.310116	1.334815
C77	C	1.532065	-0.774557	1.164906
C78	C	2.032065	-0.274557	1.664906
C79	C	1.528191	-0.778421	1.238414
C80	C	2.028191	-0.278421	1.738414
C81	C	1.646861	-0.659885	1.238422
C82	C	2.146861	-0.159885	1.738422
C83	C	1.650741	-0.656030	1.164920
C84	C	2.150741	-0.156030	1.664920
C85	C	1.593339	-0.713360	1.128164
C86	C	2.093339	-0.213360	1.628164
N87	N	1.546069	-0.760595	1.020211
N88	N	2.046069	-0.260595	1.520211
N89	N	1.597305	-0.709405	1.053033
N90	N	2.097305	-0.209405	1.553033
H91	H	0.961581	-0.663652	0.484217
H92	H	1.461581	-0.163652	0.984217
H93	H	1.465068	-1.283474	0.451869
H94	H	1.965068	-0.783474	0.951869
Cl95	Cl	1.041678	-0.885524	0.645756
Cl96	Cl	1.541678	-0.385524	1.145756
H97	H	1.442749	-0.863807	0.938242
H98	H	1.942749	-0.363807	1.438242
Cl99	Cl	1.727774	-0.579091	1.118729
Cl100	Cl	2.227774	-0.079091	1.618729
H101	H	1.637616	-1.350602	0.588477
H102	H	2.137616	-0.850602	1.088477
H103	H	1.505593	-1.118652	0.484003
H104	H	2.005593	-0.618652	0.984003
Cl105	Cl	1.710006	-1.215498	0.645830
Cl106	Cl	2.210006	-0.715498	1.145830
Cl107	Cl	1.102610	-0.584946	0.426908
Cl108	Cl	1.602610	-0.084946	0.926908
H109	H	1.665099	-0.641758	0.804915
H110	H	2.165099	-0.141758	1.304915
H111	H	1.449778	-0.856791	0.804888
H112	H	1.949778	-0.356791	1.304888
Cl113	Cl	1.683519	-0.623421	0.954544
Cl114	Cl	2.183519	-0.123421	1.454544
H115	H	1.182701	-0.806837	0.588460
H116	H	1.682701	-0.306837	1.088460
Cl117	Cl	1.719014	-0.587812	1.284632
Cl118	Cl	2.219014	-0.087812	1.784632
H119	H	1.478292	-0.828259	1.268331
H120	H	1.978292	-0.328259	1.768331
Cl121	Cl	1.459902	-0.846631	1.118709
Cl122	Cl	1.959902	-0.346631	1.618709
