data_functionalizedCrystal
_audit_creation_method	'MofGen! by Chris Wilmer'
_symmetry_space_group_name_H-M	'P1'
_symmetry_Int_Tables_number	1
_symmetry_cell_setting	triclinic
loop_
_symmetry_equiv_pos_as_xyz
  x,y,z
_cell_length_a	10.654550
_cell_length_b	17.019294
_cell_length_c	9.130313
_cell_angle_alpha	86.119786
_cell_angle_beta	89.996220
_cell_angle_gamma	83.938066
loop_
_atom_site_label
_atom_site_type_symbol
_atom_site_fract_x
_atom_site_fract_y
_atom_site_fract_z
O1	O	1.666099	0.110791	-0.135891
O2	O	1.300455	0.121346	-0.137198
O3	O	1.493478	0.001292	-0.122062
O4	O	1.473076	0.230845	-0.151027
O5	O	1.493475	0.001295	0.121536
O6	O	1.300452	0.121350	0.106400
O7	O	1.666096	0.110794	0.107708
Cu8	Cu	1.483274	0.116072	0.129297
Cu9	Cu	1.483277	0.116068	-0.158787
O10	O	1.473073	0.230848	0.092572
C11	C	1.253668	0.120573	-0.015298
C12	C	1.114261	0.118254	-0.014997
C13	C	1.492703	-0.028100	0.003443
C14	C	1.490383	-0.115683	0.014486
C15	C	1.033668	0.188940	-0.023937
C16	C	0.902681	0.186757	-0.023687
C17	C	0.932893	0.043195	-0.005561
C18	C	1.063877	0.045379	-0.005801
C19	C	1.084051	0.261815	-0.033133
C20	C	1.003457	0.332507	-0.042076
C21	C	0.872470	0.330324	-0.041825
C22	C	0.822078	0.257448	-0.032632
C23	C	1.489297	-0.156827	-0.113111
C24	C	1.487109	-0.239119	-0.102731
C25	C	1.486016	-0.280267	0.035247
C26	C	1.487098	-0.239117	0.162854
C27	C	1.489277	-0.156825	0.152472
C28	C	1.479429	-0.528735	0.073236
C29	C	1.477254	-0.611033	0.083608
C30	C	1.477263	-0.611029	-0.181978
C31	C	1.479449	-0.528736	-0.192347
C32	C	1.480524	-0.487593	-0.064741
C33	C	1.483784	-0.364384	0.045861
C34	C	1.482748	-0.403477	-0.075356
C35	C	1.712883	0.111567	-0.014195
C36	C	1.852290	0.113886	-0.014507
C37	C	1.473848	0.260240	-0.032937
C38	C	1.476168	0.347823	-0.043989
N39	N	1.483281	0.116074	0.331919
N40	N	1.483280	0.116060	-0.361408
C41	C	1.568773	0.062932	0.415271
C42	C	1.568770	0.062923	0.568609
C43	C	1.397778	0.169204	0.555229
C44	C	1.397777	0.169209	0.401894
C45	C	1.654278	0.009797	0.345296
C46	C	1.739778	-0.043348	0.428648
C47	C	1.739775	-0.043358	0.581986
C48	C	1.654271	0.009778	0.651972
H49	H	1.044495	0.391840	-0.049548
H50	H	1.129499	-0.012180	0.001475
C51	C	1.833816	-0.101817	0.673679
C52	C	1.927857	-0.160265	0.596706
C53	C	2.021906	-0.218723	0.688395
C54	C	2.021913	-0.218732	0.857058
C55	C	1.927869	-0.160282	0.934040
C56	C	1.833820	-0.101824	0.842351
H57	H	1.927855	-0.160260	0.471843
H58	H	2.091524	-0.261992	0.631407
H59	H	2.091534	-0.262006	0.924932
H60	H	1.927871	-0.160287	1.058902
H61	H	1.764202	-0.058555	0.899339
H62	H	1.654291	0.009802	0.220441
H63	H	0.806853	0.387884	-0.049092
H64	H	1.190705	0.263601	-0.033344
H65	H	1.654268	0.009761	0.776831
H66	H	1.482898	-0.397896	0.158203
H67	H	1.328166	0.212466	0.612221
H68	H	1.809385	-0.086614	0.371659
C69	C	1.490473	-0.111563	0.292829
C70	C	1.381174	-0.114519	0.402756
C71	C	1.382362	-0.069257	0.543117
C72	C	1.492848	-0.021038	0.573552
C73	C	1.602155	-0.018080	0.463622
C74	C	1.600968	-0.063342	0.323261
H75	H	1.299378	-0.150216	0.380229
H76	H	1.301445	-0.071447	0.624494
H77	H	1.493728	0.012468	0.677456
H78	H	1.683952	0.017616	0.486149
H79	H	1.681885	-0.061152	0.241884
H80	H	1.328160	0.212481	0.334028
H81	H	1.476357	-0.644533	0.195972
H82	H	1.490194	-0.123330	-0.225468
H83	H	1.483629	-0.369970	-0.187697
H84	H	0.891853	-0.016137	0.001899
C85	C	1.485925	-0.284373	-0.243097
C86	C	1.595234	-0.281415	-0.353009
C87	C	1.594050	-0.326666	-0.493385
C88	C	1.483558	-0.374875	-0.523848
C89	C	1.374241	-0.377834	-0.413932
C90	C	1.375424	-0.332584	-0.273556
H91	H	1.677034	-0.245726	-0.330462
H92	H	1.674974	-0.324475	-0.574752
H93	H	1.482681	-0.408372	-0.627762
H94	H	1.292440	-0.413523	-0.436480
H95	H	1.294500	-0.334775	-0.192190
H96	H	0.715418	0.255676	-0.032406
H97	H	1.480341	-0.495239	-0.304704
H98	H	1.476385	-0.644537	-0.285867
H99	H	1.480330	-0.495248	0.177143
H100	H	1.486200	-0.272626	0.275199
