data_functionalizedCrystal
_audit_creation_method	'MofGen! by Chris Wilmer'
_symmetry_space_group_name_H-M	'P1'
_symmetry_Int_Tables_number	1
_symmetry_cell_setting	triclinic
loop_
_symmetry_equiv_pos_as_xyz
  x,y,z
_cell_length_a	14.908783
_cell_length_b	21.295417
_cell_length_c	14.908308
_cell_angle_alpha	93.261727
_cell_angle_beta	89.788727
_cell_angle_gamma	93.320338
loop_
_atom_site_label
_atom_site_type_symbol
_atom_site_fract_x
_atom_site_fract_y
_atom_site_fract_z
Zn1	Zn	1.345265	-0.220173	-0.587804
Zn2	Zn	1.678598	0.113160	-0.254471
Zn3	Zn	2.011932	0.446494	0.078863
Zn4	Zn	1.353823	-0.319050	-0.437432
Zn5	Zn	1.687157	0.014283	-0.104099
Zn6	Zn	2.020490	0.347616	0.229234
Zn7	Zn	1.203578	-0.219492	-0.428775
Zn8	Zn	1.536912	0.113842	-0.095442
Zn9	Zn	1.870245	0.447175	0.237891
Zn10	Zn	1.194846	-0.331104	-0.579053
Zn11	Zn	1.528179	0.002229	-0.245719
Zn12	Zn	1.861513	0.335562	0.087614
O13	O	1.274378	-0.272455	-0.508266
O14	O	1.607712	0.060878	-0.174933
O15	O	1.941045	0.394212	0.158401
O16	O	1.472229	-0.228530	-0.575142
O17	O	1.805562	0.104804	-0.241809
O18	O	2.138896	0.438137	0.091524
O19	O	1.341129	-0.300514	-0.310461
O20	O	1.674462	0.032819	0.022872
O21	O	2.007796	0.366153	0.356205
O22	O	1.222446	-0.131491	-0.449910
O23	O	1.555780	0.201842	-0.116577
O24	O	1.889113	0.535175	0.216757
O25	O	1.478517	-0.301174	-0.464665
O26	O	1.811850	0.032159	-0.131332
O27	O	2.145183	0.365492	0.202002
O28	O	1.326543	-0.131992	-0.566748
O29	O	1.659876	0.201341	-0.233414
O30	O	1.993209	0.534675	0.099919
O31	O	1.230745	-0.227369	-0.304101
O32	O	1.564078	0.105965	0.029232
O33	O	1.897412	0.439298	0.362566
O34	O	1.076591	-0.239057	-0.441424
O35	O	1.409925	0.094276	-0.108091
O36	O	1.743258	0.427610	0.225242
O37	O	1.207563	-0.321719	-0.706036
O38	O	1.540897	0.011615	-0.372703
O39	O	1.874230	0.344948	-0.039369
O40	O	1.070176	-0.321058	-0.551833
O41	O	1.403509	0.012275	-0.218499
O42	O	1.736842	0.345608	0.114834
O43	O	1.318075	-0.240218	-0.712466
O44	O	1.651409	0.093115	-0.379132
O45	O	1.984742	0.426449	-0.045799
O46	O	1.332662	-0.408740	-0.456179
O47	O	1.665995	-0.075407	-0.122846
O48	O	1.999328	0.257927	0.210487
O49	O	1.215862	-0.417596	-0.560227
O50	O	1.549195	-0.084263	-0.226894
O51	O	1.882529	0.249071	0.106440
C52	C	1.040757	-0.281292	-0.494740
C53	C	1.374091	0.052041	-0.161407
C54	C	1.707424	0.385375	0.171927
C55	C	0.940812	-0.285089	-0.488975
C56	C	1.274145	0.048244	-0.155641
C57	C	1.607479	0.381578	0.177692
C58	C	0.746445	-0.216696	-0.593357
C59	C	1.079778	0.116637	-0.260024
C60	C	1.413112	0.449971	0.073309
C61	C	0.652537	-0.220261	-0.587943
C62	C	0.985871	0.113072	-0.254610
C63	C	1.319204	0.446405	0.078723
C64	C	0.659088	-0.295781	-0.472729
C65	C	0.992421	0.037552	-0.139396
C66	C	1.325754	0.370886	0.193938
C67	C	0.752995	-0.292216	-0.478143
C68	C	1.086329	0.041118	-0.144810
C69	C	1.419662	0.374451	0.188524
C70	C	0.796670	-0.252673	-0.538460
C71	C	1.130004	0.080661	-0.205127
C72	C	1.463337	0.413994	0.128207
C73	C	0.890580	-0.249111	-0.543878
C74	C	1.223913	0.084222	-0.210545
C75	C	1.557246	0.417556	0.122789
C76	C	0.897129	-0.324627	-0.428660
C77	C	1.230462	0.008706	-0.095326
C78	C	1.563795	0.342040	0.238007
C79	C	0.803221	-0.328192	-0.423246
C80	C	1.136554	0.005141	-0.089912
C81	C	1.469888	0.338474	0.243421
C82	C	1.274266	-0.436009	-0.508214
C83	C	1.607600	-0.102676	-0.174881
C84	C	1.940933	0.230658	0.158453
C85	C	1.274299	-0.505976	-0.508226
C86	C	1.607632	-0.172643	-0.174893
C87	C	1.940966	0.160691	0.158440
C88	C	1.328467	-0.539049	-0.569103
C89	C	1.661800	-0.205716	-0.235770
C90	C	1.995133	0.127617	0.097564
C91	C	1.328497	-0.604791	-0.569127
C92	C	1.661830	-0.271458	-0.235794
C93	C	1.995164	0.061875	0.097540
C94	C	1.274370	-0.637457	-0.508259
C95	C	1.607703	-0.304124	-0.174926
C96	C	1.941037	0.029210	0.158408
C97	C	1.220191	-0.604376	-0.447378
C98	C	1.553525	-0.271043	-0.114044
C99	C	1.886858	0.062290	0.219289
C100	C	1.220156	-0.538636	-0.447361
C101	C	1.553489	-0.205303	-0.114028
C102	C	1.886822	0.128031	0.219305
N103	N	1.272122	-0.737628	-0.429178
N104	N	1.605455	-0.404295	-0.095845
N105	N	1.938789	-0.070962	0.237489
N106	N	1.272161	-0.800079	-0.429197
N107	N	1.605494	-0.466746	-0.095863
N108	N	1.938828	-0.133412	0.237470
C109	C	1.274473	-0.835530	-0.508306
C110	C	1.607806	-0.502196	-0.174972
C111	C	1.941139	-0.168863	0.158361
N112	N	1.276762	-0.806170	-0.587398
N113	N	1.610095	-0.472836	-0.254065
N114	N	1.943428	-0.139503	0.079268
N115	N	1.276727	-0.743713	-0.587379
N116	N	1.610061	-0.410380	-0.254046
N117	N	1.943394	-0.077046	0.079287
C118	C	1.274402	-0.708742	-0.508270
C119	C	1.607736	-0.375408	-0.174937
C120	C	1.941069	-0.042075	0.158396
C121	C	1.328676	-0.939888	-0.569213
C122	C	1.662010	-0.606555	-0.235880
C123	C	1.995343	-0.273221	0.097453
C124	C	1.328700	-1.005632	-0.569238
C125	C	1.662034	-0.672298	-0.235905
C126	C	1.995367	-0.338965	0.097428
C127	C	1.220400	-1.005215	-0.447481
C128	C	1.553733	-0.671881	-0.114148
C129	C	1.887067	-0.338548	0.219185
C130	C	1.220371	-0.939473	-0.447464
C131	C	1.553704	-0.606139	-0.114131
C132	C	1.887037	-0.272806	0.219203
C133	C	1.274514	-0.906813	-0.508329
C134	C	1.607847	-0.573480	-0.174996
C135	C	1.941180	-0.240146	0.158338
C136	C	1.508911	-0.263583	-0.521845
C137	C	1.842245	0.069750	-0.188512
C138	C	2.175578	0.403083	0.144821
C139	C	1.608855	-0.259803	-0.527632
C140	C	1.942189	0.073530	-0.194299
C141	C	2.275522	0.406864	0.139035
C142	C	1.260891	-0.282389	-0.742787
C143	C	1.594224	0.050944	-0.409454
C144	C	1.927557	0.384278	-0.076121
C145	C	1.255143	-0.286622	-0.842726
C146	C	1.588476	0.046711	-0.509393
C147	C	1.921810	0.380044	-0.176060
C148	C	1.274514	-0.108262	-0.508339
C149	C	1.607847	0.225071	-0.175006
C150	C	1.941181	0.558405	0.158327
C151	C	1.274572	-0.038293	-0.508371
C152	C	1.607905	0.295040	-0.175037
C153	C	1.941238	0.628374	0.158296
C154	C	1.359416	-0.209696	-1.037219
C155	C	1.692750	0.123637	-0.703886
C156	C	2.026083	0.456971	-0.370553
C157	C	1.354019	-0.213671	-1.131121
C158	C	1.687352	0.119662	-0.797788
C159	C	2.020685	0.452996	-0.464454
C160	C	1.238946	-0.298545	-1.124433
C161	C	1.572280	0.034789	-0.791100
C162	C	1.905613	0.368122	-0.457767
C163	C	1.244344	-0.294569	-1.030532
C164	C	1.577677	0.038764	-0.697198
C165	C	1.911011	0.372097	-0.363865
C166	C	1.304582	-0.250144	-0.986928
C167	C	1.637915	0.083189	-0.653595
C168	C	1.971249	0.416523	-0.320261
C169	C	1.309983	-0.246172	-0.893025
C170	C	1.643317	0.087161	-0.559691
C171	C	1.976650	0.420494	-0.226358
C172	C	1.194907	-0.331042	-0.886339
C173	C	1.528240	0.002291	-0.553005
C174	C	1.861574	0.335624	-0.219672
C175	C	1.189510	-0.335018	-0.980240
C176	C	1.522843	-0.001684	-0.646907
C177	C	1.856176	0.331649	-0.313574
C178	C	1.287865	-0.262512	-0.274660
C179	C	1.621198	0.070821	0.058673
C180	C	1.954532	0.404155	0.392007
C181	C	1.293787	-0.258095	-0.174732
C182	C	1.627120	0.075239	0.158602
C183	C	1.960454	0.408572	0.491935
H184	H	0.926138	-0.216914	-0.592992
H185	H	1.259472	0.116420	-0.259659
H186	H	1.592805	0.449753	0.073675
H187	H	1.372599	-0.631726	-0.618710
H188	H	1.705932	-0.298392	-0.285377
H189	H	2.039265	0.034941	0.047957
H190	H	1.176119	-0.630977	-0.397820
H191	H	1.509452	-0.297644	-0.064487
H192	H	1.842785	0.035690	0.268846
H193	H	1.372760	-0.913296	-0.618776
H194	H	1.706093	-0.579962	-0.285443
H195	H	2.039427	-0.246629	0.047891
H196	H	1.372810	-1.032559	-0.618815
H197	H	1.706143	-0.699226	-0.285482
H198	H	2.039477	-0.365892	0.047851
H199	H	0.782006	-0.184501	-0.642474
H200	H	1.115339	0.148832	-0.309140
H201	H	1.448672	0.482165	0.024193
H202	H	1.140464	-0.371186	-1.015755
H203	H	1.473797	-0.037853	-0.682422
H204	H	1.807131	0.295480	-0.349089
H205	H	1.176323	-1.031811	-0.397927
H206	H	1.509656	-0.698478	-0.064593
H207	H	1.842989	-0.365144	0.268740
H208	H	0.611647	-0.190964	-0.632644
H209	H	0.944980	0.142370	-0.299311
H210	H	1.278314	0.475703	0.034023
H211	H	0.767648	-0.360385	-0.374135
H212	H	1.100981	-0.027052	-0.040801
H213	H	1.434315	0.306282	0.292532
H214	H	1.150259	-0.363980	-0.845381
H215	H	1.483592	-0.030647	-0.512048
H216	H	1.816926	0.302687	-0.178715
H217	H	0.938032	-0.353927	-0.383965
H218	H	1.271365	-0.020594	-0.050632
H219	H	1.604699	0.312740	0.282701
H220	H	1.176266	-0.912543	-0.397889
H221	H	1.509600	-0.579209	-0.064556
H222	H	1.842933	-0.245876	0.268778
H223	H	1.372551	-0.512460	-0.618665
H224	H	1.705884	-0.179126	-0.285331
H225	H	2.039217	0.154207	0.048002
H226	H	1.176045	-0.511707	-0.397788
H227	H	1.509378	-0.178374	-0.064454
H228	H	1.842712	0.154960	0.268879
H229	H	0.623512	-0.327967	-0.423612
H230	H	0.956845	0.005366	-0.090279
H231	H	1.290178	0.338699	0.243055
H232	H	1.359033	-0.210000	-0.857524
H233	H	1.692367	0.123334	-0.524191
H234	H	2.025700	0.456667	-0.190858
H235	H	1.408469	-0.173526	-1.001717
H236	H	1.741802	0.159807	-0.668383
H237	H	2.075136	0.493141	-0.335050
H238	H	1.398668	-0.180732	-1.172065
H239	H	1.732002	0.152601	-0.838731
H240	H	2.065335	0.485934	-0.505398
H241	H	1.189903	-0.334713	-1.159952
H242	H	1.523237	-0.001380	-0.826619
H243	H	1.856570	0.331953	-0.493285
