data_functionalizedCrystal
_audit_creation_method	'MofGen! by Chris Wilmer'
_symmetry_space_group_name_H-M	'P1'
_symmetry_Int_Tables_number	1
_symmetry_cell_setting	triclinic
loop_
_symmetry_equiv_pos_as_xyz
  x,y,z
_cell_length_a	18.101398
_cell_length_b	18.101395
_cell_length_c	11.169406
_cell_angle_alpha	89.948400
_cell_angle_beta	89.974952
_cell_angle_gamma	90.026661
loop_
_atom_site_label
_atom_site_type_symbol
_atom_site_fract_x
_atom_site_fract_y
_atom_site_fract_z
Zn1	Zn	1.132233	-0.294741	-0.678326
Zn2	Zn	1.132096	-0.418642	-0.477631
Zn3	Zn	1.008359	-0.294809	-0.477681
Zn4	Zn	1.008342	-0.418536	-0.678297
O5	O	1.070257	-0.356682	-0.577984
O6	O	1.235847	-0.311193	-0.651695
O7	O	1.115631	-0.402288	-0.309688
O8	O	1.024855	-0.191167	-0.504330
O9	O	1.235747	-0.402222	-0.504245
O10	O	1.115865	-0.191117	-0.651743
O11	O	1.024722	-0.311309	-0.309724
O12	O	0.904724	-0.311206	-0.504302
O13	O	1.024827	-0.402041	-0.846251
O14	O	0.904712	-0.402107	-0.651693
O15	O	1.115849	-0.311090	-0.846272
O16	O	1.115615	-0.522261	-0.504217
O17	O	1.024694	-0.522183	-0.651645
C18	C	0.877847	-0.356653	-0.578000
C19	C	0.795533	-0.356658	-0.578036
C20	C	1.070158	-0.549093	-0.577948
C21	C	1.070184	-0.631407	-0.577973
C22	C	0.496442	-0.356702	-0.577986
C23	C	0.527784	-0.414171	-0.670263
C24	C	0.613403	-0.413991	-0.670642
C25	C	0.644824	-0.356681	-0.578011
C26	C	0.613776	-0.278669	-0.612572
C27	C	0.528131	-0.279014	-0.613228
C28	C	0.527968	-0.376556	-0.450926
C29	C	0.613618	-0.378268	-0.451604
C30	C	0.728684	-0.356664	-0.578023
C31	C	0.412582	-0.356713	-0.577977
C32	C	1.070346	-0.930498	-0.578038
C33	C	1.013274	-0.899154	-0.671026
C34	C	1.013003	-0.813536	-0.670735
C35	C	1.070266	-0.782115	-0.578007
C36	C	1.049115	-0.813298	-0.451524
C37	C	1.048748	-0.898943	-0.452080
C38	C	1.148693	-0.898839	-0.610420
C39	C	1.148233	-0.813187	-0.613194
C40	C	1.070221	-0.698256	-0.577982
C41	C	1.070389	-1.014357	-0.578055
C42	C	1.263419	-0.356712	-0.577968
C43	C	1.345733	-0.356724	-0.577961
C44	C	1.070352	-0.356546	-0.891026
C45	C	1.070392	-0.356488	-1.024427
C46	C	1.070377	-0.163520	-0.578045
C47	C	1.070428	-0.081206	-0.578072
C48	C	1.070206	-0.356764	-0.266159
C49	C	1.070309	-0.356613	-0.132759
H50	H	0.634394	-0.471840	-0.648982
H51	H	1.089376	-0.792949	-0.380352
H52	H	0.634129	-0.234688	-0.547458
H53	H	0.506289	-0.401199	-0.763862
H54	H	0.955555	-0.920742	-0.649848
N55	N	1.202051	-0.924270	-0.525486
N56	N	1.268166	-0.905238	-0.535320
H57	H	1.305846	-0.923202	-0.475334
N58	N	0.978031	-0.786486	-0.416462
N59	N	0.971348	-0.748934	-0.323226
H60	H	0.921143	-0.729999	-0.298466
H61	H	0.507398	-0.234659	-0.549099
H62	H	1.026378	-0.919678	-0.765116
H63	H	1.164182	-0.792801	-0.706279
N64	N	0.501903	-0.486975	-0.643400
N65	N	0.460053	-0.497359	-0.555937
H66	H	0.441765	-0.548778	-0.536967
N67	N	0.639137	-0.397509	-0.788748
N68	N	0.593844	-0.386097	-0.871151
H69	H	0.612018	-0.374455	-0.954570
N70	N	1.172874	-0.925850	-0.724147
N71	N	1.132651	-0.968768	-0.782719
H72	H	1.149721	-0.987848	-0.863042
N73	N	1.204412	-0.786369	-0.534427
N74	N	1.270094	-0.805579	-0.549317
H75	H	1.309771	-0.786640	-0.493679
H76	H	0.954930	-0.793114	-0.649287
H77	H	0.508185	-0.262178	-0.706114
N78	N	0.640727	-0.257172	-0.727828
N79	N	0.682792	-0.299171	-0.784715
H80	H	0.701827	-0.283992	-0.866117
H81	H	0.506349	-0.432471	-0.419517
H82	H	0.991476	-0.918989	-0.424647
H83	H	0.635006	-0.339452	-0.379159
N84	N	0.639072	-0.450290	-0.418927
N85	N	0.680045	-0.485630	-0.488410
H86	H	0.698026	-0.536497	-0.465337
H87	H	0.507698	-0.334696	-0.382171
H88	H	1.026237	-0.792449	-0.764522
H89	H	1.088512	-0.919682	-0.380435
