data_functionalizedCrystal
_audit_creation_method	'MofGen! by Chris Wilmer'
_symmetry_space_group_name_H-M	'P1'
_symmetry_Int_Tables_number	1
_symmetry_cell_setting	triclinic
loop_
_symmetry_equiv_pos_as_xyz
  x,y,z
_cell_length_a	12.827893
_cell_length_b	16.625545
_cell_length_c	12.827885
_cell_angle_alpha	90.033025
_cell_angle_beta	90.019462
_cell_angle_gamma	90.025528
loop_
_atom_site_label
_atom_site_type_symbol
_atom_site_fract_x
_atom_site_fract_y
_atom_site_fract_z
Zn1	Zn	1.597598	-0.320962	0.590827
Zn2	Zn	1.597460	-0.455816	0.416078
Zn3	Zn	1.422839	-0.321001	0.416100
Zn4	Zn	1.422793	-0.455756	0.590777
O5	O	1.510172	-0.388384	0.503445
O6	O	1.743816	-0.338859	0.567657
O7	O	1.574258	-0.437975	0.269844
O8	O	1.446097	-0.208164	0.439308
O9	O	1.743715	-0.437936	0.439269
O10	O	1.574492	-0.208135	0.567679
O11	O	1.445964	-0.338927	0.269861
O12	O	1.276597	-0.338868	0.439260
O13	O	1.446020	-0.437833	0.737020
O14	O	1.276563	-0.437872	0.567595
O15	O	1.574448	-0.338801	0.737056
O16	O	1.574214	-0.568641	0.439222
O17	O	1.445887	-0.568596	0.567573
C18	C	1.238663	-0.388368	0.503426
C19	C	1.122509	-0.388381	0.503442
C20	C	0.950669	-0.339340	0.440069
C21	C	1.070720	-0.339326	0.440050
C22	C	1.510059	-0.597875	0.503413
C23	C	1.510106	-0.687496	0.503433
C24	C	1.510147	-0.760278	0.503454
C25	C	1.510207	-0.851587	0.503477
C26	C	1.510262	-0.924363	0.503490
C27	C	1.510321	-1.015677	0.503512
C28	C	1.782743	-0.388400	0.503466
C29	C	1.898896	-0.388407	0.503475
C30	C	1.510245	-0.388306	0.776016
C31	C	1.510275	-0.388272	0.892169
C32	C	1.510315	-0.178075	0.503501
C33	C	1.510376	-0.088454	0.503525
C34	C	1.510161	-0.388404	0.231935
C35	C	1.510333	-0.388210	0.115783
C36	C	1.446745	-0.437257	0.943936
C37	C	1.446776	-0.437224	1.063986
H38	H	1.392337	-0.479222	0.899379
O39	O	0.897368	-0.289306	0.375360
C40	C	0.789370	-0.300446	0.389801
H41	H	0.774559	-0.362716	0.423894
H42	H	0.747774	-0.294932	0.311585
H43	H	0.758446	-0.252698	0.445601
O44	O	1.123943	-0.289321	0.375234
C45	C	1.187007	-0.335205	0.307664
H46	H	1.203244	-0.396353	0.344394
H47	H	1.263810	-0.302396	0.293791
H48	H	1.144964	-0.343968	0.230170
H49	H	1.392379	-0.479156	1.108505
O50	O	1.575260	-0.338097	1.062850
C51	C	1.634381	-0.292534	1.134328
H52	H	1.591671	-0.289664	1.212157
H53	H	1.645536	-0.229037	1.102730
H54	H	1.713740	-0.322056	1.145895
H55	H	1.564691	-0.346313	0.936726
H56	H	0.943447	-0.430400	0.557750
O57	O	1.069522	-0.438459	0.568356
C58	C	1.096153	-0.420931	0.672570
H59	H	1.175441	-0.389984	0.674865
H60	H	1.099775	-0.479166	0.719303
H61	H	1.034780	-0.379471	0.707811
