data_functionalizedCrystal
_audit_creation_method	'MofGen! by Chris Wilmer'
_symmetry_space_group_name_H-M	'P1'
_symmetry_Int_Tables_number	1
_symmetry_cell_setting	triclinic
loop_
_symmetry_equiv_pos_as_xyz
  x,y,z
_cell_length_a	6.817900
_cell_length_b	8.749629
_cell_length_c	16.015572
_cell_angle_alpha	76.921076
_cell_angle_beta	104.485554
_cell_angle_gamma	105.181975
loop_
_atom_site_label
_atom_site_type_symbol
_atom_site_fract_x
_atom_site_fract_y
_atom_site_fract_z
V1	V	-3.993896	-0.063975	-0.269065
O2	O	-3.973961	0.163063	-0.265100
O3	O	-3.953404	-0.280723	-0.266112
O4	O	-3.927619	0.007209	-0.386921
O5	O	-3.999924	-0.126863	-0.143455
V6	V	-4.478816	-0.045114	-0.254176
O7	O	-4.252091	-0.105350	-0.301725
O8	O	-4.670819	-0.003739	-0.221516
O9	O	-4.296102	0.171634	-0.257129
O10	O	-4.616148	-0.272151	-0.258141
O11	O	-4.590185	0.017774	-0.379787
O12	O	-4.321887	-0.116298	-0.136320
C13	C	-3.800907	-0.335755	-0.261580
C14	C	-3.848967	-0.512497	-0.259951
C15	C	-3.768015	0.031532	-0.415684
C16	C	-3.795162	0.088299	-0.512024
C17	C	-4.102178	-0.415562	-0.887075
C18	C	-4.127689	-0.362169	-0.977598
C19	C	-4.040624	-0.085934	-0.954307
C20	C	-4.015094	-0.139304	-0.863780
C21	C	-4.045878	-0.304119	-0.830172
C22	C	-3.958794	-0.027861	-0.806876
C23	C	-3.933278	-0.081227	-0.716358
C24	C	-3.964062	-0.246036	-0.682742
C25	C	-4.020362	-0.357485	-0.739653
C26	C	-3.928026	0.136953	-0.840487
C27	C	-3.871726	0.248396	-0.783583
C28	C	-3.846194	0.195031	-0.693062
C29	C	-3.876979	0.030223	-0.659447
C30	C	-3.789895	0.306481	-0.636152
C31	C	-3.764379	0.253115	-0.545633
C32	C	-3.851462	-0.023144	-0.568928
C33	C	-4.111942	0.226656	-0.261659
C34	C	-4.043119	0.403400	-0.263294
C35	C	-4.144834	-0.140629	-0.107553
C36	C	-4.096925	-0.197388	-0.011212
H37	H	-4.172584	-0.533381	-0.267409
H38	H	-4.173528	-0.452932	-1.023928
H39	H	-4.045401	-0.491694	-0.712287
H40	H	-3.719512	-0.575705	-0.255845
C41	C	-3.885312	-0.204443	-0.531947
C42	C	-4.097853	-0.316194	-0.558152
C43	C	-4.131702	-0.497483	-0.521168
C44	C	-3.953011	-0.567021	-0.457979
C45	C	-3.740455	-0.455269	-0.431770
C46	C	-3.706606	-0.273980	-0.468754
H47	H	-4.230144	-0.264719	-0.604932
H48	H	-4.289051	-0.580209	-0.540570
H49	H	-3.978068	-0.701222	-0.430601
H50	H	-3.608164	-0.506744	-0.384990
H51	H	-3.549257	-0.191253	-0.449352
H52	H	-3.943289	-0.289484	-0.609036
C53	C	-4.006759	0.095357	-0.991282
C54	C	-3.794206	0.207089	-0.965071
C55	C	-3.760333	0.388383	-1.002045
C56	C	-3.939012	0.457944	-1.065229
C57	C	-4.151579	0.346211	-1.091443
C58	C	-4.185453	0.164917	-1.054470
H59	H	-3.661924	0.155597	-0.918296
H60	H	-3.602975	0.471095	-0.982639
H61	H	-3.913936	0.592149	-1.092599
H62	H	-4.283861	0.397703	-1.138219
H63	H	-4.342810	0.082204	-1.073876
H64	H	-4.127218	-0.549770	-0.859709
H65	H	-3.948774	0.180400	-0.914193
H66	H	-3.846675	0.382590	-0.810960
H67	H	-3.764857	0.440673	-0.663530
H68	H	-3.718535	0.343863	-0.499300
