data_functionalizedCrystal
_audit_creation_method	'MofGen! by Chris Wilmer'
_symmetry_space_group_name_H-M	'P1'
_symmetry_Int_Tables_number	1
_symmetry_cell_setting	triclinic
loop_
_symmetry_equiv_pos_as_xyz
  x,y,z
_cell_length_a	18.215407
_cell_length_b	12.759394
_cell_length_c	18.215399
_cell_angle_alpha	90.023582
_cell_angle_beta	90.017813
_cell_angle_gamma	90.008369
loop_
_atom_site_label
_atom_site_type_symbol
_atom_site_fract_x
_atom_site_fract_y
_atom_site_fract_z
Zn1	Zn	1.125128	-0.418431	0.416099
Zn2	Zn	1.625128	0.081569	0.916099
Zn3	Zn	1.125060	-0.594129	0.293042
Zn4	Zn	1.625060	-0.094129	0.793042
Zn5	Zn	1.002061	-0.418447	0.293050
Zn6	Zn	1.502061	0.081553	0.793050
Zn7	Zn	1.002050	-0.594052	0.416071
Zn8	Zn	1.502050	-0.094052	0.916071
O9	O	1.063575	-0.506265	0.354565
O10	O	1.563575	-0.006265	0.854565
O11	O	1.228104	-0.441763	0.399783
O12	O	1.728104	0.058237	0.899783
O13	O	1.108720	-0.570863	0.190058
O14	O	1.608720	-0.070863	0.690058
O15	O	1.018419	-0.271424	0.309388
O16	O	1.518419	0.228576	0.809388
O17	O	1.228054	-0.570847	0.309373
O18	O	1.728054	-0.070847	0.809373
O19	O	1.108836	-0.271412	0.399791
O20	O	1.608836	0.228588	0.899791
O21	O	1.018353	-0.441791	0.190065
O22	O	1.518353	0.058209	0.690065
O23	O	0.899075	-0.441716	0.309361
O24	O	1.399075	0.058284	0.809361
O25	O	1.018401	-0.570717	0.519059
O26	O	1.518401	-0.070717	1.019059
O27	O	0.899068	-0.570732	0.399744
O28	O	1.399068	-0.070732	0.899744
O29	O	1.108826	-0.441689	0.519079
O30	O	1.608826	0.058311	1.019079
O31	O	1.108710	-0.741139	0.309347
O32	O	1.608710	-0.241139	0.809347
O33	O	1.018335	-0.741083	0.399736
O34	O	1.518335	-0.241083	0.899736
C35	C	0.872369	-0.506218	0.354551
C36	C	1.372369	-0.006218	0.854551
C37	C	0.790570	-0.506224	0.354562
C38	C	1.290570	-0.006224	0.854562
C39	C	0.525533	-0.439180	0.401716
C40	C	1.025533	0.060820	0.901716
C41	C	0.602391	-0.439163	0.401714
C42	C	1.102391	0.060837	0.901714
C43	C	0.602359	-0.573383	0.307430
C44	C	1.102359	-0.073383	0.807430
C45	C	0.525501	-0.573405	0.307437
C46	C	1.025501	-0.073405	0.807437
C47	C	0.487090	-0.506297	0.354579
C48	C	0.987090	-0.006297	0.854579
C49	C	0.640806	-0.506259	0.354570
C50	C	1.140806	-0.006259	0.854570
C51	C	0.724140	-0.506241	0.354567
C52	C	1.224140	-0.006241	0.854567
C53	C	0.403751	-0.506316	0.354583
C54	C	0.903751	-0.006316	0.854583
C55	C	1.063534	-0.779232	0.354553
C56	C	1.563534	-0.279232	0.854553
C57	C	1.063584	-0.896009	0.354573
C58	C	1.563584	-0.396009	0.854573
C59	C	1.157665	-0.895838	0.448780
C60	C	1.657665	-0.395838	0.948780
C61	C	1.204728	-0.950614	0.495889
C62	C	1.704728	-0.450614	0.995889
C63	C	1.204772	-1.060335	0.495905
C64	C	1.704772	-0.560335	0.995905
C65	C	1.157746	-1.115284	0.448808
C66	C	1.657746	-0.615284	0.948808
C67	C	1.110682	-1.060508	0.401699
C68	C	1.610682	-0.560508	0.901699
C69	C	1.110645	-0.950784	0.401687
C70	C	1.610645	-0.450784	0.901687
C71	C	1.016599	-1.060679	0.307496
C72	C	1.516599	-0.560679	0.807496
C73	C	1.016557	-0.950957	0.307476
C74	C	1.516557	-0.450957	0.807476
C75	C	0.969572	-1.115628	0.260400
C76	C	1.469572	-0.615628	0.760400
C77	C	0.922511	-1.060852	0.213286
C78	C	1.422511	-0.560852	0.713286
C79	C	0.922470	-0.951124	0.213271
C80	C	1.422470	-0.451124	0.713271
C81	C	0.969494	-0.896182	0.260367
C82	C	1.469494	-0.396182	0.760367
C83	C	1.255528	-0.506312	0.354580
C84	C	1.755528	-0.006312	0.854580
C85	C	1.337327	-0.506332	0.354586
C86	C	1.837327	-0.006332	0.854586
C87	C	1.063620	-0.506192	0.546518
C88	C	1.563620	-0.006192	1.046518
C89	C	1.063639	-0.506161	0.628317
C90	C	1.563639	-0.006161	1.128317
C91	C	1.063636	-0.232231	0.354594
C92	C	1.563636	0.267769	0.854594
C93	C	1.063662	-0.115455	0.354606
C94	C	1.563662	0.384545	0.854606
C95	C	1.063573	-0.506261	0.163359
C96	C	1.563573	-0.006261	0.663359
C97	C	1.063696	-0.505996	0.081561
C98	C	1.563696	-0.005996	0.581561
C99	C	1.110740	-0.438914	0.816523
C100	C	1.610740	0.061086	1.316523
C101	C	1.110749	-0.438883	0.893382
C102	C	1.610749	0.061117	1.393382
C103	C	1.016590	-0.573247	0.893349
C104	C	1.516590	-0.073247	1.393349
C105	C	1.016578	-0.573271	0.816492
C106	C	1.516578	-0.073271	1.316492
C107	C	1.063657	-0.506106	0.778081
C108	C	1.563657	-0.006106	1.278081
C109	C	1.063678	-0.506051	0.931797
C110	C	1.563678	-0.006051	1.431797
C111	C	1.063687	-0.506018	1.015131
C112	C	1.563687	-0.006018	1.515131
C113	C	1.063647	-0.506137	0.694742
C114	C	1.563647	-0.006137	1.194742
H115	H	0.494261	-0.384536	0.440102
H116	H	0.994261	0.115464	0.940102
H117	H	0.494201	-0.628066	0.269051
H118	H	0.994201	-0.128066	0.769051
C119	C	1.162545	-0.364968	0.935665
C120	C	1.662545	0.135032	1.435665
N121	N	1.201561	-0.309293	0.967512
N122	N	1.701561	0.190707	1.467512
C123	C	1.256457	-0.890163	0.547691
C124	C	1.756457	-0.390163	1.047691
N125	N	1.295420	-0.844633	0.586708
N126	N	1.795420	-0.344633	1.086708
H127	H	0.884222	-1.105600	0.174947
H128	H	1.384222	-0.605600	0.674947
C129	C	0.964804	-0.647122	0.935609
C130	C	1.464804	-0.147122	1.435609
N131	N	0.925798	-0.702766	0.967438
N132	N	1.425798	-0.202766	1.467438
C133	C	1.157626	-0.775142	0.448762
C134	C	1.657626	-0.275142	0.948762
N135	N	1.157598	-0.684231	0.448750
N136	N	1.657598	-0.184231	0.948750
C137	C	0.964778	-0.647189	0.774203
C138	C	1.464778	-0.147189	1.274203
N139	N	0.925762	-0.702858	0.742351
N140	N	1.425762	-0.202858	1.242351
H141	H	1.149073	-0.384221	0.785251
H142	H	1.649073	0.115779	1.285251
H143	H	0.969608	-1.204969	0.260419
H144	H	1.469608	-0.704969	0.760419
H145	H	0.884142	-0.906531	0.174912
H146	H	1.384142	-0.406531	0.674912
C147	C	0.644618	-0.647185	0.255568
C148	C	1.144618	-0.147185	0.755568
N149	N	0.676447	-0.702769	0.216501
N150	N	1.176447	-0.202769	0.716501
C151	C	0.644675	-0.365323	0.453566
C152	C	1.144675	0.134677	0.953566
N153	N	0.676522	-0.309703	0.492622
N154	N	1.176522	0.190297	0.992622
H155	H	1.243088	-1.104933	0.534273
H156	H	1.743088	-0.604933	1.034273
H157	H	0.969468	-0.806841	0.260356
H158	H	1.469468	-0.306841	0.760356
H159	H	1.157779	-1.204625	0.448831
H160	H	1.657779	-0.704625	0.948831
