data_functionalizedCrystal
_audit_creation_method	'MofGen! by Chris Wilmer'
_symmetry_space_group_name_H-M	'P1'
_symmetry_Int_Tables_number	1
_symmetry_cell_setting	triclinic
loop_
_symmetry_equiv_pos_as_xyz
  x,y,z
_cell_length_a	9.016244
_cell_length_b	10.540558
_cell_length_c	10.540539
_cell_angle_alpha	95.470686
_cell_angle_beta	89.995353
_cell_angle_gamma	90.001057
loop_
_atom_site_label
_atom_site_type_symbol
_atom_site_fract_x
_atom_site_fract_y
_atom_site_fract_z
O1	O	-0.123289	-1.685869	0.179018
O2	O	-0.123301	-1.316459	0.195849
O3	O	-0.123293	-1.509592	0.002727
O4	O	-0.123297	-1.492736	0.372139
O5	O	0.123388	-1.509584	0.002713
O6	O	0.123380	-1.316451	0.195834
O7	O	0.123392	-1.685861	0.179003
Cu8	Cu	0.145910	-1.501155	0.187417
Cu9	Cu	-0.145819	-1.501165	0.187434
O10	O	0.123384	-1.492728	0.372125
C11	C	0.000038	-1.269152	0.194574
C12	C	0.000033	-1.128206	0.190783
N13	N	0.351096	-1.501158	0.187405
C14	C	0.000614	-0.944780	0.045853
C15	C	0.000040	-1.091397	0.049697
C16	C	-0.140828	-1.066538	0.258682
C17	C	-0.140928	-0.919995	0.253857
C18	C	0.139594	-0.919497	0.256711
C19	C	0.141438	-1.066478	0.258020
N20	N	-0.351005	-1.501172	0.187437
C21	C	0.586087	-1.604857	0.084453
C22	C	0.414196	-1.604577	0.084061
C23	C	0.413517	-1.368454	0.157265
C24	C	0.585462	-1.369070	0.156542
C25	C	0.585599	-1.529000	0.320854
C26	C	0.413644	-1.531995	0.319983
C27	C	0.000045	-1.508324	-0.044583
C28	C	0.000037	-1.504542	-0.185531
C29	C	0.000054	-0.733170	0.180261
C30	C	0.000060	-0.874123	0.184002
C31	C	-0.000521	-1.359626	-0.368968
C32	C	0.000034	-1.363460	-0.222350
C33	C	0.140906	-1.572432	-0.247193
C34	C	0.141025	-1.567617	-0.393738
C35	C	-0.139498	-1.570496	-0.394239
C36	C	-0.141360	-1.571796	-0.247257
C37	C	0.000043	-1.493996	0.419435
C38	C	0.000041	-1.497778	0.560383
H39	H	0.101016	-1.134007	-0.003729
C40	C	0.140895	-0.855702	0.394367
H41	H	0.225454	-0.883498	0.437823
H42	H	0.144523	-0.765767	0.393065
H43	H	0.053503	-0.878503	0.437142
H44	H	-0.246267	-1.524838	-0.425789
C45	C	-0.136984	-1.284330	-0.407592
H46	H	-0.135253	-1.201230	-0.363911
H47	H	-0.135120	-1.278206	-0.496909
H48	H	-0.224781	-1.327096	-0.385762
C49	C	0.357165	-1.737776	0.108557
H50	H	0.251796	-1.737781	0.108357
H51	H	0.392453	-1.798884	0.043479
H52	H	0.392051	-1.758832	0.188969
H53	H	0.372646	-1.289388	0.230221
H54	H	0.626289	-1.453405	0.397507
C55	C	-0.147928	-1.096740	0.398645
H56	H	-0.064854	-1.147353	0.416956
H57	H	-0.146616	-1.019482	0.452980
H58	H	-0.236692	-1.142045	0.412340
C59	C	0.355642	-1.436698	0.428484
H60	H	0.292245	-1.376584	0.394194
H61	H	0.301927	-1.481270	0.487817
H62	H	0.436985	-1.393420	0.470363
H63	H	0.147418	-1.669082	-0.441700
H64	H	0.099929	-1.304119	-0.399185
H65	H	-0.101110	-1.133146	-0.004094
H66	H	0.146147	-1.676039	-0.224832
C67	C	-0.136365	-1.291278	-0.164784
H68	H	-0.192612	-1.259337	-0.231001
H69	H	-0.195967	-1.347605	-0.121377
H70	H	-0.104654	-1.222330	-0.106475
C71	C	0.641690	-1.261394	0.253660
H72	H	0.559443	-1.217485	0.293399
H73	H	0.700326	-1.296593	0.316471
H74	H	0.699969	-1.203586	0.210932
C75	C	-0.140789	-1.708151	-0.458036
H76	H	-0.056753	-1.721295	-0.512070
H77	H	-0.137698	-1.766075	-0.394347
H78	H	-0.228704	-1.721993	-0.507078
H79	H	-0.147322	-0.872026	0.355320
C80	C	0.358637	-1.580374	-0.049656
H81	H	0.441154	-1.570662	-0.103946
H82	H	0.300130	-1.650547	-0.083505
H83	H	0.300369	-1.504954	-0.044014
H84	H	-0.245660	-1.109130	0.211527
C85	C	-0.152850	-1.710753	-0.214538
H86	H	-0.071193	-1.729659	-0.162580
H87	H	-0.242757	-1.721914	-0.169944
H88	H	-0.151651	-1.766423	-0.290916
C89	C	0.136669	-1.290785	-0.165938
H90	H	0.137467	-1.292870	-0.076032
H91	H	0.224298	-1.329821	-0.201184
H92	H	0.132522	-1.204812	-0.185781
C93	C	0.137079	-0.906154	-0.029455
H94	H	0.194938	-0.846582	0.022672
H95	H	0.195075	-0.979578	-0.054308
H96	H	0.105409	-0.868439	-0.103187
C97	C	0.641930	-1.738514	0.108567
H98	H	0.704121	-1.732286	0.181650
H99	H	0.559653	-1.791808	0.122316
H100	H	0.696505	-1.773900	0.036610
C101	C	0.283836	-0.876880	0.195024
H102	H	0.260305	-0.831014	0.124339
H103	H	0.338833	-0.823655	0.255787
H104	H	0.341344	-0.949689	0.166859
C105	C	-0.135081	-0.903977	-0.029127
H106	H	-0.192074	-0.844071	0.023396
H107	H	-0.102682	-0.866103	-0.102541
H108	H	-0.194222	-0.976588	-0.054471
C109	C	0.282522	-1.508706	-0.189680
H110	H	0.256101	-1.440737	-0.128107
H111	H	0.339522	-1.569682	-0.150106
H112	H	0.339297	-1.476354	-0.255356
H113	H	0.629314	-1.587207	-0.013969
C114	C	-0.283160	-0.881884	0.186065
H115	H	-0.340332	-0.955932	0.161721
H116	H	-0.339477	-0.824827	0.242256
H117	H	-0.257413	-0.841403	0.112371
C118	C	0.639670	-1.336195	0.025050
H119	H	0.556607	-1.322596	-0.027427
H120	H	0.698358	-1.261062	0.035067
H121	H	0.697465	-1.404666	-0.013628
H122	H	0.370469	-1.343543	0.061025
H123	H	-0.245571	-1.522121	-0.206396
C124	C	0.644162	-1.657018	0.359591
H125	H	0.707828	-1.694697	0.294748
H126	H	0.697707	-1.642890	0.437264
H127	H	0.563073	-1.712460	0.370625
H128	H	0.245647	-1.107436	0.208417
H129	H	0.149942	-1.090704	0.360880
H130	H	0.372847	-1.629623	0.342826
H131	H	0.246324	-1.517436	-0.421947
