data_functionalizedCrystal
_audit_creation_method	'MofGen! by Chris Wilmer'
_symmetry_space_group_name_H-M	'P1'
_symmetry_Int_Tables_number	1
_symmetry_cell_setting	triclinic
loop_
_symmetry_equiv_pos_as_xyz
  x,y,z
_cell_length_a	19.077105
_cell_length_b	29.839131
_cell_length_c	19.077569
_cell_angle_alpha	92.326321
_cell_angle_beta	94.700723
_cell_angle_gamma	87.737628
loop_
_atom_site_label
_atom_site_type_symbol
_atom_site_fract_x
_atom_site_fract_y
_atom_site_fract_z
Zn1	Zn	1.093625	-0.195626	0.441828
Zn2	Zn	1.593625	0.304374	0.941828
Zn3	Zn	1.088771	-0.273652	0.323930
Zn4	Zn	1.588771	0.226348	0.823930
Zn5	Zn	0.971007	-0.195633	0.319224
Zn6	Zn	1.471007	0.304367	0.819224
Zn7	Zn	0.975670	-0.267822	0.437050
Zn8	Zn	1.475670	0.232178	0.937050
O9	O	1.032268	-0.233183	0.380508
O10	O	1.532268	0.266817	0.880508
O11	O	1.191630	-0.208413	0.430158
O12	O	1.691630	0.291587	0.930158
O13	O	1.069167	-0.265745	0.224654
O14	O	1.569167	0.234255	0.724654
O15	O	0.987353	-0.132766	0.335518
O16	O	1.487353	0.367234	0.835518
O17	O	1.188064	-0.265739	0.343538
O18	O	1.688064	0.234261	0.843538
O19	O	1.077440	-0.132761	0.425595
O20	O	1.577440	0.367239	0.925595
O21	O	0.982646	-0.208424	0.221196
O22	O	1.482646	0.291576	0.721196
O23	O	0.872977	-0.202772	0.330885
O24	O	1.372977	0.297228	0.830885
O25	O	0.995300	-0.255803	0.536336
O26	O	1.495300	0.244197	1.036336
O27	O	0.876403	-0.255809	0.417451
O28	O	1.376403	0.244191	0.917451
O29	O	1.081961	-0.202761	0.539846
O30	O	1.581961	0.297239	1.039846
O31	O	1.073688	-0.335745	0.338905
O32	O	1.573688	0.164255	0.838905
O33	O	0.990593	-0.331462	0.422014
O34	O	1.490593	0.168538	0.922014
C35	C	0.849111	-0.228659	0.373139
C36	C	1.349111	0.271341	0.873139
C37	C	0.770756	-0.226734	0.370003
C38	C	1.270756	0.273266	0.870003
C39	C	0.735744	-0.253488	0.413530
C40	C	1.235744	0.246512	0.913530
C41	C	0.662122	-0.251674	0.410587
C42	C	1.162122	0.248326	0.910587
C43	C	0.623512	-0.223106	0.364113
C44	C	1.123512	0.276894	0.864113
C45	C	0.658529	-0.196349	0.320585
C46	C	1.158529	0.303651	0.820585
C47	C	0.732151	-0.198162	0.323532
C48	C	1.232151	0.301838	0.823532
C49	C	0.403135	-0.214716	0.350478
C50	C	0.903135	0.285284	0.850478
C51	C	0.329509	-0.212907	0.347532
C52	C	0.829509	0.287093	0.847532
C53	C	0.333106	-0.268231	0.437535
C54	C	0.833106	0.231769	0.937535
C55	C	0.406728	-0.270043	0.440475
C56	C	0.906728	0.229957	0.940475
C57	C	0.441739	-0.243284	0.396950
C58	C	0.941739	0.256716	0.896950
N59	N	0.548258	-0.221252	0.361103
N60	N	1.048258	0.278748	0.861103
N61	N	0.516992	-0.245137	0.399965
N62	N	1.016992	0.254863	0.899965
C63	C	1.032140	-0.349904	0.380468
C64	C	1.532140	0.150096	0.880468
C65	C	1.032150	-0.399838	0.380477
C66	C	1.532150	0.100162	0.880477
C67	C	1.075620	-0.711701	0.337302
C68	C	1.575620	-0.211701	0.837302
C69	C	1.075709	-0.899376	0.337333
C70	C	1.575709	-0.399376	0.837333
O71	O	1.112566	-0.925527	0.300594
O72	O	1.612566	-0.425527	0.800594
N73	N	1.032417	-0.920628	0.380567
N74	N	1.532417	-0.420628	0.880567
C75	C	0.989103	-0.894957	0.423800
C76	C	1.489103	-0.394957	0.923800
O77	O	0.952288	-0.917340	0.460579
O78	O	1.452288	-0.417340	0.960579
C79	C	0.989019	-0.707284	0.423772
C80	C	1.489019	-0.207284	0.923772
C81	C	1.032309	-0.686035	0.380530
C82	C	1.532309	-0.186035	0.880530
C83	C	1.118907	-0.690452	0.294064
C84	C	1.618907	-0.190452	0.794064
C85	C	1.118882	-0.643536	0.294054
C86	C	1.618882	-0.143536	0.794054
C87	C	1.075570	-0.617870	0.337282
C88	C	1.575570	-0.117870	0.837282
C89	C	1.032283	-0.639119	0.380520
C90	C	1.532283	-0.139119	0.880520
C91	C	0.945710	-0.681615	0.467008
C92	C	1.445710	-0.181615	0.967008
C93	C	0.945694	-0.634693	0.466998
C94	C	1.445694	-0.134693	0.966998
C95	C	0.988984	-0.613444	0.423757
C96	C	1.488984	-0.113444	0.923757
C97	C	0.988946	-0.566537	0.423738
C98	C	1.488946	-0.066537	0.923738
N99	N	1.032238	-0.545285	0.380504
N100	N	1.532238	-0.045285	0.880504
C101	C	1.075550	-0.570952	0.337276
C102	C	1.575550	-0.070952	0.837276
C103	C	0.989149	-0.993489	0.423810
C104	C	1.489149	-0.493489	0.923810
C105	C	0.989169	-1.040407	0.423816
C106	C	1.489169	-0.540407	0.923816
C107	C	1.075776	-1.044822	0.337351
C108	C	1.575776	-0.544822	0.837351
C109	C	1.075752	-0.997903	0.337341
C110	C	1.575752	-0.497903	0.837341
C111	C	1.032441	-0.972237	0.380576
C112	C	1.532441	-0.472237	0.880576
C113	C	1.075493	-0.472425	0.337258
C114	C	1.575493	0.027575	0.837258
C115	C	1.075462	-0.425505	0.337249
C116	C	1.575462	0.074495	0.837249
C117	C	0.988858	-0.421093	0.423717
C118	C	1.488858	0.078907	0.923717
C119	C	0.988887	-0.468010	0.423723
C120	C	1.488887	0.031990	0.923723
C121	C	1.032210	-0.493674	0.380491
C122	C	1.532210	0.006326	0.880491
O123	O	0.952114	-0.540358	0.460464
O124	O	1.452114	-0.040358	0.960464
O125	O	1.112371	-0.548561	0.300514
O126	O	1.612371	-0.048561	0.800514
C127	C	1.075646	-0.758617	0.337312
C128	C	1.575646	-0.258617	0.837312
C129	C	1.032359	-0.779867	0.380550
C130	C	1.532359	-0.279867	0.880550
C131	C	0.989047	-0.754200	0.423778
C132	C	1.489047	-0.254200	0.923778
C133	C	1.032379	-0.826785	0.380556
C134	C	1.532379	-0.326785	0.880556
C135	C	1.075691	-0.852451	0.337329
C136	C	1.575691	-0.352451	0.837329
C137	C	1.118983	-0.831200	0.294095
C138	C	1.618983	-0.331200	0.794095
C139	C	1.118957	-0.784284	0.294085
C140	C	1.618957	-0.284284	0.794085
C141	C	0.945756	-0.775451	0.467012
C142	C	1.445756	-0.275451	0.967012
C143	C	0.945784	-0.822368	0.467018
C144	C	1.445784	-0.322368	0.967018
C145	C	0.989096	-0.848034	0.423790
C146	C	1.489096	-0.348034	0.923790
C147	C	1.216141	-0.237725	0.387906
C148	C	1.716141	0.262275	0.887906
C149	C	1.294496	-0.239661	0.391059
C150	C	1.794496	0.260339	0.891059
C151	C	1.039692	-0.228631	0.564385
C152	C	1.539692	0.271369	1.064385
C153	C	1.042856	-0.226691	0.642743
C154	C	1.542856	0.273309	1.142743
C155	C	1.032417	-0.116007	0.380564
C156	C	1.532417	0.383993	0.880564
C157	C	1.032481	-0.066074	0.380589
C158	C	1.532481	0.433926	0.880589
C159	C	1.024914	-0.237686	0.197348
C160	C	1.524914	0.262314	0.697348
C161	C	1.021887	-0.239503	0.118996
C162	C	1.521887	0.260497	0.618996
C163	C	0.999223	-0.253394	0.677729
C164	C	1.499223	0.246606	1.177729
C165	C	1.002202	-0.251571	0.751354
C166	C	1.502202	0.248429	1.251354
C167	C	1.048809	-0.223043	0.789993
C168	C	1.548809	0.276957	1.289993
C169	C	1.092447	-0.196339	0.755002
C170	C	1.592447	0.303661	1.255002
C171	C	1.089471	-0.198164	0.681378
C172	C	1.589471	0.301836	1.181378
C173	C	1.062549	-0.214625	1.010381
C174	C	1.562549	0.285375	1.510381
C175	C	1.065520	-0.212800	1.084010
C176	C	1.565520	0.287200	1.584010
C177	C	0.975275	-0.268033	1.080358
C178	C	1.475275	0.231967	1.580358
C179	C	0.972301	-0.269854	1.006732
C180	C	1.472301	0.230146	1.506732
C181	C	1.015941	-0.243152	0.971748
C182	C	1.515941	0.256848	1.471748
N183	N	1.051853	-0.221178	0.865250
N184	N	1.551853	0.278822	1.365250
N185	N	1.012900	-0.245019	0.896492
N186	N	1.512900	0.254981	1.396492
H187	H	0.627088	-0.173087	0.282749
H188	H	1.127088	0.326913	0.782749
H189	H	0.633618	-0.273460	0.446030
H190	H	1.133618	0.226540	0.946030
H191	H	0.438159	-0.293307	0.478317
H192	H	0.938159	0.206693	0.978317
H193	H	0.304592	-0.290016	0.472972
H194	H	0.804592	0.209984	0.972972
Br195	Br	0.930364	-0.958663	0.482492
Br196	Br	1.430364	-0.458663	0.982492
H197	H	1.110713	-0.408205	0.302034
H198	H	1.610713	0.091795	0.802034
Br199	Br	0.788135	-0.292264	0.476599
Br200	Br	1.288135	0.207736	0.976599
H201	H	0.760657	-0.176373	0.288092
H202	H	1.260657	0.323627	0.788092
Br203	Br	1.155707	-0.157625	0.807438
Br204	Br	1.655707	0.342375	1.307438
Br205	Br	1.134289	-0.507248	0.278585
Br206	Br	1.634289	-0.007248	0.778585
Br207	Br	0.916055	-0.304271	1.127840
Br208	Br	1.416055	0.195729	1.627840
Br209	Br	0.450641	-0.178398	0.291411
Br210	Br	0.950641	0.321602	0.791411
Br211	Br	0.909039	-0.308568	0.954300
Br212	Br	1.409039	0.191432	1.454300
Br213	Br	1.134553	-1.079665	0.278682
Br214	Br	1.634553	-0.579665	0.778682
Br215	Br	1.177645	-0.614706	0.235376
Br216	Br	1.677645	-0.114706	0.735376
Br217	Br	0.277110	-0.174139	0.284449
Br218	Br	0.777110	0.325861	0.784449
H219	H	1.154208	-0.766987	0.258873
H220	H	1.654208	-0.266987	0.758873
H221	H	1.103471	-0.189565	1.115467
H222	H	1.603471	0.310435	1.615467
H223	H	0.953639	-0.485311	0.458937
H224	H	1.453639	0.014689	0.958937
Br225	Br	0.935961	-0.292109	0.625298
Br226	Br	1.435961	0.207891	1.125298
Br227	Br	1.121773	-0.178385	0.962911
Br228	Br	1.621773	0.321615	1.462911
Br229	Br	1.148694	-0.161927	0.633896
Br230	Br	1.648694	0.338073	1.133896
Br231	Br	1.177697	-0.725277	0.235392
Br232	Br	1.677697	-0.225277	0.735392
Br233	Br	0.886964	-0.710440	0.525705
Br234	Br	1.386964	-0.210440	1.025705
H235	H	1.111002	-0.980605	0.302130
H236	H	1.611002	-0.480605	0.802130
H237	H	0.953912	-1.057704	0.459021
H238	H	1.453912	-0.557704	0.959021
Br239	Br	0.886915	-0.599864	0.525681
Br240	Br	1.386915	-0.099864	1.025681
H241	H	1.154247	-0.852106	0.258895
H242	H	1.654247	-0.352106	0.758895
H243	H	0.910526	-0.839664	0.502230
H244	H	1.410526	-0.339664	1.002230
Br245	Br	0.930084	-0.386251	0.482384
Br246	Br	1.430084	0.113749	0.982384
H247	H	0.910487	-0.754557	0.502214
H248	H	1.410487	-0.254557	1.002214
Br249	Br	0.942992	-0.287818	0.798833
Br250	Br	1.442992	0.212182	1.298833
