data_functionalizedCrystal
_audit_creation_method	'MofGen! by Chris Wilmer'
_symmetry_space_group_name_H-M	'P1'
_symmetry_Int_Tables_number	1
_symmetry_cell_setting	triclinic
loop_
_symmetry_equiv_pos_as_xyz
  x,y,z
_cell_length_a	12.759401
_cell_length_b	16.959454
_cell_length_c	12.759393
_cell_angle_alpha	90.030714
_cell_angle_beta	90.018496
_cell_angle_gamma	90.020236
loop_
_atom_site_label
_atom_site_type_symbol
_atom_site_fract_x
_atom_site_fract_y
_atom_site_fract_z
Zn1	Zn	1.606216	-0.314632	0.593988
Zn2	Zn	1.606094	-0.446833	0.418310
Zn3	Zn	1.430518	-0.314673	0.418327
Zn4	Zn	1.430490	-0.446772	0.593952
O5	O	1.518330	-0.380727	0.506144
O6	O	1.753221	-0.332177	0.570692
O7	O	1.582764	-0.429345	0.271291
O8	O	1.453888	-0.204057	0.441651
O9	O	1.753131	-0.429304	0.441622
O10	O	1.582972	-0.204026	0.570708
O11	O	1.453769	-0.332247	0.271304
O12	O	1.283493	-0.332188	0.441616
O13	O	1.453840	-0.429201	0.740978
O14	O	1.283473	-0.429241	0.570647
O15	O	1.582945	-0.332118	0.741004
O16	O	1.582737	-0.557436	0.441588
O17	O	1.453722	-0.557391	0.570631
C18	C	1.245362	-0.380713	0.506130
C19	C	1.128586	-0.380726	0.506149
C20	C	1.073740	-0.431342	0.573224
C21	C	0.964016	-0.431352	0.573235
C22	C	0.963992	-0.330127	0.439087
C23	C	1.073714	-0.330114	0.439082
C24	C	1.128612	-0.481954	0.640291
C25	C	1.073766	-0.532575	0.707370
C26	C	0.964042	-0.532585	0.707382
C27	C	0.909164	-0.481974	0.640313
C28	C	1.518242	-0.586094	0.506126
C29	C	1.518300	-0.673950	0.506154
C30	C	1.451249	-1.045433	0.573330
C31	C	1.585703	-1.045419	0.439066
C32	C	1.585666	-0.962873	0.439056
C33	C	1.518419	-0.921603	0.506183
C34	C	1.451208	-0.962879	0.573320
C35	C	1.652869	-0.921591	0.371913
C36	C	1.652834	-0.839040	0.371900
C37	C	1.585591	-0.797769	0.439033
C38	C	1.518378	-0.839050	0.506173
C39	C	1.451130	-0.797780	0.573300
C40	C	1.383922	-0.839059	0.640447
C41	C	1.383965	-0.921607	0.640453
C42	C	1.585548	-0.715220	0.439027
C43	C	1.451089	-0.715226	0.573291
C44	C	1.792363	-0.380743	0.506159
C45	C	1.909140	-0.380749	0.506165
C46	C	1.518403	-0.380648	0.780178
C47	C	1.518435	-0.380614	0.896954
C48	C	1.518447	-0.174559	0.506185
C49	C	1.518496	-0.086703	0.506203
C50	C	1.518317	-0.380750	0.233177
C51	C	1.518489	-0.380561	0.116401
C52	C	1.585669	-0.330058	0.951832
C53	C	1.585694	-0.330029	1.061556
C54	C	1.451247	-0.431119	1.061516
C55	C	1.451218	-0.431143	0.951793
C56	C	1.652886	-0.279528	0.896993
C57	C	1.720126	-0.228968	0.951870
C58	C	1.720151	-0.228940	1.061594
C59	C	1.652935	-0.279471	1.116441
H60	H	1.118456	-0.573776	0.761982
H61	H	1.118370	-0.288892	0.384471
O62	O	1.318451	-0.799003	0.705544
C63	C	1.213759	-0.819257	0.682525
H64	H	1.208503	-0.841998	0.598594
H65	H	1.186293	-0.867157	0.738843
C66	C	1.150060	-0.718025	0.797764
C67	C	1.143602	-0.745950	0.694676
H68	H	1.106781	-0.672808	0.805263
H69	H	1.220592	-0.704381	0.813276
H70	H	1.127173	-0.757949	0.844684
H71	H	1.166500	-0.706030	0.647759
H72	H	1.073072	-0.759585	0.679156
O73	O	1.718221	-0.961557	0.306611
C74	C	1.777547	-0.907425	0.247363
H75	H	1.734487	-0.848606	0.243674
H76	H	1.857315	-0.898581	0.285902
C77	C	1.845651	-1.011936	0.140096
C78	C	1.792760	-0.939696	0.135559
H79	H	1.855040	-1.031843	0.071131
H80	H	1.805685	-1.048407	0.180015
H81	H	1.912119	-1.004556	0.172217
H82	H	1.726288	-0.947078	0.103451
H83	H	1.832715	-0.903227	0.095632
O84	O	1.318824	-0.961794	0.705717
C85	C	1.378624	-1.009470	0.773646
H86	H	1.458272	-1.021807	0.736665
H87	H	1.390104	-0.977620	0.851516
C88	C	1.223022	-1.072757	0.838032
C89	C	1.320844	-1.087914	0.792607
H90	H	1.187380	-1.121143	0.849734
H91	H	1.182732	-1.040635	0.792271
H92	H	1.232602	-1.046213	0.902919
H93	H	1.311262	-1.114448	0.727716
H94	H	1.361131	-1.120042	0.838359
O95	O	1.651097	-1.085556	0.373991
C96	C	1.718924	-1.133281	0.433837
H97	H	1.725415	-1.108364	0.516582
H98	H	1.686428	-1.195847	0.437452
C99	C	1.820173	-1.165162	0.280920
C100	C	1.828152	-1.134554	0.382547
H101	H	1.887549	-1.165951	0.249280
H102	H	1.774474	-1.133012	0.240599
H103	H	1.793088	-1.217298	0.283947
H104	H	1.855224	-1.082417	0.379517
H105	H	1.873858	-1.166696	0.422866
H106	H	1.396523	-0.472259	1.106180
H107	H	1.707559	-0.805436	0.317227
O108	O	1.650875	-0.675037	0.373953
C109	C	1.718703	-0.627239	0.433816
H110	H	1.681607	-0.614854	0.513406
H111	H	1.796569	-0.659007	0.445424
C112	C	1.783278	-0.564055	0.278263
C113	C	1.737713	-0.548837	0.376013
H114	H	1.795010	-0.515694	0.242606
H115	H	1.737585	-0.596259	0.237931
H116	H	1.848163	-0.590530	0.287949
H117	H	1.672825	-0.522371	0.366325
H118	H	1.783396	-0.516627	0.416342
O119	O	1.385998	-1.085648	0.638453
C120	C	1.400471	-1.167358	0.624096
H121	H	1.434929	-1.178657	0.543048
H122	H	1.456397	-1.190720	0.686468
C123	C	1.251863	-1.195916	0.733185
C124	C	1.294177	-1.209794	0.633638
H125	H	1.186297	-1.222093	0.739076
H126	H	1.242114	-1.140866	0.742862
H127	H	1.298478	-1.215384	0.785151
H128	H	1.247568	-1.190316	0.581675
H129	H	1.303915	-1.264841	0.623953
O130	O	1.385914	-0.675103	0.638612
C131	C	1.445669	-0.627270	0.706493
H132	H	1.528426	-0.652096	0.713055
H133	H	1.449270	-0.564722	0.674001
C134	C	1.292642	-0.595484	0.807610
C135	C	1.394283	-0.625980	0.815677
H136	H	1.260944	-0.594685	0.874958
H137	H	1.252383	-0.627708	0.761875
H138	H	1.295657	-0.543364	0.780529
H139	H	1.391266	-0.678103	0.842744
H140	H	1.434541	-0.593766	0.861418
H141	H	0.819819	-0.481980	0.640337
H142	H	0.919390	-0.573797	0.762009
O143	O	1.785375	-0.179955	0.898435
C144	C	1.770919	-0.190804	0.789823
H145	H	1.736475	-0.251807	0.774816
H146	H	1.714986	-0.143925	0.758696
C147	C	1.919515	-0.108651	0.751933
C148	C	1.877219	-0.183579	0.733500
H149	H	1.985084	-0.104191	0.717188
H150	H	1.929253	-0.101339	0.825107
H151	H	1.872895	-0.069594	0.725994
H152	H	1.923832	-0.222634	0.759451
H153	H	1.867491	-0.190897	0.660329
H154	H	1.217954	-0.481953	0.640287
H155	H	1.652875	-0.279547	0.807650
H156	H	0.919301	-0.288923	0.384483
H157	H	1.774894	-0.187766	1.106273
H158	H	1.652949	-0.279434	1.205786
H159	H	1.396454	-0.472299	0.907111
