data_functionalizedCrystal
_audit_creation_method	'MofGen! by Chris Wilmer'
_symmetry_space_group_name_H-M	'P1'
_symmetry_Int_Tables_number	1
_symmetry_cell_setting	triclinic
loop_
_symmetry_equiv_pos_as_xyz
  x,y,z
_cell_length_a	17.699083
_cell_length_b	17.699083
_cell_length_c	16.776229
_cell_angle_alpha	90.013676
_cell_angle_beta	89.998886
_cell_angle_gamma	96.716984
loop_
_atom_site_label
_atom_site_type_symbol
_atom_site_fract_x
_atom_site_fract_y
_atom_site_fract_z
O1	O	1.004078	-0.095713	-0.066189
O2	O	0.783700	-0.108165	-0.066217
O3	O	0.900116	0.008250	-0.066182
O4	O	0.887663	-0.212128	-0.066223
O5	O	0.900100	0.008257	0.066394
O6	O	0.783685	-0.108158	0.066360
O7	O	1.004063	-0.095706	0.066388
Zn8	Zn	0.893871	-0.101931	0.087423
Zn9	Zn	0.893892	-0.101940	-0.087252
O10	O	0.887648	-0.212121	0.066354
C11	C	0.755495	-0.107716	0.000068
C12	C	0.671477	-0.106377	0.000059
C13	C	0.899662	0.036451	0.000109
C14	C	0.898323	0.120469	0.000119
C15	C	0.622856	-0.174711	0.000046
C16	C	0.543913	-0.173448	0.000057
C17	C	0.513592	-0.103852	0.000074
C18	C	0.562219	-0.035513	0.000089
C19	C	0.641161	-0.036776	0.000084
C20	C	0.243856	-0.030418	0.000109
C21	C	0.164908	-0.029160	0.000112
C22	C	0.146608	-0.167090	0.000083
C23	C	0.225550	-0.168353	0.000078
C24	C	0.274170	-0.100015	0.000097
C25	C	0.359769	-0.101384	0.000087
C26	C	0.427995	-0.102481	0.000078
C27	C	1.032268	-0.096156	0.000101
C28	C	1.116286	-0.097494	0.000105
N29	N	0.893863	-0.101924	0.206634
C30	C	0.966656	0.169090	0.000133
C31	C	0.965394	0.248033	0.000135
C32	C	0.895798	0.278354	0.000128
C33	C	0.827459	0.229727	0.000111
C34	C	0.828722	0.150785	0.000103
C35	C	0.822364	0.548090	0.000139
C36	C	0.821106	0.627038	0.000149
C37	C	0.959036	0.645338	0.000171
C38	C	0.960299	0.566396	0.000164
C39	C	0.891961	0.517776	0.000143
C40	C	0.893330	0.432177	0.000139
C41	C	0.894427	0.363951	0.000137
C42	C	0.888102	0.759678	0.000089
C43	C	0.889440	0.675660	0.000158
N44	N	0.893906	-0.101941	-0.206463
C45	C	0.945428	-0.050396	0.248367
C46	C	0.945432	-0.050396	0.331819
C47	C	0.893875	-0.101927	0.373537
C48	C	0.842305	-0.153457	0.331799
C49	C	0.842297	-0.153454	0.248349
C50	C	0.842332	-0.153472	0.668346
C51	C	0.842345	-0.153473	0.751803
C52	C	0.945466	-0.050414	0.751817
C53	C	0.945459	-0.050411	0.668366
C54	C	0.893887	-0.101938	0.626635
C55	C	0.893882	-0.101937	0.536147
C56	C	0.893882	-0.101932	0.464024
H57	H	0.647537	-0.231384	0.000032
O58	O	0.688472	0.029553	-0.000014
C59	C	0.734668	0.032955	-0.068687
H60	H	0.738546	-0.027114	-0.091592
H61	H	0.794055	0.061255	-0.053240
H62	H	0.708761	0.067475	-0.116758
H63	H	0.764429	0.651721	0.000145
O64	O	0.290971	0.036033	0.000089
C65	C	0.247278	0.097728	0.000123
H66	H	0.188324	0.078405	-0.024981
H67	H	0.276485	0.145599	-0.038356
H68	H	0.241693	0.119068	0.063732
H69	H	0.537526	0.021154	0.000114
O70	O	0.759834	0.259143	-0.000040
C71	C	0.718188	0.234263	-0.068702
H72	H	0.758895	0.217911	-0.116689
H73	H	0.686079	0.282025	-0.091749
H74	H	0.675915	0.182736	-0.053191
O75	O	0.756034	0.500788	0.000230
C76	C	0.752619	0.454595	0.068895
H77	H	0.812684	0.450717	0.091794
H78	H	0.724320	0.395208	0.053439
H79	H	0.718092	0.480506	0.116974
O80	O	1.027924	0.536980	0.000029
C81	C	1.069586	0.561845	-0.068617
H82	H	1.028890	0.578186	-0.116610
H83	H	1.101701	0.514079	-0.091667
H84	H	1.111855	0.613376	-0.053084
O85	O	0.762392	0.103476	0.000197
C86	C	0.758976	0.057284	0.068862
H87	H	0.819040	0.053406	0.091764
H88	H	0.730677	-0.002103	0.053407
H89	H	0.724447	0.083195	0.116940
H90	H	0.800308	-0.195412	0.214371
H91	H	0.987414	-0.008437	0.214405
H92	H	0.987419	-0.008438	0.365797
H93	H	0.800358	-0.195437	0.785769
H94	H	0.504328	-0.229092	0.000046
O95	O	0.995570	-0.000280	0.627965
C96	C	1.041096	0.045190	0.682695
H97	H	1.010076	0.046003	0.742187
H98	H	1.052752	0.105650	0.658600
H99	H	1.097273	0.020686	0.691554
O100	O	0.995487	-0.000382	0.792479
C101	C	0.984453	-0.011441	0.875081
H102	H	0.924229	-0.039802	0.886480
H103	H	0.992988	0.045889	0.906809
H104	H	1.027218	-0.049351	0.898747
H105	H	0.800342	-0.195428	0.634376
H106	H	0.800322	-0.195412	0.365771
H107	H	0.250232	-0.225025	0.000060
O108	O	1.034330	0.139765	0.000103
C109	C	1.094371	0.199612	0.000134
H110	H	1.073253	0.253197	-0.024961
H111	H	1.142974	0.183201	-0.038355
H112	H	1.115438	0.210829	0.063740
H113	H	1.014680	0.684934	0.000185
O114	O	0.099300	-0.233426	-0.000034
C115	C	0.053098	-0.236834	-0.068703
H116	H	0.049214	-0.176766	-0.091578
H117	H	-0.006286	-0.265137	-0.053263
H118	H	0.079004	-0.271353	-0.116795
O119	O	0.135418	0.038431	-0.000007
C120	C	0.090287	0.043280	-0.068658
H121	H	0.108887	0.003767	-0.116661
H122	H	0.097482	0.104293	-0.091687
H123	H	0.028000	0.025703	-0.053139
H124	H	1.021038	0.287618	0.000149
