data_functionalizedCrystal
_audit_creation_method	'MofGen! by Chris Wilmer'
_symmetry_space_group_name_H-M	'P1'
_symmetry_Int_Tables_number	1
_symmetry_cell_setting	triclinic
loop_
_symmetry_equiv_pos_as_xyz
  x,y,z
_cell_length_a	14.044220
_cell_length_b	10.489741
_cell_length_c	12.503572
_cell_angle_alpha	93.559494
_cell_angle_beta	86.164750
_cell_angle_gamma	88.864026
loop_
_atom_site_label
_atom_site_type_symbol
_atom_site_fract_x
_atom_site_fract_y
_atom_site_fract_z
O1	O	1.265220	0.300990	-0.089205
O2	O	1.765220	0.800990	0.410795
O3	O	0.989177	0.289883	-0.089232
O4	O	1.489177	0.789883	0.410768
O5	O	1.133479	0.110477	-0.089211
O6	O	1.633479	0.610477	0.410789
O7	O	1.120918	0.480397	-0.089225
O8	O	1.620918	0.980397	0.410775
O9	O	1.122627	0.123993	0.089429
O10	O	1.622627	0.623993	0.589429
O11	O	0.978325	0.303400	0.089408
O12	O	1.478325	0.803400	0.589408
O13	O	1.254368	0.314507	0.089436
O14	O	1.754368	0.814507	0.589436
Cu15	Cu	1.115355	0.310188	0.105733
Cu16	Cu	1.615355	0.810188	0.605733
Cu17	Cu	1.128189	0.294203	-0.105530
Cu18	Cu	1.628189	0.794203	0.394470
O19	O	1.110065	0.493914	0.089415
O20	O	1.610065	0.993914	0.589415
C21	C	0.948403	0.291780	0.000085
C22	C	1.448403	0.791780	0.500085
C23	C	0.843079	0.277280	0.000074
C24	C	1.343079	0.777280	0.500074
C25	C	0.650235	0.250773	0.000097
C26	C	1.150235	0.750773	0.500097
C27	C	0.593304	0.353611	0.000097
C28	C	1.093304	0.853611	0.500097
C29	C	0.485999	0.338862	0.000110
C30	C	0.985999	0.838862	0.500110
C31	C	0.757550	0.265520	0.000084
C32	C	1.257550	0.765520	0.500084
C33	C	1.127104	0.069607	0.000108
C34	C	1.627104	0.569607	0.500108
C35	C	1.124266	-0.072311	0.000106
C36	C	1.624266	0.427689	0.500106
C37	C	1.032451	-0.149764	0.000089
C38	C	1.532451	0.350236	0.500089
C39	C	1.070473	-0.230823	0.088172
C40	C	1.570473	0.269177	0.588172
C41	C	1.081194	-0.244122	-0.087953
C42	C	1.581194	0.255878	0.412047
C43	C	1.162321	-0.151494	0.088262
C44	C	1.662321	0.348506	0.588262
C45	C	1.173035	-0.164791	-0.087943
C46	C	1.673035	0.335209	0.412057
C47	C	1.211122	-0.245814	0.000162
C48	C	1.711122	0.254186	0.500162
C49	C	1.295142	0.312610	0.000116
C50	C	1.795142	0.812610	0.500116
C51	C	1.400466	0.327110	0.000120
C52	C	1.900466	0.827110	0.500120
C53	C	1.116440	0.534783	0.000093
C54	C	1.616440	1.034783	0.500093
C55	C	1.119279	0.676700	0.000088
C56	C	1.619279	1.176700	0.500088
N57	N	1.106335	0.321431	0.254324
N58	N	1.606335	0.821431	0.754324
N59	N	1.137217	0.282950	-0.254121
N60	N	1.637217	0.782950	0.245879
C61	C	1.093067	0.337981	0.473438
C62	C	1.593067	0.837981	0.973438
C63	C	1.150482	0.266404	0.526773
C64	C	1.650482	0.766404	1.026773
C65	C	1.143099	0.275613	0.648695
C66	C	1.643099	0.775613	1.148695
C67	C	1.100449	0.328774	0.351504
C68	C	1.600449	0.828774	0.851504
H69	H	0.956955	-0.107764	0.000170
H70	H	1.456955	0.392236	0.500170
H71	H	1.027100	-0.260141	0.162633
H72	H	1.527100	0.239859	0.662633
H73	H	1.038372	0.406172	0.519337
H74	H	1.538372	0.906172	1.019337
C75	C	1.034812	-0.298913	-0.188553
C76	C	1.534812	0.201087	0.311447
H77	H	1.079213	-0.354498	-0.230030
H78	H	1.579213	0.145502	0.269970
H79	H	1.016677	-0.230953	-0.230302
H80	H	1.516677	0.269047	0.269698
H81	H	0.979929	-0.345113	-0.167380
H82	H	1.479929	0.154887	0.332620
H83	H	0.618389	0.151662	0.000106
H84	H	1.118389	0.651662	0.500106
C85	C	1.208632	-0.096914	0.188979
C86	C	1.708632	0.403086	0.688979
H87	H	1.210121	-0.006452	0.188391
H88	H	1.710121	0.493548	0.688391
H89	H	1.271897	-0.130591	0.189245
H90	H	1.771897	0.369409	0.689245
H91	H	1.172426	-0.120008	0.251445
H92	H	1.672426	0.379992	0.751445
C93	C	1.231548	-0.125054	-0.188530
C94	C	1.731548	0.374946	0.311470
H95	H	1.284523	-0.076971	-0.167370
H96	H	1.784523	0.423029	0.332630
H97	H	1.192439	-0.074413	-0.229239
H98	H	1.692439	0.425587	0.270761
H99	H	1.253781	-0.199251	-0.231034
H100	H	1.753781	0.300749	0.268966
H101	H	0.625152	0.452730	0.000088
H102	H	1.125152	0.952730	0.500088
C103	C	1.224406	0.174321	0.464767
C104	C	1.724406	0.674321	0.964767
H105	H	1.219753	0.180154	0.389768
H106	H	1.719753	0.680154	0.889768
H107	H	1.212353	0.089327	0.483118
H108	H	1.712353	0.589327	0.983118
H109	H	1.286732	0.196707	0.483148
H110	H	1.786732	0.696707	0.983148
H111	H	1.286677	-0.287570	0.000218
H112	H	1.786677	0.212430	0.500218
