data_functionalizedCrystal
_audit_creation_method	'MofGen! by Chris Wilmer'
_symmetry_space_group_name_H-M	'P1'
_symmetry_Int_Tables_number	1
_symmetry_cell_setting	triclinic
loop_
_symmetry_equiv_pos_as_xyz
  x,y,z
_cell_length_a	18.215407
_cell_length_b	18.215404
_cell_length_c	18.215399
_cell_angle_alpha	90.026844
_cell_angle_beta	90.017777
_cell_angle_gamma	90.018838
loop_
_atom_site_label
_atom_site_type_symbol
_atom_site_fract_x
_atom_site_fract_y
_atom_site_fract_z
Zn1	Zn	-1.125080	0.293078	-0.416081
Zn2	Zn	-0.791747	0.626411	-0.082748
Zn3	Zn	-0.458414	0.959745	0.250586
Zn4	Zn	-1.124992	0.416149	-0.293017
Zn5	Zn	-0.791659	0.749482	0.040316
Zn6	Zn	-0.458326	1.082816	0.373649
Zn7	Zn	-1.002013	0.293092	-0.293033
Zn8	Zn	-0.668680	0.626425	0.040300
Zn9	Zn	-0.335346	0.959758	0.373634
Zn10	Zn	-1.001982	0.416098	-0.416047
Zn11	Zn	-0.668649	0.749431	-0.082713
Zn12	Zn	-0.335316	1.082764	0.250620
O13	O	-1.063517	0.354604	-0.354544
O14	O	-0.730184	0.687937	-0.021211
O15	O	-0.396850	1.021271	0.312122
O16	O	-1.228053	0.309419	-0.399764
O17	O	-0.894720	0.642753	-0.066431
O18	O	-0.561386	0.976086	0.266902
O19	O	-1.108655	0.399852	-0.190035
O20	O	-0.775322	0.733186	0.143298
O21	O	-0.441988	1.066519	0.476632
O22	O	-1.018388	0.190105	-0.309377
O23	O	-0.685054	0.523439	0.023957
O24	O	-0.351721	0.856772	0.357290
O25	O	-1.227988	0.399839	-0.309350
O26	O	-0.894655	0.733173	0.023984
O27	O	-0.561322	1.066506	0.357317
O28	O	-1.108805	0.190095	-0.399780
O29	O	-0.775472	0.523429	-0.066446
O30	O	-0.442138	0.856762	0.266887
O31	O	-1.018302	0.309443	-0.190047
O32	O	-0.684969	0.642776	0.143287
O33	O	-0.351636	0.976109	0.476620
O34	O	-0.899025	0.309393	-0.309343
O35	O	-0.565691	0.642726	0.023990
O36	O	-0.232358	0.976060	0.357324
O37	O	-1.018336	0.399752	-0.519035
O38	O	-0.685002	0.733085	-0.185702
O39	O	-0.351669	1.066418	0.147631
O40	O	-0.899002	0.399765	-0.399721
O41	O	-0.565669	0.733098	-0.066387
O42	O	-0.232336	1.066432	0.266946
O43	O	-1.108775	0.309369	-0.519061
O44	O	-0.775442	0.642703	-0.185728
O45	O	-0.442109	0.976036	0.147606
O46	O	-1.108625	0.519127	-0.309316
O47	O	-0.775292	0.852460	0.024017
O48	O	-0.441959	1.185793	0.357350
O49	O	-1.018250	0.519089	-0.399705
O50	O	-0.684917	0.852422	-0.066372
O51	O	-0.351584	1.185756	0.266961
C52	C	-0.872311	0.354575	-0.354530
C53	C	-0.538977	0.687909	-0.021197
C54	C	-0.205644	1.021242	0.312136
C55	C	-0.790512	0.354581	-0.354542
C56	C	-0.457179	0.687914	-0.021208
C57	C	-0.123845	1.021247	0.312125
C58	C	-0.602351	0.307590	-0.401693
C59	C	-0.269017	0.640923	-0.068360
C60	C	0.064316	0.974257	0.264973
C61	C	-0.525492	0.307594	-0.401695
C62	C	-0.192159	0.640927	-0.068362
C63	C	0.141175	0.974261	0.264971
C64	C	-0.525436	0.401607	-0.307401
C65	C	-0.192102	0.734940	0.025932
C66	C	0.141231	1.068274	0.359265
C67	C	-0.602293	0.401599	-0.307396
C68	C	-0.268960	0.734932	0.025937
C69	C	0.064374	1.068265	0.359270
C70	C	-0.640748	0.354591	-0.354546
C71	C	-0.307415	0.687925	-0.021213
C72	C	0.025918	1.021258	0.312120
C73	C	-0.487032	0.354603	-0.354553
C74	C	-0.153699	0.687937	-0.021220
C75	C	0.179634	1.021270	0.312113
C76	C	-0.403699	0.354608	-0.354555
C77	C	-0.070365	0.687941	-0.021222
C78	C	0.262968	1.021275	0.312111
C79	C	-0.724087	0.354586	-0.354544
C80	C	-0.390754	0.687919	-0.021211
C81	C	-0.057421	1.021252	0.312123
C82	C	-1.063445	0.545810	-0.354521
C83	C	-0.730112	0.879144	-0.021188
C84	C	-0.396778	1.212477	0.312145
C85	C	-1.063481	0.627609	-0.354536
C86	C	-0.730148	0.960943	-0.021203
C87	C	-0.396815	1.294276	0.312131
C88	C	-0.255470	0.354625	-0.354557
C89	C	0.077863	0.687959	-0.021224
C90	C	0.411197	1.021292	0.312109
C91	C	-0.337269	0.354614	-0.354558
C92	C	-0.003936	0.687947	-0.021225
C93	C	0.329398	1.021281	0.312108
C94	C	-1.110680	0.892662	-0.307582
C95	C	-0.777347	1.225995	0.025752
C96	C	-0.444014	1.559329	0.359085
C97	C	-1.110649	0.815803	-0.307562
C98	C	-0.777316	1.149137	0.025772
C99	C	-0.443982	1.482470	0.359105
C100	C	-1.016455	0.815805	-0.401602
C101	C	-0.683122	1.149138	-0.068268
C102	C	-0.349789	1.482472	0.265065
C103	C	-1.016483	0.892662	-0.401618
C104	C	-0.683150	1.225996	-0.068284
C105	C	-0.349817	1.559329	0.265049
C106	C	-1.063600	0.931089	-0.354609
C107	C	-0.730267	1.264422	-0.021276
C108	C	-0.396933	1.597755	0.312058
C109	C	-1.063541	0.777373	-0.354573
C110	C	-0.730208	1.110706	-0.021239
C111	C	-0.396874	1.444039	0.312094
C112	C	-1.063507	0.694039	-0.354551
C113	C	-0.730173	1.027372	-0.021218
C114	C	-0.396840	1.360706	0.312116
C115	C	-1.063633	1.014428	-0.354629
C116	C	-0.730300	1.347761	-0.021296
C117	C	-0.396967	1.681094	0.312037
C118	C	-1.063562	0.354553	-0.546497
C119	C	-0.730229	0.687887	-0.213164
C120	C	-0.396895	1.021220	0.120169
C121	C	-1.063581	0.354532	-0.628296
C122	C	-0.730248	0.687865	-0.294963
C123	C	-0.396914	1.021198	0.038370
C124	C	-1.063612	1.162651	-0.354595
C125	C	-0.730279	1.495984	-0.021262
C126	C	-0.396946	1.829318	0.312072
C127	C	-1.063659	1.080852	-0.354645
C128	C	-0.730326	1.414186	-0.021312
C129	C	-0.396993	1.747519	0.312021
C130	C	-1.110690	0.307426	-0.816505
C131	C	-0.777356	0.640759	-0.483171
C132	C	-0.444023	0.974092	-0.149838
C133	C	-1.110699	0.307404	-0.893364
C134	C	-0.777365	0.640738	-0.560030
C135	C	-0.444032	0.974071	-0.226697
C136	C	-1.016524	0.401524	-0.893326
C137	C	-0.683191	0.734857	-0.559993
C138	C	-0.349858	1.068191	-0.226659
C139	C	-1.016512	0.401541	-0.816468
C140	C	-0.683179	0.734874	-0.483135
C141	C	-0.349846	1.068208	-0.149802
C142	C	-1.063599	0.354493	-0.778060
C143	C	-0.730266	0.687826	-0.444727
C144	C	-0.396933	1.021160	-0.111393
C145	C	-1.063620	0.354454	-0.931776
C146	C	-0.730287	0.687788	-0.598443
C147	C	-0.396953	1.021121	-0.265109
C148	C	-1.063629	0.354432	-1.015110
C149	C	-0.730296	0.687765	-0.681776
C150	C	-0.396963	1.021098	-0.348443
C151	C	-1.063589	0.354515	-0.694721
C152	C	-0.730256	0.687848	-0.361388
C153	C	-0.396923	1.021181	-0.028054
C154	C	-1.063515	0.354601	-0.163338
C155	C	-0.730181	0.687935	0.169995
C156	C	-0.396848	1.021268	0.503328
C157	C	-1.063638	0.354416	-0.081540
C158	C	-0.730305	0.687749	0.251794
C159	C	-0.396972	1.021082	0.585127
H160	H	-0.494232	0.269320	-0.440086
H161	H	-0.160898	0.602653	-0.106753
H162	H	0.172435	0.935986	0.226581
H163	H	-1.149029	0.269114	-0.785235
H164	H	-0.815696	0.602447	-0.451902
H165	H	-0.482362	0.935781	-0.118568
H166	H	-0.494116	0.439879	-0.269014
H167	H	-0.160782	0.773213	0.064319
H168	H	0.172551	1.106546	0.397653
H169	H	-0.633557	0.439874	-0.269000
H170	H	-0.300224	0.773207	0.064334
H171	H	0.033109	1.106540	0.397667
H172	H	-1.149045	0.923947	-0.269304
H173	H	-0.815712	1.257280	0.064030
H174	H	-0.482378	1.590613	0.397363
H175	H	-1.148985	0.784518	-0.269267
H176	H	-0.815652	1.117852	0.064066
H177	H	-0.482318	1.451185	0.397400
O178	O	-0.970826	0.929961	-0.447410
O179	O	-0.637493	1.263295	-0.114076
O180	O	-0.304159	1.596628	0.219257
C181	C	-0.934999	0.953390	-0.572560
C182	C	-0.601666	1.286723	-0.239227
C183	C	-0.268332	1.620057	0.094107
C184	C	-0.986762	0.911117	-0.520791
C185	C	-0.653429	1.244450	-0.187458
C186	C	-0.320095	1.577784	0.145875
H187	H	-0.947854	0.938158	-0.631899
H188	H	-0.614521	1.271492	-0.298566
H189	H	-0.281188	1.604825	0.034768
H190	H	-0.943114	1.014931	-0.564558
H191	H	-0.609780	1.348264	-0.231225
H192	H	-0.276447	1.681598	0.102109
H193	H	-0.875665	0.938338	-0.559538
H194	H	-0.542332	1.271671	-0.226205
H195	H	-0.208998	1.605004	0.107128
H196	H	-1.046116	0.926108	-0.533781
H197	H	-0.712782	1.259441	-0.200447
H198	H	-0.379449	1.592775	0.132886
H199	H	-0.978584	0.849586	-0.528803
H200	H	-0.645250	1.182920	-0.195469
H201	H	-0.311917	1.516253	0.137864
H202	H	-0.978160	0.439868	-0.785166
H203	H	-0.644827	0.773202	-0.451832
H204	H	-0.311494	1.106535	-0.118499
H205	H	-1.149043	0.269076	-0.924662
H206	H	-0.815710	0.602409	-0.591329
H207	H	-0.482377	0.935743	-0.257995
H208	H	-0.978095	0.784510	-0.439876
H209	H	-0.644762	1.117844	-0.106543
H210	H	-0.311429	1.451177	0.226790
H211	H	-0.633659	0.269311	-0.440084
H212	H	-0.300326	0.602645	-0.106751
H213	H	0.033008	0.935978	0.226583
O214	O	-0.970859	0.447204	-0.930751
O215	O	-0.637526	0.780537	-0.597418
O216	O	-0.304193	1.113871	-0.264085
C217	C	-0.929109	0.488860	-1.049137
C218	C	-0.595776	0.822194	-0.715804
C219	C	-0.262443	1.155527	-0.382470
C220	C	-0.980874	0.437101	-1.006847
C221	C	-0.647541	0.770434	-0.673514
C222	C	-0.314207	1.103767	-0.340181
H223	H	-0.937177	0.480699	-1.110668
H224	H	-0.603844	0.814033	-0.777335
H225	H	-0.270511	1.147366	-0.444001
H226	H	-0.942004	0.548223	-1.034067
H227	H	-0.608671	0.881556	-0.700734
H228	H	-0.275338	1.214890	-0.367400
H229	H	-0.869780	0.475941	-1.033976
H230	H	-0.536446	0.809274	-0.700642
H231	H	-0.203113	1.142607	-0.367309
H232	H	-1.040221	0.449954	-1.021986
H233	H	-0.706888	0.783288	-0.688652
H234	H	-0.373555	1.116621	-0.355319
H235	H	-0.967916	0.377754	-1.021921
H236	H	-0.634582	0.711087	-0.688587
H237	H	-0.301249	1.044420	-0.355254
