data_functionalizedCrystal
_audit_creation_method	'MofGen! by Chris Wilmer'
_symmetry_space_group_name_H-M	'P1'
_symmetry_Int_Tables_number	1
_symmetry_cell_setting	triclinic
loop_
_symmetry_equiv_pos_as_xyz
  x,y,z
_cell_length_a	12.759395
_cell_length_b	21.295417
_cell_length_c	12.759387
_cell_angle_alpha	89.961464
_cell_angle_beta	89.979491
_cell_angle_gamma	90.032044
loop_
_atom_site_label
_atom_site_type_symbol
_atom_site_fract_x
_atom_site_fract_y
_atom_site_fract_z
Zn1	Zn	1.606153	-0.250550	-0.593949
Zn2	Zn	1.605995	-0.355833	-0.418245
Zn3	Zn	1.430451	-0.250585	-0.418285
Zn4	Zn	1.430395	-0.355788	-0.593884
O5	O	1.518249	-0.303189	-0.506091
O6	O	1.753153	-0.264521	-0.570651
O7	O	1.582667	-0.341905	-0.271229
O8	O	1.453848	-0.162491	-0.441631
O9	O	1.753037	-0.341871	-0.441563
O10	O	1.582936	-0.162465	-0.570690
O11	O	1.453695	-0.264579	-0.271259
O12	O	1.283423	-0.264536	-0.441569
O13	O	1.453753	-0.341795	-0.740914
O14	O	1.283382	-0.341828	-0.570581
O15	O	1.582881	-0.264477	-0.740961
O16	O	1.582612	-0.443917	-0.441501
O17	O	1.453600	-0.443884	-0.570542
C18	C	1.245281	-0.303181	-0.506073
C19	C	1.128505	-0.303193	-0.506090
C20	C	1.128500	-0.383808	-0.640213
C21	C	1.073637	-0.424121	-0.707277
C22	C	0.963916	-0.424129	-0.707290
C23	C	0.909055	-0.383818	-0.640233
C24	C	0.963918	-0.343506	-0.573169
C25	C	1.073642	-0.343504	-0.573161
C26	C	0.963922	-0.262888	-0.439053
C27	C	1.073644	-0.262883	-0.439034
C28	C	0.909061	-0.222578	-0.371997
C29	C	0.963924	-0.182267	-0.304926
C30	C	1.073652	-0.182262	-0.304915
C31	C	1.128507	-0.222570	-0.371969
C32	C	1.518111	-0.466741	-0.506033
C33	C	1.518148	-0.536709	-0.506043
C34	C	1.585385	-0.569572	-0.438920
C35	C	1.585434	-0.635314	-0.438944
C36	C	1.518228	-0.668191	-0.506079
C37	C	1.450987	-0.635320	-0.573215
C38	C	1.450947	-0.569579	-0.573197
N39	N	1.426321	-0.771458	-0.514083
N40	N	1.426362	-0.833909	-0.514094
C41	C	1.518346	-0.866266	-0.506139
N42	N	1.610289	-0.833812	-0.498153
N43	N	1.610247	-0.771355	-0.498137
C44	C	1.518264	-0.739477	-0.506107
C45	C	1.585641	-0.970414	-0.439039
C46	C	1.585692	-1.036158	-0.439070
C47	C	1.451236	-1.036163	-0.573336
C48	C	1.451194	-0.970421	-0.573310
C49	C	1.518395	-0.937550	-0.506156
C50	C	1.792282	-0.303197	-0.506110
C51	C	1.909059	-0.303201	-0.506118
C52	C	1.518328	-0.303127	-0.780125
C53	C	1.518362	-0.303101	-0.896901
C54	C	1.518416	-0.138999	-0.506172
C55	C	1.518487	-0.069031	-0.506207
C56	C	1.652833	-0.222595	-0.896970
C57	C	1.720083	-0.182333	-0.951865
C58	C	1.720108	-0.182310	-1.061587
C59	C	1.652874	-0.222552	-1.116416
C60	C	1.585624	-0.262815	-1.061521
C61	C	1.585608	-0.262835	-0.951797
C62	C	1.451150	-0.343316	-1.061452
C63	C	1.451128	-0.343344	-0.951730
C64	C	1.383916	-0.383559	-1.116281
C65	C	1.316670	-0.423825	-1.061386
C66	C	1.316648	-0.423847	-0.951657
C67	C	1.383878	-0.383606	-0.896835
C68	C	1.518230	-0.303205	-0.233123
C69	C	1.518400	-0.303054	-0.116347
H70	H	1.118317	-0.456940	-0.761875
O71	O	0.910587	-0.143204	-0.239682
C72	C	0.847032	-0.178994	-0.171740
H73	H	0.880053	-0.228567	-0.165086
H74	H	0.763892	-0.181189	-0.204234
C75	C	0.804755	-0.087274	-0.070792
C76	C	0.845317	-0.148159	-0.062613
H77	H	0.803692	-0.068252	-0.003478
H78	H	0.847570	-0.063160	-0.116567
H79	H	0.735476	-0.089112	-0.097874
H80	H	0.914599	-0.146320	-0.035544
H81	H	0.802513	-0.172271	-0.016830
H82	H	1.118315	-0.149430	-0.250310
H83	H	1.261928	-0.456584	-1.106036
O84	O	1.653062	-0.222582	-1.222999
C85	C	1.753749	-0.238729	-1.259671
H86	H	1.797143	-0.266191	-1.196437
H87	H	1.799317	-0.194160	-1.279168
C88	C	1.690265	-0.245747	-1.436474
C89	C	1.743558	-0.279481	-1.358812
H90	H	1.683981	-0.270883	-1.497631
H91	H	1.622431	-0.234866	-1.411769
H92	H	1.728245	-0.208608	-1.452708
H93	H	1.705571	-0.316615	-1.342569
H94	H	1.811386	-0.290369	-1.383517
H95	H	1.383938	-0.383535	-1.205622
H96	H	1.640451	-1.062914	-0.384412
H97	H	1.261873	-0.456627	-0.906968
H98	H	1.396520	-1.062931	-0.628003
H99	H	1.383871	-0.383622	-0.807494
H100	H	0.919246	-0.456951	-0.761905
O101	O	1.650720	-0.537572	-0.373843
C102	C	1.718542	-0.499490	-0.433709
H103	H	1.681442	-0.489623	-0.513295
H104	H	1.796409	-0.524778	-0.445325
C105	C	1.783124	-0.449179	-0.278157
C106	C	1.737553	-0.437056	-0.375903
H107	H	1.794856	-0.410668	-0.242499
H108	H	1.737434	-0.474837	-0.237823
H109	H	1.848009	-0.470254	-0.287851
H110	H	1.672665	-0.415988	-0.366207
H111	H	1.783233	-0.411393	-0.416234
H112	H	1.217841	-0.383811	-0.640201
O113	O	0.802472	-0.383922	-0.640348
C114	C	0.765813	-0.428132	-0.713943
H115	H	0.829020	-0.464919	-0.728532
H116	H	0.746401	-0.403229	-0.790633
C117	C	0.588975	-0.415189	-0.653112
C118	C	0.666605	-0.460374	-0.671024
H119	H	0.527777	-0.435076	-0.626642
H120	H	0.613672	-0.385402	-0.603533
H121	H	0.572812	-0.394440	-0.717025
H122	H	0.682776	-0.481117	-0.607110
H123	H	0.641908	-0.490165	-0.720593
H124	H	1.217848	-0.222571	-0.371964
O125	O	1.385668	-0.667157	-0.638529
C126	C	1.326293	-0.624050	-0.697753
H127	H	1.369297	-0.577162	-0.701416
H128	H	1.246515	-0.617120	-0.659210
C129	C	1.258292	-0.707249	-0.805065
C130	C	1.311115	-0.649662	-0.809572
H131	H	1.248925	-0.723049	-0.874039
H132	H	1.298291	-0.736292	-0.765163
H133	H	1.191816	-0.701467	-0.772942
H134	H	1.377594	-0.655447	-0.841683
H135	H	1.271126	-0.620621	-0.849483
H136	H	0.819720	-0.222584	-0.372017
O137	O	1.650780	-0.667149	-0.373634
C138	C	1.710105	-0.624039	-0.314381
H139	H	1.667051	-0.577200	-0.310696
H140	H	1.789879	-0.616988	-0.352912
C141	C	1.778182	-0.707275	-0.207107
C142	C	1.725299	-0.649747	-0.202575
H143	H	1.787559	-0.723133	-0.138141
H144	H	1.738217	-0.736319	-0.247029
H145	H	1.844655	-0.701391	-0.239221
H146	H	1.658822	-0.655634	-0.170473
H147	H	1.765253	-0.620704	-0.162644
O148	O	1.651020	-0.938577	-0.373780
C149	C	1.710365	-0.981684	-0.314525
H150	H	1.714017	-1.028521	-0.357579
H151	H	1.671935	-0.988742	-0.234702
C152	C	1.817686	-0.898442	-0.246585
C153	C	1.822179	-0.955966	-0.299470
H154	H	1.886657	-0.882577	-0.237294
H155	H	1.777703	-0.869399	-0.286503
H156	H	1.785656	-0.904331	-0.180072
H157	H	1.854196	-0.950074	-0.365986
H158	H	1.862171	-0.985007	-0.259563
H159	H	1.396194	-0.542822	-0.627858
H160	H	1.396439	-0.943662	-0.627964
O161	O	1.785363	-0.143306	-0.898442
C162	C	1.770910	-0.151947	-0.789827
H163	H	1.736434	-0.200525	-0.774809
H164	H	1.715008	-0.114607	-0.758698
C165	C	1.919557	-0.086543	-0.751965
C166	C	1.877220	-0.146209	-0.733518
H167	H	1.985132	-0.083000	-0.717229
H168	H	1.929292	-0.080718	-0.825140
H169	H	1.872961	-0.055433	-0.726024
H170	H	1.923809	-0.177318	-0.759471
H171	H	1.867495	-0.152039	-0.660345
H172	H	1.652829	-0.222616	-0.807629
H173	H	1.774863	-0.149521	-1.106283
