data_functionalizedCrystal
_audit_creation_method	'MofGen! by Chris Wilmer'
_symmetry_space_group_name_H-M	'P1'
_symmetry_Int_Tables_number	1
_symmetry_cell_setting	triclinic
loop_
_symmetry_equiv_pos_as_xyz
  x,y,z
_cell_length_a	14.421503
_cell_length_b	16.109301
_cell_length_c	16.109301
_cell_angle_alpha	83.461481
_cell_angle_beta	90.002868
_cell_angle_gamma	89.995091
loop_
_atom_site_label
_atom_site_type_symbol
_atom_site_fract_x
_atom_site_fract_y
_atom_site_fract_z
O1	O	0.077056	-1.103137	-0.106856
O2	O	0.410389	-0.769804	0.226478
O3	O	0.743723	-0.436470	0.559811
O4	O	0.077071	-0.861075	-0.120155
O5	O	0.410404	-0.527742	0.213178
O6	O	0.743738	-0.194408	0.546512
O7	O	0.077054	-0.988756	0.007526
O8	O	0.410387	-0.655422	0.340859
O9	O	0.743720	-0.322089	0.674192
O10	O	0.077073	-0.975456	-0.234536
O11	O	0.410407	-0.642123	0.098797
O12	O	0.743740	-0.308790	0.432130
O13	O	-0.077170	-0.988734	0.007507
O14	O	0.256164	-0.655401	0.340840
O15	O	0.589497	-0.322068	0.674173
O16	O	-0.077152	-0.861054	-0.120174
O17	O	0.256181	-0.527720	0.213159
O18	O	0.589514	-0.194387	0.546493
O19	O	-0.077167	-1.103116	-0.106875
O20	O	0.256166	-0.769782	0.226459
O21	O	0.589499	-0.436449	0.559792
Cu22	Cu	-0.091242	-0.982083	-0.113526
Cu23	Cu	0.242092	-0.648750	0.219807
Cu24	Cu	0.575425	-0.315416	0.553141
Cu25	Cu	0.091145	-0.982108	-0.113504
Cu26	Cu	0.424479	-0.648775	0.219830
Cu27	Cu	0.757812	-0.315441	0.553163
O28	O	-0.077150	-0.975435	-0.234555
O29	O	0.256183	-0.642102	0.098778
O30	O	0.589517	-0.308768	0.432111
C31	C	-0.000039	-0.830090	-0.119626
C32	C	0.333295	-0.496756	0.213708
C33	C	0.666628	-0.163423	0.547041
C34	C	-0.000033	-0.737794	-0.118011
C35	C	0.333300	-0.404461	0.215323
C36	C	0.666633	-0.071128	0.548656
N37	N	-0.219523	-0.982071	-0.113541
N38	N	0.113810	-0.648738	0.219792
N39	N	0.447144	-0.315405	0.553125
C40	C	-0.000058	-0.988206	0.038491
C41	C	0.333275	-0.654873	0.371824
C42	C	0.666608	-0.321540	0.705158
C43	C	-0.000060	-0.986591	0.130786
C44	C	0.333274	-0.653258	0.464120
C45	C	0.666607	-0.319925	0.797453
C46	C	-0.469169	-0.923021	-0.172554
C47	C	-0.135835	-0.589688	0.160779
C48	C	0.197498	-0.256355	0.494112
C49	C	-0.530974	-0.998143	-0.188671
C50	C	-0.197641	-0.664809	0.144662
C51	C	0.135692	-0.331476	0.477996
C52	C	-0.408684	-0.982092	-0.113521
C53	C	-0.075351	-0.648758	0.219812
C54	C	0.257982	-0.315425	0.553145
C55	C	-0.530972	-0.906990	-0.097424
C56	C	-0.197639	-0.573656	0.235909
C57	C	0.135694	-0.240323	0.569242
C58	C	-0.591406	-0.982104	-0.113504
C59	C	-0.258072	-0.648771	0.219829
C60	C	0.075261	-0.315438	0.553162
C61	C	-0.469129	-1.057251	-0.129675
C62	C	-0.135796	-0.723917	0.203658
C63	C	0.197537	-0.390584	0.536991
C64	C	-0.469122	-0.966048	-0.038396
C65	C	-0.135789	-0.632715	0.294937
C66	C	0.197545	-0.299382	0.628270
C67	C	-0.530900	-1.041224	-0.054481
C68	C	-0.197567	-0.707891	0.278852
C69	C	0.135767	-0.374557	0.612186
C70	C	-0.303423	-0.982083	-0.113534
C71	C	0.029910	-0.648750	0.219800
C72	C	0.363243	-0.315416	0.553133
C73	C	-0.696665	-0.982122	-0.113491
C74	C	-0.363331	-0.648788	0.219842
C75	C	-0.029998	-0.315455	0.553175
N76	N	0.219427	-0.982126	-0.113482
N77	N	0.552760	-0.648793	0.219852
N78	N	0.886093	-0.315459	0.553185
C79	C	-0.000056	-1.134101	-0.107404
C80	C	0.333278	-0.800768	0.225929
C81	C	0.666611	-0.467435	0.559263
C82	C	-0.000055	-1.226397	-0.109019
C83	C	0.333278	-0.893063	0.224314
C84	C	0.666612	-0.559730	0.557648
C85	C	-0.000038	-0.515522	-0.190018
C86	C	0.333295	-0.182188	0.143315
C87	C	0.666628	0.151145	0.476648
C88	C	-0.000044	-0.428801	-0.188494
C89	C	0.333289	-0.095468	0.144839
C90	C	0.666622	0.237865	0.478172
C91	C	-0.000053	-0.448676	-0.037006
C92	C	0.333281	-0.115342	0.296328
C93	C	0.666614	0.217991	0.629661
C94	C	-0.000053	-0.535394	-0.038530
C95	C	0.333280	-0.202061	0.294803
C96	C	0.666613	0.131272	0.628136
C97	C	-0.000041	-0.568815	-0.115039
C98	C	0.333292	-0.235482	0.218294
C99	C	0.666625	0.097852	0.551627
C100	C	-0.000047	-0.395376	-0.111990
C101	C	0.333286	-0.062042	0.221343
C102	C	0.666620	0.271291	0.554676
C103	C	-0.000053	-0.301350	-0.110337
C104	C	0.333280	0.031984	0.222996
C105	C	0.666613	0.365317	0.556329
C106	C	-0.000037	-0.662847	-0.116693
C107	C	0.333297	-0.329514	0.216641
C108	C	0.666630	0.003820	0.549974
C109	C	-0.000036	-0.975984	-0.265521
C110	C	0.333297	-0.642651	0.067813
C111	C	0.666631	-0.309318	0.401146
C112	C	-0.000029	-0.977600	-0.357816
C113	C	0.333305	-0.644266	-0.024483
C114	C	0.666638	-0.310933	0.308851
C115	C	-0.000049	-1.058599	0.353059
C116	C	0.333284	-0.725266	0.686392
C117	C	0.666617	-0.391932	1.019725
C118	C	-0.000042	-1.057075	0.439779
C119	C	0.333292	-0.723742	0.773112
C120	C	0.666625	-0.390408	1.106446
C121	C	-0.000036	-0.905586	0.419905
C122	C	0.333297	-0.572253	0.753238
C123	C	0.666631	-0.238919	1.086571
C124	C	-0.000037	-0.907111	0.333186
C125	C	0.333296	-0.573778	0.666519
C126	C	0.666630	-0.240444	0.999853
C127	C	-0.000049	-0.983620	0.299766
C128	C	0.333285	-0.650287	0.633099
C129	C	0.666618	-0.316953	0.966432
C130	C	-0.000040	-0.980571	0.473205
C131	C	0.333294	-0.647238	0.806538
C132	C	0.666627	-0.313904	1.139871
C133	C	-0.000031	-0.978918	0.567231
C134	C	0.333302	-0.645585	0.900564
C135	C	0.666635	-0.312251	1.233897
C136	C	-0.000055	-0.985273	0.205734
C137	C	0.333278	-0.651940	0.539067
C138	C	0.666612	-0.318607	0.872400
H139	H	-0.442064	-0.873118	-0.222517
H140	H	-0.108731	-0.539785	0.110817
H141	H	0.224603	-0.206452	0.444150
Br142	Br	-0.000038	-1.158837	0.512103
Br143	Br	0.333296	-0.825503	0.845437
Br144	Br	0.666629	-0.492170	1.178770
H145	H	-0.000044	-0.385413	-0.249550
H146	H	0.333290	-0.052080	0.083783
H147	H	0.666623	0.281254	0.417117
Br148	Br	-0.000018	-0.801758	0.465267
Br149	Br	0.333316	-0.468424	0.798600
Br150	Br	0.666649	-0.135091	1.131934
Br151	Br	-0.000069	-0.607728	0.063234
Br152	Br	0.333264	-0.274394	0.396568
Br153	Br	0.666597	0.058939	0.729901
H154	H	-0.000033	-0.846050	0.289792
H155	H	0.333300	-0.512717	0.623126
H156	H	0.666633	-0.179384	0.956459
H157	H	-0.558143	-1.011724	-0.252195
H158	H	-0.224809	-0.678391	0.081138
H159	H	0.108524	-0.345058	0.414472
Br160	Br	-0.424050	-1.163144	-0.152477
Br161	Br	-0.090717	-0.829811	0.180856
Br162	Br	0.242616	-0.496478	0.514189
H163	H	-0.441932	-0.952443	0.025108
H164	H	-0.108599	-0.619110	0.358441
H165	H	0.224734	-0.285776	0.691774
Br166	Br	-0.576255	-0.801125	-0.074743
Br167	Br	-0.242922	-0.467791	0.258590
Br168	Br	0.090412	-0.134458	0.591924
Br169	Br	-0.575800	-1.124579	0.028744
Br170	Br	-0.242467	-0.791246	0.362077
Br171	Br	0.090866	-0.457912	0.695411
H172	H	-0.000035	-0.542730	-0.252317
H173	H	0.333298	-0.209396	0.081017
H174	H	0.666631	0.123937	0.414350
H175	H	-0.000068	-0.421454	0.025285
H176	H	0.333265	-0.088121	0.358619
H177	H	0.666599	0.245213	0.691952
H178	H	-0.000057	-1.120897	0.325851
H179	H	0.333276	-0.787564	0.659184
H180	H	0.666610	-0.454231	0.992518
