data_functionalizedCrystal
_audit_creation_method	'MofGen! by Chris Wilmer'
_symmetry_space_group_name_H-M	'P1'
_symmetry_Int_Tables_number	1
_symmetry_cell_setting	triclinic
loop_
_symmetry_equiv_pos_as_xyz
  x,y,z
_cell_length_a	14.853567
_cell_length_b	14.853567
_cell_length_c	12.376457
_cell_angle_alpha	101.296114
_cell_angle_beta	78.693749
_cell_angle_gamma	83.634930
loop_
_atom_site_label
_atom_site_type_symbol
_atom_site_fract_x
_atom_site_fract_y
_atom_site_fract_z
O1	O	1.213616	0.100462	-0.093918
O2	O	1.713616	0.600462	0.406082
O3	O	0.951160	0.114480	-0.093936
O4	O	1.451160	0.614480	0.406064
O5	O	1.089400	-0.023759	-0.093930
O6	O	1.589400	0.476241	0.406070
O7	O	1.075377	0.238701	-0.093924
O8	O	1.575377	0.738701	0.406076
O9	O	1.054852	0.010753	0.094081
O10	O	1.554852	0.510753	0.594081
O11	O	0.916613	0.148993	0.094075
O12	O	1.416613	0.648993	0.594075
O13	O	1.179069	0.134975	0.094093
O14	O	1.679069	0.634975	0.594093
Zn15	Zn	1.042356	0.147463	0.123935
Zn16	Zn	1.542356	0.647463	0.623935
Zn17	Zn	1.087874	0.101991	-0.123777
Zn18	Zn	1.587874	0.601991	0.376223
O19	O	1.040830	0.273214	0.094087
O20	O	1.540830	0.773214	0.594087
C21	C	0.900298	0.131100	0.000067
C22	C	1.400298	0.631100	0.500067
C23	C	0.800216	0.129195	0.000060
C24	C	1.300216	0.629195	0.500060
C25	C	1.071491	-0.040092	0.000072
C26	C	1.571491	0.459908	0.500072
C27	C	1.069589	-0.140178	0.000062
C28	C	1.569589	0.359822	0.500062
C29	C	0.387678	0.039034	0.000083
C30	C	0.887678	0.539034	0.500083
C31	C	0.366396	0.203267	0.000086
C32	C	0.866396	0.703267	0.500086
C33	C	0.460431	0.205057	0.000082
C34	C	0.960431	0.705057	0.500082
C35	C	0.518093	0.123833	0.000077
C36	C	1.018093	0.623833	0.500077
C37	C	0.481722	0.040820	0.000076
C38	C	0.981722	0.540820	0.500076
C39	C	0.496812	0.288066	0.000072
C40	C	0.996812	0.788066	0.500072
C41	C	0.590852	0.289858	0.000067
C42	C	1.090852	0.789858	0.500067
C43	C	0.648515	0.208635	0.000070
C44	C	1.148515	0.708635	0.500070
C45	C	0.612138	0.125619	0.000070
C46	C	1.112138	0.625619	0.500070
C47	C	0.669800	0.044396	0.000065
C48	C	1.169800	0.544396	0.500065
C49	C	0.633423	-0.038620	0.000074
C50	C	1.133423	0.461380	0.500074
C51	C	0.539385	-0.040403	0.000079
C52	C	1.039385	0.459597	0.500079
C53	C	0.742553	0.210419	0.000064
C54	C	1.242553	0.710419	0.500064
C55	C	0.763844	0.046182	0.000059
C56	C	1.263844	0.546182	0.500059
C57	C	0.979421	-0.552709	0.000078
C58	C	1.479421	-0.052709	0.500078
C59	C	1.143651	-0.573988	0.000089
C60	C	1.643651	-0.073988	0.500089
C61	C	1.145443	-0.479955	0.000083
C62	C	1.645443	0.020045	0.500083
C63	C	1.064221	-0.422295	0.000075
C64	C	1.564221	0.077705	0.500075
C65	C	0.981209	-0.458667	0.000075
C66	C	1.481209	0.041333	0.500075
C67	C	1.228452	-0.443574	0.000095
C68	C	1.728452	0.056426	0.500095
C69	C	1.230246	-0.349536	0.000089
C70	C	1.730246	0.150464	0.500089
C71	C	1.149025	-0.291875	0.000074
C72	C	1.649025	0.208125	0.500074
C73	C	1.066010	-0.328253	0.000072
C74	C	1.566010	0.171747	0.500072
C75	C	0.984788	-0.270592	0.000065
C76	C	1.484788	0.229408	0.500065
C77	C	0.901773	-0.306969	0.000055
C78	C	1.401773	0.193031	0.500055
C79	C	0.899988	-0.401006	0.000059
C80	C	1.399988	0.098994	0.500059
C81	C	1.150810	-0.197838	0.000070
C82	C	1.650810	0.302162	0.500070
C83	C	0.986577	-0.176550	0.000062
C84	C	1.486577	0.323450	0.500062
C85	C	1.229931	0.118353	0.000088
C86	C	1.729931	0.618353	0.500088
C87	C	1.330015	0.120257	0.000088
C88	C	1.830015	0.620257	0.500088
C89	C	1.058738	0.289546	0.000082
C90	C	1.558738	0.789546	0.500082
C91	C	1.060642	0.389630	0.000085
C92	C	1.560642	0.889630	0.500085
N93	N	1.011297	0.178496	0.292992
N94	N	1.511297	0.678496	0.792992
N95	N	1.118939	0.070951	-0.292834
N96	N	1.618939	0.570951	0.207166
C97	C	1.191035	-0.001104	0.647985
C98	C	1.691035	0.498896	1.147985
C99	C	1.212767	-0.022824	0.529646
C100	C	1.712767	0.477176	1.029646
C101	C	1.162402	0.027504	0.470476
C102	C	1.662402	0.527504	0.970476
C103	C	1.090300	0.099556	0.529658
C104	C	1.590300	0.599556	1.029658
C105	C	1.068570	0.121283	0.648008
C106	C	1.568570	0.621283	1.148008
C107	C	1.039936	0.149891	0.470500
C108	C	1.539936	0.649891	0.970500
C109	C	0.967835	0.221943	0.529681
C110	C	1.467835	0.721943	1.029681
C111	C	0.946108	0.243666	0.648020
C112	C	1.446108	0.743666	1.148020
C113	C	0.996474	0.193338	0.707189
C114	C	1.496474	0.693338	1.207189
C115	C	1.061667	0.128164	0.352149
C116	C	1.561667	0.628164	0.852149
C117	C	0.939201	0.250551	0.352173
C118	C	1.439201	0.750551	0.852173
C119	C	0.917469	0.272271	0.470512
C120	C	1.417469	0.772271	0.970512
H121	H	0.810787	-0.019960	0.000059
H122	H	1.310787	0.480040	0.500059
F123	F	1.138400	0.051483	0.289178
F124	F	1.638400	0.551483	0.789178
H125	H	1.180100	0.009816	0.374120
H126	H	1.680100	0.509816	0.874120
H127	H	0.358055	-0.028555	0.000094
H128	H	0.858055	0.471445	0.500094
F129	F	1.314883	-0.504940	0.000123
F130	F	1.814883	-0.004940	0.500123
H131	H	0.680386	-0.104753	0.000062
H132	H	1.180386	0.395247	0.500062
F133	F	0.500664	-0.128747	0.000084
F134	F	1.000664	0.371253	0.500084
F135	F	0.815333	-0.245591	0.000056
F136	F	1.315333	0.254409	0.500056
F137	F	1.289500	-0.099502	0.466665
F138	F	1.789500	0.400498	0.966665
H139	H	1.232041	-0.042070	0.696168
H140	H	1.732041	0.457930	1.196168
F141	F	1.318599	-0.310832	0.000086
F142	F	1.818599	0.189168	0.500086
H143	H	0.620461	0.357455	0.000060
H144	H	1.120461	0.857455	0.500060
H145	H	0.449859	0.354191	0.000064
H146	H	0.949859	0.854191	0.500064
F147	F	0.973341	0.216451	0.833141
F148	F	1.473341	0.716451	1.333141
F149	F	0.840734	0.348953	0.533509
F150	F	1.340734	0.848953	1.033509
H151	H	0.832401	-0.430633	0.000052
H152	H	1.332401	0.069367	0.500052
F153	F	0.305029	0.289703	0.000077
F154	F	0.805029	0.789703	0.500077
F155	F	0.869380	0.320359	0.711005
F156	F	1.369380	0.820359	1.211005
F157	F	0.781266	0.298762	0.000048
F158	F	1.281266	0.798762	0.500048
F159	F	0.885598	0.304120	0.289205
F160	F	1.385598	0.804120	0.789205
H161	H	0.920436	-0.129609	0.000051
H162	H	1.420436	0.370391	0.500051
H163	H	0.911832	-0.582333	0.000065
H164	H	1.411832	-0.082333	0.500065
H165	H	1.209776	-0.620939	0.000104
H166	H	1.709776	-0.120939	0.500104
H167	H	1.218399	-0.168223	0.000085
H168	H	1.718399	0.331777	0.500085
