data_functionalizedCrystal
_audit_creation_method	'MofGen! by Chris Wilmer'
_symmetry_space_group_name_H-M	'P1'
_symmetry_Int_Tables_number	1
_symmetry_cell_setting	triclinic
loop_
_symmetry_equiv_pos_as_xyz
  x,y,z
_cell_length_a	16.992701
_cell_length_b	13.596369
_cell_length_c	16.974813
_cell_angle_alpha	93.660550
_cell_angle_beta	87.023742
_cell_angle_gamma	90.005303
loop_
_atom_site_label
_atom_site_type_symbol
_atom_site_fract_x
_atom_site_fract_y
_atom_site_fract_z
O1	O	1.040212	0.095139	0.167641
O2	O	1.540212	0.595139	0.667641
O3	O	0.811928	0.094994	0.165804
O4	O	1.311928	0.594994	0.665804
O5	O	0.932434	0.085932	0.052021
O6	O	1.432434	0.585932	0.552021
O7	O	0.919706	0.104201	0.281424
O8	O	1.419706	0.604201	0.781424
O9	O	0.932422	-0.077651	0.052014
O10	O	1.432422	0.422349	0.552014
O11	O	0.811916	-0.068590	0.165797
O12	O	1.311916	0.431410	0.665797
O13	O	1.040200	-0.068444	0.167634
O14	O	1.540200	0.431556	0.667634
Zn15	Zn	0.926056	-0.094489	0.166714
Zn16	Zn	1.426056	0.405511	0.666714
Zn17	Zn	0.926072	0.121039	0.166724
Zn18	Zn	1.426072	0.621039	0.666724
O19	O	0.919694	-0.059383	0.281417
O20	O	1.419694	0.440617	0.781417
C21	C	0.782712	0.013014	0.163435
C22	C	1.282712	0.513014	0.663435
C23	C	0.695676	0.012452	0.156376
C24	C	1.195676	0.512452	0.656376
N25	N	0.926051	-0.241582	0.166708
N26	N	1.426051	0.258418	0.666708
C27	C	0.206767	0.008679	0.108947
C28	C	0.706767	0.508679	0.608947
C29	C	0.288547	0.009201	0.115586
C30	C	0.788547	0.509201	0.615586
C31	C	0.320009	0.015159	0.190340
C32	C	0.820009	0.515159	0.690340
C33	C	0.269688	0.020584	0.258461
C34	C	0.769688	0.520584	0.758461
C35	C	0.187910	0.020054	0.251822
C36	C	0.687910	0.520054	0.751822
C37	C	0.563577	0.017347	0.217857
C38	C	1.063577	0.517347	0.717857
C39	C	0.645361	0.017880	0.224491
C40	C	1.145361	0.517880	0.724491
C41	C	0.664214	0.006495	0.081615
C42	C	1.164214	0.506495	0.581615
C43	C	0.582434	0.005972	0.074983
C44	C	1.082434	0.505972	0.574983
C45	C	0.532120	0.011392	0.143103
C46	C	1.032120	0.511392	0.643103
N47	N	0.403601	0.015696	0.197128
N48	N	0.903601	0.515696	0.697128
N49	N	0.448530	0.010847	0.136315
N50	N	0.948530	0.510847	0.636315
C51	C	0.926071	-0.642871	0.166725
C52	C	1.426071	-0.142871	0.666725
C53	C	0.926063	-0.531220	0.166723
C54	C	1.426063	-0.031220	0.666723
C55	C	0.926061	-0.442230	0.166717
C56	C	1.426061	0.057770	0.666717
C57	C	0.926053	-0.330572	0.166714
C58	C	1.426053	0.169428	0.666714
C59	C	1.069416	0.013538	0.170004
C60	C	1.569416	0.513538	0.670004
C61	C	1.156452	0.014106	0.177062
C62	C	1.656452	0.514106	0.677062
C63	C	0.931944	0.001794	0.022529
C64	C	1.431944	0.501794	0.522529
C65	C	0.930491	-0.005197	-0.065340
C66	C	1.430491	0.494803	0.434660
N67	N	0.926083	0.268131	0.166725
N68	N	1.426083	0.768131	0.666725
C69	C	0.929817	0.080687	-0.106613
C70	C	1.429817	0.580687	0.393387
C71	C	0.928448	0.074115	-0.189174
C72	C	1.428448	0.574115	0.310826
C73	C	0.927758	-0.018342	-0.230462
C74	C	1.427758	0.481658	0.269538
C75	C	0.928430	-0.104233	-0.189184
C76	C	1.428430	0.395767	0.310816
C77	C	0.929793	-0.097660	-0.106624
C78	C	1.429793	0.402340	0.393376
C79	C	0.923673	-0.047562	-0.477382
C80	C	1.423673	0.452438	0.022618
C81	C	0.922311	-0.054129	-0.559949
C82	C	1.422311	0.445871	-0.059949
C83	C	0.922328	0.124220	-0.559933
C84	C	1.422328	0.624220	-0.059933
C85	C	0.923697	0.130785	-0.477372
C86	C	1.423697	0.630785	0.022628
C87	C	0.924364	0.044894	-0.436100
C88	C	1.424364	0.544894	0.063900
N89	N	0.926360	-0.025062	-0.314854
N90	N	1.426360	0.474938	0.185146
N91	N	0.925756	0.051615	-0.351710
N92	N	1.425756	0.551615	0.148290
C93	C	0.920185	0.024758	0.310910
C94	C	1.420185	0.524758	0.810910
C95	C	0.921637	0.031755	0.398779
C96	C	1.421637	0.531755	0.898779
H97	H	0.181157	0.003833	0.048074
H98	H	0.681157	0.503833	0.548074
C99	C	0.930576	0.182398	-0.061203
C100	C	1.430576	0.682398	0.438797
N101	N	0.931144	0.259010	-0.027003
N102	N	1.431144	0.759010	0.472997
C103	C	0.924456	0.232495	-0.431961
C104	C	1.424456	0.732495	0.068039
N105	N	0.925030	0.309104	-0.397758
N106	N	1.425030	0.809104	0.102242
C107	C	0.679967	0.024432	0.306731
C108	C	1.179967	0.524432	0.806731
N109	N	0.706033	0.029370	0.368671
N110	N	1.206033	0.529370	0.868671
H111	H	0.146944	0.024471	0.307289
H112	H	0.646944	0.524471	0.807289
C113	C	0.508242	0.023297	0.292793
C114	C	1.008242	0.523297	0.792793
N115	N	0.466560	0.027772	0.349238
N116	N	0.966560	0.527772	0.849238
C117	C	0.719565	0.000518	0.006688
C118	C	1.219565	0.500518	0.506688
N119	N	0.761257	-0.003991	-0.049750
N120	N	1.261257	0.496009	0.450250
H121	H	0.329510	0.004777	0.060119
H122	H	0.829510	0.504777	0.560119
C123	C	0.547832	-0.000603	-0.007253
C124	C	1.047832	0.499397	0.492747
N125	N	0.521769	-0.005559	-0.069195
N126	N	1.021769	0.494441	0.430805
C127	C	0.304300	0.027134	0.340692
C128	C	0.804300	0.527134	0.840692
N129	N	0.330369	0.032072	0.402631
N130	N	0.830369	0.532072	0.902631
C131	C	0.921585	0.218693	-0.605338
C132	C	1.421585	0.718693	-0.105338
N133	N	0.921021	0.289854	-0.639537
N134	N	1.421021	0.789854	-0.139537
H135	H	0.927863	-0.179514	-0.222807
H136	H	1.427863	0.320486	0.277193
H137	H	0.930331	-0.167596	-0.073020
H138	H	1.430331	0.332404	0.426980
C139	C	0.921549	-0.155843	-0.605364
C140	C	1.421549	0.344157	-0.105364
N141	N	0.920976	-0.232451	-0.639571
N142	N	1.420976	0.267549	-0.139571
H143	H	0.924232	-0.117501	-0.443790
H144	H	1.424232	0.382499	0.056210
H145	H	0.927902	0.144051	-0.222775
H146	H	1.427902	0.644051	0.277225
