data_functionalizedCrystal
_audit_creation_method	'MofGen! by Chris Wilmer'
_symmetry_space_group_name_H-M	'P1'
_symmetry_Int_Tables_number	1
_symmetry_cell_setting	triclinic
loop_
_symmetry_equiv_pos_as_xyz
  x,y,z
_cell_length_a	11.792241
_cell_length_b	11.792254
_cell_length_c	9.130313
_cell_angle_alpha	90.002988
_cell_angle_beta	90.000548
_cell_angle_gamma	84.196007
loop_
_atom_site_label
_atom_site_type_symbol
_atom_site_fract_x
_atom_site_fract_y
_atom_site_fract_z
O1	O	1.506917	0.155564	0.121658
O2	O	1.176576	0.171597	0.121692
O3	O	1.349755	-0.001589	0.121664
O4	O	1.333737	0.328750	0.121686
O5	O	1.349739	-0.001588	-0.121935
O6	O	1.176560	0.171598	-0.121907
O7	O	1.506900	0.155565	-0.121941
Cu8	Cu	1.341728	0.163581	-0.144166
Cu9	Cu	1.341748	0.163580	0.143917
O10	O	1.333721	0.328751	-0.121913
C11	C	1.134277	0.170590	-0.000103
C12	C	1.008263	0.167576	-0.000090
C13	C	0.777551	0.162033	-0.000133
C14	C	0.905936	0.165112	-0.000109
C15	C	1.348738	-0.043880	-0.000135
C16	C	1.345718	-0.169893	-0.000134
C17	C	1.343264	-0.272229	-0.000128
C18	C	1.340196	-0.400616	-0.000114
C19	C	1.549199	0.156571	-0.000143
C20	C	1.675213	0.159586	-0.000146
C21	C	1.334738	0.371041	-0.000111
C22	C	1.337758	0.497054	-0.000103
N23	N	1.341723	0.163581	-0.346789
C24	C	1.265029	0.240234	-0.423466
C25	C	1.265051	0.240232	-0.576803
C26	C	1.418465	0.086915	-0.576772
C27	C	1.418447	0.086923	-0.423438
C28	C	1.176453	0.328748	-0.423485
C29	C	1.176475	0.328746	-0.576822
N30	N	1.341762	0.163571	0.346540
H31	H	1.480932	0.024502	-0.639196
O32	O	1.072568	0.305537	-0.626482
C33	C	1.049093	0.197670	-0.574873
H34	H	1.132501	0.144385	-0.547534
H35	H	0.993952	0.208697	-0.472299
C36	C	0.882820	0.202372	-0.727568
C37	C	0.985264	0.136922	-0.694002
H38	H	0.843443	0.164900	-0.801048
H39	H	0.898632	0.275046	-0.762334
H40	H	0.836883	0.211556	-0.642079
H41	H	1.031205	0.127752	-0.779484
H42	H	0.969458	0.064245	-0.659252
O43	O	1.492997	0.012361	-0.349180
C44	C	1.560733	-0.055279	-0.449718
H45	H	1.514205	-0.056888	-0.559028
H46	H	1.645266	-0.017843	-0.466011
C47	C	1.640533	-0.175584	-0.255613
C48	C	1.583382	-0.177568	-0.389866
H49	H	1.654510	-0.251016	-0.218693
H50	H	1.594901	-0.130012	-0.187878
H51	H	1.710971	-0.144382	-0.269209
H52	H	1.512940	-0.208756	-0.376265
H53	H	1.629003	-0.223148	-0.457598
O54	O	1.199171	0.432857	-0.374001
C55	C	1.114966	0.516753	-0.425586
H56	H	1.073615	0.484240	-0.528156
H57	H	1.047341	0.536138	-0.337393
C58	C	1.220981	0.666067	-0.336536
C59	C	1.170199	0.626136	-0.462521
H60	H	1.255049	0.733541	-0.359314
H61	H	1.277710	0.609545	-0.301777
H62	H	1.164618	0.682211	-0.263053
H63	H	1.226564	0.609979	-0.535994
H64	H	1.113481	0.682658	-0.497294
O65	O	1.078112	0.296222	-0.366835
C66	C	0.985268	0.371858	-0.414726
H67	H	1.016736	0.456828	-0.446215
H68	H	0.944028	0.334014	-0.513918
C69	C	0.858399	0.286459	-0.251835
C70	C	0.897048	0.390824	-0.290499
H71	H	0.803978	0.298155	-0.175210
H72	H	0.920949	0.235498	-0.219574
H73	H	0.824040	0.254933	-0.334506
H74	H	0.931418	0.422341	-0.207834
H75	H	0.834502	0.441790	-0.322744
O76	O	1.209331	0.426900	-0.633621
C77	C	1.307500	0.401657	-0.720478
H78	H	1.353683	0.316586	-0.684638
H79	H	1.281644	0.396270	-0.840396
C80	C	1.330555	0.600763	-0.745799
C81	C	1.387282	0.496281	-0.701771
H82	H	1.379767	0.659133	-0.734266
H83	H	1.264414	0.617771	-0.687286
H84	H	1.309011	0.596257	-0.845728
H85	H	1.408813	0.500784	-0.601839
H86	H	1.453429	0.479276	-0.760267
