data_functionalizedCrystal
_audit_creation_method	'MofGen! by Chris Wilmer'
_symmetry_space_group_name_H-M	'P1'
_symmetry_Int_Tables_number	1
_symmetry_cell_setting	triclinic
loop_
_symmetry_equiv_pos_as_xyz
  x,y,z
_cell_length_a	25.639242
_cell_length_b	25.639240
_cell_length_c	25.639243
_cell_angle_alpha	90.016535
_cell_angle_beta	90.004678
_cell_angle_gamma	90.025061
loop_
_atom_site_label
_atom_site_type_symbol
_atom_site_fract_x
_atom_site_fract_y
_atom_site_fract_z
Zn1	Zn	0.799197	-0.208370	0.295607
Zn2	Zn	1.299197	0.291630	0.795607
Zn3	Zn	0.799144	-0.295775	0.208160
Zn4	Zn	1.299144	0.204225	0.708160
Zn5	Zn	0.711788	-0.208343	0.208183
Zn6	Zn	1.211788	0.291657	0.708183
Zn7	Zn	0.711727	-0.295765	0.295562
Zn8	Zn	1.211727	0.204235	0.795562
O9	O	0.755464	-0.252063	0.251878
O10	O	1.255464	0.247937	0.751878
O11	O	0.872355	-0.219980	0.284016
O12	O	1.372355	0.280020	0.784016
O13	O	0.787559	-0.284170	0.134998
O14	O	1.287559	0.215830	0.634998
O15	O	0.723430	-0.135182	0.219808
O16	O	1.223430	0.364818	0.719808
O17	O	0.872316	-0.284196	0.219770
O18	O	1.372316	0.215804	0.719770
O19	O	0.787649	-0.135201	0.284038
O20	O	1.287649	0.364799	0.784038
O21	O	0.723379	-0.219934	0.135015
O22	O	1.223379	0.280066	0.635015
O23	O	0.638614	-0.219925	0.219765
O24	O	1.138614	0.280075	0.719765
O25	O	0.723327	-0.284179	0.368733
O26	O	1.223327	0.215821	0.868733
O27	O	0.638570	-0.284153	0.283962
O28	O	1.138570	0.215847	0.783962
O29	O	0.787590	-0.219970	0.368766
O30	O	1.287590	0.280030	0.868766
O31	O	0.787500	-0.368939	0.219726
O32	O	1.287500	0.131061	0.719726
O33	O	0.723276	-0.368931	0.283940
O34	O	1.223276	0.131069	0.783940
C35	C	0.619621	-0.252035	0.251861
C36	C	1.119621	0.247965	0.751861
C37	C	0.561507	-0.252036	0.251866
C38	C	1.061507	0.247964	0.751866
C39	C	0.310342	-0.218686	0.285392
C40	C	0.810342	0.281314	0.785392
C41	C	0.364946	-0.218680	0.285389
C42	C	0.864946	0.281320	0.785389
O43	O	0.393207	-0.190302	0.313891
O44	O	0.893207	0.309698	0.813891
N45	N	0.392233	-0.252057	0.251884
N46	N	0.892233	0.247943	0.751884
C47	C	0.364913	-0.285445	0.218383
C48	C	0.864913	0.214555	0.718383
O49	O	0.393137	-0.313835	0.189885
O50	O	0.893137	0.186165	0.689885
C51	C	0.310310	-0.285452	0.218389
C52	C	0.810310	0.214548	0.718389
C53	C	0.283026	-0.252070	0.251893
C54	C	0.783026	0.247930	0.751893
C55	C	0.283058	-0.185306	0.318894
C56	C	0.783058	0.314694	0.818894
C57	C	0.228457	-0.185311	0.318896
C58	C	0.728457	0.314689	0.818896
C59	C	0.201141	-0.218695	0.285397
C60	C	0.701141	0.281305	0.785397
C61	C	0.228425	-0.252074	0.251895
C62	C	0.728425	0.247926	0.751895
C63	C	0.282991	-0.318843	0.184892
C64	C	0.782991	0.181157	0.684892
C65	C	0.228384	-0.318847	0.184901
C66	C	0.728384	0.181153	0.684901
C67	C	0.201100	-0.285465	0.218405
C68	C	0.701100	0.214535	0.718405
C69	C	0.146508	-0.285463	0.218398
C70	C	0.646508	0.214537	0.718398
N71	N	0.119221	-0.252086	0.251903
N72	N	0.619221	0.247914	0.751903
C73	C	0.146538	-0.218702	0.285403
C74	C	0.646538	0.281298	0.785403
C75	C	0.479584	-0.285428	0.218374
C76	C	0.979584	0.214572	0.718374
C77	C	0.534186	-0.285418	0.218365
C78	C	1.034186	0.214582	0.718365
C79	C	0.534215	-0.218654	0.285372
C80	C	1.034215	0.281346	0.785372
C81	C	0.479612	-0.218661	0.285378
C82	C	0.979612	0.281339	0.785378
C83	C	0.452297	-0.252051	0.251879
C84	C	0.952297	0.247949	0.751879
C85	C	0.031872	-0.218714	0.285404
C86	C	0.531872	0.281286	0.785404
C87	C	-0.022733	-0.218720	0.285402
C88	C	0.477267	0.281280	0.785402
C89	C	-0.022757	-0.285486	0.218397
C90	C	0.477243	0.214514	0.718397
C91	C	0.031843	-0.285478	0.218398
C92	C	0.531843	0.214522	0.718398
C93	C	0.059157	-0.252090	0.251905
C94	C	0.559157	0.247910	0.751905
O95	O	0.118213	-0.313828	0.189913
O96	O	0.618213	0.186172	0.689913
O97	O	0.118307	-0.190322	0.313901
O98	O	0.618307	0.309678	0.813901
C99	C	0.755390	-0.387906	0.251837
C100	C	1.255390	0.112094	0.751837
C101	C	0.755406	-0.446020	0.251837
C102	C	1.255406	0.053980	0.751837
C103	C	0.788919	-0.806355	0.285383
C104	C	1.288919	-0.306355	0.785383
C105	C	0.788935	-0.860959	0.285394
C106	C	1.288935	-0.360959	0.785394
O107	O	0.817341	-0.889172	0.313873
O108	O	1.317341	-0.389172	0.813873
N109	N	0.755536	-0.888302	0.251929
N110	N	1.255536	-0.388302	0.751929
C111	C	0.722117	-0.861038	0.218455
C112	C	1.222117	-0.361038	0.718455
O113	O	0.693710	-0.889310	0.189991
O114	O	1.193710	-0.389310	0.689991
C115	C	0.722099	-0.806435	0.218447
C116	C	1.222099	-0.306435	0.718447
C117	C	0.755503	-0.779095	0.251910
C118	C	1.255503	-0.279095	0.751910
C119	C	0.822320	-0.779014	0.318844
C120	C	1.322320	-0.279014	0.818844
C121	C	0.822305	-0.724414	0.318833
C122	C	1.322305	-0.224414	0.818833
C123	C	0.788890	-0.697154	0.285360
C124	C	1.288890	-0.197154	0.785360
C125	C	0.755488	-0.724494	0.251899
C126	C	1.255488	-0.224494	0.751899
C127	C	0.688677	-0.779172	0.184976
C128	C	1.188677	-0.279172	0.684976
C129	C	0.688662	-0.724565	0.184972
C130	C	1.188662	-0.224565	0.684972
C131	C	0.722066	-0.697225	0.218435
C132	C	1.222066	-0.197225	0.718435
C133	C	0.722058	-0.642634	0.218415
C134	C	1.222058	-0.142634	0.718415
N135	N	0.755456	-0.615290	0.251880
N136	N	1.255456	-0.115290	0.751880
C137	C	0.788872	-0.642550	0.285353
C138	C	1.288872	-0.142550	0.785353
C139	C	0.722156	-0.975709	0.218474
C140	C	1.222156	-0.475709	0.718474
C141	C	0.722176	-1.030311	0.218478
C142	C	1.222176	-0.530311	0.718478
C143	C	0.788993	-1.030228	0.285418
C144	C	1.288993	-0.530228	0.785418
C145	C	0.788975	-0.975625	0.285411
C146	C	1.288975	-0.475625	0.785411
C147	C	0.755554	-0.948366	0.251939
C148	C	1.255554	-0.448366	0.751939
C149	C	0.788838	-0.527885	0.285326
C150	C	1.288838	-0.027885	0.785326
C151	C	0.788822	-0.473280	0.285310
C152	C	1.288822	0.026720	0.785310
C153	C	0.722003	-0.473368	0.218372
C154	C	1.222003	0.026632	0.718372
C155	C	0.722021	-0.527968	0.218386
C156	C	1.222021	-0.027968	0.718386
C157	C	0.755440	-0.555226	0.251867
C158	C	1.255440	-0.055226	0.751867
O159	O	0.693664	-0.614386	0.189951
O160	O	1.193664	-0.114386	0.689951
O161	O	0.817269	-0.614272	0.313816
O162	O	1.317269	-0.114272	0.813816
C163	C	0.891837	-0.252092	0.251895
C164	C	1.391837	0.247908	0.751895
C165	C	0.949951	-0.252104	0.251903
C166	C	1.449951	0.247896	0.751903
C167	C	0.755458	-0.252076	0.388251
C168	C	1.255458	0.247924	0.888251
C169	C	0.755455	-0.252082	0.446365
C170	C	1.255455	0.247918	0.946365
C171	C	0.755552	-0.115690	0.251931
C172	C	1.255552	0.384310	0.751931
C173	C	0.755590	-0.057576	0.251953
C174	C	1.255590	0.442424	0.751953
C175	C	0.721996	-0.285501	0.697536
C176	C	1.221996	0.214499	1.197536
C177	C	0.721994	-0.285502	0.642931
C178	C	1.221994	0.214498	1.142931
O179	O	0.693526	-0.313918	0.614675
O180	O	1.193526	0.186082	1.114675
N181	N	0.755453	-0.252075	0.615639
N182	N	1.255453	0.247925	1.115639
C183	C	0.788914	-0.218641	0.642954
C184	C	1.288914	0.281359	1.142954
O185	O	0.817373	-0.190208	0.614725
O186	O	1.317373	0.309792	1.114725
C187	C	0.788913	-0.218638	0.697557
C188	C	1.288913	0.281362	1.197557
C189	C	0.755455	-0.252071	0.724847
C190	C	1.255455	0.247929	1.224847
C191	C	0.688540	-0.318931	0.724825
C192	C	1.188540	0.181069	1.224825
C193	C	0.688543	-0.318931	0.779426
C194	C	1.188543	0.181069	1.279426
C195	C	0.722002	-0.285501	0.806737
C196	C	1.222002	0.214499	1.306737
C197	C	0.755458	-0.252071	0.779447
C198	C	1.255458	0.247929	1.279447
C199	C	0.822370	-0.185202	0.724871
C200	C	1.322370	0.314798	1.224871
C201	C	0.822366	-0.185202	0.779478
C202	C	1.322366	0.314798	1.279478
C203	C	0.788908	-0.218635	0.806767
C204	C	1.288908	0.281365	1.306767
C205	C	0.788920	-0.218641	0.861359
C206	C	1.288920	0.281359	1.361359
N207	N	0.755460	-0.252068	0.888651
N208	N	1.255460	0.247932	1.388651
C209	C	0.722001	-0.285498	0.861340
C210	C	1.222001	0.214502	1.361340
C211	C	0.788912	-0.218649	0.528283
C212	C	1.288912	0.281351	1.028283
C213	C	0.788916	-0.218654	0.473681
C214	C	1.288916	0.281346	0.973681
C215	C	0.721995	-0.285514	0.473662
C216	C	1.221995	0.214486	0.973662
C217	C	0.721994	-0.285511	0.528266
C218	C	1.221994	0.214489	1.028266
C219	C	0.755453	-0.252076	0.555576
C220	C	1.255453	0.247924	1.055576
C221	C	0.722011	-0.285496	0.976005
C222	C	1.222011	0.214504	1.476005
C223	C	0.722018	-0.285495	1.030611
C224	C	1.222018	0.214505	1.530611
C225	C	0.788937	-0.218633	1.030624
C226	C	1.288937	0.281367	1.530624
C227	C	0.788931	-0.218636	0.976024
C228	C	1.288931	0.281364	1.476024
C229	C	0.755464	-0.252069	0.948716
C230	C	1.255464	0.247931	1.448716
O231	O	0.817371	-0.190238	0.889649
O232	O	1.317371	0.309762	1.389649
O233	O	0.693542	-0.313921	0.889575
O234	O	1.193542	0.186079	1.389575
C235	C	0.755468	-0.252064	1.116036
C236	C	1.255468	0.247936	1.616036
C237	C	0.755477	-0.252065	1.057922
C238	C	1.255477	0.247935	1.557922
H239	H	0.457347	-0.312616	0.191091
H240	H	0.957347	0.187384	0.691091
H241	H	0.054105	-0.191526	0.312689
H242	H	0.554105	0.308474	0.812689
H243	H	0.849616	-0.157978	0.702661
H244	H	1.349616	0.342022	1.202661
C245	C	0.825564	-0.443208	0.322125
C246	C	1.325564	0.056792	0.822125
H247	H	0.845461	-0.467267	0.342066
H248	H	1.345461	0.032733	0.842066
H249	H	0.848358	-0.421899	0.302147
H250	H	1.348358	0.078101	0.802147
H251	H	0.805532	-0.421913	0.344885
H252	H	1.305532	0.078087	0.844885
C253	C	0.859044	-0.694344	0.355647
C254	C	1.359044	-0.194344	0.855647
H255	H	0.854256	-0.657918	0.350850
H256	H	1.354256	-0.157918	0.850850
H257	H	0.851362	-0.703287	0.390768
H258	H	1.351362	-0.203287	0.890768
H259	H	0.894185	-0.703272	0.348027
H260	H	1.394185	-0.203272	0.848027
H261	H	0.849532	-0.801204	0.346105
H262	H	1.349532	-0.301204	0.846105
H263	H	-0.044945	-0.191533	0.312685
H264	H	0.455055	0.308467	0.812685
H265	H	0.849610	-0.157972	0.801711
H266	H	1.349610	0.342028	1.301711
C267	C	0.651732	-0.355701	0.809438
C268	C	1.151732	0.144299	1.309438
H269	H	0.631804	-0.375604	0.785345
H270	H	1.131804	0.124396	1.285345
H271	H	0.671710	-0.378490	0.830736
H272	H	1.171710	0.121510	1.330736
H273	H	0.628962	-0.335690	0.830738
H274	H	1.128962	0.164310	1.330738
H275	H	0.816176	-0.953367	0.312660
H276	H	1.316176	-0.453367	0.812660
C277	C	0.825733	-0.181859	0.946004
C278	C	1.325733	0.318141	1.446004
H279	H	0.845657	-0.161947	0.970092
H280	H	1.345657	0.338053	1.470092
H281	H	0.848500	-0.201857	0.924693
H282	H	1.348500	0.298143	1.424693
H283	H	0.805737	-0.159072	0.924716
H284	H	1.305737	0.340928	1.424716
H285	H	0.661445	-0.702373	0.157715
H286	H	1.161445	-0.202373	0.657715
C287	C	0.685435	-1.060382	0.181667
C288	C	1.185435	-0.560382	0.681667
H289	H	0.690228	-1.096807	0.186461
H290	H	1.190228	-0.596807	0.686461
H291	H	0.650298	-1.051452	0.189285
H292	H	1.150298	-0.551452	0.689285
H293	H	0.693118	-1.051444	0.146541
H294	H	1.193118	-0.551444	0.646541
C295	C	0.651736	-0.355711	0.694792
C296	C	1.151736	0.144289	1.194792
H297	H	0.631818	-0.375620	0.718872
H298	H	1.131818	0.124380	1.218872
H299	H	0.628964	-0.335716	0.673490
H300	H	1.128964	0.164284	1.173490
H301	H	0.671727	-0.378502	0.673492
H302	H	1.171727	0.121498	1.173492
C303	C	0.685187	-0.322283	0.558279
C304	C	1.185187	0.177717	1.058279
H305	H	0.665260	-0.342190	0.534189
H306	H	1.165260	0.157810	1.034189
H307	H	0.705169	-0.345068	0.579579
H308	H	1.205169	0.154932	1.079579
H309	H	0.662415	-0.302274	0.579580
H310	H	1.162415	0.197726	1.079580
C311	C	0.198451	-0.148595	0.355756
C312	C	0.698451	0.351405	0.855756
H313	H	0.222547	-0.128718	0.375707
H314	H	0.722547	0.371282	0.875707
H315	H	0.177153	-0.125780	0.335808
H316	H	0.677153	0.374220	0.835808
H317	H	0.177151	-0.168639	0.378503
H318	H	0.677151	0.331361	0.878503
H319	H	0.816048	-0.550072	0.312593
H320	H	1.316048	-0.050072	0.812593
H321	H	0.816201	-1.052433	0.312674
H322	H	1.316201	-0.552433	0.812674
C323	C	0.685279	-0.558044	0.181576
C324	C	1.185279	-0.058044	0.681576
H325	H	0.665374	-0.533986	0.161642
H326	H	1.165374	-0.033986	0.661642
H327	H	0.705300	-0.579346	0.158819
H328	H	1.205300	-0.079346	0.658819
H329	H	0.662483	-0.579346	0.201566
H330	H	1.162483	-0.079346	0.701566
C331	C	0.685211	-0.322270	1.060626
C332	C	1.185211	0.177730	1.560626
H333	H	0.665280	-0.342175	1.036537
H334	H	1.165280	0.157825	1.536537
H335	H	0.705194	-0.345057	1.081922
H336	H	1.205194	0.154943	1.581922
H337	H	0.662441	-0.302261	1.081930
H338	H	1.162441	0.197739	1.581930
H339	H	0.694754	-0.312716	0.953777
H340	H	1.194754	0.187284	1.453777
H341	H	0.305293	-0.158120	0.346176
H342	H	0.805293	0.341880	0.846176
H343	H	0.661476	-0.801424	0.157726
H344	H	1.161476	-0.301424	0.657726
H345	H	0.694942	-0.953517	0.191213
H346	H	1.194942	-0.453517	0.691213
C347	C	0.449604	-0.181946	0.322237
C348	C	0.949604	0.318054	0.822237
H349	H	0.473698	-0.162067	0.342187
H350	H	0.973698	0.337933	0.842187
H351	H	0.428304	-0.159134	0.302288
H352	H	0.928304	0.340866	0.802288
H353	H	0.428306	-0.201991	0.344985
H354	H	0.928306	0.298009	0.844985
H355	H	0.694798	-0.451164	0.191117
H356	H	1.194798	0.048836	0.691117
H357	H	0.816180	-0.191417	1.052871
H358	H	1.316180	0.308583	1.552871
H359	H	0.694750	-0.312734	0.451416
H360	H	1.194750	0.187266	0.951416
H361	H	0.206146	-0.346039	0.157623
H362	H	0.706146	0.153961	0.657623
H363	H	0.556466	-0.191471	0.312649
H364	H	1.056466	0.308529	0.812649
C365	C	0.825723	-0.181880	0.443668
C366	C	1.325723	0.318120	0.943668
H367	H	0.845645	-0.161970	0.467759
H368	H	1.345645	0.338030	0.967759
H369	H	0.848491	-0.201882	0.422361
H370	H	1.348491	0.298118	0.922361
H371	H	0.805734	-0.159091	0.422375
H372	H	1.305734	0.340909	0.922375
H373	H	0.556396	-0.312596	0.191077
H374	H	1.056396	0.187404	0.691077
C375	C	0.312992	-0.355567	0.148039
C376	C	0.812992	0.144433	0.648039
H377	H	0.288895	-0.375451	0.128097
H378	H	0.788895	0.124549	0.628097
H379	H	0.334297	-0.335534	0.125291
H380	H	0.834297	0.164466	0.625291
H381	H	0.334285	-0.378382	0.167998
H382	H	0.834285	0.121618	0.667998
H383	H	0.054059	-0.312656	0.191111
H384	H	0.554059	0.187344	0.691111
H385	H	-0.045008	-0.312664	0.191121
H386	H	0.454992	0.187336	0.691121
C387	C	0.825726	-0.181875	0.558320
C388	C	1.325726	0.318125	1.058320
H389	H	0.845655	-0.161973	0.534241
H390	H	1.345655	0.338027	1.034241
H391	H	0.805747	-0.159085	0.579626
H392	H	1.305747	0.340915	1.079626
H393	H	0.848497	-0.201884	0.579615
H394	H	1.348497	0.298116	1.079615
