data_functionalizedCrystal
_audit_creation_method	'MofGen! by Chris Wilmer'
_symmetry_space_group_name_H-M	'P1'
_symmetry_Int_Tables_number	1
_symmetry_cell_setting	triclinic
loop_
_symmetry_equiv_pos_as_xyz
  x,y,z
_cell_length_a	11.792241
_cell_length_b	15.995350
_cell_length_c	10.868271
_cell_angle_alpha	89.997096
_cell_angle_beta	89.999893
_cell_angle_gamma	83.842895
loop_
_atom_site_label
_atom_site_type_symbol
_atom_site_fract_x
_atom_site_fract_y
_atom_site_fract_z
O1	O	1.505951	0.114763	-0.102196
O2	O	2.005951	0.614763	0.397804
O3	O	1.175511	0.126591	-0.102224
O4	O	1.675511	0.626591	0.397776
O5	O	1.349764	-0.001170	-0.102208
O6	O	1.849764	0.498830	0.397792
O7	O	1.331698	0.242524	-0.102212
O8	O	1.831698	0.742524	0.397788
O9	O	1.349750	-0.001175	0.102436
O10	O	1.849750	0.498825	0.602436
O11	O	1.175497	0.126586	0.102420
O12	O	1.675497	0.626586	0.602420
O13	O	1.505937	0.114758	0.102448
O14	O	2.005937	0.614758	0.602448
Zn15	Zn	1.340715	0.120671	0.134926
Zn16	Zn	1.840715	0.620671	0.634926
Zn17	Zn	1.340734	0.120678	-0.134702
Zn18	Zn	1.840734	0.620678	0.365298
O19	O	1.331684	0.242519	0.102432
O20	O	1.831684	0.742519	0.602432
C21	C	1.133220	0.125845	0.000094
C22	C	1.633220	0.625845	0.500094
C23	C	1.007224	0.123621	0.000084
C24	C	1.507224	0.623621	0.500084
C25	C	0.776546	0.119532	0.000119
C26	C	1.276546	0.619532	0.500119
C27	C	0.904913	0.121804	0.000099
C28	C	1.404913	0.621804	0.500099
C29	C	1.349010	-0.032370	0.000112
C30	C	1.849010	0.467630	0.500112
C31	C	1.346771	-0.125331	0.000104
C32	C	1.846771	0.374669	0.500104
C33	C	1.338730	-0.463115	0.000108
C34	C	1.838730	0.036885	0.500108
C35	C	1.214630	-0.416244	-0.000362
C36	C	1.714630	0.083756	0.499638
C37	C	1.216870	-0.319544	0.000100
C38	C	1.716870	0.180456	0.500100
C39	C	1.342718	-0.295536	0.000105
C40	C	1.842718	0.204464	0.500105
C41	C	1.403921	-0.336339	0.116971
C42	C	1.903921	0.163661	0.616971
C43	C	1.400803	-0.432989	0.117068
C44	C	1.900803	0.067011	0.617068
C45	C	1.403383	-0.433329	-0.115651
C46	C	1.903383	0.066671	0.384349
C47	C	1.403354	-0.336384	-0.117195
C48	C	1.903354	0.163616	0.382805
C49	C	1.344979	-0.200829	0.000108
C50	C	1.844979	0.299171	0.500108
C51	C	1.336473	-0.557823	0.000113
C52	C	1.836473	-0.057823	0.500113
C53	C	1.548229	0.115504	0.000127
C54	C	2.048229	0.615504	0.500127
C55	C	1.674224	0.117727	0.000130
C56	C	2.174224	0.617727	0.500130
C57	C	1.332438	0.273719	0.000110
C58	C	1.832438	0.773719	0.500110
C59	C	1.334677	0.366680	0.000109
C60	C	1.834677	0.866680	0.500109
N61	N	1.340710	0.120666	0.318940
N62	N	1.840710	0.620666	0.818940
N63	N	1.340747	0.120676	-0.318716
N64	N	1.840747	0.620676	0.181284
C65	C	1.340728	0.120676	0.569946
C66	C	1.840728	0.620676	1.069946
C67	C	1.340714	0.120673	0.430269
C68	C	1.840714	0.620673	0.930269
H69	H	1.168760	-0.291338	-0.083674
H70	H	1.668760	0.208662	0.416326
H71	H	1.496378	-0.321793	0.121321
H72	H	1.996378	0.178207	0.621321
N73	N	1.152424	-0.439769	-0.105507
N74	N	1.652424	0.060231	0.394493
N75	N	1.198820	-0.491357	-0.181324
N76	N	1.698820	0.008643	0.318676
H77	H	1.154889	-0.507975	-0.255590
H78	H	1.654889	-0.007975	0.244410
N79	N	1.152681	-0.441114	0.104177
N80	N	1.652681	0.058886	0.604177
N81	N	1.199532	-0.493208	0.179024
N82	N	1.699532	0.006792	0.679024
H83	H	1.155784	-0.510775	0.252857
H84	H	1.655784	-0.010775	0.752857
N85	N	1.156126	-0.284859	0.105377
N86	N	1.656126	0.215141	0.605377
N87	N	1.206032	-0.244801	0.183700
N88	N	1.706032	0.255199	0.683700
H89	H	1.163132	-0.220303	0.258058
H90	H	1.663132	0.279697	0.758058
N91	N	1.518176	-0.472630	-0.116631
N92	N	2.018176	0.027370	0.383369
N93	N	1.583594	-0.461202	-0.029165
N94	N	2.083594	0.038798	0.470835
H95	H	1.664666	-0.488957	-0.029847
H96	H	2.164666	0.011043	0.470153
H97	H	1.361401	-0.308152	0.203934
H98	H	1.861401	0.191848	0.703934
N99	N	1.344783	-0.456224	0.226630
N100	N	1.844783	0.043776	0.726630
N101	N	1.332349	-0.531670	0.246508
N102	N	1.832349	-0.031670	0.746508
H103	H	1.292780	-0.548078	0.323887
H104	H	1.792780	-0.048078	0.823887
H105	H	1.362815	-0.454051	-0.204227
H106	H	1.862815	0.045949	0.295773
H107	H	1.358607	-0.309336	-0.203649
H108	H	1.858607	0.190664	0.296351
H109	H	1.491915	-0.464823	0.122375
H110	H	1.991915	0.035177	0.622375
H111	H	1.495128	-0.320605	-0.124247
H112	H	1.995128	0.179395	0.375753
