data_functionalizedCrystal
_audit_creation_method	'MofGen! by Chris Wilmer'
_symmetry_space_group_name_H-M	'P1'
_symmetry_Int_Tables_number	1
_symmetry_cell_setting	triclinic
loop_
_symmetry_equiv_pos_as_xyz
  x,y,z
_cell_length_a	19.288864
_cell_length_b	9.730223
_cell_length_c	19.288857
_cell_angle_alpha	90.003469
_cell_angle_beta	83.134677
_cell_angle_gamma	90.014040
loop_
_atom_site_label
_atom_site_type_symbol
_atom_site_fract_x
_atom_site_fract_y
_atom_site_fract_z
O1	O	0.921342	0.114737	0.086645
O2	O	0.719081	0.114644	0.098334
O3	O	0.826059	0.114677	-0.008641
O4	O	0.814364	0.114704	0.193620
O5	O	0.826057	-0.113903	-0.008639
O6	O	0.719080	-0.113936	0.098336
O7	O	0.921341	-0.113843	0.086648
Zn8	Zn	0.820210	-0.150181	0.092493
Zn9	Zn	0.820212	0.150982	0.092489
O10	O	0.814363	-0.113876	0.193623
C11	C	0.693204	0.000342	0.097959
C12	C	0.616100	0.000306	0.096830
C13	C	0.571402	0.000336	0.159598
C14	C	0.498955	0.000351	0.158537
C15	C	0.471209	0.000363	0.094705
C16	C	0.515917	0.000325	0.031929
C17	C	0.588363	0.000297	0.032991
C18	C	0.362949	0.080484	0.044525
C19	C	0.290505	0.080522	0.043465
C20	C	0.247764	0.000446	0.091425
C21	C	0.277475	-0.079649	0.140458
C22	C	0.349920	-0.079678	0.141520
C23	C	0.392656	0.000394	0.093546
C24	C	0.124510	0.000491	0.153048
C25	C	0.052062	0.000497	0.151984
C26	C	0.069026	0.000486	0.025374
C27	C	0.141472	0.000465	0.026439
C28	C	0.169210	0.000474	0.090278
N29	N	0.820214	-0.355718	0.092494
C30	C	0.867596	-0.427629	0.045142
C31	C	0.867594	-0.571512	0.045133
C32	C	0.772827	-0.571560	0.139836
C33	C	0.772825	-0.427679	0.139841
C34	C	0.922311	-0.427603	-0.009532
C35	C	0.922309	-0.571486	-0.009541
C36	C	0.947218	0.000462	0.087022
C37	C	1.024321	0.000507	0.088151
C38	C	0.825683	0.000385	-0.034516
C39	C	0.824556	0.000381	-0.111620
N40	N	0.820213	0.356519	0.092481
C41	C	0.824030	0.124980	-0.147832
C42	C	0.822962	0.124989	-0.220278
C43	C	0.822432	0.000393	-0.256511
C44	C	0.822954	-0.124222	-0.220290
C45	C	0.824015	-0.124228	-0.147845
C46	C	0.861433	-0.095037	-0.376742
C47	C	0.860376	-0.095026	-0.449187
C48	C	0.819155	0.000407	-0.479957
C49	C	0.779000	0.095852	-0.438276
C50	C	0.780061	0.095845	-0.365830
C51	C	0.821281	0.000386	-0.335066
C52	C	0.817470	0.125025	-0.594724
C53	C	0.816396	0.125030	-0.667170
C54	C	0.816395	-0.124185	-0.667182
C55	C	0.817461	-0.124186	-0.594735
C56	C	0.818002	0.000423	-0.558511
C57	C	0.814739	0.000419	0.219498
C58	C	0.815866	0.000432	0.296602
H59	H	0.015669	0.000514	0.203100
H60	H	0.911084	-0.388563	-0.062786
H61	H	0.493322	0.000354	-0.020044
H62	H	0.147095	0.000478	0.205029
N63	N	0.817970	0.259373	-0.555598
H64	H	0.861438	0.264999	-0.531277
H65	H	0.817418	0.338286	-0.589539
N66	N	0.900770	-0.630623	-0.076116
H67	H	0.890361	-0.553370	-0.108278
H68	H	0.939916	-0.689044	-0.099823
N69	N	0.189682	0.000438	-0.041265
H70	H	0.180801	0.085174	-0.069127
H71	H	0.239766	0.000363	-0.030853
H72	H	0.734244	-0.630166	0.178384
N73	N	0.815836	0.259428	-0.706230
H74	H	0.815078	0.240528	-0.757621
H75	H	0.772976	0.313831	-0.687796
H76	H	0.815959	-0.225634	-0.696681
N77	N	0.988853	-0.368444	0.012078
H78	H	0.986423	-0.264778	0.011292
H79	H	0.994733	-0.400566	0.060819
H80	H	0.975550	-0.610510	0.001729
N81	N	0.258462	0.166908	-0.009415
H82	H	0.296530	0.217616	-0.039642
H83	H	0.232378	0.105483	-0.039633
N84	N	0.734538	0.198798	-0.471452
H85	H	0.739954	0.184320	-0.523669
H86	H	0.683977	0.185994	-0.451988
H87	H	0.824468	0.226446	-0.118343
H88	H	0.822530	0.226456	-0.249768
H89	H	0.747364	0.173557	-0.331895
H90	H	0.593981	0.000346	0.211581
H91	H	0.624757	0.000273	-0.018124
N92	N	0.450738	0.000398	0.226243
H93	H	0.420325	0.085149	0.228614
H94	H	0.420326	-0.084376	0.228590
H95	H	0.817895	-0.225648	-0.565252
H96	H	0.397744	0.145700	0.005468
H97	H	0.893075	-0.172737	-0.483119
N98	N	0.905894	-0.197978	-0.343557
H99	H	0.931175	-0.258429	-0.380953
H100	H	0.941085	-0.147651	-0.318151
H101	H	0.242676	-0.144855	0.179511
N102	N	0.822387	-0.258610	-0.259365
H103	H	0.821639	-0.239701	-0.310756
H104	H	0.865623	-0.312996	-0.252467
N105	N	0.824588	-0.258618	-0.108779
H106	H	0.781354	-0.313115	-0.115619
H107	H	0.867479	-0.312963	-0.127177
N108	N	0.381972	-0.166068	0.194392
H109	H	0.362828	-0.136170	0.243081
H110	H	0.370204	-0.265963	0.187675
N111	N	0.039111	0.000483	-0.043476
H112	H	-0.013566	0.000501	-0.034626
H113	H	0.055495	0.085212	-0.070936
H114	H	0.734238	-0.369130	0.178393
