data_functionalizedCrystal
_audit_creation_method	'MofGen! by Chris Wilmer'
_symmetry_space_group_name_H-M	'P1'
_symmetry_Int_Tables_number	1
_symmetry_cell_setting	triclinic
loop_
_symmetry_equiv_pos_as_xyz
  x,y,z
_cell_length_a	15.538191
_cell_length_b	14.044220
_cell_length_c	14.750779
_cell_angle_alpha	76.182253
_cell_angle_beta	97.572172
_cell_angle_gamma	70.230486
loop_
_atom_site_label
_atom_site_type_symbol
_atom_site_fract_x
_atom_site_fract_y
_atom_site_fract_z
O1	O	1.206574	-0.272382	-0.079830
O2	O	0.941253	-0.166009	-0.079832
O3	O	1.069934	-0.355813	-0.079822
O4	O	1.077894	-0.082578	-0.079840
O5	O	1.106310	-0.409464	0.079832
O6	O	0.977630	-0.219660	0.079821
O7	O	1.242951	-0.326033	0.079823
Zn8	Zn	1.116066	-0.281365	0.105171
Zn9	Zn	1.068138	-0.210677	-0.105179
O10	O	1.114271	-0.136229	0.079813
C11	C	0.925281	-0.181705	-0.000006
C12	C	0.823493	-0.148554	-0.000006
C13	C	0.508030	-0.477901	0.000002
C14	C	0.412383	-0.446726	-0.000001
C15	C	0.404671	-0.271379	-0.000013
C16	C	0.500321	-0.302541	-0.000005
C17	C	0.551992	-0.405802	0.000001
C18	C	0.544283	-0.230442	-0.000006
C19	C	0.639923	-0.261599	-0.000004
C20	C	0.691600	-0.364855	-0.000000
C21	C	0.647632	-0.436960	0.000003
C22	C	0.492608	-0.127179	-0.000020
C23	C	0.536570	-0.055080	-0.000020
C24	C	0.632213	-0.086239	-0.000011
C25	C	0.683891	-0.189495	-0.000008
C26	C	0.676182	-0.014135	-0.000015
C27	C	0.771821	-0.045293	-0.000012
C28	C	0.779531	-0.220653	-0.000005
C29	C	1.084636	-0.416754	0.000005
C30	C	1.074236	-0.518402	0.000007
C31	C	1.055220	-0.704517	-0.000007
C32	C	1.128978	-0.787527	-0.000010
C33	C	1.118398	-0.891088	-0.000018
C34	C	1.065800	-0.600946	0.000000
C35	C	1.258923	-0.310337	-0.000005
C36	C	1.360709	-0.343485	-0.000011
C37	C	1.099569	-0.075288	-0.000016
C38	C	1.109967	0.026362	-0.000024
N39	N	1.148782	-0.329610	0.248729
N40	N	1.035429	-0.162442	-0.248738
C41	C	0.944054	-0.027741	0.600530
C42	C	0.966986	-0.061544	0.701031
C43	C	1.080962	-0.229579	0.701003
C44	C	1.058036	-0.195791	0.600500
C45	C	0.989582	-0.094871	0.550272
C46	C	1.103564	-0.262921	0.550242
C47	C	1.080643	-0.229134	0.449748
C48	C	1.012193	-0.128217	0.399512
C49	C	0.966661	-0.061084	0.449778
C50	C	1.172023	-0.363838	0.600472
C51	C	1.217551	-0.430968	0.550214
C52	C	1.194625	-0.397185	0.449718
C53	C	1.126176	-0.296267	0.399482
C54	C	1.240158	-0.464318	0.399452
C55	C	1.217236	-0.430530	0.298958
C56	C	1.103254	-0.262480	0.298988
H57	H	0.689708	-0.521047	0.000014
O58	O	1.313996	-0.573160	0.453628
H59	H	1.282148	-0.620103	0.499425
O60	O	0.961057	-0.713406	-0.000005
H61	H	0.908650	-0.636621	-0.000005
O62	O	0.364971	-0.524503	0.000014
H63	H	0.306759	-0.492643	-0.065061
H64	H	1.200056	-0.780794	-0.000074
O65	O	0.620437	0.097234	-0.000023
H66	H	0.622115	0.155166	-0.065099
H67	H	0.993535	-0.100707	0.317683
H68	H	0.362586	-0.187302	-0.000022
H69	H	0.414731	-0.101813	-0.000025
O70	O	0.480842	0.056287	-0.000013
H71	H	0.406953	0.065840	-0.000005
H72	H	1.047505	-0.180305	0.258090
O73	O	0.892826	0.047766	0.395589
H74	H	0.865016	0.088777	0.447417
H75	H	0.821607	-0.304741	0.000006
O76	O	0.563776	-0.589277	0.000011
H77	H	0.517140	-0.634182	0.000009
H78	H	0.888305	0.054434	0.559632
O79	O	0.917873	0.010861	0.755244
H80	H	0.866419	0.086707	0.703430
H81	H	1.136701	-0.311748	0.741911
H82	H	1.190686	-0.391342	0.682301
H83	H	0.807618	0.013414	-0.000004
H84	H	1.273289	-0.513137	0.591121
O85	O	0.794759	-0.398468	0.000017
H86	H	0.823302	-0.482382	0.000020
H87	H	1.254311	-0.485195	0.258037
