data_functionalizedCrystal
_audit_creation_method	'MofGen! by Chris Wilmer'
_symmetry_space_group_name_H-M	'P1'
_symmetry_Int_Tables_number	1
_symmetry_cell_setting	triclinic
loop_
_symmetry_equiv_pos_as_xyz
  x,y,z
_cell_length_a	14.395555
_cell_length_b	14.395555
_cell_length_c	17.917603
_cell_angle_alpha	90.004294
_cell_angle_beta	63.034701
_cell_angle_gamma	60.001260
loop_
_atom_site_label
_atom_site_type_symbol
_atom_site_fract_x
_atom_site_fract_y
_atom_site_fract_z
Zr1	Zr	1.006120	0.900255	-0.093840
O2	O	1.186983	0.758394	-0.208058
O3	O	0.816289	0.943739	-0.058825
O4	O	0.993180	0.952189	-0.208048
O5	O	1.023428	0.743283	0.058873
O6	O	0.993173	1.105063	-0.208041
O7	O	1.010093	0.749944	-0.058835
O8	O	0.676749	1.089947	0.058891
O9	O	1.339852	0.758399	-0.208060
O10	O	0.897686	1.076377	-0.043888
O11	O	0.907643	0.957318	0.043951
O12	O	1.115909	0.967267	-0.131740
O13	O	1.125865	0.848208	-0.043900
Zr14	Zr	1.027378	1.133448	0.093900
Zr15	Zr	1.006110	1.144071	-0.093830
Zr16	Zr	1.027388	0.889632	0.093890
Zr17	Zr	1.249929	0.900263	-0.093843
Zr18	Zr	0.783570	1.133440	0.093903
O19	O	1.217209	1.089964	0.058885
O20	O	1.186969	1.105069	-0.208044
O21	O	1.217223	0.743289	0.058870
O22	O	0.846516	1.275309	0.208118
O23	O	0.816275	1.290414	-0.058811
O24	O	0.846530	0.928634	0.208103
O25	O	1.010071	1.290420	-0.058813
O26	O	1.040319	1.081513	0.208107
O27	O	1.040325	0.928640	0.208101
O28	O	1.023406	1.283759	0.058895
O29	O	1.339844	0.952200	-0.208052
O30	O	0.693654	1.081503	0.208111
O31	O	0.693646	1.275304	0.208119
O32	O	0.676741	1.283748	0.058899
O33	O	1.356758	0.749954	-0.058839
O34	O	1.356750	0.943756	-0.058831
O35	O	0.917590	1.066435	0.131799
O36	O	0.907634	1.185494	0.043960
O37	O	1.125856	1.076384	-0.043891
O38	O	1.135812	0.957325	0.043948
C39	C	0.711782	1.016842	0.000033
C40	C	0.608278	1.016839	0.000035
C41	C	1.016762	0.711875	0.000017
C42	C	1.016766	0.608368	0.000013
C43	C	0.990146	1.030140	-0.234792
C44	C	0.981117	1.034650	-0.314488
C45	C	0.553115	0.951926	0.047931
C46	C	0.558015	0.911518	-0.034672
C47	C	0.418979	1.057221	0.082613
C48	C	0.614599	0.976371	-0.082618
C49	C	0.475507	1.122130	0.034727
C50	C	0.480449	1.081751	-0.047926
C51	C	1.321717	1.016861	0.000026
C52	C	1.425220	1.016864	0.000025
C53	C	1.135751	0.488288	-0.047880
C54	C	1.069626	0.459414	-0.082586
C55	C	1.082885	0.452819	0.034713
C56	C	0.950635	0.580861	-0.034742
C57	C	0.963917	0.574260	0.082604
C58	C	0.897703	0.545459	0.047918
C59	C	1.016737	1.321828	0.000042
C60	C	1.016733	1.425334	0.000047
C61	C	0.964625	1.042911	-0.460420
C62	C	1.068868	0.990794	-0.539523
C63	C	1.059692	0.995391	-0.620725
C64	C	0.973799	1.038316	-0.379210
C65	C	1.043352	1.003563	0.234852
C66	C	1.052381	0.999053	0.314548
C67	C	0.711769	1.321819	0.000046
C68	C	0.608262	1.425322	0.000051
C69	C	0.738385	1.003553	0.234855
C70	C	0.643910	0.999040	0.314553
C71	C	0.738372	1.308530	0.234868
C72	C	0.643894	1.407523	0.314570
C73	C	1.295126	0.725173	-0.234808
C74	C	1.389605	0.626179	-0.314510
C75	C	1.321730	0.711884	0.000014
C76	C	1.425237	0.608381	0.000008
C77	C	1.295114	1.030149	-0.234796
C78	C	1.389588	1.034662	-0.314493
C79	C	0.604737	1.053878	0.397844
C80	C	0.515983	1.049633	0.472735
C81	C	0.466397	0.990556	0.464334
C82	C	0.505578	0.935711	0.381034
C83	C	0.594337	0.939950	0.306145
C84	C	0.594328	1.516169	0.306147
C85	C	0.505568	1.609194	0.381028
C86	C	0.466369	1.593569	0.464331
C87	C	0.515944	1.484912	0.472752
C88	C	0.604709	1.391890	0.397871
C89	C	1.439182	0.517533	-0.306088
C90	C	1.527972	0.424509	-0.380969
C91	C	1.567177	0.440133	-0.464272
C92	C	1.517596	0.548791	-0.472692
C93	C	1.428814	0.641813	-0.397812
C94	C	1.439147	1.093750	-0.306064
C95	C	1.527904	1.098012	-0.380941
C96	C	1.567107	1.043180	-0.464247
C97	C	1.517538	0.984091	-0.472674
C98	C	1.428777	0.979836	-0.397798
C99	C	0.553124	1.545405	0.047928
C100	C	0.418945	1.574299	0.082621
C101	C	0.558061	1.580848	-0.034681
C102	C	0.475388	1.452849	0.034793
C103	C	0.614572	1.459404	-0.082555
C104	C	0.480400	1.488225	-0.047882
H105	H	0.584925	0.896964	0.088375
Br106	Br	0.857536	0.672544	-0.083792
Br107	Br	0.804398	1.123023	-0.449190
H108	H	1.407267	0.504790	-0.238265
H109	H	1.165006	0.942720	-0.546261
Br110	Br	1.385965	1.168175	-0.193016
H111	H	0.626231	1.528912	0.238325
H112	H	0.591879	0.822485	-0.064024
H113	H	1.388435	0.931715	-0.404673
H114	H	1.568327	0.336044	-0.374095
H115	H	0.394090	1.669323	0.525296
H116	H	1.639469	0.364379	-0.525237
H117	H	0.335214	1.623884	0.152446
Br118	Br	1.570767	0.909670	-0.585739
H119	H	0.584790	1.568551	0.088497
Br120	Br	0.754017	0.919296	-0.199078
H121	H	0.441306	1.397845	0.064213
Br122	Br	0.462731	1.463727	0.585813
H123	H	0.645102	1.101986	0.404701
H124	H	0.484093	1.094299	0.540554
Br125	Br	0.671960	1.244444	0.409318
Br126	Br	1.687573	1.048964	-0.565857
H127	H	0.394124	0.987113	0.525321
Br128	Br	0.427725	1.449287	-0.115408
Br129	Br	0.279476	1.114127	0.199015
H130	H	0.797005	0.568821	0.088424
H131	H	0.448907	1.136648	-0.088491
Br132	Br	0.754180	1.376754	-0.198910
Br133	Br	0.438269	0.855539	0.369648
H134	H	0.626219	0.895298	0.238329
H135	H	1.549528	0.561499	-0.540526
Br136	Br	0.614558	1.672765	-0.083584
H137	H	0.465213	1.697659	0.374157
Br138	Br	1.361534	0.789258	-0.409258
H139	H	0.441664	1.211141	0.064099
Br140	Br	1.303430	0.449718	-0.115482
H141	H	1.114295	0.409850	-0.152419
H142	H	0.919291	0.623822	0.152421
Br143	Br	1.176100	0.360872	0.083604
Br144	Br	1.595162	1.178204	-0.369483
