data_functionalizedCrystal
_audit_creation_method	'MofGen! by Chris Wilmer'
_symmetry_space_group_name_H-M	'P1'
_symmetry_Int_Tables_number	1
_symmetry_cell_setting	triclinic
loop_
_symmetry_equiv_pos_as_xyz
  x,y,z
_cell_length_a	12.837943
_cell_length_b	12.503572
_cell_length_c	12.811415
_cell_angle_alpha	91.877684
_cell_angle_beta	89.411917
_cell_angle_gamma	93.890817
loop_
_atom_site_label
_atom_site_type_symbol
_atom_site_fract_x
_atom_site_fract_y
_atom_site_fract_z
O1	O	1.384311	0.115199	0.265915
O2	O	1.082361	0.113900	0.252510
O3	O	1.239948	0.099824	0.108082
O4	O	1.226724	0.129275	0.410342
O5	O	1.228097	-0.077758	0.118964
O6	O	1.070510	-0.063681	0.263391
O7	O	1.372460	-0.062382	0.276796
Cu8	Cu	1.220403	-0.079246	0.271087
Cu9	Cu	1.234418	0.130764	0.258218
O10	O	1.214873	-0.048306	0.421224
C11	C	1.037766	0.024669	0.253422
C12	C	0.922542	0.023356	0.239916
N13	N	1.210552	-0.226957	0.280139
C14	C	0.683343	0.039161	0.402278
C15	C	0.575079	0.037927	0.389593
C16	C	0.597750	0.019646	0.201863
C17	C	0.706013	0.020880	0.214548
C18	C	0.748805	0.030639	0.314758
C19	C	0.857071	0.031881	0.327442
C20	C	0.879739	0.013593	0.139714
C21	C	0.771476	0.012359	0.127029
C22	C	1.196062	-0.444773	0.293463
C23	C	1.258763	-0.503716	0.235839
C24	C	1.250701	-0.624917	0.243252
C25	C	1.204124	-0.323561	0.286050
C26	C	1.417055	0.026851	0.275884
C27	C	1.532279	0.028171	0.289389
C28	C	1.232918	0.007240	0.074566
C29	C	1.229616	-0.004064	-0.041514
N30	N	1.244277	0.278474	0.249160
C31	C	1.236313	0.168317	-0.271496
C32	C	1.233210	0.157701	-0.380564
C33	C	1.220300	-0.035910	-0.368720
C34	C	1.223403	-0.025294	-0.259652
C35	C	1.231411	0.076822	-0.211044
C36	C	1.234521	0.087437	-0.101975
C37	C	1.221604	-0.106173	-0.090132
C38	C	1.218501	-0.116789	-0.199200
C39	C	1.221903	0.044281	0.454740
C40	C	1.225206	0.055591	0.570820
H41	H	0.718184	0.047109	0.483873
H42	H	1.217616	-0.180675	-0.040900
H43	H	1.136332	-0.485330	0.348361
C44	C	1.339470	-0.448926	0.161677
C45	C	1.347476	-0.325967	0.154216
C46	C	1.428182	-0.271170	0.080062
C47	C	1.500883	-0.339332	0.013369
C48	C	1.492880	-0.462299	0.020828
C49	C	1.412174	-0.517096	0.094982
H50	H	1.293656	-0.275502	0.203588
H51	H	1.434106	-0.180141	0.074541
H52	H	1.560627	-0.298768	-0.041524
H53	H	1.546700	-0.512763	-0.028543
H54	H	1.406250	-0.608124	0.100504
C55	C	1.243327	0.199761	-0.048502
C56	C	1.338148	0.277889	-0.071292
C57	C	1.346950	0.390216	-0.017822
C58	C	1.260932	0.424414	0.058438
C59	C	1.166105	0.346284	0.081232
C60	C	1.157302	0.233957	0.027762
H61	H	1.401830	0.252575	-0.127747
H62	H	1.417148	0.448053	-0.034696
H63	H	1.267448	0.507565	0.098019
H64	H	1.102423	0.371598	0.137687
H65	H	1.087104	0.176120	0.044636
H66	H	1.242843	0.251464	-0.231920
C67	C	0.503069	0.047305	0.485865
C68	C	0.514756	0.147229	0.559399
C69	C	0.442746	0.156606	0.655676
C70	C	0.359047	0.066058	0.678419
C71	C	0.347357	-0.033874	0.604883
C72	C	0.419368	-0.043251	0.508606
H73	H	0.576718	0.214265	0.542565
H74	H	0.451400	0.230583	0.710112
H75	H	0.305741	0.072999	0.749689
H76	H	0.285395	-0.100910	0.621717
H77	H	0.410713	-0.117228	0.454170
H78	H	1.237198	0.232205	-0.429781
H79	H	1.213772	-0.119048	-0.408316
H80	H	1.211977	-0.199929	-0.238792
C81	C	0.550659	0.008897	0.091643
C82	C	0.568739	-0.090696	0.021606
C83	C	0.521644	-0.101451	-0.088613
C84	C	0.456470	-0.012613	-0.128795
C85	C	0.438388	0.086987	-0.058757
C86	C	0.485482	0.097742	0.051462
H87	H	0.616987	-0.156466	0.051351
H88	H	0.535030	-0.175182	-0.140460
H89	H	0.421608	-0.020574	-0.210386
H90	H	0.390139	0.152757	-0.088502
H91	H	0.472096	0.171473	0.103309
H92	H	0.891910	0.039826	0.409038
H93	H	0.736619	0.004401	0.045441
H94	H	0.933052	0.006661	0.068449
