data_functionalizedCrystal
_audit_creation_method	'MofGen! by Chris Wilmer'
_symmetry_space_group_name_H-M	'P1'
_symmetry_Int_Tables_number	1
_symmetry_cell_setting	triclinic
loop_
_symmetry_equiv_pos_as_xyz
  x,y,z
_cell_length_a	14.044220
_cell_length_b	14.044220
_cell_length_c	13.101039
_cell_angle_alpha	93.667477
_cell_angle_beta	86.340132
_cell_angle_gamma	93.188878
loop_
_atom_site_label
_atom_site_type_symbol
_atom_site_fract_x
_atom_site_fract_y
_atom_site_fract_z
O1	O	1.281968	0.225348	-0.085109
O2	O	1.005298	0.217041	-0.085135
O3	O	1.139480	0.082860	-0.085112
O4	O	1.147787	0.359530	-0.085132
O5	O	1.129854	0.092504	0.085316
O6	O	0.995673	0.226686	0.085293
O7	O	1.272343	0.234993	0.085319
Zn8	Zn	1.132479	0.232371	0.112365
Zn9	Zn	1.145162	0.219663	-0.112181
O10	O	1.138161	0.369175	0.085296
C11	C	0.964864	0.218228	0.000076
C12	C	0.858722	0.207383	0.000066
C13	C	0.664383	0.187558	0.000088
C14	C	0.613253	0.264472	0.000087
C15	C	0.505116	0.253441	0.000099
C16	C	0.772529	0.198587	0.000076
C17	C	1.131031	0.052060	0.000102
C18	C	1.120187	-0.054083	0.000102
C19	C	1.100362	-0.248421	0.000086
C20	C	1.177276	-0.299551	0.000090
C21	C	1.166245	-0.407688	0.000080
C22	C	1.111391	-0.140275	0.000095
C23	C	1.312777	0.233806	0.000106
C24	C	1.418920	0.244651	0.000109
C25	C	1.146610	0.399974	0.000080
C26	C	1.157455	0.506116	0.000073
N27	N	1.123831	0.241043	0.265612
N28	N	1.153817	0.210984	-0.265428
C29	C	1.112065	0.252851	0.474653
C30	C	1.165580	0.199179	0.525538
C31	C	1.159034	0.205749	0.641855
C32	C	1.118610	0.246282	0.358325
H33	H	0.650693	0.338605	0.000077
O34	O	1.265759	-0.254992	0.000248
C35	C	1.310635	-0.276729	0.088536
H36	H	1.277225	-0.346380	0.117948
H37	H	1.390112	-0.284818	0.068702
H38	H	1.300856	-0.216569	0.150348
O39	O	0.619578	0.099188	0.000047
C40	C	0.520019	0.107712	0.000080
H41	H	0.504877	0.178451	-0.032181
H42	H	0.487380	0.046166	-0.049400
H43	H	0.487292	0.105409	0.081845
H44	H	1.061336	0.303733	0.518442
H45	H	1.026235	-0.285859	0.000076
O46	O	1.225901	0.138367	0.473143
C47	C	1.218941	0.145105	0.366987
H48	H	1.190856	0.217315	0.352388
H49	H	1.292507	0.137923	0.326018
H50	H	1.167832	0.085527	0.336714
