data_functionalizedCrystal
_audit_creation_method	'MofGen! by Chris Wilmer'
_symmetry_space_group_name_H-M	'P1'
_symmetry_Int_Tables_number	1
_symmetry_cell_setting	triclinic
loop_
_symmetry_equiv_pos_as_xyz
  x,y,z
_cell_length_a	14.853567
_cell_length_b	14.853567
_cell_length_c	9.730217
_cell_angle_alpha	90.000542
_cell_angle_beta	90.001561
_cell_angle_gamma	83.634930
loop_
_atom_site_label
_atom_site_type_symbol
_atom_site_fract_x
_atom_site_fract_y
_atom_site_fract_z
O1	O	1.196361	0.117703	-0.114183
O2	O	0.933901	0.131724	-0.114205
O3	O	1.072142	-0.006516	-0.114198
O4	O	1.058120	0.255943	-0.114191
O5	O	1.072138	-0.006518	0.114382
O6	O	0.933897	0.131723	0.114375
O7	O	1.196357	0.117701	0.114397
Zn8	Zn	1.065126	0.124712	0.150678
Zn9	Zn	1.065132	0.124714	-0.150486
O10	O	1.058116	0.255942	0.114389
C11	C	0.900311	0.131088	0.000082
C12	C	0.800227	0.129184	0.000073
C13	C	0.387693	0.039019	0.000101
C14	C	0.366412	0.203251	0.000104
C15	C	0.460446	0.205042	0.000100
C16	C	0.518108	0.123819	0.000094
C17	C	0.481736	0.040806	0.000092
C18	C	0.496825	0.288053	0.000087
C19	C	0.590864	0.289846	0.000081
C20	C	0.648528	0.208623	0.000085
C21	C	0.612150	0.125607	0.000085
C22	C	0.669812	0.044384	0.000080
C23	C	0.633437	-0.038633	0.000090
C24	C	0.539399	-0.040417	0.000096
C25	C	0.742565	0.210407	0.000078
C26	C	0.763855	0.046172	0.000071
C27	C	1.071504	-0.040106	0.000088
C28	C	1.069601	-0.140189	0.000076
C29	C	0.979435	-0.552723	0.000095
C30	C	1.143668	-0.574004	0.000108
C31	C	1.145458	-0.479971	0.000100
C32	C	1.064235	-0.422309	0.000092
C33	C	0.981223	-0.458680	0.000091
C34	C	1.228469	-0.443591	0.000115
C35	C	1.230262	-0.349552	0.000109
C36	C	1.149039	-0.291889	0.000090
C37	C	1.066023	-0.328266	0.000088
C38	C	0.984800	-0.270604	0.000079
C39	C	0.901783	-0.306979	0.000067
C40	C	0.899999	-0.401017	0.000072
C41	C	1.150823	-0.197851	0.000085
C42	C	0.986588	-0.176561	0.000075
C43	C	1.229947	0.118337	0.000107
C44	C	1.330031	0.120241	0.000107
C45	C	1.058754	0.289531	0.000100
C46	C	1.060657	0.389615	0.000103
N47	N	1.065129	0.124710	0.356214
N48	N	1.065136	0.124708	-0.356023
C49	C	1.187591	0.002334	0.356212
C50	C	1.248828	-0.058852	0.428150
C51	C	1.248837	-0.058853	0.572030
C52	C	1.187601	0.002337	0.643974
C53	C	1.126364	0.063523	0.572036
C54	C	1.126363	0.063519	0.428153
C55	C	1.003899	0.185894	0.572039
C56	C	1.003893	0.185900	0.428159
C57	C	0.942663	0.247084	0.643983
C58	C	0.881429	0.308275	0.572045
C59	C	0.881423	0.308274	0.428156
C60	C	0.942656	0.247086	0.356220
H61	H	0.509774	-0.108005	0.000137
C62	C	1.371505	-0.078180	0.733839
C63	C	1.316146	-0.126110	0.651112
H64	H	1.413054	-0.119705	0.782665
H65	H	1.403972	-0.040602	0.677706
H66	H	1.335030	-0.041740	0.797269
H67	H	1.352621	-0.162545	0.587676
H68	H	1.283677	-0.163704	0.707251
H69	H	0.680397	-0.104764	0.000075
C70	C	0.847153	-0.129473	-0.117445
C71	C	0.897302	-0.113184	0.000064
H72	H	0.792030	-0.090349	-0.117445
H73	H	0.881189	-0.118428	-0.197135
H74	H	0.834218	-0.190687	-0.117434
H75	H	0.910244	-0.051970	0.000048
H76	H	0.863259	-0.124222	0.079775
C77	C	0.827061	0.362603	0.792605
C78	C	0.814126	0.375530	0.651126
H79	H	0.785514	0.404130	0.841427
H80	H	0.817201	0.302421	0.816168
H81	H	0.887241	0.372509	0.816170
H82	H	0.753948	0.365618	0.627559
H83	H	0.823979	0.435727	0.627554
H84	H	0.835652	-0.260019	0.000069
C85	C	0.960931	0.332060	0.150104
C86	C	0.942654	0.247083	0.198065
H87	H	0.960936	0.332051	0.052465
H88	H	0.915699	0.377247	0.182643
H89	H	1.018563	0.344504	0.182661
H90	H	0.885018	0.234642	0.165517
H91	H	0.987889	0.201882	0.165512
H92	H	0.358072	-0.028572	0.000114
C93	C	0.824339	-0.535719	0.000100
C94	C	0.808753	-0.441003	0.000079
H95	H	0.768008	-0.560405	0.000118
H96	H	0.857778	-0.555501	-0.079605
H97	H	0.857792	-0.555485	0.079818
H98	H	0.775306	-0.421236	-0.079644
H99	H	0.775300	-0.421213	0.079792
H100	H	0.911844	-0.582344	0.000079
C101	C	0.212812	0.273428	0.000122
C102	C	0.303033	0.292528	0.000115
H103	H	0.173683	0.328548	0.000140
H104	H	0.201775	0.239406	-0.079588
H105	H	0.201788	0.239390	0.079835
H106	H	0.314059	0.326561	-0.079604
H107	H	0.314074	0.326565	0.079833
C108	C	1.169328	-0.082651	0.850073
C109	C	1.187607	0.002329	0.802129
H110	H	1.169337	-0.082656	0.947712
H111	H	1.111700	-0.095088	0.817528
H112	H	1.214563	-0.127842	0.817510
H113	H	1.142369	0.047519	0.834684
H114	H	1.245243	0.014777	0.834688
C115	C	1.306184	-0.585596	0.000118
C116	C	1.232945	-0.637382	0.000119
H117	H	1.361302	-0.624728	0.000130
H118	H	1.303466	-0.548482	-0.079592
H119	H	1.303461	-0.548469	0.079831
H120	H	1.235664	-0.674505	-0.079600
H121	H	1.235665	-0.674512	0.079837
H122	H	0.449870	0.354180	0.000078
H123	H	0.831553	0.358095	0.369591
H124	H	1.294596	-0.490546	0.000135
C125	C	0.881947	-0.047098	-0.117448
C126	C	0.827237	-0.043111	0.000063
H127	H	0.921080	-0.102215	-0.117446
H128	H	0.844812	-0.044388	-0.197137
H129	H	0.917066	0.002599	-0.117441
H130	H	0.792113	-0.092805	0.000052
H131	H	0.864377	-0.045831	0.079773
C132	C	1.392424	-0.380044	0.000113
C133	C	1.321512	-0.309573	0.000106
H134	H	1.448756	-0.355359	0.000099
H135	H	1.388311	-0.416271	0.079825
H136	H	1.388302	-0.416287	-0.079598
H137	H	1.325630	-0.273334	0.079822
H138	H	1.325626	-0.273331	-0.079614
H139	H	0.620472	0.357443	0.000073
C140	C	1.303277	-0.113118	0.207586
C141	C	1.316187	-0.126060	0.349066
H142	H	1.344879	-0.154593	0.158770
H143	H	1.243129	-0.123080	0.183976
H144	H	1.313082	-0.052906	0.184061
H145	H	1.306374	-0.186271	0.372594
H146	H	1.376349	-0.116105	0.372686
C147	C	1.120909	0.068968	0.150107
C148	C	1.187588	0.002341	0.198057
H149	H	1.120914	0.068973	0.052468
H150	H	1.063288	0.056508	0.182649
H151	H	1.133315	0.126610	0.182670
H152	H	1.175178	-0.055303	0.165502
H153	H	1.245221	0.014794	0.165501
H154	H	0.942669	0.247077	0.761138
H155	H	0.772178	0.277998	0.000073
H156	H	1.218414	-0.168238	0.000104
