data_functionalizedCrystal
_audit_creation_method	'MofGen! by Chris Wilmer'
_symmetry_space_group_name_H-M	'P1'
_symmetry_Int_Tables_number	1
_symmetry_cell_setting	triclinic
loop_
_symmetry_equiv_pos_as_xyz
  x,y,z
_cell_length_a	10.540539
_cell_length_b	10.654550
_cell_length_c	9.130313
_cell_angle_alpha	90.000110
_cell_angle_beta	90.003320
_cell_angle_gamma	95.494803
loop_
_atom_site_label
_atom_site_type_symbol
_atom_site_fract_x
_atom_site_fract_y
_atom_site_fract_z
O1	O	1.685816	-0.176986	-0.121675
O2	O	1.316397	-0.193663	-0.121704
O3	O	1.509601	-0.002588	-0.121683
O4	O	1.492613	-0.368061	-0.121695
O5	O	1.509598	-0.002593	0.121916
O6	O	1.316395	-0.193668	0.121895
O7	O	1.685814	-0.176992	0.121924
Cu8	Cu	1.501104	-0.185330	0.144152
Cu9	Cu	1.501107	-0.185324	-0.143932
O10	O	1.492611	-0.368066	0.121904
C11	C	1.269094	-0.192415	0.000092
C12	C	1.128147	-0.188673	0.000081
C13	C	1.508352	0.044208	0.000115
C14	C	1.504620	0.183652	0.000109
C15	C	1.733118	-0.178240	0.000125
C16	C	1.874064	-0.181981	0.000127
C17	C	2.057440	-0.325353	0.000635
C18	C	1.910823	-0.321560	0.000111
C19	C	1.935722	-0.114806	-0.138986
C20	C	2.082265	-0.119570	-0.139127
C21	C	2.082832	-0.116738	0.137890
C22	C	1.935851	-0.115453	0.139753
C23	C	1.493859	-0.414862	0.000103
C24	C	1.497591	-0.554306	0.000099
N25	N	1.501112	-0.185334	0.346775
C26	C	1.618375	0.263098	0.000122
C27	C	1.614861	0.394120	0.000112
C28	C	1.383827	0.366238	0.000081
C29	C	1.387343	0.235218	0.000081
C30	C	1.735653	0.211532	0.000151
C31	C	1.849417	0.290979	0.000166
C32	C	1.845903	0.422001	0.000155
C33	C	1.728625	0.473576	0.000130
N34	N	1.501110	-0.185311	-0.346554
C35	C	1.586684	-0.100755	0.423436
C36	C	1.586681	-0.100740	0.576773
C37	C	1.415528	-0.269893	0.576774
C38	C	1.415526	-0.269901	0.423440
C39	C	1.672269	-0.016187	0.346771
C40	C	1.757850	0.068397	0.423432
C41	C	1.757846	0.068412	0.576769
C42	C	1.672262	-0.016157	0.653445
H43	H	1.868217	-0.374422	0.099827
O44	O	1.257341	0.421860	0.000065
H45	H	1.202622	0.390016	0.099342
H46	H	1.672258	-0.016129	0.778302
H47	H	1.294713	0.170531	0.000072
O48	O	1.672258	-0.016196	0.181387
H49	H	1.746135	0.056825	0.140953
H50	H	1.738527	0.104849	0.000164
H51	H	1.944901	0.248977	0.000150
H52	H	1.827522	0.137258	0.360995
H53	H	1.725773	0.580264	0.000105
H54	H	1.827520	0.137292	0.639185
H55	H	1.345850	-0.338748	0.639213
O56	O	1.906159	0.020969	-0.145850
H57	H	1.847061	0.042060	-0.049957
O58	O	2.145849	0.013396	-0.147514
H59	H	2.206802	0.033010	-0.049471
H60	H	1.893052	-0.161433	-0.242501
H61	H	2.087609	-0.380262	-0.098571
H62	H	2.114390	-0.161914	0.243317
O63	O	1.323236	-0.361111	0.340720
H64	H	1.340259	-0.459181	0.370126
O65	O	2.095328	-0.398415	0.132744
H66	H	2.164965	-0.338099	0.199422
O67	O	1.903821	0.019346	0.150899
H68	H	1.948879	0.063474	0.250571
O69	O	1.881645	-0.180485	0.276076
H70	H	1.776966	-0.175571	0.279019
O71	O	1.855432	-0.392161	-0.132109
H72	H	1.933387	-0.429124	-0.195943
O73	O	2.119585	-0.185339	-0.276860
H74	H	2.033002	-0.213454	-0.342736
H75	H	1.938535	0.486684	0.000152
H76	H	2.130090	-0.015920	0.138821
