data_functionalizedCrystal
_audit_creation_method	'MofGen! by Chris Wilmer'
_symmetry_space_group_name_H-M	'P1'
_symmetry_Int_Tables_number	1
_symmetry_cell_setting	triclinic
loop_
_symmetry_equiv_pos_as_xyz
  x,y,z
_cell_length_a	6.817900
_cell_length_b	16.418049
_cell_length_c	9.514088
_cell_angle_alpha	91.371721
_cell_angle_beta	118.843545
_cell_angle_gamma	103.389670
loop_
_atom_site_label
_atom_site_type_symbol
_atom_site_fract_x
_atom_site_fract_y
_atom_site_fract_z
V1	V	-4.217234	-0.117373	-0.501316
O2	O	-4.201371	0.004112	-0.491191
O3	O	-4.167208	-0.231261	-0.498447
O4	O	-4.252014	-0.116238	-0.719702
O5	O	-4.115978	-0.111707	-0.268404
V6	V	-4.690294	-0.102762	-0.473390
O7	O	-4.501443	-0.149421	-0.562574
O8	O	-4.856282	-0.070714	-0.412132
O9	O	-4.517113	0.011126	-0.476259
O10	O	-4.823554	-0.224247	-0.483515
O11	O	-4.908947	-0.108428	-0.706301
O12	O	-4.432307	-0.103897	-0.255004
C13	C	-4.009122	-0.259003	-0.490683
C14	C	-4.050061	-0.352112	-0.489793
C15	C	-4.117298	-0.112279	-0.772913
C16	C	-4.227008	-0.112104	-0.951448
C17	C	-4.329385	-0.570620	-0.495809
C18	C	-4.367846	-0.658106	-0.494987
C19	C	-3.997504	-0.649515	-0.478907
C20	C	-3.959054	-0.562030	-0.479741
C21	C	-4.124996	-0.522585	-0.488184
C22	C	-4.201907	-0.697556	-0.486528
C23	C	-4.243607	-0.792413	-0.485636
C24	C	-4.083297	-0.427722	-0.489078
C25	C	-4.338539	0.038864	-0.484018
C26	C	-4.276842	0.131972	-0.484919
C27	C	-4.230361	-0.107859	-0.201784
C28	C	-4.099890	-0.108029	-0.023247
H29	H	-4.534279	-0.697213	-0.501199
H30	H	-3.862403	-0.681642	-0.472029
O31	O	-3.760268	-0.515376	-0.472039
C32	C	-3.340511	-0.469520	-0.318758
C33	C	-3.565435	-0.522371	-0.327248
H34	H	-3.182929	-0.475172	-0.201721
H35	H	-3.341345	-0.400196	-0.320701
H36	H	-3.330751	-0.494115	-0.427646
H37	H	-3.575340	-0.497850	-0.218383
H38	H	-3.564507	-0.591687	-0.325384
H39	H	-3.907133	-0.104681	-0.948135
O40	O	-4.457092	-0.116260	-1.041036
C41	C	-4.851715	-0.196343	-1.128769
C42	C	-4.591235	-0.191751	-1.027276
H43	H	-4.960242	-0.257364	-1.117652
H44	H	-4.902359	-0.195541	-1.261663
H45	H	-4.885367	-0.139481	-1.082034
H46	H	-4.557392	-0.248601	-1.073870
H47	H	-4.540722	-0.192512	-0.894399
O48	O	-4.490297	-0.532163	-0.503948
C49	C	-4.595274	-0.401207	-0.512465
C50	C	-4.412814	-0.444644	-0.503198
H51	H	-4.532719	-0.330445	-0.511896
H52	H	-4.620260	-0.410947	-0.403284
H53	H	-4.768025	-0.430093	-0.629206
H54	H	-4.239960	-0.415788	-0.386526
H55	H	-4.388030	-0.434910	-0.612461
