data_functionalizedCrystal
_audit_creation_method	'MofGen! by Chris Wilmer'
_symmetry_space_group_name_H-M	'P1'
_symmetry_Int_Tables_number	1
_symmetry_cell_setting	triclinic
loop_
_symmetry_equiv_pos_as_xyz
  x,y,z
_cell_length_a	12.594517
_cell_length_b	12.594516
_cell_length_c	16.120297
_cell_angle_alpha	92.877768
_cell_angle_beta	92.877094
_cell_angle_gamma	90.015485
loop_
_atom_site_label
_atom_site_type_symbol
_atom_site_fract_x
_atom_site_fract_y
_atom_site_fract_z
Zn1	Zn	1.596737	-0.454305	-0.471444
Zn2	Zn	1.605655	-0.623273	-0.332046
Zn3	Zn	1.427768	-0.445307	-0.332044
Zn4	Zn	1.418726	-0.632238	-0.471409
O5	O	1.512222	-0.538781	-0.401736
O6	O	1.746865	-0.476733	-0.452968
O7	O	1.589575	-0.592149	-0.215382
O8	O	1.450235	-0.297556	-0.350550
O9	O	1.753417	-0.600873	-0.350552
O10	O	1.574375	-0.304166	-0.452967
O11	O	1.458882	-0.461398	-0.215381
O12	O	1.277624	-0.470090	-0.350516
O13	O	1.434823	-0.616151	-0.588077
O14	O	1.270980	-0.607427	-0.452907
O15	O	1.565607	-0.485425	-0.588103
O16	O	1.580807	-0.773407	-0.350518
O17	O	1.443470	-0.779993	-0.452908
C18	C	1.235683	-0.538756	-0.401708
C19	C	1.117377	-0.538772	-0.401716
C20	C	0.980934	-0.464005	-0.346153
C21	C	1.046867	-0.443006	-0.422227
C22	C	1.053015	-0.559724	-0.325650
C23	C	0.972517	-0.517771	-0.477891
C24	C	0.978663	-0.634531	-0.381263
C25	C	1.044560	-0.613572	-0.457389
C26	C	1.512152	-0.815321	-0.401728
C27	C	1.512218	-0.933628	-0.401752
C28	C	1.437517	-1.006500	-0.457402
C29	C	1.416510	-1.072430	-0.381330
C30	C	1.533322	-1.078497	-0.477838
C31	C	1.491163	-0.997998	-0.325639
C32	C	1.608016	-1.004062	-0.422198
C33	C	1.587050	-1.069958	-0.346073
C34	C	1.789841	-0.538807	-0.401764
C35	C	1.908145	-0.538818	-0.401776
C36	C	1.498211	-0.552792	-0.619185
C37	C	1.492241	-0.558762	-0.711849
C38	C	1.512319	-0.261162	-0.401762
C39	C	1.512360	-0.142857	-0.401773
C40	C	1.481302	-0.569639	-0.881507
C41	C	1.543351	-0.507603	-0.922816
C42	C	1.537265	-0.513655	-1.017220
C43	C	1.487387	-0.563589	-0.787095
C44	C	1.526239	-0.524748	-0.185132
C45	C	1.532415	-0.518477	-0.092469
H46	H	0.937447	-0.499975	-0.542263
N47	N	1.615720	-0.435274	-0.878234
N48	N	1.620624	-0.430397	-0.800498
H49	H	1.671733	-0.379318	-0.769007
N50	N	1.358133	-0.971397	-0.516353
N51	N	1.262538	-0.993708	-0.508621
H52	H	1.206471	-0.968916	-0.550251
N53	N	1.408933	-0.641958	-0.926088
N54	N	1.404036	-0.646829	-1.003825
H55	H	1.352928	-0.697904	-1.035320
H56	H	1.688944	-0.973969	-0.439511
H57	H	0.952879	-0.400716	-0.299198
N58	N	1.079495	-0.692918	-0.516439
N59	N	1.051784	-0.688176	-0.591709
H60	H	1.076457	-0.744210	-0.633416
N61	N	1.314951	-1.110146	-0.359644
N62	N	1.233636	-1.090387	-0.403812
H63	H	1.161907	-1.117019	-0.388502
H64	H	0.948640	-0.715468	-0.363910
H65	H	1.473277	-0.962928	-0.261285
N66	N	1.084493	-0.341442	-0.443979
N67	N	1.019875	-0.268707	-0.458925
H68	H	1.046444	-0.196975	-0.474283
N69	N	1.097187	-0.581910	-0.244919
N70	N	1.078440	-0.521350	-0.183599
H71	H	1.109639	-0.537006	-0.126582
H72	H	1.650287	-1.097741	-0.298966
H73	H	1.551114	-1.113694	-0.542174
