data_functionalizedCrystal
_audit_creation_method	'MofGen! by Chris Wilmer'
_symmetry_space_group_name_H-M	'P1'
_symmetry_Int_Tables_number	1
_symmetry_cell_setting	triclinic
loop_
_symmetry_equiv_pos_as_xyz
  x,y,z
_cell_length_a	17.038278
_cell_length_b	17.038272
_cell_length_c	13.596369
_cell_angle_alpha	89.993837
_cell_angle_beta	89.994703
_cell_angle_gamma	91.111028
loop_
_atom_site_label
_atom_site_type_symbol
_atom_site_fract_x
_atom_site_fract_y
_atom_site_fract_z
O1	O	1.048755	0.170528	-0.081801
O2	O	1.548755	0.670528	0.418199
O3	O	0.820943	0.167823	-0.081801
O4	O	1.320943	0.667823	0.418199
O5	O	0.933495	0.055270	-0.081793
O6	O	1.433495	0.555270	0.418207
O7	O	0.936203	0.283081	-0.081809
O8	O	1.436203	0.783081	0.418191
O9	O	0.933483	0.055263	0.081790
O10	O	1.433483	0.555263	0.581790
O11	O	0.820931	0.167816	0.081782
O12	O	1.320931	0.667816	0.581782
O13	O	1.048742	0.170521	0.081782
O14	O	1.548742	0.670521	0.581782
Zn15	Zn	0.934835	0.169167	0.107754
Zn16	Zn	1.434835	0.669167	0.607754
Zn17	Zn	0.934851	0.169177	-0.107773
Zn18	Zn	1.434851	0.669177	0.392227
O19	O	0.936191	0.283074	0.081774
O20	O	1.436191	0.783074	0.581774
C21	C	0.791645	0.165356	-0.000010
C22	C	1.291645	0.665356	0.499990
C23	C	0.704361	0.158009	-0.000010
C24	C	1.204361	0.658009	0.499990
C25	C	0.210935	0.112872	-0.000010
C26	C	0.710935	0.612872	0.499990
C27	C	0.292947	0.119781	-0.000005
C28	C	0.792947	0.619781	0.499995
C29	C	0.329347	0.194155	-0.000014
C30	C	0.829347	0.694155	0.499986
C31	C	0.283730	0.261623	-0.000019
C32	C	0.783730	0.761623	0.499981
C33	C	0.201720	0.254713	-0.000018
C34	C	0.701720	0.754713	0.499982
C35	C	0.576734	0.218567	-0.000013
C36	C	1.076734	0.718567	0.499987
C37	C	0.658751	0.225473	-0.000018
C38	C	1.158751	0.725473	0.499982
C39	C	0.667962	0.083630	-0.000001
C40	C	1.167962	0.583630	0.499999
C41	C	0.585949	0.076726	-0.000006
C42	C	1.085949	0.576726	0.499994
C43	C	0.540340	0.144194	-0.000005
C44	C	1.040340	0.644194	0.499995
C45	C	0.413176	0.201219	-0.000012
C46	C	0.913176	0.701219	0.499988
C47	C	0.456513	0.137129	-0.000001
C48	C	0.956513	0.637129	0.499999
C49	C	0.931026	0.025974	-0.000002
C50	C	1.431026	0.525974	0.499998
C51	C	0.923678	-0.061310	-0.000002
C52	C	1.423678	0.438690	0.499998
C53	C	0.991142	-0.106920	-0.000001
C54	C	1.491142	0.393080	0.499999
C55	C	0.984233	-0.188932	-0.000011
C56	C	1.484233	0.311068	0.499989
C57	C	0.909859	-0.225332	-0.000014
C58	C	1.409859	0.274668	0.499986
C59	C	0.842391	-0.179716	-0.000018
C60	C	1.342391	0.320284	0.499982
C61	C	0.849300	-0.097706	-0.000016
C62	C	1.349300	0.402294	0.499984
C63	C	0.885449	-0.472720	-0.000027
C64	C	1.385449	0.027280	0.499973
C65	C	0.878544	-0.554736	-0.000027
C66	C	1.378544	-0.054736	0.499973
C67	C	1.020387	-0.563946	-0.000021
C68	C	1.520387	-0.063946	0.499979
C69	C	1.027290	-0.481934	-0.000013
C70	C	1.527290	0.018066	0.499987
C71	C	0.959821	-0.436325	-0.000022
C72	C	1.459821	0.063675	0.499978
C73	C	0.902796	-0.309161	-0.000020
C74	C	1.402796	0.190839	0.499980
C75	C	0.966886	-0.352497	-0.000023
C76	C	1.466886	0.147503	0.499977
C77	C	1.078041	0.172988	-0.000012
C78	C	1.578041	0.672988	0.499988
C79	C	1.165325	0.180335	-0.000018
C80	C	1.665325	0.680335	0.499982
C81	C	0.938660	0.312370	-0.000020
C82	C	1.438660	0.812370	0.499980
C83	C	0.946008	0.399654	-0.000026
C84	C	1.446008	0.899654	0.499974
N85	N	0.934829	0.169161	0.254846
N86	N	1.434829	0.669161	0.754846
N87	N	0.934862	0.169177	-0.254865
N88	N	1.434862	0.669177	0.245135
C89	C	0.934850	0.169177	0.656137
C90	C	1.434850	0.669177	1.156137
C91	C	0.934842	0.169175	0.544486
C92	C	1.434842	0.669175	1.044486
C93	C	0.934840	0.169170	0.455495
C94	C	1.434840	0.669170	0.955495
C95	C	0.934831	0.169166	0.343836
C96	C	1.434831	0.669166	0.843836
H97	H	0.330080	0.064845	0.000006
H98	H	0.830080	0.564845	0.500006
H99	H	0.426872	0.076575	-0.000004
H100	H	0.926872	0.576575	0.499996
H101	H	0.556319	0.016163	0.000002
H102	H	1.056319	0.516163	0.500002
H103	H	0.442822	0.261775	-0.000022
H104	H	0.942822	0.761775	0.499978
H105	H	0.313374	0.322180	-0.000021
H106	H	0.813374	0.822180	0.499979
H107	H	0.781834	-0.209360	-0.000027
H108	H	1.281834	0.290640	0.499973
H109	H	0.705105	0.028701	-0.000000
H110	H	1.205105	0.528701	0.500000
H111	H	1.051704	-0.077289	0.000008
H112	H	1.551704	0.422711	0.500008
H113	H	0.688384	0.286039	-0.000011
H114	H	1.188384	0.786039	0.499989
H115	H	0.539609	0.273505	-0.000018
H116	H	1.039609	0.773505	0.499982
H117	H	1.039169	-0.226064	-0.000007
H118	H	1.539169	0.273936	0.499993
H119	H	1.027440	-0.322857	-0.000042
H120	H	1.527440	0.177143	0.499958
H121	H	1.087852	-0.452303	-0.000010
H122	H	1.587852	0.047697	0.499990
H123	H	0.794364	-0.060571	-0.000017
H124	H	1.294364	0.439429	0.499983
H125	H	0.164585	0.309649	-0.000021
H126	H	0.664585	0.809649	0.499979
H127	H	0.842240	-0.338808	-0.000021
H128	H	1.342240	0.161192	0.499979
H129	H	0.830511	-0.435595	-0.000035
H130	H	1.330511	0.064405	0.499965
H131	H	0.181305	0.052309	-0.000009
H132	H	0.681305	0.552309	0.499991
H133	H	1.075316	-0.601089	-0.000015
H134	H	1.575316	-0.101089	0.499985
H135	H	0.817978	-0.584370	-0.000014
H136	H	1.317978	-0.084370	0.499986
