data_functionalizedCrystal
_audit_creation_method	'MofGen! by Chris Wilmer'
_symmetry_space_group_name_H-M	'P1'
_symmetry_Int_Tables_number	1
_symmetry_cell_setting	triclinic
loop_
_symmetry_equiv_pos_as_xyz
  x,y,z
_cell_length_a	21.295418
_cell_length_b	21.295418
_cell_length_c	19.805399
_cell_angle_alpha	89.972053
_cell_angle_beta	90.037822
_cell_angle_gamma	89.950467
loop_
_atom_site_label
_atom_site_type_symbol
_atom_site_fract_x
_atom_site_fract_y
_atom_site_fract_z
Zn1	Zn	0.962305	0.250358	0.383048
Zn2	Zn	0.962212	0.355627	0.269859
Zn3	Zn	0.857039	0.250404	0.269836
Zn4	Zn	0.856992	0.355622	0.382969
O5	O	0.909637	0.303003	0.326428
O6	O	1.050382	0.264305	0.368075
O7	O	0.948242	0.341690	0.175139
O8	O	0.871061	0.162309	0.284877
O9	O	1.050314	0.341645	0.284916
O10	O	0.948400	0.162275	0.368053
O11	O	0.870972	0.264384	0.175122
O12	O	0.768943	0.264379	0.284801
O13	O	0.870981	0.341638	0.477696
O14	O	0.768909	0.341683	0.367920
O15	O	0.948354	0.264300	0.477754
O16	O	0.948196	0.443716	0.284840
O17	O	0.870891	0.443712	0.367942
C18	C	0.746085	0.303036	0.326350
C19	C	0.676117	0.303065	0.326333
C20	C	0.909545	0.466555	0.326399
C21	C	0.909564	0.536523	0.326410
C22	C	0.909672	0.302963	0.502971
C23	C	0.909687	0.302946	0.578203
C24	C	0.643249	0.343370	0.369548
C25	C	0.577506	0.343355	0.369578
C26	C	0.544635	0.303041	0.326381
C27	C	0.577511	0.262728	0.283163
C28	C	0.643252	0.262740	0.283139
N29	N	0.441365	0.298123	0.267181
N30	N	0.378913	0.298115	0.267206
C31	C	0.346560	0.303001	0.326453
N32	N	0.379018	0.307907	0.385675
N33	N	0.441475	0.307918	0.385649
C34	C	0.473349	0.303023	0.326403
C35	C	0.242406	0.343291	0.369705
C36	C	0.176663	0.343271	0.369736
C37	C	0.176668	0.262648	0.283316
C38	C	0.242411	0.262664	0.283290
C39	C	0.275276	0.302989	0.326484
C40	C	1.073827	0.302970	0.326507
C41	C	1.143795	0.302956	0.326540
C42	C	0.949917	1.035910	0.369807
C43	C	0.949905	0.970167	0.369798
C44	C	0.909664	0.937362	0.326455
C45	C	0.869443	0.970305	0.283106
C46	C	0.869461	1.036046	0.283112
N47	N	0.854537	0.834208	0.321179
N48	N	0.854521	0.771756	0.321178
C49	C	0.909608	0.739287	0.326435
N50	N	0.964712	0.771629	0.331706
N51	N	0.964727	0.834086	0.331711
C52	C	0.909640	0.866077	0.326444
C53	C	0.949816	0.635067	0.369768
C54	C	0.949805	0.569323	0.369754
C55	C	0.869337	0.569462	0.283065
C56	C	0.869354	0.635205	0.283076
C57	C	0.909593	0.668003	0.326430
C58	C	0.909723	1.138813	0.326466
C59	C	0.909700	1.068845	0.326466
C60	C	0.909638	0.302997	0.150572
C61	C	0.909745	0.302837	0.075340
C62	C	0.949977	0.262675	0.613578
C63	C	0.949983	0.262657	0.684266
C64	C	0.909703	0.302913	0.719578
C65	C	0.869409	0.343187	0.684198
C66	C	0.869400	0.343201	0.613511
C67	C	0.869445	0.343128	0.969272
C68	C	0.869459	0.343112	1.039964
C69	C	0.950028	0.262583	1.040027
C70	C	0.950019	0.262598	0.969340
C71	C	0.909723	0.302869	0.933966
C72	C	0.909716	0.302887	0.857317
C73	C	0.909713	0.302899	0.796226
H74	H	0.670004	0.376205	0.404721
C75	C	0.678909	0.219060	0.236100
C76	C	0.662850	0.232693	0.169110
C77	C	0.695692	0.192474	0.125757
H78	H	0.668219	0.176751	0.246001
H79	H	0.722775	0.224849	0.242224
H80	H	0.618994	0.226898	0.162989
H81	H	0.673541	0.274994	0.159188
H82	H	0.739558	0.198263	0.131882
H83	H	0.684999	0.150168	0.135664
H84	H	0.684805	0.201722	0.080300
C85	C	0.825756	0.386922	1.078216
C86	C	0.839401	0.449206	1.060997
C87	C	0.799153	0.489579	1.096214
H88	H	0.831494	0.381233	1.125391
H89	H	0.783455	0.377753	1.066599
H90	H	0.881692	0.458371	1.072619
H91	H	0.833659	0.454915	1.013828
H92	H	0.756852	0.480410	1.084597
H93	H	0.804895	0.483884	1.143388
H94	H	0.808402	0.531842	1.084532
C95	C	0.825725	0.934805	0.235977
C96	C	0.790516	0.977723	0.198010
C97	C	0.750242	0.945044	0.154578
H98	H	0.798219	0.909177	0.261755
H99	H	0.849800	0.909158	0.206481
H100	H	0.766443	1.003359	0.227502
H101	H	0.818005	1.003352	0.172218
H102	H	0.774317	0.919398	0.125083
H103	H	0.722740	0.919418	0.180362
H104	H	0.726352	0.974159	0.128808
H105	H	0.269173	0.229847	0.248096
H106	H	0.982576	0.661773	0.405075
C107	C	0.993607	0.218927	0.575157
C108	C	0.957985	0.178606	0.534556
C109	C	0.998154	0.138299	0.499150
H110	H	1.017615	0.194879	0.606276
H111	H	1.021008	0.242987	0.547551
H112	H	0.930595	0.154549	0.562160
H113	H	0.933978	0.202636	0.503425
H114	H	1.025555	0.162359	0.471543
H115	H	1.022160	0.114256	0.530273
H116	H	0.973991	0.110941	0.471593
H117	H	0.836602	0.662021	0.247786
H118	H	0.836586	0.375988	0.584709
H119	H	0.982656	0.943347	0.405092
H120	H	0.836643	0.375928	0.940479
H121	H	0.836710	1.062862	0.247817
H122	H	0.149902	0.376091	0.404932
H123	H	0.982558	0.542507	0.405045
C124	C	0.993798	0.218912	0.722552
C125	C	1.029086	0.183675	0.676498
C126	C	1.069463	0.143375	0.711741
H127	H	0.969813	0.191424	0.750123
H128	H	1.021245	0.242969	0.750122
H129	H	1.001643	0.159620	0.648940
H130	H	1.053084	0.211146	0.648925
H131	H	1.096910	0.167432	0.739311
H132	H	1.045473	0.115891	0.739311
H133	H	1.093415	0.119466	0.680499
H134	H	0.982821	0.229819	0.940592
C135	C	0.993704	0.218876	1.078557
C136	C	0.985080	0.227462	1.148020
C137	C	1.025298	0.187207	1.183531
H138	H	1.036017	0.228044	1.067076
H139	H	0.984512	0.176572	1.067014
H140	H	0.994277	0.269757	1.159557
H141	H	0.942776	0.218290	1.159521
H142	H	1.016106	0.144903	1.171989
H143	H	1.067608	0.196378	1.172045
H144	H	1.019448	0.193023	1.230666
H145	H	0.836575	0.542753	0.247772
C146	C	0.278207	0.387041	0.416531
C147	C	0.342816	0.378441	0.407244
C148	C	0.375813	0.418739	0.450361
H149	H	0.267564	0.377921	0.462057
H150	H	0.267413	0.429336	0.406541
H151	H	0.353606	0.336157	0.417237
H152	H	0.353478	0.387566	0.361726
H153	H	0.365019	0.461033	0.440372
H154	H	0.365165	0.409615	0.495885
H155	H	0.419653	0.412913	0.444061
C156	C	0.825780	0.386972	0.722571
C157	C	0.861402	0.427316	0.763147
C158	C	0.821233	0.467667	0.798497
H159	H	0.798361	0.362965	0.750194
H160	H	0.801794	0.410995	0.691399
H161	H	0.885378	0.403295	0.794315
H162	H	0.888820	0.451337	0.735541
H163	H	0.797247	0.491689	0.767325
H164	H	0.793816	0.443654	0.826116
H165	H	0.845397	0.495048	0.826027
C166	C	0.541924	0.387182	0.416529
C167	C	0.584777	0.422507	0.454342
C168	C	0.552024	0.462890	0.497596
H169	H	0.516330	0.363201	0.446135
H170	H	0.516237	0.414606	0.390609
H171	H	0.610453	0.395086	0.480261
H172	H	0.610372	0.446501	0.424754
H173	H	0.526337	0.490314	0.471675
H174	H	0.526431	0.438904	0.527197
H175	H	0.581094	0.486867	0.523253
C176	C	0.141101	0.218807	0.236390
C177	C	0.183961	0.183503	0.198546
C178	C	0.151217	0.143101	0.155319
H179	H	0.115399	0.242775	0.206802
H180	H	0.115523	0.191372	0.262331
H181	H	0.209528	0.210935	0.172608
H182	H	0.209665	0.159522	0.228116
H183	H	0.125639	0.115666	0.181260
H184	H	0.125515	0.167074	0.125736
H185	H	0.180292	0.119138	0.129642
C186	C	0.541711	0.219031	0.236284
C187	C	0.477102	0.227661	0.245539
C188	C	0.444105	0.187423	0.202358
H189	H	0.552460	0.176723	0.246222
H190	H	0.552400	0.228199	0.190772
H191	H	0.466418	0.218489	0.291040
H192	H	0.466335	0.269961	0.235596
H193	H	0.454794	0.196591	0.156846
H194	H	0.454858	0.145117	0.212299
H195	H	0.400265	0.193277	0.208627
H196	H	0.982688	1.062610	0.405105
