data_functionalizedCrystal
_audit_creation_method	'MofGen! by Chris Wilmer'
_symmetry_space_group_name_H-M	'P1'
_symmetry_Int_Tables_number	1
_symmetry_cell_setting	triclinic
loop_
_symmetry_equiv_pos_as_xyz
  x,y,z
_cell_length_a	27.732048
_cell_length_b	23.532407
_cell_length_c	22.010155
_cell_angle_alpha	90.003069
_cell_angle_beta	90.000725
_cell_angle_gamma	82.745667
loop_
_atom_site_label
_atom_site_type_symbol
_atom_site_fract_x
_atom_site_fract_y
_atom_site_fract_z
O1	O	-0.058672	-0.755138	-0.050456
O2	O	0.441328	-0.255138	0.449544
O3	O	-0.067162	-0.589257	-0.050475
O4	O	0.432838	-0.089257	0.449525
O5	O	0.007472	-0.677350	-0.050453
O6	O	0.507472	-0.177350	0.449547
O7	O	-0.133306	-0.667046	-0.050477
O8	O	0.366694	-0.167046	0.449523
O9	O	0.007461	-0.677334	0.050597
O10	O	0.507461	-0.177334	0.550597
O11	O	-0.067173	-0.589241	0.050576
O12	O	0.432827	-0.089241	0.550576
O13	O	-0.058683	-0.755122	0.050595
O14	O	0.441317	-0.255122	0.550595
Cu15	Cu	-0.062929	-0.672180	0.059812
Cu16	Cu	0.437071	-0.172180	0.559812
Cu17	Cu	-0.062916	-0.672199	-0.059692
Cu18	Cu	0.437084	-0.172199	0.440308
O19	O	-0.133317	-0.667030	0.050573
O20	O	0.366683	-0.167030	0.550573
C21	C	-0.066952	-0.568033	0.000048
C22	C	0.433048	-0.068033	0.500048
C23	C	-0.066302	-0.504818	0.000042
C24	C	0.433698	-0.004818	0.500042
C25	C	0.025473	-0.677125	0.000074
C26	C	0.525473	-0.177125	0.500074
C27	C	0.079129	-0.676474	0.000079
C28	C	0.579129	-0.176474	0.500079
C29	C	-0.151319	-0.667254	0.000045
C30	C	0.348681	-0.167254	0.500045
C31	C	-0.204975	-0.667905	0.000036
C32	C	0.295025	-0.167905	0.500036
C33	C	0.417871	-0.724431	0.000053
C34	C	0.917871	-0.224431	0.500053
C35	C	0.619534	-0.722014	0.000044
C36	C	1.119534	-0.222014	0.500044
O37	O	0.650722	-0.765867	0.000023
O38	O	1.150722	-0.265867	0.500023
N39	N	0.638738	-0.669779	0.000039
N40	N	1.138738	-0.169779	0.500039
C41	C	0.607523	-0.618144	0.000032
C42	C	1.107523	-0.118144	0.500032
O43	O	0.628484	-0.573659	0.000021
O44	O	1.128484	-0.073659	0.500021
C45	C	0.405860	-0.620561	0.000036
C46	C	0.905860	-0.120561	0.500036
C47	C	0.386659	-0.672800	0.000048
C48	C	0.886659	-0.172800	0.500048
C49	C	0.398669	-0.776665	0.000064
C50	C	0.898669	-0.276665	0.500064
C51	C	0.348256	-0.777269	0.000069
C52	C	0.848256	-0.277269	0.500069
C53	C	0.317045	-0.725638	0.000064
C54	C	0.817045	-0.225638	0.500064
C55	C	0.336247	-0.673403	0.000053
C56	C	0.836247	-0.173403	0.500053
C57	C	0.374646	-0.568927	0.000025
C58	C	0.874646	-0.068927	0.500025
C59	C	0.324228	-0.569536	0.000024
C60	C	0.824228	-0.069536	0.500024
C61	C	0.305027	-0.621775	0.000036
C62	C	0.805027	-0.121775	0.500036
C63	C	0.254622	-0.622376	0.000053
C64	C	0.754622	-0.122376	0.500053
N65	N	0.235418	-0.674611	0.000059
N66	N	0.735418	-0.174611	0.500059
C67	C	0.266630	-0.726242	0.000064
C68	C	0.766630	-0.226242	0.500064
C69	C	0.713399	-0.616879	0.000031
C70	C	1.213399	-0.116879	0.500031
C71	C	0.763814	-0.616274	0.000031
C72	C	1.263814	-0.116274	0.500031
C73	C	0.775822	-0.720145	0.000042
C74	C	1.275822	-0.220145	0.500042
C75	C	0.725406	-0.720749	0.000046
C76	C	1.225406	-0.220749	0.500046
C77	C	0.694195	-0.669114	0.000036
C78	C	1.194195	-0.169114	0.500036
C79	C	0.160758	-0.727506	0.000076
C80	C	0.660758	-0.227506	0.500076
C81	C	0.110341	-0.728105	0.000084
C82	C	0.610341	-0.228105	0.500084
C83	C	0.098337	-0.624235	0.000069
C84	C	0.598337	-0.124235	0.500069
C85	C	0.148751	-0.623635	0.000065
C86	C	0.648751	-0.123635	0.500065
C87	C	0.179961	-0.675276	0.000066
C88	C	0.679961	-0.175276	0.500066
O89	O	0.223406	-0.578547	0.000068
O90	O	0.723406	-0.078547	0.500068
O91	O	0.245659	-0.770721	0.000061
O92	O	0.745659	-0.270721	0.500061
C93	C	0.468283	-0.723827	0.000047
C94	C	0.968283	-0.223827	0.500047
C95	C	0.487485	-0.671593	0.000037
C96	C	0.987485	-0.171593	0.500037
C97	C	0.456274	-0.619962	0.000031
C98	C	0.956274	-0.119962	0.500031
C99	C	0.537900	-0.670988	0.000037
C100	C	1.037900	-0.170988	0.500037
C101	C	0.569112	-0.722619	0.000042
C102	C	1.069112	-0.222619	0.500042
C103	C	0.549908	-0.774855	0.000047
C104	C	1.049908	-0.274855	0.500047
C105	C	0.499495	-0.775458	0.000053
C106	C	0.999495	-0.275458	0.500053
C107	C	0.475478	-0.567727	0.000026
C108	C	0.975478	-0.067727	0.500026
C109	C	0.525891	-0.567127	0.000021
C110	C	1.025891	-0.067127	0.500021
C111	C	0.557103	-0.618758	0.000026
C112	C	1.057103	-0.118758	0.500026
C113	C	-0.058894	-0.776346	0.000070
C114	C	0.441106	-0.276346	0.500070
C115	C	-0.059544	-0.839562	0.000073
C116	C	0.440456	-0.339562	0.500073
N117	N	-0.062938	-0.672171	0.143864
N118	N	0.437062	-0.172171	0.643864
C119	C	-0.106391	-0.105629	0.000062
C120	C	0.393609	0.394371	0.500062
C121	C	-0.105787	-0.046230	0.000066
C122	C	0.394213	0.453770	0.500066
O123	O	-0.142951	-0.009406	0.000082
O124	O	0.357049	0.490594	0.500082
N125	N	-0.061418	-0.023699	0.000073
N126	N	0.438582	0.476301	0.500073
C127	C	-0.017649	-0.060570	0.000082
C128	C	0.482351	0.439430	0.500082
O129	O	0.020147	-0.035951	0.000088
O130	O	0.520147	0.464049	0.500088
C131	C	-0.018253	-0.119967	0.000082
C132	C	0.481747	0.380033	0.500082
C133	C	-0.062626	-0.142495	0.000070
C134	C	0.437374	0.357505	0.500070
C135	C	-0.150760	-0.128158	0.000050
C136	C	0.349240	0.371842	0.500050
C137	C	-0.151364	-0.187552	0.000045
C138	C	0.348636	0.312448	0.500045
C139	C	-0.107599	-0.224419	0.000052
C140	C	0.392401	0.275581	0.500052
C141	C	-0.063229	-0.201890	0.000065
C142	C	0.436771	0.298110	0.500065
C143	C	0.025515	-0.156837	0.000096
C144	C	0.525515	0.343163	0.500096
C145	C	0.024907	-0.216239	0.000097
C146	C	0.524907	0.283761	0.500097
C147	C	-0.019466	-0.238766	0.000084
C148	C	0.480534	0.261234	0.500084
C149	C	-0.020068	-0.298151	0.000067
C150	C	0.479932	0.201849	0.500067
N151	N	-0.064437	-0.320683	0.000060
N152	N	0.435563	0.179317	0.500060
C153	C	-0.108203	-0.283817	0.000053
C154	C	0.391797	0.216183	0.500053
C155	C	-0.016383	0.064170	0.000082
C156	C	0.483617	0.564170	0.500082
C157	C	-0.015778	0.123567	0.000077
C158	C	0.484222	0.623567	0.500077
C159	C	-0.103917	0.137902	0.000062
C160	C	0.396083	0.637902	0.500062
C161	C	-0.104521	0.078505	0.000063
C162	C	0.395479	0.578505	0.500063
C163	C	-0.060753	0.041639	0.000075
C164	C	0.439247	0.541639	0.500075
C165	C	-0.109467	-0.408551	0.000042
C166	C	0.390533	0.091449	0.500042
C167	C	-0.110067	-0.467951	0.000035
C168	C	0.389933	0.032049	0.500035
C169	C	-0.021928	-0.482282	0.000052
C170	C	0.478072	0.017718	0.500052
C171	C	-0.021328	-0.422886	0.000057
C172	C	0.478672	0.077114	0.500057
C173	C	-0.065102	-0.386021	0.000053
C174	C	0.434898	0.113979	0.500053
O175	O	0.017077	-0.335010	0.000054
O176	O	0.517077	0.164990	0.500054
O177	O	-0.145992	-0.308444	0.000054
O178	O	0.354008	0.191556	0.500054
N179	N	-0.062903	-0.672213	-0.143744
N180	N	0.437097	-0.172213	0.356256
C181	C	-0.029873	-0.711209	0.563653
C182	C	0.470127	-0.211209	1.063653
C183	C	-0.029869	-0.711211	0.627261
C184	C	0.470131	-0.211211	1.127261
O185	O	-0.001762	-0.744380	0.660160
O186	O	0.498238	-0.244380	1.160160
N187	N	-0.062906	-0.672199	0.659071
N188	N	0.437094	-0.172199	1.159071
C189	C	-0.095945	-0.633177	0.627271
C190	C	0.404055	-0.133177	1.127271
O191	O	-0.124044	-0.599994	0.660169
O192	O	0.375956	-0.099994	1.160169
C193	C	-0.095945	-0.633172	0.563665
C194	C	0.404055	-0.133172	1.063665
C195	C	-0.062910	-0.672191	0.531857
C196	C	0.437090	-0.172191	1.031857
C197	C	0.003160	-0.750224	0.531846
C198	C	0.503160	-0.250224	1.031846
C199	C	0.003156	-0.750222	0.468243
C200	C	0.503156	-0.250222	0.968243
C201	C	-0.029881	-0.711205	0.436447
C202	C	0.470119	-0.211205	0.936447
C203	C	-0.062914	-0.672189	0.468254
C204	C	0.437086	-0.172189	0.968254
C205	C	-0.128981	-0.594148	0.531866
C206	C	0.371019	-0.094148	1.031866
C207	C	-0.128979	-0.594147	0.468255
C208	C	0.371021	-0.094147	0.968255
C209	C	-0.095943	-0.633166	0.436447
C210	C	0.404057	-0.133166	0.936447
C211	C	-0.095955	-0.633170	0.372855
C212	C	0.404045	-0.133170	0.872855
N213	N	-0.062919	-0.672182	0.341045
N214	N	0.437081	-0.172182	0.841045
C215	C	-0.029881	-0.711200	0.372840
C216	C	0.470119	-0.211200	0.872840
C217	C	-0.095940	-0.633190	0.760849
C218	C	0.404060	-0.133190	1.260849
C219	C	-0.095942	-0.633197	0.824454
C220	C	0.404058	-0.133197	1.324454
C221	C	-0.029866	-0.711231	0.824440
C222	C	0.470134	-0.211231	1.324440
C223	C	-0.029867	-0.711226	0.760833
C224	C	0.470133	-0.211226	1.260833
C225	C	-0.062904	-0.672202	0.729038
C226	C	0.437096	-0.172202	1.229038
C227	C	-0.029893	-0.711193	0.239269
C228	C	0.470107	-0.211193	0.739269
C229	C	-0.029901	-0.711189	0.175660
C230	C	0.470099	-0.211189	0.675660
C231	C	-0.095975	-0.633153	0.175680
C232	C	0.404025	-0.133153	0.675680
C233	C	-0.095969	-0.633159	0.239284
C234	C	0.404031	-0.133159	0.739284
C235	C	-0.062924	-0.672181	0.271076
C236	C	0.437076	-0.172181	0.771076
O237	O	-0.124047	-0.600017	0.339915
O238	O	0.375953	-0.100017	0.839915
O239	O	-0.001783	-0.744372	0.339935
O240	O	0.498217	-0.244372	0.839935
H241	H	0.094710	-0.770646	0.000095
H242	H	0.594710	-0.270646	0.500095
H243	H	0.709776	-0.763286	0.000055
H244	H	1.209776	-0.263286	0.500055
Cl245	Cl	0.172890	-0.557963	0.000062
Cl246	Cl	0.672890	-0.057963	0.500062
H247	H	0.687991	-0.574829	0.000022
H248	H	1.187991	-0.074829	0.500022
Cl249	Cl	-0.137480	-0.584150	0.864433
Cl250	Cl	0.362520	-0.084150	1.364433
H251	H	-0.139553	0.167930	0.000059
H252	H	0.360447	0.667930	0.500059
H253	H	-0.186402	-0.098146	0.000047
H254	H	0.313598	0.401854	0.500047
H255	H	0.541520	-0.524585	0.000017
H256	H	1.041520	-0.024585	0.500017
Cl257	Cl	0.815068	-0.785052	0.000046
Cl258	Cl	1.315068	-0.285052	0.500046
Cl259	Cl	-0.164498	-0.362215	0.000037
Cl260	Cl	0.335502	0.137785	0.500037
H261	H	0.014804	-0.404543	0.000058
H262	H	0.514804	0.095457	0.500058
Cl263	Cl	0.436248	-0.502812	0.000018
Cl264	Cl	0.936248	-0.002812	0.500018
Cl265	Cl	0.475364	-0.841133	0.000062
Cl266	Cl	0.975364	-0.341133	0.500062
H267	H	-0.155881	-0.562376	0.557754
H268	H	0.344119	-0.062376	1.057754
Cl269	Cl	-0.165854	-0.496268	0.000017
Cl270	Cl	0.334146	0.003732	0.500017
Cl271	Cl	0.040007	0.151880	0.000078
Cl272	Cl	0.540007	0.651880	0.500078
Cl273	Cl	-0.160306	0.050190	0.000049
Cl274	Cl	0.339694	0.550190	0.500049
Cl275	Cl	0.398772	-0.503251	0.000006
Cl276	Cl	0.898772	-0.003251	0.500006
Cl277	Cl	0.199986	-0.792426	0.000079
Cl278	Cl	0.699986	-0.292426	0.500079
H279	H	-0.002984	-0.742967	0.265148
H280	H	0.497016	-0.242967	0.765148
H281	H	0.030065	-0.781997	0.557728
H282	H	0.530065	-0.281997	1.057728
Cl283	Cl	0.081302	-0.128532	0.000102
Cl284	Cl	0.581302	0.371468	0.500102
H285	H	-0.122847	-0.601414	0.734965
H286	H	0.377153	-0.101414	1.234965
H287	H	0.779443	-0.573737	0.000032
H288	H	1.279443	-0.073737	0.500032
H289	H	0.019261	0.034156	0.000086
H290	H	0.519261	0.534156	0.500086
Cl291	Cl	-0.207150	-0.215864	0.000033
Cl292	Cl	0.292850	0.284136	0.500033
Cl293	Cl	0.079934	-0.262581	0.000113
Cl294	Cl	0.579934	0.237419	0.500113
H295	H	-0.155881	-0.562367	0.442371
H296	H	0.344119	-0.062367	0.942371
Cl297	Cl	0.033088	-0.528639	0.000064
Cl298	Cl	0.533088	-0.028639	0.500064
H299	H	-0.122874	-0.601392	0.265182
H300	H	0.377126	-0.101392	0.765182
Cl301	Cl	0.011631	-0.760245	0.135677
Cl302	Cl	0.511631	-0.260245	0.635677
Cl303	Cl	0.044691	-0.799273	0.428263
Cl304	Cl	0.544691	-0.299273	0.928263
H305	H	-0.002967	-0.742998	0.734939
H306	H	0.497033	-0.242998	1.234939
H307	H	-0.002965	-0.743000	0.850339
H308	H	0.497035	-0.243000	1.350339
H309	H	0.072916	-0.582198	0.000067
H310	H	0.572916	-0.082198	0.500067
Cl311	Cl	0.324126	-0.842944	0.000066
Cl312	Cl	0.824126	-0.342944	0.500066
Cl313	Cl	0.437898	-0.841582	0.000072
Cl314	Cl	0.937898	-0.341582	0.500072
Cl315	Cl	-0.137506	-0.584105	0.135698
Cl316	Cl	0.362494	-0.084105	0.635698
Cl317	Cl	0.589154	-0.839761	0.000057
Cl318	Cl	1.089154	-0.339761	0.500057
Cl319	Cl	0.284994	-0.504619	0.000010
Cl320	Cl	0.784994	-0.004619	0.500010
