data_functionalizedCrystal
_audit_creation_method	'MofGen! by Chris Wilmer'
_symmetry_space_group_name_H-M	'P1'
_symmetry_Int_Tables_number	1
_symmetry_cell_setting	triclinic
loop_
_symmetry_equiv_pos_as_xyz
  x,y,z
_cell_length_a	27.732048
_cell_length_b	23.532407
_cell_length_c	22.610064
_cell_angle_alpha	90.002839
_cell_angle_beta	89.999096
_cell_angle_gamma	97.254333
loop_
_atom_site_label
_atom_site_type_symbol
_atom_site_fract_x
_atom_site_fract_y
_atom_site_fract_z
O1	O	0.058672	-0.755138	-0.049117
O2	O	0.558672	-0.255138	0.450883
O3	O	0.067162	-0.589257	-0.049135
O4	O	0.567162	-0.089257	0.450865
O5	O	-0.007472	-0.677349	-0.049114
O6	O	0.492528	-0.177349	0.450886
O7	O	0.133306	-0.667046	-0.049138
O8	O	0.633306	-0.167046	0.450862
O9	O	-0.007461	-0.677334	0.049255
O10	O	0.492539	-0.177334	0.549255
O11	O	0.067173	-0.589241	0.049234
O12	O	0.567173	-0.089241	0.549234
O13	O	0.058683	-0.755123	0.049252
O14	O	0.558683	-0.255123	0.549252
Zn15	Zn	0.062930	-0.672179	0.064861
Zn16	Zn	0.562930	-0.172179	0.564861
Zn17	Zn	0.062915	-0.672200	-0.064744
Zn18	Zn	0.562915	-0.172200	0.435256
O19	O	0.133317	-0.667030	0.049231
O20	O	0.633317	-0.167030	0.549231
C21	C	-0.025473	-0.677125	0.000072
C22	C	0.474527	-0.177125	0.500072
C23	C	-0.079129	-0.676474	0.000077
C24	C	0.420871	-0.176474	0.500077
C25	C	0.066952	-0.568033	0.000047
C26	C	0.566952	-0.068033	0.500047
C27	C	0.066302	-0.504818	0.000041
C28	C	0.566302	-0.004818	0.500041
C29	C	0.058894	-0.776346	0.000068
C30	C	0.558894	-0.276346	0.500068
C31	C	0.059544	-0.839562	0.000071
C32	C	0.559544	-0.339562	0.500071
C33	C	-0.417871	-0.724431	0.000052
C34	C	0.082129	-0.224431	0.500052
C35	C	-0.619534	-0.722014	0.000043
C36	C	-0.119534	-0.222014	0.500043
O37	O	-0.650722	-0.765867	0.000022
O38	O	-0.150722	-0.265867	0.500022
N39	N	-0.638738	-0.669779	0.000038
N40	N	-0.138738	-0.169779	0.500038
C41	C	-0.607523	-0.618144	0.000031
C42	C	-0.107523	-0.118144	0.500031
O43	O	-0.628484	-0.573659	0.000020
O44	O	-0.128484	-0.073659	0.500020
C45	C	-0.405860	-0.620561	0.000035
C46	C	0.094140	-0.120561	0.500035
C47	C	-0.386659	-0.672800	0.000046
C48	C	0.113341	-0.172800	0.500046
C49	C	-0.398669	-0.776665	0.000062
C50	C	0.101331	-0.276665	0.500062
C51	C	-0.348256	-0.777269	0.000067
C52	C	0.151744	-0.277269	0.500067
C53	C	-0.317045	-0.725638	0.000062
C54	C	0.182955	-0.225638	0.500062
C55	C	-0.336247	-0.673403	0.000052
C56	C	0.163753	-0.173403	0.500052
C57	C	-0.374646	-0.568927	0.000024
C58	C	0.125354	-0.068927	0.500024
C59	C	-0.324228	-0.569536	0.000024
C60	C	0.175772	-0.069536	0.500024
C61	C	-0.305027	-0.621775	0.000035
C62	C	0.194973	-0.121775	0.500035
C63	C	-0.254622	-0.622376	0.000052
C64	C	0.245378	-0.122376	0.500052
N65	N	-0.235418	-0.674611	0.000057
N66	N	0.264582	-0.174611	0.500057
C67	C	-0.266630	-0.726242	0.000062
C68	C	0.233370	-0.226242	0.500062
C69	C	-0.713399	-0.616879	0.000030
C70	C	-0.213399	-0.116879	0.500030
C71	C	-0.763814	-0.616274	0.000030
C72	C	-0.263814	-0.116274	0.500030
C73	C	-0.775822	-0.720145	0.000041
C74	C	-0.275822	-0.220145	0.500041
C75	C	-0.725406	-0.720749	0.000045
C76	C	-0.225406	-0.220749	0.500045
C77	C	-0.694195	-0.669114	0.000035
C78	C	-0.194195	-0.169114	0.500035
C79	C	-0.160758	-0.727506	0.000074
C80	C	0.339242	-0.227506	0.500074
C81	C	-0.110341	-0.728105	0.000082
C82	C	0.389659	-0.228105	0.500082
C83	C	-0.098337	-0.624235	0.000068
C84	C	0.401663	-0.124235	0.500068
C85	C	-0.148751	-0.623635	0.000063
C86	C	0.351249	-0.123635	0.500063
C87	C	-0.179961	-0.675276	0.000064
C88	C	0.320039	-0.175276	0.500064
O89	O	-0.223406	-0.578547	0.000066
O90	O	0.276594	-0.078547	0.500066
O91	O	-0.245659	-0.770721	0.000060
O92	O	0.254341	-0.270721	0.500060
C93	C	-0.468283	-0.723827	0.000046
C94	C	0.031717	-0.223827	0.500046
C95	C	-0.487485	-0.671593	0.000036
C96	C	0.012515	-0.171593	0.500036
C97	C	-0.456274	-0.619962	0.000030
C98	C	0.043726	-0.119962	0.500030
C99	C	-0.537900	-0.670988	0.000036
C100	C	-0.037900	-0.170988	0.500036
C101	C	-0.569112	-0.722619	0.000041
C102	C	-0.069112	-0.222619	0.500041
C103	C	-0.549908	-0.774855	0.000046
C104	C	-0.049908	-0.274855	0.500046
C105	C	-0.499495	-0.775458	0.000051
C106	C	0.000505	-0.275458	0.500051
C107	C	-0.475478	-0.567727	0.000025
C108	C	0.024522	-0.067727	0.500025
C109	C	-0.525891	-0.567127	0.000021
C110	C	-0.025891	-0.067127	0.500021
C111	C	-0.557103	-0.618758	0.000026
C112	C	-0.057103	-0.118758	0.500026
C113	C	0.151319	-0.667254	0.000044
C114	C	0.651319	-0.167254	0.500044
C115	C	0.204975	-0.667905	0.000035
C116	C	0.704975	-0.167905	0.500035
N117	N	0.062939	-0.672170	0.153314
N118	N	0.562939	-0.172170	0.653314
C119	C	0.106391	-0.105629	0.000061
C120	C	0.606391	0.394371	0.500061
C121	C	0.105787	-0.046230	0.000064
C122	C	0.605787	0.453770	0.500064
O123	O	0.142951	-0.009406	0.000080
O124	O	0.642951	0.490594	0.500080
N125	N	0.061418	-0.023699	0.000071
N126	N	0.561418	0.476301	0.500071
C127	C	0.017649	-0.060570	0.000080
C128	C	0.517649	0.439430	0.500080
O129	O	-0.020147	-0.035951	0.000086
O130	O	0.479853	0.464049	0.500086
C131	C	0.018253	-0.119967	0.000080
C132	C	0.518253	0.380033	0.500080
C133	C	0.062626	-0.142495	0.000068
C134	C	0.562626	0.357505	0.500068
C135	C	0.150760	-0.128158	0.000049
C136	C	0.650760	0.371842	0.500049
C137	C	0.151364	-0.187552	0.000044
C138	C	0.651364	0.312448	0.500044
C139	C	0.107599	-0.224419	0.000051
C140	C	0.607599	0.275581	0.500051
C141	C	0.063229	-0.201890	0.000063
C142	C	0.563229	0.298110	0.500063
C143	C	-0.025515	-0.156837	0.000093
C144	C	0.474485	0.343163	0.500093
C145	C	-0.024907	-0.216239	0.000094
C146	C	0.475093	0.283761	0.500094
C147	C	0.019466	-0.238766	0.000082
C148	C	0.519466	0.261234	0.500082
C149	C	0.020068	-0.298151	0.000065
C150	C	0.520068	0.201849	0.500065
N151	N	0.064437	-0.320683	0.000059
N152	N	0.564437	0.179317	0.500059
C153	C	0.108203	-0.283817	0.000052
C154	C	0.608203	0.216183	0.500052
C155	C	0.016383	0.064170	0.000080
C156	C	0.516383	0.564170	0.500080
C157	C	0.015778	0.123567	0.000075
C158	C	0.515778	0.623567	0.500075
C159	C	0.103917	0.137902	0.000061
C160	C	0.603917	0.637902	0.500061
C161	C	0.104521	0.078505	0.000061
C162	C	0.604521	0.578505	0.500061
C163	C	0.060753	0.041639	0.000073
C164	C	0.560753	0.541639	0.500073
C165	C	0.109467	-0.408551	0.000041
C166	C	0.609467	0.091449	0.500041
C167	C	0.110067	-0.467951	0.000034
C168	C	0.610067	0.032049	0.500034
C169	C	0.021928	-0.482282	0.000051
C170	C	0.521928	0.017718	0.500051
C171	C	0.021328	-0.422886	0.000055
C172	C	0.521328	0.077114	0.500055
C173	C	0.065102	-0.386021	0.000052
C174	C	0.565102	0.113979	0.500052
O175	O	-0.017077	-0.335010	0.000052
O176	O	0.482923	0.164990	0.500052
O177	O	0.145992	-0.308444	0.000053
O178	O	0.645992	0.191556	0.500053
N179	N	0.062902	-0.672214	-0.153197
N180	N	0.562902	-0.172214	0.346803
C181	C	0.029873	-0.711209	0.561964
C182	C	0.529873	-0.211209	1.061964
C183	C	0.029869	-0.711212	0.623884
C184	C	0.529869	-0.211212	1.123884
O185	O	0.001762	-0.744380	0.655911
O186	O	0.501762	-0.244380	1.155911
N187	N	0.062905	-0.672200	0.654851
N188	N	0.562905	-0.172200	1.154851
C189	C	0.095944	-0.633178	0.623894
C190	C	0.595944	-0.133178	1.123894
O191	O	0.124044	-0.599995	0.655919
O192	O	0.624044	-0.099995	1.155919
C193	C	0.095945	-0.633173	0.561975
C194	C	0.595945	-0.133173	1.061975
C195	C	0.062910	-0.672191	0.531012
C196	C	0.562910	-0.172191	1.031012
C197	C	-0.003160	-0.750224	0.531001
C198	C	0.496840	-0.250224	1.031001
C199	C	-0.003156	-0.750222	0.469085
C200	C	0.496844	-0.250222	0.969085
C201	C	0.029881	-0.711204	0.438133
C202	C	0.529881	-0.211204	0.938133
C203	C	0.062914	-0.672189	0.469096
C204	C	0.562914	-0.172189	0.969096
C205	C	0.128981	-0.594149	0.531020
C206	C	0.628981	-0.094149	1.031020
C207	C	0.128979	-0.594146	0.469097
C208	C	0.628979	-0.094146	0.969097
C209	C	0.095944	-0.633165	0.438134
C210	C	0.595944	-0.133165	0.938134
C211	C	0.095955	-0.633169	0.376229
C212	C	0.595955	-0.133169	0.876229
N213	N	0.062919	-0.672182	0.345262
N214	N	0.562919	-0.172182	0.845262
C215	C	0.029882	-0.711199	0.376214
C216	C	0.529882	-0.211199	0.876214
C217	C	0.095939	-0.633191	0.753928
C218	C	0.595939	-0.133191	1.253928
C219	C	0.095941	-0.633198	0.815846
C220	C	0.595941	-0.133198	1.315846
C221	C	0.029865	-0.711232	0.815831
C222	C	0.529865	-0.211232	1.315831
C223	C	0.029866	-0.711227	0.753912
C224	C	0.529866	-0.211227	1.253912
C225	C	0.062903	-0.672203	0.722961
C226	C	0.562903	-0.172203	1.222961
C227	C	0.029894	-0.711192	0.246187
C228	C	0.529894	-0.211192	0.746187
C229	C	0.029902	-0.711187	0.184266
C230	C	0.529902	-0.211187	0.684266
C231	C	0.095976	-0.633152	0.184286
C232	C	0.595976	-0.133152	0.684286
C233	C	0.095969	-0.633158	0.246201
C234	C	0.595969	-0.133158	0.746201
C235	C	0.062924	-0.672180	0.277150
C236	C	0.562924	-0.172180	0.777150
O237	O	0.124047	-0.600016	0.344163
O238	O	0.624047	-0.100016	0.844163
O239	O	0.001783	-0.744372	0.344182
O240	O	0.501783	-0.244372	0.844182
H241	H	-0.094710	-0.770646	0.000092
H242	H	0.405290	-0.270646	0.500092
N243	N	-0.441818	-0.512036	0.000019
N244	N	0.058182	-0.012036	0.500019
H245	H	-0.461638	-0.478858	0.000015
H246	H	0.038362	0.021142	0.500015
H247	H	-0.420642	-0.510017	0.036489
H248	H	0.079358	-0.010017	0.536489
N249	N	-0.290572	-0.513838	0.000023
N250	N	0.209428	-0.013838	0.500023
H251	H	-0.269391	-0.511766	0.036492
H252	H	0.230609	-0.011766	0.536492
H253	H	-0.269413	-0.511804	-0.036463
H254	H	0.230587	-0.011804	0.463537
H255	H	-0.779443	-0.573737	0.000031
H256	H	-0.279443	-0.073737	0.500031
N257	N	-0.005738	-0.753266	0.150872
N258	N	0.494262	-0.253266	0.650872
H259	H	-0.000726	-0.747346	0.106949
H260	H	0.499274	-0.247346	0.606949
H261	H	-0.000333	-0.793619	0.161691
H262	H	0.499667	-0.293619	0.661691
N263	N	-0.025274	-0.522050	0.000059
N264	N	0.474726	-0.022050	0.500059
H265	H	-0.018155	-0.563095	0.000058
H266	H	0.481845	-0.063095	0.500058
H267	H	-0.044616	-0.514798	0.036532
H268	H	0.455384	-0.014798	0.536532
N269	N	-0.327546	-0.833610	0.000065
N270	N	0.172454	-0.333610	0.500065
H271	H	-0.306897	-0.836179	0.036529
H272	H	0.193103	-0.336179	0.536529
H273	H	-0.354998	-0.866191	0.000041
H274	H	0.145002	-0.366191	0.500041
H275	H	-0.801243	-0.762185	0.000045
H276	H	-0.301243	-0.262185	0.500045
N277	N	0.131604	-0.591065	0.150897
N278	N	0.631604	-0.091065	0.650897
H279	H	0.165887	-0.597314	0.161667
H280	H	0.665887	-0.097314	0.661667
H281	H	0.126547	-0.597006	0.106985
H282	H	0.626547	-0.097006	0.606985
H283	H	0.146202	-0.486290	0.000023
H284	H	0.646202	0.013710	0.500023
N285	N	0.131580	-0.591108	0.720544
N286	N	0.631580	-0.091108	1.220544
H287	H	0.113221	-0.566051	0.694857
H288	H	0.613221	-0.066051	1.194857
H289	H	0.152499	-0.566436	0.749596
H290	H	0.652499	-0.066436	1.249596
N291	N	-0.194416	-0.783202	0.000075
N292	N	0.305584	-0.283202	0.500075
H293	H	-0.174595	-0.816380	0.000084
H294	H	0.325405	-0.316380	0.500084
H295	H	-0.215596	-0.785210	0.036541
H296	H	0.284404	-0.285210	0.536541
N297	N	-0.064668	-0.568550	0.000054
N298	N	0.435332	-0.068550	0.500054
H299	H	-0.084478	-0.535364	0.000046
H300	H	0.415522	-0.035364	0.500046
H301	H	-0.043487	-0.566531	0.036520
H302	H	0.456513	-0.066531	0.536520
N303	N	0.156684	-0.368804	0.000035
N304	N	0.656684	0.131196	0.500035
H305	H	0.158399	-0.343840	-0.036429
H306	H	0.658399	0.156160	0.463571
H307	H	0.158382	-0.343877	0.036526
H308	H	0.658382	0.156123	0.536526
H309	H	0.187497	-0.205889	0.000034
H310	H	0.687497	0.294111	0.500034
N311	N	0.131573	-0.591114	0.849236
N312	N	0.631573	-0.091114	1.349236
H313	H	0.126562	-0.597031	0.893160
H314	H	0.626562	-0.097031	1.393160
H315	H	0.165837	-0.597388	0.838413
H316	H	0.665837	-0.097388	1.338413
N317	N	-0.704697	-0.777091	0.000053
N318	N	-0.204697	-0.277091	0.500053
H319	H	-0.684048	-0.779652	0.036519
H320	H	-0.184048	-0.279652	0.536519
H321	H	-0.732151	-0.809670	0.000036
H322	H	-0.232151	-0.309670	0.500036
H323	H	0.002985	-0.742966	0.271379
H324	H	0.502985	-0.242966	0.771379
N325	N	-0.005766	-0.753321	0.849221
N326	N	0.494234	-0.253321	1.349221
H327	H	-0.040048	-0.747072	0.838448
H328	H	0.459952	-0.247072	1.338448
H329	H	-0.000325	-0.793668	0.838425
H330	H	0.499675	-0.293668	1.338425
N331	N	0.197969	-0.088400	0.000075
N332	N	0.697969	0.411600	0.500075
H333	H	0.226163	-0.111694	0.000079
H334	H	0.726163	0.388306	0.500079
H335	H	0.199654	-0.063431	-0.036383
H336	H	0.699654	0.436569	0.463617
H337	H	-0.687991	-0.574829	0.000022
H338	H	-0.187991	-0.074829	0.500022
N339	N	-0.026529	-0.398584	0.000057
N340	N	0.473471	0.101416	0.500057
H341	H	-0.054162	-0.430954	0.000058
H342	H	0.445838	0.069046	0.500058
H343	H	-0.028697	-0.374254	0.036528
H344	H	0.471303	0.125746	0.536528
H345	H	-0.061648	-0.138506	0.000104
H346	H	0.438352	0.361494	0.500104
H347	H	-0.390270	-0.526389	0.000011
H348	H	0.109730	-0.026389	0.500011
N349	N	-0.546593	-0.510777	0.000016
N350	N	-0.046593	-0.010777	0.500016
H351	H	-0.535188	-0.488187	-0.036453
H352	H	-0.035188	0.011813	0.463547
H353	H	-0.583264	-0.518267	0.000036
H354	H	-0.083264	-0.018267	0.500036
N355	N	-0.038789	-0.792304	0.435693
N356	N	0.461211	-0.292304	0.935693
H357	H	-0.059717	-0.817017	0.464705
H358	H	0.440283	-0.317017	0.964705
H359	H	-0.060066	-0.770690	0.410007
H360	H	0.439934	-0.270690	0.910007
N361	N	-0.038789	-0.792320	0.564379
N362	N	0.461211	-0.292320	1.064379
H363	H	-0.059709	-0.817034	0.535360
H364	H	0.440291	-0.317034	1.035360
H365	H	-0.020383	-0.817333	0.590058
H366	H	0.479617	-0.317333	1.090058
N367	N	-0.169464	-0.567295	0.000059
N368	N	0.330536	-0.067295	0.500059
H369	H	-0.142040	-0.534679	0.000059
H370	H	0.357960	-0.034679	0.500059
H371	H	-0.190115	-0.564788	-0.036413
H372	H	0.309885	-0.064788	0.463587
N373	N	-0.030828	0.024409	0.000089
N374	N	0.469172	0.524409	0.500089
H375	H	-0.059024	0.047700	0.000093
H376	H	0.440976	0.547700	0.500093
H377	H	-0.032504	-0.000551	-0.036377
H378	H	0.467496	0.499449	0.463623
H379	H	0.139553	0.167930	0.000058
H380	H	0.639553	0.667930	0.500058
H381	H	0.140653	0.060167	0.000054
H382	H	0.640653	0.560167	0.500054
N383	N	-0.072115	-0.256003	0.000102
N384	N	0.427885	0.243997	0.500102
H385	H	-0.073824	-0.280966	0.036567
H386	H	0.426176	0.219034	0.536567
H387	H	-0.100286	-0.232675	0.000088
H388	H	0.399714	0.267325	0.500088
N389	N	-0.005764	-0.753311	0.720518
N390	N	0.494236	-0.253311	1.220518
H391	H	-0.026690	-0.778028	0.749528
H392	H	0.473310	-0.278028	1.249528
H393	H	-0.027043	-0.731698	0.694832
H394	H	0.472957	-0.231698	1.194832
N395	N	-0.032081	0.147862	0.000078
N396	N	0.467919	0.647862	0.500078
H397	H	-0.059712	0.115489	0.000081
H398	H	0.440288	0.615489	0.500081
H399	H	-0.034250	0.172193	0.036546
H400	H	0.465750	0.672193	0.536546
N401	N	0.164605	-0.552054	0.564406
N402	N	0.664605	-0.052054	1.064406
H403	H	0.185526	-0.527335	0.535394
H404	H	0.685526	-0.027335	1.035394
H405	H	0.146197	-0.527047	0.590092
H406	H	0.646197	-0.027047	1.090092
N407	N	0.164610	-0.552053	0.435714
N408	N	0.664610	-0.052053	0.935714
H409	H	0.185535	-0.527339	0.464729
H410	H	0.685535	-0.027339	0.964729
H411	H	0.185891	-0.573661	0.410022
H412	H	0.685891	-0.073661	0.910022
N413	N	-0.432328	-0.832358	0.000068
N414	N	0.067672	-0.332358	0.500068
H415	H	-0.412506	-0.865534	0.000075
H416	H	0.087494	-0.365534	0.500075
H417	H	-0.453505	-0.834365	0.036537
H418	H	0.046495	-0.334365	0.536537
H419	H	0.122874	-0.601391	0.271412
H420	H	0.622874	-0.101391	0.771412
H421	H	-0.483866	-0.817996	0.000060
H422	H	0.016134	-0.317996	0.500060
H423	H	-0.575329	-0.816894	0.000053
H424	H	-0.075329	-0.316894	0.500053
