data_functionalizedCrystal
_audit_creation_method	'MofGen! by Chris Wilmer'
_symmetry_space_group_name_H-M	'P1'
_symmetry_Int_Tables_number	1
_symmetry_cell_setting	triclinic
loop_
_symmetry_equiv_pos_as_xyz
  x,y,z
_cell_length_a	13.635800
_cell_length_b	23.752963
_cell_length_c	11.168136
_cell_angle_alpha	84.861853
_cell_angle_beta	108.508683
_cell_angle_gamma	79.933268
loop_
_atom_site_label
_atom_site_type_symbol
_atom_site_fract_x
_atom_site_fract_y
_atom_site_fract_z
V1	V	2.033810	-0.079171	0.394440
O2	O	2.035746	0.003796	0.386169
O3	O	2.001187	-0.156974	0.392476
O4	O	2.022279	-0.077957	0.566135
O5	O	2.014509	-0.075768	0.211308
V6	V	2.275073	-0.069247	0.372447
O7	O	2.165531	-0.100940	0.442684
O8	O	2.368451	-0.047477	0.324203
O9	O	2.196092	0.008556	0.374411
O10	O	2.331835	-0.152213	0.380718
O11	O	2.353073	-0.072649	0.555579
O12	O	2.175001	-0.070461	0.200753
V13	V	2.533810	-0.079171	0.394440
O14	O	2.535746	0.003796	0.386169
O15	O	2.501187	-0.156974	0.392476
O16	O	2.522279	-0.077957	0.566135
O17	O	2.514509	-0.075768	0.211308
V18	V	2.775073	-0.069247	0.372447
O19	O	2.665531	-0.100940	0.442684
O20	O	2.868451	-0.047477	0.324203
O21	O	2.696092	0.008556	0.374411
O22	O	2.831835	-0.152213	0.380718
O23	O	2.853073	-0.072649	0.555579
O24	O	2.675001	-0.070461	0.200753
C25	C	1.921229	-0.175941	0.386443
C26	C	1.935284	-0.239546	0.385981
C27	C	1.994801	-0.625785	0.267271
C28	C	2.008017	-0.685548	0.266820
O29	O	1.991322	-0.709508	0.168184
N30	N	2.042332	-0.723610	0.382307
C31	C	2.063442	-0.701908	0.498254
O32	O	2.093844	-0.739771	0.596443
C33	C	2.050232	-0.642146	0.498704
C34	C	2.015906	-0.604086	0.383208
C35	C	1.960478	-0.587725	0.151785
C36	C	1.947260	-0.527966	0.152236
C37	C	1.968365	-0.506267	0.268174
C38	C	2.002688	-0.544327	0.383660
C39	C	2.071349	-0.620445	0.614650
C40	C	2.058136	-0.560678	0.615091
C41	C	2.023810	-0.522618	0.499595
C42	C	2.010576	-0.462869	0.500049
N43	N	1.976261	-0.424806	0.384562
C44	C	1.955156	-0.446505	0.268624
C45	C	2.091182	-0.827411	0.497299
C46	C	2.104385	-0.887171	0.496849
C47	C	2.048961	-0.870807	0.265415
C48	C	2.035752	-0.811045	0.265865
C49	C	2.056867	-0.789348	0.381812
C50	C	1.927399	-0.321008	0.269582
C51	C	1.914179	-0.261245	0.270043
C52	C	1.969608	-0.277614	0.501477
C53	C	1.982822	-0.337372	0.501016
C54	C	1.961718	-0.359067	0.385058
O55	O	2.027255	-0.438868	0.598635
O56	O	1.924769	-0.408637	0.170452
C57	C	1.948133	-0.075146	0.607960
C58	C	1.979291	-0.074668	0.748326
C59	C	2.107721	0.027520	0.380441
C60	C	2.083286	0.091125	0.380911
C61	C	2.080817	-0.073274	0.158921
C62	C	2.039278	-0.073748	0.018553
C63	C	2.421229	-0.175941	0.386443
C64	C	2.435284	-0.239546	0.385981
C65	C	2.448133	-0.075146	0.607960
C66	C	2.479291	-0.074668	0.748326
C67	C	2.079878	-0.077169	0.817041
C68	C	2.112084	-0.076675	0.962117
C69	C	2.607721	0.027520	0.380441
C70	C	2.583286	0.091125	0.380911
C71	C	2.580817	-0.073274	0.158921
C72	C	2.539278	-0.073748	0.018553
C73	C	2.533104	-0.272333	0.392100
C74	C	2.546329	-0.332098	0.391686
C75	C	2.461730	-0.359075	0.385143
C76	C	2.363903	-0.326284	0.379027
C77	C	2.350681	-0.266520	0.379451
C78	C	2.657959	0.123911	0.374795
C79	C	2.635007	0.183676	0.375216
C80	C	2.537383	0.210653	0.381761
C81	C	2.462703	0.177862	0.387874
C82	C	2.485653	0.118099	0.387444
C83	C	2.579878	-0.077169	0.817041
C84	C	2.612084	-0.076675	0.962117
H85	H	1.886223	-0.230257	0.175989
O86	O	2.396987	-0.071533	0.812925
H87	H	2.359712	-0.109499	0.798419
O88	O	1.925133	-0.070909	0.940311
H89	H	1.898853	-0.108633	0.976293
O90	O	2.272666	-0.355387	0.371973
H91	H	2.205669	-0.336415	0.282501
O92	O	1.904623	-0.344404	0.144516
H93	H	1.878524	-0.307891	0.064297
H94	H	2.518708	0.259317	0.382110
O95	O	2.357415	0.206965	0.394941
H96	H	2.309332	0.174131	0.399116
H97	H	1.943291	-0.605385	0.057369
H98	H	1.917017	-0.072158	0.796899
O99	O	2.245167	-0.231160	0.372845
H100	H	2.214062	-0.197682	0.286218
H101	H	2.695827	0.210367	0.370240
O102	O	2.405117	0.082735	0.394069
H103	H	2.333388	0.111537	0.398710
H104	H	2.642149	-0.079671	0.768466
H105	H	2.737456	0.101955	0.369466
O106	O	2.726228	-0.079504	1.040345
H107	H	2.755771	-0.118609	1.114605
O108	O	1.910228	-0.486918	0.027666
H109	H	1.897780	-0.512055	-0.053017
O110	O	1.998730	-0.769995	0.141298
H111	H	1.986278	-0.795130	0.060611
H112	H	2.031778	-0.888485	0.171012
H113	H	2.132319	-0.918155	0.590896
H114	H	2.453108	-0.071611	0.959492
O115	O	2.624365	-0.243245	0.399185
H116	H	2.694605	-0.276094	0.403392
H117	H	2.108376	-0.809750	0.591722
H118	H	2.099299	-0.651424	0.708699
H119	H	2.075344	-0.543017	0.709511
H120	H	2.010757	-0.368363	0.595061
H121	H	1.986785	-0.259936	0.595870
O122	O	2.162379	-0.080489	0.752719
H123	H	2.124137	-0.080359	0.648866
H124	H	2.198254	-0.078819	1.021188
H125	H	2.625991	-0.358789	0.396663
H126	H	2.472510	-0.407739	0.384799
