data_functionalizedCrystal
_audit_creation_method	'MofGen! by Chris Wilmer'
_symmetry_space_group_name_H-M	'P1'
_symmetry_Int_Tables_number	1
_symmetry_cell_setting	triclinic
loop_
_symmetry_equiv_pos_as_xyz
  x,y,z
_cell_length_a	16.120444
_cell_length_b	16.120490
_cell_length_c	16.120339
_cell_angle_alpha	90.179912
_cell_angle_beta	89.786690
_cell_angle_gamma	89.834826
loop_
_atom_site_label
_atom_site_type_symbol
_atom_site_fract_x
_atom_site_fract_y
_atom_site_fract_z
Zn1	Zn	-0.365984	-1.228134	-0.552133
Zn2	Zn	-0.032651	-0.894801	-0.218800
Zn3	Zn	0.300682	-0.561467	0.114533
Zn4	Zn	-0.512146	-1.227273	-0.420076
Zn5	Zn	-0.178813	-0.893940	-0.086742
Zn6	Zn	0.154521	-0.560607	0.246591
Zn7	Zn	-0.366798	-1.096039	-0.406082
Zn8	Zn	-0.033465	-0.762706	-0.072748
Zn9	Zn	0.299869	-0.429373	0.260585
Zn10	Zn	-0.497970	-1.082020	-0.551379
Zn11	Zn	-0.164637	-0.748686	-0.218046
Zn12	Zn	0.168696	-0.415353	0.115288
O13	O	-0.435725	-1.158367	-0.482417
O14	O	-0.102391	-0.825033	-0.149084
O15	O	0.230942	-0.491700	0.184249
O16	O	-0.390965	-1.344091	-0.540788
O17	O	-0.057632	-1.010758	-0.207454
O18	O	0.275702	-0.677424	0.125879
O19	O	-0.499138	-1.215372	-0.302145
O20	O	-0.165805	-0.882039	0.031188
O21	O	0.167528	-0.548705	0.364521
O22	O	-0.250625	-1.119790	-0.419915
O23	O	0.082708	-0.786456	-0.086582
O24	O	0.416042	-0.453123	0.246752
O25	O	-0.498349	-1.343459	-0.443765
O26	O	-0.165016	-1.010125	-0.110432
O27	O	0.168317	-0.676792	0.222901
O28	O	-0.250027	-1.216839	-0.527218
O29	O	0.083306	-0.883506	-0.193885
O30	O	0.416640	-0.550172	0.139448
O31	O	-0.392352	-1.118955	-0.291864
O32	O	-0.059019	-0.785622	0.041469
O33	O	0.274315	-0.452288	0.374803
O34	O	-0.378606	-0.978109	-0.419184
O35	O	-0.045273	-0.644775	-0.085850
O36	O	0.288060	-0.311442	0.247483
O37	O	-0.474189	-1.095895	-0.667553
O38	O	-0.140856	-0.762562	-0.334220
O39	O	0.192478	-0.429228	-0.000886
O40	O	-0.474978	-0.967808	-0.525933
O41	O	-0.141645	-0.634475	-0.192600
O42	O	0.191689	-0.301142	0.140734
O43	O	-0.377219	-1.203245	-0.668107
O44	O	-0.043886	-0.869911	-0.334774
O45	O	0.289447	-0.536578	-0.001440
O46	O	-0.626331	-1.201777	-0.443034
O47	O	-0.292997	-0.868444	-0.109701
O48	O	0.040336	-0.535111	0.223633
O49	O	-0.615916	-1.095060	-0.539502
O50	O	-0.282583	-0.761727	-0.206169
O51	O	0.050751	-0.428394	0.127165
C52	C	-0.651218	-1.146826	-0.492724
C53	C	-0.317885	-0.813492	-0.159391
C54	C	0.015449	-0.480159	0.173943
C55	C	-0.743409	-1.141963	-0.497165
C56	C	-0.410076	-0.808630	-0.163832
C57	C	-0.076742	-0.475296	0.169502
C58	C	-0.425343	-0.942862	-0.470958
C59	C	-0.092010	-0.609529	-0.137625
C60	C	0.241324	-0.276196	0.195708
C61	C	-0.420920	-0.850667	-0.466077
C62	C	-0.087587	-0.517333	-0.132743
C63	C	0.245746	-0.184000	0.200590
C64	C	-0.424032	-1.148102	-0.698768
C65	C	-0.090699	-0.814769	-0.365435
C66	C	0.242635	-0.481435	-0.032102
C67	C	-0.419049	-1.143728	-0.790964
C68	C	-0.085716	-0.810394	-0.457631
C69	C	0.247617	-0.477061	-0.124297
C70	C	-0.958407	-1.183787	-0.459569
C71	C	-0.625073	-0.850453	-0.126235
C72	C	-0.291740	-0.517120	0.207098
C73	C	-0.912199	-1.133100	-0.505283
C74	C	-0.578865	-0.799767	-0.171949
C75	C	-0.245532	-0.466433	0.161384
C76	C	-0.818275	-1.138033	-0.500765
C77	C	-0.484942	-0.804699	-0.167431
C78	C	-0.151609	-0.471366	0.165902
C79	C	-1.052338	-1.178855	-0.464086
C80	C	-0.719005	-0.845521	-0.130752
C81	C	-0.385672	-0.512188	0.202581
C82	C	-0.219390	-1.169974	-0.472090
C83	C	0.113943	-0.836641	-0.138756
C84	C	0.447277	-0.503308	0.194577
C85	C	-0.127201	-1.174921	-0.467689
C86	C	0.206132	-0.841587	-0.134355
C87	C	0.539465	-0.508254	0.198978
C88	C	-0.446148	-1.374712	-0.493922
C89	C	-0.112814	-1.041379	-0.160588
C90	C	0.220519	-0.708046	0.172745
C91	C	-0.450589	-1.466906	-0.498824
C92	C	-0.117256	-1.133573	-0.165491
C93	C	0.216077	-0.800239	0.167843
C94	C	-0.458658	-0.635709	-0.507740
C95	C	-0.125325	-0.302376	-0.174407
C96	C	0.208008	0.030958	0.158927
C97	C	-0.412854	-0.681869	-0.457164
C98	C	-0.079521	-0.348535	-0.123830
C99	C	0.253813	-0.015202	0.209503
C100	C	-0.417343	-0.775796	-0.462124
C101	C	-0.084010	-0.442463	-0.128791
C102	C	0.249323	-0.109130	0.204542
C103	C	-0.454170	-0.541773	-0.502780
C104	C	-0.120836	-0.208439	-0.169447
C105	C	0.212497	0.124894	0.163886
C106	C	-0.447314	-1.168642	-0.266908
C107	C	-0.113981	-0.835309	0.066425
C108	C	0.219352	-0.501976	0.399759
C109	C	-0.452071	-1.173190	-0.174710
C110	C	-0.118738	-0.839856	0.158623
C111	C	0.214596	-0.506523	0.491957
C112	C	-0.410370	-1.135421	0.040228
C113	C	-0.077037	-0.802088	0.373562
C114	C	0.256297	-0.468755	0.706895
C115	C	-0.460748	-1.181493	-0.005907
C116	C	-0.127415	-0.848160	0.327426
C117	C	0.205919	-0.514827	0.660759
C118	C	-0.455919	-1.176872	-0.099838
C119	C	-0.122585	-0.843538	0.233496
C120	C	0.210748	-0.510205	0.566829
C121	C	-0.415198	-1.140042	0.134167
C122	C	-0.081865	-0.806709	0.467501
C123	C	0.251469	-0.473375	0.800834
H124	H	-0.927431	-1.230882	-0.417041
H125	H	-0.594098	-0.897549	-0.083707
H126	H	-0.260765	-0.564215	0.249626
O127	O	-0.516512	-1.232615	0.031256
O128	O	-0.183179	-0.899282	0.364590
O129	O	0.150154	-0.565948	0.697923
C130	C	-0.572177	-1.283941	0.160124
C131	C	-0.238843	-0.950608	0.493457
C132	C	0.094490	-0.617275	0.826790
C133	C	-0.508998	-1.226005	0.118139
C134	C	-0.175665	-0.892671	0.451472
C135	C	0.157668	-0.559338	0.784806
H136	H	-0.566111	-1.278630	0.230375
H137	H	-0.232778	-0.945297	0.563708
H138	H	0.100556	-0.611963	0.897041
H139	H	-0.637655	-1.265450	0.140955
H140	H	-0.304321	-0.932117	0.474288
H141	H	0.029012	-0.598784	0.807622
H142	H	-0.559496	-1.350688	0.140113
H143	H	-0.226162	-1.017355	0.473447
H144	H	0.107171	-0.684021	0.806780
H145	H	-0.521603	-1.159241	0.138128
H146	H	-0.188269	-0.825908	0.471461
H147	H	0.145064	-0.492574	0.804795
H148	H	-0.443541	-1.244567	0.137307
H149	H	-0.110207	-0.911233	0.470641
H150	H	0.223126	-0.577900	0.803974
H151	H	-0.363617	-1.092510	0.009185
H152	H	-0.030284	-0.759177	0.342518
H153	H	0.303049	-0.425843	0.675851
H154	H	-0.943177	-1.086001	-0.547813
H155	H	-0.609844	-0.752667	-0.214480
H156	H	-0.276511	-0.419334	0.118854
H157	H	-0.501242	-0.666731	-0.554761
H158	H	-0.167908	-0.333398	-0.221428
H159	H	0.165425	-0.000064	0.111906
H160	H	-0.370268	-0.650845	-0.410138
H161	H	-0.036934	-0.317511	-0.076805
H162	H	0.296399	0.015822	0.256529
