data_functionalizedCrystal
_audit_creation_method	'MofGen! by Chris Wilmer'
_symmetry_space_group_name_H-M	'P1'
_symmetry_Int_Tables_number	1
_symmetry_cell_setting	triclinic
loop_
_symmetry_equiv_pos_as_xyz
  x,y,z
_cell_length_a	8.497374
_cell_length_b	12.759401
_cell_length_c	12.759400
_cell_angle_alpha	89.985155
_cell_angle_beta	89.991978
_cell_angle_gamma	90.000368
loop_
_atom_site_label
_atom_site_type_symbol
_atom_site_fract_x
_atom_site_fract_y
_atom_site_fract_z
Zn1	Zn	0.891904	1.606068	0.418444
Zn2	Zn	0.628108	1.606017	0.594091
Zn3	Zn	0.628137	1.430425	0.418427
Zn4	Zn	0.891846	1.430358	0.594082
O5	O	0.759999	1.518217	0.506261
O6	O	0.856923	1.753082	0.441755
O7	O	0.407350	1.582732	0.570785
O8	O	0.663163	1.453773	0.271408
O9	O	0.663113	1.753045	0.570802
O10	O	0.856951	1.582817	0.271421
O11	O	0.407371	1.453725	0.441725
O12	O	0.663107	1.283395	0.441717
O13	O	1.112616	1.453659	0.570787
O14	O	0.856853	1.283346	0.570770
O15	O	1.112658	1.582752	0.441746
O16	O	0.663058	1.582667	0.741110
O17	O	0.856824	1.453611	0.741104
C18	C	0.759978	1.245250	0.506241
C19	C	0.760006	1.128473	0.506258
C20	C	0.860722	1.073613	0.573564
C21	C	0.860739	0.963889	0.573577
C22	C	0.659310	0.963895	0.438977
C23	C	0.659302	1.073617	0.438959
C24	C	0.977011	1.073609	0.651278
C25	C	0.977028	0.963885	0.651291
C26	C	0.759966	1.518155	0.779228
C27	C	0.760005	1.518224	0.896005
C28	C	1.171479	1.518209	0.506262
C29	C	1.350123	1.518212	0.506274
C30	C	0.760021	1.792250	0.506281
C31	C	0.760031	1.909027	0.506290
C32	C	0.760066	1.518308	0.232228
C33	C	0.760095	1.518347	0.115451
C34	C	0.659222	1.585498	0.950835
C35	C	0.659270	1.585563	1.060559
C36	C	0.860889	1.451070	1.060613
C37	C	0.860847	1.451012	0.950891
C38	C	0.542814	1.663143	0.950805
C39	C	0.542862	1.663208	1.060529
H40	H	1.099249	1.103391	0.629612
O41	O	0.958537	1.385618	0.897510
C42	C	0.868619	1.317755	0.834138
H43	H	0.749098	1.354858	0.817705
H44	H	0.851218	1.239926	0.876488
C45	C	1.102152	1.253068	0.750087
C46	C	0.955360	1.298642	0.729896
H47	H	1.155660	1.241273	0.685788
H48	H	1.162734	1.298785	0.792785
H49	H	1.087631	1.188215	0.785381
H50	H	0.969884	1.363499	0.694615
H51	H	0.894783	1.252935	0.687190
O52	O	0.582149	1.760092	0.915060
C53	C	0.719755	1.753227	0.853687
H54	H	0.732944	1.669965	0.822517
H55	H	0.826405	1.773908	0.903781
C56	C	0.691987	1.932527	0.799365
C57	C	0.708178	1.830265	0.761075
H58	H	0.684851	1.980051	0.742240
H59	H	0.599282	1.937154	0.840717
H60	H	0.780866	1.949747	0.841110
H61	H	0.619292	1.813043	0.719342
H62	H	0.800868	1.825637	0.719714
H63	H	0.426703	1.634043	0.916826
H64	H	0.942993	1.396349	1.105314
O65	O	0.595413	1.755414	1.100923
C66	C	0.750751	1.773746	1.066661
H67	H	0.773183	1.728151	0.991302
H68	H	0.836978	1.746863	1.129612
C69	C	0.746103	1.947678	1.138552
C70	C	0.773650	1.891684	1.045990
H71	H	0.760233	2.020428	1.125805
H72	H	0.641451	1.935327	1.161639
H73	H	0.817962	1.925264	1.191002
H74	H	0.701779	1.914090	0.993546
H75	H	0.878292	1.904042	1.022894
H76	H	0.944096	0.934096	0.732632
O77	O	0.397162	1.637367	1.096302
C78	C	0.397495	1.637460	1.206803
H79	H	0.497231	1.689369	1.236380
H80	H	0.415225	1.554073	1.236663
C81	C	0.116682	1.616330	1.210893
C82	C	0.239172	1.680092	1.247220
H83	H	0.019020	1.642622	1.235825
H84	H	0.116457	1.616262	1.136446
H85	H	0.131478	1.546845	1.235778
H86	H	0.224386	1.749572	1.222323
H87	H	0.239391	1.680172	1.321664
O88	O	0.561653	0.910649	0.373462
C89	C	0.596370	0.937493	0.268783
H90	H	0.722409	0.967665	0.263606
H91	H	0.511852	1.001178	0.241221
C92	C	0.423405	0.802971	0.205022
C93	C	0.578212	0.840020	0.198662
H94	H	0.412198	0.742848	0.161766
H95	H	0.400010	0.784888	0.275546
H96	H	0.352990	0.856051	0.182055
H97	H	0.648622	0.786945	0.221640
H98	H	0.601619	0.858092	0.128140
O99	O	1.115465	0.923113	0.616669
C100	C	1.107297	0.812764	0.618757
H101	H	0.978881	0.787101	0.615596
H102	H	1.163455	0.782492	0.694047
C103	C	1.353705	0.799304	0.527487
C104	C	1.195983	0.767785	0.523595
H105	H	1.408415	0.771557	0.468790
H106	H	1.359211	0.873648	0.526084
H107	H	1.400482	0.774075	0.590233
H108	H	1.149203	0.793025	0.460858
H109	H	1.190470	0.693444	0.524986
H110	H	0.577299	1.118280	0.384145
H111	H	0.933039	1.107632	0.728518
