data_functionalizedCrystal
_audit_creation_method	'MofGen! by Chris Wilmer'
_symmetry_space_group_name_H-M	'P1'
_symmetry_Int_Tables_number	1
_symmetry_cell_setting	triclinic
loop_
_symmetry_equiv_pos_as_xyz
  x,y,z
_cell_length_a	13.032831
_cell_length_b	21.295417
_cell_length_c	13.033109
_cell_angle_alpha	97.148977
_cell_angle_beta	76.665514
_cell_angle_gamma	82.834379
loop_
_atom_site_label
_atom_site_type_symbol
_atom_site_fract_x
_atom_site_fract_y
_atom_site_fract_z
Zn1	Zn	1.699936	-0.442513	-0.806304
Zn2	Zn	2.033270	-0.109179	-0.472970
Zn3	Zn	2.366603	0.224154	-0.139637
Zn4	Zn	1.677232	-0.532462	-0.628666
Zn5	Zn	2.010566	-0.199128	-0.295332
Zn6	Zn	2.343899	0.134205	0.038001
Zn7	Zn	1.499773	-0.411896	-0.606204
Zn8	Zn	1.833106	-0.078563	-0.272871
Zn9	Zn	2.166439	0.254770	0.060462
Zn10	Zn	1.522247	-0.532406	-0.783710
Zn11	Zn	1.855581	-0.199073	-0.450376
Zn12	Zn	2.188914	0.134260	-0.117043
O13	O	1.599797	-0.479819	-0.706221
O14	O	1.933131	-0.146486	-0.372887
O15	O	2.266464	0.186847	-0.039554
O16	O	1.845556	-0.467281	-0.801596
O17	O	2.178889	-0.133948	-0.468262
O18	O	2.512222	0.199386	-0.134929
O19	O	1.634785	-0.503679	-0.477057
O20	O	1.968118	-0.170345	-0.143724
O21	O	2.301451	0.162988	0.189609
O22	O	1.526421	-0.327880	-0.632804
O23	O	1.859754	0.005453	-0.299470
O24	O	2.193088	0.338787	0.033863
O25	O	1.828875	-0.533366	-0.671086
O26	O	2.162208	-0.200033	-0.337752
O27	O	2.495542	0.133301	-0.004419
O28	O	1.673480	-0.350374	-0.779816
O29	O	2.006814	-0.017040	-0.446482
O30	O	2.340147	0.316293	-0.113149
O31	O	1.504406	-0.415100	-0.460555
O32	O	1.837739	-0.081766	-0.127222
O33	O	2.171072	0.251567	0.206112
O34	O	1.354123	-0.415046	-0.610895
O35	O	1.687456	-0.081713	-0.277561
O36	O	2.020790	0.251621	0.055772
O37	O	1.564725	-0.533272	-0.935336
O38	O	1.898059	-0.199938	-0.602002
O39	O	2.231392	0.133395	-0.268669
O40	O	1.370635	-0.503584	-0.741307
O41	O	1.703968	-0.170251	-0.407974
O42	O	2.037302	0.163083	-0.074641
O43	O	1.695273	-0.467227	-0.951935
O44	O	2.028606	-0.133894	-0.618602
O45	O	2.361940	0.199439	-0.285269
O46	O	1.656577	-0.620532	-0.649177
O47	O	1.989910	-0.287199	-0.315844
O48	O	2.323244	0.046134	0.017490
O49	O	1.542710	-0.620491	-0.763087
O50	O	1.876044	-0.287158	-0.429754
O51	O	2.209377	0.046175	-0.096420
C52	C	1.323841	-0.455987	-0.671213
C53	C	1.657174	-0.122654	-0.337879
C54	C	1.990507	0.210679	-0.004546
C55	C	1.205789	-0.445809	-0.656261
C56	C	1.539122	-0.112476	-0.322928
C57	C	1.872455	0.220857	0.010406
C58	C	1.161342	-0.485131	-0.714024
C59	C	1.494676	-0.151798	-0.380691
C60	C	1.828009	0.181535	-0.047357
C61	C	1.039329	-0.474613	-0.698572
C62	C	1.372663	-0.141279	-0.365239
C63	C	1.705996	0.192054	-0.031906
C64	C	1.599650	-0.643354	-0.706144
C65	C	1.932984	-0.310021	-0.372811
C66	C	2.266317	0.023313	-0.039478
C67	C	1.599689	-0.713326	-0.706159
C68	C	1.933023	-0.379993	-0.372826
C69	C	2.266356	-0.046659	-0.039493
C70	C	1.659049	-0.746204	-0.646924
C71	C	1.992382	-0.412871	-0.313590
C72	C	2.325716	-0.079538	0.019743
C73	C	1.659102	-0.811953	-0.646954
C74	C	1.992435	-0.478620	-0.313621
C75	C	2.325769	-0.145286	0.019713
C76	C	1.599775	-0.844819	-0.706206
C77	C	1.933108	-0.511485	-0.372873
C78	C	2.266441	-0.178152	-0.039540
C79	C	1.540412	-0.811933	-0.765455
C80	C	1.873745	-0.478600	-0.432121
C81	C	2.207079	-0.145267	-0.098788
C82	C	1.540369	-0.746187	-0.765431
C83	C	1.873703	-0.412854	-0.432098
C84	C	2.207036	-0.079520	-0.098765
N85	N	1.507889	-0.940762	-0.702516
N86	N	1.841222	-0.607429	-0.369182
N87	N	2.174556	-0.274096	-0.035849
N88	N	1.507932	-1.003218	-0.702532
N89	N	1.841265	-0.669885	-0.369199
N90	N	2.174598	-0.336551	-0.035866
C91	C	1.599901	-1.042909	-0.706282
C92	C	1.933235	-0.709576	-0.372949
C93	C	2.266568	-0.376242	-0.039616
N94	N	1.691826	-1.017783	-0.709995
N95	N	2.025159	-0.684449	-0.376661
N96	N	2.358493	-0.351116	-0.043328
N97	N	1.691782	-0.955320	-0.709973
N98	N	2.025115	-0.621987	-0.376639
N99	N	2.358448	-0.288654	-0.043306
C100	C	1.599815	-0.916110	-0.706239
C101	C	1.933148	-0.582776	-0.372905
C102	C	2.266481	-0.249443	-0.039572
C103	C	1.659324	-1.147080	-0.647076
C104	C	1.992657	-0.813746	-0.313743
C105	C	2.325990	-0.480413	0.019590
C106	C	1.659379	-1.212830	-0.647114
C107	C	1.992712	-0.879497	-0.313781
C108	C	2.326046	-0.546164	0.019552
C109	C	1.540679	-1.212808	-0.765608
C110	C	1.874012	-0.879475	-0.432275
C111	C	2.207346	-0.546141	-0.098942
C112	C	1.540634	-1.147060	-0.765577
C113	C	1.873967	-0.813727	-0.432244
C114	C	2.207300	-0.480393	-0.098910
C115	C	1.599954	-1.114199	-0.706305
C116	C	1.933287	-0.780866	-0.372972
C117	C	2.266620	-0.447532	-0.039639
C118	C	1.876831	-0.503745	-0.741366
C119	C	2.210165	-0.170412	-0.408033
C120	C	2.543498	0.162922	-0.074700
C121	C	1.994887	-0.513941	-0.756343
C122	C	2.328220	-0.180607	-0.423010
C123	C	2.661553	0.152726	-0.089677
C124	C	1.635039	-0.503658	-0.983251
C125	C	1.968372	-0.170325	-0.649917
C126	C	2.301705	0.163008	-0.316584
C127	C	1.650057	-0.513817	-1.101304
C128	C	1.983390	-0.180484	-0.767971
C129	C	2.316723	0.152849	-0.434638
C130	C	1.599976	-0.315651	-0.706324
C131	C	1.933310	0.017683	-0.372991
C132	C	2.266643	0.351016	-0.039658
C133	C	1.600053	-0.245692	-0.706369
C134	C	1.933386	0.087642	-0.373035
C135	C	2.266719	0.420975	-0.039702
C136	C	1.592243	-0.474519	-1.145772
C137	C	1.925576	-0.141186	-0.812438
C138	C	2.258910	0.192147	-0.479105
C139	C	1.607763	-0.485018	-1.267786
C140	C	1.941097	-0.151685	-0.934453
C141	C	2.274430	0.181649	-0.601119
C142	C	1.564754	-0.456033	-0.430276
C143	C	1.898087	-0.122699	-0.096943
C144	C	2.231421	0.210634	0.236390
C145	C	1.549942	-0.445714	-0.312249
C146	C	1.883275	-0.112381	0.021084
C147	C	2.216609	0.220952	0.354417
H148	H	1.153512	-0.404355	-0.595373
H149	H	1.486845	-0.071021	-0.262040
H150	H	1.820178	0.262312	0.071294
H151	H	1.707354	-0.719451	-0.598664
H152	H	2.040687	-0.386118	-0.265331
H153	H	2.374021	-0.052785	0.068003
N154	N	1.688545	-0.539889	-1.336994
N155	N	2.021878	-0.206556	-1.003660
N156	N	2.355211	0.126777	-0.670327
H157	H	1.688178	-0.539613	-1.414346
H158	H	2.021512	-0.206280	-1.081012
H159	H	2.354845	0.127053	-0.747679
H160	H	1.761972	-0.534995	-1.327295
H161	H	2.095305	-0.201662	-0.993962
H162	H	2.428638	0.131671	-0.660629
H163	H	1.707443	-0.838728	-0.598718
H164	H	2.040777	-0.505395	-0.265384
H165	H	2.374110	-0.172061	0.067949
H166	H	0.987056	-0.433155	-0.637680
H167	H	1.320389	-0.099822	-0.304347
H168	H	1.653722	0.233511	0.028987
H169	H	1.707724	-1.239600	-0.598880
H170	H	2.041057	-0.906266	-0.265547
H171	H	2.374390	-0.572933	0.067786
N172	N	1.730848	-0.568677	-1.170521
N173	N	2.064181	-0.235344	-0.837188
N174	N	2.397514	0.097989	-0.503855
H175	H	1.767298	-0.593460	-1.124083
H176	H	2.100631	-0.260127	-0.790750
H177	H	2.433965	0.073207	-0.457416
H178	H	1.693395	-0.598004	-1.211040
H179	H	2.026728	-0.264670	-0.877706
H180	H	2.360062	0.068663	-0.544373
H181	H	1.531253	-0.433105	-1.093510
H182	H	1.864586	-0.099771	-0.760177
H183	H	2.197919	0.233562	-0.426843
H184	H	1.492292	-1.120288	-0.813807
H185	H	1.825626	-0.786955	-0.480474
H186	H	2.158959	-0.453621	-0.147141
N187	N	1.476679	-1.248241	-0.829513
N188	N	1.810012	-0.914908	-0.496180
N189	N	2.143346	-0.581575	-0.162847
H190	H	1.502759	-1.244719	-0.907495
H191	H	1.836093	-0.911385	-0.574161
H192	H	2.169426	-0.578052	-0.240828
H193	H	1.485731	-1.294865	-0.820459
H194	H	1.819064	-0.961532	-0.487125
H195	H	2.152398	-0.628199	-0.153792
N196	N	1.230576	-0.540043	-0.794685
N197	N	1.563910	-0.206709	-0.461352
N198	N	1.897243	0.126624	-0.128018
H199	H	1.307924	-0.539774	-0.794288
H200	H	1.641258	-0.206441	-0.460954
H201	H	1.974591	0.126892	-0.127621
H202	H	1.209087	-0.581891	-0.775571
H203	H	1.542421	-0.248557	-0.442238
H204	H	1.875754	0.084776	-0.108904
N205	N	1.064116	-0.568851	-0.837017
N206	N	1.397449	-0.235518	-0.503684
N207	N	1.730783	0.097816	-0.170351
H208	H	1.141465	-0.568582	-0.836625
H209	H	1.474799	-0.235249	-0.503291
H210	H	1.808132	0.098084	-0.169958
H211	H	1.042632	-0.610702	-0.817912
H212	H	1.375965	-0.277368	-0.484579
H213	H	1.709298	0.055965	-0.151245
H214	H	1.492109	-0.838697	-0.813700
H215	H	1.825443	-0.505364	-0.480367
H216	H	2.158776	-0.172030	-0.147034
H217	H	1.488949	-0.404296	-1.259993
H218	H	1.822282	-0.070962	-0.926660
H219	H	2.155616	0.262371	-0.593326
H220	H	1.492031	-0.719417	-0.813669
H221	H	1.825364	-0.386084	-0.480336
H222	H	2.158697	-0.052750	-0.147003
H223	H	1.707630	-1.120324	-0.598817
H224	H	2.040963	-0.786990	-0.265484
H225	H	2.374296	-0.453657	0.067849
