data_functionalizedCrystal
_audit_creation_method	'MofGen! by Chris Wilmer'
_symmetry_space_group_name_H-M	'P1'
_symmetry_Int_Tables_number	1
_symmetry_cell_setting	triclinic
loop_
_symmetry_equiv_pos_as_xyz
  x,y,z
_cell_length_a	10.968094
_cell_length_b	14.519731
_cell_length_c	10.065875
_cell_angle_alpha	98.805316
_cell_angle_beta	93.118877
_cell_angle_gamma	84.210617
loop_
_atom_site_label
_atom_site_type_symbol
_atom_site_fract_x
_atom_site_fract_y
_atom_site_fract_z
O1	O	1.613229	0.160803	0.265874
O2	O	2.113229	0.660803	0.765874
O3	O	1.263196	0.163442	0.183557
O4	O	1.763196	0.663442	0.683557
O5	O	1.447478	0.028194	0.226907
O6	O	1.947478	0.528194	0.726907
O7	O	1.428947	0.296051	0.222524
O8	O	1.928947	0.796051	0.722524
O9	O	1.412338	0.054092	0.445629
O10	O	1.912338	0.554092	0.945629
O11	O	1.228056	0.189341	0.402279
O12	O	1.728056	0.689341	0.902279
O13	O	1.578089	0.186701	0.484597
O14	O	2.078089	0.686701	0.984597
Zn15	Zn	1.397493	0.192133	0.478165
Zn16	Zn	1.897493	0.692133	0.978165
Zn17	Zn	1.443791	0.158011	0.189989
Zn18	Zn	1.943791	0.658011	0.689989
O19	O	1.393807	0.321950	0.441247
O20	O	1.893807	0.821950	0.941247
C21	C	1.200828	0.174244	0.282383
C22	C	1.700828	0.674244	0.782383
C23	C	1.067345	0.167833	0.250992
C24	C	1.567345	0.667833	0.750992
C25	C	1.429039	0.006755	0.336064
C26	C	1.929039	0.506755	0.836064
C27	C	1.426437	-0.095711	0.335453
C28	C	1.926437	0.404289	0.835453
C29	C	0.851665	0.171755	0.317850
C30	C	1.351665	0.671755	0.817850
C31	C	0.989623	0.178389	0.350307
C32	C	1.489623	0.678389	0.850307
C33	C	1.424322	-0.178926	0.334953
C34	C	1.924322	0.321074	0.834953
C35	C	1.421682	-0.283323	0.334321
C36	C	1.921682	0.216677	0.834321
C37	C	1.419586	-0.366533	0.333820
C38	C	1.919586	0.133467	0.833820
C39	C	1.416945	-0.470937	0.333191
C40	C	1.916945	0.029063	0.833191
C41	C	1.640457	0.175900	0.385768
C42	C	2.140457	0.675900	0.885768
C43	C	1.773941	0.182309	0.417150
C44	C	2.273941	0.682309	0.917150
C45	C	1.412246	0.343388	0.332087
C46	C	1.912246	0.843388	0.832087
C47	C	1.414850	0.445854	0.332689
C48	C	1.914850	0.945854	0.832689
N49	N	1.365905	0.215420	0.674840
N50	N	1.865905	0.715420	1.174840
N51	N	1.475389	0.134716	-0.006684
N52	N	1.975389	0.634716	0.493316
C53	C	1.432793	0.166107	0.758353
C54	C	1.932793	0.666107	1.258353
C55	C	1.408491	0.184037	0.909804
C56	C	1.908491	0.684037	1.409804
H57	H	0.816073	0.157803	0.208806
H58	H	1.316073	0.657803	0.708806
N59	N	1.034228	0.195883	0.487122
N60	N	1.534228	0.695883	0.987122
N61	N	1.018412	0.140085	0.566283
N62	N	1.518412	0.640085	1.066283
H63	H	1.049913	0.152442	0.662909
H64	H	1.549913	0.652442	1.162909
H65	H	1.031761	0.153887	0.141941
H66	H	1.531761	0.653887	0.641941
H67	H	0.809534	0.196252	0.526194
H68	H	1.309534	0.696252	1.026194
H69	H	1.508047	0.110610	0.717732
H70	H	2.008047	0.610610	1.217732
N71	N	1.314069	0.253647	0.960765
N72	N	1.814069	0.753647	1.460765
N73	N	1.294457	0.268110	1.083720
N74	N	1.794457	0.768110	1.583720
H75	H	1.227771	0.317270	1.119715
H76	H	1.727771	0.817270	1.619715
N77	N	1.569805	0.065084	0.942401
N78	N	2.069805	0.565084	1.442401
N79	N	1.543602	-0.002466	0.856498
N80	N	2.043602	0.497534	1.356498
H81	H	1.610286	-0.051643	0.820549
H82	H	2.110286	0.448357	1.320549
N83	N	1.271487	0.285026	0.725807
N84	N	1.771487	0.785026	1.225807
N85	N	1.251875	0.299489	0.848763
N86	N	1.751875	0.799489	1.348763
H87	H	1.185190	0.348649	0.884758
H88	H	1.685190	0.848649	1.384758
