data_functionalizedCrystal
_audit_creation_method	'MofGen! by Chris Wilmer'
_symmetry_space_group_name_H-M	'P1'
_symmetry_Int_Tables_number	1
_symmetry_cell_setting	triclinic
loop_
_symmetry_equiv_pos_as_xyz
  x,y,z
_cell_length_a	12.645331
_cell_length_b	18.101397
_cell_length_c	12.645324
_cell_angle_alpha	89.960630
_cell_angle_beta	89.977038
_cell_angle_gamma	90.019444
loop_
_atom_site_label
_atom_site_type_symbol
_atom_site_fract_x
_atom_site_fract_y
_atom_site_fract_z
Zn1	Zn	1.620714	-0.294793	-0.599390
Zn2	Zn	1.620586	-0.418659	-0.422107
Zn3	Zn	1.443428	-0.294833	-0.422135
Zn4	Zn	1.443402	-0.418596	-0.599322
O5	O	1.532032	-0.356720	-0.510738
O6	O	1.769044	-0.311234	-0.575890
O7	O	1.597043	-0.402276	-0.273763
O8	O	1.467009	-0.191195	-0.445688
O9	O	1.768950	-0.402238	-0.445641
O10	O	1.597261	-0.191166	-0.575917
O11	O	1.466885	-0.311302	-0.273784
O12	O	1.295077	-0.311241	-0.445622
O13	O	1.466965	-0.402130	-0.747679
O14	O	1.295058	-0.402168	-0.575801
O15	O	1.597236	-0.311173	-0.747729
O16	O	1.597018	-0.522283	-0.445575
O17	O	1.466841	-0.522237	-0.575774
C18	C	1.256603	-0.356703	-0.510708
C19	C	1.138772	-0.356713	-0.510720
C20	C	0.971185	-0.299247	-0.429276
C21	C	1.093745	-0.299396	-0.428917
C22	C	1.094247	-0.434729	-0.480190
C23	C	0.971648	-0.434415	-0.479635
C24	C	0.971625	-0.336905	-0.623008
C25	C	1.094231	-0.335162	-0.622384
C26	C	1.531942	-0.549131	-0.510687
C27	C	1.532000	-0.631445	-0.510701
C28	C	1.532135	-0.930536	-0.510797
C29	C	1.613810	-0.899209	-0.428660
C30	C	1.614093	-0.813591	-0.428873
C31	C	1.532068	-0.782153	-0.510748
C32	C	1.562359	-0.813149	-0.622490
C33	C	1.562991	-0.898794	-0.622043
C34	C	1.419951	-0.899046	-0.482160
C35	C	1.420505	-0.813397	-0.479666
C36	C	1.532028	-0.698294	-0.510728
C37	C	1.532177	-1.014395	-0.510826
C38	C	1.808537	-0.356739	-0.510770
C39	C	1.926367	-0.356746	-0.510783
C40	C	1.532112	-0.356640	-0.787244
C41	C	1.532146	-0.356605	-0.905074
C42	C	1.532152	-0.163558	-0.510813
C43	C	1.532203	-0.081244	-0.510845
C44	C	1.614418	-0.299550	-1.072670
C45	C	1.614154	-0.299344	-0.950110
C46	C	1.420465	-0.335397	-0.949556
C47	C	1.420964	-0.334963	-1.072155
C48	C	1.560648	-0.434953	-1.072257
C49	C	1.563091	-0.434559	-0.949652
C50	C	1.532014	-0.356747	-0.235309
C51	C	1.532186	-0.356573	-0.117479
H52	H	0.942001	-0.478707	-0.536411
Cl53	Cl	1.323292	-0.397552	-0.904527
Cl54	Cl	1.689986	-0.459251	-0.904774
H55	H	1.504690	-0.792782	-0.685334
Cl56	Cl	1.382532	-0.247920	-0.902195
Cl57	Cl	1.477333	-0.503686	-0.902327
Cl58	Cl	1.475126	-0.930787	-0.719740
Cl59	Cl	1.325995	-0.930326	-0.574520
H60	H	1.124886	-0.373986	-0.686362
H61	H	1.643443	-0.791640	-0.647158
H62	H	1.640662	-0.454261	-1.103239
Cl63	Cl	1.139262	-0.502643	-0.568974
H64	H	1.644993	-0.918711	-0.646300
H65	H	0.941725	-0.241222	-0.448208
Cl66	Cl	1.141566	-0.461154	-0.354881
Cl67	Cl	0.923936	-0.250602	-0.665869
Cl68	Cl	1.139190	-0.246531	-0.657942
H69	H	1.696967	-0.312627	-0.920036
H70	H	0.942644	-0.378785	-0.683738
Cl71	Cl	1.323137	-0.396283	-1.117922
H72	H	1.595141	-0.792638	-0.346018
Cl73	Cl	1.377405	-0.932501	-0.358540
H74	H	1.696456	-0.920676	-0.447390
H75	H	1.595087	-0.919861	-0.345557
H76	H	1.697193	-0.793046	-0.447820
H77	H	1.123850	-0.241544	-0.448055
Cl78	Cl	0.923537	-0.319256	-0.301637
Cl79	Cl	1.468174	-0.500549	-1.116989
H80	H	1.397664	-0.793147	-0.397433
H81	H	1.356376	-0.792005	-0.535110
H82	H	1.123021	-0.312511	-0.345755
Cl83	Cl	1.742703	-0.319793	-1.118206
Cl84	Cl	1.585703	-0.210400	-1.120273
H85	H	0.943001	-0.451240	-0.397592
Cl86	Cl	1.585058	-0.209700	-0.904861
H87	H	1.396837	-0.277668	-1.100775
