data_functionalizedCrystal
_audit_creation_method	'MofGen! by Chris Wilmer'
_symmetry_space_group_name_H-M	'P1'
_symmetry_Int_Tables_number	1
_symmetry_cell_setting	triclinic
loop_
_symmetry_equiv_pos_as_xyz
  x,y,z
_cell_length_a	18.215407
_cell_length_b	12.645330
_cell_length_c	18.215399
_cell_angle_alpha	90.023030
_cell_angle_beta	90.019833
_cell_angle_gamma	90.018140
loop_
_atom_site_label
_atom_site_type_symbol
_atom_site_fract_x
_atom_site_fract_y
_atom_site_fract_z
Zn1	Zn	1.125109	-0.422038	0.416141
Zn2	Zn	1.375109	-0.172038	0.666141
Zn3	Zn	1.625109	0.077962	0.916141
Zn4	Zn	1.875109	0.327962	1.166141
Zn5	Zn	1.125033	-0.599320	0.293085
Zn6	Zn	1.375033	-0.349320	0.543085
Zn7	Zn	1.625033	-0.099320	0.793085
Zn8	Zn	1.875033	0.150680	1.043085
Zn9	Zn	1.002041	-0.422072	0.293088
Zn10	Zn	1.252041	-0.172072	0.543088
Zn11	Zn	1.502041	0.077928	0.793088
Zn12	Zn	1.752041	0.327928	1.043088
Zn13	Zn	1.002023	-0.599261	0.416110
Zn14	Zn	1.252023	-0.349261	0.666110
Zn15	Zn	1.502023	-0.099261	0.916110
Zn16	Zn	1.752023	0.150739	1.166110
O17	O	1.063551	-0.510673	0.354606
O18	O	1.313551	-0.260673	0.604606
O19	O	1.563551	-0.010673	0.854606
O20	O	1.813551	0.239327	1.104606
O21	O	1.228083	-0.445565	0.399829
O22	O	1.478083	-0.195565	0.649829
O23	O	1.728083	0.054435	0.899829
O24	O	1.978083	0.304435	1.149829
O25	O	1.108693	-0.575847	0.190101
O26	O	1.358693	-0.325847	0.440101
O27	O	1.608693	-0.075847	0.690101
O28	O	1.858693	0.174153	0.940101
O29	O	1.018406	-0.273720	0.309426
O30	O	1.268406	-0.023720	0.559426
O31	O	1.518406	0.226280	0.809426
O32	O	1.768406	0.476280	1.059426
O33	O	1.228027	-0.575813	0.309421
O34	O	1.478027	-0.325813	0.559421
O35	O	1.728027	-0.075813	0.809421
O36	O	1.978027	0.174187	1.059421
O37	O	1.108823	-0.273695	0.399832
O38	O	1.358823	-0.023695	0.649832
O39	O	1.608823	0.226305	0.899832
O40	O	1.858823	0.476305	1.149832
O41	O	1.018332	-0.445624	0.190104
O42	O	1.268332	-0.195624	0.440104
O43	O	1.518332	0.054376	0.690104
O44	O	1.768332	0.304376	0.940104
O45	O	0.899055	-0.445566	0.309396
O46	O	1.149055	-0.195566	0.559396
O47	O	1.399055	0.054434	0.809396
O48	O	1.649055	0.304434	1.059396
O49	O	1.018374	-0.575713	0.519099
O50	O	1.268374	-0.325713	0.769099
O51	O	1.518374	-0.075713	1.019099
O52	O	1.768374	0.174287	1.269099
O53	O	0.899041	-0.575746	0.399780
O54	O	1.149041	-0.325746	0.649780
O55	O	1.399041	-0.075746	0.899780
O56	O	1.649041	0.174254	1.149780
O57	O	1.108805	-0.445507	0.519121
O58	O	1.358805	-0.195507	0.769121
O59	O	1.608805	0.054493	1.019121
O60	O	1.858805	0.304493	1.269121
O61	O	1.108675	-0.747659	0.309391
O62	O	1.358675	-0.497659	0.559391
O63	O	1.608675	-0.247659	0.809391
O64	O	1.858675	0.002341	1.059391
O65	O	1.018300	-0.747616	0.399777
O66	O	1.268300	-0.497616	0.649777
O67	O	1.518300	-0.247616	0.899777
O68	O	1.768300	0.002384	1.149777
C69	C	0.872345	-0.510654	0.354585
C70	C	1.122345	-0.260654	0.604585
C71	C	1.372345	-0.010654	0.854585
C72	C	1.622345	0.239346	1.104585
C73	C	0.790546	-0.510672	0.354594
C74	C	1.040546	-0.260672	0.604594
C75	C	1.290546	-0.010672	0.854594
C76	C	1.540546	0.239328	1.104594
C77	C	0.602364	-0.578563	0.401597
C78	C	0.852364	-0.328563	0.651597
C79	C	1.102364	-0.078563	0.901597
C80	C	1.352364	0.171437	1.151597
C81	C	0.525506	-0.578567	0.401606
C82	C	0.775506	-0.328567	0.651606
C83	C	1.025506	-0.078567	0.901606
C84	C	1.275506	0.171433	1.151606
C85	C	0.525490	-0.442801	0.307631
C86	C	0.775490	-0.192801	0.557631
C87	C	1.025490	0.057199	0.807631
C88	C	1.275490	0.307199	1.057631
C89	C	0.602348	-0.442793	0.307626
C90	C	0.852348	-0.192793	0.557626
C91	C	1.102348	0.057207	0.807626
C92	C	1.352348	0.307207	1.057626
C93	C	0.640783	-0.510680	0.354608
C94	C	0.890783	-0.260680	0.604608
C95	C	1.140783	-0.010680	0.854608
C96	C	1.390783	0.239320	1.104608
C97	C	0.487067	-0.510692	0.354622
C98	C	0.737067	-0.260692	0.604622
C99	C	0.987067	-0.010692	0.854622
C100	C	1.237067	0.239308	1.104622
C101	C	0.403733	-0.510695	0.354632
C102	C	0.653733	-0.260695	0.604632
C103	C	0.903733	-0.010695	0.854632
C104	C	1.153733	0.239305	1.104632
C105	C	0.724122	-0.510676	0.354600
C106	C	0.974122	-0.260676	0.604600
C107	C	1.224122	-0.010676	0.854600
C108	C	1.474122	0.239324	1.104600
C109	C	1.063498	-0.786102	0.354596
C110	C	1.313498	-0.536102	0.604596
C111	C	1.563498	-0.286102	0.854596
C112	C	1.813498	-0.036102	1.104596
C113	C	1.063542	-0.903932	0.354616
C114	C	1.313542	-0.653932	0.604616
C115	C	1.563542	-0.403932	0.854616
C116	C	1.813542	-0.153932	1.104616
C117	C	1.006922	-1.071513	0.411653
C118	C	1.256922	-0.821513	0.661653
C119	C	1.506922	-0.571513	0.911653
C120	C	1.756922	-0.321513	1.161653
C121	C	1.006632	-0.948954	0.411470
C122	C	1.256632	-0.698954	0.661470
C123	C	1.506632	-0.448954	0.911470
C124	C	1.756632	-0.198954	1.161470
C125	C	1.042549	-0.948523	0.277058
C126	C	1.292549	-0.698523	0.527058
C127	C	1.542549	-0.448523	0.777058
C128	C	1.792549	-0.198523	1.027058
C129	C	1.042203	-1.071122	0.277404
C130	C	1.292203	-0.821122	0.527404
C131	C	1.542203	-0.571122	0.777404
C132	C	1.792203	-0.321122	1.027404
C133	C	1.141502	-1.071022	0.374509
C134	C	1.391502	-0.821022	0.624509
C135	C	1.641502	-0.571022	0.874509
C136	C	1.891502	-0.321022	1.124509
C137	C	1.141024	-0.948415	0.376205
C138	C	1.391024	-0.698415	0.626205
C139	C	1.641024	-0.448415	0.876205
C140	C	1.891024	-0.198415	1.126205
C141	C	1.255504	-0.510692	0.354628
C142	C	1.505504	-0.260692	0.604628
C143	C	1.755504	-0.010692	0.854628
C144	C	2.005504	0.239308	1.104628
C145	C	1.337303	-0.510700	0.354637
C146	C	1.587303	-0.260700	0.604637
C147	C	1.837303	-0.010700	0.854637
C148	C	2.087303	0.239300	1.104637
C149	C	1.063596	-0.510600	0.546559
C150	C	1.313596	-0.260600	0.796559
C151	C	1.563596	-0.010600	1.046559
C152	C	1.813596	0.239400	1.296559
C153	C	1.063615	-0.510568	0.628358
C154	C	1.313615	-0.260568	0.878358
C155	C	1.563615	-0.010568	1.128358
C156	C	1.813615	0.239432	1.378358
C157	C	1.063625	-0.234167	0.354633
C158	C	1.313625	0.015833	0.604633
C159	C	1.563625	0.265833	0.854633
C160	C	1.813625	0.515833	1.104633
C161	C	1.063657	-0.116337	0.354644
C162	C	1.313657	0.133663	0.604644
C163	C	1.563657	0.383663	0.854644
C164	C	1.813657	0.633663	1.104644
C165	C	1.063549	-0.510669	0.163400
C166	C	1.313549	-0.260669	0.413400
C167	C	1.563549	-0.010669	0.663400
C168	C	1.813549	0.239331	0.913400
C169	C	1.063672	-0.510401	0.081602
C170	C	1.313672	-0.260401	0.331602
C171	C	1.563672	-0.010401	0.581602
C172	C	1.813672	0.239599	0.831602
C173	C	1.110720	-0.442707	0.816565
C174	C	1.360720	-0.192707	1.066565
C175	C	1.610720	0.057293	1.316565
C176	C	1.860720	0.307293	1.566565
C177	C	1.110728	-0.442676	0.893424
C178	C	1.360728	-0.192676	1.143424
C179	C	1.610728	0.057324	1.393424
C180	C	1.860728	0.307324	1.643424
C181	C	1.016563	-0.578266	0.893389
C182	C	1.266563	-0.328266	1.143389
C183	C	1.516563	-0.078266	1.393389
C184	C	1.766563	0.171734	1.643389
C185	C	1.016551	-0.578290	0.816532
C186	C	1.266551	-0.328290	1.066532
C187	C	1.516551	-0.078290	1.316532
C188	C	1.766551	0.171710	1.566532
C189	C	1.063634	-0.510513	0.778122
C190	C	1.313634	-0.260513	1.028122
C191	C	1.563634	-0.010513	1.278122
C192	C	1.813634	0.239487	1.528122
C193	C	1.063654	-0.510457	0.931838
C194	C	1.313654	-0.260457	1.181838
C195	C	1.563654	-0.010457	1.431838
C196	C	1.813654	0.239543	1.681838
C197	C	1.063663	-0.510424	1.015172
C198	C	1.313663	-0.260424	1.265172
C199	C	1.563663	-0.010424	1.515172
C200	C	1.813663	0.239576	1.765172
C201	C	1.063624	-0.510544	0.694783
C202	C	1.313624	-0.260544	0.944783
C203	C	1.563624	-0.010544	1.194783
C204	C	1.813624	0.239456	1.444783
H205	H	0.633629	-0.387508	0.269362
H206	H	0.883629	-0.137508	0.519362
H207	H	1.133629	0.112492	0.769362
H208	H	1.383629	0.362492	1.019362
H209	H	1.149069	-0.387460	0.924721
H210	H	1.399069	-0.137460	1.174721
H211	H	1.649069	0.112540	1.424721
H212	H	1.899069	0.362540	1.674721
H213	H	1.183771	-1.100007	0.332986
H214	H	1.433771	-0.850007	0.582986
H215	H	1.683771	-0.600007	0.832986
H216	H	1.933771	-0.350007	1.082986
H217	H	1.019766	-0.918802	0.468979
H218	H	1.269766	-0.668802	0.718979
H219	H	1.519766	-0.418802	0.968979
H220	H	1.769766	-0.168802	1.218979
Br221	Br	1.174615	-0.350722	0.764439
Br222	Br	1.424615	-0.100722	1.014439
Br223	Br	1.674615	0.149278	1.264439
Br224	Br	1.924615	0.399278	1.514439
Br225	Br	0.473324	-0.350673	0.243873
Br226	Br	0.723324	-0.100673	0.493873
Br227	Br	0.973324	0.149327	0.743873
Br228	Br	1.223324	0.399327	0.993873
Br229	Br	1.028606	-1.120540	0.507825
Br230	Br	1.278606	-0.870540	0.757825
Br231	Br	1.528606	-0.620540	1.007825
Br232	Br	1.778606	-0.370540	1.257825
Br233	Br	0.654524	-0.670693	0.465359
Br234	Br	0.904524	-0.420693	0.715359
Br235	Br	1.154524	-0.170693	0.965359
Br236	Br	1.404524	0.079307	1.215359
H237	H	0.948921	-0.919719	0.398309
H238	H	1.198921	-0.669719	0.648309
H239	H	1.448921	-0.419719	0.898309
H240	H	1.698921	-0.169719	1.148309
H241	H	0.949572	-1.102414	0.398661
H242	H	1.199572	-0.852414	0.648661
H243	H	1.449572	-0.602414	0.898661
H244	H	1.699572	-0.352414	1.148661
H245	H	0.985298	-1.099813	0.260576
H246	H	1.235298	-0.849813	0.510576
H247	H	1.485298	-0.599813	0.760576
H248	H	1.735298	-0.349813	1.010576
Br249	Br	0.952671	-0.670249	0.945521
Br250	Br	1.202671	-0.420249	1.195521
Br251	Br	1.452671	-0.170249	1.445521
Br252	Br	1.702671	0.079751	1.695521
H253	H	0.978203	-0.633505	0.785230
H254	H	1.228203	-0.383505	1.035230
H255	H	1.478203	-0.133505	1.285230
H256	H	1.728203	0.116495	1.535230
H257	H	1.082562	-0.919362	0.233421
H258	H	1.332562	-0.669362	0.483421
H259	H	1.582562	-0.419362	0.733421
H260	H	1.832562	-0.169362	0.983421
Br261	Br	1.108081	-1.120555	0.204189
Br262	Br	1.358081	-0.870555	0.454189
Br263	Br	1.608081	-0.620555	0.704189
Br264	Br	1.858081	-0.370555	0.954189
H265	H	0.494229	-0.633842	0.439871
H266	H	0.744229	-0.383842	0.689871
H267	H	0.994229	-0.133842	0.939871
H268	H	1.244229	0.116158	1.189871
Br269	Br	0.948691	-0.897510	0.248500
Br270	Br	1.198691	-0.647510	0.498500
Br271	Br	1.448691	-0.397510	0.748500
Br272	Br	1.698691	-0.147510	0.998500
H273	H	1.160652	-1.101868	0.430103
H274	H	1.410652	-0.851868	0.680103
H275	H	1.660652	-0.601868	0.930103
H276	H	1.910652	-0.351868	1.180103
H277	H	1.185520	-0.917762	0.337706
H278	H	1.435520	-0.667762	0.587706
H279	H	1.685520	-0.417762	0.837706
H280	H	1.935520	-0.167762	1.087706
Br281	Br	1.167414	-0.899838	0.471341
Br282	Br	1.417414	-0.649838	0.721341
Br283	Br	1.667414	-0.399838	0.971341
Br284	Br	1.917414	-0.149838	1.221341
