data_functionalizedCrystal
_audit_creation_method	'MofGen! by Chris Wilmer'
_symmetry_space_group_name_H-M	'P1'
_symmetry_Int_Tables_number	1
_symmetry_cell_setting	triclinic
loop_
_symmetry_equiv_pos_as_xyz
  x,y,z
_cell_length_a	6.817900
_cell_length_b	10.943624
_cell_length_c	10.992421
_cell_angle_alpha	91.800796
_cell_angle_beta	108.764763
_cell_angle_gamma	108.838799
loop_
_atom_site_label
_atom_site_type_symbol
_atom_site_fract_x
_atom_site_fract_y
_atom_site_fract_z
V1	V	-4.115111	-0.402533	-0.177727
O2	O	-4.073223	-0.394889	0.008575
O3	O	-4.092684	-0.399762	-0.352436
O4	O	-4.093080	-0.578100	-0.174978
O5	O	-4.072824	-0.215317	-0.170111
V6	V	-4.591957	-0.380143	-0.155445
O7	O	-4.391017	-0.451648	-0.226605
O8	O	-4.766248	-0.331028	-0.106567
O9	O	-4.391177	-0.382914	0.019264
O10	O	-4.751242	-0.387787	-0.341747
O11	O	-4.751641	-0.567359	-0.163061
O12	O	-4.390782	-0.204576	-0.158194
C13	C	-3.943150	-0.393408	-0.395027
C14	C	-4.006276	-0.392312	-0.537854
C15	C	-3.873921	-0.383483	-0.733142
C16	C	-3.807840	-0.384111	-0.584497
C17	C	-4.076627	-0.271911	-0.576499
C18	C	-4.140860	-0.270636	-0.725043
C19	C	-4.272894	-0.517452	-0.763604
C20	C	-4.203846	-0.520065	-0.615090
C21	C	-3.943653	-0.620893	-0.168660
C22	C	-4.007095	-0.764420	-0.167568
C23	C	-3.851941	-0.841568	-0.160217
C24	C	-4.041064	-0.947547	-0.269328
C25	C	-3.931042	-0.914182	-0.056525
C26	C	-4.195429	-0.868522	-0.276781
C27	C	-4.085327	-0.835133	-0.063882
C28	C	-4.274586	-0.941083	-0.173023
C29	C	-4.204054	-0.389265	0.061848
C30	C	-4.120168	-0.390368	0.204674
C31	C	-4.203550	-0.161776	-0.164516
C32	C	-4.119345	-0.018248	-0.165601
H33	H	-3.848281	-0.468981	-0.779555
O34	O	-4.139199	-0.638063	-0.583434
H35	H	-4.279697	-0.727945	-0.638404
H36	H	-4.103292	-0.786159	0.022977
O37	O	-4.374233	-0.270330	-0.779213
H38	H	-4.479568	-0.358365	-0.853072
O39	O	-4.342632	-0.841283	-0.400238
H40	H	-4.324402	-0.887529	-0.485321
H41	H	-3.819895	-0.934954	0.036539
H42	H	-4.453889	-0.984327	-0.178464
O43	O	-3.614589	-0.784007	-0.153240
H44	H	-3.504747	-0.803321	-0.062699
H45	H	-4.222261	-0.273299	-0.546263
H46	H	-3.750901	-0.470142	-0.558726
H47	H	-3.757931	-0.291834	-0.753709
H48	H	-4.266751	-0.608557	-0.813113
H49	H	-4.023014	-0.996487	-0.356183
H50	H	-3.658963	-0.292386	-0.532063
H51	H	-3.935835	-0.177332	-0.522269
H52	H	-4.353656	-0.533511	-0.584881
O53	O	-3.993804	-0.144021	-0.748266
H54	H	-4.017095	-0.060733	-0.701911
O55	O	-4.511147	-0.525822	-0.818046
H56	H	-4.562002	-0.528816	-0.925021
