data_functionalizedCrystal
_audit_creation_method	'MofGen! by Chris Wilmer'
_symmetry_space_group_name_H-M	'P1'
_symmetry_Int_Tables_number	1
_symmetry_cell_setting	triclinic
loop_
_symmetry_equiv_pos_as_xyz
  x,y,z
_cell_length_a	10.489716
_cell_length_b	19.188924
_cell_length_c	9.565339
_cell_angle_alpha	89.998167
_cell_angle_beta	89.996780
_cell_angle_gamma	83.835550
loop_
_atom_site_label
_atom_site_type_symbol
_atom_site_fract_x
_atom_site_fract_y
_atom_site_fract_z
O1	O	1.691866	0.098416	-0.116256
O2	O	2.191866	0.598416	0.383744
O3	O	1.320459	0.107680	-0.116262
O4	O	1.820459	0.607680	0.383738
O5	O	1.516885	0.001464	-0.116242
O6	O	2.016885	0.501464	0.383758
O7	O	1.495440	0.204633	-0.116275
O8	O	1.995440	0.704633	0.383725
O9	O	1.516869	0.001470	0.116278
O10	O	2.016869	0.501470	0.616278
O11	O	1.320443	0.107687	0.116258
O12	O	1.820443	0.607687	0.616258
O13	O	1.691850	0.098423	0.116264
O14	O	2.191850	0.598423	0.616264
Zn15	Zn	1.506144	0.103056	0.153179
Zn16	Zn	2.006144	0.603056	0.653179
Zn17	Zn	1.506165	0.103047	-0.153176
Zn18	Zn	2.006165	0.603047	0.346824
O19	O	1.495424	0.204639	0.116245
O20	O	1.995424	0.704639	0.616245
C21	C	1.272934	0.106987	-0.000002
C22	C	1.772934	0.606987	0.499998
C23	C	1.131350	0.104905	-0.000004
C24	C	1.631350	0.604905	0.499996
C25	C	1.032217	0.170040	-0.000018
C26	C	1.532217	0.670040	0.499982
C27	C	0.955634	0.135625	0.114639
C28	C	1.455634	0.635625	0.614639
C29	C	0.955657	0.135603	-0.114608
C30	C	1.455657	0.635603	0.385392
C31	C	1.056633	0.070517	0.114747
C32	C	1.556633	0.570517	0.614747
C33	C	1.056660	0.070504	-0.114602
C34	C	1.556660	0.570504	0.385398
C35	C	0.980128	0.036041	0.000082
C36	C	1.480128	0.536041	0.500082
C37	C	1.516184	-0.024549	0.000019
C38	C	2.016184	0.475451	0.500019
C39	C	1.514104	-0.102068	0.000023
C40	C	2.014104	0.397932	0.500023
C41	C	1.513141	-0.138476	-0.126724
C42	C	2.013141	0.361524	0.373276
C43	C	1.511169	-0.211312	-0.126735
C44	C	2.011169	0.288688	0.373265
C45	C	1.510184	-0.247738	0.000009
C46	C	2.010184	0.252262	0.500009
C47	C	1.511139	-0.211320	0.126773
C48	C	2.011139	0.288680	0.626773
C49	C	1.513099	-0.138485	0.126780
C50	C	2.013099	0.361515	0.626780
N51	N	1.579683	-0.366936	0.094342
N52	N	2.079683	0.133064	0.594342
N53	N	1.577824	-0.436127	0.094327
N54	N	2.077824	0.063873	0.594327
C55	C	1.504276	-0.467187	-0.000005
C56	C	2.004276	0.032813	0.499995
N57	N	1.432674	-0.426443	-0.094342
N58	N	1.932674	0.073557	0.405658
N59	N	1.434539	-0.357246	-0.094331
N60	N	1.934539	0.142754	0.405669
C61	C	1.508058	-0.326716	0.000015
C62	C	2.008058	0.173284	0.500015
C63	C	1.501173	-0.582572	-0.126772
C64	C	2.001173	-0.082572	0.373228
C65	C	1.499192	-0.655409	-0.126778
C66	C	1.999192	-0.155409	0.373222
C67	C	1.499176	-0.655416	0.126733
C68	C	1.999176	-0.155416	0.626733
C69	C	1.501143	-0.582580	0.126735
C70	C	2.001143	-0.082580	0.626735
C71	C	1.502148	-0.546163	-0.000022
C72	C	2.002148	-0.046163	0.499978
C73	C	1.739375	0.099116	0.000002
C74	C	2.239375	0.599116	0.500002
C75	C	1.880959	0.101198	-0.000006
C76	C	2.380959	0.601198	0.499994
C77	C	1.496125	0.230652	-0.000020
C78	C	1.996125	0.730652	0.499980
C79	C	1.498205	0.308170	-0.000033
C80	C	1.998205	0.808170	0.499967
N81	N	1.506140	0.103061	0.362258
N82	N	2.006140	0.603061	0.862258
N83	N	1.506180	0.103036	-0.362256
N84	N	2.006180	0.603036	0.137744
C85	C	1.415272	0.152167	0.453452
C86	C	1.915272	0.652167	0.953452
C87	C	1.530454	0.166288	0.546630
C88	C	2.030454	0.666288	1.046630
C89	C	1.391008	0.088946	0.546635
C90	C	1.891008	0.588946	1.046635
C91	C	1.621379	0.117214	0.453385
C92	C	2.121379	0.617214	0.953385
C93	C	1.481858	0.039844	0.453381
C94	C	1.981858	0.539844	0.953381
C95	C	1.597123	0.053939	0.546517
C96	C	2.097123	0.553939	1.046517
H97	H	0.911529	0.163124	0.211561
H98	H	1.411529	0.663124	0.711561
H99	H	1.338497	0.193732	0.412590
H100	H	1.838497	0.693732	0.912590
H101	H	1.100558	0.043039	0.211776
H102	H	1.600558	0.543039	0.711776
F103	F	1.502234	-0.543812	-0.261676
F104	F	2.002234	-0.043812	0.238324
F105	F	0.898024	0.171555	-0.241289
F106	F	1.398024	0.671555	0.258711
F107	F	1.514204	-0.099722	-0.261631
F108	F	2.014204	0.400278	0.238369
F109	F	1.697692	-0.000355	0.599601
F110	F	2.197692	0.499645	1.099601
H111	H	0.956968	-0.020659	0.000158
H112	H	1.456968	0.479341	0.500158
H113	H	1.501938	-0.552936	0.229947
H114	H	2.001938	-0.052936	0.729947
H115	H	1.498364	-0.685072	0.229931
H116	H	1.998364	-0.185072	0.729931
H117	H	1.551019	0.219738	0.587589
H118	H	2.051019	0.719738	1.087589
H119	H	1.718782	0.129207	0.412596
H120	H	2.218782	0.629207	0.912596
H121	H	1.498402	-0.685051	-0.229994
H122	H	1.998402	-0.185051	0.270006
F123	F	1.454931	-0.029997	0.399799
F124	F	1.954931	0.470003	0.899799
H125	H	1.293626	0.077018	0.587600
H126	H	1.793626	0.577018	1.087600
F127	F	1.514121	-0.099734	0.261687
F128	F	2.014121	0.400266	0.761687
H129	H	1.100778	0.043026	-0.211530
H130	H	1.600778	0.543026	0.288470
H131	H	1.510334	-0.240982	0.229968
H132	H	2.010334	0.259018	0.729968
F133	F	1.510143	-0.250069	-0.261642
F134	F	2.010143	0.249931	0.238358
F135	F	1.062814	0.244094	0.000111
F136	F	1.562814	0.744094	0.500111
