data_functionalizedCrystal
_audit_creation_method	'MofGen! by Chris Wilmer'
_symmetry_space_group_name_H-M	'P1'
_symmetry_Int_Tables_number	1
_symmetry_cell_setting	triclinic
loop_
_symmetry_equiv_pos_as_xyz
  x,y,z
_cell_length_a	21.295418
_cell_length_b	21.295420
_cell_length_c	14.908308
_cell_angle_alpha	86.721801
_cell_angle_beta	86.737501
_cell_angle_gamma	90.023182
loop_
_atom_site_label
_atom_site_type_symbol
_atom_site_fract_x
_atom_site_fract_y
_atom_site_fract_z
Zn1	Zn	-0.271206	0.941788	0.510068
Zn2	Zn	-0.370408	0.947784	0.359203
Zn3	Zn	-0.265150	0.842598	0.359227
Zn4	Zn	-0.376431	0.836489	0.510010
O5	O	-0.320799	0.892165	0.434627
O6	O	-0.284379	1.030672	0.490069
O7	O	-0.351390	0.938896	0.232965
O8	O	-0.177865	0.855803	0.379270
O9	O	-0.357262	1.035077	0.379230
O10	O	-0.182315	0.928678	0.490092
O11	O	-0.274057	0.861617	0.232983
O12	O	-0.279898	0.753699	0.379214
O13	O	-0.367528	0.845392	0.636259
O14	O	-0.361656	0.749211	0.489995
O15	O	-0.290219	0.922755	0.636301
O16	O	-0.459295	0.932973	0.379174
O17	O	-0.463720	0.851205	0.489972
C18	C	-0.320774	0.728614	0.434601
C19	C	-0.320779	0.658646	0.434612
C20	C	-0.282948	0.156888	0.492448
C21	C	-0.282943	0.222631	0.492448
C22	C	-0.320819	0.257805	0.434648
C23	C	-0.358714	0.227230	0.376860
C24	C	-0.358722	0.161488	0.376868
N25	N	-0.322387	0.364182	0.355656
N26	N	-0.322375	0.426634	0.355651
C27	C	-0.320797	0.455880	0.434621
N28	N	-0.319218	0.420316	0.513599
N29	N	-0.319226	0.357859	0.513603
C30	C	-0.320814	0.329091	0.434633
C31	C	-0.282902	0.557733	0.492410
C32	C	-0.282902	0.623476	0.492412
C33	C	-0.358669	0.628074	0.376815
C34	C	-0.358673	0.562332	0.376822
C35	C	-0.320786	0.527165	0.434618
C36	C	-0.484349	0.892093	0.434584
C37	C	-0.554317	0.892118	0.434596
C38	C	-1.051457	0.934886	0.377080
C39	C	-0.985714	0.934863	0.377059
C40	C	-0.955160	0.892251	0.434690
C41	C	-0.990355	0.849647	0.492331
C42	C	-1.056097	0.849667	0.492344
N43	N	-0.855083	0.884177	0.513629
N44	N	-0.792630	0.884161	0.513614
C45	C	-0.757084	0.892187	0.434652
N46	N	-0.786349	0.900240	0.355704
N47	N	-0.848807	0.900259	0.355720
C48	C	-0.883875	0.892224	0.434682
C49	C	-0.650611	0.934759	0.376988
C50	C	-0.584866	0.934732	0.376965
C51	C	-0.589509	0.849519	0.492245
C52	C	-0.655252	0.849544	0.492260
C53	C	-0.685799	0.892167	0.434632
C54	C	-0.156611	0.892253	0.434690
C55	C	-0.086644	0.892291	0.434717
C56	C	-0.330221	0.882723	0.669928
C57	C	-0.334236	0.878699	0.770199
C58	C	-0.320824	1.056354	0.434653
C59	C	-0.320835	1.126322	0.434664
C60	C	-0.311367	0.901606	0.200241
C61	C	-0.307175	0.905752	0.099971
C62	C	-0.261266	0.951695	0.958665
C63	C	-0.265036	0.947916	1.052879
C64	C	-0.345545	0.867361	1.052842
C65	C	-0.341774	0.871140	0.958629
C66	C	-0.299634	0.913309	0.911543
C67	C	-0.295867	0.917090	0.817328
C68	C	-0.376372	0.836532	0.817293
C69	C	-0.380142	0.832753	0.911507
H70	H	-0.389555	0.255872	0.329801
H71	H	-0.407615	0.805276	0.778916
H72	H	-0.957059	0.969551	0.330122
H73	H	-0.556216	0.969416	0.330025
Cl74	Cl	-0.235307	0.261067	0.565094
Cl75	Cl	-1.089855	0.988468	0.304631
H76	H	-0.261555	0.951427	0.778992
Cl77	Cl	-1.100335	0.796116	0.564811
Cl78	Cl	-0.216799	0.996175	1.112115
Cl79	Cl	-0.235324	0.112682	0.565114
H80	H	-0.683902	0.814859	0.539196
Cl81	Cl	-0.406354	0.123059	0.304214
H82	H	-0.226957	0.986034	0.920327
Cl83	Cl	-0.433115	0.779743	0.970708
Cl84	Cl	-0.235276	0.513520	0.565070
Cl85	Cl	-0.235272	0.661904	0.565069
Cl86	Cl	-0.551105	0.795941	0.564685
Cl87	Cl	-0.406291	0.672286	0.304158
H88	H	-0.379853	0.833029	1.091195
H89	H	-0.965475	0.814951	0.539254
Cl90	Cl	-0.689015	0.988338	0.304538
H91	H	-0.389523	0.537444	0.329764
