data_functionalizedCrystal
_audit_creation_method	'MofGen! by Chris Wilmer'
_symmetry_space_group_name_H-M	'P1'
_symmetry_Int_Tables_number	1
_symmetry_cell_setting	triclinic
loop_
_symmetry_equiv_pos_as_xyz
  x,y,z
_cell_length_a	9.065218
_cell_length_b	13.101039
_cell_length_c	9.065218
_cell_angle_alpha	93.413922
_cell_angle_beta	85.015919
_cell_angle_gamma	86.590257
loop_
_atom_site_label
_atom_site_type_symbol
_atom_site_fract_x
_atom_site_fract_y
_atom_site_fract_z
O1	O	-1.968414	0.085263	-0.208318
O2	O	-1.468414	0.585263	0.291682
O3	O	-1.539129	0.085253	-0.226065
O4	O	-1.039129	0.585253	0.273935
O5	O	-1.762645	0.085256	-0.002549
O6	O	-1.262645	0.585256	0.497451
O7	O	-1.744898	0.085260	-0.431834
O8	O	-1.244898	0.585260	0.068166
O9	O	-1.746608	-0.085174	-0.018613
O10	O	-1.246608	0.414826	0.481387
O11	O	-1.523092	-0.085177	-0.242129
O12	O	-1.023092	0.414823	0.257871
O13	O	-1.952378	-0.085167	-0.224382
O14	O	-1.452378	0.414833	0.275618
Zn15	Zn	-1.735189	-0.112232	-0.235806
Zn16	Zn	-1.235189	0.387768	0.264194
Zn17	Zn	-1.756318	0.112317	-0.214641
Zn18	Zn	-1.256318	0.612317	0.285359
O19	O	-1.728862	-0.085170	-0.447898
O20	O	-1.228862	0.414830	0.052102
C21	C	-1.476124	0.000037	-0.232392
C22	C	-0.976124	0.500037	0.267608
C23	C	-1.312280	0.000033	-0.227292
C24	C	-0.812280	0.500033	0.272708
N25	N	-1.720780	-0.265480	-0.250250
N26	N	-1.220780	0.234520	0.249750
C27	C	-1.701175	-0.474523	-0.269914
C28	C	-1.201175	0.025477	0.230086
C29	C	-1.790338	-0.525398	-0.180526
C30	C	-1.290338	-0.025398	0.319474
C31	C	-1.779430	-0.641716	-0.191468
C32	C	-1.279430	-0.141716	0.308532
C33	C	-1.712081	-0.358194	-0.258974
C34	C	-1.212081	0.141806	0.241026
C35	C	-1.015382	0.000045	-0.218056
C36	C	-0.515382	0.500045	0.281944
C37	C	-1.179225	0.000036	-0.223156
C38	C	-0.679225	0.500036	0.276844
C39	C	-1.752921	0.000043	0.044406
C40	C	-1.252921	0.500043	0.544406
C41	C	-1.747822	0.000047	0.208249
C42	C	-1.247822	0.500047	0.708249
N43	N	-1.770738	0.265566	-0.200186
N44	N	-1.270738	0.765566	0.299814
C45	C	-1.738586	0.000045	-0.494852
C46	C	-1.238586	0.500045	0.005148
C47	C	-1.743686	0.000047	-0.658695
C48	C	-1.243686	0.500047	-0.158695
H49	H	-1.874865	-0.481594	-0.095782
H50	H	-1.374865	0.018406	0.404218
H51	H	-1.616655	-0.518321	-0.354655
H52	H	-1.116655	-0.018321	0.145345
