data_functionalizedCrystal
_audit_creation_method	'MofGen! by Chris Wilmer'
_symmetry_space_group_name_H-M	'P1'
_symmetry_Int_Tables_number	1
_symmetry_cell_setting	triclinic
loop_
_symmetry_equiv_pos_as_xyz
  x,y,z
_cell_length_a	19.805407
_cell_length_b	17.637651
_cell_length_c	19.805399
_cell_angle_alpha	78.757390
_cell_angle_beta	89.982197
_cell_angle_gamma	101.216285
loop_
_atom_site_label
_atom_site_type_symbol
_atom_site_fract_x
_atom_site_fract_y
_atom_site_fract_z
Zn1	Zn	0.980294	-0.314832	-0.328138
Zn2	Zn	1.480294	0.185168	0.171862
Zn3	Zn	0.957346	-0.447046	-0.192041
Zn4	Zn	1.457346	0.052954	0.307959
Zn5	Zn	0.867106	-0.314848	-0.214963
Zn6	Zn	1.367106	0.185152	0.285037
Zn7	Zn	0.844218	-0.446998	-0.305200
Zn8	Zn	1.344218	0.053002	0.194800
O9	O	0.912241	-0.380931	-0.260086
O10	O	1.412241	0.119069	0.239914
O11	O	1.071964	-0.332384	-0.310091
O12	O	1.571964	0.167616	0.189909
O13	O	0.945351	-0.429537	-0.100361
O14	O	1.445351	0.070463	0.399639
O15	O	0.901303	-0.204208	-0.249169
O16	O	1.401303	0.295792	0.250831
O17	O	1.055104	-0.429522	-0.210102
O18	O	1.555104	0.070478	0.289898
O19	O	0.984462	-0.204197	-0.332317
O20	O	1.484462	0.295803	0.167683
O21	O	0.879052	-0.332411	-0.117201
O22	O	1.379052	0.167589	0.382799
O23	O	0.769356	-0.332364	-0.226927
O24	O	1.269356	0.167636	0.273073
O25	O	0.862294	-0.429439	-0.402964
O26	O	1.362294	0.070561	0.097036
O27	O	0.752540	-0.429455	-0.293223
O28	O	1.252540	0.070545	0.206777
O29	O	0.962268	-0.332338	-0.419816
O30	O	1.462268	0.167662	0.080184
O31	O	0.923157	-0.557677	-0.187860
O32	O	1.423157	-0.057677	0.312140
O33	O	0.840042	-0.557642	-0.270997
O34	O	1.340042	-0.057642	0.229003
C35	C	0.736389	-0.380906	-0.260073
C36	C	1.236389	0.119094	0.239927
C37	C	0.661156	-0.380915	-0.260081
C38	C	1.161156	0.119085	0.239919
C39	C	0.634576	-0.330425	-0.312196
C40	C	1.134576	0.169575	0.187804
C41	C	0.563887	-0.330429	-0.312198
C42	C	1.063887	0.169571	0.187802
C43	C	0.519778	-0.380928	-0.260087
C44	C	1.019778	0.119072	0.239913
C45	C	0.546363	-0.431420	-0.207967
C46	C	1.046363	0.068580	0.292033
C47	C	0.617051	-0.431411	-0.207963
C48	C	1.117051	0.068589	0.292037
C49	C	0.261283	-0.431455	-0.207981
C50	C	0.761283	0.068545	0.292019
C51	C	0.190590	-0.431462	-0.207991
C52	C	0.690590	0.068538	0.292009
C53	C	0.208118	-0.330473	-0.312216
C54	C	0.708118	0.169527	0.187784
C55	C	0.278807	-0.330465	-0.312212
C56	C	0.778807	0.169535	0.187788
C57	C	0.305386	-0.380953	-0.260091
C58	C	0.805386	0.119047	0.239909
C59	C	0.382036	-0.380947	-0.260089
C60	C	0.882036	0.119053	0.239911
C61	C	0.443129	-0.380938	-0.260091
C62	C	0.943129	0.119062	0.239909
C63	C	0.876644	-0.586347	-0.224467
C64	C	1.376644	-0.086347	0.275533
C65	C	0.861477	-0.674225	-0.209251
C66	C	1.361477	-0.174225	0.290749
C67	C	1.027900	-0.962919	-0.375888
C68	C	1.527900	-0.462919	0.124112
C69	C	1.013628	-1.045493	-0.361579
C70	C	1.513628	-0.545493	0.138421
C71	C	0.927092	-1.045613	-0.274913
C72	C	1.427092	-0.545613	0.225087
C73	C	0.941360	-0.963037	-0.289212
C74	C	1.441360	-0.463037	0.210788
C75	C	0.991764	-0.921696	-0.339701
C76	C	1.491764	-0.421696	0.160299
C77	C	0.905224	-0.921814	-0.253025
C78	C	1.405224	-0.421814	0.246975
C79	C	0.919488	-0.839245	-0.267326
C80	C	1.419488	-0.339245	0.232674
C81	C	0.969889	-0.797899	-0.317814
C82	C	1.469889	-0.297899	0.182186
C83	C	1.006029	-0.839127	-0.354002
C84	C	1.506029	-0.339127	0.145998
C85	C	0.854816	-0.963156	-0.202539
C86	C	1.354816	-0.463156	0.297461
C87	C	0.818680	-0.921933	-0.166352
C88	C	1.318680	-0.421933	0.333648
C89	C	0.832948	-0.839362	-0.180649
C90	C	1.332948	-0.339362	0.319351
C91	C	0.883349	-0.798016	-0.231138
C92	C	1.383349	-0.298016	0.268862
C93	C	0.796808	-0.798134	-0.144461
C94	C	1.296808	-0.298134	0.355539
C95	C	0.811073	-0.715565	-0.158762
C96	C	1.311073	-0.215565	0.341238
C97	C	0.897613	-0.715447	-0.245438
C98	C	1.397613	-0.215447	0.254562
C99	C	1.088779	-0.380957	-0.260098
C100	C	1.588779	0.119043	0.239902
C101	C	1.164009	-0.380967	-0.260103
C102	C	1.664009	0.119033	0.239897
C103	C	0.912288	-0.380881	-0.436637
C104	C	1.412288	0.119119	0.063363
C105	C	0.912307	-0.380860	-0.511873
C106	C	1.412307	0.119140	-0.011873
C107	C	0.947996	-0.174713	-0.295859
C108	C	1.447996	0.325287	0.204141
C109	C	0.963232	-0.086836	-0.311103
C110	C	1.463232	0.413164	0.188897
C111	C	0.964366	-0.330297	-0.555993
C112	C	1.464366	0.169703	-0.055993
C113	C	0.964377	-0.330274	-0.626686
C114	C	1.464377	0.169726	-0.126686
C115	C	0.912331	-0.380819	-0.653256
C116	C	1.412331	0.119181	-0.153256
C117	C	0.860268	-0.431384	-0.609130
C118	C	1.360268	0.068616	-0.109130
C119	C	0.860255	-0.431403	-0.538439
C120	C	1.360255	0.068597	-0.038439
C121	C	0.860319	-0.431311	-0.894216
C122	C	1.360319	0.068689	-0.394216
C123	C	0.860337	-0.431290	-0.964911
C124	C	1.360337	0.068710	-0.464911
C125	C	0.964441	-0.330182	-0.982463
C126	C	1.464441	0.169818	-0.482463
C127	C	0.964428	-0.330200	-0.911772
C128	C	1.464428	0.169800	-0.411772
C129	C	0.912363	-0.380762	-0.867653
C130	C	1.412363	0.119238	-0.367653
C131	C	0.912351	-0.380786	-0.791000
C132	C	1.412351	0.119214	-0.291000
C133	C	0.912345	-0.380800	-0.729906
C134	C	1.412345	0.119200	-0.229906
C135	C	0.912243	-0.380924	-0.084231
C136	C	1.412243	0.119076	0.415769
C137	C	0.912393	-0.380722	-0.009034
C138	C	1.412393	0.119278	0.490966
H139	H	0.542249	-0.289317	-0.354636
H140	H	1.042249	0.210683	0.145364
H141	H	0.638691	-0.472525	-0.165525
H142	H	1.138691	0.027475	0.334475
F143	F	1.059683	-0.795125	-0.407731
F144	F	1.559683	-0.295125	0.092269
F145	F	0.325747	-0.276721	-0.367678
F146	F	0.825747	0.223279	0.132322
H147	H	0.186470	-0.289360	-0.354655
H148	H	0.686470	0.210640	0.145345
H149	H	0.282915	-0.472567	-0.165541
H150	H	0.782915	0.027433	0.334459
H151	H	1.006810	-0.289044	-0.890143
H152	H	1.506810	0.210956	-0.390143
H153	H	0.154677	-0.472586	-0.165553
H154	H	0.654677	0.027414	0.334447
F155	F	1.081554	-0.918917	-0.429617
F156	F	1.581554	-0.418917	0.070383
F157	F	1.019852	-0.276366	-1.029424
F158	F	1.519852	0.223634	-0.529424
H159	H	0.817890	-0.472536	-0.630768
H160	H	1.317890	0.027464	-0.130768
H161	H	0.817858	-0.472569	-0.502517
H162	H	1.317858	0.027431	-0.002517
H163	H	0.781646	-0.682001	-0.129295
H164	H	1.281646	-0.182001	0.370705
F165	F	0.804907	-0.485124	-0.847270
F166	F	1.304907	0.014876	-0.347270
H167	H	0.817952	-0.472452	-0.986541
H168	H	1.317952	0.027548	-0.486541
H169	H	0.670485	-0.289305	-0.354632
H170	H	1.170485	0.210695	0.145368
F171	F	0.499418	-0.485160	-0.152503
F172	F	0.999418	0.014840	0.347497
H173	H	0.938663	-0.681786	-0.286547
H174	H	1.438663	-0.181786	0.213453
H175	H	1.043048	-1.079054	-0.391061
H176	H	1.543048	-0.579054	0.108939
H177	H	0.886051	-1.079283	-0.233806
H178	H	1.386051	-0.579283	0.266194
H179	H	0.843197	-1.030389	-0.190904
H180	H	1.343197	-0.530389	0.309096
H181	H	0.981503	-0.730666	-0.329456
H182	H	1.481503	-0.230666	0.170544
F183	F	0.765033	-0.965939	-0.112624
F184	F	1.265033	-0.465939	0.387376
F185	F	0.743157	-0.842142	-0.090738
F186	F	1.243157	-0.342142	0.409262
H187	H	1.006749	-0.289139	-0.534366
H188	H	1.506749	0.210861	-0.034366
F189	F	1.019803	-0.276484	-0.673635
F190	F	1.519803	0.223516	-0.173635
