data_functionalizedCrystal
_audit_creation_method	'MofGen! by Chris Wilmer'
_symmetry_space_group_name_H-M	'P1'
_symmetry_Int_Tables_number	1
_symmetry_cell_setting	triclinic
loop_
_symmetry_equiv_pos_as_xyz
  x,y,z
_cell_length_a	13.339070
_cell_length_b	13.339070
_cell_length_c	12.376457
_cell_angle_alpha	75.601917
_cell_angle_beta	75.589755
_cell_angle_gamma	64.370706
loop_
_atom_site_label
_atom_site_type_symbol
_atom_site_fract_x
_atom_site_fract_y
_atom_site_fract_z
O1	O	1.511964	-0.535384	-0.094035
O2	O	1.197153	-0.463125	-0.094030
O3	O	1.318428	-0.341851	-0.094029
O4	O	1.390689	-0.656659	-0.094037
O5	O	1.288108	-0.372116	0.093983
O6	O	1.166834	-0.493391	0.093982
O7	O	1.481644	-0.565650	0.093976
Zn8	Zn	1.319425	-0.534326	0.123830
Zn9	Zn	1.359372	-0.494450	-0.123884
O10	O	1.360369	-0.686924	0.093975
C11	C	1.140878	-0.466052	-0.000024
C12	C	1.018364	-0.429669	-0.000022
C13	C	1.291062	-0.315868	-0.000024
C14	C	1.254679	-0.193353	-0.000028
C15	C	0.732980	-0.712564	-0.000047
C16	C	0.848090	-0.746750	-0.000052
C17	C	0.890664	-0.667483	-0.000044
C18	C	0.818117	-0.554023	-0.000031
C19	C	0.702998	-0.519831	-0.000035
C20	C	0.860682	-0.474751	-0.000032
C21	C	0.788135	-0.361291	-0.000020
C22	C	0.673027	-0.327105	-0.000022
C23	C	0.630453	-0.406372	-0.000030
C24	C	0.975801	-0.508942	-0.000029
C25	C	0.945819	-0.316210	-0.000017
C26	C	0.830709	-0.282023	-0.000012
C27	C	1.537920	-0.562723	-0.000033
C28	C	1.660435	-0.599105	-0.000042
C29	C	1.387736	-0.712907	-0.000032
C30	C	1.424120	-0.835420	-0.000035
N31	N	1.292170	-0.561541	0.292888
C32	C	1.537579	0.092035	-0.000032
C33	C	1.571765	-0.023075	-0.000022
C34	C	1.492496	-0.065651	-0.000024
C35	C	1.379036	0.006896	-0.000035
C36	C	1.344845	0.122016	-0.000037
C37	C	1.299763	-0.035669	-0.000028
C38	C	1.186303	0.036877	-0.000040
C39	C	1.152118	0.151986	-0.000042
C40	C	1.231386	0.194561	-0.000040
C41	C	1.333954	-0.150790	-0.000027
C42	C	1.141220	-0.120808	-0.000031
C43	C	1.107034	-0.005698	-0.000042
N44	N	1.386634	-0.467227	-0.292942
C45	C	1.449896	-0.404029	0.647875
C46	C	1.468966	-0.384979	0.529535
C47	C	1.424768	-0.429117	0.470367
C48	C	1.361498	-0.492310	0.529551
C49	C	1.342434	-0.511370	0.647902
C50	C	1.317306	-0.536458	0.470395
C51	C	1.254035	-0.599651	0.529579
C52	C	1.234974	-0.618707	0.647918
C53	C	1.279171	-0.574568	0.707086
C54	C	1.336370	-0.517399	0.352044
C55	C	1.228907	-0.624740	0.352071
C56	C	1.209837	-0.643790	0.470411
H57	H	1.034857	-0.601322	-0.000035
H58	H	0.698306	-0.777089	-0.000063
O59	O	1.148315	-0.705160	0.527733
C60	C	1.113411	-0.740059	0.450145
H61	H	1.113128	-0.681110	0.365783
H62	H	1.024891	-0.737646	0.484359
H63	H	1.173987	-0.829640	0.437554
O64	O	1.002434	-0.700577	0.000107
C65	C	1.016963	-0.674849	0.097503
H66	H	0.936637	-0.604107	0.129971
H67	H	1.090138	-0.646821	0.075613
H68	H	1.035864	-0.752810	0.165680
H69	H	1.014653	0.053385	-0.000050
O70	O	1.064364	-0.162329	-0.000088
C71	C	1.118865	-0.279490	-0.000061
H72	H	1.212093	-0.302361	-0.035654
H73	H	1.079123	-0.304884	-0.054648
H74	H	1.109451	-0.325966	0.090137
O75	O	0.918460	-0.856966	-0.000217
C76	C	0.915158	-0.891533	-0.097611
H77	H	0.832552	-0.834067	-0.130067
H78	H	0.921384	-0.982040	-0.075723
H79	H	0.988865	-0.886445	-0.165796
O80	O	0.987140	-0.239126	-0.000207
C81	C	0.965578	-0.156458	-0.097565
H82	H	0.953680	-0.192486	-0.165627
H83	H	1.039756	-0.129972	-0.130245
H84	H	0.885864	-0.080069	-0.075551
O85	O	1.444207	-0.221175	-0.000226
C86	C	1.510181	-0.186470	-0.097585
H87	H	1.455373	-0.135103	-0.165642
H88	H	1.581650	-0.263708	-0.130271
H89	H	1.546867	-0.132536	-0.075570
H90	H	1.664144	-0.082135	-0.000012
H91	H	1.192920	-0.660684	0.303898
H92	H	0.613963	-0.234717	-0.000025
H93	H	1.387885	-0.465947	0.303867
H94	H	0.536722	-0.378543	-0.000025
O95	O	1.525618	-0.177491	0.000185
C96	C	1.468450	-0.223393	0.097541
H97	H	1.439460	-0.168268	0.165596
H98	H	1.527571	-0.312120	0.130233
H99	H	1.392095	-0.226909	0.075519
H100	H	1.183466	-0.670173	0.696106
H101	H	1.059730	0.211050	-0.000042
O102	O	1.614431	0.133585	-0.000074
C103	C	1.559915	0.250737	-0.000042
H104	H	1.478173	0.285065	-0.035643
H105	H	1.617266	0.293707	-0.054618
H106	H	1.540224	0.268173	0.090159
O107	O	0.760247	-0.171829	0.000191
C108	C	0.763568	-0.137222	0.097551
H109	H	0.793008	-0.213958	0.165609
H110	H	0.675792	-0.076292	0.130235
H111	H	0.824587	-0.093432	0.075540
H112	H	1.203558	0.288293	-0.000052
H113	H	1.440298	-0.413604	0.374010
H114	H	1.485884	-0.368104	0.696057
H115	H	1.520481	-0.333529	0.481352
O116	O	1.260451	-0.592937	0.822045
C117	C	1.143563	-0.547693	0.861602
H118	H	1.098851	-0.479104	0.793409
H119	H	1.126751	-0.510095	0.940771
H120	H	1.110568	-0.617293	0.882615
