data_functionalizedCrystal
_audit_creation_method	'MofGen! by Chris Wilmer'
_symmetry_space_group_name_H-M	'P1'
_symmetry_Int_Tables_number	1
_symmetry_cell_setting	triclinic
loop_
_symmetry_equiv_pos_as_xyz
  x,y,z
_cell_length_a	10.654550
_cell_length_b	10.654541
_cell_length_c	9.730223
_cell_angle_alpha	89.995824
_cell_angle_beta	89.999957
_cell_angle_gamma	84.484430
loop_
_atom_site_label
_atom_site_type_symbol
_atom_site_fract_x
_atom_site_fract_y
_atom_site_fract_z
O1	O	1.667837	0.176399	-0.114187
O2	O	1.302359	0.193205	-0.114212
O3	O	1.493503	0.002062	-0.114190
O4	O	1.476694	0.367541	-0.114208
O5	O	1.493490	0.002057	0.114390
O6	O	1.302346	0.193200	0.114368
O7	O	1.667825	0.176394	0.114393
Zn8	Zn	1.485084	0.184796	0.150673
Zn9	Zn	1.485100	0.184803	-0.150491
O10	O	1.476681	0.367536	0.114372
C11	C	1.255555	0.191968	0.000075
C12	C	1.116112	0.188276	0.000066
C13	C	1.036625	0.300818	0.000064
C14	C	0.905604	0.297342	0.000088
C15	C	0.933569	0.068772	0.000110
C16	C	1.064588	0.072250	0.000095
C17	C	1.492263	-0.044738	0.000099
C18	C	1.488572	-0.184182	0.000096
C19	C	1.717137	-0.212153	0.000129
C20	C	1.829680	-0.291647	0.000149
C21	C	1.826204	-0.422665	0.000144
C22	C	1.710173	-0.474190	0.000116
C23	C	1.597630	-0.394696	0.000097
C24	C	1.601118	-0.263676	0.000106
C25	C	1.369069	-0.366725	0.000054
C26	C	1.372541	-0.235707	0.000068
C27	C	1.253037	-0.418251	0.000026
C28	C	1.140492	-0.338756	0.000017
C29	C	1.143972	-0.207731	0.000023
C30	C	1.259998	-0.156213	0.000049
C31	C	1.714629	0.177630	0.000103
C32	C	1.854072	0.181322	0.000104
C33	C	1.477921	0.414337	0.000080
C34	C	1.481612	0.553780	0.000073
N35	N	1.485082	0.184790	0.356209
N36	N	1.485112	0.184798	-0.356028
C37	C	1.569750	0.100188	0.428145
C38	C	1.569762	0.100189	0.572027
C39	C	1.400435	0.269404	0.572027
C40	C	1.400418	0.269397	0.428147
H41	H	0.891602	-0.025693	0.000142
H42	H	1.129309	-0.019401	0.000100
H43	H	1.046028	-0.380719	-0.000015
O44	O	1.935609	-0.499764	-0.000022
C45	C	2.005988	-0.476277	-0.118411
H46	H	1.976035	-0.377168	-0.157882
H47	H	2.110652	-0.484600	-0.091769
H48	H	1.988190	-0.548069	-0.201312
O49	O	1.706633	-0.601440	0.000279
C50	C	1.642797	-0.637569	0.118664
H51	H	1.578069	-0.553907	0.158138
H52	H	1.584287	-0.718339	0.092015
H53	H	1.714413	-0.669674	0.201565
H54	H	1.078571	0.395294	0.000050
O55	O	1.720673	-0.084902	0.000329
C56	C	1.784471	-0.048814	0.118750
H57	H	1.849190	-0.132487	0.158225
H58	H	1.842985	0.031969	0.092150
H59	H	1.712829	-0.016742	0.201632
O60	O	1.942310	-0.241443	-0.000005
C61	C	1.951192	-0.166508	-0.118401
H62	H	1.852495	-0.134738	-0.157888
H63	H	2.002000	-0.080295	-0.091761
H64	H	2.006263	-0.223894	-0.201289
H65	H	1.250216	-0.524933	0.000014
O66	O	1.034728	-0.130386	0.000185
C67	C	1.029859	-0.053797	0.118590
H68	H	1.129595	-0.046308	0.158084
H69	H	0.983937	0.044255	0.091960
H70	H	0.972107	-0.097402	0.201469
H71	H	1.262843	-0.049533	0.000062
H72	H	1.638686	0.031295	0.369576
O73	O	1.652132	0.017963	0.641692
C74	C	1.726826	-0.056732	0.547339
H75	H	1.728675	-0.005226	0.444771
H76	H	1.826959	-0.074954	0.588899
H77	H	1.685245	-0.150414	0.532052
H78	H	1.331465	0.338290	0.369573
O79	O	0.828264	0.406582	-0.000105
C80	C	0.751651	0.411419	-0.118496
H81	H	0.744154	0.311672	-0.157946
H82	H	0.653605	0.457348	-0.091866
H83	H	0.795239	0.469148	-0.201409
O84	O	1.318326	0.351548	0.642123
C85	C	1.336476	0.333398	0.784542
H86	H	1.435919	0.287387	0.804184
H87	H	1.323334	0.428385	0.839208
H88	H	1.264854	0.269748	0.825397
