data_functionalizedCrystal
_audit_creation_method	'MofGen! by Chris Wilmer'
_symmetry_space_group_name_H-M	'P1'
_symmetry_Int_Tables_number	1
_symmetry_cell_setting	triclinic
loop_
_symmetry_equiv_pos_as_xyz
  x,y,z
_cell_length_a	18.101398
_cell_length_b	21.295417
_cell_length_c	18.101389
_cell_angle_alpha	90.021518
_cell_angle_beta	90.024327
_cell_angle_gamma	90.024968
loop_
_atom_site_label
_atom_site_type_symbol
_atom_site_fract_x
_atom_site_fract_y
_atom_site_fract_z
Zn1	Zn	1.132128	-0.250755	0.418823
Zn2	Zn	1.632128	0.249245	0.918823
Zn3	Zn	1.132027	-0.356008	0.294975
Zn4	Zn	1.632027	0.143992	0.794975
Zn5	Zn	1.008287	-0.250748	0.294984
Zn6	Zn	1.508287	0.249252	0.794984
Zn7	Zn	1.008241	-0.355981	0.418763
Zn8	Zn	1.508241	0.144019	0.918763
O9	O	1.070171	-0.303373	0.356886
O10	O	1.570171	0.196627	0.856886
O11	O	1.235748	-0.264731	0.402415
O12	O	1.735748	0.235269	0.902415
O13	O	1.115590	-0.342054	0.191343
O14	O	1.615590	0.157946	0.691343
O15	O	1.024777	-0.162660	0.311440
O16	O	1.524777	0.337340	0.811440
O17	O	1.235673	-0.342060	0.311424
O18	O	1.735673	0.157940	0.811424
O19	O	1.115762	-0.162664	0.402424
O20	O	1.615762	0.337336	0.902424
O21	O	1.024679	-0.264720	0.191350
O22	O	1.524679	0.235280	0.691350
O23	O	0.904648	-0.264694	0.311382
O24	O	1.404648	0.235306	0.811382
O25	O	1.024698	-0.342014	0.522404
O26	O	1.524698	0.157986	1.022404
O27	O	0.904614	-0.342008	0.402322
O28	O	1.404614	0.157992	0.902322
O29	O	1.115717	-0.264705	0.522448
O30	O	1.615717	0.235295	1.022448
O31	O	1.115545	-0.444094	0.311366
O32	O	1.615545	0.055906	0.811366
O33	O	1.024600	-0.444074	0.402313
O34	O	1.524600	0.055926	0.902313
C35	C	0.877760	-0.303348	0.356847
C36	C	1.377760	0.196652	0.856847
C37	C	0.795446	-0.303352	0.356848
C38	C	1.295446	0.196648	0.856848
C39	C	0.496355	-0.303391	0.356911
C40	C	0.996355	0.196609	0.856911
C41	C	0.527677	-0.254504	0.299973
C42	C	1.027677	0.245496	0.799973
C43	C	0.613295	-0.254635	0.299730
C44	C	1.113295	0.245365	0.799730
C45	C	0.644738	-0.303371	0.356880
C46	C	1.144738	0.196629	0.856880
C47	C	0.613622	-0.369679	0.335551
C48	C	1.113622	0.130321	0.835551
C49	C	0.527976	-0.369407	0.335155
C50	C	1.027976	0.130593	0.835155
C51	C	0.527969	-0.286547	0.435311
C52	C	1.027969	0.213453	0.935311
C53	C	0.613620	-0.285070	0.434883
C54	C	1.113620	0.214930	0.934883
C55	C	0.728597	-0.303364	0.356864
C56	C	1.228597	0.196636	0.856864
C57	C	0.412496	-0.303403	0.356925
C58	C	0.912496	0.196597	0.856925
C59	C	1.070076	-0.466925	0.356849
C60	C	1.570076	0.033075	0.856849
C61	C	1.070104	-0.536893	0.356857
C62	C	1.570104	-0.036893	0.856857
C63	C	1.117453	-0.569705	0.404266
C64	C	1.617453	-0.069705	0.904266
C65	C	1.117479	-0.635447	0.404285
C66	C	1.617479	-0.135447	0.904285
C67	C	1.070164	-0.668375	0.356881
C68	C	1.570164	-0.168375	0.856881
C69	C	1.022806	-0.635555	0.309468
C70	C	1.522806	-0.135555	0.809468
C71	C	1.022776	-0.569814	0.309456
C72	C	1.522776	-0.069814	0.809456
N73	N	1.064571	-0.771628	0.292068
N74	N	1.564571	-0.271628	0.792068
N75	N	1.064604	-0.834080	0.292081
N76	N	1.564604	-0.334080	0.792081
C77	C	1.070250	-0.866450	0.356914
C78	C	1.570250	-0.366450	0.856914
N79	N	1.075877	-0.834010	0.421735
N80	N	1.575877	-0.334010	0.921735
N81	N	1.075848	-0.771553	0.421721
N82	N	1.575848	-0.271553	0.921721
C83	C	1.070191	-0.739661	0.356888
C84	C	1.570191	-0.239661	0.856888
C85	C	1.117630	-0.970547	0.404347
C86	C	1.617630	-0.470547	0.904347
C87	C	1.117651	-1.036291	0.404367
C88	C	1.617651	-0.536291	0.904367
C89	C	1.022982	-1.036398	0.309543
C90	C	1.522982	-0.536398	0.809543
C91	C	1.022957	-0.970656	0.309530
C92	C	1.522957	-0.470656	0.809530
C93	C	1.070285	-0.937734	0.356931
C94	C	1.570285	-0.437734	0.856931
C95	C	1.263333	-0.303399	0.356925
C96	C	1.763333	0.196601	0.856925
C97	C	1.345647	-0.303410	0.356942
C98	C	1.845647	0.196590	0.856942
C99	C	1.070214	-0.303357	0.550048
C100	C	1.570214	0.196643	1.050048
C101	C	1.070232	-0.303350	0.632362
C102	C	1.570232	0.196650	1.132362
C103	C	1.070286	-0.139183	0.356940
C104	C	1.570286	0.360817	0.856940
C105	C	1.070335	-0.069215	0.356963
C106	C	1.570335	0.430785	0.856963
C107	C	1.070171	-0.303344	0.164476
C108	C	1.570171	0.196656	0.664476
C109	C	1.070296	-0.303173	0.082162
C110	C	1.570296	0.196827	0.582162
C111	C	1.070275	-0.303232	0.931453
C112	C	1.570275	0.196768	1.431453
C113	C	1.012811	-0.351719	0.900101
C114	C	1.512811	0.148281	1.400101
C115	C	1.012966	-0.351944	0.814482
C116	C	1.512966	0.148056	1.314482
C117	C	1.070253	-0.303291	0.783071
C118	C	1.570253	0.196709	1.283071
C119	C	1.148279	-0.321303	0.814175
C120	C	1.648279	0.178697	1.314175
C121	C	1.147959	-0.321621	0.899820
C122	C	1.647959	0.178379	1.399820
C123	C	1.050392	-0.236626	0.899882
C124	C	1.550392	0.263374	1.399882
C125	C	1.048656	-0.237011	0.814231
C126	C	1.548656	0.262989	1.314231
C127	C	1.070245	-0.303323	0.699211
C128	C	1.570245	0.196677	1.199211
C129	C	1.070288	-0.303202	1.015313
C130	C	1.570288	0.196798	1.515313
H131	H	0.635026	-0.318083	0.479580
H132	H	1.135026	0.181917	0.979580
H133	H	1.165426	-0.369476	0.792730
H134	H	1.665426	0.130524	1.292730
H135	H	0.984404	-0.943938	0.270922
H136	H	1.484404	-0.443938	0.770922
H137	H	1.164815	-0.370312	0.919800
H138	H	1.664815	0.129688	1.419800
H139	H	0.507714	-0.322155	0.477735
H140	H	1.007714	0.177845	0.977735
H141	H	1.026093	-0.401314	0.793997
H142	H	1.526093	0.098686	1.293997
H143	H	1.155988	-0.542902	0.442865
H144	H	1.655988	-0.042902	0.942865
Br145	Br	1.221561	-0.264293	0.780274
Br146	Br	1.721561	0.235707	1.280274
H147	H	1.156030	-0.662168	0.442900
H148	H	1.656030	-0.162168	0.942900
H149	H	0.984452	-1.063207	0.270951
H150	H	1.484452	-0.563207	0.770951
H151	H	0.635037	-0.384213	0.278855
H152	H	1.135037	0.115787	0.778855
Br153	Br	0.958585	-0.680241	0.245140
Br154	Br	1.458585	-0.180241	0.745140
H155	H	1.156166	-0.943742	0.442946
H156	H	1.656166	-0.443742	0.942946
Br157	Br	1.181905	-1.080823	0.468725
Br158	Br	1.681905	-0.580823	0.968725
H159	H	0.955107	-0.340671	0.793450
H160	H	1.455107	0.159329	1.293450
H161	H	0.507965	-0.383693	0.277840
H162	H	1.007965	0.116307	0.777840
H163	H	0.954777	-0.340562	0.920687
H164	H	1.454777	0.159438	1.420687
H165	H	1.025808	-0.400788	0.921623
H166	H	1.525808	0.099212	1.421623
H167	H	0.506396	-0.239037	0.454702
H168	H	1.006396	0.260963	0.954702
H169	H	0.994484	-0.220216	0.921469
H170	H	1.494484	0.279784	1.421469
Br171	Br	1.221693	-0.265276	0.934397
Br172	Br	1.721693	0.234724	1.434397
H173	H	0.506128	-0.265512	0.242217
H174	H	1.006128	0.234488	0.742217
Br175	Br	0.952945	-0.214373	0.780358
Br176	Br	1.452945	0.285627	1.280358
Br177	Br	0.958509	-0.525280	0.245113
Br178	Br	1.458509	-0.025280	0.745113
H179	H	1.087456	-0.198968	0.792849
H180	H	1.587456	0.301032	1.292849
H181	H	1.092246	-0.200501	0.920160
H182	H	1.592246	0.299499	1.420160
H183	H	0.634334	-0.205465	0.313100
H184	H	1.134334	0.294535	0.813100
H185	H	0.507256	-0.407065	0.374817
H186	H	1.007256	0.092935	0.874817
Br187	Br	0.493392	-0.172295	0.322008
Br188	Br	0.993392	0.327705	0.822008
H189	H	0.633987	-0.407079	0.375724
H190	H	1.133987	0.092921	0.875724
Br191	Br	0.647393	-0.273188	0.202901
Br192	Br	1.147393	0.226812	0.702901
H193	H	0.633963	-0.236275	0.450966
H194	H	1.133963	0.263725	0.950966
