data_functionalizedCrystal
_audit_creation_method	'MofGen! by Chris Wilmer'
_symmetry_space_group_name_H-M	'P1'
_symmetry_Int_Tables_number	1
_symmetry_cell_setting	triclinic
loop_
_symmetry_equiv_pos_as_xyz
  x,y,z
_cell_length_a	19.121102
_cell_length_b	16.120484
_cell_length_c	16.120297
_cell_angle_alpha	95.614431
_cell_angle_beta	89.436287
_cell_angle_gamma	89.396489
loop_
_atom_site_label
_atom_site_type_symbol
_atom_site_fract_x
_atom_site_fract_y
_atom_site_fract_z
Zn1	Zn	1.032868	0.411927	0.544488
Zn2	Zn	1.532868	0.911927	1.044488
Zn3	Zn	1.032780	0.544612	0.411794
Zn4	Zn	1.532780	1.044612	0.911794
Zn5	Zn	0.922193	0.398951	0.398837
Zn6	Zn	1.422193	0.898951	0.898837
Zn7	Zn	0.909675	0.545077	0.544957
Zn8	Zn	1.409675	1.045077	1.044957
O9	O	0.974379	0.475142	0.475019
O10	O	1.474379	0.975142	0.975019
O11	O	1.130693	0.434765	0.532112
O12	O	1.630693	0.934765	1.032112
O13	O	1.023312	0.519665	0.293391
O14	O	1.523312	1.019665	0.793391
O15	O	0.942150	0.283989	0.412539
O16	O	1.442150	0.783989	0.912539
O17	O	1.130629	0.532248	0.434622
O18	O	1.630629	1.032248	0.934622
O19	O	1.023462	0.293523	0.519549
O20	O	1.523462	0.793523	1.019549
O21	O	0.942065	0.412648	0.283871
O22	O	1.442065	0.912648	0.783871
O23	O	0.822695	0.413098	0.412994
O24	O	1.322695	0.913098	0.912994
O25	O	0.920815	0.533039	0.661580
O26	O	1.420815	1.033039	1.161580
O27	O	0.813498	0.520456	0.520348
O28	O	1.313498	1.020456	1.020348
O29	O	1.011324	0.435215	0.661235
O30	O	1.511324	0.935215	1.161235
O31	O	1.011174	0.661357	0.435077
O32	O	1.511174	1.161357	0.935077
O33	O	0.920729	0.661699	0.532911
O34	O	1.420729	1.161699	1.032911
C35	C	0.792728	0.465420	0.465316
C36	C	1.292728	0.965420	0.965316
C37	C	0.715016	0.461282	0.461186
C38	C	1.215016	0.961282	0.961186
C39	C	0.964602	0.691785	0.485470
C40	C	1.464602	1.191785	0.985470
C41	C	0.960482	0.784470	0.489973
C42	C	1.460482	1.284470	0.989973
C43	C	0.964683	0.485627	0.692508
C44	C	1.464683	0.985627	1.192508
C45	C	0.960551	0.490095	0.785189
C46	C	1.460551	0.990095	1.285189
C47	C	0.673736	0.515310	0.515059
C48	C	1.173736	1.015310	1.015059
C49	C	0.600717	0.511412	0.511182
C50	C	1.100717	1.011412	1.011182
C51	C	0.568979	0.453488	0.453427
C52	C	1.068979	0.953488	0.953427
C53	C	0.610264	0.399454	0.399552
C54	C	1.110264	0.899454	0.899552
C55	C	0.683282	0.403350	0.403433
C56	C	1.183282	0.903350	0.903433
C57	C	0.348752	0.438923	0.438918
C58	C	0.848752	0.938923	0.938918
C59	C	0.275729	0.435033	0.435038
C60	C	0.775729	0.935033	0.935038
C61	C	0.266187	0.546990	0.546670
C62	C	0.766187	1.046990	1.046670
C63	C	0.339207	0.550883	0.550544
C64	C	0.839207	1.050883	1.050544
C65	C	0.380485	0.496847	0.496671
C66	C	0.880485	0.996847	0.996671
C67	C	0.494342	0.449503	0.449461
C68	C	0.994342	0.949503	0.949461
C69	C	0.455121	0.500828	0.500642
C70	C	0.955121	1.000828	1.000642
C71	C	1.156739	0.484902	0.484760
C72	C	1.656739	0.984902	0.984760
C73	C	1.234449	0.489061	0.488911
C74	C	1.734449	0.989061	0.988911
C75	C	0.984212	0.257655	0.464546
C76	C	1.484212	0.757655	0.964546
C77	C	0.988403	0.164975	0.460084
C78	C	1.488403	0.664975	0.960084
C79	C	0.952963	0.954168	0.498210
C80	C	1.452963	1.454168	0.998210
C81	C	0.995919	0.995282	0.451848
C82	C	1.495919	1.495282	0.951848
C83	C	0.991736	1.089708	0.456432
C84	C	1.491736	1.589708	0.956432
C85	C	0.957146	0.859734	0.493628
C86	C	1.457146	1.359734	0.993628
C87	C	0.984080	0.464640	0.258375
C88	C	1.484080	0.964640	0.758375
C89	C	0.988358	0.459944	0.165691
C90	C	1.488358	0.959944	0.665691
C91	C	0.952982	0.498232	0.954876
C92	C	1.452982	0.998232	1.454876
C93	C	0.995924	0.451809	0.996009
C94	C	1.495924	0.951809	1.496009
C95	C	0.991713	0.456337	1.090429
C96	C	1.491713	0.956337	1.590429
C97	C	0.957193	0.493705	0.860448
C98	C	1.457193	0.993705	1.360448
H99	H	0.699572	0.562481	0.562087
H100	H	1.199572	1.062481	1.062087
C101	C	0.899791	0.555896	1.002369
C102	C	1.399791	1.055896	1.502369
C103	C	0.912203	0.638216	0.986044
C104	C	1.412203	1.138216	1.486044
C105	C	0.863215	0.691360	1.029782
C106	C	1.363215	1.191360	1.529782
H107	H	0.903955	0.551442	1.060439
H108	H	1.403955	1.051442	1.560439
H109	H	0.853973	0.540566	0.985029
H110	H	1.353973	1.040566	1.485029
H111	H	0.958009	0.653542	1.003388
H112	H	1.458009	1.153542	1.503388
H113	H	0.908033	0.642697	0.927982
H114	H	1.408033	1.142697	1.427982
H115	H	0.817396	0.676029	1.012442
H116	H	1.317396	1.176029	1.512442
H117	H	0.867382	0.686898	1.087850
H118	H	1.367382	1.186898	1.587850
H119	H	0.871625	0.747218	1.018705
H120	H	1.371625	1.247218	1.518705
H121	H	1.035850	0.408664	0.960313
H122	H	1.535850	0.908664	1.460313
C123	C	0.489445	0.563745	0.563432
C124	C	0.989445	1.063745	1.063432
C125	C	0.437669	0.610221	0.609798
C126	C	0.937669	1.110221	1.109798
C127	C	0.469269	0.668182	0.667653
C128	C	0.969269	1.168182	1.167653
H129	H	0.517709	0.600078	0.534832
H130	H	1.017709	1.100078	1.034832
H131	H	0.517731	0.535197	0.599839
H132	H	1.017731	1.035197	1.099839
H133	H	0.409395	0.638767	0.573397
H134	H	0.909395	1.138767	1.073397
H135	H	0.409402	0.573911	0.638417
H136	H	0.909402	1.073911	1.138417
H137	H	0.497555	0.639633	0.704060
H138	H	0.997555	1.139633	1.204060
H139	H	0.497532	0.704509	0.639046
H140	H	0.997532	1.204509	1.139046
H141	H	0.434145	0.699717	0.699125
H142	H	0.934145	1.199717	1.199125
C143	C	0.241219	0.372258	0.372255
C144	C	0.741219	0.872258	0.872255
C145	C	0.199556	0.414555	0.318759
C146	C	0.699556	0.914555	0.818759
C147	C	0.167757	0.356754	0.260919
C148	C	0.667757	0.856754	0.760919
H149	H	0.212903	0.335992	0.400873
H150	H	0.712903	0.835992	0.900873
H151	H	0.276231	0.340631	0.340676
H152	H	0.776231	0.840631	0.840676
H153	H	0.164549	0.446168	0.350335
H154	H	0.664549	0.946168	0.850335
H155	H	0.227856	0.450816	0.290122
H156	H	0.727856	0.950816	0.790122
H157	H	0.202770	0.325127	0.229339
H158	H	0.702770	0.825127	0.729339
H159	H	0.139445	0.320492	0.289544
H160	H	0.639445	0.820492	0.789544
H161	H	0.139491	0.385445	0.224610
H162	H	0.639491	0.885445	0.724610
C163	C	0.393442	0.380212	0.380330
C164	C	0.893442	0.880212	0.880330
C165	C	0.350015	0.328669	0.328908
C166	C	0.850015	0.828669	0.828908
C167	C	0.391162	0.274578	0.274919
C168	C	0.891162	0.774578	0.774919
H169	H	0.422149	0.346912	0.411958
H170	H	0.922149	0.846912	0.911958
H171	H	0.422097	0.411789	0.346947
H172	H	0.922097	0.911789	0.846947
H173	H	0.321372	0.297095	0.362287
H174	H	0.821372	0.797095	0.862287
H175	H	0.321308	0.361947	0.297262
H176	H	0.821308	0.861947	0.797262
H177	H	0.419818	0.306155	0.241536
H178	H	0.919818	0.806155	0.741536
H179	H	0.419868	0.241283	0.306553
H180	H	0.919868	0.741283	0.806553
H181	H	0.361704	0.239605	0.240017
H182	H	0.861704	0.739605	0.740017
H183	H	0.365042	0.598053	0.597572
H184	H	0.865042	1.098053	1.097572
C185	C	0.221249	0.605550	0.605121
C186	C	0.721249	1.105550	1.105121
C187	C	0.150510	0.589730	0.589378
C188	C	0.650510	1.089730	1.089378
C189	C	0.109094	0.643652	0.643219
C190	C	0.609094	1.143652	1.143219
H191	H	0.231148	0.661634	0.596216
H192	H	0.731148	1.161634	1.096216
H193	H	0.231235	0.596762	0.661232
H194	H	0.731235	1.096762	1.161232
H195	H	0.140529	0.598525	0.533280
H196	H	0.640529	1.098525	1.033280
H197	H	0.140590	0.533656	0.598288
H198	H	0.640590	1.033656	1.098288
H199	H	0.119079	0.634864	0.699331
H200	H	0.619079	1.134864	1.199331
H201	H	0.118998	0.699733	0.634310
H202	H	0.618998	1.199733	1.134310
H203	H	0.061093	0.632920	0.632551
H204	H	0.561093	1.132920	1.132551
C205	C	0.899842	1.001902	0.555775
C206	C	1.399842	1.501902	1.055775
C207	C	0.934835	1.056548	0.613733
C208	C	1.434835	1.556548	1.113733
C209	C	0.885921	1.100553	0.666764
C210	C	1.385921	1.600553	1.166764
H211	H	0.873411	0.963791	0.584345
H212	H	1.373411	1.463791	1.084345
H213	H	0.869359	1.032809	0.523859
H214	H	1.369359	1.532809	1.023859
H215	H	0.965305	1.025644	0.645646
H216	H	1.465305	1.525644	1.145646
H217	H	0.961262	1.094676	0.585187
H218	H	1.461262	1.594676	1.085187
H219	H	0.855439	1.131460	0.634848
H220	H	1.355439	1.631460	1.134848
H221	H	0.859494	1.062435	0.695328
H222	H	1.359494	1.562435	1.195328
H223	H	0.909657	1.137641	0.706090
H224	H	1.409657	1.637641	1.206090
C225	C	0.575767	0.336694	0.336751
C226	C	1.075767	0.836694	0.836751
C227	C	0.534113	0.379006	0.283258
C228	C	1.034113	0.879006	0.783258
C229	C	0.502332	0.321219	0.225387
C230	C	1.002332	0.821219	0.725387
H231	H	0.547448	0.300413	0.365345
H232	H	1.047448	0.800413	0.865345
H233	H	0.610789	0.305083	0.305173
H234	H	1.110789	0.805083	0.805173
H235	H	0.499095	0.410603	0.314832
H236	H	0.999095	0.910603	0.814832
H237	H	0.562416	0.415283	0.254644
H238	H	1.062416	0.915283	0.754644
H239	H	0.537354	0.289607	0.193810
H240	H	1.037354	0.789607	0.693810
H241	H	0.474016	0.284941	0.253989
H242	H	0.974016	0.784941	0.753989
H243	H	0.474071	0.349919	0.189081
H244	H	0.974071	0.849919	0.689081
H245	H	1.035836	0.959564	0.408714
H246	H	1.535836	1.459564	0.908714
H247	H	0.567110	0.555408	0.555050
H248	H	1.067110	1.055408	1.055050
H249	H	0.716891	0.359350	0.359568
H250	H	1.216891	0.859350	0.859568
H251	H	0.468493	0.402344	0.402435
H252	H	0.968493	0.902344	0.902435
