data_functionalizedCrystal
_audit_creation_method	'MofGen! by Chris Wilmer'
_symmetry_space_group_name_H-M	'P1'
_symmetry_Int_Tables_number	1
_symmetry_cell_setting	triclinic
loop_
_symmetry_equiv_pos_as_xyz
  x,y,z
_cell_length_a	23.532407
_cell_length_b	23.532407
_cell_length_c	13.330367
_cell_angle_alpha	89.990692
_cell_angle_beta	89.997789
_cell_angle_gamma	82.848678
loop_
_atom_site_label
_atom_site_type_symbol
_atom_site_fract_x
_atom_site_fract_y
_atom_site_fract_z
O1	O	0.755262	0.069134	-0.083308
O2	O	1.255262	0.569134	0.416692
O3	O	0.589399	0.079138	-0.083339
O4	O	1.089399	0.579138	0.416661
O5	O	0.677332	-0.008796	-0.083305
O6	O	1.177332	0.491204	0.416695
O7	O	0.667329	0.157068	-0.083343
O8	O	1.167329	0.657068	0.416657
O9	O	0.677319	-0.008798	0.083543
O10	O	1.177319	0.491202	0.583543
O11	O	0.589386	0.079136	0.083508
O12	O	1.089386	0.579136	0.583508
O13	O	0.755249	0.069133	0.083539
O14	O	1.255249	0.569133	0.583539
Cu15	Cu	0.672317	0.074134	0.098758
Cu16	Cu	1.172317	0.574134	0.598758
Cu17	Cu	0.672332	0.074136	-0.098558
Cu18	Cu	1.172332	0.574136	0.401442
O19	O	0.667316	0.157066	0.083504
O20	O	1.167316	0.657066	0.583504
C21	C	0.568176	0.078882	0.000081
C22	C	1.068176	0.578882	0.500081
C23	C	0.504959	0.078116	0.000070
C24	C	1.004959	0.578116	0.500070
C25	C	0.105856	0.125350	0.000104
C26	C	0.605856	0.625350	0.500104
C27	C	0.046456	0.124638	0.000110
C28	C	0.546456	0.624638	0.500110
O29	O	0.009711	0.168424	0.000137
O30	O	0.509711	0.668424	0.500137
N31	N	0.023830	0.072362	0.000121
N32	N	0.523830	0.572362	0.500121
C33	C	0.060607	0.020794	0.000135
C34	C	0.560607	0.520794	0.500135
O35	O	0.035908	-0.023737	0.000146
O36	O	0.535908	0.476263	0.500146
C37	C	0.120006	0.021506	0.000136
C38	C	0.620006	0.521506	0.500136
C39	C	0.142629	0.073785	0.000115
C40	C	0.642629	0.573785	0.500115
C41	C	0.128479	0.177625	0.000084
C42	C	0.628479	0.677625	0.500084
C43	C	0.187876	0.178336	0.000076
C44	C	0.687876	0.678336	0.500076
C45	C	0.224649	0.126772	0.000088
C46	C	0.724649	0.626772	0.500088
C47	C	0.202025	0.074496	0.000107
C48	C	0.702025	0.574496	0.500107
C49	C	0.156783	-0.030062	0.000158
C50	C	0.656783	0.469938	0.500158
C51	C	0.216185	-0.029345	0.000159
C52	C	0.716185	0.470655	0.500159
C53	C	0.238808	0.022934	0.000139
C54	C	0.738808	0.522934	0.500139
C55	C	0.298194	0.023643	0.000110
C56	C	0.798194	0.523643	0.500110
N57	N	0.320820	0.075920	0.000100
N58	N	0.820820	0.575920	0.500100
C59	C	0.284048	0.127484	0.000089
C60	C	0.784048	0.627484	0.500089
C61	C	-0.064135	0.019302	0.000135
C62	C	0.435865	0.519302	0.500135
C63	C	-0.123533	0.018589	0.000127
C64	C	0.376467	0.518589	0.500127
C65	C	-0.137680	0.122434	0.000104
C66	C	0.362320	0.622434	0.500104
C67	C	-0.078281	0.123146	0.000105
C68	C	0.421719	0.623146	0.500105
C69	C	-0.041509	0.071578	0.000125
C70	C	0.458491	0.571578	0.500125
C71	C	0.408784	0.128974	0.000071
C72	C	0.908784	0.628974	0.500071
C73	C	0.468186	0.129680	0.000058
C74	C	0.968186	0.629680	0.500058
C75	C	0.482329	0.025836	0.000087
C76	C	0.982329	0.525836	0.500087
C77	C	0.422932	0.025129	0.000094
C78	C	0.922932	0.525129	0.500094
C79	C	0.386160	0.076702	0.000089
C80	C	0.886160	0.576702	0.500089
O81	O	0.334974	-0.020119	0.000088
O82	O	0.834974	0.479881	0.500088
O83	O	0.308755	0.172007	0.000091
O84	O	0.808755	0.672007	0.500091
C85	C	0.677071	-0.030013	0.000122
C86	C	1.177071	0.469987	0.500122
C87	C	0.676305	-0.093230	0.000129
C88	C	1.176305	0.406770	0.500129
C89	C	0.723539	-0.492333	0.000083
C90	C	1.223539	0.007667	0.500083
C91	C	0.722827	-0.551733	0.000075
C92	C	1.222827	-0.051733	0.500075
O93	O	0.766613	-0.588478	0.000046
O94	O	1.266613	-0.088478	0.500046
N95	N	0.670551	-0.574359	0.000066
N96	N	1.170551	-0.074359	0.500066
C97	C	0.618983	-0.537582	0.000055
C98	C	1.118983	-0.037582	0.500055
O99	O	0.574452	-0.562281	0.000045
O100	O	1.074452	-0.062281	0.500045
C101	C	0.619695	-0.478182	0.000055
C102	C	1.119695	0.021818	0.500055
C103	C	0.671974	-0.455560	0.000074
C104	C	1.171974	0.044440	0.500074
C105	C	0.775814	-0.469710	0.000101
C106	C	1.275814	0.030290	0.500101
C107	C	0.776525	-0.410313	0.000111
C108	C	1.276525	0.089687	0.500111
C109	C	0.724961	-0.373540	0.000102
C110	C	1.224961	0.126460	0.500102
C111	C	0.672685	-0.396164	0.000084
C112	C	1.172685	0.103836	0.500084
C113	C	0.568127	-0.441406	0.000037
C114	C	1.068127	0.058594	0.500037
C115	C	0.568844	-0.382004	0.000036
C116	C	1.068844	0.117996	0.500036
C117	C	0.621123	-0.359381	0.000056
C118	C	1.121123	0.140619	0.500056
C119	C	0.621832	-0.299995	0.000085
C120	C	1.121832	0.200005	0.500085
N121	N	0.674109	-0.277368	0.000094
N122	N	1.174109	0.222632	0.500094
C123	C	0.725673	-0.314141	0.000103
C124	C	1.225673	0.185859	0.500103
C125	C	0.617491	-0.662324	0.000052
C126	C	1.117491	-0.162324	0.500052
C127	C	0.616778	-0.721722	0.000058
C128	C	1.116778	-0.221722	0.500058
C129	C	0.720623	-0.735869	0.000077
C130	C	1.220623	-0.235869	0.500077
C131	C	0.721335	-0.676470	0.000078
C132	C	1.221335	-0.176470	0.500078
C133	C	0.669767	-0.639698	0.000061
C134	C	1.169767	-0.139698	0.500061
C135	C	0.727163	-0.189405	0.000124
C136	C	1.227163	0.310595	0.500124
C137	C	0.727869	-0.130003	0.000138
C138	C	1.227869	0.369997	0.500138
C139	C	0.624025	-0.115860	0.000114
C140	C	1.124025	0.384140	0.500114
C141	C	0.623318	-0.175257	0.000105
C142	C	1.123318	0.324743	0.500105
C143	C	0.674891	-0.212029	0.000107
C144	C	1.174891	0.287971	0.500107
O145	O	0.578070	-0.263215	0.000110
O146	O	1.078070	0.236785	0.500110
O147	O	0.770196	-0.289433	0.000099
O148	O	1.270196	0.210567	0.500099
C149	C	0.776472	0.069388	0.000117
C150	C	1.276472	0.569388	0.500117
C151	C	0.839689	0.070154	0.000121
C152	C	1.339689	0.570154	0.500121
C153	C	0.667577	0.178283	0.000076
C154	C	1.167577	0.678283	0.500076
C155	C	0.668343	0.241500	0.000062
C156	C	1.168343	0.741500	0.500062
N157	N	0.672310	0.074132	0.237539
N158	N	1.172310	0.574132	0.737539
N159	N	0.672342	0.074134	-0.237340
N160	N	1.172342	0.574134	0.262660
C161	C	0.633393	0.113058	0.710147
C162	C	1.133393	0.613058	1.210147
C163	C	0.711285	0.035210	0.710146
C164	C	1.211285	0.535210	1.210146
C165	C	0.711279	0.035208	0.605127
C166	C	1.211279	0.535208	1.105127
C167	C	0.672330	0.074132	0.552614
C168	C	1.172330	0.574132	1.052614
C169	C	0.633387	0.113058	0.605119
C170	C	1.133387	0.613058	1.105119
C171	C	0.750225	-0.003713	0.552614
C172	C	1.250225	0.496287	1.052614
C173	C	0.750221	-0.003716	0.447590
C174	C	1.250221	0.496284	0.947590
C175	C	0.711268	0.035206	0.395074
C176	C	1.211268	0.535206	0.895074
C177	C	0.672323	0.074133	0.447586
C178	C	1.172323	0.574133	0.947586
C179	C	0.633374	0.113057	0.395072
C180	C	1.133374	0.613057	0.895072
C181	C	0.594426	0.151982	0.447582
C182	C	1.094426	0.651982	0.947582
C183	C	0.594434	0.151980	0.552603
C184	C	1.094434	0.651980	1.052603
C185	C	0.711260	0.035208	0.290053
C186	C	1.211260	0.535208	0.790053
C187	C	0.633367	0.113058	0.290044
C188	C	1.133367	0.613058	0.790044
H189	H	0.246123	-0.071339	0.000176
H190	H	0.746123	0.428661	0.500176
H191	H	0.781933	-0.035411	0.404843
H192	H	1.281933	0.464589	0.904843
H193	H	0.763906	-0.658056	0.000092
H194	H	1.263906	-0.158056	0.500092
H195	H	0.742973	0.003518	0.247304
H196	H	1.242973	0.503518	0.747304
H197	H	0.817806	-0.499645	0.000104
H198	H	1.317806	0.000355	0.500104
H199	H	0.562724	0.183672	0.595363
H200	H	1.062724	0.683672	1.095363
H201	H	0.486602	0.172255	0.000041
H202	H	0.986602	0.672255	0.500041
H203	H	0.770443	-0.111587	0.000156
H204	H	1.270443	0.388413	0.500156
H205	H	0.378851	0.170970	0.000070
H206	H	0.878851	0.670970	0.500070
H207	H	0.762610	-0.765821	0.000080
H208	H	1.262610	-0.265821	0.500080
H209	H	0.574207	-0.740136	0.000060
H210	H	1.074207	-0.240136	0.500060
H211	H	0.206289	0.220908	0.000059
H212	H	0.706289	0.720908	0.500059
H213	H	0.601648	0.144753	0.247294
H214	H	1.101648	0.644753	0.747294
H215	H	0.138375	-0.072634	0.000175
H216	H	0.638375	0.427366	0.500175
H217	H	0.098544	0.219617	0.000079
H218	H	0.598544	0.719617	0.500079
H219	H	0.582043	-0.085909	0.000110
H220	H	1.082043	0.414091	0.500110
H221	H	0.404512	-0.017441	0.000096
H222	H	0.904512	0.482559	0.500096
H223	H	-0.059867	0.165717	0.000094
H224	H	0.440133	0.665717	0.500094
H225	H	-0.141947	-0.023982	0.000128
H226	H	0.358053	0.476018	0.500128
H227	H	0.562715	0.183677	0.404813
H228	H	1.062715	0.683677	0.904813
H229	H	0.769159	-0.219337	0.000121
H230	H	1.269159	0.280663	0.500121
H231	H	0.512280	-0.016146	0.000092
H232	H	1.012280	0.483854	0.500092
H233	H	0.819097	-0.391900	0.000122
H234	H	1.319097	0.108100	0.500122
H235	H	0.743000	0.003522	0.752905
H236	H	1.243000	0.503522	1.252905
H237	H	0.575496	-0.632386	0.000047
H238	H	1.075496	-0.132386	0.500047
H239	H	-0.167632	0.164421	0.000100
H240	H	0.332368	0.664421	0.500100
H241	H	0.525555	-0.459814	0.000015
H242	H	1.025555	0.040186	0.500015
H243	H	0.526850	-0.352066	0.000021
H244	H	1.026850	0.147934	0.500021
H245	H	-0.034198	-0.022693	0.000142
H246	H	0.465802	0.477307	0.500142
H247	H	0.580748	-0.193677	0.000117
H248	H	1.080748	0.306323	0.500117
H249	H	0.601680	0.144748	0.752903
H250	H	1.101680	0.644748	1.252903
H251	H	0.781939	-0.035402	0.595374
H252	H	1.281939	0.464598	1.095374
