data_functionalizedCrystal
_audit_creation_method	'MofGen! by Chris Wilmer'
_symmetry_space_group_name_H-M	'P1'
_symmetry_Int_Tables_number	1
_symmetry_cell_setting	triclinic
loop_
_symmetry_equiv_pos_as_xyz
  x,y,z
_cell_length_a	8.559649
_cell_length_b	9.130313
_cell_length_c	8.559649
_cell_angle_alpha	89.998879
_cell_angle_beta	110.221336
_cell_angle_gamma	89.999638
loop_
_atom_site_label
_atom_site_type_symbol
_atom_site_fract_x
_atom_site_fract_y
_atom_site_fract_z
O1	O	-2.126873	0.121801	-0.055041
O2	O	-1.651388	0.121801	0.028740
O3	O	-1.931021	0.121800	-0.250893
O4	O	-1.847240	0.121801	0.224592
O5	O	-1.931017	-0.121799	-0.250886
O6	O	-1.651384	-0.121798	0.028747
O7	O	-2.126869	-0.121798	-0.055034
Cu8	Cu	-1.889126	-0.144041	-0.013143
Cu9	Cu	-1.889131	0.144043	-0.013151
O10	O	-1.847236	-0.121798	0.224599
C11	C	-1.591077	0.000001	0.035093
C12	C	-1.411378	0.000001	0.053992
N13	N	-1.889135	-0.346663	-0.013139
C14	C	-2.012980	-0.423316	-0.136927
C15	C	-2.012978	-0.576652	-0.136946
C16	C	-1.765279	-0.576671	0.110625
C17	C	-1.765276	-0.423337	0.110636
C18	C	-2.136839	-0.346642	-0.260703
C19	C	-2.260695	-0.423294	-0.384499
C20	C	-2.260693	-0.576631	-0.384518
C21	C	-2.136836	-0.653315	-0.260740
C22	C	-1.187180	0.000002	-0.061387
C23	C	-1.366879	0.000002	-0.080286
C24	C	-1.937369	0.000004	-0.311198
C25	C	-1.956268	0.000013	-0.490898
N26	N	-1.889137	0.346666	-0.013169
C27	C	-1.840889	0.000002	0.284904
C28	C	-1.821990	0.000003	0.464604
H29	H	-2.136855	-0.221787	-0.260696
H30	H	-1.466258	0.000010	-0.209705
H31	H	-1.311990	0.000009	0.183420
H32	H	-2.361529	-0.360850	-0.485283
H33	H	-2.361532	-0.639040	-0.485327
H34	H	-2.136835	-0.778173	-0.260776
H35	H	-1.664440	-0.639118	0.211402
H36	H	-1.664429	-0.360927	0.211434
H37	H	-1.692570	0.000001	0.563982
H38	H	-2.085696	-0.000003	0.409714
