data_functionalizedCrystal
_audit_creation_method	'MofGen! by Chris Wilmer'
_symmetry_space_group_name_H-M	'P1'
_symmetry_Int_Tables_number	1
_symmetry_cell_setting	triclinic
loop_
_symmetry_equiv_pos_as_xyz
  x,y,z
_cell_length_a	14.560432
_cell_length_b	20.875641
_cell_length_c	20.875625
_cell_angle_alpha	59.251205
_cell_angle_beta	92.972377
_cell_angle_gamma	62.439975
loop_
_atom_site_label
_atom_site_type_symbol
_atom_site_fract_x
_atom_site_fract_y
_atom_site_fract_z
Zr1	Zr	0.913493	0.702101	-0.109921
O2	O	0.765898	0.835923	-0.217256
O3	O	0.954115	0.568281	-0.073612
O4	O	0.950835	0.702102	-0.212343
O5	O	0.777025	0.702100	0.027035
O6	O	1.101976	0.702100	-0.212341
O7	O	0.769178	0.702102	-0.078525
O8	O	1.107844	0.462719	0.035824
O9	O	0.771157	0.941482	-0.221129
O10	O	1.089821	0.623321	-0.062238
O11	O	0.982882	0.623321	0.016538
O12	O	0.979020	0.780878	-0.146799
O13	O	0.872081	0.780878	-0.068023
Zr14	Zr	1.167060	0.702095	0.058441
Zr15	Zr	1.154545	0.702098	-0.109916
Zr16	Zr	0.926007	0.702098	0.058436
Zr17	Zr	0.921881	0.870455	-0.116097
Zr18	Zr	1.158672	0.533741	0.064617
O19	O	1.126438	0.835915	0.022132
O20	O	1.108644	0.835919	-0.217250
O21	O	0.783692	0.835919	0.022126
O22	O	1.314655	0.568272	0.165776
O23	O	1.296861	0.568277	-0.073606
O24	O	0.971909	0.568276	0.165770
O25	O	1.303528	0.702096	-0.078516
O26	O	1.129717	0.702093	0.160863
O27	O	0.978576	0.702095	0.160860
O28	O	1.311375	0.702094	0.027045
O29	O	0.962762	0.941480	-0.221126
O30	O	1.117791	0.462716	0.169645
O31	O	1.309395	0.462714	0.169649
O32	O	1.299448	0.462716	0.035827
O33	O	0.781105	0.941479	-0.087308
O34	O	0.972709	0.941477	-0.087304
O35	O	1.101533	0.623318	0.095319
O36	O	1.208472	0.623318	0.016542
O37	O	1.097671	0.780875	-0.068019
O38	O	0.990732	0.780875	0.010758
C39	C	1.029784	0.491513	-0.018014
C40	C	1.026223	0.420042	-0.015392
C41	C	0.738757	0.702101	-0.025746
C42	C	0.636424	0.702103	-0.025748
C43	C	1.080368	0.386465	-0.055281
C44	C	1.077026	0.319306	-0.052810
C45	C	1.019531	0.285730	-0.010454
C46	C	0.965385	0.319310	0.029440
C47	C	0.968734	0.386463	0.026973
C48	C	1.003533	0.084886	0.001339
C49	C	1.000184	0.017730	0.003801
C50	C	1.111828	0.017730	-0.078448
C51	C	1.115167	0.084889	-0.080915
C52	C	1.061026	0.118459	-0.041018
N53	N	1.016110	0.217085	-0.007929
N54	N	1.064454	0.187099	-0.043539
C55	C	0.627753	0.702116	-0.142067
C56	C	0.575341	0.702125	-0.200226
C57	C	0.479192	0.702125	-0.200224
C58	C	0.435455	0.702113	-0.142054
C59	C	0.487867	0.702103	-0.083895
C60	C	0.584016	0.702106	-0.083905
C61	C	0.496541	0.702083	0.032427
C62	C	0.592686	0.702090	0.032422
C63	C	0.452804	0.702071	0.090596
C64	C	0.505212	0.702067	0.148753
C65	C	0.601366	0.702069	0.148748
C66	C	0.645098	0.702080	0.090581
C67	C	1.341796	0.702094	-0.025735
C68	C	1.444129	0.702093	-0.025733
C69	C	1.024623	0.702102	-0.236329
C70	C	1.019310	0.702103	-0.307801
C71	C	1.050769	0.912683	-0.033466
C72	C	1.054329	0.984153	-0.036088
C73	C	1.100078	0.702104	-0.341377
C74	C	1.095089	0.702097	-0.408529
C75	C	1.009327	0.702096	-0.442106
C76	C	0.928554	0.702093	-0.408524
C77	C	0.933549	0.702093	-0.341370
C78	C	0.985465	0.702089	-0.642943
C79	C	0.980474	0.702092	-0.710103
C80	C	1.147012	0.702094	-0.710102
C81	C	1.151995	0.702100	-0.642951
C82	C	1.071226	0.702092	-0.609372
N83	N	1.004223	0.702092	-0.510747
N84	N	1.076335	0.702089	-0.540728
C85	C	1.055930	0.702094	0.184849
C86	C	1.061243	0.702092	0.256321
C87	C	1.331304	0.491509	-0.018009
C88	C	1.430076	0.420038	-0.015385
C89	C	1.045438	0.491509	0.192575
C90	C	1.047190	0.420037	0.266669
C91	C	1.346958	0.491505	0.192580
C92	C	1.451043	0.420032	0.266676
C93	C	0.733595	0.912690	-0.244061
C94	C	0.629510	0.984163	-0.318157
C95	C	0.749249	0.912686	-0.033472
C96	C	0.650477	0.984158	-0.036096
C97	C	1.035115	0.912687	-0.244055
C98	C	1.033363	0.984159	-0.318149
C99	C	1.414526	0.386475	-0.055282
C100	C	1.507323	0.319329	-0.052833
C101	C	1.615669	0.285742	-0.010481
C102	C	1.631218	0.319311	0.029418
C103	C	1.538422	0.386461	0.026963
C104	C	1.109947	0.386472	0.342594
C105	C	1.111590	0.319325	0.412219
C106	C	1.050481	0.285741	0.405918
C107	C	0.987716	0.319313	0.329985
C108	C	0.986067	0.386463	0.260361
C109	C	1.555753	0.386468	0.260352
C110	C	1.653561	0.319321	0.329966
C111	C	1.646656	0.285734	0.405904
C112	C	1.541934	0.319305	0.412227
C113	C	1.444129	0.386456	0.342613
C114	C	0.524800	1.017736	-0.311833
C115	C	0.426993	1.084904	-0.381448
C116	C	0.433899	1.118494	-0.457386
C117	C	0.538620	1.084918	-0.463708
C118	C	0.636425	1.017756	-0.394094
C119	C	0.666027	1.017728	0.003795
C120	C	0.573229	1.084892	0.001326
C121	C	0.464883	1.118481	-0.041029
C122	C	0.449334	1.084909	-0.080924
C123	C	0.542130	1.017750	-0.078460
C124	C	1.094485	1.017721	-0.311822
C125	C	1.092861	1.084868	-0.381434
C126	C	1.030108	1.118455	-0.457374
C127	C	0.968985	1.084886	-0.463699
C128	C	0.970616	1.017736	-0.394087
H129	H	1.127181	0.413803	-0.089776
H130	H	0.341735	1.112230	-0.376284
H131	H	0.937962	0.291959	0.324866
H132	H	1.494641	0.292005	-0.085323
Br133	Br	1.778268	0.273717	0.086895
Br134	Br	0.900892	0.432004	0.157322
H135	H	0.754240	0.990384	0.038290
Br136	Br	1.192898	0.432030	0.351169
H137	H	0.436521	0.702128	-0.247579
H138	H	1.358873	0.413776	0.347774
Br139	Br	0.515397	0.972162	-0.208783
Br140	Br	1.179658	0.972154	-0.208770
Br141	Br	1.267495	0.432045	-0.112769
Br142	Br	0.887377	0.273727	0.086940
Br143	Br	0.594357	1.130438	0.055476
H144	H	1.726304	0.231056	0.462582
H145	H	0.389332	1.173166	-0.043029
Br146	Br	0.875851	0.702081	-0.597377
Br147	Br	0.778527	0.972197	-0.402691
Br148	Br	0.301151	1.209644	-0.551856
Br149	Br	0.634705	0.702134	-0.279163
H150	H	1.691220	0.231064	-0.008488
Br151	Br	0.302284	1.130502	-0.138400
Br152	Br	1.532582	0.273715	0.515292
Br153	Br	0.547972	1.130512	-0.566774
Br154	Br	1.175816	1.130416	-0.372831
Br155	Br	0.521006	0.972196	-0.132598
H156	H	1.551099	0.413779	0.059458
H157	H	0.723384	0.702086	0.090569
H158	H	1.028789	1.173133	-0.514050
Br159	Br	0.883815	1.130486	-0.566767
H160	H	0.920838	0.990417	-0.399250
H161	H	1.162704	0.291999	0.474041
H162	H	0.469599	0.702051	0.196114
Br163	Br	1.565156	0.432039	0.157302
Br164	Br	1.795667	0.273772	0.321367
H165	H	1.051832	0.231064	0.462616
H166	H	0.644039	0.702056	0.196111
Br167	Br	1.204708	0.702093	-0.454096
Br168	Br	1.150486	0.273758	-0.106966
H169	H	1.155909	-0.009610	-0.110930
Br170	Br	1.193187	0.130460	-0.138409
Br171	Br	0.922143	-0.027832	0.061282
H172	H	1.169912	0.702110	-0.314046
Br173	Br	0.930063	0.130432	0.055491
H174	H	1.212771	0.702099	-0.737448
Br175	Br	0.895256	0.432028	0.081115
H176	H	0.357172	0.702101	-0.142049
H177	H	0.706035	0.702127	-0.142081
H178	H	1.221830	0.702101	-0.615613
Br179	Br	0.322322	0.702061	0.090608
H180	H	0.910631	0.702092	-0.737439
Br181	Br	0.812165	0.702082	-0.454085
Br182	Br	0.823935	0.702084	-0.295798
