data_functionalizedCrystal
_audit_creation_method	'MofGen! by Chris Wilmer'
_symmetry_space_group_name_H-M	'P1'
_symmetry_Int_Tables_number	1
_symmetry_cell_setting	triclinic
loop_
_symmetry_equiv_pos_as_xyz
  x,y,z
_cell_length_a	16.959455
_cell_length_b	19.121063
_cell_length_c	16.959447
_cell_angle_alpha	92.406654
_cell_angle_beta	89.983056
_cell_angle_gamma	92.465894
loop_
_atom_site_label
_atom_site_type_symbol
_atom_site_fract_x
_atom_site_fract_y
_atom_site_fract_z
Zn1	Zn	1.194936	-0.279656	-0.460312
Zn2	Zn	1.694936	0.220344	0.039688
Zn3	Zn	1.189196	-0.397116	-0.333763
Zn4	Zn	1.689196	0.102884	0.166237
Zn5	Zn	1.062757	-0.279678	-0.328150
Zn6	Zn	1.562757	0.220322	0.171850
Zn7	Zn	1.057075	-0.397064	-0.465899
Zn8	Zn	1.557075	0.102936	0.034101
O9	O	1.125991	-0.338378	-0.397031
O10	O	1.625991	0.161622	0.102969
O11	O	1.304785	-0.295250	-0.443535
O12	O	1.804785	0.204750	0.056465
O13	O	1.172399	-0.381569	-0.222409
O14	O	1.672399	0.118431	0.277591
O15	O	1.085072	-0.181391	-0.340995
O16	O	1.585072	0.318609	0.159005
O17	O	1.300567	-0.381548	-0.350560
O18	O	1.800567	0.118452	0.149440
O19	O	1.182183	-0.181374	-0.438093
O20	O	1.682183	0.318626	0.061907
O21	O	1.079505	-0.295288	-0.218285
O22	O	1.579505	0.204712	0.281715
O23	O	0.951393	-0.295237	-0.346412
O24	O	1.451393	0.204763	0.153588
O25	O	1.075387	-0.381458	-0.575767
O26	O	1.575387	0.118542	-0.075767
O27	O	0.947218	-0.381480	-0.447615
O28	O	1.447218	0.118520	0.052385
O29	O	1.176673	-0.295199	-0.571662
O30	O	1.676673	0.204801	-0.071662
O31	O	1.166889	-0.495394	-0.355978
O32	O	1.666889	0.004606	0.144022
O33	O	1.069820	-0.495355	-0.453058
O34	O	1.569820	0.004645	0.046942
C35	C	0.920626	-0.338355	-0.397012
C36	C	1.420626	0.161645	0.102988
C37	C	0.832769	-0.338362	-0.397023
C38	C	1.332769	0.161638	0.102977
C39	C	0.463444	-0.293435	-0.344438
C40	C	0.963444	0.206565	0.155562
C41	C	0.459138	-0.383380	-0.449671
C42	C	0.959138	0.116620	0.050329
C43	C	0.541685	-0.383370	-0.449666
C44	C	1.041685	0.116630	0.050334
C45	C	0.585114	-0.338392	-0.397045
C46	C	1.085114	0.161608	0.102955
C47	C	0.545998	-0.293425	-0.344430
C48	C	1.045998	0.206575	0.155570
C49	C	0.580807	-0.428341	-0.502275
C50	C	1.080807	0.071659	-0.002275
C51	C	0.663359	-0.428333	-0.502272
C52	C	1.163359	0.071667	-0.002272
C53	C	0.706790	-0.383352	-0.449654
C54	C	1.206790	0.116648	0.050346
C55	C	0.667668	-0.338382	-0.397037
C56	C	1.167668	0.161618	0.102963
C57	C	0.711098	-0.293405	-0.344416
C58	C	1.211098	0.206595	0.155584
C59	C	0.671978	-0.248431	-0.291802
C60	C	1.171978	0.251569	0.208198
C61	C	0.589429	-0.248443	-0.291812
C62	C	1.089429	0.251557	0.208188
C63	C	0.789339	-0.383340	-0.449644
C64	C	1.289339	0.116660	0.050356
C65	C	0.793652	-0.293395	-0.344407
C66	C	1.293652	0.206605	0.155593
C67	C	1.117136	-0.520858	-0.405750
C68	C	1.617136	-0.020858	0.094250
C69	C	1.113421	-0.598924	-0.409507
C70	C	1.613421	-0.098924	0.090493
C71	C	1.162253	-0.635596	-0.360769
C72	C	1.662253	-0.135596	0.139231
C73	C	1.158763	-0.708947	-0.364307
C74	C	1.658763	-0.208947	0.135693
C75	C	1.106437	-0.745625	-0.416579
C76	C	1.606437	-0.245625	0.083421
C77	C	1.057602	-0.708947	-0.465322
C78	C	1.557602	-0.208947	0.034678
C79	C	1.061097	-0.635598	-0.461787
C80	C	1.561097	-0.135598	0.038213
C81	C	1.093359	-0.967093	-0.429780
C82	C	1.593359	-0.467093	0.070220
C83	C	1.089867	-1.040448	-0.433309
C84	C	1.589867	-0.540448	0.066691
C85	C	1.191029	-1.040443	-0.332295
C86	C	1.691029	-0.540443	0.167705
C87	C	1.194515	-0.967092	-0.328762
C88	C	1.694515	-0.467092	0.171238
C89	C	1.145684	-0.930421	-0.377508
C90	C	1.645684	-0.430421	0.122492
C91	C	1.102866	-0.820601	-0.420194
C92	C	1.602866	-0.320601	0.079806
C93	C	1.149259	-0.855446	-0.373896
C94	C	1.649259	-0.355446	0.126104
C95	C	1.332158	-0.338402	-0.397051
C96	C	1.832158	0.161598	0.102949
C97	C	1.420014	-0.338412	-0.397059
C98	C	1.920014	0.161588	0.102941
C99	C	1.126036	-0.338320	-0.603196
C100	C	1.626036	0.161680	-0.103196
C101	C	1.126055	-0.338295	-0.691052
C102	C	1.626055	0.161705	-0.191052
C103	C	1.134901	-0.155186	-0.388295
C104	C	1.634901	0.344814	0.111705
C105	C	1.138699	-0.077120	-0.384572
C106	C	1.638699	0.422880	0.115428
C107	C	1.077763	-0.293298	-1.060383
C108	C	1.577763	0.206702	-0.560383
C109	C	1.174494	-0.383144	-1.064665
C110	C	1.674494	0.116856	-0.564665
C111	C	1.174479	-0.383160	-0.982120
C112	C	1.674479	0.116840	-0.482120
C113	C	1.126105	-0.338246	-0.938703
C114	C	1.626105	0.161754	-0.438703
C115	C	1.077745	-0.293315	-0.977831
C116	C	1.577745	0.206685	-0.477831
C117	C	1.222832	-0.428096	-0.942985
C118	C	1.722832	0.071904	-0.442985
C119	C	1.222819	-0.428115	-0.860435
C120	C	1.722819	0.071885	-0.360435
C121	C	1.174448	-0.383196	-0.817017
C122	C	1.674448	0.116804	-0.317017
C123	C	1.126087	-0.338262	-0.856150
C124	C	1.626087	0.161738	-0.356150
C125	C	1.077713	-0.293348	-0.812733
C126	C	1.577713	0.206652	-0.312733
C127	C	1.029356	-0.248410	-0.851864
C128	C	1.529356	0.251590	-0.351864
C129	C	1.029375	-0.248396	-0.934412
C130	C	1.529375	0.251604	-0.434412
C131	C	1.174430	-0.383210	-0.734469
C132	C	1.674430	0.116790	-0.234469
C133	C	1.077696	-0.293364	-0.730180
C134	C	1.577696	0.206636	-0.230180
C135	C	1.125994	-0.338386	-0.191665
C136	C	1.625994	0.161614	0.308335
C137	C	1.126137	-0.338213	-0.103800
C138	C	1.626137	0.161787	0.396200
H139	H	0.423773	-0.420002	-0.492509
H140	H	0.923773	0.079998	0.007491
Cl141	Cl	1.235296	-0.439611	-1.119247
Cl142	Cl	1.735296	0.060389	-0.619247
Cl143	Cl	0.526206	-0.484902	-0.568399
Cl144	Cl	1.026206	0.015098	-0.068399
Cl145	Cl	1.283633	-0.484563	-0.997570
Cl146	Cl	1.783633	0.015437	-0.497570
H147	H	0.989966	-0.211843	-0.816503
H148	H	1.489966	0.288157	-0.316503
H149	H	1.204859	-0.605738	-0.318201
H150	H	1.704859	-0.105738	0.181799
Cl151	Cl	0.999708	-0.589495	-0.523063
Cl152	Cl	1.499708	-0.089495	-0.023063
Cl153	Cl	1.260311	-0.920988	-0.263058
Cl154	Cl	1.760311	-0.420988	0.236942
H155	H	1.262194	-0.464706	-0.828582
H156	H	1.762194	0.035294	-0.328582
Cl157	Cl	1.235210	-0.439703	-0.685279
Cl158	Cl	1.735210	0.060297	-0.185279
Cl159	Cl	1.024069	-1.086556	-0.499017
Cl160	Cl	1.524069	-0.586556	0.000983
H161	H	0.990004	-0.211811	-0.966280
H162	H	1.490004	0.288189	-0.466280
Cl163	Cl	1.016977	-0.236806	-1.109574
Cl164	Cl	1.516977	0.263194	-0.609574
Cl165	Cl	0.991825	-0.755056	-0.531040
Cl166	Cl	1.491825	-0.255056	-0.031040
H167	H	0.829007	-0.256764	-0.301561
H168	H	1.329007	0.243236	0.198439
Cl169	Cl	1.215041	-0.809336	-0.308188
Cl170	Cl	1.715041	-0.309336	0.191812
Cl171	Cl	0.726585	-0.191895	-0.225648
Cl172	Cl	1.226585	0.308105	0.274352
Cl173	Cl	1.037086	-0.866716	-0.485905
Cl174	Cl	1.537086	-0.366716	0.014095
H175	H	0.557570	-0.211829	-0.248975
H176	H	1.057570	0.288171	0.251025
Cl177	Cl	0.414267	-0.236896	-0.278302
Cl178	Cl	0.914267	0.263104	0.221698
H179	H	0.695203	-0.464953	-0.545114
H180	H	1.195203	0.035047	-0.045114
Cl181	Cl	1.016883	-0.236892	-0.675605
Cl182	Cl	1.516883	0.263108	-0.175605
H183	H	1.198527	-0.738802	-0.324619
H184	H	1.698527	-0.238802	0.175381
H185	H	0.821187	-0.419959	-0.492479
H186	H	1.321187	0.080041	0.007521
H187	H	1.053597	-0.937241	-0.469470
H188	H	1.553597	-0.437241	0.030530
Cl189	Cl	1.252417	-1.086548	-0.271024
Cl190	Cl	1.752417	-0.586548	0.228976
