data_functionalizedCrystal
_audit_creation_method	'MofGen! by Chris Wilmer'
_symmetry_space_group_name_H-M	'P1'
_symmetry_Int_Tables_number	1
_symmetry_cell_setting	triclinic
loop_
_symmetry_equiv_pos_as_xyz
  x,y,z
_cell_length_a	19.805407
_cell_length_b	19.121063
_cell_length_c	19.805399
_cell_angle_alpha	92.411105
_cell_angle_beta	89.980427
_cell_angle_gamma	92.469032
loop_
_atom_site_label
_atom_site_type_symbol
_atom_site_fract_x
_atom_site_fract_y
_atom_site_fract_z
Zn1	Zn	1.023234	-0.279631	-0.394203
Zn2	Zn	1.273234	-0.029631	-0.144203
Zn3	Zn	1.523234	0.220369	0.105797
Zn4	Zn	1.773234	0.470369	0.355797
Zn5	Zn	1.018317	-0.397083	-0.285838
Zn6	Zn	1.268317	-0.147083	-0.035838
Zn7	Zn	1.518317	0.102917	0.214162
Zn8	Zn	1.768317	0.352917	0.464162
Zn9	Zn	0.910048	-0.279650	-0.281028
Zn10	Zn	1.160048	-0.029650	-0.031028
Zn11	Zn	1.410048	0.220350	0.218972
Zn12	Zn	1.660048	0.470350	0.468972
Zn13	Zn	0.905182	-0.397046	-0.398983
Zn14	Zn	1.155182	-0.147046	-0.148983
Zn15	Zn	1.405182	0.102954	0.101017
Zn16	Zn	1.655182	0.352954	0.351017
O17	O	0.964195	-0.338352	-0.340013
O18	O	1.214195	-0.088352	-0.090013
O19	O	1.464195	0.161648	0.159987
O20	O	1.714195	0.411648	0.409987
O21	O	1.117298	-0.295218	-0.379840
O22	O	1.367298	-0.045218	-0.129840
O23	O	1.617298	0.204782	0.120160
O24	O	1.867298	0.454782	0.370160
O25	O	1.003934	-0.381529	-0.190484
O26	O	1.253934	-0.131529	0.059516
O27	O	1.503934	0.118471	0.309516
O28	O	1.753934	0.368471	0.559516
O29	O	0.929156	-0.181363	-0.292028
O30	O	1.179156	0.068637	-0.042028
O31	O	1.429156	0.318637	0.207972
O32	O	1.679156	0.568637	0.457972
O33	O	1.113686	-0.381510	-0.300225
O34	O	1.363686	-0.131510	-0.050225
O35	O	1.613686	0.118490	0.199775
O36	O	1.863686	0.368490	0.449775
O37	O	1.012313	-0.181348	-0.375177
O38	O	1.262313	0.068652	-0.125177
O39	O	1.512313	0.318652	0.124823
O40	O	1.762313	0.568652	0.374823
O41	O	0.924388	-0.295251	-0.186951
O42	O	1.174388	-0.045251	0.063049
O43	O	1.424388	0.204749	0.313049
O44	O	1.674388	0.454749	0.563049
O45	O	0.814686	-0.295215	-0.296663
O46	O	1.064686	-0.045215	-0.046663
O47	O	1.314686	0.204785	0.203337
O48	O	1.564686	0.454785	0.453337
O49	O	0.920863	-0.381447	-0.493065
O50	O	1.170863	-0.131447	-0.243065
O51	O	1.420863	0.118553	0.006935
O52	O	1.670863	0.368553	0.256935
O53	O	0.811111	-0.381465	-0.383324
O54	O	1.061111	-0.131465	-0.133324
O55	O	1.311111	0.118535	0.116676
O56	O	1.561111	0.368535	0.366676
O57	O	1.007595	-0.295182	-0.489553
O58	O	1.257595	-0.045182	-0.239553
O59	O	1.507595	0.204818	0.010447
O60	O	1.757595	0.454818	0.260447
O61	O	0.999216	-0.495363	-0.304860
O62	O	1.249216	-0.245363	-0.054860
O63	O	1.499216	0.004637	0.195140
O64	O	1.749216	0.254637	0.445140
O65	O	0.916096	-0.495335	-0.387987
O66	O	1.166096	-0.245335	-0.137987
O67	O	1.416096	0.004665	0.112013
O68	O	1.666096	0.254665	0.362013
C69	C	0.788340	-0.338339	-0.339991
C70	C	1.038340	-0.088339	-0.089991
C71	C	1.288340	0.161661	0.160009
C72	C	1.538340	0.411661	0.410009
C73	C	0.713107	-0.338350	-0.339998
C74	C	0.963107	-0.088350	-0.089998
C75	C	1.213107	0.161650	0.160002
C76	C	1.463107	0.411650	0.410002
C77	C	0.675917	-0.383328	-0.385055
C78	C	0.925917	-0.133328	-0.135055
C79	C	1.175917	0.116672	0.114945
C80	C	1.425917	0.366672	0.364945
C81	C	0.605228	-0.383329	-0.385064
C82	C	0.855228	-0.133329	-0.135064
C83	C	1.105228	0.116671	0.114936
C84	C	1.355228	0.366671	0.364936
C85	C	0.571732	-0.338356	-0.340013
C86	C	0.821732	-0.088356	-0.090013
C87	C	1.071732	0.161644	0.159987
C88	C	1.321732	0.411644	0.409987
C89	C	0.608927	-0.293373	-0.294954
C90	C	0.858927	-0.043373	-0.044954
C91	C	1.108927	0.206627	0.205046
C92	C	1.358927	0.456627	0.455046
C93	C	0.679614	-0.293368	-0.294948
C94	C	0.929614	-0.043368	-0.044948
C95	C	1.179614	0.206632	0.205052
C96	C	1.429614	0.456632	0.455052
C97	C	0.323853	-0.293388	-0.294977
C98	C	0.573853	-0.043388	-0.044977
C99	C	0.823853	0.206612	0.205023
C100	C	1.073853	0.456612	0.455023
C101	C	0.253161	-0.293397	-0.294985
C102	C	0.503161	-0.043397	-0.044985
C103	C	0.753161	0.206603	0.205015
C104	C	1.003161	0.456603	0.455015
C105	C	0.249467	-0.383349	-0.385093
C106	C	0.499467	-0.133349	-0.135093
C107	C	0.749467	0.116651	0.114907
C108	C	0.999467	0.366651	0.364907
C109	C	0.320154	-0.383345	-0.385087
C110	C	0.570154	-0.133345	-0.135087
C111	C	0.820154	0.116655	0.114913
C112	C	1.070154	0.366655	0.364913
C113	C	0.357344	-0.338360	-0.340031
C114	C	0.607344	-0.088360	-0.090031
C115	C	0.857344	0.161640	0.159969
C116	C	1.107344	0.411640	0.409969
C117	C	0.433992	-0.338358	-0.340022
C118	C	0.683992	-0.088358	-0.090022
C119	C	0.933992	0.161642	0.159978
C120	C	1.183992	0.411642	0.409978
C121	C	0.495084	-0.338360	-0.340018
C122	C	0.745084	-0.088360	-0.090018
C123	C	0.995084	0.161640	0.159982
C124	C	1.245084	0.411640	0.409982
C125	C	0.956613	-0.520833	-0.347479
C126	C	1.206613	-0.270833	-0.097479
C127	C	1.456613	-0.020833	0.152521
C128	C	1.706613	0.229167	0.402521
C129	C	0.953431	-0.598899	-0.350696
C130	C	1.203431	-0.348899	-0.100696
C131	C	1.453431	-0.098899	0.149304
C132	C	1.703431	0.151101	0.399304
C133	C	0.995246	-0.635566	-0.308963
C134	C	1.245246	-0.385566	-0.058963
C135	C	1.495246	-0.135566	0.191037
C136	C	1.745246	0.114434	0.441037
C137	C	0.992258	-0.708917	-0.311992
C138	C	1.242258	-0.458917	-0.061992
C139	C	1.492258	-0.208917	0.188008
C140	C	1.742258	0.041083	0.438008
C141	C	0.947451	-0.745601	-0.356752
C142	C	1.197451	-0.495601	-0.106752
C143	C	1.447451	-0.245601	0.143248
C144	C	1.697451	0.004399	0.393248
C145	C	0.905634	-0.708929	-0.398489
C146	C	1.155634	-0.458929	-0.148489
C147	C	1.405634	-0.208929	0.101511
C148	C	1.655634	0.041071	0.351511
C149	C	0.908626	-0.635579	-0.395463
C150	C	1.158626	-0.385579	-0.145463
C151	C	1.408626	-0.135579	0.104537
C152	C	1.658626	0.114421	0.354537
C153	C	0.936252	-0.967071	-0.368056
C154	C	1.186252	-0.717071	-0.118056
C155	C	1.436252	-0.467071	0.131944
C156	C	1.686252	-0.217071	0.381944
C157	C	0.933262	-1.040426	-0.371078
C158	C	1.183262	-0.790426	-0.121078
C159	C	1.433262	-0.540426	0.128922
C160	C	1.683262	-0.290426	0.378922
C161	C	1.019887	-1.040409	-0.284581
C162	C	1.269887	-0.790409	-0.034581
C163	C	1.519887	-0.540409	0.215419
C164	C	1.769887	-0.290409	0.465419
C165	C	1.022872	-0.967058	-0.281556
C166	C	1.272872	-0.717058	-0.031556
C167	C	1.522872	-0.467058	0.218444
C168	C	1.772872	-0.217058	0.468444
C169	C	0.981058	-0.930393	-0.323296
C170	C	1.231058	-0.680393	-0.073296
C171	C	1.481058	-0.430393	0.176704
C172	C	1.731058	-0.180393	0.426704
C173	C	0.944394	-0.820578	-0.359848
C174	C	1.194394	-0.570578	-0.109848
C175	C	1.444394	-0.320578	0.140152
C176	C	1.694394	-0.070578	0.390152
C177	C	0.984119	-0.855417	-0.320203
C178	C	1.234119	-0.605417	-0.070203
C179	C	1.484119	-0.355417	0.179797
C180	C	1.734119	-0.105417	0.429797
C181	C	1.140737	-0.338366	-0.340036
C182	C	1.390737	-0.088366	-0.090036
C183	C	1.640737	0.161634	0.159964
C184	C	1.890737	0.411634	0.409964
C185	C	1.215969	-0.338372	-0.340046
C186	C	1.465969	-0.088372	-0.090046
C187	C	1.715969	0.161628	0.159954
C188	C	1.965969	0.411628	0.409954
C189	C	0.964235	-0.338308	-0.516554
C190	C	1.214235	-0.088308	-0.266554
C191	C	1.464235	0.161692	-0.016554
C192	C	1.714235	0.411692	0.233446
C193	C	0.964252	-0.338289	-0.591785
C194	C	1.214252	-0.088289	-0.341785
C195	C	1.464252	0.161711	-0.091785
C196	C	1.714252	0.411711	0.158215
C197	C	0.971825	-0.155159	-0.332532
C198	C	1.221825	0.094841	-0.082532
C199	C	1.471825	0.344841	0.167468
C200	C	1.721825	0.594841	0.417468
C201	C	0.975077	-0.077093	-0.329345
C202	C	1.225077	0.172907	-0.079345
C203	C	1.475077	0.422907	0.170655
C204	C	1.725077	0.672907	0.420655
C205	C	1.009414	-0.293369	-0.625302
C206	C	1.259414	-0.043369	-0.375302
C207	C	1.509414	0.206631	-0.125302
C208	C	1.759414	0.456631	0.124698
C209	C	1.009422	-0.293349	-0.695989
C210	C	1.259422	-0.043349	-0.445989
C211	C	1.509422	0.206651	-0.195989
C212	C	1.759422	0.456651	0.054011
C213	C	0.964270	-0.338253	-0.733159
C214	C	1.214270	-0.088253	-0.483159
C215	C	1.464270	0.161747	-0.233159
C216	C	1.714270	0.411747	0.016841
C217	C	0.919103	-0.383175	-0.699638
C218	C	1.169103	-0.133175	-0.449638
C219	C	1.419103	0.116825	-0.199638
C220	C	1.669103	0.366825	0.050362
C221	C	0.919093	-0.383191	-0.628952
C222	C	1.169093	-0.133191	-0.378952
C223	C	1.419093	0.116809	-0.128952
C224	C	1.669093	0.366809	0.121048
C225	C	0.919144	-0.383109	-0.984709
C226	C	1.169144	-0.133109	-0.734709
C227	C	1.419144	0.116891	-0.484709
C228	C	1.669144	0.366891	-0.234709
C229	C	0.919159	-0.383091	-1.055400
C230	C	1.169159	-0.133091	-0.805400
C231	C	1.419159	0.116909	-0.555400
C232	C	1.669159	0.366909	-0.305400
C233	C	1.009474	-0.293267	-1.051747
C234	C	1.259474	-0.043267	-0.801747
C235	C	1.509474	0.206733	-0.551747
C236	C	1.759474	0.456733	-0.301747
C237	C	1.009463	-0.293283	-0.981060
C238	C	1.259463	-0.043283	-0.731060
C239	C	1.509463	0.206717	-0.481060
C240	C	1.759463	0.456717	-0.231060
C241	C	0.964294	-0.338202	-0.947545
C242	C	1.214294	-0.088202	-0.697545
C243	C	1.464294	0.161798	-0.447545
C244	C	1.714294	0.411798	-0.197545
C245	C	0.964285	-0.338223	-0.870897
C246	C	1.214285	-0.088223	-0.620897
C247	C	1.464285	0.161777	-0.370897
C248	C	1.714285	0.411777	-0.120897
C249	C	0.964282	-0.338236	-0.809806
C250	C	1.214282	-0.088236	-0.559806
C251	C	1.464282	0.161764	-0.309806
C252	C	1.714282	0.411764	-0.059806
C253	C	0.964197	-0.338346	-0.164157
C254	C	1.214197	-0.088346	0.085843
C255	C	1.464197	0.161654	0.335843
C256	C	1.714197	0.411654	0.585843
C257	C	0.964319	-0.338167	-0.088918
C258	C	1.214319	-0.088167	0.161082
C259	C	1.464319	0.161833	0.411082
C260	C	1.714319	0.411833	0.661082
H261	H	0.581649	-0.256751	-0.258275
H262	H	0.831649	-0.006751	-0.008275
H263	H	1.081649	0.243249	0.241725
H264	H	1.331649	0.493249	0.491725
Br265	Br	0.554758	-0.444372	-0.446218
Br266	Br	0.804758	-0.194372	-0.196218
Br267	Br	1.054758	0.055628	0.053782
Br268	Br	1.304758	0.305628	0.303782
H269	H	0.869154	-0.738803	-0.434936
H270	H	1.119154	-0.488803	-0.184936
H271	H	1.369154	-0.238803	0.065064
H272	H	1.619154	0.011197	0.315064
H273	H	0.874577	-0.605726	-0.429447
H274	H	1.124577	-0.355726	-0.179447
H275	H	1.374577	-0.105726	0.070553
H276	H	1.624577	0.144274	0.320553
Br277	Br	0.198992	-0.444403	-0.446241
Br278	Br	0.448992	-0.194403	-0.196241
Br279	Br	0.698992	0.055597	0.053759
Br280	Br	0.948992	0.305597	0.303759
H281	H	0.347424	-0.419970	-0.421771
H282	H	0.597424	-0.169970	-0.171771
H283	H	0.847424	0.080030	0.078229
H284	H	1.097424	0.330030	0.328229
H285	H	0.882337	-0.419734	-0.729907
H286	H	1.132337	-0.169734	-0.479907
H287	H	1.382337	0.080266	-0.229907
H288	H	1.632337	0.330266	0.020093
H289	H	0.709894	-0.256739	-0.258261
H290	H	0.959894	-0.006739	-0.008261
H291	H	1.209894	0.243261	0.241739
H292	H	1.459894	0.493261	0.491739
H293	H	0.882374	-0.419695	-0.957430
H294	H	1.132374	-0.169695	-0.707430
H295	H	1.382374	0.080305	-0.457430
H296	H	1.632374	0.330305	-0.207430
Br297	Br	1.070747	-0.232416	-0.741475
Br298	Br	1.320747	0.017584	-0.491475
Br299	Br	1.570747	0.267584	-0.241475
Br300	Br	1.820747	0.517584	0.008525
Br301	Br	0.207701	-0.232358	-0.233839
Br302	Br	0.457701	0.017642	0.016161
Br303	Br	0.707701	0.267642	0.266161
Br304	Br	0.957701	0.517642	0.516161
Br305	Br	1.070700	-0.232430	-0.574863
Br306	Br	1.320700	0.017570	-0.324863
Br307	Br	1.570700	0.267570	-0.074863
Br308	Br	1.820700	0.517570	0.175137
Br309	Br	1.070746	-0.232344	-0.930618
Br310	Br	1.320746	0.017656	-0.680618
Br311	Br	1.570746	0.267656	-0.430618
Br312	Br	1.820746	0.517656	-0.180618
Br313	Br	1.070775	-0.232303	-1.097235
Br314	Br	1.320775	0.017697	-0.847235
Br315	Br	1.570775	0.267697	-0.597235
Br316	Br	1.820775	0.517697	-0.347235
Br317	Br	1.076635	-1.090173	-0.227941
Br318	Br	1.326635	-0.840173	0.022059
Br319	Br	1.576635	-0.590173	0.272059
Br320	Br	1.826635	-0.340173	0.522059
H321	H	0.354124	-0.256764	-0.258284
H322	H	0.604124	-0.006764	-0.008284
H323	H	0.854124	0.243236	0.241716
H324	H	1.104124	0.493236	0.491716
Br325	Br	1.056053	-0.585788	-0.248209
Br326	Br	1.306053	-0.335788	0.001791
Br327	Br	1.556053	-0.085788	0.251791
Br328	Br	1.806053	0.164212	0.501791
H329	H	0.882310	-0.419762	-0.601663
H330	H	1.132310	-0.169762	-0.351663
H331	H	1.382310	0.080238	-0.101663
H332	H	1.632310	0.330238	0.148337
H333	H	1.026308	-0.738768	-0.278008
H334	H	1.276308	-0.488768	-0.028008
H335	H	1.526308	-0.238768	0.221992
H336	H	1.776308	0.011232	0.471992
H337	H	0.896783	-1.070292	-0.407538
H338	H	1.146783	-0.820292	-0.157538
H339	H	1.396783	-0.570292	0.092462
H340	H	1.646783	-0.320292	0.342462
H341	H	1.059358	-0.937192	-0.245110
H342	H	1.309358	-0.687192	0.004890
H343	H	1.559358	-0.437192	0.254890
H344	H	1.809358	-0.187192	0.504890
H345	H	0.703185	-0.419953	-0.421739
H346	H	0.953185	-0.169953	-0.171739
H347	H	1.203185	0.080047	0.078261
H348	H	1.453185	0.330047	0.328261
Br349	Br	1.044932	-0.805632	-0.259465
Br350	Br	1.294932	-0.555632	-0.009465
Br351	Br	1.544932	-0.305632	0.240535
Br352	Br	1.794932	-0.055632	0.490535
Br353	Br	0.857879	-0.444037	-1.105846
Br354	Br	1.107879	-0.194037	-0.855846
Br355	Br	1.357879	0.055963	-0.605846
Br356	Br	1.607879	0.305963	-0.355846
Br357	Br	0.879505	-0.917320	-0.424703
Br358	Br	1.129505	-0.667320	-0.174703
Br359	Br	1.379505	-0.417320	0.075297
Br360	Br	1.629505	-0.167320	0.325297
H361	H	0.907910	-0.850454	-0.396289
H362	H	1.157910	-0.600454	-0.146289
H363	H	1.407910	-0.350454	0.103711
H364	H	1.657910	-0.100454	0.353711
