data_functionalizedCrystal
_audit_creation_method	'MofGen! by Chris Wilmer'
_symmetry_space_group_name_H-M	'P1'
_symmetry_Int_Tables_number	1
_symmetry_cell_setting	triclinic
loop_
_symmetry_equiv_pos_as_xyz
  x,y,z
_cell_length_a	10.654550
_cell_length_b	14.044220
_cell_length_c	9.130313
_cell_angle_alpha	89.997493
_cell_angle_beta	89.996220
_cell_angle_gamma	88.836890
loop_
_atom_site_label
_atom_site_type_symbol
_atom_site_fract_x
_atom_site_fract_y
_atom_site_fract_z
O1	O	1.681222	0.133227	-0.121925
O2	O	1.317019	0.145921	-0.121902
O3	O	1.493654	0.001554	-0.121899
O4	O	1.504587	0.277595	-0.121929
O5	O	1.493652	0.001557	0.121700
O6	O	1.317017	0.145925	0.121696
O7	O	1.681220	0.133231	0.121673
Cu8	Cu	1.499119	0.139578	0.143927
Cu9	Cu	1.499121	0.139574	-0.144156
O10	O	1.504585	0.277598	0.121670
C11	C	1.270127	0.144991	-0.000100
C12	C	1.130403	0.142202	-0.000091
C13	C	1.059459	0.227203	-0.000121
C14	C	0.928175	0.224578	-0.000146
C15	C	0.938790	0.051942	-0.000116
C16	C	1.070072	0.054569	-0.000081
C17	C	1.119790	0.314837	-0.000131
C18	C	1.048846	0.399845	-0.000163
C19	C	0.917561	0.397219	-0.000188
C20	C	0.857221	0.309585	-0.000181
C21	C	1.488867	-0.033790	-0.000099
C22	C	1.474592	-0.139110	-0.000096
C23	C	1.448493	-0.331943	-0.000116
C24	C	1.549741	-0.388911	-0.000126
C25	C	1.535219	-0.496210	-0.000137
C26	C	1.463013	-0.224634	-0.000105
C27	C	1.728113	0.134161	-0.000132
C28	C	1.867836	0.136950	-0.000151
C29	C	1.509372	0.312942	-0.000133
C30	C	1.523648	0.418262	-0.000146
N31	N	1.499126	0.139581	0.346550
N32	N	1.499122	0.139564	-0.346779
C33	C	1.577364	0.075677	0.423203
C34	C	1.577359	0.075666	0.576540
C35	C	1.420876	0.203470	0.576557
C36	C	1.420875	0.203477	0.423223
C37	C	1.655615	0.011782	0.346531
C38	C	1.733861	-0.052127	0.423184
C39	C	1.733856	-0.052138	0.576521
C40	C	1.655606	0.011759	0.653204
H41	H	1.097984	0.471193	-0.000156
H42	H	1.797562	-0.104155	0.360741
C43	C	0.840754	0.489612	-0.000291
C44	C	0.921695	0.566915	-0.000328
C45	C	0.850989	0.652045	-0.000449
H46	H	0.789288	0.492318	0.084622
H47	H	0.789364	0.492224	-0.085286
H48	H	0.973064	0.564305	0.084659
H49	H	0.973162	0.564240	-0.085234
H50	H	0.799598	0.654656	-0.085444
H51	H	0.799525	0.654741	0.084465
H52	H	0.905896	0.704504	-0.000488
H53	H	1.350913	-0.363754	-0.000113
C54	C	0.873048	-0.043103	-0.000199
C55	C	0.742892	-0.027209	-0.000279
C56	C	0.682293	-0.114743	-0.000381
H57	H	0.896571	-0.078213	0.084735
H58	H	0.896695	-0.078148	-0.085173
H59	H	0.719255	0.007820	0.084686
H60	H	0.719333	0.007886	-0.085207
H61	H	0.705940	-0.149788	-0.085355
H62	H	0.705825	-0.149847	0.084554
H63	H	0.593976	-0.103972	-0.000449
H64	H	1.797557	-0.104181	0.638931
C65	C	1.335717	0.272733	0.659734
C66	C	1.210496	0.256466	0.622480
C67	C	1.132013	0.320247	0.699087
H68	H	1.356283	0.336181	0.634670
H69	H	1.346840	0.263572	0.762046
H70	H	1.199378	0.265636	0.520191
H71	H	1.189891	0.193031	0.647547
H72	H	1.143136	0.311085	0.801399
H73	H	1.152590	0.383690	0.674017
H74	H	1.047041	0.309212	0.673831
C75	C	1.336098	0.273013	0.340062
C76	C	1.366931	0.366373	0.377322
C77	C	1.288868	0.430452	0.300727
H78	H	1.251029	0.262249	0.365130
H79	H	1.347319	0.263925	0.237748
H80	H	1.355699	0.375457	0.479613
H81	H	1.451987	0.377167	0.352250
H82	H	1.300089	0.421364	0.198413
H83	H	1.203803	0.419680	0.325801
H84	H	1.309785	0.493804	0.325987
H85	H	1.226688	0.316985	-0.000117
H86	H	0.750320	0.307454	-0.000179
H87	H	1.127836	-0.014647	-0.000060
H88	H	1.647328	-0.357098	-0.000231
H89	H	1.655629	0.011787	0.221676
H90	H	1.655600	0.011738	0.778062
