data_functionalizedCrystal
_audit_creation_method	'MofGen! by Chris Wilmer'
_symmetry_space_group_name_H-M	'P1'
_symmetry_Int_Tables_number	1
_symmetry_cell_setting	triclinic
loop_
_symmetry_equiv_pos_as_xyz
  x,y,z
_cell_length_a	19.077236
_cell_length_b	17.639999
_cell_length_c	19.076919
_cell_angle_alpha	98.510009
_cell_angle_beta	89.887323
_cell_angle_gamma	99.390170
loop_
_atom_site_label
_atom_site_type_symbol
_atom_site_fract_x
_atom_site_fract_y
_atom_site_fract_z
Zn1	Zn	1.111104	0.282338	-0.391901
Zn2	Zn	1.611104	0.782338	0.108099
Zn3	Zn	1.139059	0.406983	-0.252921
Zn4	Zn	1.639059	0.906983	0.247079
Zn5	Zn	0.998243	0.281930	-0.269752
Zn6	Zn	1.498243	0.781930	0.230248
Zn7	Zn	1.018820	0.417360	-0.363872
Zn8	Zn	1.518820	0.917360	0.136128
O9	O	1.066807	0.347153	-0.319611
O10	O	1.566807	0.847153	0.180389
O11	O	1.212366	0.294700	-0.378152
O12	O	1.712366	0.794700	0.121848
O13	O	1.123468	0.385882	-0.157600
O14	O	1.623468	0.885882	0.342400
O15	O	0.992904	0.173142	-0.304729
O16	O	1.492904	0.673142	0.195271
O17	O	1.232904	0.386277	-0.276044
O18	O	1.732904	0.886277	0.223956
O19	O	1.075822	0.173441	-0.394472
O20	O	1.575822	0.673441	0.105528
O21	O	1.020011	0.294005	-0.169966
O22	O	1.520011	0.794005	0.330034
O23	O	0.903419	0.304067	-0.277550
O24	O	1.403419	0.804067	0.222450
O25	O	1.027973	0.403962	-0.465143
O26	O	1.527973	0.903962	0.034857
O27	O	0.918537	0.403567	-0.346699
O28	O	1.418537	0.903567	0.153301
O29	O	1.095774	0.304762	-0.485736
O30	O	1.595774	0.804762	0.014264
O31	O	1.143420	0.517202	-0.248865
O32	O	1.643420	1.017202	0.251135
O33	O	1.055081	0.524826	-0.330380
O34	O	1.555081	1.024826	0.169620
C35	C	0.885684	0.354899	-0.310910
C36	C	1.385684	0.854899	0.189090
C37	C	0.808202	0.358233	-0.307200
C38	C	1.308202	0.858233	0.192800
C39	C	0.761120	0.312202	-0.358675
C40	C	1.261120	0.812202	0.141325
C41	C	0.688317	0.315330	-0.355184
C42	C	1.188317	0.815330	0.144816
C43	C	0.662597	0.364494	-0.300221
C44	C	1.162597	0.864494	0.199779
C45	C	0.709684	0.410526	-0.248742
C46	C	1.209684	0.910526	0.251258
C47	C	0.782485	0.407393	-0.252231
C48	C	1.282485	0.907393	0.247769
C49	C	0.446010	0.378963	-0.284079
C50	C	0.946010	0.878963	0.215921
C51	C	0.373203	0.382094	-0.280596
C52	C	0.873203	0.882094	0.219404
C53	C	0.351841	0.286896	-0.387037
C54	C	0.851841	0.786896	0.112963
C55	C	0.424645	0.283771	-0.390523
C56	C	0.924645	0.783771	0.109477
C57	C	0.471725	0.329801	-0.339042
C58	C	0.971725	0.829801	0.160958
N59	N	0.588181	0.367694	-0.296653
N60	N	1.088181	0.867694	0.203347
N61	N	0.546139	0.326596	-0.342608
N62	N	1.046139	0.826596	0.157392
C63	C	1.104535	0.549236	-0.284770
C64	C	1.604535	1.049236	0.215230
C65	C	1.120739	0.635686	-0.269891
C66	C	1.620739	1.135686	0.230109
C67	C	0.943880	0.939989	-0.432891
C68	C	1.443880	1.439989	0.067109
C69	C	0.959108	1.021221	-0.418888
C70	C	1.459108	1.521221	0.081112
C71	C	1.051148	1.013219	-0.334099
C72	C	1.551148	1.513219	0.165901
C73	C	1.035930	0.931985	-0.348097
C74	C	1.535930	1.431985	0.151903
C75	C	0.982295	0.895376	-0.397493
C76	C	1.482295	1.395376	0.102507
C77	C	1.074346	0.887372	-0.312700
C78	C	1.574346	1.387372	0.187300
C79	C	1.059126	0.806145	-0.326695
C80	C	1.559126	1.306145	0.173305
C81	C	1.005492	0.769530	-0.376087
C82	C	1.505492	1.269530	0.123913
C83	C	0.967076	0.814149	-0.411488
C84	C	1.467076	1.314149	0.088512
C85	C	1.127977	0.923982	-0.263301
C86	C	1.627977	1.423982	0.236699
C87	C	1.166393	0.879369	-0.227904
C88	C	1.666393	1.379369	0.272096
C89	C	1.151177	0.798140	-0.241902
C90	C	1.651177	1.298140	0.258098
C91	C	1.097543	0.761526	-0.291294
C92	C	1.597543	1.261526	0.208706
C93	C	1.189593	0.753521	-0.206501
C94	C	1.689593	1.253521	0.293499
C95	C	1.174374	0.672294	-0.220496
C96	C	1.674374	1.172294	0.279504
C97	C	1.082324	0.680299	-0.305289
C98	C	1.582324	1.180299	0.194711
C99	C	1.248637	0.339377	-0.328347
C100	C	1.748637	0.839377	0.171653
C101	C	1.326122	0.336063	-0.332070
C102	C	1.826122	0.836063	0.167930
C103	C	1.061051	0.355565	-0.501441
C104	C	1.561051	0.855565	-0.001441
C105	C	1.058598	0.359150	-0.578927
C106	C	1.558598	0.859150	-0.078927
C107	C	1.028927	1.144282	-0.354601
C108	C	1.528927	1.644282	0.145399
C109	C	1.012730	1.057832	-0.369500
C110	C	1.512730	1.557832	0.130500
C111	C	1.092744	0.309188	-0.626052
C112	C	1.592744	0.809188	-0.126052
C113	C	1.090430	0.312554	-0.698857
C114	C	1.590430	0.812554	-0.198857
C115	C	1.053974	0.365886	-0.724536
C116	C	1.553974	0.865886	-0.224536
C117	C	1.019824	0.415850	-0.677405
C118	C	1.519824	0.915850	-0.177405
C119	C	1.022134	0.412479	-0.604601
C120	C	1.522134	0.912479	-0.104601
C121	C	1.043276	0.381499	-0.941125
C122	C	1.543276	0.881499	-0.441125
C123	C	1.040971	0.384867	-1.013935
C124	C	1.540971	0.884867	-0.513935
C125	C	1.111576	0.281570	-1.035382
C126	C	1.611576	0.781570	-0.535382
C127	C	1.113887	0.278208	-0.962576
C128	C	1.613887	0.778208	-0.462576
C129	C	1.079733	0.328169	-0.915452
C130	C	1.579733	0.828169	-0.415452
N131	N	1.051610	0.369329	-0.798954
N132	N	1.551610	0.869329	-0.298954
N133	N	1.082093	0.324722	-0.841035
N134	N	1.582093	0.824722	-0.341035
C135	C	1.072570	0.338715	-0.138500
C136	C	1.572570	0.838715	0.361500
C137	C	1.075117	0.334906	-0.061060
C138	C	1.575117	0.834906	0.438940
H139	H	0.820819	0.444876	-0.210315
H140	H	1.320819	0.944876	0.289685
F141	F	0.886800	0.901023	-0.485470
F142	F	1.386800	1.401023	0.014530
H143	H	1.094816	1.043037	-0.293879
H144	H	1.594816	1.543037	0.206121
H145	H	1.139381	0.240894	-1.073758
H146	H	1.639381	0.740894	-0.573758
F147	F	0.452012	0.231449	-0.449025
F148	F	0.952012	0.731449	0.050975
F149	F	0.496105	0.427938	-0.229278
F150	F	0.996105	0.927938	0.270722
H151	H	0.923405	0.784341	-0.451717
H152	H	1.423405	1.284341	0.048283
F153	F	0.918210	1.068699	-0.456560
F154	F	1.418210	1.568699	0.043440
F155	F	1.223474	0.918339	-0.175335
F156	F	1.723474	1.418339	0.324665
H157	H	0.688737	0.450552	-0.203988
H158	H	1.188737	0.950552	0.296012
H159	H	1.140369	0.990122	-0.251910
H160	H	1.640369	1.490122	0.248090
F161	F	0.985788	0.465654	-0.554447
F162	F	1.485788	0.965654	-0.054447
H163	H	1.122433	0.265762	-0.605150
H164	H	1.622433	0.765762	-0.105150
F165	F	1.215255	0.624811	-0.182816
F166	F	1.715255	1.124811	0.317184
H167	H	1.118237	0.271872	-0.737224
H168	H	1.618237	0.771872	-0.237224
H169	H	0.649985	0.277848	-0.397101
H170	H	1.149985	0.777848	0.102899
H171	H	0.313501	0.249421	-0.428950
H172	H	0.813501	0.749421	0.071050
F173	F	0.345836	0.434438	-0.222105
F174	F	0.845836	0.934438	0.277895
F175	F	1.246670	0.792493	-0.153928
F176	F	1.746670	1.292493	0.346072
H177	H	1.038653	0.650491	-0.345517
H178	H	1.538653	1.150491	0.154483
F179	F	0.989416	0.683080	-0.391114
F180	F	1.489416	1.183080	0.108886
H181	H	1.011282	0.428298	-1.034838
H182	H	1.511282	0.928298	-0.534838
F183	F	0.981021	0.472607	-0.704736
F184	F	1.481021	0.972607	-0.204736
H185	H	1.143575	0.234782	-0.941674
H186	H	1.643575	0.734782	-0.441674
H187	H	1.015478	0.422192	-0.902764
H188	H	1.515478	0.922192	-0.402764
F189	F	0.788486	0.259879	-0.417176
F190	F	1.288486	0.759879	0.082824
