data_functionalizedCrystal
_audit_creation_method	'MofGen! by Chris Wilmer'
_symmetry_space_group_name_H-M	'P1'
_symmetry_Int_Tables_number	1
_symmetry_cell_setting	triclinic
loop_
_symmetry_equiv_pos_as_xyz
  x,y,z
_cell_length_a	12.594517
_cell_length_b	12.594516
_cell_length_c	12.645323
_cell_angle_alpha	89.974378
_cell_angle_beta	89.977203
_cell_angle_gamma	90.011616
loop_
_atom_site_label
_atom_site_type_symbol
_atom_site_fract_x
_atom_site_fract_y
_atom_site_fract_z
Zn1	Zn	1.627314	-0.423739	-0.599444
Zn2	Zn	1.627213	-0.601743	-0.422182
Zn3	Zn	1.449313	-0.423778	-0.422188
Zn4	Zn	1.449313	-0.601676	-0.599397
O5	O	1.538288	-0.512734	-0.510803
O6	O	1.776246	-0.447364	-0.575947
O7	O	1.603572	-0.578179	-0.273835
O8	O	1.472967	-0.274827	-0.445724
O9	O	1.776172	-0.578142	-0.445713
O10	O	1.603744	-0.274799	-0.575953
O11	O	1.472870	-0.447429	-0.273840
O12	O	1.300367	-0.447364	-0.445678
O13	O	1.472967	-0.578028	-0.747751
O14	O	1.300367	-0.578065	-0.575873
O15	O	1.603744	-0.447299	-0.747785
O16	O	1.603572	-0.750679	-0.445668
O17	O	1.472870	-0.750630	-0.575867
C18	C	1.261747	-0.512713	-0.510772
C19	C	1.143442	-0.512729	-0.510783
C20	C	1.074158	-0.441544	-0.440106
C21	C	1.003353	-0.538632	-0.414031
C22	C	1.003447	-0.415689	-0.536876
C23	C	1.074196	-0.609868	-0.484659
C24	C	1.074296	-0.486860	-0.607548
C25	C	1.003523	-0.584014	-0.581510
C26	C	1.538239	-0.789275	-0.510784
C27	C	1.538315	-0.907580	-0.510812
C28	C	1.609487	-0.976821	-0.440072
C29	C	1.635500	-1.047522	-0.536831
C30	C	1.512435	-1.047679	-0.414114
C31	C	1.564378	-0.976722	-0.607622
C32	C	1.441268	-0.976873	-0.484840
C33	C	1.467244	-1.047541	-0.581666
C34	C	1.815909	-0.512756	-0.510835
C35	C	1.934214	-0.512765	-0.510848
C36	C	1.538367	-0.512652	-0.787308
C37	C	1.538400	-0.512616	-0.905138
C38	C	1.538367	-0.235113	-0.510845
C39	C	1.538400	-0.116808	-0.510862
C40	C	1.455875	-0.594471	-1.072681
C41	C	1.456091	-0.594876	-0.950121
C42	C	1.650553	-0.543058	-0.949658
C43	C	1.650101	-0.543571	-1.072256
C44	C	1.509832	-0.399864	-1.072338
C45	C	1.507330	-0.400539	-0.949731
C46	C	1.538271	-0.512739	-0.235373
C47	C	1.538444	-0.512474	-0.117544
H48	H	0.972704	-0.644298	-0.641308
N49	N	1.112990	-0.712876	-0.456889
N50	N	1.089638	-0.791493	-0.512521
H51	H	1.117037	-0.864241	-0.492907
N52	N	1.409026	-0.365029	-1.111090
N53	N	1.402491	-0.281300	-1.163795
H54	H	1.331293	-0.256706	-1.191163
H55	H	1.669684	-0.945768	-0.380304
N56	N	1.585283	-0.323235	-1.108738
N57	N	1.659833	-0.351292	-1.167714
H58	H	1.713125	-0.297182	-1.193427
N59	N	1.729895	-0.471900	-1.109480
N60	N	1.785745	-0.421667	-1.044911
H61	H	1.842101	-0.371051	-1.071195
H62	H	1.407093	-1.078398	-0.641579
N63	N	1.680501	-0.646838	-1.108174
N64	N	1.685658	-0.665890	-1.205041
H65	H	1.707126	-0.738826	-1.230406
N66	N	1.484907	-1.086756	-0.311501
N67	N	1.397469	-1.062869	-0.271227
H68	H	1.378032	-1.090463	-0.198754
N69	N	1.403789	-0.371750	-0.913226
N70	N	1.353009	-0.433486	-0.854581
H71	H	1.279881	-0.413158	-0.828793
N72	N	1.479340	-0.698539	-1.111355
N73	N	1.556609	-0.712581	-1.171813
H74	H	1.573185	-0.786079	-1.199130
N75	N	1.738479	-1.086511	-0.564430
N76	N	1.754740	-1.184274	-0.569625
H77	H	1.827465	-1.211820	-0.589115
N78	N	1.338309	-0.937879	-0.457200
N79	N	1.321634	-0.840116	-0.453531
H80	H	1.248919	-0.812571	-0.433999
H81	H	1.713724	-0.485224	-0.920524
N82	N	0.964259	-0.566090	-0.311408
N83	N	0.906175	-0.502691	-0.262059
H84	H	0.878568	-0.522076	-0.189578
N85	N	1.113407	-0.459338	-0.710142
N86	N	1.090798	-0.371263	-0.749773
H87	H	1.118421	-0.351814	-0.822231
N88	N	1.351759	-0.570974	-0.912367
N89	N	1.278274	-0.553877	-0.976564
H90	H	1.204584	-0.537001	-0.949906
H91	H	1.105173	-0.381404	-0.380262
N92	N	0.964461	-0.312717	-0.564515
N93	N	0.987095	-0.234250	-0.508382
H94	H	0.959564	-0.161524	-0.527894
H95	H	1.586221	-0.945687	-0.689489
N96	N	1.479824	-0.699600	-0.913353
N97	N	1.496288	-0.772615	-0.978237
H98	H	1.513052	-0.846581	-0.952271
N99	N	1.351236	-0.570790	-1.109651
N100	N	1.336290	-0.493209	-1.169500
H101	H	1.262387	-0.476483	-1.195620
H102	H	1.675219	-0.624516	-0.918968
N103	N	1.577265	-0.319854	-0.911311
N104	N	1.651479	-0.343748	-0.850170
H105	H	1.700879	-0.286766	-0.823035
