data_functionalizedCrystal
_audit_creation_method	'MofGen! by Chris Wilmer'
_symmetry_space_group_name_H-M	'P1'
_symmetry_Int_Tables_number	1
_symmetry_cell_setting	triclinic
loop_
_symmetry_equiv_pos_as_xyz
  x,y,z
_cell_length_a	10.654545
_cell_length_b	13.339070
_cell_length_c	12.376492
_cell_angle_alpha	75.608952
_cell_angle_beta	78.596522
_cell_angle_gamma	79.943809
loop_
_atom_site_label
_atom_site_type_symbol
_atom_site_fract_x
_atom_site_fract_y
_atom_site_fract_z
O1	O	1.733302	-0.123143	-0.094008
O2	O	1.372407	-0.136716	-0.094014
O3	O	1.511431	0.017619	-0.093986
O4	O	1.594278	-0.277478	-0.094036
O5	O	1.476672	-0.020913	0.094019
O6	O	1.337649	-0.175248	0.093991
O7	O	1.698543	-0.161675	0.093997
Zn8	Zn	1.512577	-0.174579	0.123844
Zn9	Zn	1.558373	-0.123812	-0.123861
O10	O	1.559520	-0.316010	0.093969
C11	C	1.307894	-0.154986	-0.000012
C12	C	1.167445	-0.152007	-0.000013
C13	C	1.082520	-0.171609	0.102469
C14	C	0.950549	-0.168793	0.102470
C15	C	0.988443	-0.126776	-0.102504
C16	C	1.120409	-0.129585	-0.102503
C17	C	1.480058	0.036139	0.000020
C18	C	1.438346	0.148731	0.000032
C19	C	1.762649	0.511241	0.000090
C20	C	1.801842	0.405455	0.000086
C21	C	1.710971	0.341269	0.000072
C22	C	1.580901	0.382879	0.000063
C23	C	1.541702	0.488674	0.000077
C24	C	1.490024	0.318702	0.000058
C25	C	1.359954	0.360312	0.000050
C26	C	1.320762	0.466097	0.000063
C27	C	1.411632	0.530283	0.000077
C28	C	1.529223	0.212907	0.000045
C29	C	1.308276	0.190340	0.000031
C30	C	1.269083	0.296126	0.000036
C31	C	1.763057	-0.143404	-0.000007
C32	C	1.903508	-0.146382	-0.000014
N33	N	1.481332	-0.209226	0.292896
C34	C	1.590886	0.665462	-0.000002
C35	C	1.632579	0.552850	0.000090
C36	C	1.662140	-0.008718	0.647917
C37	C	1.684002	0.015532	0.529582
C38	C	1.633336	-0.040656	0.470405
C39	C	1.560805	-0.121097	0.529574
C40	C	1.538950	-0.145355	0.647921
C41	C	1.510146	-0.177292	0.470409
C42	C	1.437615	-0.257734	0.529578
C43	C	1.415763	-0.281987	0.647914
C44	C	1.466429	-0.225800	0.707091
C45	C	1.532001	-0.153035	0.352062
C46	C	1.408811	-0.289671	0.352066
C47	C	1.386949	-0.313921	0.470401
N48	N	1.589619	-0.089163	0.707087
H49	H	1.120811	-0.189866	0.185923
F50	F	1.752688	0.228682	0.000063
H51	H	1.163177	0.330020	0.000030
F52	F	1.716067	0.051065	0.710901
H53	H	1.907745	0.371583	0.000094
H54	H	1.189560	-0.113619	-0.185962
F55	F	1.609190	-0.067426	0.289102
F56	F	1.656602	-0.014844	0.344461
F57	F	1.761191	0.101138	0.466613
F58	F	1.667649	0.168634	0.000055
H59	H	1.836619	0.563507	0.000111
F60	F	0.860170	-0.189656	0.211546
H61	H	0.950130	-0.108522	-0.185948
F62	F	1.369945	0.642897	-0.000025
H63	H	1.214848	0.499970	0.000064
H64	H	1.234280	0.138078	0.000026
H65	H	1.448625	-0.245540	0.803450
F66	F	1.338586	-0.367610	0.710887
H67	H	1.367557	-0.335426	0.303884
H68	H	1.327894	-0.379419	0.518592
