data_functionalizedCrystal
_audit_creation_method	'MofGen! by Chris Wilmer'
_symmetry_space_group_name_H-M	'P1'
_symmetry_Int_Tables_number	1
_symmetry_cell_setting	triclinic
loop_
_symmetry_equiv_pos_as_xyz
  x,y,z
_cell_length_a	10.654544
_cell_length_b	10.654545
_cell_length_c	10.065875
_cell_angle_alpha	98.876977
_cell_angle_beta	81.166111
_cell_angle_gamma	84.485139
loop_
_atom_site_label
_atom_site_type_symbol
_atom_site_fract_x
_atom_site_fract_y
_atom_site_fract_z
O1	O	1.686062	0.158093	-0.113521
O2	O	1.320583	0.174900	-0.113516
O3	O	1.511725	-0.016243	-0.113517
O4	O	1.494921	0.349235	-0.113519
O5	O	1.475278	0.020353	0.113472
O6	O	1.284136	0.211496	0.113474
O7	O	1.649616	0.194689	0.113468
Zn8	Zn	1.461089	0.208902	0.149510
Zn9	Zn	1.509109	0.160686	-0.149558
O10	O	1.458474	0.385831	0.113470
C11	C	1.255561	0.191964	-0.000020
C12	C	1.116118	0.188272	-0.000019
C13	C	1.492268	-0.044743	-0.000026
C14	C	1.488576	-0.184188	-0.000033
C15	C	1.076357	0.228185	0.247452
C16	C	0.990968	0.246410	0.371183
C17	C	0.859950	0.242938	0.371177
C18	C	0.814322	0.221235	0.247427
C19	C	0.899711	0.203011	0.123696
C20	C	1.030729	0.206488	0.123715
C21	C	0.939472	0.163089	-0.123772
C22	C	1.070489	0.166570	-0.123769
C23	C	0.893843	0.141387	-0.247522
C24	C	0.979232	0.123171	-0.371256
C25	C	1.110257	0.126645	-0.371245
C26	C	1.155878	0.148345	-0.247500
C27	C	1.528327	-0.224094	-0.247504
C28	C	1.546472	-0.309557	-0.371239
C29	C	1.543003	-0.440576	-0.371240
C30	C	1.521383	-0.486133	-0.247494
C31	C	1.503238	-0.400670	-0.123759
C32	C	1.506713	-0.269650	-0.123771
C33	C	1.463479	-0.360763	0.123708
C34	C	1.466956	-0.229744	0.123713
C35	C	1.441859	-0.406319	0.247455
C36	C	1.423722	-0.320857	0.371192
C37	C	1.427194	-0.189831	0.371189
C38	C	1.448811	-0.144281	0.247448
C39	C	1.714638	0.177624	-0.000030
C40	C	1.854083	0.181314	-0.000041
C41	C	1.477931	0.414331	-0.000025
C42	C	1.481624	0.553774	-0.000026
N43	N	1.428326	0.241808	0.353616
N44	N	1.541883	0.127770	-0.353664
C45	C	1.497702	0.172127	0.421394
C46	C	1.472496	0.197462	0.578562
H47	H	1.028134	0.264076	0.471938
C48	C	1.300252	-0.006163	0.514740
C49	C	1.407241	-0.095888	0.507202
H50	H	1.287930	0.051825	0.598714
H51	H	1.313635	0.039714	0.441057
H52	H	1.226626	-0.049181	0.509583
H53	H	1.480868	-0.052871	0.512349
H54	H	1.393865	-0.141770	0.580906
C55	C	1.288974	-0.431867	0.514744
C56	C	1.399958	-0.370936	0.507201
H57	H	1.274310	-0.462793	0.598709
H58	H	1.218064	-0.372638	0.509604
H59	H	1.299291	-0.501509	0.441043
H60	H	1.389636	-0.301288	0.580896
H61	H	1.470885	-0.430170	0.512354
H62	H	1.451645	-0.037602	0.247433
H63	H	1.439029	-0.513002	0.247445
C64	C	1.248795	0.276882	0.622878
C65	C	1.367111	0.303321	0.657286
H66	H	1.183737	0.342230	0.671488
H67	H	1.251916	0.273755	0.527598
H68	H	1.230485	0.196737	0.646235
H69	H	1.385426	0.383463	0.633920
H70	H	1.363991	0.306462	0.752587
C71	C	1.555330	-0.659142	-0.481105
C72	C	1.562944	-0.534526	-0.507247
H73	H	1.567633	-0.717139	-0.565071
H74	H	1.619700	-0.681343	-0.430266
H75	H	1.473482	-0.663460	-0.430265
H76	H	1.644797	-0.530206	-0.558079
H77	H	1.498571	-0.512319	-0.558108
H78	H	1.183035	0.231031	0.247469
C79	C	0.833791	0.282753	0.615802
C80	C	0.766082	0.262972	0.507181
H81	H	0.775838	0.295128	0.699763
H82	H	0.894653	0.210174	0.610674
H83	H	0.876786	0.356388	0.610646
H84	H	0.723095	0.189331	0.512332
H85	H	0.705198	0.335559	0.512312
H86	H	1.518545	-0.592815	-0.247506
H87	H	0.707640	0.218394	0.247433
C88	C	1.576084	-0.051854	0.377030
C89	C	1.603083	0.066290	0.342630
H90	H	1.641142	-0.117187	0.328388
H91	H	1.573000	-0.048740	0.472302
H92	H	1.495803	-0.069766	0.353705
H93	H	1.683360	0.084206	0.365964
H94	H	1.606180	0.063178	0.247336
H95	H	1.564073	-0.272450	-0.471990
C96	C	1.620014	-0.096205	0.602429
C97	C	1.647233	0.021795	0.567785
H98	H	1.685040	-0.161659	0.553977
H99	H	1.616804	-0.092911	0.697742
H100	H	1.539746	-0.114077	0.579040
H101	H	1.727497	0.039672	0.591183
H102	H	1.650457	0.018503	0.472451
H103	H	1.350264	0.320217	0.411943
C104	C	1.031687	0.084066	-0.615875
C105	C	0.929076	0.099320	-0.507270
H106	H	1.000717	0.069337	-0.699844
H107	H	1.073013	0.159358	-0.610730
H108	H	1.090909	0.013143	-0.610714
H109	H	0.869858	0.170249	-0.512426
H110	H	0.887730	0.024019	-0.512418
H111	H	1.179776	0.111801	-0.472002
C112	C	1.345902	0.056412	-0.180097
C113	C	1.299894	0.152158	-0.247485
H114	H	1.434814	0.058760	-0.180093
H115	H	1.301578	0.070384	-0.088711
H116	H	1.332535	-0.024847	-0.225802
H117	H	1.313253	0.233418	-0.201774
H118	H	1.344233	0.138195	-0.338888
H119	H	0.787161	0.138552	-0.247518
H120	H	1.531168	-0.117415	-0.247515
