data_functionalizedCrystal
_audit_creation_method	'MofGen! by Chris Wilmer'
_symmetry_space_group_name_H-M	'P1'
_symmetry_Int_Tables_number	1
_symmetry_cell_setting	triclinic
loop_
_symmetry_equiv_pos_as_xyz
  x,y,z
_cell_length_a	14.853567
_cell_length_b	14.519709
_cell_length_c	13.330367
_cell_angle_alpha	89.994415
_cell_angle_beta	89.995418
_cell_angle_gamma	83.657538
loop_
_atom_site_label
_atom_site_type_symbol
_atom_site_fract_x
_atom_site_fract_y
_atom_site_fract_z
O1	O	1.196416	0.120405	-0.083357
O2	O	0.933962	0.134748	-0.083374
O3	O	1.072147	-0.006665	-0.083356
O4	O	1.058230	0.261818	-0.083375
O5	O	1.072127	-0.006668	0.083491
O6	O	0.933942	0.134745	0.083473
O7	O	1.196395	0.120402	0.083491
Cu8	Cu	1.065167	0.127573	0.098716
Cu9	Cu	1.065190	0.127577	-0.098600
O10	O	1.058210	0.261814	0.083472
C11	C	0.900363	0.134096	0.000047
C12	C	0.800278	0.132149	0.000041
C13	C	1.071488	-0.041026	0.000068
C14	C	1.069545	-0.143407	0.000068
C15	C	0.387709	0.039914	0.000070
C16	C	0.366493	0.207916	0.000057
C17	C	0.460527	0.209747	0.000054
C18	C	0.518157	0.126660	0.000057
C19	C	0.481752	0.041743	0.000064
C20	C	0.496939	0.294663	0.000037
C21	C	0.590979	0.296498	0.000033
C22	C	0.648610	0.213410	0.000043
C23	C	0.612200	0.128489	0.000051
C24	C	0.669830	0.045403	0.000054
C25	C	0.633422	-0.039520	0.000069
C26	C	0.539383	-0.041345	0.000074
C27	C	0.742649	0.215235	0.000038
C28	C	0.763873	0.047231	0.000048
C29	C	1.062390	-0.518299	0.000042
C30	C	1.064377	-0.413992	0.000050
C31	C	1.065967	-0.330856	0.000056
C32	C	1.067955	-0.226543	0.000062
C33	C	1.229994	0.121053	0.000067
C34	C	1.330079	0.123001	0.000067
C35	C	1.058869	0.296175	0.000046
C36	C	1.060812	0.398556	0.000039
N37	N	1.065157	0.127570	0.237498
N38	N	1.065208	0.127572	-0.237381
C39	C	1.003999	0.190170	0.710113
C40	C	1.126406	0.064976	0.710097
C41	C	1.126396	0.064974	0.605078
C42	C	1.065187	0.127571	0.552572
C43	C	1.003989	0.190170	0.605085
C44	C	1.187599	0.002381	0.552558
C45	C	1.187592	0.002376	0.447534
C46	C	1.126378	0.064970	0.395026
C47	C	1.065177	0.127572	0.447544
C48	C	1.003968	0.190169	0.395038
C49	C	0.942762	0.252767	0.447555
C50	C	0.942775	0.252764	0.552577
C51	C	1.126365	0.064973	0.290004
C52	C	1.003958	0.190170	0.290010
H53	H	0.810790	-0.020429	0.000054
H54	H	0.319566	0.275561	0.000046
F55	F	1.252744	-0.064231	0.608439
H56	H	1.237428	-0.048595	0.404781
F57	F	0.938806	0.256791	0.234137
F58	F	1.191551	-0.001635	0.765977
F59	F	0.938858	0.256785	0.766002
H60	H	0.892944	0.303730	0.595342
F61	F	0.694766	-0.127943	0.000065
F62	F	0.348960	-0.050462	0.000091
H63	H	0.892929	0.303738	0.404792
H64	H	1.176202	0.014010	0.247250
H65	H	0.620614	0.365646	0.000020
F66	F	0.500628	-0.131717	0.000086
F67	F	0.435602	0.383083	0.000019
H68	H	0.772288	0.284378	0.000027
