data_functionalizedCrystal
_audit_creation_method	'MofGen! by Chris Wilmer'
_symmetry_space_group_name_H-M	'P1'
_symmetry_Int_Tables_number	1
_symmetry_cell_setting	triclinic
loop_
_symmetry_equiv_pos_as_xyz
  x,y,z
_cell_length_a	19.805407
_cell_length_b	18.050589
_cell_length_c	19.805399
_cell_angle_alpha	89.977706
_cell_angle_beta	89.979591
_cell_angle_gamma	90.030161
loop_
_atom_site_label
_atom_site_type_symbol
_atom_site_fract_x
_atom_site_fract_y
_atom_site_fract_z
Zn1	Zn	1.034727	-0.295638	-0.382760
Zn2	Zn	1.034638	-0.419830	-0.269582
Zn3	Zn	0.921542	-0.295663	-0.269583
Zn4	Zn	0.921502	-0.419795	-0.382727
O5	O	0.978102	-0.357732	-0.326163
O6	O	1.129432	-0.312117	-0.367760
O7	O	1.019616	-0.403384	-0.174865
O8	O	0.936610	-0.191735	-0.284610
O9	O	1.129367	-0.403360	-0.284608
O10	O	1.019767	-0.191717	-0.367760
O11	O	0.936524	-0.312159	-0.174866
O12	O	0.826820	-0.312125	-0.284578
O13	O	0.936542	-0.403300	-0.477448
O14	O	0.826791	-0.403324	-0.367705
O15	O	1.019728	-0.312083	-0.477472
O16	O	1.019577	-0.523750	-0.284577
O17	O	0.936456	-0.523724	-0.367704
C18	C	0.802246	-0.357724	-0.326138
C19	C	0.727014	-0.357739	-0.326144
C20	C	0.265261	-0.310310	-0.369552
C21	C	0.335949	-0.310311	-0.369547
C22	C	0.371253	-0.357743	-0.326185
C23	C	0.335864	-0.405182	-0.282829
C24	C	0.265177	-0.405183	-0.282838
C25	C	0.620937	-0.405176	-0.282793
C26	C	0.691629	-0.405169	-0.282786
C27	C	0.691710	-0.310304	-0.369503
C28	C	0.621022	-0.310306	-0.369511
C29	C	0.585640	-0.357747	-0.326158
C30	C	0.508992	-0.357746	-0.326165
C31	C	0.447900	-0.357741	-0.326174
C32	C	0.978021	-0.550684	-0.326151
C33	C	0.978048	-0.633230	-0.326169
C34	C	0.932891	-0.832693	-0.371358
C35	C	0.916392	-0.882132	-0.309595
C36	C	0.978114	-0.784360	-0.326178
C37	C	0.994646	-0.882002	-0.387949
C38	C	0.978177	-0.930345	-0.326192
C39	C	0.961583	-0.832712	-0.264382
C40	C	1.039865	-0.832577	-0.342778
C41	C	1.023390	-0.881995	-0.280972
C42	C	0.978076	-0.700262	-0.326171
C43	C	0.978215	-1.014441	-0.326192
C44	C	1.154645	-0.357740	-0.326188
C45	C	1.229877	-0.357743	-0.326198
C46	C	0.978140	-0.357685	-0.502706
C47	C	0.978156	-0.357665	-0.577938
C48	C	0.978203	-0.164026	-0.326189
C49	C	0.978246	-0.081480	-0.326200
C50	C	1.021472	-0.310166	-0.613295
C51	C	1.021479	-0.310144	-0.683984
C52	C	0.978173	-0.357626	-0.719313
C53	C	0.934852	-0.405128	-0.683950
C54	C	0.934843	-0.405145	-0.613263
C55	C	0.934891	-0.405058	-0.969024
C56	C	0.934905	-0.405039	-1.039716
C57	C	1.021528	-0.310058	-1.039744
C58	C	1.021518	-0.310075	-0.969057
C59	C	0.978195	-0.357573	-0.933701
C60	C	0.978187	-0.357595	-0.857052
C61	C	0.978184	-0.357609	-0.795960
C62	C	0.978103	-0.357725	-0.150307
C63	C	0.978218	-0.357535	-0.075075
H64	H	0.894591	-0.811045	-0.409511
N65	N	0.582780	-0.456337	-0.236032
H66	H	0.615872	-0.486379	-0.208559
H67	H	0.553451	-0.426061	-0.204760
H68	H	1.056801	-0.271379	-1.068540
H69	H	0.236368	-0.443810	-0.247536
H70	H	1.092045	-0.810796	-0.356835
H71	H	0.899637	-0.443706	-1.068479
N72	N	0.847257	-0.910959	-0.290989
H73	H	0.813103	-0.893028	-0.325136
H74	H	0.847962	-0.966904	-0.290688
N75	N	0.374111	-0.259130	-0.416290
H76	H	0.424248	-0.266322	-0.409704
H77	H	0.361778	-0.270740	-0.464618
H78	H	1.056753	-0.271467	-0.712769
N79	N	0.943018	-0.804156	-0.195173
H80	H	0.900769	-0.773048	-0.198422
H81	H	0.934689	-0.847391	-0.163872
N82	N	1.068230	-0.258867	-0.930952
H83	H	1.095671	-0.228771	-0.964078
H84	H	1.040691	-0.224505	-0.901622
N85	N	0.888144	-0.456262	-0.930894
H86	H	0.860707	-0.486331	-0.964004
H87	H	0.915647	-0.490649	-0.901552
N88	N	0.888127	-0.456325	-0.722052
H89	H	0.894703	-0.449105	-0.772198
H90	H	0.898620	-0.509372	-0.709696
N91	N	0.888117	-0.456369	-0.575124
H92	H	0.860683	-0.486446	-0.608230
H93	H	0.915641	-0.490748	-0.545792
H94	H	1.061661	-0.903506	-0.242726
N95	N	0.582945	-0.259138	-0.416271
H96	H	0.616087	-0.229087	-0.443735
H97	H	0.553614	-0.289408	-0.447553
H98	H	1.008603	-0.903653	-0.440182
N99	N	1.068186	-0.258957	-0.575192
H100	H	1.095627	-0.228863	-0.608320
H101	H	1.040650	-0.224594	-0.545862
H102	H	0.720527	-0.271677	-0.404805
N103	N	0.227192	-0.259143	-0.416320
H104	H	0.239512	-0.270746	-0.464661
H105	H	0.177054	-0.266358	-0.409691
N106	N	0.729709	-0.456328	-0.236013
H107	H	0.696569	-0.486383	-0.208551
H108	H	0.759038	-0.490729	-0.263511
N109	N	0.373937	-0.456342	-0.236059
H110	H	0.424087	-0.449142	-0.242629
H111	H	0.361561	-0.444712	-0.187740
