data_functionalizedCrystal
_audit_creation_method	'MofGen! by Chris Wilmer'
_symmetry_space_group_name_H-M	'P1'
_symmetry_Int_Tables_number	1
_symmetry_cell_setting	triclinic
loop_
_symmetry_equiv_pos_as_xyz
  x,y,z
_cell_length_a	6.817900
_cell_length_b	19.551136
_cell_length_c	19.551833
_cell_angle_alpha	96.352483
_cell_angle_beta	101.663477
_cell_angle_gamma	101.650842
loop_
_atom_site_label
_atom_site_type_symbol
_atom_site_fract_x
_atom_site_fract_y
_atom_site_fract_z
V1	V	-3.997212	-0.097410	-0.218205
O2	O	-3.994612	0.003927	-0.213697
O3	O	-3.939964	-0.192423	-0.217053
O4	O	-3.940015	-0.096243	-0.313216
O5	O	-3.994560	-0.092919	-0.116868
V6	V	-4.483127	-0.085250	-0.206043
O7	O	-4.253225	-0.124085	-0.244883
O8	O	-4.677311	-0.058576	-0.179364
O9	O	-4.317168	0.009763	-0.207194
O10	O	-4.603124	-0.186588	-0.210550
O11	O	-4.603175	-0.089741	-0.307379
O12	O	-4.317117	-0.086418	-0.111031
C13	C	-3.783097	-0.215575	-0.213698
C14	C	-3.817518	-0.293252	-0.213390
C15	C	-3.800399	-0.319526	-0.149212
C16	C	-3.832815	-0.392509	-0.148901
C17	C	-3.882309	-0.439215	-0.212770
C18	C	-3.899439	-0.412933	-0.276957
C19	C	-3.867043	-0.339952	-0.277266
C20	C	-3.842532	-0.560382	-0.259081
C21	C	-3.874913	-0.633362	-0.258768
C22	C	-3.982238	-0.664316	-0.211818
C23	C	-4.057145	-0.622279	-0.165168
C24	C	-4.024750	-0.549298	-0.165478
C25	C	-3.917441	-0.518353	-0.212442
C26	C	-4.000269	-0.769727	-0.147298
C27	C	-4.032698	-0.842712	-0.146990
C28	C	-4.099303	-0.863135	-0.275047
C29	C	-4.066893	-0.790151	-0.275354
C30	C	-4.017367	-0.743451	-0.211477
C31	C	-3.783161	-0.092886	-0.336363
C32	C	-3.817622	-0.092560	-0.414037
C33	C	-4.015258	-0.095915	-0.454097
C34	C	-4.047637	-0.095608	-0.527080
C35	C	-3.882376	-0.091962	-0.560004
C36	C	-3.684710	-0.088603	-0.519934
C37	C	-3.652333	-0.088902	-0.446951
C38	C	-3.816035	-0.129955	-0.679451
C39	C	-3.848422	-0.129661	-0.752433
C40	C	-3.982230	-0.091036	-0.785107
C41	C	-4.083685	-0.052715	-0.744791
C42	C	-4.051308	-0.053015	-0.671808
C43	C	-3.917464	-0.091637	-0.639141
C44	C	-4.214987	-0.094057	-0.904303
C45	C	-4.247358	-0.093747	-0.977287
C46	C	-3.884428	-0.086748	-0.970141
C47	C	-3.852060	-0.087052	-0.897158
C48	C	-4.017349	-0.090710	-0.864244
C49	C	-4.137377	0.032911	-0.210547
C50	C	-4.082194	0.110587	-0.210860
C51	C	-4.137313	-0.089776	-0.087881
C52	C	-4.082092	-0.090099	-0.010205
H53	H	-3.755137	-0.535186	-0.297316
H54	H	-3.760087	-0.281507	-0.097199
N55	N	-3.885504	-0.311608	-0.346489
H56	H	-3.921782	-0.352268	-0.386905
H57	H	-3.750113	-0.279360	-0.347026
H58	H	-4.139603	-0.901162	-0.327051
H59	H	-4.144521	-0.647479	-0.126932
N60	N	-4.085310	-0.761804	-0.344572
H61	H	-4.196744	-0.734392	-0.349937
H62	H	-4.121501	-0.802499	-0.384946
H63	H	-3.550154	-0.085632	-0.546745
H64	H	-3.813911	-0.667582	-0.296752
N65	N	-4.105574	-0.503962	-0.115177
H66	H	-4.068766	-0.453033	-0.122501
H67	H	-4.041951	-0.507981	-0.064874
H68	H	-3.691128	-0.084328	-0.864542
N69	N	-3.439157	-0.085282	-0.403739
H70	H	-3.339368	-0.082922	-0.435666
H71	H	-3.440436	-0.128796	-0.380241
H72	H	-3.959941	-0.731702	-0.095286
H73	H	-3.939742	-0.450966	-0.328959
N74	N	-3.706167	-0.082807	-1.005639
H75	H	-3.756663	-0.083124	-1.057953
H76	H	-3.643885	-0.124872	-0.998262
H77	H	-4.149851	-0.098890	-0.427303
N78	N	-3.739012	-0.170993	-0.795914
H79	H	-3.649313	-0.195499	-0.764141
H80	H	-3.650685	-0.137657	-0.819487
H81	H	-4.349575	-0.097033	-0.877503
N82	N	-4.260820	-0.099227	-0.570295
H83	H	-4.357125	-0.144352	-0.566094
H84	H	-4.256065	-0.098453	-0.621504
H85	H	-4.133914	-0.021812	-0.638986
H86	H	-4.192647	-0.021265	-0.771393
N87	N	-4.460540	-0.097371	-1.020497
H88	H	-4.455974	-0.096623	-1.071726
H89	H	-4.511517	-0.055415	-1.002361
N90	N	-3.814359	-0.420860	-0.079679
H91	H	-3.778073	-0.380202	-0.039262
H92	H	-3.702953	-0.448282	-0.074388
N93	N	-4.014256	-0.871055	-0.077767
H94	H	-3.977964	-0.830394	-0.037352
H95	H	-3.902860	-0.898481	-0.072472
N96	N	-3.671705	-0.171616	-0.644213
H97	H	-3.612365	-0.195851	-0.680826
H98	H	-3.749805	-0.208300	-0.620975
