data_functionalizedCrystal
_audit_creation_method	'MofGen! by Chris Wilmer'
_symmetry_space_group_name_H-M	'P1'
_symmetry_Int_Tables_number	1
_symmetry_cell_setting	triclinic
loop_
_symmetry_equiv_pos_as_xyz
  x,y,z
_cell_length_a	17.699104
_cell_length_b	10.489741
_cell_length_c	16.776229
_cell_angle_alpha	90.012635
_cell_angle_beta	89.999243
_cell_angle_gamma	83.915346
loop_
_atom_site_label
_atom_site_type_symbol
_atom_site_fract_x
_atom_site_fract_y
_atom_site_fract_z
O1	O	1.005114	0.161436	0.066304
O2	O	1.505114	0.661436	0.566304
O3	O	0.784875	0.182393	0.066302
O4	O	1.284875	0.682393	0.566302
O5	O	0.900006	-0.013776	0.066298
O6	O	1.400006	0.486224	0.566298
O7	O	0.889983	0.357605	0.066308
O8	O	1.389983	0.857605	0.566308
O9	O	0.900011	-0.013815	-0.066278
O10	O	1.400011	0.486185	0.433722
O11	O	0.784880	0.182354	-0.066275
O12	O	1.284880	0.682354	0.433725
O13	O	1.005120	0.161397	-0.066273
O14	O	1.505120	0.661397	0.433727
Zn15	Zn	0.895001	0.171869	-0.087323
Zn16	Zn	1.395001	0.671869	0.412677
Zn17	Zn	0.894994	0.171920	0.087352
Zn18	Zn	1.394994	0.671920	0.587352
O19	O	0.889988	0.357566	-0.066269
O20	O	1.389988	0.857566	0.433731
C21	C	0.756676	0.181618	0.000013
C22	C	1.256676	0.681618	0.500013
C23	C	0.672644	0.179351	0.000013
C24	C	1.172644	0.679351	0.500013
C25	C	0.899252	-0.061313	0.000010
C26	C	1.399252	0.438687	0.500010
C27	C	0.896987	-0.202901	0.000012
C28	C	1.396987	0.297099	0.500012
C29	C	0.148443	0.281717	0.000024
C30	C	0.648443	0.781717	0.500024
C31	C	0.227400	0.283839	0.000026
C32	C	0.727400	0.783839	0.500026
C33	C	0.275264	0.168680	0.000023
C34	C	0.775264	0.668680	0.500023
C35	C	0.244167	0.051392	0.000025
C36	C	0.744167	0.551392	0.500025
C37	C	0.165211	0.049272	0.000029
C38	C	0.665211	0.549272	0.500029
C39	C	0.562589	0.059941	0.000013
C40	C	1.062589	0.559941	0.500013
C41	C	0.641550	0.062071	0.000007
C42	C	1.141550	0.562071	0.500007
C43	C	0.624778	0.294509	0.000010
C44	C	1.124778	0.794509	0.500010
C45	C	0.545822	0.292388	0.000013
C46	C	1.045822	0.792388	0.500013
C47	C	0.514732	0.175101	0.000020
C48	C	1.014732	0.675101	0.500020
C49	C	0.429117	0.172802	0.000019
C50	C	0.929117	0.672802	0.500019
C51	C	0.360878	0.170978	0.000018
C52	C	0.860878	0.670978	0.500018
C53	C	0.823732	-0.269689	0.000017
C54	C	1.323732	0.230311	0.500017
C55	C	0.858340	-0.362470	-0.065350
C56	C	1.358340	0.137530	0.434650
C57	C	0.858352	-0.362406	0.065360
C58	C	1.358352	0.137594	0.565360
C59	C	0.931624	-0.293816	-0.065409
C60	C	1.431624	0.206184	0.434591
C61	C	0.931626	-0.293743	0.065360
C62	C	1.431626	0.206257	0.565360
C63	C	0.966287	-0.386497	-0.000023
C64	C	1.466287	0.113503	0.499977
C65	C	1.033318	0.162172	0.000018
C66	C	1.533318	0.662172	0.500018
C67	C	1.117350	0.164438	0.000024
C68	C	1.617350	0.664438	0.500024
C69	C	0.890743	0.405103	0.000021
C70	C	1.390743	0.905103	0.500021
C71	C	0.893008	0.546690	0.000024
C72	C	1.393008	1.046690	0.500024
N73	N	0.894989	0.171946	0.206564
N74	N	1.394989	0.671946	0.706564
N75	N	0.895011	0.171833	-0.206534
N76	N	1.395011	0.671833	0.293466
C77	C	0.848766	0.094510	0.248272
C78	C	1.348766	0.594510	0.748272
C79	C	0.848771	0.094489	0.331724
C80	C	1.348771	0.594489	0.831724
C81	C	0.894996	0.171911	0.373466
C82	C	1.394996	0.671911	0.873466
C83	C	0.941225	0.249350	0.331752
C84	C	1.441225	0.749350	0.831752
C85	C	0.941223	0.249364	0.248302
C86	C	1.441223	0.749364	0.748302
C87	C	0.941234	0.249294	0.668300
C88	C	1.441234	0.749294	1.168300
C89	C	0.941231	0.249277	0.751756
C90	C	1.441231	0.749277	1.251756
C91	C	0.848783	0.094419	0.751722
C92	C	1.348783	0.594419	1.251722
C93	C	0.848781	0.094433	0.668271
C94	C	1.348781	0.594433	1.168271
C95	C	0.895012	0.171866	0.626564
C96	C	1.395012	0.671866	1.126564
C97	C	0.895006	0.171887	0.536076
C98	C	1.395006	0.671887	1.036076
C99	C	0.894998	0.171898	0.463953
C100	C	1.394998	0.671898	0.963953
H101	H	0.109476	0.375493	0.000020
H102	H	0.609476	0.875493	0.500020
O103	O	0.972655	-0.253763	-0.138690
O104	O	1.472655	0.246237	0.361310
H105	H	0.991380	-0.339726	-0.175076
H106	H	1.491380	0.160274	0.324924
H107	H	1.026570	-0.437034	-0.000059
H108	H	1.526570	0.062966	0.499941
H109	H	0.811120	0.031471	0.214291
H110	H	1.311120	0.531471	0.714291
O111	O	0.529067	-0.066561	0.000002
O112	O	1.029067	0.433439	0.500002
H113	H	0.548252	-0.121879	0.054028
H114	H	1.048252	0.378121	0.554028
H115	H	0.978878	0.312346	0.634352
H116	H	1.478878	0.812346	1.134352
O117	O	0.798911	0.010979	0.376712
O118	O	1.298911	0.510979	0.876712
H119	H	0.766759	-0.042840	0.333666
H120	H	1.266759	0.457160	0.833666
H121	H	0.978863	0.312419	0.214344
H122	H	1.478863	0.812419	0.714344
O123	O	0.295787	-0.072821	0.000014
O124	O	0.795787	0.427179	0.500014
H125	H	0.355914	-0.051646	0.000001
H126	H	0.855914	0.448354	0.500001
O127	O	0.972647	-0.253335	0.138561
O128	O	1.472647	0.246665	0.638561
H129	H	0.942121	-0.280476	0.192746
H130	H	1.442121	0.219524	0.692746
O131	O	0.817284	-0.402665	0.138565
O132	O	1.317284	0.097335	0.638565
H133	H	0.758128	-0.355406	0.138421
H134	H	1.258128	0.144594	0.638421
O135	O	0.494198	0.416596	0.000010
O136	O	0.994198	0.916596	0.500010
H137	H	0.457819	0.421202	0.054044
H138	H	0.957819	0.921202	0.554044
H139	H	0.811136	0.031393	0.634288
H140	H	1.311136	0.531393	1.134288
H141	H	0.978866	0.312382	0.365746
H142	H	1.478866	0.812382	0.865746
H143	H	0.811141	0.031365	0.785689
H144	H	1.311141	0.531365	1.285689
H145	H	0.978876	0.312327	0.785741
H146	H	1.478876	0.812327	1.285741
O147	O	0.260930	0.410340	0.000008
O148	O	0.760930	0.910340	0.500008
H149	H	0.241747	0.465699	0.054036
H150	H	0.741747	0.965699	0.554036
H151	H	0.650101	0.390010	0.000008
H152	H	1.150101	0.890010	0.500008
H153	H	0.680521	-0.031711	0.000007
H154	H	1.180521	0.468289	0.500007
H155	H	0.139898	-0.046229	0.000031
H156	H	0.639898	0.453771	0.500031
O157	O	0.817288	-0.402815	-0.138553
O158	O	1.317288	0.097185	0.361447
H159	H	0.856377	-0.469774	-0.174476
H160	H	1.356377	0.030226	0.325524
O161	O	0.743957	-0.202429	-0.000065
O162	O	1.243957	0.297571	0.499935
H163	H	0.713734	-0.229759	-0.054411
H164	H	1.213734	0.270241	0.445589
