data_functionalizedCrystal
_audit_creation_method	'MofGen! by Chris Wilmer'
_symmetry_space_group_name_H-M	'P1'
_symmetry_Int_Tables_number	1
_symmetry_cell_setting	triclinic
loop_
_symmetry_equiv_pos_as_xyz
  x,y,z
_cell_length_a	12.827893
_cell_length_b	18.050589
_cell_length_c	12.827885
_cell_angle_alpha	89.970449
_cell_angle_beta	89.980728
_cell_angle_gamma	90.028191
loop_
_atom_site_label
_atom_site_type_symbol
_atom_site_fract_x
_atom_site_fract_y
_atom_site_fract_z
Zn1	Zn	1.597576	-0.295624	-0.590850
Zn2	Zn	2.097576	0.204376	-0.090850
Zn3	Zn	1.597431	-0.419832	-0.416111
Zn4	Zn	2.097431	0.080168	0.083889
Zn5	Zn	1.422818	-0.295660	-0.416124
Zn6	Zn	1.922818	0.204340	0.083876
Zn7	Zn	1.422764	-0.419777	-0.590811
Zn8	Zn	1.922764	0.080223	-0.090811
O9	O	1.510147	-0.357723	-0.503474
O10	O	2.010147	0.142277	-0.003474
O11	O	1.743793	-0.312109	-0.567682
O12	O	2.243793	0.187891	-0.067682
O13	O	1.574230	-0.403399	-0.269877
O14	O	2.074230	0.096601	0.230123
O15	O	1.446083	-0.191731	-0.439323
O16	O	1.946083	0.308269	0.060677
O17	O	1.743687	-0.403364	-0.439302
O18	O	2.243687	0.096636	0.060698
O19	O	1.574478	-0.191704	-0.567694
O20	O	2.074478	0.308296	-0.067694
O21	O	1.445943	-0.312170	-0.269886
O22	O	1.945943	0.187830	0.230114
O23	O	1.276575	-0.312117	-0.439286
O24	O	1.776575	0.187883	0.060714
O25	O	1.445991	-0.403269	-0.737053
O26	O	1.945991	0.096731	-0.237053
O27	O	1.276535	-0.403304	-0.567628
O28	O	1.776535	0.096696	-0.067628
O29	O	1.574425	-0.312055	-0.737081
O30	O	2.074425	0.187945	-0.237081
O31	O	1.574178	-0.523749	-0.439264
O32	O	2.074178	-0.023749	0.060736
O33	O	1.445851	-0.523709	-0.567615
O34	O	1.945851	-0.023709	-0.067615
C35	C	1.238638	-0.357709	-0.503454
C36	C	1.738638	0.142291	-0.003454
C37	C	1.122484	-0.357721	-0.503471
C38	C	1.622484	0.142279	-0.003471
C39	C	1.510021	-0.550675	-0.503457
C40	C	2.010021	-0.050675	-0.003457
C41	C	1.510063	-0.633221	-0.503484
C42	C	2.010063	-0.133221	-0.003484
C43	C	1.070708	-0.402914	-0.566880
C44	C	1.570708	0.097086	-0.066880
C45	C	0.950657	-0.402927	-0.566899
C46	C	1.450657	0.097073	-0.066899
C47	C	1.440347	-0.832677	-0.573257
C48	C	1.940347	-0.332677	-0.073257
C49	C	1.414870	-0.882124	-0.477900
C50	C	1.914870	-0.382124	0.022100
C51	C	1.510166	-0.784351	-0.503498
C52	C	2.010166	-0.284351	-0.003498
C53	C	1.535694	-0.881986	-0.598866
C54	C	2.035694	-0.381986	-0.098866
C55	C	1.510263	-0.930337	-0.503520
C56	C	2.010263	-0.430337	-0.003520
C57	C	1.484639	-0.832712	-0.408091
C58	C	1.984639	-0.332712	0.091909
C59	C	1.605506	-0.832569	-0.529120
C60	C	2.105506	-0.332569	-0.029120
C61	C	1.580066	-0.881994	-0.433698
C62	C	2.080066	-0.381994	0.066302
C63	C	1.510107	-0.700253	-0.503487
C64	C	2.010107	-0.200253	-0.003487
C65	C	1.510322	-1.014433	-0.503520
C66	C	2.010322	-0.514433	-0.003520
C67	C	1.782718	-0.357738	-0.503495
C68	C	2.282718	0.142262	-0.003495
C69	C	1.898871	-0.357745	-0.503504
C70	C	2.398871	0.142255	-0.003504
C71	C	1.510219	-0.357652	-0.776045
C72	C	2.010219	0.142348	-0.276045
C73	C	1.510249	-0.357622	-0.892198
C74	C	2.010249	0.142378	-0.392198
C75	C	1.510303	-0.164018	-0.503515
C76	C	2.010303	0.335982	-0.003515
C77	C	1.510369	-0.081472	-0.503532
C78	C	2.010369	0.418528	-0.003532
C79	C	1.573809	-0.312477	-0.943997
C80	C	2.073809	0.187523	-0.443997
C81	C	1.573842	-0.312444	-1.064047
C82	C	2.073842	0.187556	-0.564047
C83	C	1.510137	-0.357741	-0.231964
C84	C	2.010137	0.142259	0.268036
C85	C	1.510309	-0.357562	-0.115812
C86	C	2.010309	0.142438	0.384188
H87	H	0.906131	-0.441621	-0.621183
H88	H	1.406131	0.058379	-0.121183
H89	H	1.455850	-0.396243	-0.936728
H90	H	1.955850	0.103757	-0.436728
H91	H	0.943391	-0.319054	-0.449210
H92	H	1.443391	0.180946	0.050790
C93	C	1.647292	-0.260296	-0.883851
C94	C	2.147292	0.239704	-0.383851
H95	H	1.637636	-0.267167	-0.811054
H96	H	2.137636	0.232833	-0.311054
H97	H	1.632065	-0.210380	-0.901695
H98	H	2.132065	0.289620	-0.401695
H99	H	1.717522	-0.271160	-0.901689
H100	H	2.217522	0.228840	-0.401689
H101	H	1.686069	-0.810788	-0.550818
H102	H	2.186069	-0.310788	-0.050818
C103	C	1.306014	-0.911534	-0.448623
C104	C	1.806014	-0.411534	0.051377
H105	H	1.310811	-0.940508	-0.386963
H106	H	1.810811	-0.440508	0.113037
H107	H	1.279816	-0.941227	-0.503845
H108	H	1.779816	-0.441227	-0.003845
H109	H	1.260258	-0.871004	-0.436984
H110	H	1.760258	-0.371004	0.063016
C111	C	1.130879	-0.455171	-0.640204
C112	C	1.630879	0.044829	-0.140204
H113	H	1.203673	-0.448310	-0.630568
H114	H	1.703673	0.051690	-0.130568
H115	H	1.113081	-0.444376	-0.710462
H116	H	1.613081	0.055624	-0.210462
H117	H	1.113014	-0.505073	-0.624802
H118	H	1.613014	-0.005073	-0.124802
H119	H	1.077936	-0.319036	-0.449201
H120	H	1.577936	0.180964	0.050799
H121	H	1.381217	-0.811021	-0.632167
H122	H	1.881217	-0.311021	-0.132167
C123	C	1.647360	-0.260232	-1.124216
C124	C	2.147360	0.239768	-0.624216
H125	H	1.637735	-0.267058	-1.197010
H126	H	2.137735	0.232942	-0.697010
H127	H	1.717575	-0.271099	-1.106379
H128	H	2.217575	0.228901	-0.606379
H129	H	1.632113	-0.210323	-1.106392
H130	H	2.132113	0.289677	-0.606392
H131	H	1.455894	-0.396217	-1.071273
H132	H	1.955894	0.103783	-0.571273
H133	H	1.639151	-0.903512	-0.374645
H134	H	2.139151	-0.403512	0.125355
C135	C	1.455386	-0.803599	-0.299122
C136	C	1.955386	-0.303599	0.200878
H137	H	1.455491	-0.750969	-0.299789
H138	H	1.955491	-0.250969	0.200211
H139	H	1.504701	-0.820878	-0.249534
H140	H	2.004701	-0.320878	0.250466
H141	H	1.387898	-0.820980	-0.280827
H142	H	1.887898	-0.320980	0.219173
C143	C	1.564816	-0.911224	-0.707803
C144	C	2.064816	-0.411224	-0.207803
H145	H	1.515106	-0.894329	-0.757271
H146	H	2.015106	-0.394329	-0.257271
H147	H	1.565269	-0.963846	-0.706881
H148	H	2.065269	-0.463846	-0.206881
H149	H	1.632034	-0.893521	-0.726475
H150	H	2.132034	-0.393521	-0.226475
