data_functionalizedCrystal
_audit_creation_method	'MofGen! by Chris Wilmer'
_symmetry_space_group_name_H-M	'P1'
_symmetry_Int_Tables_number	1
_symmetry_cell_setting	triclinic
loop_
_symmetry_equiv_pos_as_xyz
  x,y,z
_cell_length_a	12.759401
_cell_length_b	21.295417
_cell_length_c	12.759393
_cell_angle_alpha	89.961742
_cell_angle_beta	89.982824
_cell_angle_gamma	90.030668
loop_
_atom_site_label
_atom_site_type_symbol
_atom_site_fract_x
_atom_site_fract_y
_atom_site_fract_z
Zn1	Zn	1.606126	-0.250575	-0.593926
Zn2	Zn	2.106126	0.249425	-0.093926
Zn3	Zn	1.605976	-0.355857	-0.418223
Zn4	Zn	2.105976	0.144143	0.081777
Zn5	Zn	1.430432	-0.250606	-0.418265
Zn6	Zn	1.930432	0.249394	0.081735
Zn7	Zn	1.430368	-0.355811	-0.593864
Zn8	Zn	1.930368	0.144189	-0.093864
O9	O	1.518226	-0.303212	-0.506069
O10	O	2.018226	0.196788	-0.006069
O11	O	1.753127	-0.264547	-0.570626
O12	O	2.253127	0.235453	-0.070626
O13	O	1.582654	-0.341928	-0.271207
O14	O	2.082654	0.158072	0.228793
O15	O	1.453828	-0.162513	-0.441611
O16	O	1.953828	0.337487	0.058389
O17	O	1.753017	-0.341898	-0.441538
O18	O	2.253017	0.158102	0.058462
O19	O	1.582910	-0.162490	-0.570668
O20	O	2.082910	0.337510	-0.070668
O21	O	1.453682	-0.264601	-0.271238
O22	O	1.953682	0.235399	0.228762
O23	O	1.283403	-0.264555	-0.441551
O24	O	1.783403	0.235445	0.058449
O25	O	1.453719	-0.341818	-0.740893
O26	O	1.953719	0.158182	-0.240893
O27	O	1.283356	-0.341849	-0.570562
O28	O	1.783356	0.158151	-0.070562
O29	O	1.582848	-0.264502	-0.740939
O30	O	2.082848	0.235498	-0.240939
O31	O	1.582592	-0.443941	-0.441478
O32	O	2.082592	0.056059	0.058522
O33	O	1.453574	-0.443906	-0.570521
O34	O	1.953574	0.056094	-0.070521
C35	C	1.245258	-0.303201	-0.506055
C36	C	1.745258	0.196799	-0.006055
C37	C	1.128482	-0.303211	-0.506074
C38	C	1.628482	0.196789	-0.006074
C39	C	1.073623	-0.343522	-0.573139
C40	C	1.573623	0.156478	-0.073139
C41	C	0.963899	-0.343530	-0.573151
C42	C	1.463899	0.156470	-0.073151
C43	C	0.963902	-0.262914	-0.439022
C44	C	1.463902	0.237086	0.060978
C45	C	1.073624	-0.262904	-0.439017
C46	C	1.573624	0.237096	0.060983
C47	C	1.128480	-0.383829	-0.640196
C48	C	1.628480	0.116171	-0.140196
C49	C	1.073621	-0.424144	-0.707266
C50	C	1.573621	0.075856	-0.207266
C51	C	0.963897	-0.424152	-0.707277
C52	C	1.463897	0.075848	-0.207277
C53	C	0.909032	-0.383845	-0.640219
C54	C	1.409032	0.116155	-0.140219
C55	C	1.518088	-0.466764	-0.506011
C56	C	2.018088	0.033236	-0.006011
C57	C	1.518125	-0.536732	-0.506021
C58	C	2.018125	-0.036732	-0.006021
C59	C	1.585365	-0.569596	-0.438898
C60	C	2.085365	-0.069596	0.061102
C61	C	1.585414	-0.635338	-0.438921
C62	C	2.085414	-0.135338	0.061079
C63	C	1.518205	-0.668215	-0.506058
C64	C	2.018205	-0.168215	-0.006058
C65	C	1.450961	-0.635343	-0.573195
C66	C	1.950961	-0.135343	-0.073195
C67	C	1.450921	-0.569602	-0.573177
C68	C	1.950921	-0.069602	-0.073177
N69	N	1.426298	-0.771480	-0.514062
N70	N	1.926298	-0.271480	-0.014062
N71	N	1.426339	-0.833931	-0.514073
N72	N	1.926339	-0.333931	-0.014073
C73	C	1.518323	-0.866289	-0.506118
C74	C	2.018323	-0.366289	-0.006118
N75	N	1.610267	-0.833836	-0.498130
N76	N	2.110267	-0.333836	0.001870
N77	N	1.610224	-0.771379	-0.498114
N78	N	2.110224	-0.271379	0.001886
C79	C	1.518241	-0.739500	-0.506085
C80	C	2.018241	-0.239500	-0.006085
C81	C	1.585621	-0.970438	-0.439016
C82	C	2.085621	-0.470438	0.060984
C83	C	1.585672	-1.036182	-0.439047
C84	C	2.085672	-0.536182	0.060953
C85	C	1.451210	-1.036186	-0.573315
C86	C	1.951210	-0.536186	-0.073315
C87	C	1.451168	-0.970443	-0.573289
C88	C	1.951168	-0.470443	-0.073289
C89	C	1.518372	-0.937574	-0.506134
C90	C	2.018372	-0.437574	-0.006134
C91	C	1.792259	-0.303224	-0.506084
C92	C	2.292259	0.196776	-0.006084
C93	C	1.909036	-0.303230	-0.506091
C94	C	2.409036	0.196770	-0.006091
C95	C	1.518293	-0.303151	-0.780103
C96	C	2.018293	0.196849	-0.280103
C97	C	1.518322	-0.303126	-0.896880
C98	C	2.018322	0.196874	-0.396880
C99	C	1.518393	-0.139022	-0.506151
C100	C	2.018393	0.360978	-0.006151
C101	C	1.518464	-0.069054	-0.506185
C102	C	2.018464	0.430946	-0.006185
C103	C	1.451107	-0.343365	-0.951720
C104	C	1.951107	0.156635	-0.451720
C105	C	1.451145	-0.343342	-1.061444
C106	C	1.951145	0.156658	-0.561444
C107	C	1.585616	-0.262835	-1.061478
C108	C	2.085616	0.237165	-0.561478
C109	C	1.585582	-0.262861	-0.951756
C110	C	2.085582	0.237139	-0.451756
C111	C	1.383846	-0.383629	-0.896843
C112	C	1.883846	0.116371	-0.396843
C113	C	1.316625	-0.423872	-0.951684
C114	C	1.816625	0.076128	-0.451684
C115	C	1.316664	-0.423849	-1.061408
C116	C	1.816664	0.076151	-0.561408
C117	C	1.383923	-0.383584	-1.116292
C118	C	1.883923	0.116416	-0.616292
C119	C	1.518219	-0.303228	-0.233102
C120	C	2.018219	0.196772	0.266898
C121	C	1.518394	-0.303076	-0.116326
C122	C	2.018394	0.196924	0.383674
H123	H	0.919234	-0.456974	-0.761896
H124	H	1.419234	0.043026	-0.261896
H125	H	1.640172	-0.662101	-0.384261
H126	H	2.140172	-0.162101	0.115739
F127	F	1.379686	-1.071171	-0.644773
F128	F	1.879686	-0.571171	-0.144773
F129	F	1.379597	-0.935466	-0.644729
F130	F	1.879597	-0.435466	-0.144729
H131	H	1.640375	-0.230052	-1.106173
H132	H	2.140375	0.269948	-0.606173
H133	H	1.118292	-0.230074	-0.384415
H134	H	1.618292	0.269926	0.115585
H135	H	0.919223	-0.230099	-0.384426
H136	H	1.419223	0.269901	0.115574
F137	F	1.379436	-0.670333	-0.644650
F138	F	1.879436	-0.170333	-0.144650
F139	F	1.383794	-0.383654	-0.780066
F140	F	1.883794	0.116346	-0.280066
F141	F	1.245258	-0.383826	-0.640186
F142	F	1.745258	0.116174	-0.140186
F143	F	0.792253	-0.383851	-0.640243
F144	F	1.292253	0.116149	-0.140243
H145	H	1.383956	-0.383572	-1.205637
H146	H	1.883956	0.116428	-0.705637
H147	H	1.640089	-0.542835	-0.384219
H148	H	2.140089	-0.042835	0.115781
H149	H	1.118299	-0.456956	-0.761869
H150	H	1.618299	0.043044	-0.261869
F151	F	1.379352	-0.534625	-0.644622
F152	F	1.879352	-0.034625	-0.144622
H153	H	1.640347	-0.943675	-0.384338
H154	H	2.140347	-0.443675	0.115662
H155	H	1.640313	-0.230094	-0.907104
H156	H	2.140313	0.269906	-0.407104
F157	F	1.245133	-0.466683	-1.119770
F158	F	1.745133	0.033317	-0.619770
F159	F	1.657249	-1.071158	-0.367608
F160	F	2.157249	-0.571158	0.132392
F161	F	1.245055	-0.466727	-0.893271
F162	F	1.745055	0.033273	-0.393271
