data_functionalizedCrystal
_audit_creation_method	'MofGen! by Chris Wilmer'
_symmetry_space_group_name_H-M	'P1'
_symmetry_Int_Tables_number	1
_symmetry_cell_setting	triclinic
loop_
_symmetry_equiv_pos_as_xyz
  x,y,z
_cell_length_a	12.759401
_cell_length_b	18.050589
_cell_length_c	12.759393
_cell_angle_alpha	90.030621
_cell_angle_beta	90.018496
_cell_angle_gamma	90.028382
loop_
_atom_site_label
_atom_site_type_symbol
_atom_site_fract_x
_atom_site_fract_y
_atom_site_fract_z
Zn1	Zn	1.606157	-0.295612	0.593988
Zn2	Zn	1.606010	-0.419823	0.418311
Zn3	Zn	1.430459	-0.295651	0.418328
Zn4	Zn	1.430406	-0.419766	0.593953
O5	O	1.518258	-0.357713	0.506145
O6	O	1.753158	-0.312097	0.570692
O7	O	1.582683	-0.403391	0.271292
O8	O	1.453849	-0.191722	0.441651
O9	O	1.753050	-0.403354	0.441623
O10	O	1.582934	-0.191693	0.570708
O11	O	1.453706	-0.312163	0.271304
O12	O	1.283431	-0.312108	0.441617
O13	O	1.453759	-0.403256	0.740979
O14	O	1.283392	-0.403294	0.570648
O15	O	1.582882	-0.312041	0.741005
O16	O	1.582632	-0.523740	0.441589
O17	O	1.453616	-0.523698	0.570632
C18	C	1.245290	-0.357699	0.506131
C19	C	1.128514	-0.357711	0.506149
C20	C	1.073659	-0.405268	0.573225
C21	C	0.963935	-0.405277	0.573236
C22	C	0.963930	-0.310171	0.439088
C23	C	1.073652	-0.310159	0.439083
C24	C	1.128521	-0.452820	0.640292
C25	C	1.073666	-0.500382	0.707372
C26	C	0.963942	-0.500391	0.707383
C27	C	0.909072	-0.452839	0.640314
C28	C	1.518131	-0.550665	0.506127
C29	C	1.518173	-0.633211	0.506155
C30	C	1.448083	-0.832666	0.576304
C31	C	1.422469	-0.882114	0.480436
C32	C	1.518276	-0.784341	0.506169
C33	C	1.543942	-0.881974	0.602048
C34	C	1.518374	-0.930326	0.506191
C35	C	1.492611	-0.832703	0.410250
C36	C	1.614129	-0.832558	0.531927
C37	C	1.588551	-0.881985	0.435992
C38	C	1.518217	-0.700243	0.506158
C39	C	1.518433	-1.014423	0.506191
C40	C	1.792291	-0.357727	0.506160
C41	C	1.909068	-0.357733	0.506166
C42	C	1.518331	-0.357638	0.780178
C43	C	1.518363	-0.357606	0.896955
C44	C	1.518414	-0.164007	0.506185
C45	C	1.518480	-0.081462	0.506203
C46	C	1.518245	-0.357734	0.233178
C47	C	1.518417	-0.357557	0.116401
C48	C	1.585606	-0.310106	0.951832
C49	C	1.585631	-0.310079	1.061557
C50	C	1.451166	-0.405059	1.061516
C51	C	1.451136	-0.405081	0.951794
C52	C	1.652833	-0.262631	0.896993
C53	C	1.720083	-0.215128	0.951871
C54	C	1.720108	-0.215101	1.061595
C55	C	1.652883	-0.262577	1.116442
H56	H	0.819728	-0.452844	0.640338
H57	H	1.652822	-0.262649	0.807650
H58	H	1.695124	-0.810777	0.553739
H59	H	1.217863	-0.452820	0.640288
O60	O	1.572655	-0.910642	0.709439
H61	H	1.514222	-0.890888	0.767489
O62	O	1.792592	-0.163924	0.892725
H63	H	1.781288	-0.171928	0.807208
H64	H	1.396434	-0.443712	1.106181
H65	H	1.652896	-0.262543	1.205786
H66	H	1.774858	-0.176416	1.106273
O67	O	0.904738	-0.258901	0.366747
H68	H	0.925810	-0.200623	0.384903
O69	O	1.315153	-0.910945	0.451574
H70	H	1.316373	-0.972428	0.451106
O71	O	1.132836	-0.551653	0.779730
H72	H	1.218349	-0.543658	0.768456
O73	O	0.904771	-0.551763	0.779617
H74	H	0.961357	-0.584857	0.826201
O75	O	1.378610	-0.456311	0.892593
H76	H	1.331878	-0.489327	0.949157
H77	H	1.470848	-0.811149	0.329152
H78	H	1.118316	-0.271429	0.384472
H79	H	1.647952	-0.903503	0.376622
O80	O	1.369349	-0.803965	0.654755
H81	H	1.289882	-0.823813	0.633124
