data_functionalizedCrystal
_audit_creation_method	'MofGen! by Chris Wilmer'
_symmetry_space_group_name_H-M	'P1'
_symmetry_Int_Tables_number	1
_symmetry_cell_setting	triclinic
loop_
_symmetry_equiv_pos_as_xyz
  x,y,z
_cell_length_a	33.359672
_cell_length_b	33.359674
_cell_length_c	33.359725
_cell_angle_alpha	90.002336
_cell_angle_beta	59.997790
_cell_angle_gamma	119.999824
loop_
_atom_site_label
_atom_site_type_symbol
_atom_site_fract_x
_atom_site_fract_y
_atom_site_fract_z
O1	O	0.353587	-0.274991	-0.011927
O2	O	0.271501	-0.216698	0.011867
O3	O	0.353584	-0.216698	-0.070218
O4	O	0.271504	-0.274991	0.070158
O5	O	0.286913	-0.283369	-0.070217
O6	O	0.204830	-0.283369	0.011868
O7	O	0.286915	-0.341662	-0.011926
Cu8	Cu	0.239785	-0.318603	-0.000029
Cu9	Cu	0.318632	-0.239757	-0.000030
O10	O	0.204833	-0.341662	0.070158
C11	C	0.117512	-0.073731	0.028809
C12	C	0.068931	-0.098077	0.029147
C13	C	0.117509	-0.146322	0.028814
C14	C	0.068928	-0.170558	0.029151
C15	C	0.044923	-0.146320	0.028809
C16	C	0.141407	-0.098079	0.029151
C17	C	0.196155	0.004722	0.022919
C18	C	0.222880	0.054297	0.019200
C19	C	0.199944	0.079161	0.017331
C20	C	0.228920	0.132913	0.013296
C21	C	0.150277	0.054455	0.019187
C22	C	0.123552	0.004883	0.022908
C23	C	0.146493	-0.019981	0.024772
C24	C	-0.027638	-0.146130	0.022914
C25	C	-0.073493	-0.168979	0.019194
C26	C	-0.096492	-0.216782	0.017330
C27	C	-0.146209	-0.241558	0.013295
C28	C	-0.073644	-0.241744	0.019190
C29	C	-0.027793	-0.218897	0.022912
C30	C	-0.004790	-0.171090	0.024771
C31	C	0.196149	-0.146136	0.022928
C32	C	0.222876	-0.168985	0.019206
C33	C	0.199936	-0.216787	0.017342
C34	C	0.228910	-0.241565	0.013312
C35	C	0.150274	-0.241745	0.019196
C36	C	0.123547	-0.218899	0.022915
C37	C	0.146487	-0.171094	0.024781
O38	O	-0.279069	-0.341655	-0.011947
O39	O	-0.162484	-0.283360	0.011844
O40	O	-0.162479	-0.283364	-0.070239
O41	O	-0.279074	-0.341650	0.070137
O42	O	-0.162476	-0.216692	-0.070243
O43	O	-0.162482	-0.216688	0.011840
O44	O	-0.279066	-0.274982	-0.011951
Cu45	Cu	-0.220774	-0.239747	-0.000056
Cu46	Cu	-0.220777	-0.318595	-0.000051
O47	O	-0.279072	-0.274978	0.070133
C48	C	0.440913	-0.146329	-0.367177
C49	C	0.489495	-0.098086	-0.391412
C50	C	0.440913	-0.146329	-0.294588
C51	C	0.489495	-0.098086	-0.318933
C52	C	0.513502	-0.073740	-0.367176
C53	C	0.417016	-0.170565	-0.318934
C54	C	0.362270	-0.219081	-0.366989
C55	C	0.335546	-0.242087	-0.389839
C56	C	0.358484	-0.217283	-0.437640
C57	C	0.329509	-0.242225	-0.462417
C58	C	0.408152	-0.169473	-0.462601
C59	C	0.434876	-0.146469	-0.439753
C60	C	0.411933	-0.171273	-0.391947
C61	C	0.586065	0.004714	-0.439927
C62	C	0.631921	0.054287	-0.462933
C63	C	0.654919	0.079151	-0.438129
C64	C	0.704637	0.132902	-0.463070
C65	C	0.632069	0.054444	-0.390319
C66	C	0.586218	0.004872	-0.367315
C67	C	0.563216	-0.019991	-0.392119
C68	C	0.362270	-0.219081	-0.216134
C69	C	0.335542	-0.242085	-0.166558
C70	C	0.358480	-0.217281	-0.141694
C71	C	0.329505	-0.242223	-0.087942
C72	C	0.408143	-0.169473	-0.166398
C73	C	0.434872	-0.146467	-0.215972
C74	C	0.411933	-0.171273	-0.240838
C75	C	0.513517	-0.412027	-0.028902
C76	C	0.489511	-0.460269	-0.029242
C77	C	0.440925	-0.412028	-0.028898
C78	C	0.417029	-0.460271	-0.029238
C79	C	0.440928	-0.484616	-0.028901
C80	C	0.489508	-0.387792	-0.029238
C81	C	0.586081	-0.339274	-0.023012
C82	C	0.631938	-0.316267	-0.019295
C83	C	0.654938	-0.341070	-0.017432
C84	C	0.704657	-0.316127	-0.013400
C85	C	0.632089	-0.388880	-0.019290
C86	C	0.586236	-0.411885	-0.023009
C87	C	0.563232	-0.387082	-0.024867
C88	C	0.435229	-0.563069	-0.023015
C89	C	0.408662	-0.612643	-0.019298
C90	C	0.358994	-0.637507	-0.017431
C91	C	0.330184	-0.691258	-0.013399
C92	C	0.335888	-0.612801	-0.019285
C93	C	0.362454	-0.563229	-0.023004
C94	C	0.412123	-0.538365	-0.024867
C95	C	0.435220	-0.339277	-0.023003
C96	C	0.408646	-0.316273	-0.019276
C97	C	0.358978	-0.341078	-0.017410
C98	C	0.330165	-0.316137	-0.013373
C99	C	0.335875	-0.388886	-0.019265
C100	C	0.362444	-0.411892	-0.022990
C101	C	0.412117	-0.387085	-0.024859
O102	O	0.286933	0.291016	-0.011949
O103	O	0.204848	0.150641	0.011842
O104	O	0.286934	0.232718	-0.070242
O105	O	0.204846	0.208939	0.070135
O106	O	0.353602	0.232716	-0.070238
O107	O	0.271516	0.150639	0.011846
O108	O	0.353601	0.291014	-0.011945
Cu109	Cu	0.318646	0.220827	-0.000049
Cu110	Cu	0.239803	0.220829	-0.000054
O111	O	0.271514	0.208937	0.070139
O112	O	0.837498	0.291002	-0.495832
O113	O	0.720911	0.150628	-0.437542
O114	O	0.720908	0.232707	-0.437536
O115	O	0.837501	0.208922	-0.495838
O116	O	0.720909	0.232709	-0.504208
O117	O	0.720912	0.150629	-0.504214
O118	O	0.837499	0.291004	-0.562504
Cu119	Cu	0.779206	0.220817	-0.539447
Cu120	Cu	0.779204	0.220815	-0.460599
O121	O	0.837502	0.208924	-0.562510
O122	O	0.271499	-0.274996	-0.562510
O123	O	0.353583	-0.216699	-0.504219
O124	O	0.271499	-0.216701	-0.504213
O125	O	0.353584	-0.274994	-0.562515
O126	O	0.204829	-0.283371	-0.437542
O127	O	0.286913	-0.283369	-0.437547
O128	O	0.204829	-0.341666	-0.495839
Cu129	Cu	0.239784	-0.318605	-0.460605
Cu130	Cu	0.318629	-0.239760	-0.539452
O131	O	0.286914	-0.341664	-0.495844
C132	C	0.044913	-0.484622	0.367117
C133	C	0.068919	-0.460277	0.391353
C134	C	0.117502	-0.412033	0.294528
C135	C	0.141398	-0.387798	0.318875
C136	C	0.117501	-0.412034	0.367118
C137	C	0.068920	-0.460276	0.318874
C138	C	-0.027650	-0.563076	0.366926
C139	C	-0.073506	-0.612649	0.389775
C140	C	-0.096504	-0.637513	0.437576
C141	C	-0.146222	-0.691265	0.462352
C142	C	-0.073655	-0.612807	0.462538
C143	C	-0.027803	-0.563235	0.439692
C144	C	-0.004801	-0.538372	0.391885
C145	C	0.123202	-0.412223	0.439871
C146	C	0.149770	-0.389374	0.462878
C147	C	0.199437	-0.341572	0.438075
C148	C	0.228247	-0.316796	0.463017
C149	C	0.222541	-0.316611	0.390264
C150	C	0.195974	-0.339458	0.367259
C151	C	0.146307	-0.387264	0.392063
C152	C	0.123205	-0.412221	0.216073
C153	C	0.149777	-0.389373	0.166497
C154	C	0.199444	-0.341571	0.141635
C155	C	0.228255	-0.316795	0.087883
C156	C	0.222548	-0.316613	0.166340
C157	C	0.195980	-0.339459	0.215914
C158	C	0.146308	-0.387263	0.240779
C159	C	0.117538	-0.073747	-0.367204
C160	C	0.141435	-0.098094	-0.391438
C161	C	0.044944	-0.146333	-0.294613
C162	C	0.068952	-0.170570	-0.318957
C163	C	0.117536	-0.146337	-0.367200
C164	C	0.068953	-0.098090	-0.318960
C165	C	0.123241	0.004709	-0.367018
C166	C	0.149810	0.054282	-0.389869
C167	C	0.199480	0.079143	-0.437671
C168	C	0.228292	0.132895	-0.462450
C169	C	0.222584	0.054435	-0.462631
C170	C	0.196015	0.004864	-0.439782
C171	C	0.146346	-0.019997	-0.391975
C172	C	0.196182	-0.146152	-0.439951
C173	C	0.222906	-0.169003	-0.462956
C174	C	0.199966	-0.216805	-0.438150
C175	C	0.228941	-0.241583	-0.463090
C176	C	0.150296	-0.241763	-0.390340
C177	C	0.123571	-0.218914	-0.367337
C178	C	0.146516	-0.171108	-0.392143
C179	C	-0.027622	-0.146140	-0.216160
C180	C	-0.073477	-0.168985	-0.166583
C181	C	-0.096477	-0.216787	-0.141718
C182	C	-0.146198	-0.241561	-0.087966
C183	C	-0.073627	-0.241747	-0.166421
C184	C	-0.027772	-0.218904	-0.215995
C185	C	-0.004772	-0.171100	-0.240863
C186	C	-0.559087	-0.412008	0.367094
C187	C	-0.582986	-0.460250	0.391332
C188	C	-0.486495	-0.412011	0.294506
C189	C	-0.510504	-0.460253	0.318854
C190	C	-0.559088	-0.484598	0.367097
C191	C	-0.510503	-0.387774	0.318851
C192	C	-0.564788	-0.339255	0.366903
C193	C	-0.591356	-0.316247	0.389752
C194	C	-0.641026	-0.341049	0.437554
C195	C	-0.669837	-0.316106	0.462329
C196	C	-0.664132	-0.388859	0.462516
C197	C	-0.637563	-0.411865	0.439670
C198	C	-0.587894	-0.387063	0.391863
C199	C	-0.637735	-0.563049	0.439851
C200	C	-0.664460	-0.612623	0.462858
C201	C	-0.641521	-0.637487	0.438055
C202	C	-0.670498	-0.691239	0.462998
C203	C	-0.591851	-0.612783	0.390245
C204	C	-0.565125	-0.563211	0.367239
C205	C	-0.588069	-0.538347	0.392042
C206	C	-0.413927	-0.339261	0.216051
C207	C	-0.368073	-0.316259	0.166474
C208	C	-0.345074	-0.341064	0.141612
C209	C	-0.295353	-0.316124	0.087860
C210	C	-0.367925	-0.388872	0.166317
C211	C	-0.413780	-0.411877	0.215892
C212	C	-0.436778	-0.387069	0.240756
C213	C	0.513514	0.249625	-0.367189
C214	C	0.489508	0.249961	-0.391427
C215	C	0.440928	0.249639	-0.294605
C216	C	0.417032	0.249974	-0.318952
C217	C	0.440927	0.249627	-0.367194
C218	C	0.489508	0.249973	-0.318948
C219	C	0.586074	0.243733	-0.366995
C220	C	0.631928	0.240010	-0.389841
C221	C	0.654924	0.238136	-0.437642
C222	C	0.704640	0.234097	-0.462414
C223	C	0.632075	0.239990	-0.462604
C224	C	0.586226	0.243715	-0.439760
C225	C	0.563225	0.245584	-0.391956
C226	C	0.435225	0.243725	-0.439945
C227	C	0.408657	0.240003	-0.462953
C228	C	0.358992	0.238143	-0.438152
C229	C	0.330182	0.234106	-0.463094
C230	C	0.335889	0.240008	-0.390343
C231	C	0.362457	0.243732	-0.367337
C232	C	0.412122	0.245588	-0.392139
C233	C	0.435227	0.243760	-0.216150
C234	C	0.408656	0.240045	-0.166575
C235	C	0.358990	0.238184	-0.141715
C236	C	0.330181	0.234160	-0.087964
C237	C	0.335887	0.240036	-0.166421
C238	C	0.362454	0.243749	-0.215994
C239	C	0.412123	0.245612	-0.240856
O240	O	0.353642	0.290996	-0.562541
O241	O	0.271549	0.150620	-0.504250
O242	O	0.353625	0.232694	-0.504240
O243	O	0.271565	0.208921	-0.562552
O244	O	0.286949	0.232697	-0.437571
O245	O	0.204872	0.150622	-0.437582
O246	O	0.286966	0.290998	-0.495873
Cu247	Cu	0.239831	0.220810	-0.460640
Cu248	Cu	0.318683	0.220807	-0.539483
O249	O	0.204889	0.208924	-0.495884
C250	C	0.117521	0.192028	0.367091
C251	C	0.068941	0.191695	0.391324
C252	C	0.117521	0.192017	0.294502
C253	C	0.068941	0.191683	0.318845
C254	C	0.044935	0.192031	0.367086
C255	C	0.141416	0.191681	0.318849
C256	C	0.196161	0.197916	0.366906
C257	C	0.222885	0.201637	0.389757
C258	C	0.199948	0.203511	0.437557
C259	C	0.228922	0.207547	0.462335
C260	C	0.150282	0.201659	0.462515
C261	C	0.123559	0.197936	0.439666
C262	C	0.146500	0.196067	0.391862
C263	C	-0.027624	0.197935	0.439833
C264	C	-0.073477	0.201659	0.462836
C265	C	-0.096474	0.203521	0.438030
C266	C	-0.146190	0.207561	0.462968
C267	C	-0.073626	0.201656	0.390221
C268	C	-0.027777	0.197931	0.367220
C269	C	-0.004776	0.196072	0.392026
C270	C	0.196160	0.197893	0.216052
C271	C	0.222888	0.201609	0.166476
C272	C	0.199950	0.203471	0.141611
C273	C	0.228924	0.207496	0.087861
C274	C	0.150289	0.201622	0.166313
C275	C	0.123561	0.197908	0.215886
C276	C	0.146499	0.196044	0.240753
H277	H	0.048839	-0.078529	0.029694
C278	C	0.194209	-0.334250	0.292476
C279	C	0.249395	-0.321092	0.284879
C280	C	0.302204	-0.267546	0.258483
C281	C	0.299828	-0.227159	0.239685
C282	C	0.244640	-0.240316	0.247282
C283	C	0.191831	-0.293861	0.273678
H284	H	0.251156	-0.350990	0.298794
H285	H	0.343058	-0.257807	0.252859
H286	H	0.338920	-0.187521	0.220146
H287	H	0.242879	-0.210418	0.233367
H288	H	0.150977	-0.303601	0.279302
H289	H	0.509606	-0.479813	-0.029789
H290	H	0.131604	0.074708	0.017665
H291	H	0.180534	-0.078545	-0.431075
C292	C	0.068917	-0.246352	0.024955
C293	C	0.067310	-0.225111	-0.014782
C294	C	0.012680	-0.252565	-0.012742
C295	C	-0.040342	-0.301260	0.029035
C296	C	-0.038737	-0.322503	0.068775
C297	C	0.015893	-0.295049	0.066735
H298	H	0.106562	-0.189062	-0.045711
H299	H	0.011492	-0.236839	-0.042161
H300	H	-0.080783	-0.321583	0.030544
H301	H	-0.077990	-0.358552	0.099703
H302	H	0.017081	-0.310775	0.096154
C303	C	0.281252	0.237960	-0.363059
C304	C	0.228140	0.196186	-0.314394
C305	C	0.173504	0.194139	-0.287109
C306	C	0.171980	0.233867	-0.308488
C307	C	0.225095	0.275644	-0.357156
C308	C	0.279731	0.277691	-0.384442
H309	H	0.229266	0.166774	-0.298565
H310	H	0.134185	0.163212	-0.251081
H311	H	0.131536	0.232352	-0.288290
H312	H	0.223969	0.305056	-0.372985
H313	H	0.319049	0.308618	-0.420469
H314	H	0.048837	-0.210196	0.029697
H315	H	0.426818	-0.149274	-0.146148
C316	C	-0.510147	-0.311970	0.314318
C317	C	-0.455129	-0.302261	0.304147
C318	C	-0.400491	-0.274977	0.251560
C319	C	-0.400870	-0.257404	0.209145
C320	C	-0.455890	-0.267113	0.219315
C321	C	-0.510529	-0.294397	0.271902
H322	H	-0.454846	-0.315270	0.335547
H323	H	-0.359761	-0.267790	0.244032
H324	H	-0.360423	-0.237207	0.170217
H325	H	-0.456173	-0.254104	0.187915
H326	H	-0.551258	-0.301584	0.279430
C327	C	-0.098954	-0.640161	0.515123
C328	C	-0.123802	-0.622211	0.557542
C329	C	-0.149098	-0.649561	0.610127
C330	C	-0.149546	-0.694861	0.620292
C331	C	-0.124697	-0.712814	0.577872
C332	C	-0.099401	-0.685464	0.525288
H333	H	-0.123471	-0.588674	0.550018
H334	H	-0.167493	-0.636271	0.641529
H335	H	-0.168271	-0.715108	0.659219
H336	H	-0.125027	-0.746350	0.585396
H337	H	-0.081006	-0.698754	0.493885
H338	H	0.377914	-0.210198	-0.299385
C339	C	-0.510493	-0.536038	0.314650
C340	C	-0.455390	-0.490779	0.304394
C341	C	-0.400758	-0.463606	0.251804
C342	C	-0.401229	-0.481692	0.209470
C343	C	-0.456334	-0.526953	0.219724
C344	C	-0.510966	-0.554126	0.272315
H345	H	-0.455039	-0.477388	0.335734
H346	H	-0.359965	-0.430101	0.244213
H347	H	-0.360786	-0.461577	0.170540
H348	H	-0.456684	-0.540344	0.188385
H349	H	-0.551759	-0.587631	0.279905
C350	C	0.277186	-0.264027	0.138991
C351	C	0.276801	-0.221613	0.156947
C352	C	0.331438	-0.169027	0.129597
C353	C	0.386459	-0.158855	0.084290
C354	C	0.386846	-0.201270	0.066331
C355	C	0.332210	-0.253856	0.093682
H356	H	0.236069	-0.229142	0.190488
H357	H	0.331151	-0.137628	0.142891
H358	H	0.426905	-0.119927	0.064044
H359	H	0.427578	-0.193741	0.032790
H360	H	0.332497	-0.285254	0.080387
C361	C	0.041780	-0.486677	0.444902
C362	C	0.076209	-0.494274	0.458061
C363	C	0.049073	-0.520672	0.511607
C364	C	-0.012492	-0.539471	0.551995
C365	C	-0.046925	-0.531875	0.538837
C366	C	-0.019789	-0.505477	0.485290
H367	H	0.121786	-0.480357	0.428163
H368	H	0.074562	-0.526295	0.521347
H369	H	-0.032580	-0.559012	0.591633
H370	H	-0.092502	-0.545792	0.568735
H371	H	-0.045278	-0.499854	0.475550
C372	C	-0.565945	-0.263662	0.362295
C373	C	-0.559029	-0.252422	0.313600
C374	C	-0.533618	-0.199834	0.286145
C375	C	-0.515123	-0.158487	0.307385
C376	C	-0.522039	-0.169726	0.356082
C377	C	-0.547450	-0.222313	0.383537
H378	H	-0.572721	-0.283031	0.297875
H379	H	-0.528499	-0.191514	0.250096
H380	H	-0.496312	-0.119558	0.287061
H381	H	-0.508347	-0.139117	0.371808
H382	H	-0.552569	-0.230633	0.419587
C383	C	-0.098945	-0.294331	0.017138
C384	C	-0.161576	-0.335585	0.056866
C385	C	-0.186874	-0.388171	0.054814
C386	C	-0.149541	-0.399503	0.013034
C387	C	-0.086905	-0.358247	-0.026697
C388	C	-0.061607	-0.305661	-0.024645
H389	H	-0.189216	-0.327198	0.087797
H390	H	-0.233241	-0.418711	0.084226
H391	H	-0.168268	-0.438430	0.011516
H392	H	-0.059266	-0.366635	-0.057628
H393	H	-0.015241	-0.275121	-0.054058
C394	C	0.068930	0.195900	0.467113
C395	C	0.069403	0.238711	0.484716
C396	C	0.014774	0.236674	0.512161
C397	C	-0.040328	0.191827	0.522004
C398	C	-0.040803	0.149013	0.504401
C399	C	0.013826	0.151049	0.476955
H400	H	0.110195	0.271912	0.477430
H401	H	0.015126	0.268368	0.525192
H402	H	-0.080768	0.190319	0.542321
H403	H	-0.081595	0.115811	0.511687
H404	H	0.013474	0.119355	0.463924
H405	H	-0.092076	0.203175	0.501762
C406	C	0.068567	-0.464806	0.243423
C407	C	0.013544	-0.474981	0.288730
C408	C	-0.041091	-0.527568	0.316078
C409	C	-0.040702	-0.569980	0.298120
C410	C	0.014324	-0.559807	0.252812
C411	C	0.068959	-0.507219	0.225463
H412	H	0.013254	-0.443584	0.302025
H413	H	-0.081825	-0.535099	0.349618
H414	H	-0.081145	-0.608909	0.318365
H415	H	0.014614	-0.591204	0.239516
H416	H	0.109693	-0.499688	0.191923
H417	H	0.567341	-0.015529	-0.460129
C418	C	0.657052	0.081462	-0.515521
C419	C	0.657469	0.126725	-0.525771
C420	C	0.682604	0.153904	-0.578359
C421	C	0.707323	0.135821	-0.620697
C422	C	0.706907	0.090555	-0.610448
C423	C	0.681771	0.063376	-0.557860
H424	H	0.639170	0.140114	-0.494429
H425	H	0.682912	0.187413	-0.585946
H426	H	0.725929	0.155940	-0.659626
H427	H	0.725205	0.077166	-0.641791
H428	H	0.681463	0.029867	-0.550274
C429	C	-0.098621	-0.141521	0.017147
C430	C	-0.161209	-0.162759	0.056882
C431	C	-0.186342	-0.135304	0.054835
C432	C	-0.148887	-0.086612	0.013053
C433	C	-0.086296	-0.065372	-0.026684
C434	C	-0.061163	-0.092826	-0.024637
H435	H	-0.188939	-0.198806	0.087813
H436	H	-0.232677	-0.151028	0.084251
H437	H	-0.167492	-0.066289	0.011538
H438	H	-0.058566	-0.029324	-0.057616
H439	H	-0.014829	-0.077102	-0.054053
C440	C	-0.342627	-0.416163	0.138969
C441	C	-0.342168	-0.425881	0.093664
C442	C	-0.316867	-0.453169	0.066315
C443	C	-0.292026	-0.470739	0.084272
C444	C	-0.292484	-0.461022	0.129580
C445	C	-0.317785	-0.433734	0.156929
H446	H	-0.360558	-0.412874	0.080369
H447	H	-0.316528	-0.460362	0.032775
H448	H	-0.273297	-0.490939	0.064027
H449	H	-0.274094	-0.474028	0.142875
H450	H	-0.318124	-0.426540	0.190469
H451	H	0.343629	-0.450820	-0.024499
H452	H	0.567616	-0.015243	-0.328388
C453	C	0.561092	0.245753	-0.467216
C454	C	0.560686	0.290602	-0.477066
C455	C	0.535552	0.292641	-0.504523
C456	C	0.510825	0.249830	-0.522129
C457	C	0.511230	0.204978	-0.512278
C458	C	0.536364	0.202939	-0.484822
H459	H	0.578992	0.322296	-0.464033
H460	H	0.535253	0.325843	-0.511815
H461	H	0.492220	0.251339	-0.542454
H462	H	0.492925	0.173284	-0.525311
H463	H	0.536664	0.169737	-0.477530
C464	C	0.433383	-0.142186	-0.515186
C465	C	0.493752	-0.124616	-0.557605
C466	C	0.518987	-0.097327	-0.610189
C467	C	0.483853	-0.087609	-0.620355
C468	C	0.423480	-0.105179	-0.577936
C469	C	0.398246	-0.132468	-0.525351
H470	H	0.519764	-0.131810	-0.550080
H471	H	0.563679	-0.084320	-0.641591
H472	H	0.502533	-0.067408	-0.659282
H473	H	0.397468	-0.097985	-0.585460
H474	H	0.353554	-0.145475	-0.493949
H475	H	0.377938	0.250520	-0.299405
H476	H	0.214828	-0.015253	-0.460105
C477	C	0.516636	0.250703	-0.292530
C478	C	0.522166	0.208662	-0.284904
C479	C	0.549285	0.209388	-0.258481
C480	C	0.570874	0.252154	-0.239684
C481	C	0.565344	0.294199	-0.247310
C482	C	0.538225	0.293473	-0.273732
H483	H	0.506184	0.177001	-0.298819
H484	H	0.553378	0.178263	-0.252837
H485	H	0.590949	0.252691	-0.220125
H486	H	0.581326	0.325860	-0.233395
H487	H	0.534132	0.324597	-0.279377
H488	H	0.082795	-0.015532	-0.328093
C489	C	0.434070	0.237951	-0.515539
C490	C	0.440980	0.196167	-0.526774
C491	C	0.466388	0.194115	-0.579360
C492	C	0.484887	0.233846	-0.620712
C493	C	0.477977	0.275632	-0.609478
C494	C	0.452569	0.277685	-0.556892
H495	H	0.427286	0.166754	-0.496162
H496	H	0.471503	0.163181	-0.587676
H497	H	0.503696	0.232326	-0.659640
H498	H	0.491671	0.305046	-0.640090
H499	H	0.447454	0.308618	-0.548576
C500	C	0.194216	-0.071680	0.029892
C501	C	0.249416	-0.024103	-0.012140
C502	C	0.302222	0.002292	-0.011399
C503	C	0.299829	-0.018890	0.031373
C504	C	0.244626	-0.066469	0.073408
C505	C	0.191820	-0.092864	0.072667
H506	H	0.251189	-0.008421	-0.043806
H507	H	0.343086	0.037513	-0.042516
H508	H	0.338919	0.000649	0.031922
H509	H	0.242853	-0.082151	0.105074
H510	H	0.150956	-0.128085	0.103785
C511	C	0.277502	-0.141533	0.017169
C512	C	0.279114	-0.162781	0.056899
C513	C	0.333745	-0.135329	0.054857
C514	C	0.386764	-0.086629	0.013086
C515	C	0.385155	-0.065379	-0.026647
C516	C	0.330523	-0.092831	-0.024606
H517	H	0.239864	-0.198833	0.087824
H518	H	0.334936	-0.151060	0.084271
H519	H	0.427205	-0.066308	0.011574
H520	H	0.424404	-0.029326	-0.057572
H521	H	0.329332	-0.077100	-0.054019
C522	C	0.068934	0.195873	0.243060
C523	C	0.069410	0.238678	0.224968
C524	C	0.014783	0.236644	0.252142
C525	C	-0.040321	0.191805	0.297408
C526	C	-0.040800	0.148997	0.315503
C527	C	0.013828	0.151031	0.288329
H528	H	0.110204	0.271874	0.191457
H529	H	0.015138	0.268334	0.238747
H530	H	-0.080760	0.190300	0.317524
H531	H	-0.081593	0.115801	0.349014
H532	H	0.013473	0.119341	0.301724
C533	C	0.281247	-0.640155	-0.017230
C534	C	0.281629	-0.622204	-0.060028
C535	C	0.226990	-0.649554	-0.057974
C536	C	0.171969	-0.694855	-0.013123
C537	C	0.171585	-0.712808	0.029678
C538	C	0.226224	-0.685458	0.027624
H539	H	0.322360	-0.588667	-0.093232
H540	H	0.227274	-0.636263	-0.089658
H541	H	0.131522	-0.715101	-0.011602
H542	H	0.130853	-0.746345	0.062883
H543	H	0.225939	-0.698749	0.059309
C544	C	-0.342942	-0.263672	0.139302
C545	C	-0.342540	-0.253424	0.094048
C546	C	-0.317412	-0.200837	0.066873
C547	C	-0.292686	-0.158499	0.084952
C548	C	-0.293087	-0.168747	0.130208
C549	C	-0.318215	-0.221333	0.157383
H550	H	-0.360845	-0.284766	0.080662
H551	H	-0.317116	-0.193252	0.033371
H552	H	-0.274085	-0.119572	0.064835
H553	H	-0.274782	-0.137405	0.143594
H554	H	-0.318511	-0.228919	0.190885
H555	H	0.650802	0.074696	-0.370125
H556	H	-0.656419	-0.542806	0.460050
C557	C	0.489509	-0.093882	-0.467204
C558	C	0.542530	-0.082638	-0.515902
C559	C	0.597165	-0.030051	-0.543352
C560	C	0.598778	0.011292	-0.522104
C561	C	0.545755	0.000049	-0.473403
C562	C	0.491121	-0.052537	-0.445953
H563	H	0.541338	-0.113244	-0.531634
H564	H	0.636416	-0.021729	-0.579404
H565	H	0.639222	0.050220	-0.542424
H566	H	0.546948	0.030655	-0.457671
H567	H	0.451869	-0.060860	-0.409901
C568	C	0.194225	0.190938	0.292442
C569	C	0.191845	0.148175	0.313624
C570	C	0.244651	0.147433	0.287215
C571	C	0.299838	0.189453	0.239623
C572	C	0.302221	0.232219	0.218437
C573	C	0.249414	0.232961	0.244847
H574	H	0.150990	0.117067	0.348857
H575	H	0.242888	0.115775	0.302898
H576	H	0.338929	0.188903	0.220073
H577	H	0.343075	0.263327	0.183204
H578	H	0.251178	0.264619	0.229164
H579	H	0.295108	-0.281013	-0.146449
H580	H	-0.008899	-0.107217	-0.236405
C581	C	0.041808	-0.224117	-0.292550
C582	C	0.076233	-0.237278	-0.284946
C583	C	0.049091	-0.290822	-0.258539
C584	C	-0.012474	-0.331206	-0.239736
C585	C	-0.046902	-0.318047	-0.247340
C586	C	-0.019761	-0.264503	-0.273747
H587	H	0.121811	-0.207382	-0.298865
H588	H	0.074577	-0.300564	-0.252910
H589	H	-0.032566	-0.370843	-0.220188
H590	H	-0.092480	-0.347943	-0.233421
H591	H	-0.045247	-0.254761	-0.279375
H592	H	0.567351	0.245258	-0.328072
C593	C	0.434077	0.238017	-0.139405
C594	C	0.441012	0.196249	-0.135084
C595	C	0.466433	0.194221	-0.107911
C596	C	0.484919	0.233959	-0.085060
C597	C	0.477985	0.275730	-0.089380
C598	C	0.452564	0.277758	-0.116552
H599	H	0.427326	0.166830	-0.152000
H600	H	0.471566	0.163299	-0.104713
H601	H	0.503738	0.232458	-0.064945
H602	H	0.491670	0.305149	-0.072463
H603	H	0.447431	0.308680	-0.119750
C604	C	-0.718775	-0.416144	0.515102
C605	C	-0.720307	-0.394770	0.556360
C606	C	-0.774949	-0.422057	0.608945
C607	C	-0.828058	-0.470718	0.620272
C608	C	-0.826527	-0.492094	0.579012
C609	C	-0.771886	-0.464807	0.526427
H610	H	-0.680991	-0.358747	0.547976
H611	H	-0.776081	-0.406233	0.639488
H612	H	-0.868507	-0.490918	0.659198
H613	H	-0.865844	-0.528118	0.587396
H614	H	-0.770753	-0.480632	0.495884
H615	H	0.048864	-0.078540	-0.299417
C616	C	-0.098637	-0.639826	0.362319
C617	C	-0.123353	-0.621740	0.344702
C618	C	-0.148489	-0.648919	0.317249
C619	C	-0.148909	-0.694183	0.307413
C620	C	-0.124192	-0.712271	0.325031
C621	C	-0.099056	-0.685093	0.352484
H622	H	-0.123044	-0.588231	0.351982
H623	H	-0.166787	-0.635529	0.304207
H624	H	-0.167516	-0.714303	0.287091
H625	H	-0.124501	-0.745781	0.317750
H626	H	-0.080758	-0.698483	0.365526
H627	H	-0.622080	-0.479793	0.430971
C628	C	0.364217	-0.486682	-0.029975
C629	C	0.309019	-0.494301	0.012058
C630	C	0.256210	-0.520714	0.011321
C631	C	0.258600	-0.539507	-0.031450
C632	C	0.313801	-0.531889	-0.073486
C633	C	0.366610	-0.505476	-0.072749
H634	H	0.307248	-0.480388	0.043723
H635	H	0.215347	-0.526353	0.042439
H636	H	0.219508	-0.559060	-0.031996
H637	H	0.315572	-0.545801	-0.105151
H638	H	0.407473	-0.499836	-0.103867
C639	C	0.277510	0.203638	0.139309
C640	C	0.277027	0.160827	0.157398
C641	C	0.331653	0.162860	0.130228
C642	C	0.386763	0.207703	0.084969
C643	C	0.387248	0.250517	0.066877
C644	C	0.332622	0.248485	0.094047
H645	H	0.236230	0.127629	0.190904
H646	H	0.331294	0.131165	0.143620
H647	H	0.427200	0.209207	0.064856
H648	H	0.428045	0.283716	0.033372
H649	H	0.332981	0.280179	0.080655
C650	C	0.281250	0.237988	-0.139073
C651	C	0.228134	0.196205	-0.134616
C652	C	0.173499	0.194159	-0.107268
C653	C	0.171980	0.233897	-0.084377
C654	C	0.225098	0.275683	-0.088834
C655	C	0.279733	0.277729	-0.116182
H656	H	0.229257	0.166786	-0.151562
H657	H	0.134178	0.163226	-0.103968
H658	H	0.131536	0.232383	-0.064132
H659	H	0.223975	0.305102	-0.071888
H660	H	0.319054	0.308662	-0.119481
C661	C	0.277227	0.081786	-0.515217
C662	C	0.330336	0.086233	-0.526542
C663	C	0.384978	0.113581	-0.579127
C664	C	0.386511	0.136481	-0.620387
C665	C	0.333400	0.132035	-0.609063
C666	C	0.278759	0.104687	-0.556478
H667	H	0.329203	0.069281	-0.495998
H668	H	0.424294	0.116872	-0.587509
H669	H	0.426960	0.156726	-0.659313
H670	H	0.334533	0.148988	-0.639607
H671	H	0.239443	0.101396	-0.548095
C672	C	0.124355	-0.416832	0.515466
C673	C	0.117441	-0.465525	0.526706
C674	C	0.092031	-0.492979	0.579294
C675	C	0.073534	-0.471739	0.620642
C676	C	0.080447	-0.423043	0.609403
C677	C	0.105858	-0.395589	0.556815
H678	H	0.131134	-0.481251	0.496096
H679	H	0.086913	-0.529028	0.587614
H680	H	0.054723	-0.492062	0.659572
H681	H	0.066755	-0.407318	0.640013
H682	H	0.110976	-0.359541	0.548495
C683	C	0.124357	-0.416832	0.139329
C684	C	0.105870	-0.395592	0.116469
C685	C	0.080451	-0.423054	0.089299
C686	C	0.073519	-0.471758	0.084989
C687	C	0.092007	-0.493001	0.107850
C688	C	0.117426	-0.465538	0.135020
H689	H	0.111001	-0.359536	0.119658
H690	H	0.066765	-0.407329	0.072376
H691	H	0.054703	-0.492087	0.064876
H692	H	0.086876	-0.529056	0.104660
H693	H	0.131112	-0.481264	0.151943
H694	H	0.343643	0.245246	-0.328410
H695	H	0.048825	-0.479823	0.299329
C696	C	0.560781	-0.311988	-0.025063
C697	C	0.598107	-0.263332	-0.066847
C698	C	0.572805	-0.236046	-0.068894
C699	C	0.510176	-0.257417	-0.029157
C700	C	0.472847	-0.306076	0.012630
C701	C	0.498149	-0.333361	0.014677
H702	H	0.644472	-0.247509	-0.096266
H703	H	0.600439	-0.200026	-0.099828
H704	H	0.491446	-0.237219	-0.030672
H705	H	0.426482	-0.321898	0.042049
H706	H	0.470515	-0.369382	0.045612
C707	C	0.125036	-0.294332	0.017142
C708	C	0.064665	-0.336745	0.059938
C709	C	0.039428	-0.389330	0.057885
C710	C	0.074563	-0.399503	0.013035
C711	C	0.134938	-0.357088	-0.029764
C712	C	0.160175	-0.304503	-0.027711
H713	H	0.038652	-0.329216	0.093141
H714	H	-0.005266	-0.420728	0.089568
H715	H	0.055882	-0.438429	0.011515
H716	H	0.160951	-0.364617	-0.062967
H717	H	0.204869	-0.273105	-0.059394
H718	H	0.214866	-0.107227	-0.460154
H719	H	0.475667	0.245239	-0.460144
H720	H	0.263347	-0.148676	-0.501884
C721	C	0.337039	-0.246374	-0.243484
C722	C	0.276668	-0.263950	-0.225531
C723	C	0.251433	-0.291244	-0.252879
C724	C	0.286569	-0.300963	-0.298181
C725	C	0.346944	-0.283386	-0.316138
C726	C	0.372178	-0.256092	-0.288789
H727	H	0.250655	-0.256756	-0.191993
H728	H	0.206740	-0.304255	-0.239587
H729	H	0.267889	-0.321168	-0.318426
H730	H	0.372957	-0.290581	-0.349675
H731	H	0.416872	-0.243081	-0.302082
C732	C	0.281235	-0.416175	-0.017212
C733	C	0.281620	-0.433745	-0.060012
C734	C	0.226983	-0.461031	-0.057961
C735	C	0.171961	-0.470747	-0.013111
C736	C	0.171574	-0.453176	0.029691
C737	C	0.226211	-0.425891	0.027641
H738	H	0.322352	-0.426554	-0.093215
H739	H	0.227269	-0.474038	-0.089647
H740	H	0.131516	-0.490945	-0.011593
H741	H	0.130842	-0.460368	0.062895
H742	H	0.225925	-0.412884	0.059326
C743	C	0.124400	0.081461	-0.362418
C744	C	0.117481	0.085795	-0.313723
C745	C	0.092070	0.112976	-0.286275
C746	C	0.073578	0.135824	-0.307522
C747	C	0.080496	0.131491	-0.356219
C748	C	0.105907	0.104309	-0.383667
H749	H	0.131171	0.068881	-0.297993
H750	H	0.086949	0.116184	-0.250226
H751	H	0.054767	0.155945	-0.287203
H752	H	0.066806	0.148405	-0.371950
H753	H	0.111028	0.101102	-0.419716
C754	C	0.068925	-0.022291	0.024943
C755	C	0.067322	-0.045146	-0.014793
C756	C	0.012697	-0.072318	-0.012760
C757	C	-0.040325	-0.076636	0.029008
C758	C	-0.038724	-0.053780	0.068748
C759	C	0.015901	-0.026608	0.066715
H760	H	0.106574	-0.041950	-0.045715
H761	H	0.011512	-0.089237	-0.042178
H762	H	-0.080762	-0.096750	0.030513
H763	H	-0.077976	-0.056976	0.099670
H764	H	0.017086	-0.009689	0.096133
C765	C	0.489502	-0.093878	-0.243149
C766	C	0.542525	-0.082633	-0.247475
C767	C	0.597155	-0.030043	-0.274652
C768	C	0.598763	0.011300	-0.297503
C769	C	0.545739	0.000056	-0.293178
C770	C	0.491109	-0.052534	-0.266001
H771	H	0.541336	-0.113239	-0.230559
H772	H	0.636407	-0.021720	-0.277854
H773	H	0.639204	0.050230	-0.317621
H774	H	0.546928	0.030662	-0.310094
H775	H	0.451857	-0.060857	-0.262799
C776	C	-0.098615	-0.141530	-0.139418
C777	C	-0.061165	-0.092823	-0.135105
C778	C	-0.086305	-0.065367	-0.107939
C779	C	-0.148896	-0.086617	-0.085085
C780	C	-0.186349	-0.135326	-0.089398
C781	C	-0.161209	-0.162782	-0.116564
H782	H	-0.014829	-0.077090	-0.152023
H783	H	-0.058579	-0.029309	-0.104747
H784	H	-0.167506	-0.066292	-0.064975
H785	H	-0.232686	-0.151059	-0.072480
H786	H	-0.188935	-0.198840	-0.119756
C787	C	0.657390	-0.416166	-0.017238
C788	C	0.720021	-0.394794	-0.056968
C789	C	0.745319	-0.422082	-0.054917
C790	C	0.707986	-0.470742	-0.013135
C791	C	0.645352	-0.492117	0.026598
C792	C	0.620054	-0.464829	0.024546
H793	H	0.747660	-0.358770	-0.087900
H794	H	0.791685	-0.406258	-0.084330
H795	H	0.726713	-0.490942	-0.011617
H796	H	0.617712	-0.528140	0.057530
H797	H	0.573687	-0.480652	0.053959
H798	H	-0.432649	-0.319058	0.236294
C799	C	-0.719094	-0.639795	0.515447
C800	C	-0.774192	-0.685059	0.525699
C801	C	-0.828827	-0.712235	0.578288
C802	C	-0.828363	-0.694149	0.620624
C803	C	-0.773262	-0.648883	0.610373
C804	C	-0.718628	-0.621706	0.557784
H805	H	-0.774538	-0.698450	0.494359
H806	H	-0.869616	-0.745744	0.585877
H807	H	-0.868806	-0.714267	0.659554
H808	H	-0.772917	-0.635492	0.641713
H809	H	-0.677839	-0.588197	0.550195
C810	C	0.280916	-0.294674	-0.362385
C811	C	0.225815	-0.304932	-0.352549
C812	C	0.171186	-0.357521	-0.325097
C813	C	0.171657	-0.399854	-0.307481
C814	C	0.226760	-0.389597	-0.317317
C815	C	0.281390	-0.337007	-0.344769
H816	H	0.225464	-0.273594	-0.365589
H817	H	0.130395	-0.365114	-0.317816
H818	H	0.131217	-0.438784	-0.287160
H819	H	0.227111	-0.420935	-0.304277
H820	H	0.322181	-0.329415	-0.352050
H821	H	-0.573175	-0.633035	0.370052
H822	H	0.343587	-0.239282	-0.328064
H823	H	-0.009195	-0.239223	0.024430
C824	C	0.277181	-0.264025	0.362979
C825	C	0.332203	-0.253855	0.353258
C826	C	0.386841	-0.201270	0.325970
C827	C	0.386456	-0.158855	0.308404
C828	C	0.331432	-0.169024	0.318125
C829	C	0.276794	-0.221609	0.345412
H830	H	0.332489	-0.285254	0.366262
H831	H	0.427573	-0.193742	0.318775
H832	H	0.426902	-0.119928	0.288204
H833	H	0.331146	-0.137624	0.305121
H834	H	0.236062	-0.229137	0.352608
C835	C	-0.098926	-0.294333	-0.139070
C836	C	-0.123768	-0.336748	-0.157024
C837	C	-0.149070	-0.389334	-0.129673
C838	C	-0.149529	-0.399504	-0.084366
C839	C	-0.124686	-0.357088	-0.066409
C840	C	-0.099384	-0.304502	-0.093761
H841	H	-0.123429	-0.329221	-0.190565
H842	H	-0.167460	-0.420733	-0.142966
H843	H	-0.168259	-0.438431	-0.064119
H844	H	-0.125025	-0.364615	-0.032869
H845	H	-0.080993	-0.273103	-0.080468
H846	H	0.567634	-0.450812	-0.024522
H847	H	0.650536	-0.277341	-0.017781
C848	C	0.489868	-0.535717	-0.025070
C849	C	0.542985	-0.531258	-0.066857
C850	C	0.597622	-0.503908	-0.068908
C851	C	0.599143	-0.481016	-0.029172
C852	C	0.546024	-0.485474	0.012619
C853	C	0.491387	-0.512824	0.014669
H854	H	0.541861	-0.548205	-0.096275
H855	H	0.636944	-0.500608	-0.099844
H856	H	0.639588	-0.460769	-0.030690
H857	H	0.547148	-0.468527	0.042036
H858	H	0.452065	-0.516124	0.045606
H859	H	-0.009205	-0.543119	0.460019
C860	C	-0.662974	-0.464453	0.467121
C861	C	-0.723390	-0.506789	0.484730
C862	C	-0.748800	-0.559378	0.512180
C863	C	-0.713794	-0.569631	0.522021
C864	C	-0.653374	-0.527294	0.504413
C865	C	-0.627964	-0.474705	0.476962
H866	H	-0.749306	-0.499200	0.477444
H867	H	-0.793526	-0.590718	0.525215
H868	H	-0.732604	-0.608560	0.542342
H869	H	-0.627457	-0.534883	0.511698
H870	H	-0.583237	-0.443364	0.463927
C871	C	0.277512	0.203674	0.362306
C872	C	0.277037	0.160865	0.344695
C873	C	0.331664	0.162899	0.317246
C874	C	0.386767	0.207741	0.307408
C875	C	0.387244	0.250553	0.325019
C876	C	0.332617	0.248519	0.352468
H877	H	0.236245	0.127668	0.351977
H878	H	0.331310	0.131207	0.304209
H879	H	0.427205	0.209246	0.287088
H880	H	0.428036	0.283750	0.317736
H881	H	0.332971	0.280211	0.365504
C882	C	0.434063	-0.263684	-0.017239
C883	C	0.452543	-0.222343	-0.056967
C884	C	0.477959	-0.169753	-0.054927
C885	C	0.484895	-0.158504	-0.013159
C886	C	0.466414	-0.199847	0.026572
C887	C	0.440999	-0.252437	0.024532
H888	H	0.447410	-0.230669	-0.087890
H889	H	0.491639	-0.139149	-0.084339
H890	H	0.503709	-0.119574	-0.011649
H891	H	0.471548	-0.191521	0.057494
H892	H	0.427318	-0.283041	0.053944
C893	C	0.657060	0.237970	-0.362386
C894	C	0.619609	0.196198	-0.313687
C895	C	0.644746	0.194161	-0.286234
C896	C	0.707334	0.233897	-0.307479
C897	C	0.744789	0.275672	-0.356180
C898	C	0.719652	0.277709	-0.383633
H899	H	0.573274	0.166780	-0.297958
H900	H	0.617019	0.163236	-0.250182
H901	H	0.725942	0.232389	-0.287156
H902	H	0.791124	0.305090	-0.371909
H903	H	0.747378	0.308634	-0.419685
C904	C	0.657372	0.237925	-0.515188
C905	C	0.620035	0.196140	-0.526510
C906	C	0.645329	0.194076	-0.579093
C907	C	0.707960	0.233799	-0.620353
C908	C	0.745301	0.275587	-0.609032
C909	C	0.720007	0.277651	-0.556449
H910	H	0.573668	0.166733	-0.495966
H911	H	0.617687	0.163142	-0.587473
H912	H	0.726685	0.232271	-0.659278
H913	H	0.791668	0.304994	-0.639577
H914	H	0.747650	0.308585	-0.548069
H915	H	-0.432385	-0.450805	0.236006
C916	C	0.337044	0.245788	-0.243173
C917	C	0.276622	0.202985	-0.225085
C918	C	0.251211	0.205022	-0.252264
C919	C	0.286221	0.249863	-0.297531
C920	C	0.346646	0.292669	-0.315621
C921	C	0.372057	0.290631	-0.288442
H922	H	0.250703	0.169789	-0.191573
H923	H	0.206480	0.173334	-0.238872
H924	H	0.267410	0.251371	-0.317650
H925	H	0.372565	0.325865	-0.349133
H926	H	0.416788	0.322319	-0.301835
H927	H	0.131614	0.203142	0.146063
C928	C	-0.098925	0.203707	0.362933
C929	C	-0.161556	0.163981	0.384309
C930	C	-0.186852	0.166030	0.357019
C931	C	-0.149517	0.207805	0.308352
C932	C	-0.086882	0.247534	0.286974
C933	C	-0.061585	0.245485	0.314264
H934	H	-0.189198	0.133053	0.420337
H935	H	-0.233219	0.136619	0.372845
H936	H	-0.168243	0.209322	0.288151
H937	H	-0.059240	0.278461	0.250946
H938	H	-0.015218	0.274895	0.298438
H939	H	0.131609	0.203185	0.501440
H940	H	0.509604	0.250505	-0.431066
H941	H	0.214829	-0.107212	0.024450
H942	H	0.214835	-0.015521	0.024441
H943	H	0.263317	0.074407	0.017690
H944	H	-0.008914	-0.107205	0.024432
H945	H	0.475671	0.245279	-0.236392
H946	H	0.509580	-0.078539	-0.299382
H947	H	0.509599	-0.348154	-0.029780
H948	H	-0.008926	-0.542833	0.328001
H949	H	0.427482	-0.632752	-0.017790
H950	H	0.509586	-0.078542	-0.431051
H951	H	0.475667	-0.319074	-0.024528
H952	H	0.343638	-0.543116	-0.024511
H953	H	0.082759	-0.451148	0.460071
H954	H	0.214783	-0.319132	0.328334
H955	H	0.214794	-0.319135	0.236028
H956	H	0.131619	-0.280689	-0.370145
H957	H	0.083127	-0.239238	-0.328411
H958	H	-0.009167	-0.239229	-0.236107
H959	H	-0.490409	-0.479799	0.299306
H960	H	-0.490437	-0.348148	0.299293
H961	H	0.048852	0.191137	0.299295
H962	H	0.048850	0.191152	0.430962
H963	H	0.214838	0.196372	0.236297
H964	H	0.214842	0.196391	0.327982
H965	H	-0.008904	0.196415	0.460037
H966	H	-0.009175	0.196412	0.328294
