data_functionalizedCrystal
_audit_creation_method	'MofGen! by Chris Wilmer'
_symmetry_space_group_name_H-M	'P1'
_symmetry_Int_Tables_number	1
_symmetry_cell_setting	triclinic
loop_
_symmetry_equiv_pos_as_xyz
  x,y,z
_cell_length_a	13.897449
_cell_length_b	13.897447
_cell_length_c	18.215399
_cell_angle_alpha	90.025056
_cell_angle_beta	90.021193
_cell_angle_gamma	90.020357
loop_
_atom_site_label
_atom_site_type_symbol
_atom_site_fract_x
_atom_site_fract_y
_atom_site_fract_z
Zn1	Zn	1.474669	-0.384003	0.416157
Zn2	Zn	1.474564	-0.545313	0.293097
Zn3	Zn	1.313365	-0.384036	0.293102
Zn4	Zn	1.313335	-0.545261	0.416119
O5	O	1.393983	-0.464653	0.354619
O6	O	1.609637	-0.405410	0.399847
O7	O	1.453149	-0.523955	0.190114
O8	O	1.334818	-0.249050	0.309443
O9	O	1.609560	-0.523923	0.309436
O10	O	1.453328	-0.249026	0.399852
O11	O	1.334717	-0.405466	0.190117
O12	O	1.178379	-0.405415	0.309406
O13	O	1.334768	-0.523834	0.519109
O14	O	1.178357	-0.523865	0.399787
O15	O	1.453300	-0.405359	0.519137
O16	O	1.453121	-0.680288	0.309399
O17	O	1.334666	-0.680249	0.399782
C18	C	1.143369	-0.464638	0.354593
C19	C	1.036155	-0.464655	0.354600
C20	C	0.949085	-0.464659	0.354612
C21	C	0.839853	-0.464665	0.354634
C22	C	1.393905	-0.715268	0.354602
C23	C	1.393960	-0.822482	0.354619
C24	C	1.394006	-0.909551	0.354636
C25	C	1.394074	-1.018784	0.354655
C26	C	1.645576	-0.464669	0.354645
C27	C	1.752790	-0.464676	0.354656
C28	C	1.394042	-0.464587	0.546572
C29	C	1.394067	-0.464558	0.628371
C30	C	1.394088	-0.213060	0.354652
C31	C	1.394133	-0.105846	0.354666
C32	C	1.393980	-0.464650	0.163413
C33	C	1.394142	-0.464407	0.081614
C34	C	1.455809	-0.402811	0.816581
C35	C	1.455820	-0.402783	0.893439
C36	C	1.332394	-0.526157	0.893399
C37	C	1.332378	-0.526179	0.816542
C38	C	1.394091	-0.464508	0.778134
C39	C	1.394118	-0.464457	0.931851
C40	C	1.394130	-0.464427	1.015184
C41	C	1.394078	-0.464536	0.694795
H42	H	1.506057	-0.352591	0.785312
F43	F	1.521515	-0.337123	0.934353
H44	H	1.282113	-0.576420	0.785238
H45	H	1.282151	-0.576370	0.924680
