data_functionalizedCrystal
_audit_creation_method	'MofGen! by Chris Wilmer'
_symmetry_space_group_name_H-M	'P1'
_symmetry_Int_Tables_number	1
_symmetry_cell_setting	triclinic
loop_
_symmetry_equiv_pos_as_xyz
  x,y,z
_cell_length_a	19.805407
_cell_length_b	12.645330
_cell_length_c	19.805399
_cell_angle_alpha	90.021721
_cell_angle_beta	90.019573
_cell_angle_gamma	90.017692
loop_
_atom_site_label
_atom_site_type_symbol
_atom_site_fract_x
_atom_site_fract_y
_atom_site_fract_z
Zn1	Zn	1.034777	-0.422064	0.382747
Zn2	Zn	1.534777	0.077936	0.882747
Zn3	Zn	1.034709	-0.599342	0.269571
Zn4	Zn	1.534709	-0.099342	0.769571
Zn5	Zn	0.921591	-0.422093	0.269572
Zn6	Zn	1.421591	0.077907	0.769572
Zn7	Zn	0.921572	-0.599286	0.382717
Zn8	Zn	1.421572	-0.099286	0.882717
O9	O	0.978162	-0.510696	0.326152
O10	O	1.478162	-0.010696	0.826152
O11	O	1.129484	-0.445592	0.367746
O12	O	1.629484	0.054408	0.867746
O13	O	1.019683	-0.575865	0.174854
O14	O	1.519683	-0.075865	0.674854
O15	O	0.936642	-0.273742	0.284598
O16	O	1.436642	0.226258	0.784598
O17	O	1.129434	-0.575837	0.284596
O18	O	1.629434	-0.075837	0.784596
O19	O	1.019799	-0.273721	0.367747
O20	O	1.519799	0.226279	0.867747
O21	O	0.936576	-0.445641	0.174855
O22	O	1.436576	0.054359	0.674855
O23	O	0.826872	-0.445587	0.284569
O24	O	1.326872	0.054413	0.784569
O25	O	0.936609	-0.575741	0.477438
O26	O	1.436609	-0.075741	0.977438
O27	O	0.826858	-0.575769	0.367696
O28	O	1.326858	-0.075769	0.867696
O29	O	1.019780	-0.445537	0.477460
O30	O	1.519780	0.054463	0.977460
O31	O	1.019664	-0.747682	0.284567
O32	O	1.519664	-0.247682	0.784567
O33	O	0.936543	-0.747641	0.367695
O34	O	1.436543	-0.247641	0.867695
C35	C	0.802306	-0.510676	0.326130
C36	C	1.302306	-0.010676	0.826130
C37	C	0.727074	-0.510693	0.326137
C38	C	1.227074	-0.010693	0.826137
C39	C	0.691740	-0.578581	0.369351
C40	C	1.191740	-0.078581	0.869351
C41	C	0.621052	-0.578583	0.369361
C42	C	1.121052	-0.078583	0.869361
C43	C	0.585699	-0.510701	0.326152
C44	C	1.085699	-0.010701	0.826152
C45	C	0.621037	-0.442805	0.282935
C46	C	1.121037	0.057195	0.782935
C47	C	0.691725	-0.442799	0.282930
C48	C	1.191725	0.057201	0.782930
C49	C	0.335964	-0.442829	0.282958
C50	C	0.835964	0.057171	0.782958
C51	C	0.265272	-0.442843	0.282965
C52	C	0.765272	0.057157	0.782965
C53	C	0.265292	-0.578613	0.369388
C54	C	0.765292	-0.078613	0.869388
C55	C	0.335979	-0.578606	0.369383
C56	C	0.835979	-0.078606	0.869383
C57	C	0.371311	-0.510707	0.326169
C58	C	0.871311	-0.010707	0.826169
C59	C	0.447960	-0.510705	0.326160
C60	C	0.947960	-0.010705	0.826160
C61	C	0.509051	-0.510708	0.326157
C62	C	1.009051	-0.010708	0.826157
C63	C	0.978113	-0.786126	0.326142
C64	C	1.478113	-0.286126	0.826142
C65	C	0.978154	-0.903956	0.326161
C66	C	1.478154	-0.403956	0.826161
C67	C	0.926078	-1.071538	0.378618
C68	C	1.426078	-0.571538	0.878618
C69	C	0.925811	-0.948979	0.378450
C70	C	1.425811	-0.448979	0.878450
C71	C	0.958847	-0.948544	0.254828
C72	C	1.458847	-0.448544	0.754828
C73	C	0.958530	-1.071142	0.255147
C74	C	1.458530	-0.571142	0.755147
C75	C	1.049854	-1.071047	0.344457
C76	C	1.549854	-0.571047	0.844457
C77	C	1.049415	-0.948440	0.346017
C78	C	1.549415	-0.448440	0.846017
C79	C	1.154705	-0.510717	0.326174
C80	C	1.654705	-0.010717	0.826174
C81	C	1.229937	-0.510726	0.326184
C82	C	1.729937	-0.010726	0.826184
C83	C	0.978200	-0.510629	0.502695
C84	C	1.478200	-0.010629	1.002695
C85	C	0.978216	-0.510601	0.577927
C86	C	1.478216	-0.010601	1.077927
C87	C	0.978230	-0.234191	0.326176
C88	C	1.478230	0.265809	0.826176
C89	C	0.978259	-0.116361	0.326186
C90	C	1.478259	0.383639	0.826186
C91	C	0.978163	-0.510686	0.150296
C92	C	1.478163	-0.010686	0.650296
C93	C	0.978278	-0.510416	0.075064
C94	C	1.478278	-0.010416	0.575064
C95	C	1.021524	-0.442800	0.613283
C96	C	1.521524	0.057200	1.113283
C97	C	1.021531	-0.442770	0.683972
C98	C	1.521531	0.057230	1.183972
C99	C	0.978233	-0.510546	0.719302
C100	C	1.478233	-0.010546	1.219302
C101	C	0.934920	-0.578349	0.683941
C102	C	1.434920	-0.078349	1.183941
C103	C	0.934910	-0.578374	0.613253
C104	C	1.434910	-0.078374	1.113253
C105	C	0.934958	-0.578250	0.969014
C106	C	1.434958	-0.078250	1.469014
C107	C	0.934973	-0.578223	1.039706
C108	C	1.434973	-0.078223	1.539706
C109	C	1.021579	-0.442646	1.039732
C110	C	1.521579	0.057354	1.539732
C111	C	1.021570	-0.442671	0.969045
C112	C	1.521570	0.057329	1.469045
C113	C	0.978255	-0.510470	0.933690
C114	C	1.478255	-0.010470	1.433690
C115	C	0.978247	-0.510501	0.857041
C116	C	1.478247	-0.010501	1.357041
C117	C	0.978244	-0.510521	0.795949
C118	C	1.478244	-0.010521	1.295949
H119	H	0.236489	-0.387559	0.247779
H120	H	0.736489	0.112441	0.747779
C121	C	0.887824	-1.109904	0.234242
C122	C	1.387824	-0.609904	0.734242
N123	N	0.834566	-1.139094	0.218498
N124	N	1.334566	-0.639094	0.718498
H125	H	0.364723	-0.387549	0.247765
H126	H	0.864723	0.112451	0.747765
H127	H	1.067466	-1.101895	0.395589
H128	H	1.567466	-0.601895	0.895589
H129	H	1.056799	-0.387562	0.712756
H130	H	1.556799	0.112438	1.212756
C131	C	1.069219	-0.368052	1.078630
C132	C	1.569219	0.131948	1.578630
N133	N	1.105100	-0.311868	1.107926
N134	N	1.605100	0.188132	1.607926
H135	H	0.899712	-0.633416	1.068470
H136	H	1.399712	-0.133416	1.568470
H137	H	0.592247	-0.387530	0.247757
H138	H	1.092247	0.112470	0.747757
C139	C	1.069101	-0.909021	0.416924
C140	C	1.569101	-0.409021	0.916924
N141	N	1.083932	-0.879310	0.470327
N142	N	1.583932	-0.379310	0.970327
C143	C	0.730591	-0.368119	0.235389
C144	C	1.230591	0.131881	0.735389
N145	N	0.759865	-0.311866	0.199581
N146	N	1.259865	0.188134	0.699581
H147	H	1.056785	-0.387612	0.584522
H148	H	1.556785	0.112388	1.084522
H149	H	0.364760	-0.633886	0.404566
H150	H	0.864760	-0.133886	0.904566
H151	H	0.995649	-0.919382	0.214695
H152	H	1.495649	-0.419382	0.714695
H153	H	0.899638	-0.633574	0.584467
H154	H	1.399638	-0.133574	1.084467
C155	C	0.942127	-0.908245	0.449906
C156	C	1.442127	-0.408245	0.949906
N157	N	0.954413	-0.877570	0.503730
N158	N	1.454413	-0.377570	1.003730
C159	C	0.887308	-0.652828	0.930132
C160	C	1.387308	-0.152828	1.430132
N161	N	0.851415	-0.709003	0.900844
N162	N	1.351415	-0.209003	1.400844
H163	H	0.938046	-1.100955	0.431684
H164	H	1.438046	-0.600955	0.931684
H165	H	1.056830	-0.387484	0.940283
H166	H	1.556830	0.112516	1.440283
H167	H	0.720520	-0.633862	0.404534
H168	H	1.220520	-0.133862	0.904534
C169	C	0.582188	-0.653286	0.416887
C170	C	1.082188	-0.153286	0.916887
N171	N	0.552916	-0.709562	0.452682
N172	N	1.052916	-0.209562	0.952682
C173	C	0.887285	-0.652893	0.722807
C174	C	1.387285	-0.152893	1.222807
N175	N	0.851405	-0.709041	0.752080
N176	N	1.351405	-0.209041	1.252080
C177	C	1.007639	-1.111206	0.200565
C178	C	1.507639	-0.611206	0.700565
N179	N	1.044623	-1.141378	0.159451
N180	N	1.544623	-0.641378	0.659451
H181	H	0.873332	-1.102438	0.366668
H182	H	1.373332	-0.602438	0.866668
C183	C	0.226419	-0.653295	0.416930
C184	C	0.726419	-0.153295	0.916930
N185	N	0.197142	-0.709545	0.452737
N186	N	0.697142	-0.209545	0.952737
C187	C	1.104704	-0.907033	0.298181
C188	C	1.604704	-0.407033	0.798181
N189	N	1.146346	-0.875848	0.262145
N190	N	1.646346	-0.375848	0.762145
H191	H	0.872734	-0.919743	0.366345
H192	H	1.372734	-0.419743	0.866345
H193	H	0.907057	-0.917931	0.239071
H194	H	1.407057	-0.417931	0.739071
C195	C	1.102375	-1.110210	0.292870
C196	C	1.602375	-0.610210	0.792870
N197	N	1.141930	-1.139715	0.254014
N198	N	1.641930	-0.639715	0.754014
