data_functionalizedCrystal
_audit_creation_method	'MofGen! by Chris Wilmer'
_symmetry_space_group_name_H-M	'P1'
_symmetry_Int_Tables_number	1
_symmetry_cell_setting	triclinic
loop_
_symmetry_equiv_pos_as_xyz
  x,y,z
_cell_length_a	10.654550
_cell_length_b	13.101039
_cell_length_c	10.654550
_cell_angle_alpha	93.395977
_cell_angle_beta	95.515097
_cell_angle_gamma	93.393769
loop_
_atom_site_label
_atom_site_type_symbol
_atom_site_fract_x
_atom_site_fract_y
_atom_site_fract_z
O1	O	1.674696	0.085297	-0.169520
O2	O	1.309217	0.085280	-0.186328
O3	O	1.500359	0.085285	0.004815
O4	O	1.483554	0.085292	-0.360663
O5	O	1.486645	-0.085145	-0.008922
O6	O	1.295503	-0.085150	-0.200065
O7	O	1.660982	-0.085134	-0.183258
Zn8	Zn	1.476065	-0.112201	-0.193842
Zn9	Zn	1.494134	0.112348	-0.175743
O10	O	1.469840	-0.085139	-0.374400
C11	C	1.255561	0.000063	-0.191963
C12	C	1.116118	0.000056	-0.188271
N13	N	1.463743	-0.265450	-0.206194
C14	C	1.036633	0.000073	-0.300811
C15	C	0.905614	0.000091	-0.297333
C16	C	0.933576	0.000079	-0.068765
C17	C	1.064593	0.000054	-0.072245
C18	C	1.020489	0.000085	-0.432773
C19	C	0.889469	0.000102	-0.429295
C20	C	1.446978	-0.474493	-0.223010
C21	C	1.523227	-0.525367	-0.146569
C22	C	1.513899	-0.641686	-0.155926
C23	C	1.456304	-0.358164	-0.213655
C24	C	1.714638	0.000086	-0.177623
C25	C	1.854082	0.000099	-0.181313
C26	C	1.492268	0.000071	0.044744
C27	C	1.488577	0.000074	0.184188
N28	N	1.506466	0.265596	-0.163382
C29	C	1.477931	0.000078	-0.414330
C30	C	1.481623	0.000081	-0.553773
C31	C	1.601118	0.000076	0.263674
C32	C	1.597642	0.000083	0.394695
C33	C	1.369073	0.000082	0.366731
C34	C	1.372551	0.000082	0.235713
C35	C	1.733081	0.000073	0.279819
C36	C	1.729605	0.000080	0.410840
H37	H	1.129304	0.000025	0.019395
H38	H	1.773588	-0.071241	0.446852
F39	F	1.245597	0.000093	0.421581
F40	F	1.618089	-0.468116	-0.052225
H41	H	0.837877	-0.073476	-0.475107
H42	H	1.374698	-0.518292	-0.295477
H43	H	0.891610	0.000093	0.025701
H44	H	1.790436	0.071395	0.256210
F45	F	1.780249	-0.096115	0.225491
F46	F	1.252771	0.000102	0.151124
H47	H	1.044080	-0.071243	-0.490133
H48	H	1.062065	0.073667	-0.468862
H49	H	0.853476	0.071434	-0.473268
H50	H	1.775408	0.073669	0.462415
