data_functionalizedCrystal
_audit_creation_method	'MofGen! by Chris Wilmer'
_symmetry_space_group_name_H-M	'P1'
_symmetry_Int_Tables_number	1
_symmetry_cell_setting	triclinic
loop_
_symmetry_equiv_pos_as_xyz
  x,y,z
_cell_length_a	10.654550
_cell_length_b	13.596369
_cell_length_c	10.654550
_cell_angle_alpha	89.994175
_cell_angle_beta	95.515069
_cell_angle_gamma	90.002068
loop_
_atom_site_label
_atom_site_type_symbol
_atom_site_fract_x
_atom_site_fract_y
_atom_site_fract_z
O1	O	1.667842	0.081718	-0.176401
O2	O	1.302364	0.081736	-0.193207
O3	O	1.493506	0.081720	-0.002065
O4	O	1.476700	0.081733	-0.367543
O5	O	1.493487	-0.081863	-0.002055
O6	O	1.302345	-0.081847	-0.193197
O7	O	1.667823	-0.081865	-0.176391
Zn8	Zn	1.485081	-0.107828	-0.184792
Zn9	Zn	1.485106	0.107699	-0.184806
O10	O	1.476681	-0.081850	-0.367533
C11	C	1.255556	-0.000053	-0.191968
C12	C	1.116113	-0.000047	-0.188276
N13	N	1.485073	-0.254920	-0.184782
C14	C	1.036628	-0.000045	-0.300818
C15	C	0.905607	-0.000063	-0.297341
C16	C	0.933570	-0.000078	-0.068772
C17	C	1.064588	-0.000068	-0.072250
C18	C	1.485105	-0.656211	-0.184807
C19	C	1.485092	-0.544560	-0.184804
C20	C	1.485089	-0.455569	-0.184796
C21	C	1.485076	-0.343911	-0.184791
C22	C	1.714631	-0.000074	-0.177630
C23	C	1.854074	-0.000074	-0.181322
C24	C	1.492263	-0.000071	0.044738
C25	C	1.488571	-0.000069	0.184181
N26	N	1.485124	0.254791	-0.184806
C27	C	1.477925	-0.000057	-0.414336
C28	C	1.481616	-0.000052	-0.553779
C29	C	1.601112	-0.000074	0.263667
C30	C	1.597636	-0.000062	0.394688
C31	C	1.369066	-0.000044	0.366725
C32	C	1.372544	-0.000049	0.235706
H33	H	0.840894	-0.000064	-0.388984
H34	H	1.274601	-0.000029	0.408693
H35	H	1.078574	-0.000035	-0.395294
C36	C	0.745143	-0.000091	0.038050
C37	C	0.876928	-0.000089	0.058760
H38	H	0.710180	-0.000089	0.116787
H39	H	0.717937	-0.057132	-0.008324
H40	H	0.717938	0.056959	-0.008342
H41	H	0.904134	-0.057143	0.105145
H42	H	0.904146	0.056958	0.105154
C43	C	1.823912	-0.000096	0.409159
C44	C	1.721346	-0.000075	0.482059
H45	H	1.900287	-0.000108	0.463101
H46	H	1.820528	0.056943	0.357467
H47	H	1.820491	-0.057147	0.357483
H48	H	1.724762	0.056981	0.533728
H49	H	1.724732	-0.057119	0.533772
C50	C	1.146254	-0.000040	0.221215
C51	C	1.248828	-0.000047	0.148325
H52	H	1.069883	-0.000042	0.167266
H53	H	1.149656	0.057002	0.272885
H54	H	1.149649	-0.057088	0.272911
H55	H	1.245439	0.057005	0.096635
H56	H	1.245424	-0.057095	0.096632
C57	C	1.277850	-0.000062	0.023906
C58	C	1.151972	-0.000069	0.051465
H59	H	1.331794	-0.000071	0.100280
H60	H	1.293564	0.056984	-0.023613
H61	H	1.293564	-0.057107	-0.023622
H62	H	1.136255	0.056980	0.098985
H63	H	1.136251	-0.057121	0.099004
H64	H	1.695588	-0.000089	0.221720
