data_functionalizedCrystal
_audit_creation_method	'MofGen! by Chris Wilmer'
_symmetry_space_group_name_H-M	'P1'
_symmetry_Int_Tables_number	1
_symmetry_cell_setting	triclinic
loop_
_symmetry_equiv_pos_as_xyz
  x,y,z
_cell_length_a	12.503572
_cell_length_b	14.044220
_cell_length_c	14.044220
_cell_angle_alpha	93.188878
_cell_angle_beta	86.156832
_cell_angle_gamma	93.835250
loop_
_atom_site_label
_atom_site_type_symbol
_atom_site_fract_x
_atom_site_fract_y
_atom_site_fract_z
O1	O	-0.089210	-1.282200	-0.225116
O2	O	0.160790	-1.032200	0.024884
O3	O	0.410790	-0.782200	0.274884
O4	O	0.660790	-0.532200	0.524884
O5	O	-0.089237	-1.005530	-0.216809
O6	O	0.160763	-0.755530	0.033191
O7	O	0.410763	-0.505530	0.283191
O8	O	0.660763	-0.255530	0.533191
O9	O	-0.089213	-1.139712	-0.082627
O10	O	0.160787	-0.889712	0.167373
O11	O	0.410787	-0.639712	0.417373
O12	O	0.660787	-0.389712	0.667373
O13	O	-0.089234	-1.148019	-0.359298
O14	O	0.160766	-0.898019	-0.109298
O15	O	0.410766	-0.648019	0.140702
O16	O	0.660766	-0.398019	0.390702
O17	O	0.089427	-1.129622	-0.092737
O18	O	0.339427	-0.879622	0.157263
O19	O	0.589427	-0.629622	0.407263
O20	O	0.839427	-0.379622	0.657263
O21	O	0.089403	-0.995440	-0.226918
O22	O	0.339403	-0.745440	0.023082
O23	O	0.589403	-0.495440	0.273082
O24	O	0.839403	-0.245440	0.523082
O25	O	0.089430	-1.272110	-0.235226
O26	O	0.339430	-1.022110	0.014774
O27	O	0.589430	-0.772110	0.264774
O28	O	0.839430	-0.522110	0.514774
Cu29	Cu	0.105728	-1.132854	-0.231995
Cu30	Cu	0.355728	-0.882854	0.018005
Cu31	Cu	0.605728	-0.632854	0.268005
Cu32	Cu	0.855728	-0.382854	0.518005
Cu33	Cu	-0.105535	-1.144786	-0.220040
Cu34	Cu	0.144465	-0.894786	0.029960
Cu35	Cu	0.394465	-0.644786	0.279960
Cu36	Cu	0.644465	-0.394786	0.529960
O37	O	0.089406	-1.137929	-0.369407
O38	O	0.339406	-0.887929	-0.119407
O39	O	0.589406	-0.637929	0.130593
O40	O	0.839406	-0.387929	0.380593
C41	C	0.000080	-0.964864	-0.218228
C42	C	0.250080	-0.714864	0.031772
C43	C	0.500080	-0.464864	0.281772
C44	C	0.750080	-0.214864	0.531772
C45	C	0.000070	-0.858721	-0.207383
C46	C	0.250070	-0.608721	0.042617
C47	C	0.500070	-0.358721	0.292617
C48	C	0.750070	-0.108721	0.542617
N49	N	0.254319	-1.124469	-0.240404
N50	N	0.504319	-0.874469	0.009596
N51	N	0.754319	-0.624469	0.259596
N52	N	1.004319	-0.374469	0.509596
N53	N	-0.254126	-1.153179	-0.211624
N54	N	-0.004126	-0.903179	0.038376
N55	N	0.245874	-0.653179	0.288376
N56	N	0.495874	-0.403179	0.538376
C57	C	0.473432	-1.112134	-0.252782
C58	C	0.723432	-0.862134	-0.002782
C59	C	0.973432	-0.612134	0.247218
C60	C	1.223432	-0.362134	0.497218
C61	C	0.526768	-1.165511	-0.199249
C62	C	0.776768	-0.915511	0.050751
C63	C	1.026768	-0.665511	0.300751
C64	C	1.276768	-0.415511	0.550751
C65	C	0.648690	-1.158648	-0.206136
C66	C	0.898690	-0.908648	0.043864
C67	C	1.148690	-0.658648	0.293864
C68	C	1.398690	-0.408648	0.543864
C69	C	0.351499	-1.118996	-0.245896
C70	C	0.601499	-0.868996	0.004104
C71	C	0.851499	-0.618996	0.254104
C72	C	1.101499	-0.368996	0.504104
C73	C	0.000107	-1.131031	-0.052060
C74	C	0.250107	-0.881031	0.197940
C75	C	0.500107	-0.631031	0.447940
C76	C	0.750107	-0.381031	0.697940
C77	C	0.000107	-1.120187	0.054082
C78	C	0.250107	-0.870187	0.304082
C79	C	0.500107	-0.620187	0.554082
C80	C	0.750107	-0.370187	0.804082
C81	C	0.000111	-1.312777	-0.233807
C82	C	0.250111	-1.062777	0.016193
C83	C	0.500111	-0.812777	0.266193
C84	C	0.750111	-0.562777	0.516193
C85	C	0.000114	-1.418920	-0.244651
C86	C	0.250114	-1.168920	0.005349
C87	C	0.500114	-0.918920	0.255349
C88	C	0.750114	-0.668920	0.505349
C89	C	0.000092	-0.664382	-0.187558
C90	C	0.250092	-0.414382	0.062442
C91	C	0.500092	-0.164382	0.312442
C92	C	0.750092	0.085618	0.562442
C93	C	0.000091	-0.613253	-0.264472
C94	C	0.250091	-0.363253	-0.014472
C95	C	0.500091	-0.113253	0.235528
C96	C	0.750091	0.136747	0.485528
C97	C	0.000104	-0.505116	-0.253441
C98	C	0.250104	-0.255116	-0.003441
C99	C	0.500104	-0.005116	0.246559
C100	C	0.750104	0.244884	0.496559
C101	C	0.000080	-0.772529	-0.198587
C102	C	0.250080	-0.522529	0.051413
C103	C	0.500080	-0.272529	0.301413
C104	C	0.750080	-0.022529	0.551413
C105	C	0.000084	-1.146609	-0.399974
C106	C	0.250084	-0.896609	-0.149974
C107	C	0.500084	-0.646609	0.100026
C108	C	0.750084	-0.396609	0.350026
C109	C	0.000077	-1.157454	-0.506117
C110	C	0.250077	-0.907454	-0.256117
C111	C	0.500077	-0.657454	-0.006117
C112	C	0.750077	-0.407454	0.243883
C113	C	0.000090	-1.100361	0.248421
C114	C	0.250090	-0.850361	0.498421
C115	C	0.500090	-0.600361	0.748421
C116	C	0.750090	-0.350361	0.998421
C117	C	0.000094	-1.177275	0.299551
C118	C	0.250094	-0.927275	0.549551
C119	C	0.500094	-0.677275	0.799551
C120	C	0.750094	-0.427275	1.049551
C121	C	0.000084	-1.166244	0.407687
C122	C	0.250084	-0.916244	0.657687
C123	C	0.500084	-0.666244	0.907687
C124	C	0.750084	-0.416244	1.157687
C125	C	0.000099	-1.111391	0.140274
C126	C	0.250099	-0.861391	0.390274
C127	C	0.500099	-0.611391	0.640274
C128	C	0.750099	-0.361391	0.890274
H129	H	0.480864	-1.216364	-0.148245
H130	H	0.730864	-0.966364	0.101755
H131	H	0.980864	-0.716364	0.351755
H132	H	1.230864	-0.466364	0.601755
N133	N	0.530991	-1.048346	-0.316777
N134	N	0.780991	-0.798346	-0.066777
N135	N	1.030991	-0.548346	0.183223
N136	N	1.280991	-0.298346	0.433223
N137	N	0.480920	-0.998159	-0.367119
N138	N	0.730920	-0.748159	-0.117119
N139	N	0.980920	-0.498159	0.132881
N140	N	1.230920	-0.248159	0.382881
H141	H	0.521581	-0.953110	-0.412317
H142	H	0.771581	-0.703110	-0.162317
H143	H	1.021581	-0.453110	0.087683
H144	H	1.271581	-0.203110	0.337683
H145	H	0.000104	-0.626945	-0.113431
H146	H	0.250104	-0.376945	0.136569
H147	H	0.500104	-0.126945	0.386569
H148	H	0.750104	0.123055	0.636569
H149	H	0.000029	-1.251413	0.262115
H150	H	0.250029	-1.001413	0.512115
H151	H	0.500029	-0.751413	0.762115
H152	H	0.750029	-0.501413	1.012115
H153	H	0.000081	-0.650692	-0.338605
H154	H	0.250081	-0.400692	-0.088605
H155	H	0.500081	-0.150692	0.161395
H156	H	0.750081	0.099308	0.411395
N157	N	0.000081	-1.007358	0.295362
N158	N	0.250081	-0.757358	0.545362
N159	N	0.500081	-0.507358	0.795362
N160	N	0.750081	-0.257358	1.045362
N161	N	-0.075215	-0.955120	0.285873
N162	N	0.174785	-0.705120	0.535873
N163	N	0.424785	-0.455120	0.785873
N164	N	0.674785	-0.205120	1.035873
H165	H	-0.075217	-0.889435	0.319032
H166	H	0.174783	-0.639435	0.569032
H167	H	0.424783	-0.389435	0.819032
H168	H	0.674783	-0.139435	1.069032
