data_functionalizedCrystal
_audit_creation_method	'MofGen! by Chris Wilmer'
_symmetry_space_group_name_H-M	'P1'
_symmetry_Int_Tables_number	1
_symmetry_cell_setting	triclinic
loop_
_symmetry_equiv_pos_as_xyz
  x,y,z
_cell_length_a	17.699083
_cell_length_b	16.176319
_cell_length_c	17.699092
_cell_angle_alpha	89.994879
_cell_angle_beta	83.284691
_cell_angle_gamma	89.998611
loop_
_atom_site_label
_atom_site_type_symbol
_atom_site_fract_x
_atom_site_fract_y
_atom_site_fract_z
O1	O	1.004082	-0.068628	0.095713
O2	O	0.783704	-0.068654	0.108165
O3	O	0.900116	-0.068638	-0.008250
O4	O	0.887670	-0.068644	0.212128
O5	O	0.900100	0.068855	-0.008257
O6	O	0.783688	0.068839	0.108158
O7	O	1.004066	0.068866	0.095705
Cu8	Cu	0.893875	0.081406	0.101931
Cu9	Cu	0.893894	-0.081195	0.101940
O10	O	0.887654	0.068850	0.212120
C11	C	0.755499	0.000089	0.107715
C12	C	0.671480	0.000079	0.106377
C13	C	0.622862	0.000077	0.174710
C14	C	0.543918	0.000088	0.173448
C15	C	0.513595	0.000094	0.103851
C16	C	0.562220	0.000098	0.035513
C17	C	0.641162	0.000093	0.036776
C18	C	0.243857	0.000119	0.030418
C19	C	0.164909	0.000121	0.029160
C20	C	0.146613	0.000113	0.167089
C21	C	0.225555	0.000109	0.168352
C22	C	0.274173	0.000117	0.100014
C23	C	0.359772	0.000107	0.101384
C24	C	0.427998	0.000098	0.102481
C25	C	0.899661	0.000107	-0.036450
C26	C	0.898319	0.000103	-0.120468
C27	C	1.032271	0.000121	0.096155
C28	C	1.116289	0.000125	0.097494
N29	N	0.893867	0.195772	0.101924
N30	N	0.893908	-0.195560	0.101940
C31	C	0.945430	0.239043	0.050397
C32	C	0.945434	0.325590	0.050396
C33	C	0.893878	0.368864	0.101927
C34	C	0.842310	0.325587	0.153457
C35	C	0.842303	0.239041	0.153453
C36	C	0.842336	0.674615	0.153471
C37	C	0.842348	0.761167	0.153472
C38	C	0.945467	0.761164	0.050414
C39	C	0.945460	0.674618	0.050410
C40	C	0.893889	0.631349	0.101937
C41	C	0.893885	0.537504	0.101936
C42	C	0.893886	0.462707	0.101932
C43	C	0.897700	-0.074846	-0.159932
C44	C	0.896435	-0.074847	-0.238875
C45	C	0.895795	0.000102	-0.278353
C46	C	0.896412	0.075056	-0.238884
C47	C	0.897672	0.075056	-0.159942
C48	C	0.891332	0.075057	-0.557249
C49	C	0.890075	0.075050	-0.636197
C50	C	0.890095	-0.074846	-0.636182
C51	C	0.891355	-0.074846	-0.557240
C52	C	0.891968	0.000108	-0.517777
C53	C	0.893338	0.000108	-0.432178
C54	C	0.894430	0.000102	-0.363952
C55	C	0.888109	0.000103	0.240321
C56	C	0.889450	0.000101	0.324339
H57	H	0.680748	0.000094	-0.018868
C58	C	0.890161	0.223231	-0.628285
C59	C	0.889362	0.157440	-0.679593
H60	H	0.889717	0.274090	-0.655077
H61	H	0.934769	0.220128	-0.603347
H62	H	0.846531	0.220098	-0.591641
H63	H	0.932996	0.160570	-0.716234
H64	H	0.844750	0.160544	-0.704544
C65	C	0.086738	0.070812	-0.052274
C66	C	0.131574	0.000133	-0.047345
H67	H	0.066155	0.070813	-0.099500
H68	H	0.117155	0.118749	-0.048921
H69	H	0.046490	0.070797	-0.011751
H70	H	0.171827	0.000150	-0.087865
H71	H	0.101156	-0.047817	-0.050706
C72	C	0.735747	0.000054	0.237895
C73	C	0.656189	0.000064	0.251213
H74	H	0.756318	0.000042	0.285127
H75	H	0.752443	0.047999	0.209771
H76	H	0.752434	-0.047895	0.209765
H77	H	0.639502	0.048017	0.279338
H78	H	0.639487	-0.047886	0.279349
H79	H	0.283433	0.000126	-0.025227
H80	H	0.891847	0.136089	-0.525130
H81	H	0.537525	0.000115	-0.021154
H82	H	0.889592	-0.135877	-0.668321
H83	H	0.987416	0.203815	0.008437
C84	C	1.047385	0.316894	-0.051454
C85	C	1.002125	0.373154	-0.006233
H86	H	1.082389	0.346260	-0.086411
H87	H	1.015936	0.283152	-0.078651
H88	H	1.074533	0.283125	-0.019968
H89	H	0.974972	0.406919	-0.037719
H90	H	1.033578	0.406910	0.020965
C91	C	0.834033	0.162000	-0.062545
C92	C	0.898351	0.157440	-0.116557
H93	H	0.834448	0.212864	-0.035764
H94	H	0.834601	0.117366	-0.027744
H95	H	0.789430	0.158877	-0.087501
H96	H	0.942953	0.160557	-0.091600
H97	H	0.897790	0.202086	-0.151362
H98	H	0.895887	0.136080	-0.271033
C99	C	1.047386	0.683311	-0.051469
C100	C	1.002129	0.627052	-0.006237
H101	H	1.082367	0.653944	-0.086445
H102	H	1.074556	0.717055	-0.019998
H103	H	1.015928	0.717078	-0.078650
H104	H	1.033587	0.593289	0.020949
H105	H	0.974958	0.593294	-0.037712
H106	H	0.987456	0.796403	0.008455
C107	C	0.797654	0.647975	0.284553
C108	C	0.785657	0.627064	0.210118
H109	H	0.762664	0.618613	0.319527
H110	H	0.790285	0.705706	0.291919
H111	H	0.848150	0.633774	0.292698
H112	H	0.735163	0.641271	0.201972
H113	H	0.793020	0.569321	0.202749
C114	C	0.894508	-0.141409	-0.359880
C115	C	0.895756	-0.157232	-0.282254
H116	H	0.894083	-0.192274	-0.386658
H117	H	0.938412	-0.110612	-0.378669
H118	H	0.850174	-0.110621	-0.366957
H119	H	0.940093	-0.188015	-0.275176
H120	H	0.851847	-0.188043	-0.263459
H121	H	0.800362	0.796399	0.195436
H122	H	0.250239	0.000100	0.225025
H123	H	0.800315	0.203811	0.195411
H124	H	0.800328	0.360826	0.195412
C125	C	0.897585	-0.223017	-0.167853
C126	C	0.898401	-0.157233	-0.116540
H127	H	0.898011	-0.273879	-0.141064
H128	H	0.941210	-0.219895	-0.204493
H129	H	0.852972	-0.219895	-0.192793
H130	H	0.943017	-0.160350	-0.091604
H131	H	0.854772	-0.160356	-0.079887
C132	C	0.891239	-0.223019	-0.565154
C133	C	0.892054	-0.157231	-0.513845
H134	H	0.891663	-0.273880	-0.538362
H135	H	0.934864	-0.219900	-0.601793
H136	H	0.846626	-0.219898	-0.590096
H137	H	0.936670	-0.160348	-0.488907
H138	H	0.848424	-0.160352	-0.477192
H139	H	0.107018	0.000111	0.222733
C140	C	0.533762	0.000068	0.309915
C141	C	0.490476	0.000083	0.248562
H142	H	0.500767	0.000060	0.356288
H143	H	0.564934	0.048009	0.307538
H144	H	0.564932	-0.047886	0.307531
H145	H	0.459310	0.048039	0.250942
H146	H	0.459291	-0.047863	0.250939
