data_functionalizedCrystal
_audit_creation_method	'MofGen! by Chris Wilmer'
_symmetry_space_group_name_H-M	'P1'
_symmetry_Int_Tables_number	1
_symmetry_cell_setting	triclinic
loop_
_symmetry_equiv_pos_as_xyz
  x,y,z
_cell_length_a	16.992695
_cell_length_b	16.974897
_cell_length_c	14.048226
_cell_angle_alpha	86.341962
_cell_angle_beta	89.993436
_cell_angle_gamma	87.027201
loop_
_atom_site_label
_atom_site_type_symbol
_atom_site_fract_x
_atom_site_fract_y
_atom_site_fract_z
O1	O	0.099990	1.055456	-0.160386
O2	O	0.112706	0.826056	-0.142734
O3	O	-0.007794	0.939836	-0.151482
O4	O	0.220490	0.941676	-0.151639
O5	O	-0.007801	0.939821	0.006840
O6	O	0.112698	0.826041	0.015588
O7	O	0.099983	1.055441	-0.002064
Zn8	Zn	0.106340	0.940738	0.031899
Zn9	Zn	0.106349	0.940758	-0.176698
O10	O	0.220482	0.941661	0.006684
C11	C	0.112216	0.796559	-0.061304
C12	C	0.110759	0.708691	-0.054543
C13	C	-0.037008	0.937463	-0.072139
C14	C	-0.124045	0.930403	-0.071596
C15	C	0.110081	0.667412	-0.137661
C16	C	0.108724	0.584850	-0.131293
C17	C	0.108041	0.543569	-0.041807
C18	C	0.108722	0.584854	0.041317
C19	C	0.110084	0.667415	0.034949
C20	C	0.103972	0.296651	-0.013508
C21	C	0.102608	0.214085	-0.007146
C22	C	0.102612	0.214086	-0.179757
C23	C	0.103969	0.296648	-0.186117
C24	C	0.104654	0.337926	-0.102993
N25	N	0.106652	0.459178	-0.035297
N26	N	0.106049	0.422315	-0.109504
C27	C	-0.174355	0.998518	-0.076836
C28	C	-0.256135	0.991880	-0.076335
C29	C	-0.287603	0.917127	-0.070586
C30	C	-0.237286	0.849007	-0.065348
C31	C	-0.155508	0.855645	-0.065856
C32	C	-0.531172	0.889612	-0.068482
C33	C	-0.612957	0.882979	-0.067970
C34	C	-0.631800	1.025853	-0.078959
C35	C	-0.550019	1.032485	-0.079461
C36	C	-0.499710	0.964365	-0.074229
N37	N	-0.371194	0.910340	-0.070070
N38	N	-0.416119	0.971153	-0.074752
C39	C	0.249696	0.944034	-0.072662
C40	C	0.336733	0.951094	-0.073211
C41	C	0.100472	1.084937	-0.083496
C42	C	0.101929	1.172805	-0.090264
N43	N	0.106333	0.940731	0.174260
N44	N	0.106350	0.940772	-0.319059
C45	C	0.052998	0.991131	0.220204
C46	C	0.052997	0.991136	0.319861
C47	C	0.106336	0.940745	0.373573
C48	C	0.159674	0.890339	0.327623
C49	C	0.159670	0.890330	0.227968
C50	C	0.159680	0.890362	0.535336
C51	C	0.159685	0.890372	0.634998
C52	C	0.053007	0.991168	0.627228
C53	C	0.053003	0.991160	0.527573
C54	C	0.106342	0.940754	0.481630
H55	H	0.110634	0.701017	-0.210530
H56	H	0.203101	0.849305	0.371362
F57	F	0.104701	0.340571	0.074961
F58	F	-0.685348	1.098346	-0.084529
F59	F	-0.003759	1.044813	0.676128
H60	H	0.102074	0.180475	0.065728
F61	F	-0.646445	0.803412	-0.061847
H62	H	-0.262914	0.788140	-0.060673
H63	H	0.108170	0.551237	0.114178
F64	F	-0.516535	1.112048	-0.085604
H65	H	0.009566	1.032169	0.176477
H66	H	0.108172	0.551244	-0.198977
H67	H	-0.114545	0.800178	-0.061589
F68	F	-0.003769	1.044777	0.368757
F69	F	-0.309675	1.064378	-0.081910
H70	H	0.110640	0.701023	0.102632
H71	H	-0.490219	0.834143	-0.064220
F72	F	0.216435	0.836684	0.179074
H73	H	-0.148740	1.059391	-0.081512
F74	F	-0.003761	1.044796	0.470408
H75	H	0.203111	0.849314	0.497933
F76	F	0.104692	0.340576	-0.281361
F77	F	0.216455	0.836736	0.692155
F78	F	0.101875	0.170150	-0.268218
