data_functionalizedCrystal
_audit_creation_method	'MofGen! by Chris Wilmer'
_symmetry_space_group_name_H-M	'P1'
_symmetry_Int_Tables_number	1
_symmetry_cell_setting	triclinic
loop_
_symmetry_equiv_pos_as_xyz
  x,y,z
_cell_length_a	27.731994
_cell_length_b	26.809956
_cell_length_c	27.732064
_cell_angle_alpha	89.991600
_cell_angle_beta	82.634978
_cell_angle_gamma	90.002666
loop_
_atom_site_label
_atom_site_type_symbol
_atom_site_fract_x
_atom_site_fract_y
_atom_site_fract_z
O1	O	0.640952	0.041404	0.057385
O2	O	0.890952	0.291404	0.307385
O3	O	1.140952	0.541404	0.557385
O4	O	1.390952	0.791404	0.807385
O5	O	0.500155	0.041420	0.066158
O6	O	0.750155	0.291420	0.316158
O7	O	1.000155	0.541420	0.566158
O8	O	1.250155	0.791420	0.816158
O9	O	0.574922	0.041414	-0.008626
O10	O	0.824922	0.291414	0.241374
O11	O	1.074922	0.541414	0.491374
O12	O	1.324922	0.791414	0.741374
O13	O	0.566185	0.041411	0.132168
O14	O	0.816185	0.291411	0.382168
O15	O	1.066185	0.541411	0.632168
O16	O	1.316185	0.791411	0.882168
O17	O	0.574908	-0.041545	-0.008614
O18	O	0.824908	0.208455	0.241386
O19	O	1.074908	0.458455	0.491386
O20	O	1.324908	0.708455	0.741386
O21	O	0.500141	-0.041539	0.066169
O22	O	0.750141	0.208461	0.316169
O23	O	1.000141	0.458461	0.566169
O24	O	1.250141	0.708461	0.816169
O25	O	0.640938	-0.041555	0.057396
O26	O	0.890938	0.208445	0.307396
O27	O	1.140938	0.458445	0.557396
O28	O	1.390938	0.708445	0.807396
Zn29	Zn	0.570537	-0.054718	0.061785
Zn30	Zn	0.820537	0.195282	0.311785
Zn31	Zn	1.070537	0.445282	0.561785
Zn32	Zn	1.320537	0.695282	0.811785
Zn33	Zn	0.570556	0.054584	0.061770
Zn34	Zn	0.820556	0.304584	0.311770
Zn35	Zn	1.070556	0.554584	0.561770
Zn36	Zn	1.320556	0.804584	0.811770
O37	O	0.566171	-0.041548	0.132180
O38	O	0.816171	0.208452	0.382180
O39	O	1.066171	0.458452	0.632180
O40	O	1.316171	0.708452	0.882180
C41	C	0.482140	-0.000057	0.065983
C42	C	0.732140	0.249943	0.315983
C43	C	0.982140	0.499943	0.565983
C44	C	1.232140	0.749943	0.815983
C45	C	0.428484	-0.000051	0.065441
C46	C	0.678484	0.249949	0.315441
C47	C	0.928484	0.499949	0.565441
C48	C	1.178484	0.749949	0.815441
C49	C	0.095758	-0.045291	0.062032
C50	C	0.345758	0.204709	0.312032
C51	C	0.595758	0.454709	0.562032
C52	C	0.845758	0.704709	0.812032
C53	C	-0.105900	-0.045297	0.059970
C54	C	0.144100	0.204703	0.309970
C55	C	0.394100	0.454703	0.559970
C56	C	0.644100	0.704703	0.809970
O57	O	-0.131980	-0.083755	0.059688
O58	O	0.118020	0.166245	0.309688
O59	O	0.368020	0.416245	0.559688
O60	O	0.618020	0.666245	0.809688
N61	N	-0.131108	-0.000076	0.059708
N62	N	0.118892	0.249924	0.309708
N63	N	0.368892	0.499924	0.559708
N64	N	0.618892	0.749924	0.809708
C65	C	-0.105897	0.045150	0.059958
C66	C	0.144103	0.295150	0.309958
C67	C	0.394103	0.545150	0.559958
C68	C	0.644103	0.795150	0.809958
O69	O	-0.131963	0.083613	0.059682
O70	O	0.118037	0.333613	0.309682
O71	O	0.368037	0.583613	0.559682
O72	O	0.618037	0.833613	0.809682
C73	C	0.095761	0.045155	0.062016
C74	C	0.345761	0.295155	0.312016
C75	C	0.595761	0.545155	0.562016
C76	C	0.845761	0.795155	0.812016
C77	C	0.120965	-0.000069	0.062283
C78	C	0.370965	0.249931	0.312283
C79	C	0.620965	0.499931	0.562283
C80	C	0.870965	0.749931	0.812283
C81	C	0.120962	-0.090511	0.062298
C82	C	0.370962	0.159489	0.312298
C83	C	0.620962	0.409489	0.562298
C84	C	0.870962	0.659489	0.812298
C85	C	0.171373	-0.090510	0.062816
C86	C	0.421373	0.159490	0.312816
C87	C	0.671373	0.409490	0.562816
C88	C	0.921373	0.659490	0.812816
C89	C	0.196580	-0.045287	0.063068
C90	C	0.446580	0.204713	0.313068
C91	C	0.696580	0.454713	0.563068
C92	C	0.946580	0.704713	0.813068
C93	C	0.171376	-0.000067	0.062801
C94	C	0.421376	0.249933	0.312801
C95	C	0.671376	0.499933	0.562801
C96	C	0.921376	0.749933	0.812801
C97	C	0.120972	0.090380	0.062262
C98	C	0.370972	0.340380	0.312262
C99	C	0.620972	0.590380	0.562262
C100	C	0.870972	0.840380	0.812262
C101	C	0.171389	0.090377	0.062776
C102	C	0.421389	0.340377	0.312776
C103	C	0.671389	0.590377	0.562776
C104	C	0.921389	0.840377	0.812776
C105	C	0.196593	0.045153	0.063043
C106	C	0.446593	0.295153	0.313043
C107	C	0.696593	0.545153	0.563043
C108	C	0.946593	0.795153	0.813043
C109	C	0.246995	0.045157	0.063570
C110	C	0.496995	0.295157	0.313570
C111	C	0.746995	0.545157	0.563570
C112	C	0.996995	0.795157	0.813570
N113	N	0.272202	-0.000064	0.063833
N114	N	0.522202	0.249936	0.313833
N115	N	0.772202	0.499936	0.563833
N116	N	1.022202	0.749936	0.813833
C117	C	0.246994	-0.045286	0.063581
C118	C	0.496994	0.204714	0.313581
C119	C	0.746994	0.454714	0.563581
C120	C	0.996994	0.704714	0.813581
C121	C	-0.211770	0.045144	0.058878
C122	C	0.038230	0.295144	0.308878
C123	C	0.288230	0.545144	0.558878
C124	C	0.538230	0.795144	0.808878
C125	C	-0.262184	0.045143	0.058364
C126	C	-0.012184	0.295143	0.308364
C127	C	0.237816	0.545143	0.558364
C128	C	0.487816	0.795143	0.808364
C129	C	-0.262185	-0.045304	0.058376
C130	C	-0.012185	0.204696	0.308376
C131	C	0.237815	0.454696	0.558376
C132	C	0.487815	0.704696	0.808376
C133	C	-0.211770	-0.045302	0.058893
C134	C	0.038230	0.204698	0.308893
C135	C	0.288230	0.454698	0.558893
C136	C	0.538230	0.704698	0.808893
C137	C	-0.186563	-0.000077	0.059140
C138	C	0.063437	0.249923	0.309140
C139	C	0.313437	0.499923	0.559140
C140	C	0.563437	0.749923	0.809140
C141	C	0.352862	-0.045279	0.064670
C142	C	0.602862	0.204721	0.314670
C143	C	0.852862	0.454721	0.564670
C144	C	1.102862	0.704721	0.814670
C145	C	0.403277	-0.045273	0.065190
C146	C	0.653277	0.204727	0.315190
C147	C	0.903277	0.454727	0.565190
C148	C	1.153277	0.704727	0.815190
C149	C	0.403273	0.045174	0.065176
C150	C	0.653273	0.295174	0.315176
C151	C	0.903273	0.545174	0.565176
C152	C	1.153273	0.795174	0.815176
C153	C	0.352862	0.045168	0.064658
C154	C	0.602862	0.295168	0.314658
C155	C	0.852862	0.545168	0.564658
C156	C	1.102862	0.795168	0.814658
C157	C	0.327657	-0.000062	0.064403
C158	C	0.577657	0.249938	0.314403
C159	C	0.827657	0.499938	0.564403
C160	C	1.077657	0.749938	0.814403
O161	O	0.273105	0.083595	0.063847
O162	O	0.523105	0.333595	0.313847
O163	O	0.773105	0.583595	0.563847
O164	O	1.023105	0.833595	0.813847
O165	O	0.273071	-0.083744	0.063846
O166	O	0.523071	0.166256	0.313846
O167	O	0.773071	0.416256	0.563846
O168	O	1.023071	0.666256	0.813846
C169	C	0.045347	-0.045293	0.061514
C170	C	0.295347	0.204707	0.311514
C171	C	0.545347	0.454707	0.561514
C172	C	0.795347	0.704707	0.811514
C173	C	0.020143	-0.000073	0.061247
C174	C	0.270143	0.249927	0.311247
C175	C	0.520143	0.499927	0.561247
C176	C	0.770143	0.749927	0.811247
C177	C	0.045350	0.045150	0.061498
C178	C	0.295350	0.295150	0.311498
C179	C	0.545350	0.545150	0.561498
C180	C	0.795350	0.795150	0.811498
C181	C	-0.030272	-0.000074	0.060733
C182	C	0.219728	0.249926	0.310733
C183	C	0.469728	0.499926	0.560733
C184	C	0.719728	0.749926	0.810733
C185	C	-0.055479	-0.045296	0.060482
C186	C	0.194521	0.204704	0.310482
C187	C	0.444521	0.454704	0.560482
C188	C	0.694521	0.704704	0.810482
C189	C	-0.030272	-0.090517	0.060744
C190	C	0.219728	0.159483	0.310744
C191	C	0.469728	0.409483	0.560744
C192	C	0.719728	0.659483	0.810744
C193	C	0.020139	-0.090515	0.061262
C194	C	0.270139	0.159485	0.311262
C195	C	0.520139	0.409485	0.561262
C196	C	0.770139	0.659485	0.811262
C197	C	0.020143	0.090371	0.061236
C198	C	0.270143	0.340371	0.311236
C199	C	0.520143	0.590371	0.561236
C200	C	0.770143	0.840371	0.811236
C201	C	-0.030269	0.090365	0.060719
C202	C	0.219731	0.340365	0.310719
C203	C	0.469731	0.590365	0.560719
C204	C	0.719731	0.840365	0.810719
C205	C	-0.055476	0.045143	0.060467
C206	C	0.194524	0.295143	0.310467
C207	C	0.444524	0.545143	0.560467
C208	C	0.694524	0.795143	0.810467
N209	N	0.570528	-0.129314	0.061795
N210	N	0.820528	0.120686	0.311795
N211	N	1.070528	0.370686	0.561795
N212	N	1.320528	0.620686	0.811795
C213	C	0.603658	-0.473943	0.028664
C214	C	0.853658	-0.223943	0.278664
C215	C	1.103658	0.026057	0.528664
C216	C	1.353658	0.276057	0.778664
C217	C	0.603670	-0.682821	0.028656
C218	C	0.853670	-0.432821	0.278656
C219	C	1.103670	-0.182821	0.528656
C220	C	1.353670	0.067179	0.778656
O221	O	0.631818	-0.709827	0.000490
O222	O	0.881818	-0.459827	0.250490
O223	O	1.131818	-0.209827	0.500490
O224	O	1.381818	0.040173	0.750490
N225	N	0.570558	-0.708942	0.061759
N226	N	0.820558	-0.458942	0.311759
N227	N	1.070558	-0.208942	0.561759
N228	N	1.320558	0.041058	0.811759
C229	C	0.537439	-0.682839	0.094864
C230	C	0.787439	-0.432839	0.344864
C231	C	1.037439	-0.182839	0.594864
C232	C	1.287439	0.067161	0.844864
O233	O	0.509273	-0.709849	0.123016
O234	O	0.759273	-0.459849	0.373016
O235	O	1.009273	-0.209849	0.623016
O236	O	1.259273	0.040151	0.873016
C237	C	0.537426	-0.473963	0.094868
C238	C	0.787426	-0.223963	0.344868
C239	C	1.037426	0.026037	0.594868
C240	C	1.287426	0.276037	0.844868
C241	C	0.570543	-0.447845	0.061767
C242	C	0.820543	-0.197845	0.311767
C243	C	1.070543	0.052155	0.561767
C244	C	1.320543	0.302155	0.811767
C245	C	0.636772	-0.447826	-0.004436
C246	C	0.886772	-0.197826	0.245564
C247	C	1.136772	0.052174	0.495564
C248	C	1.386772	0.302174	0.745564
C249	C	0.636770	-0.395609	-0.004432
C250	C	0.886770	-0.145609	0.245568
C251	C	1.136770	0.104391	0.495568
C252	C	1.386770	0.354391	0.745568
C253	C	0.603655	-0.369511	0.028671
C254	C	0.853655	-0.119511	0.278671
C255	C	1.103655	0.130489	0.528671
C256	C	1.353655	0.380489	0.778671
C257	C	0.570541	-0.395629	0.061771
C258	C	0.820541	-0.145629	0.311771
C259	C	1.070541	0.104371	0.561771
C260	C	1.320541	0.354371	0.811771
C261	C	0.504305	-0.447861	0.127971
C262	C	0.754305	-0.197861	0.377971
C263	C	1.004305	0.052139	0.627971
C264	C	1.254305	0.302139	0.877971
C265	C	0.504304	-0.395639	0.127968
C266	C	0.754304	-0.145639	0.377968
C267	C	1.004304	0.104361	0.627968
C268	C	1.254304	0.354361	0.877968
C269	C	0.537421	-0.369521	0.094866
C270	C	0.787421	-0.119521	0.344866
C271	C	1.037421	0.130479	0.594866
C272	C	1.287421	0.380479	0.844866
C273	C	0.537425	-0.317314	0.094878
C274	C	0.787425	-0.067314	0.344878
C275	C	1.037425	0.182686	0.594878
C276	C	1.287425	0.432686	0.844878
N277	N	0.570536	-0.291193	0.061775
N278	N	0.820536	-0.041193	0.311775
N279	N	1.070536	0.208807	0.561775
N280	N	1.320536	0.458807	0.811775
C281	C	0.603651	-0.317292	0.028672
C282	C	0.853651	-0.067292	0.278672
C283	C	1.103651	0.182708	0.528672
C284	C	1.353651	0.432708	0.778672
C285	C	0.537449	-0.792503	0.094859
C286	C	0.787449	-0.542503	0.344859
C287	C	1.037449	-0.292503	0.594859
C288	C	1.287449	-0.042503	0.844859
C289	C	0.537453	-0.844722	0.094859
C290	C	0.787453	-0.594722	0.344859
C291	C	1.037453	-0.344722	0.594859
C292	C	1.287453	-0.094722	0.844859
C293	C	0.603683	-0.844700	0.028651
C294	C	0.853683	-0.594700	0.278651
C295	C	1.103683	-0.344700	0.528651
C296	C	1.353683	-0.094700	0.778651
C297	C	0.603681	-0.792480	0.028654
C298	C	0.853681	-0.542480	0.278654
C299	C	1.103681	-0.292480	0.528654
C300	C	1.353681	-0.042480	0.778654
C301	C	0.570561	-0.766382	0.061757
C302	C	0.820561	-0.516382	0.311757
C303	C	1.070561	-0.266382	0.561757
C304	C	1.320561	-0.016382	0.811757
C305	C	0.603646	-0.207634	0.028683
C306	C	0.853646	0.042366	0.278683
C307	C	1.103646	0.292366	0.528683
C308	C	1.353646	0.542366	0.778683
C309	C	0.603643	-0.155413	0.028691
C310	C	0.853643	0.094587	0.278691
C311	C	1.103643	0.344587	0.528691
C312	C	1.353643	0.594587	0.778691
C313	C	0.537412	-0.155439	0.094898
C314	C	0.787412	0.094561	0.344898
C315	C	1.037412	0.344561	0.594898
C316	C	1.287412	0.594561	0.844898
C317	C	0.537416	-0.207656	0.094891
C318	C	0.787416	0.042344	0.344891
C319	C	1.037416	0.292344	0.594891
C320	C	1.287416	0.542344	0.844891
C321	C	0.570535	-0.233752	0.061780
C322	C	0.820535	0.016248	0.311780
C323	C	1.070535	0.266248	0.561780
C324	C	1.320535	0.516248	0.811780
O325	O	0.509287	-0.290275	0.123026
O326	O	0.759287	-0.040275	0.373026
O327	O	1.009287	0.209725	0.623026
O328	O	1.259287	0.459725	0.873026
O329	O	0.631806	-0.290273	0.000517
O330	O	0.881806	-0.040273	0.250517
O331	O	1.131806	0.209727	0.500517
O332	O	1.381806	0.459727	0.750517
C333	C	0.603660	-0.526160	0.028660
C334	C	0.853660	-0.276160	0.278660
C335	C	1.103660	-0.026160	0.528660
C336	C	1.353660	0.223840	0.778660
C337	C	0.570546	-0.552277	0.061759
C338	C	0.820546	-0.302277	0.311759
C339	C	1.070546	-0.052277	0.561759
C340	C	1.320546	0.197723	0.811759
C341	C	0.537431	-0.526179	0.094862
C342	C	0.787431	-0.276179	0.344862
C343	C	1.037431	-0.026179	0.594862
C344	C	1.287431	0.223821	0.844862
C345	C	0.570550	-0.604496	0.061758
C346	C	0.820550	-0.354496	0.311758
C347	C	1.070550	-0.104496	0.561758
C348	C	1.320550	0.145504	0.811758
C349	C	0.603665	-0.630595	0.028655
C350	C	0.853665	-0.380595	0.278655
C351	C	1.103665	-0.130595	0.528655
C352	C	1.353665	0.119405	0.778655
C353	C	0.636776	-0.604474	-0.004448
C354	C	0.886776	-0.354474	0.245552
C355	C	1.136776	-0.104474	0.495552
C356	C	1.386776	0.145526	0.745552
C357	C	0.636775	-0.552258	-0.004444
C358	C	0.886775	-0.302258	0.245556
C359	C	1.136775	-0.052258	0.495556
C360	C	1.386775	0.197742	0.745556
C361	C	0.504319	-0.552299	0.127965
C362	C	0.754319	-0.302299	0.377965
C363	C	1.004319	-0.052299	0.627965
C364	C	1.254319	0.197701	0.877965
C365	C	0.504324	-0.604516	0.127959
C366	C	0.754324	-0.354516	0.377959
C367	C	1.004324	-0.104516	0.627959
C368	C	1.254324	0.145484	0.877959
C369	C	0.537439	-0.630614	0.094855
C370	C	0.787439	-0.380614	0.344855
C371	C	1.037439	-0.130614	0.594855
C372	C	1.287439	0.119386	0.844855
C373	C	0.658952	-0.000076	0.057571
C374	C	0.908952	0.249924	0.307571
C375	C	1.158952	0.499924	0.557571
C376	C	1.408952	0.749924	0.807571
C377	C	0.712608	-0.000079	0.058113
C378	C	0.962608	0.249921	0.308113
C379	C	1.212608	0.499921	0.558113
C380	C	1.462608	0.749921	0.808113
C381	C	0.574730	-0.000064	-0.026627
C382	C	0.824730	0.249936	0.223373
C383	C	1.074730	0.499936	0.473373
C384	C	1.324730	0.749936	0.723373
C385	C	0.574174	-0.000060	-0.080281
C386	C	0.824174	0.249940	0.169719
C387	C	1.074174	0.499940	0.419719
C388	C	1.324174	0.749940	0.669719
N389	N	0.570569	0.129180	0.061756
N390	N	0.820569	0.379180	0.311756
N391	N	1.070569	0.629180	0.561756
N392	N	1.320569	0.879180	0.811756
C393	C	0.526206	-0.000052	-0.457344
C394	C	0.776206	0.249948	-0.207344
C395	C	1.026206	0.499948	0.042656
C396	C	1.276206	0.749948	0.292656
C397	C	0.528252	-0.000052	-0.255685
C398	C	0.778252	0.249948	-0.005685
C399	C	1.028252	0.499948	0.244315
C400	C	1.278252	0.749948	0.494315
O401	O	0.491030	-0.000028	-0.224425
O402	O	0.741030	0.249972	0.025575
O403	O	0.991030	0.499972	0.275575
O404	O	1.241030	0.749972	0.525575
N405	N	0.572588	-0.000057	-0.236566
N406	N	0.822588	0.249943	0.013434
N407	N	1.072588	0.499943	0.263434
N408	N	1.322588	0.749943	0.513434
C409	C	0.616415	-0.000058	-0.267865
C410	C	0.866415	0.249942	-0.017865
C411	C	1.116415	0.499942	0.232135
C412	C	1.366415	0.749942	0.482135
O413	O	0.654172	-0.000058	-0.246976
O414	O	0.904172	0.249942	0.003024
O415	O	1.154172	0.499942	0.253024
O416	O	1.404172	0.749942	0.503024
C417	C	0.614368	-0.000055	-0.469524
C418	C	0.864368	0.249945	-0.219524
C419	C	1.114368	0.499945	0.030476
C420	C	1.364368	0.749945	0.280476
C421	C	0.570029	-0.000055	-0.488640
C422	C	0.820029	0.249945	-0.238640
C423	C	1.070029	0.499945	0.011360
C424	C	1.320029	0.749945	0.261360
C425	C	0.481871	-0.000052	-0.476461
C426	C	0.731871	0.249948	-0.226461
C427	C	0.981871	0.499948	0.023539
C428	C	1.231871	0.749948	0.273539
C429	C	0.481360	-0.000054	-0.526873
C430	C	0.731360	0.249946	-0.276873
C431	C	0.981360	0.499946	-0.026873
C432	C	1.231360	0.749946	0.223127
C433	C	0.525184	-0.000058	-0.558168
C434	C	0.775184	0.249942	-0.308168
C435	C	1.025184	0.499942	-0.058168
C436	C	1.275184	0.749942	0.191832
C437	C	0.569518	-0.000058	-0.539052
C438	C	0.819518	0.249942	-0.289052
C439	C	1.069518	0.499942	-0.039052
C440	C	1.319518	0.749942	0.210948
C441	C	0.658194	-0.000054	-0.500823
C442	C	0.908194	0.249946	-0.250823
C443	C	1.158194	0.499946	-0.000823
C444	C	1.408194	0.749946	0.249177
C445	C	0.657679	-0.000051	-0.551240
C446	C	0.907679	0.249949	-0.301240
C447	C	1.157679	0.499949	-0.051240
C448	C	1.407679	0.749949	0.198760
C449	C	0.613340	-0.000052	-0.570356
C450	C	0.863340	0.249948	-0.320356
C451	C	1.113340	0.499948	-0.070356
C452	C	1.363340	0.749948	0.179644
C453	C	0.612831	-0.000064	-0.620760
C454	C	0.862831	0.249936	-0.370760
C455	C	1.112831	0.499936	-0.120760
C456	C	1.362831	0.749936	0.129240
N457	N	0.568495	-0.000059	-0.639879
N458	N	0.818495	0.249941	-0.389879
N459	N	1.068495	0.499941	-0.139879
N460	N	1.318495	0.749941	0.110121
C461	C	0.524672	-0.000056	-0.608583
C462	C	0.774672	0.249944	-0.358583
C463	C	1.024672	0.499944	-0.108583
C464	C	1.274672	0.749944	0.141417
C465	C	0.617486	-0.000061	-0.161991
C466	C	0.867486	0.249939	0.088009
C467	C	1.117486	0.499939	0.338009
C468	C	1.367486	0.749939	0.588009
C469	C	0.617998	-0.000063	-0.111577
C470	C	0.867998	0.249937	0.138423
C471	C	1.117998	0.499937	0.388423
C472	C	1.367998	0.749937	0.638423
C473	C	0.529835	-0.000055	-0.099399
C474	C	0.779835	0.249945	0.150601
C475	C	1.029835	0.499945	0.400601
C476	C	1.279835	0.749945	0.650601
C477	C	0.529324	-0.000057	-0.149815
C478	C	0.779324	0.249943	0.100185
C479	C	1.029324	0.499943	0.350185
C480	C	1.279324	0.749943	0.600185
C481	C	0.573151	-0.000056	-0.181110
C482	C	0.823151	0.249944	0.068890
C483	C	1.073151	0.499944	0.318890
C484	C	1.323151	0.749944	0.568890
C485	C	0.523602	-0.000062	-0.714452
C486	C	0.773602	0.249938	-0.464452
C487	C	1.023602	0.499938	-0.214452
C488	C	1.273602	0.749938	0.035548
C489	C	0.523095	-0.000067	-0.764869
C490	C	0.773095	0.249933	-0.514869
C491	C	1.023095	0.499933	-0.264869
C492	C	1.273095	0.749933	-0.014869
C493	C	0.611257	-0.000072	-0.777042
C494	C	0.861257	0.249928	-0.527042
C495	C	1.111257	0.499928	-0.277042
C496	C	1.361257	0.749928	-0.027042
C497	C	0.611764	-0.000070	-0.726630
C498	C	0.861764	0.249930	-0.476630
C499	C	1.111764	0.499930	-0.226630
C500	C	1.361764	0.749930	0.023370
C501	C	0.567933	-0.000063	-0.695335
C502	C	0.817933	0.249937	-0.445335
C503	C	1.067933	0.499937	-0.195335
C504	C	1.317933	0.749937	0.054665
O505	O	0.650033	-0.000083	-0.652048
O506	O	0.900033	0.249917	-0.402048
O507	O	1.150033	0.499917	-0.152048
O508	O	1.400033	0.749917	0.097952
O509	O	0.486920	-0.000046	-0.629481
O510	O	0.736920	0.249954	-0.379481
O511	O	0.986920	0.499954	-0.129481
O512	O	1.236920	0.749954	0.120519
C513	C	0.526717	-0.000049	-0.406932
C514	C	0.776717	0.249951	-0.156932
C515	C	1.026717	0.499951	0.093068
C516	C	1.276717	0.749951	0.343068
C517	C	0.571052	-0.000050	-0.387816
C518	C	0.821052	0.249950	-0.137816
C519	C	1.071052	0.499950	0.112184
C520	C	1.321052	0.749950	0.362184
C521	C	0.614875	-0.000053	-0.419112
C522	C	0.864875	0.249947	-0.169112
C523	C	1.114875	0.499947	0.080888
C524	C	1.364875	0.749947	0.330888
C525	C	0.571563	-0.000051	-0.337402
C526	C	0.821563	0.249949	-0.087402
C527	C	1.071563	0.499949	0.162598
C528	C	1.321563	0.749949	0.412598
C529	C	0.527740	-0.000048	-0.306106
C530	C	0.777740	0.249952	-0.056106
C531	C	1.027740	0.499952	0.193894
C532	C	1.277740	0.749952	0.443894
C533	C	0.483404	-0.000043	-0.325225
C534	C	0.733404	0.249957	-0.075225
C535	C	0.983404	0.499957	0.174775
C536	C	1.233404	0.749957	0.424775
C537	C	0.482893	-0.000046	-0.375637
C538	C	0.732893	0.249954	-0.125637
C539	C	0.982893	0.499954	0.124363
C540	C	1.232893	0.749954	0.374363
C541	C	0.659211	-0.000058	-0.399993
C542	C	0.909211	0.249942	-0.149993
C543	C	1.159211	0.499942	0.100007
C544	C	1.409211	0.749942	0.350007
C545	C	0.659718	-0.000056	-0.349580
C546	C	0.909718	0.249944	-0.099580
C547	C	1.159718	0.499944	0.150420
C548	C	1.409718	0.749944	0.400420
C549	C	0.615895	-0.000052	-0.318285
C550	C	0.865895	0.249948	-0.068285
C551	C	1.115895	0.499948	0.181715
C552	C	1.365895	0.749948	0.431715
C553	C	0.566362	-0.000069	0.150181
C554	C	0.816362	0.249931	0.400181
C555	C	1.066362	0.499931	0.650181
C556	C	1.316362	0.749931	0.900181
C557	C	0.566918	-0.000071	0.203835
C558	C	0.816918	0.249929	0.453835
C559	C	1.066918	0.499929	0.703835
C560	C	1.316918	0.749929	0.953835
H561	H	-0.282717	-0.082126	0.058172
H562	H	-0.032717	0.167874	0.308172
H563	H	0.217283	0.417874	0.558172
H564	H	0.467283	0.667874	0.808172
H565	H	0.654103	-0.000071	-0.096017
H566	H	0.904103	0.249929	0.153983
H567	H	1.154103	0.499929	0.403983
H568	H	1.404103	0.749929	0.653983
H569	H	0.630612	-0.134149	0.001736
H570	H	0.880612	0.115851	0.251736
H571	H	1.130612	0.365851	0.501736
H572	H	1.380612	0.615851	0.751736
F573	F	0.469072	-0.524529	0.163199
F574	F	0.719072	-0.274529	0.413199
F575	F	0.969072	-0.024529	0.663199
F576	F	1.219072	0.225471	0.913199
H577	H	0.100444	-0.127339	0.062092
H578	H	0.350444	0.122661	0.312092
H579	H	0.600444	0.372661	0.562092
H580	H	0.850444	0.622661	0.812092
H581	H	0.423806	0.081992	0.065382
H582	H	0.673806	0.331992	0.315382
H583	H	0.923806	0.581992	0.565382
H584	H	1.173806	0.831992	0.815382
F585	F	0.430098	-0.093409	0.065476
F586	F	0.680098	0.156591	0.315476
F587	F	0.930098	0.406591	0.565476
F588	F	1.180098	0.656591	0.815476
F589	F	0.046957	-0.138649	0.061546
F590	F	0.296957	0.111351	0.311546
F591	F	0.546957	0.361351	0.561546
F592	F	0.796957	0.611351	0.811546
H593	H	0.100459	0.127207	0.062044
H594	H	0.350459	0.377207	0.312044
H595	H	0.600459	0.627207	0.562044
H596	H	0.850459	0.877207	0.812044
F597	F	-0.057108	-0.138646	0.060479
F598	F	0.192892	0.111354	0.310479
F599	F	0.442892	0.361354	0.560479
F600	F	0.692892	0.611354	0.810479
H601	H	0.695827	-0.000060	-0.334022
H602	H	0.945827	0.249940	-0.084022
H603	H	1.195827	0.499940	0.165978
H604	H	1.445827	0.749940	0.415978
F605	F	-0.184950	-0.093435	0.059176
F606	F	0.065050	0.156565	0.309176
F607	F	0.315050	0.406565	0.559176
F608	F	0.565050	0.656565	0.809176
H609	H	0.477339	-0.469119	0.154925
H610	H	0.727339	-0.219119	0.404925
H611	H	0.977339	0.030881	0.654925
H612	H	1.227339	0.280881	0.904925
H613	H	0.510454	-0.228921	0.121850
H614	H	0.760454	0.021079	0.371850
H615	H	1.010454	0.271079	0.621850
H616	H	1.260454	0.521079	0.871850
H617	H	0.630647	-0.771218	0.001700
H618	H	0.880647	-0.521218	0.251700
H619	H	1.130647	-0.271218	0.501700
H620	H	1.380647	-0.021218	0.751700
F621	F	0.638927	-0.872485	-0.006580
F622	F	0.888927	-0.622485	0.243420
F623	F	1.138927	-0.372485	0.493420
F624	F	1.388927	-0.122485	0.743420
H625	H	0.332346	-0.082110	0.064467
H626	H	0.582346	0.167890	0.314467
H627	H	0.832346	0.417890	0.564467
H628	H	1.082346	0.667890	0.814467
F629	F	0.502197	-0.764733	0.130095
F630	F	0.752197	-0.514733	0.380095
F631	F	1.002197	-0.264733	0.630095
F632	F	1.252197	-0.014733	0.880095
H633	H	0.332339	0.081993	0.064449
H634	H	0.582339	0.331993	0.314449
H635	H	0.832339	0.581993	0.564449
H636	H	1.082339	0.831993	0.814449
H637	H	-0.282702	0.081969	0.058155
H638	H	-0.032702	0.331969	0.308155
H639	H	0.217298	0.581969	0.558155
H640	H	0.467298	0.831969	0.808155
H641	H	-0.050786	0.127195	0.060505
H642	H	0.199214	0.377195	0.310505
H643	H	0.449214	0.627195	0.560505
H644	H	0.699214	0.877195	0.810505
F645	F	0.482134	-0.000056	-0.170154
F646	F	0.732134	0.249944	0.079846
F647	F	0.982134	0.499944	0.329846
F648	F	1.232134	0.749944	0.579846
F649	F	0.198214	0.138514	0.063038
F650	F	0.448214	0.388514	0.313038
F651	F	0.698214	0.638514	0.563038
F652	F	0.948214	0.888514	0.813038
H653	H	0.486987	-0.000070	-0.780430
H654	H	0.736987	0.249930	-0.530430
H655	H	0.986987	0.499930	-0.280430
H656	H	1.236987	0.749930	-0.030430
H657	H	0.663741	-0.530997	-0.031398
H658	H	0.913741	-0.280997	0.218602
H659	H	1.163741	-0.030997	0.468602
H660	H	1.413741	0.219003	0.718602
H661	H	-0.191251	0.081974	0.059079
H662	H	0.058749	0.331974	0.309079
H663	H	0.308749	0.581974	0.559079
H664	H	0.558749	0.831974	0.809079
H665	H	0.191890	-0.127336	0.063031
H666	H	0.441890	0.122664	0.313031
H667	H	0.691890	0.372664	0.563031
H668	H	0.941890	0.622664	0.813031
H669	H	0.040661	0.127197	0.061439
H670	H	0.290661	0.377197	0.311439
H671	H	0.540661	0.627197	0.561439
H672	H	0.790661	0.877197	0.811439
F673	F	0.638895	-0.235399	-0.006558
F674	F	0.888895	0.014601	0.243442
F675	F	1.138895	0.264601	0.493442
F676	F	1.388895	0.514601	0.743442
H677	H	0.445255	-0.000050	-0.542432
H678	H	0.695255	0.249950	-0.292432
H679	H	0.945255	0.499950	-0.042432
H680	H	1.195255	0.749950	0.207568
H681	H	0.663738	-0.469070	-0.031395
H682	H	0.913738	-0.219070	0.218605
H683	H	1.163738	0.030930	0.468605
H684	H	1.413738	0.280930	0.718605
H685	H	0.477332	-0.374393	0.154924
H686	H	0.727332	-0.124393	0.404924
H687	H	0.977332	0.125607	0.654924
H688	H	1.227332	0.375607	0.904924
H689	H	0.663736	-0.374347	-0.031387
H690	H	0.913736	-0.124347	0.218613
H691	H	1.163736	0.125653	0.468613
H692	H	1.413736	0.375653	0.718613
H693	H	0.510492	-0.865983	0.121818
H694	H	0.760492	-0.615983	0.371818
H695	H	1.010492	-0.365983	0.621818
H696	H	1.260492	-0.115983	0.871818
H697	H	0.647868	-0.000077	-0.711065
H698	H	0.897868	0.249923	-0.461065
H699	H	1.147868	0.499923	-0.211065
H700	H	1.397868	0.749923	0.038935
F701	F	0.502171	-0.127656	0.130128
F702	F	0.752171	0.122344	0.380128
F703	F	1.002171	0.372344	0.630128
F704	F	1.252171	0.622344	0.880128
F705	F	0.672021	-0.632259	-0.039677
F706	F	0.922021	-0.382259	0.210323
F707	F	1.172021	-0.132259	0.460323
F708	F	1.422021	0.117741	0.710323
F709	F	0.469076	-0.632307	0.163195
F710	F	0.719076	-0.382307	0.413195
F711	F	0.969076	-0.132307	0.663195
F712	F	1.219076	0.117693	0.913195
H713	H	0.694299	-0.000053	-0.485268
H714	H	0.944299	0.249947	-0.235268
H715	H	1.194299	0.499947	0.014732
H716	H	1.444299	0.749947	0.264732
H717	H	0.694898	-0.000060	-0.425469
H718	H	0.944898	0.249940	-0.175469
H719	H	1.194898	0.499940	0.074531
H720	H	1.444898	0.749940	0.324531
H721	H	0.487910	-0.000057	-0.688978
H722	H	0.737910	0.249943	-0.438978
H723	H	0.987910	0.499943	-0.188978
H724	H	1.237910	0.749943	0.061022
H725	H	0.653177	-0.000061	-0.187468
H726	H	0.903177	0.249939	0.062532
H727	H	1.153177	0.499939	0.312532
H728	H	1.403177	0.749939	0.562532
F729	F	0.435702	-0.000045	-0.395975
F730	F	0.685702	0.249955	-0.145975
F731	F	0.935702	0.499955	0.104025
F732	F	1.185702	0.749955	0.354025
F733	F	0.435224	-0.000046	-0.443160
F734	F	0.685224	0.249954	-0.193160
F735	F	0.935224	0.499954	0.056840
F736	F	1.185224	0.749954	0.306840
H737	H	0.494152	-0.000055	-0.073910
H738	H	0.744152	0.249945	0.176090
H739	H	0.994152	0.499945	0.426090
H740	H	1.244152	0.749945	0.676090
F741	F	0.704327	-0.000049	-0.584545
F742	F	0.954327	0.249951	-0.334545
F743	F	1.204327	0.499951	-0.084545
F744	F	1.454327	0.749951	0.165455
H745	H	0.447722	-0.000044	-0.299735
H746	H	0.697722	0.249956	-0.049735
H747	H	0.947722	0.499956	0.200265
H748	H	1.197722	0.749956	0.450265
F749	F	0.657895	-0.000080	-0.810358
F750	F	0.907895	0.249920	-0.560358
F751	F	1.157895	0.499920	-0.310358
F752	F	1.407895	0.749920	-0.060358
