data_functionalizedCrystal
_audit_creation_method	'MofGen! by Chris Wilmer'
_symmetry_space_group_name_H-M	'P1'
_symmetry_Int_Tables_number	1
_symmetry_cell_setting	triclinic
loop_
_symmetry_equiv_pos_as_xyz
  x,y,z
_cell_length_a	21.295418
_cell_length_b	29.839131
_cell_length_c	21.295412
_cell_angle_alpha	89.970612
_cell_angle_beta	89.957310
_cell_angle_gamma	90.057233
loop_
_atom_site_label
_atom_site_type_symbol
_atom_site_fract_x
_atom_site_fract_y
_atom_site_fract_z
Zn1	Zn	0.962302	-0.178675	-0.356239
Zn2	Zn	1.295635	0.154658	-0.022906
Zn3	Zn	1.628968	0.487992	0.310427
Zn4	Zn	0.962186	-0.253802	-0.250967
Zn5	Zn	1.295519	0.079531	0.082366
Zn6	Zn	1.628853	0.412864	0.415700
Zn7	Zn	0.857027	-0.178708	-0.250949
Zn8	Zn	1.190360	0.154626	0.082384
Zn9	Zn	1.523693	0.487959	0.415718
Zn10	Zn	0.856974	-0.253799	-0.356163
Zn11	Zn	1.190307	0.079534	-0.022830
Zn12	Zn	1.523641	0.412867	0.310503
O13	O	0.909622	-0.216246	-0.303580
O14	O	1.242955	0.117087	0.029754
O15	O	1.576289	0.450421	0.363087
O16	O	1.050376	-0.188628	-0.342314
O17	O	1.383709	0.144705	-0.008980
O18	O	1.717042	0.478039	0.324353
O19	O	0.948210	-0.243856	-0.162875
O20	O	1.281543	0.089478	0.170458
O21	O	1.614877	0.422811	0.503792
O22	O	0.871062	-0.115836	-0.264940
O23	O	1.204395	0.217497	0.068393
O24	O	1.537729	0.550830	0.401726
O25	O	1.050291	-0.243824	-0.264971
O26	O	1.383624	0.089509	0.068363
O27	O	1.716957	0.422843	0.401696
O28	O	0.948407	-0.115812	-0.342296
O29	O	1.281740	0.217521	-0.008963
O30	O	1.615074	0.550855	0.324370
O31	O	0.870950	-0.188684	-0.162862
O32	O	1.204283	0.144649	0.170471
O33	O	1.537617	0.477982	0.503805
O34	O	0.768930	-0.188681	-0.264867
O35	O	1.102264	0.144652	0.068467
O36	O	1.435597	0.477985	0.401800
O37	O	0.870972	-0.243819	-0.444263
O38	O	1.204306	0.089514	-0.110930
O39	O	1.537639	0.422848	0.222404
O40	O	0.768892	-0.243851	-0.342167
O41	O	1.102225	0.089483	-0.008834
O42	O	1.435558	0.422816	0.324499
O43	O	0.948356	-0.188625	-0.444319
O44	O	1.281689	0.144708	-0.110985
O45	O	1.615023	0.478041	0.222348
O46	O	0.948159	-0.316669	-0.264897
O47	O	1.281492	0.016664	0.068436
O48	O	1.614826	0.349998	0.401769
O49	O	0.870860	-0.316667	-0.342185
O50	O	1.204194	0.016666	-0.008851
O51	O	1.537527	0.350000	0.324482
C52	C	0.746070	-0.216270	-0.303507
C53	C	1.079404	0.117064	0.029826
C54	C	1.412737	0.450397	0.363160
C55	C	0.676102	-0.216291	-0.303491
C56	C	1.009436	0.117043	0.029842
C57	C	1.342769	0.450376	0.363176
C58	C	0.909508	-0.332969	-0.303548
C59	C	1.242842	0.000365	0.029785
C60	C	1.576175	0.333698	0.363118
C61	C	0.909517	-0.382903	-0.303556
C62	C	1.242851	-0.049570	0.029777
C63	C	1.576184	0.283764	0.363111
C64	C	0.643232	-0.245055	-0.343681
C65	C	0.976565	0.088278	-0.010348
C66	C	1.309899	0.421611	0.322985
C67	C	0.577489	-0.245044	-0.343710
C68	C	0.910823	0.088289	-0.010376
C69	C	1.244156	0.421622	0.322957
C70	C	0.544620	-0.216273	-0.303536
C71	C	0.877953	0.117060	0.029797
C72	C	1.211286	0.450393	0.363130
C73	C	0.577498	-0.187503	-0.263343
C74	C	0.910831	0.145830	0.069990
C75	C	1.244165	0.479164	0.403323
C76	C	0.643239	-0.187512	-0.263321
C77	C	0.976573	0.145822	0.070013
C78	C	1.309906	0.479155	0.403346
N79	N	0.441346	-0.212763	-0.248479
N80	N	0.774679	0.120570	0.084855
N81	N	1.108012	0.453904	0.418188
N82	N	0.378894	-0.212757	-0.248502
N83	N	0.712228	0.120576	0.084831
N84	N	1.045561	0.453909	0.418165
C85	C	0.346545	-0.216245	-0.303603
C86	C	0.679879	0.117089	0.029730
C87	C	1.013212	0.450422	0.363064
N88	N	0.379007	-0.219746	-0.358681
N89	N	0.712340	0.113587	-0.025348
N90	N	1.045673	0.446920	0.307985
N91	N	0.441464	-0.219754	-0.358657
N92	N	0.774797	0.113579	-0.025324
N93	N	1.108131	0.446912	0.308009
C94	C	0.473334	-0.216260	-0.303557
C95	C	0.806668	0.117073	0.029777
C96	C	1.140001	0.450406	0.363110
C97	C	0.242389	-0.244999	-0.343827
C98	C	0.575723	0.088334	-0.010494
C99	C	0.909056	0.421668	0.322839
C100	C	0.176646	-0.244985	-0.343857
C101	C	0.509979	0.088349	-0.010523
C102	C	0.843312	0.421682	0.322810
C103	C	0.176656	-0.187445	-0.263485
C104	C	0.509989	0.145888	0.069848
C105	C	0.843322	0.479221	0.403182
C106	C	0.242398	-0.187457	-0.263461
C107	C	0.575731	0.145876	0.069872
C108	C	0.909065	0.479209	0.403206
C109	C	0.275261	-0.216236	-0.303632
C110	C	0.608594	0.117097	0.029702
C111	C	0.941928	0.450430	0.363035
C112	C	0.949945	-0.692535	-0.263395
C113	C	1.283278	-0.359202	0.069938
C114	C	1.616611	-0.025868	0.403272
C115	C	0.950022	-0.880208	-0.263419
C116	C	1.283356	-0.546875	0.069914
C117	C	1.616689	-0.213541	0.403247
O118	O	0.984305	-0.904463	-0.229249
O119	O	1.317638	-0.571130	0.104084
O120	O	1.650972	-0.237796	0.437418
N121	N	0.909753	-0.903688	-0.303627
N122	N	1.243086	-0.570355	0.029706
N123	N	1.576419	-0.237021	0.363040
C124	C	0.869463	-0.880247	-0.343835
C125	C	1.202797	-0.546914	-0.010501
C126	C	1.536130	-0.213580	0.322832
O127	O	0.835218	-0.904525	-0.378039
O128	O	1.168551	-0.571191	-0.044706
O129	O	1.501885	-0.237858	0.288628
C130	C	0.869389	-0.692575	-0.343813
C131	C	1.202723	-0.359242	-0.010479
C132	C	1.536056	-0.025908	0.322854
C133	C	0.909657	-0.669097	-0.303598
C134	C	1.242991	-0.335764	0.029735
C135	C	1.576324	-0.002431	0.363069
C136	C	0.990210	-0.669057	-0.223184
C137	C	1.323543	-0.335724	0.110150
C138	C	1.656876	-0.002390	0.443483
C139	C	0.990188	-0.622142	-0.223176
C140	C	1.323521	-0.288808	0.110158
C141	C	1.656854	0.044525	0.443491
C142	C	0.949900	-0.598704	-0.263379
C143	C	1.283234	-0.265371	0.069955
C144	C	1.616567	0.067963	0.403288
C145	C	0.909635	-0.622182	-0.303590
C146	C	1.242968	-0.288848	0.029744
C147	C	1.576302	0.044485	0.363077
C148	C	0.829104	-0.669135	-0.384023
C149	C	1.162437	-0.335801	-0.050690
C150	C	1.495771	-0.002468	0.282644
C151	C	0.829090	-0.622214	-0.384015
C152	C	1.162423	-0.288880	-0.050682
C153	C	1.495757	0.044453	0.282652
C154	C	0.869358	-0.598736	-0.343800
C155	C	1.202691	-0.265403	-0.010467
C156	C	1.536025	0.067931	0.322867
C157	C	0.869325	-0.551829	-0.343785
C158	C	1.202659	-0.218495	-0.010451
C159	C	1.535992	0.114838	0.322882
N160	N	0.909595	-0.528348	-0.303577
N161	N	1.242929	-0.195015	0.029756
N162	N	1.576262	0.138318	0.363090
C163	C	0.949883	-0.551786	-0.263374
C164	C	1.283216	-0.218453	0.069959
C165	C	1.616549	0.114881	0.403293
C166	C	0.869504	-0.978778	-0.343842
C167	C	1.202838	-0.645444	-0.010509
C168	C	1.536171	-0.312111	0.322824
C169	C	0.869522	-1.025696	-0.343847
C170	C	1.202855	-0.692362	-0.010514
C171	C	1.536189	-0.359029	0.322820
C172	C	0.950082	-1.025653	-0.263432
C173	C	1.283415	-0.692320	0.069901
C174	C	1.616749	-0.358986	0.403234
C175	C	0.950061	-0.978734	-0.263425
C176	C	1.283394	-0.645401	0.069908
C177	C	1.616727	-0.312068	0.403242
C178	C	0.909774	-0.955298	-0.303634
C179	C	1.243107	-0.621964	0.029699
C180	C	1.576441	-0.288631	0.363032
C181	C	0.949832	-0.453260	-0.263359
C182	C	1.283166	-0.119927	0.069974
C183	C	1.616499	0.213406	0.403307
C184	C	0.949805	-0.406341	-0.263353
C185	C	1.283138	-0.073007	0.069980
C186	C	1.616471	0.260326	0.403314
C187	C	0.869247	-0.406387	-0.343770
C188	C	1.202581	-0.073054	-0.010436
C189	C	1.535914	0.260279	0.322897
C190	C	0.869273	-0.453303	-0.343774
C191	C	1.202606	-0.119969	-0.010441
C192	C	1.535939	0.213364	0.322893
C193	C	0.909570	-0.476738	-0.303567
C194	C	1.242903	-0.143405	0.029767
C195	C	1.576237	0.189929	0.363100
O196	O	0.835066	-0.527545	-0.377942
O197	O	1.168399	-0.194211	-0.044609
O198	O	1.501733	0.139122	0.288724
O199	O	0.984133	-0.527500	-0.229185
O200	O	1.317466	-0.194167	0.104149
O201	O	1.650800	0.139166	0.437482
C202	C	0.949967	-0.739450	-0.263403
C203	C	1.283300	-0.406117	0.069930
C204	C	1.616634	-0.072784	0.403264
C205	C	0.909702	-0.762928	-0.303614
C206	C	1.243035	-0.429595	0.029719
C207	C	1.576368	-0.096261	0.363053
C208	C	0.869414	-0.739490	-0.343817
C209	C	1.202748	-0.406157	-0.010484
C210	C	1.536081	-0.072824	0.322850
C211	C	0.909719	-0.809846	-0.303619
C212	C	1.243053	-0.476513	0.029714
C213	C	1.576386	-0.143179	0.363048
C214	C	0.950007	-0.833284	-0.263416
C215	C	1.283340	-0.499950	0.069917
C216	C	1.616673	-0.166617	0.403251
C217	C	0.990277	-0.809803	-0.223208
C218	C	1.323610	-0.476470	0.110125
C219	C	1.656943	-0.143137	0.443458
C220	C	0.990254	-0.762888	-0.223200
C221	C	1.323588	-0.429555	0.110133
C222	C	1.656921	-0.096221	0.443467
C223	C	0.829145	-0.762971	-0.384025
C224	C	1.162478	-0.429637	-0.050692
C225	C	1.495811	-0.096304	0.282642
C226	C	0.829170	-0.809886	-0.384029
C227	C	1.162503	-0.476553	-0.050696
C228	C	1.495836	-0.143219	0.282637
C229	C	0.869457	-0.833324	-0.343826
C230	C	1.202790	-0.499990	-0.010493
C231	C	1.536124	-0.166657	0.322840
C232	C	1.073812	-0.216223	-0.303653
C233	C	1.407146	0.117111	0.029681
C234	C	1.740479	0.450444	0.363014
C235	C	1.143781	-0.216213	-0.303684
C236	C	1.477114	0.117121	0.029649
C237	C	1.810447	0.450454	0.362983
C238	C	0.909671	-0.216218	-0.467770
C239	C	1.243005	0.117115	-0.134437
C240	C	1.576338	0.450449	0.198897
C241	C	0.909692	-0.216206	-0.537738
C242	C	1.243026	0.117127	-0.204405
C243	C	1.576359	0.450460	0.128929
C244	C	0.909753	-0.099068	-0.303625
C245	C	1.243087	0.234266	0.029709
C246	C	1.576420	0.567599	0.363042
C247	C	0.909809	-0.049133	-0.303644
C248	C	1.243143	0.284200	0.029689
C249	C	1.576476	0.617533	0.363023
C250	C	0.869474	-0.187475	-0.570588
C251	C	1.202807	0.145858	-0.237255
C252	C	1.536140	0.479192	0.096079
C253	C	0.869472	-0.187467	-0.636331
C254	C	1.202805	0.145867	-0.302997
C255	C	1.536138	0.479200	0.030336
C256	C	0.909699	-0.216185	-0.669221
C257	C	1.243032	0.117149	-0.335887
C258	C	1.576366	0.450482	-0.002554
C259	C	0.949921	-0.244921	-0.636363
C260	C	1.283254	0.088412	-0.303030
C261	C	1.616587	0.421745	0.030304
C262	C	0.949917	-0.244932	-0.570622
C263	C	1.283250	0.088401	-0.237288
C264	C	1.616584	0.421735	0.096045
N265	N	0.964803	-0.219605	-0.772477
N266	N	1.298136	0.113728	-0.439144
N267	N	1.631469	0.447062	-0.105811
N268	N	0.964804	-0.219592	-0.834929
N269	N	1.298137	0.113741	-0.501596
N270	N	1.631471	0.447075	-0.168262
C271	C	0.909711	-0.216155	-0.867295
C272	C	1.243044	0.117178	-0.533962
C273	C	1.576377	0.450512	-0.200629
N274	N	0.854615	-0.212722	-0.834851
N275	N	1.187948	0.120611	-0.501518
N276	N	1.521281	0.453945	-0.168185
N277	N	0.854614	-0.212733	-0.772394
N278	N	1.187947	0.120601	-0.439061
N279	N	1.521281	0.453934	-0.105727
C280	C	0.909707	-0.216177	-0.740506
C281	C	1.243040	0.117157	-0.407173
C282	C	1.576374	0.450490	-0.073839
C283	C	0.869486	-0.187413	-0.971431
C284	C	1.202820	0.145920	-0.638098
C285	C	1.536153	0.479253	-0.304764
C286	C	0.869483	-0.187408	-1.037175
C287	C	1.202816	0.145925	-0.703841
C288	C	1.536150	0.479259	-0.370508
C289	C	0.949938	-0.244860	-1.037206
C290	C	1.283271	0.088473	-0.703872
C291	C	1.616604	0.421806	-0.370539
C292	C	0.949935	-0.244868	-0.971463
C293	C	1.283269	0.088465	-0.638130
C294	C	1.616602	0.421799	-0.304797
C295	C	0.909711	-0.216142	-0.938580
C296	C	1.243044	0.117191	-0.605246
C297	C	1.576377	0.450525	-0.271913
C298	C	0.909609	-0.216241	-0.140028
C299	C	1.242943	0.117092	0.193305
C300	C	1.576276	0.450425	0.526639
C301	C	0.909710	-0.216127	-0.070060
C302	C	1.243044	0.117207	0.263273
C303	C	1.576377	0.450540	0.596606
H304	H	0.550721	-0.268468	-0.376440
H305	H	0.884055	0.064865	-0.043106
H306	H	1.217388	0.398199	0.290227
N307	N	0.543916	-0.158114	-0.222315
N308	N	0.877249	0.175220	0.111018
N309	N	1.210583	0.508553	0.444351
N310	N	0.485219	-0.158109	-0.222341
N311	N	0.818553	0.175224	0.110993
N312	N	1.151886	0.508557	0.444326
H313	H	0.461501	-0.137351	-0.193366
H314	H	0.794835	0.195983	0.139968
H315	H	1.128168	0.529316	0.473301
H316	H	0.836732	-0.164023	-0.944656
H317	H	1.170066	0.169310	-0.611322
H318	H	1.503399	0.502644	-0.277989
H319	H	0.982693	-0.268242	-1.063984
H320	H	1.316026	0.065091	-0.730651
H321	H	1.649360	0.398425	-0.397318
N322	N	0.828347	-0.954848	-0.384923
N323	N	1.161680	-0.621515	-0.051590
N324	N	1.495013	-0.288181	0.281744
N325	N	0.792398	-0.975823	-0.420816
N326	N	1.125731	-0.642490	-0.087483
N327	N	1.459064	-0.309157	0.245851
H328	H	0.763328	-0.958925	-0.449829
H329	H	1.096661	-0.625592	-0.116495
H330	H	1.429994	-0.292258	0.216838
H331	H	0.982648	-0.472336	-0.230620
H332	H	1.315981	-0.139003	0.102713
H333	H	1.649315	0.194331	0.436046
H334	H	1.023020	-0.688135	-0.190445
H335	H	1.356353	-0.354802	0.142888
H336	H	1.689687	-0.021468	0.476221
H337	H	0.982687	-0.268263	-0.944717
H338	H	1.316021	0.065071	-0.611383
H339	H	1.649354	0.398404	-0.278050
N340	N	0.991025	-0.274245	-0.669959
N341	N	1.324358	0.059088	-0.336626
N342	N	1.657692	0.392421	-0.003292
N343	N	1.049113	-0.271254	-0.662657
N344	N	1.382447	0.062079	-0.329324
N345	N	1.715780	0.395413	0.004010
H346	H	1.078145	-0.291965	-0.686385
H347	H	1.411478	0.041369	-0.353052
H348	H	1.744812	0.374702	-0.019719
H349	H	0.149884	-0.268408	-0.376588
H350	H	0.483217	0.064926	-0.043255
H351	H	0.816550	0.398259	0.290078
N352	N	0.787926	-0.598275	-0.425079
N353	N	1.121260	-0.264942	-0.091746
N354	N	1.454593	0.068392	0.241588
N355	N	0.747808	-0.572144	-0.402879
N356	N	1.081142	-0.238811	-0.069545
N357	N	1.414475	0.094522	0.263788
H358	H	0.718735	-0.555238	-0.431878
H359	H	1.052068	-0.221905	-0.098545
H360	H	1.385401	0.111429	0.234788
N361	N	0.676809	-0.158123	-0.222264
N362	N	1.010142	0.175210	0.111070
N363	N	1.343476	0.508544	0.444403
N364	N	0.647458	-0.132433	-0.186401
N365	N	0.980791	0.200901	0.146932
N366	N	1.314124	0.534234	0.480266
H367	H	0.671167	-0.111676	-0.157403
H368	H	1.004500	0.221657	0.175930
H369	H	1.337833	0.554990	0.509263
H370	H	1.023078	-0.828895	-0.190472
H371	H	1.356412	-0.495561	0.142862
H372	H	1.689745	-0.162228	0.476195
H373	H	0.836728	-0.164013	-1.063920
H374	H	1.170061	0.169320	-0.730587
H375	H	1.503394	0.502654	-0.397253
H376	H	1.023044	-0.743776	-0.190453
H377	H	1.356378	-0.410442	0.142880
H378	H	1.689711	-0.077109	0.476213
H379	H	0.269148	-0.268430	-0.376540
H380	H	0.602481	0.064903	-0.043206
H381	H	0.935815	0.398236	0.290127
N382	N	0.991195	-0.954762	-0.222341
N383	N	1.324529	-0.621428	0.110992
N384	N	1.657862	-0.288095	0.444325
N385	N	1.027158	-0.975699	-0.186448
N386	N	1.360491	-0.642366	0.146885
N387	N	1.693825	-0.309033	0.480219
H388	H	1.056212	-0.958771	-0.157431
H389	H	1.389545	-0.625438	0.175903
H390	H	1.722879	-0.292104	0.509236
N391	N	0.676797	-0.274456	-0.384709
N392	N	1.010130	0.058877	-0.051376
N393	N	1.343463	0.392211	0.281958
N394	N	0.669378	-0.315905	-0.380425
N395	N	1.002711	0.017428	-0.047092
N396	N	1.336044	0.350762	0.286242
H397	H	0.693083	-0.336670	-0.409401
H398	H	1.026416	-0.003337	-0.076068
H399	H	1.359750	0.329996	0.257266
N400	N	0.275978	-0.158085	-0.222392
N401	N	0.609312	0.175248	0.110941
N402	N	0.942645	0.508582	0.444274
N403	N	0.312590	-0.173861	-0.182226
N404	N	0.645923	0.159472	0.151108
N405	N	0.979257	0.492805	0.484441
H406	H	0.336307	-0.153116	-0.153219
H407	H	0.669640	0.180218	0.180114
H408	H	1.002973	0.513551	0.513447
N409	N	0.143079	-0.158054	-0.222459
N410	N	0.476412	0.175280	0.110874
N411	N	0.809745	0.508613	0.444207
N412	N	0.084382	-0.158046	-0.222488
N413	N	0.417715	0.175287	0.110845
N414	N	0.751048	0.508620	0.444179
H415	H	0.060664	-0.137286	-0.193516
H416	H	0.393998	0.196048	0.139818
H417	H	0.727331	0.529381	0.473151
H418	H	0.796310	-0.688242	-0.416767
H419	H	1.129644	-0.354909	-0.083434
H420	H	1.462977	-0.021576	0.249899
H421	H	0.982596	-0.387227	-0.230603
H422	H	1.315929	-0.053893	0.102730
H423	H	1.649262	0.279440	0.436064
H424	H	1.022979	-0.603029	-0.190431
H425	H	1.356312	-0.269695	0.142902
H426	H	1.689646	0.063638	0.476236
N427	N	0.991229	-1.049606	-0.222367
N428	N	1.324562	-0.716272	0.110967
N429	N	1.657895	-0.382939	0.444300
N430	N	0.991234	-1.091496	-0.222383
N431	N	1.324567	-0.758163	0.110951
N432	N	1.657900	-0.424829	0.444284
H433	H	1.020294	-1.108415	-0.193384
H434	H	1.353627	-0.775082	0.139949
H435	H	1.686960	-0.441749	0.473283
H436	H	0.836485	-0.472419	-0.376522
H437	H	1.169818	-0.139086	-0.043189
H438	H	1.503152	0.194247	0.290145
H439	H	0.836726	-1.044807	-0.376588
H440	H	1.170059	-0.711474	-0.043255
H441	H	1.503393	-0.378140	0.290079
N442	N	0.788024	-0.833858	-0.425110
N443	N	1.121358	-0.500525	-0.091776
N444	N	1.454691	-0.167191	0.241557
N445	N	0.752059	-0.812920	-0.461001
N446	N	1.085392	-0.479587	-0.127667
N447	N	1.418726	-0.146254	0.205666
H448	H	0.723003	-0.829849	-0.490016
H449	H	1.056337	-0.496515	-0.156683
H450	H	1.389670	-0.163182	0.176650
H451	H	0.836444	-0.387297	-0.376501
H452	H	1.169777	-0.053964	-0.043167
H453	H	1.503111	0.279370	0.290166
N454	N	0.787997	-0.739035	-0.425103
N455	N	1.121330	-0.405702	-0.091769
N456	N	1.454663	-0.072369	0.241564
N457	N	0.792145	-0.744251	-0.483194
N458	N	1.125478	-0.410917	-0.149860
N459	N	1.458812	-0.077584	0.183473
H460	H	0.763080	-0.727348	-0.512207
H461	H	1.096414	-0.394015	-0.178874
H462	H	1.429747	-0.060682	0.154459
N463	N	0.828379	-0.158133	-0.537009
N464	N	1.161712	0.175200	-0.203676
N465	N	1.495046	0.508534	0.129657
N466	N	0.792469	-0.132484	-0.566353
N467	N	1.125802	0.200850	-0.233020
N468	N	1.459135	0.534183	0.100314
H469	H	0.763443	-0.111762	-0.542637
H470	H	1.096776	0.221572	-0.209304
H471	H	1.430110	0.554905	0.124029
H472	H	0.982671	-0.268328	-0.543876
H473	H	1.316004	0.065005	-0.210542
H474	H	1.649337	0.398339	0.122791
H475	H	0.836722	-0.164068	-0.663082
H476	H	1.170055	0.169265	-0.329749
H477	H	1.503388	0.502598	0.003585
