data_functionalizedCrystal
_audit_creation_method	'MofGen! by Chris Wilmer'
_symmetry_space_group_name_H-M	'P1'
_symmetry_Int_Tables_number	1
_symmetry_cell_setting	triclinic
loop_
_symmetry_equiv_pos_as_xyz
  x,y,z
_cell_length_a	11.804365
_cell_length_b	17.699083
_cell_length_c	17.699083
_cell_angle_alpha	83.283015
_cell_angle_beta	101.805355
_cell_angle_gamma	78.182163
loop_
_atom_site_label
_atom_site_type_symbol
_atom_site_fract_x
_atom_site_fract_y
_atom_site_fract_z
O1	O	0.098859	-1.019369	-0.080427
O2	O	0.098899	-0.798996	-0.092873
O3	O	0.098867	-0.915407	0.023537
O4	O	0.098890	-0.902958	-0.196838
O5	O	-0.099180	-0.884760	-0.007078
O6	O	-0.099149	-0.768350	-0.123489
O7	O	-0.099189	-0.988722	-0.111043
Cu8	Cu	-0.117252	-0.875738	-0.120061
Cu9	Cu	0.116962	-0.911981	-0.083855
O10	O	-0.099157	-0.872312	-0.227453
C11	C	-0.000120	-0.755477	-0.107734
C12	C	-0.000106	-0.671461	-0.106393
C13	C	-0.000157	-0.899637	0.036426
C14	C	-0.000157	-0.898299	0.120444
N15	N	-0.281986	-0.850252	-0.145527
C16	C	-0.655974	-0.998673	0.002782
C17	C	-0.531318	-1.017952	0.022050
C18	C	-0.468979	-0.976029	-0.019842
C19	C	-0.531308	-0.914823	-0.081006
C20	C	-0.655977	-0.895546	-0.100279
C21	C	-0.468982	-0.872901	-0.122904
C22	C	-0.531311	-0.811696	-0.184068
C23	C	-0.655968	-0.792422	-0.203338
C24	C	-0.718307	-0.834345	-0.161445
C25	C	-0.344313	-0.892178	-0.103631
C26	C	-0.344315	-0.789051	-0.206693
C27	C	-0.468972	-0.769772	-0.225960
N28	N	0.281696	-0.937472	-0.058384
C29	C	-0.000167	-1.032242	-0.096181
C30	C	-0.000174	-1.116259	-0.097521
C31	C	-0.000099	-0.622841	-0.174726
C32	C	-0.000114	-0.543895	-0.173466
C33	C	-0.000128	-0.513572	-0.103872
C34	C	-0.000139	-0.562198	-0.035535
C35	C	-0.000132	-0.641141	-0.036797
C36	C	-0.000169	-0.243830	-0.030444
C37	C	-0.000172	-0.164882	-0.029187
C38	C	-0.000151	-0.146585	-0.167113
C39	C	-0.000144	-0.225528	-0.168375
C40	C	-0.000161	-0.274145	-0.100040
C41	C	-0.000146	-0.359747	-0.101407
C42	C	-0.000134	-0.427974	-0.102502
C43	C	-0.000131	-0.888081	-0.240342
C44	C	-0.000123	-0.889421	-0.324359
C45	C	-0.000171	-0.966630	0.169063
C46	C	-0.000160	-0.965369	0.248008
C47	C	-0.000144	-0.895775	0.278331
C48	C	-0.000126	-0.827439	0.229707
C49	C	-0.000129	-0.828702	0.150765
C50	C	-0.000116	-0.822346	0.548072
C51	C	-0.000117	-0.821088	0.627019
C52	C	-0.000147	-0.959013	0.645315
C53	C	-0.000149	-0.960276	0.566373
C54	C	-0.000126	-0.891941	0.517756
C55	C	-0.000135	-0.893309	0.432156
C56	C	-0.000143	-0.894405	0.363929
H57	H	-0.293575	-0.942012	-0.053831
C58	C	-0.000110	-1.039487	0.300930
C59	C	-0.000062	-1.023497	0.376562
C60	C	0.000007	-1.091761	0.425338
H61	H	-0.069161	-1.057403	0.281185
H62	H	0.068976	-1.078726	0.302469
H63	H	-0.069140	-0.984272	0.375021
H64	H	0.068984	-1.005592	0.396330
H65	H	0.069093	-1.131000	0.426876
H66	H	-0.069045	-1.109671	0.405586
H67	H	0.000051	-1.080923	0.476660
C68	C	-0.333637	-0.997047	0.001224
C69	C	-0.292393	-1.059606	0.063768
C70	C	-0.167718	-1.078983	0.083207
H71	H	-0.305273	-1.011724	-0.042707
H72	H	-0.305404	-0.953077	0.015931
H73	H	-0.320613	-1.103568	0.049058
H74	H	-0.320724	-1.044948	0.107712
H75	H	-0.139485	-1.035012	0.097914
H76	H	-0.139366	-1.093656	0.039272
H77	H	-0.139718	-1.121426	0.125649
C78	C	-0.463865	-1.084397	0.088506
C79	C	-0.545135	-1.116972	0.121084
C80	C	-0.483040	-1.178178	0.182315
H81	H	-0.415223	-1.123443	0.068926
H82	H	-0.415267	-1.064766	0.127534
H83	H	-0.593713	-1.136604	0.082063
H84	H	-0.593780	-1.077947	0.140680
H85	H	-0.434442	-1.158548	0.221344
H86	H	-0.434400	-1.217219	0.162728
H87	H	-0.538172	-1.200284	0.204431
H88	H	-0.000191	-1.023300	0.144380
C89	C	-0.000170	-0.751946	0.262764
C90	C	-0.000206	-0.765458	0.342299
C91	C	-0.000267	-0.695928	0.372772
H92	H	0.068880	-0.734443	0.256822
H93	H	-0.069256	-0.713119	0.235430
H94	H	0.068873	-0.804272	0.369625
H95	H	-0.069251	-0.782951	0.348263
H96	H	-0.069353	-0.657100	0.345438
H97	H	0.068784	-0.678429	0.366825
H98	H	-0.000303	-0.705084	0.426737
H99	H	-0.000168	-1.016945	0.541688
H100	H	-0.000160	-1.014655	0.684909
C101	C	0.000034	-0.529411	0.040110
C102	C	0.101906	-0.569907	0.097166
C103	C	0.102103	-0.539734	0.166864
H104	H	0.000097	-0.475444	0.031193
H105	H	-0.068996	-0.535453	0.057611
H106	H	0.170919	-0.563857	0.079669
H107	H	0.101866	-0.623872	0.106107
H108	H	0.033073	-0.545777	0.184365
H109	H	0.102163	-0.485768	0.157940
H110	H	0.171216	-0.567210	0.205588
H111	H	-0.706717	-0.742590	-0.253146
C112	C	-0.536867	-0.703377	-0.292368
C113	C	-0.659380	-0.695485	-0.300288
C114	C	-0.721961	-0.634338	-0.361461
H115	H	-0.516591	-0.655983	-0.281127
H116	H	-0.516502	-0.714654	-0.339741
H117	H	-0.679736	-0.684203	-0.252926
H118	H	-0.679691	-0.742863	-0.311541
H119	H	-0.701596	-0.645615	-0.408834
H120	H	-0.701675	-0.586949	-0.350214
H121	H	-0.805092	-0.628980	-0.366847
H122	H	-0.000128	-0.250213	-0.225045
H123	H	-0.706739	-1.032806	0.036882
H124	H	-0.000117	-0.773060	0.111180
C125	C	-0.000028	-0.745458	0.659808
C126	C	0.000028	-0.685888	0.600341
C127	C	0.000126	-0.616214	0.630520
H128	H	-0.069072	-0.731302	0.679540
H129	H	0.069065	-0.752757	0.700880
H130	H	-0.069057	-0.678588	0.559282
H131	H	0.069067	-0.700017	0.580603
H132	H	0.069218	-0.623514	0.671592
H133	H	-0.068919	-0.602067	0.650251
H134	H	0.000175	-0.575790	0.590179
H135	H	-0.000097	-0.766703	0.508497
C136	C	-0.276862	-0.743460	-0.252298
C137	C	-0.358127	-0.685752	-0.310005
C138	C	-0.296025	-0.643751	-0.352036
H139	H	-0.228235	-0.719455	-0.217681
H140	H	-0.228248	-0.778123	-0.276297
H141	H	-0.406720	-0.651094	-0.286007
H142	H	-0.406756	-0.709736	-0.344640
H143	H	-0.247412	-0.678415	-0.376035
H144	H	-0.247401	-0.619751	-0.317412
H145	H	-0.351154	-0.604597	-0.391199
H146	H	-0.000087	-0.647523	-0.231397
H147	H	-0.819812	-0.818646	-0.177131
H148	H	-0.000107	-0.504312	-0.229109
C149	C	-0.000085	-0.093931	-0.241384
C150	C	-0.000034	-0.137391	-0.302594
C151	C	0.000048	-0.088919	-0.371017
H152	H	-0.069133	-0.052061	-0.254545
H153	H	0.069003	-0.073449	-0.233118
H154	H	-0.069115	-0.157861	-0.310860
H155	H	0.069009	-0.179258	-0.289458
H156	H	0.069137	-0.068437	-0.362751
H157	H	-0.069001	-0.047051	-0.384171
H158	H	0.000094	-0.118401	-0.412554
C159	C	-0.000011	-0.132090	0.046460
C160	C	0.101853	-0.172583	0.103524
C161	C	0.102037	-0.142404	0.173218
H162	H	0.000053	-0.078124	0.037540
H163	H	-0.069047	-0.138130	0.063955
H164	H	0.170872	-0.166536	0.086033
H165	H	0.101811	-0.226548	0.112468
H166	H	0.033001	-0.148444	0.190713
H167	H	0.102097	-0.088439	0.164290
H168	H	0.171144	-0.169878	0.211947
C169	C	0.000016	-0.296726	0.043723
C170	C	0.101895	-0.358349	0.062770
C171	C	0.102101	-0.407100	0.131086
H172	H	0.000074	-0.267460	0.085420
H173	H	-0.069010	-0.317272	0.035440
H174	H	0.170903	-0.337803	0.071058
H175	H	0.101858	-0.387633	0.021093
H176	H	0.033075	-0.427646	0.122803
H177	H	0.102156	-0.377828	0.172777
H178	H	0.171218	-0.448920	0.144015
H179	H	-0.000137	-0.680727	0.018847
