data_functionalizedCrystal
_audit_creation_method	'MofGen! by Chris Wilmer'
_symmetry_space_group_name_H-M	'P1'
_symmetry_Int_Tables_number	1
_symmetry_cell_setting	triclinic
loop_
_symmetry_equiv_pos_as_xyz
  x,y,z
_cell_length_a	19.805407
_cell_length_b	14.909383
_cell_length_c	19.805399
_cell_angle_alpha	93.275179
_cell_angle_beta	89.979591
_cell_angle_gamma	86.728142
loop_
_atom_site_label
_atom_site_type_symbol
_atom_site_fract_x
_atom_site_fract_y
_atom_site_fract_z
Zn1	Zn	1.050303	-0.359098	-0.398314
Zn2	Zn	1.550303	0.140902	0.101686
Zn3	Zn	1.056758	-0.509949	-0.291671
Zn4	Zn	1.556758	-0.009949	0.208329
Zn5	Zn	0.937119	-0.359128	-0.285138
Zn6	Zn	1.437119	0.140872	0.214862
Zn7	Zn	0.943619	-0.509906	-0.404814
Zn8	Zn	1.443619	-0.009906	0.095186
O9	O	0.996950	-0.434520	-0.344984
O10	O	1.496950	0.065480	0.155016
O11	O	1.145876	-0.379114	-0.384181
O12	O	1.645876	0.120886	0.115819
O13	O	1.040868	-0.489973	-0.196089
O14	O	1.540868	0.010027	0.303911
O15	O	0.946712	-0.232892	-0.294698
O16	O	1.446712	0.267108	0.205302
O17	O	1.150618	-0.489944	-0.305831
O18	O	1.650618	0.010056	0.194169
O19	O	1.029868	-0.232870	-0.377847
O20	O	1.529868	0.267130	0.122153
O21	O	0.952970	-0.379165	-0.191290
O22	O	1.452970	0.120835	0.308710
O23	O	0.843264	-0.379124	-0.301000
O24	O	1.343264	0.120876	0.199000
O25	O	0.957790	-0.489871	-0.498667
O26	O	1.457790	0.010129	0.001333
O27	O	0.848040	-0.489900	-0.388925
O28	O	1.348040	0.010100	0.111075
O29	O	1.036170	-0.379073	-0.493892
O30	O	1.536170	0.120927	0.006108
O31	O	1.047171	-0.636176	-0.312133
O32	O	1.547171	-0.136176	0.187867
O33	O	0.964049	-0.636144	-0.395259
O34	O	1.464049	-0.136144	0.104741
C35	C	0.821093	-0.434511	-0.344959
C36	C	1.321093	0.065489	0.155041
C37	C	0.745862	-0.434529	-0.344966
C38	C	1.245862	0.065471	0.155034
C39	C	0.281610	-0.376920	-0.385879
C40	C	0.781610	0.123080	0.114121
C41	C	0.352298	-0.376921	-0.385874
C42	C	0.852298	0.123079	0.114126
C43	C	0.390101	-0.434534	-0.345007
C44	C	0.890101	0.065466	0.154993
C45	C	0.357211	-0.492156	-0.304147
C46	C	0.857211	0.007844	0.195853
C47	C	0.286524	-0.492158	-0.304156
C48	C	0.786524	0.007842	0.195844
C49	C	0.642284	-0.492149	-0.304111
C50	C	1.142284	0.007851	0.195889
C51	C	0.712976	-0.492140	-0.304104
C52	C	1.212976	0.007860	0.195896
C53	C	0.708058	-0.376912	-0.385829
C54	C	1.208058	0.123088	0.114171
C55	C	0.637371	-0.376914	-0.385838
C56	C	1.137371	0.123086	0.114162
C57	C	0.604488	-0.434539	-0.344981
C58	C	1.104488	0.065461	0.155019
C59	C	0.527840	-0.434537	-0.344988
C60	C	1.027840	0.065463	0.155012
C61	C	0.466748	-0.434532	-0.344996
C62	C	0.966748	0.065468	0.155004
C63	C	1.007034	-0.668891	-0.355125
C64	C	1.507034	-0.168891	0.144875
C65	C	1.011410	-0.769155	-0.359486
C66	C	1.511410	-0.269155	0.140514
C67	C	0.933122	-0.957739	-0.281017
C68	C	1.433122	-0.457739	0.218983
C69	C	0.937231	-1.051947	-0.285112
C70	C	1.437231	-0.551947	0.214888
C71	C	1.023741	-1.051780	-0.371768
C72	C	1.523741	-0.551780	0.128232
C73	C	1.019632	-0.957572	-0.367673
C74	C	1.519632	-0.457572	0.132327
C75	C	0.974320	-0.910555	-0.322296
C76	C	1.474320	-0.410555	0.177704
C77	C	0.970207	-0.816346	-0.318205
C78	C	1.470207	-0.316346	0.181795
C79	C	1.056720	-0.816180	-0.404856
C80	C	1.556720	-0.316180	0.095144
C81	C	1.060830	-0.910388	-0.408952
C82	C	1.560830	-0.410388	0.091048
C83	C	1.173493	-0.434530	-0.345010
C84	C	1.673493	0.065470	0.154990
C85	C	1.248725	-0.434535	-0.345020
C86	C	1.748725	0.065465	0.154980
C87	C	0.996985	-0.434464	-0.521525
C88	C	1.496985	0.065536	-0.021525
C89	C	0.997000	-0.434439	-0.596756
C90	C	1.497000	0.065561	-0.096756
C91	C	0.986845	-0.199235	-0.334819
C92	C	1.486845	0.300765	0.165181
C93	C	0.982538	-0.098970	-0.330487
C94	C	1.482538	0.401030	0.169513
C95	C	1.037814	-0.376744	-0.629614
C96	C	1.537814	0.123256	-0.129614
C97	C	1.037820	-0.376718	-0.700302
C98	C	1.537820	0.123282	-0.200302
C99	C	0.997015	-0.434392	-0.738129
C100	C	1.497015	0.065608	-0.238129
C101	C	0.956197	-0.492090	-0.705266
C102	C	1.456197	0.007910	-0.205266
C103	C	0.956188	-0.492111	-0.634579
C104	C	1.456188	0.007889	-0.134579
C105	C	0.956231	-0.492006	-0.990336
C106	C	1.456231	0.007994	-0.490336
C107	C	0.956245	-0.491983	-1.061027
C108	C	1.456245	0.008017	-0.561027
C109	C	1.037863	-0.376613	-1.056058
C110	C	1.537863	0.123387	-0.556058
C111	C	1.037854	-0.376634	-0.985371
C112	C	1.537854	0.123366	-0.485371
C113	C	0.997034	-0.434328	-0.952514
C114	C	1.497034	0.065672	-0.452514
C115	C	0.997027	-0.434354	-0.875867
C116	C	1.497027	0.065646	-0.375867
C117	C	0.997025	-0.434371	-0.814775
C118	C	1.497025	0.065629	-0.314775
C119	C	0.996950	-0.434512	-0.169128
C120	C	1.496950	0.065488	0.330872
C121	C	0.997055	-0.434282	-0.093886
C122	C	1.497055	0.065718	0.406114
H123	H	0.387996	-0.539069	-0.270875
H124	H	0.887996	-0.039069	0.229125
H125	H	1.097723	-0.948682	-0.445894
H126	H	1.597723	-0.448682	0.054106
N127	N	0.912200	-0.554242	-0.954921
N128	N	1.412200	-0.054242	-0.454921
H129	H	0.941486	-0.596066	-0.927402
H130	H	1.441486	-0.096066	-0.427402
H131	H	0.879253	-0.517531	-0.924045
H132	H	1.379253	-0.017531	-0.424045
N133	N	0.912169	-0.554277	-0.746061
N134	N	1.412169	-0.054277	-0.246061
H135	H	0.918364	-0.545507	-0.795827
H136	H	1.418364	-0.045507	-0.295827
H137	H	0.925456	-0.618712	-0.736495
H138	H	1.425456	-0.118712	-0.236495
N139	N	0.606825	-0.554289	-0.260037
N140	N	1.106825	-0.054289	0.239963
H141	H	0.556308	-0.545555	-0.266242
H142	H	1.056308	-0.045555	0.233758
H143	H	0.621960	-0.618730	-0.273279
H144	H	1.121960	-0.118730	0.226721
H145	H	1.071099	-0.329632	-1.082818
H146	H	1.571099	0.170368	-0.582818
N147	N	1.101154	-0.765285	-0.449385
N148	N	1.601154	-0.265285	0.050615
H149	H	1.130834	-0.726181	-0.420214
H150	H	1.630834	-0.226181	0.079786
H151	H	1.130437	-0.809424	-0.478744
H152	H	1.630437	-0.309424	0.021256
N153	N	0.240839	-0.314770	-0.429950
N154	N	0.740839	0.185230	0.070050
H155	H	0.272400	-0.278272	-0.455832
H156	H	0.772400	0.221728	0.044168
H157	H	0.213104	-0.351540	-0.462824
H158	H	0.713104	0.148460	0.037176
N159	N	0.387768	-0.314783	-0.429944
N160	N	0.887768	0.185217	0.070056
H161	H	0.353094	-0.278282	-0.455832
H162	H	0.853094	0.221718	0.044168
H163	H	0.415288	-0.272991	-0.400633
H164	H	0.915288	0.227009	0.099367
N165	N	1.081830	-0.314543	-0.588817
N166	N	1.581830	0.185457	-0.088817
H167	H	1.107684	-0.277989	-0.620362
H168	H	1.607684	0.222011	-0.120362
H169	H	1.052483	-0.272805	-0.557679
H170	H	1.552483	0.227195	-0.057679
N171	N	0.753746	-0.554285	-0.260022
N172	N	1.253746	-0.054285	0.239978
H173	H	0.744227	-0.618756	-0.273250
H174	H	1.244227	-0.118756	0.226750
H175	H	0.803500	-0.545459	-0.266232
H176	H	1.303500	-0.045459	0.233768
H177	H	0.933310	-0.778066	-0.281259
H178	H	1.433310	-0.278066	0.218741
H179	H	0.259751	-0.539076	-0.270886
H180	H	0.759751	-0.039076	0.229114
N181	N	1.081826	-0.314472	-0.735742
N182	N	1.581826	0.185528	-0.235742
H183	H	1.107672	-0.277938	-0.701052
H184	H	1.607672	0.222062	-0.201052
H185	H	1.114731	-0.351168	-0.766671
H186	H	1.614731	0.148832	-0.266671
N187	N	0.912161	-0.554331	-0.599135
N188	N	1.412161	-0.054331	-0.099135
H189	H	0.886312	-0.590864	-0.633823
H190	H	1.386312	-0.090864	-0.133823
H191	H	0.941496	-0.596089	-0.571612
H192	H	1.441496	-0.096089	-0.071612
N193	N	1.081868	-0.314433	-0.944572
N194	N	1.581868	0.185567	-0.444572
H195	H	1.107724	-0.277878	-0.976114
H196	H	1.607724	0.222122	-0.476114
H197	H	1.052519	-0.272696	-0.913434
H198	H	1.552519	0.227304	-0.413434
N199	N	0.912233	-0.554191	-1.101829
N200	N	1.412233	-0.054191	-0.601829
H201	H	0.886370	-0.590742	-1.070289
H202	H	1.386370	-0.090742	-0.570289
H203	H	0.879341	-0.517457	-1.129567
H204	H	1.379341	-0.017457	-0.629567
N205	N	0.884246	-0.907021	-0.232087
N206	N	1.384246	-0.407021	0.267913
H207	H	0.858767	-0.951208	-0.206559
H208	H	1.358767	-0.451208	0.293441
H209	H	0.910110	-0.867926	-0.199090
H210	H	1.410110	-0.367926	0.300910
H211	H	0.734840	-0.329994	-0.419098
H212	H	1.234840	0.170006	0.080902
N213	N	0.596606	-0.314762	-0.429912
N214	N	1.096606	0.185238	0.070088
H215	H	0.609536	-0.328853	-0.478864
H216	H	1.109536	0.171147	0.021136
H217	H	0.546848	-0.323527	-0.423662
H218	H	1.046848	0.176473	0.076338
N219	N	0.892799	-1.102841	-0.240588
N220	N	1.392799	-0.602841	0.259412
H221	H	0.863473	-1.058757	-0.211222
H222	H	1.363473	-0.558757	0.288778
H223	H	0.863163	-1.141942	-0.269805
H224	H	1.363163	-0.641942	0.230195
N225	N	1.072616	-1.102498	-0.420699
N226	N	1.572616	-0.602498	0.079301
H227	H	1.068968	-1.169337	-0.417024
H228	H	1.568968	-0.669337	0.082976
H229	H	1.061333	-1.086013	-0.468313
H230	H	1.561333	-0.586013	0.031687
