data_functionalizedCrystal
_audit_creation_method	'MofGen! by Chris Wilmer'
_symmetry_space_group_name_H-M	'P1'
_symmetry_Int_Tables_number	1
_symmetry_cell_setting	triclinic
loop_
_symmetry_equiv_pos_as_xyz
  x,y,z
_cell_length_a	9.065218
_cell_length_b	10.489741
_cell_length_c	8.140239
_cell_angle_alpha	89.996756
_cell_angle_beta	89.997198
_cell_angle_gamma	84.777530
loop_
_atom_site_label
_atom_site_type_symbol
_atom_site_fract_x
_atom_site_fract_y
_atom_site_fract_z
O1	O	1.959494	0.187043	-0.136617
O2	O	1.530135	0.202385	-0.136619
O3	O	1.754585	0.009151	-0.136608
O4	O	1.735045	0.380276	-0.136628
O5	O	1.754572	0.009149	0.136619
O6	O	1.530123	0.202383	0.136608
O7	O	1.959482	0.187040	0.136610
Zn8	Zn	1.744800	0.194711	0.179990
Zn9	Zn	1.744817	0.194714	-0.179999
O10	O	1.735032	0.380274	0.136599
C11	C	1.475149	0.200909	-0.000006
C12	C	1.311328	0.196501	-0.000006
C13	C	1.753102	-0.038387	0.000004
C14	C	1.748687	-0.180032	0.000001
C15	C	1.605877	-0.248688	-0.000011
C16	C	1.673333	-0.340568	0.134704
C17	C	1.673379	-0.340540	-0.134676
C18	C	1.816202	-0.270047	0.134828
C19	C	1.816228	-0.270009	-0.134673
C20	C	1.883788	-0.361862	0.000075
C21	C	2.014467	0.188516	-0.000007
C22	C	2.178289	0.192925	-0.000017
C23	C	1.736514	0.427812	-0.000017
C24	C	1.740930	0.569458	-0.000025
N25	N	1.744800	0.194708	0.425672
N26	N	1.744829	0.194707	-0.425681
H27	H	1.488459	-0.199461	0.000124
C28	C	1.593038	-0.382326	0.286702
C29	C	1.689372	-0.465488	0.379887
C30	C	1.615454	-0.503963	0.519920
H31	H	1.509678	-0.425059	0.254527
H32	H	1.560929	-0.309270	0.350676
H33	H	1.721459	-0.538531	0.315925
H34	H	1.772734	-0.422782	0.412104
H35	H	1.583345	-0.430907	0.583895
H36	H	1.532095	-0.546691	0.487730
H37	H	1.680809	-0.560383	0.583171
C38	C	2.040517	-0.427144	0.000507
C39	C	2.114573	-0.391389	0.141809
C40	C	2.258943	-0.451518	0.142282
H41	H	2.091814	-0.401965	-0.094172
H42	H	2.036914	-0.517375	-0.000314
H43	H	2.118184	-0.301177	0.142614
H44	H	2.063321	-0.416569	0.236510
H45	H	2.255341	-0.541749	0.141461
H46	H	2.310226	-0.426334	0.047597
H47	H	2.309204	-0.427276	0.238160
C48	C	1.896991	-0.228261	-0.286339
C49	C	2.021315	-0.167521	-0.238226
C50	C	2.095746	-0.129055	-0.377909
H51	H	1.832538	-0.170499	-0.348765
H52	H	1.927625	-0.301147	-0.351293
H53	H	1.990679	-0.094645	-0.173299
H54	H	2.085803	-0.225259	-0.175819
H55	H	2.126380	-0.201941	-0.442863
H56	H	2.031282	-0.071297	-0.440325
H57	H	2.180116	-0.087849	-0.345284
C58	C	1.896584	-0.228397	0.286807
C59	C	1.899699	-0.095200	0.285102
C60	C	1.973709	-0.056783	0.425088
H61	H	1.995065	-0.268029	0.287342
H62	H	1.846171	-0.253042	0.382397
H63	H	1.950114	-0.070568	0.189538
H64	H	1.801238	-0.055537	0.284592
H65	H	1.923297	-0.081428	0.520678
H66	H	2.072186	-0.096422	0.425611
H67	H	1.975821	0.033595	0.423958
H68	H	1.612940	-0.371722	-0.248579
