data_functionalizedCrystal
_audit_creation_method	'MofGen! by Chris Wilmer'
_symmetry_space_group_name_H-M	'P1'
_symmetry_Int_Tables_number	1
_symmetry_cell_setting	triclinic
loop_
_symmetry_equiv_pos_as_xyz
  x,y,z
_cell_length_a	8.597278
_cell_length_b	10.654550
_cell_length_c	9.730223
_cell_angle_alpha	90.003749
_cell_angle_beta	82.298602
_cell_angle_gamma	95.090327
loop_
_atom_site_label
_atom_site_type_symbol
_atom_site_fract_x
_atom_site_fract_y
_atom_site_fract_z
O1	O	0.220457	-1.669005	-0.140502
O2	O	0.241461	-1.303638	-0.142967
O3	O	0.002571	-1.493511	-0.114688
O4	O	0.459347	-1.479131	-0.168781
O5	O	0.002577	-1.493509	0.113891
O6	O	0.241467	-1.303636	0.085612
O7	O	0.220463	-1.669003	0.088077
Zn8	Zn	0.230966	-1.486319	0.123137
Zn9	Zn	0.230958	-1.486322	-0.178026
O10	O	0.459353	-1.479129	0.059798
C11	C	0.239922	-1.256831	-0.028492
C12	C	0.235308	-1.117363	-0.027937
C13	C	-0.055914	-1.491966	0.006525
C14	C	-0.230191	-1.487348	0.027156
C15	C	0.222002	-1.715810	-0.026401
C16	C	0.226616	-1.855278	-0.026965
C17	C	0.517838	-1.480675	-0.061418
C18	C	0.692115	-1.485293	-0.082058
N19	N	0.230970	-1.486326	0.328672
C20	C	0.375962	-1.038624	-0.044614
C21	C	0.371617	-0.907580	-0.044123
C22	C	0.085951	-0.934027	-0.010283
C23	C	0.090297	-1.065068	-0.010764
C24	C	0.540890	-1.023355	-0.064157
C25	C	0.536545	-0.892311	-0.063667
N26	N	0.230941	-1.486324	-0.383561
C27	C	0.125226	-1.570424	0.413116
C28	C	0.125207	-1.570421	0.557001
C29	C	0.336691	-1.402217	0.531985
C30	C	0.336701	-1.402216	0.388103
C31	C	0.003132	-1.667539	0.427560
C32	C	0.003113	-1.667536	0.571445
H33	H	-0.297000	-1.485571	0.136447
Cl34	Cl	-0.204733	-1.488015	-0.250809
H35	H	-0.024238	-1.129173	0.002836
Cl36	Cl	-0.096338	-0.868274	0.011305
Cl37	Cl	-0.183130	-1.633443	0.389313
H38	H	0.605396	-1.053028	0.023869
H39	H	0.593403	-1.059290	-0.169064
H40	H	0.422772	-1.333736	0.580389
Cl41	Cl	0.469618	-1.296473	0.281946
Cl42	Cl	0.613505	-0.822194	0.079572
H43	H	0.598685	-0.850909	-0.166693
Cl44	Cl	0.062175	-1.808623	0.351648
H45	H	-0.110897	-1.636417	0.629564
Cl46	Cl	0.044620	-1.816759	0.626822
