data_functionalizedCrystal
_audit_creation_method	'MofGen! by Chris Wilmer'
_symmetry_space_group_name_H-M	'P1'
_symmetry_Int_Tables_number	1
_symmetry_cell_setting	triclinic
loop_
_symmetry_equiv_pos_as_xyz
  x,y,z
_cell_length_a	13.033286
_cell_length_b	13.031981
_cell_length_c	19.805399
_cell_angle_alpha	97.209878
_cell_angle_beta	82.824601
_cell_angle_gamma	90.919693
loop_
_atom_site_label
_atom_site_type_symbol
_atom_site_fract_x
_atom_site_fract_y
_atom_site_fract_z
Zn1	Zn	1.520213	-0.609027	0.207244
Zn2	Zn	2.020213	-0.109027	0.707244
Zn3	Zn	1.498280	-0.781032	0.081708
Zn4	Zn	1.998280	-0.281032	0.581708
Zn5	Zn	1.348241	-0.587236	0.110042
Zn6	Zn	1.848241	-0.087236	0.610042
Zn7	Zn	1.326393	-0.759166	0.210828
Zn8	Zn	1.826393	-0.259166	0.710828
O9	O	1.423282	-0.684115	0.152456
O10	O	1.923282	-0.184115	0.652456
O11	O	1.661209	-0.650115	0.177233
O12	O	2.161209	-0.150115	0.677233
O13	O	1.478342	-0.755355	-0.009249
O14	O	1.978342	-0.255355	0.490751
O15	O	1.389376	-0.446188	0.133294
O16	O	1.889376	0.053812	0.633294
O17	O	1.645096	-0.776486	0.085003
O18	O	2.145096	-0.276486	0.585003
O19	O	1.515723	-0.462198	0.204707
O20	O	2.015723	0.037802	0.704707
O21	O	1.368109	-0.612974	0.011567
O22	O	1.868109	-0.112974	0.511567
O23	O	1.201437	-0.591772	0.136769
O24	O	1.701437	-0.091772	0.636769
O25	O	1.352139	-0.739219	0.305069
O26	O	1.852139	-0.239219	0.805069
O27	O	1.185386	-0.718089	0.210816
O28	O	1.685386	-0.218089	0.710816
O29	O	1.494538	-0.628913	0.302435
O30	O	1.994538	-0.128913	0.802435
O31	O	1.457157	-0.922070	0.088478
O32	O	1.957157	-0.422070	0.588478
O33	O	1.330872	-0.906005	0.183342
O34	O	1.830872	-0.406005	0.683342
C35	C	1.156098	-0.650193	0.177257
C36	C	1.656098	-0.150193	0.677257
C37	C	1.041793	-0.635706	0.187881
C38	C	1.541793	-0.135706	0.687881
C39	C	0.982872	-0.691676	0.146927
C40	C	1.482872	-0.191676	0.646927
C41	C	0.864731	-0.676705	0.157907
C42	C	1.364731	-0.176705	0.657907
C43	C	1.389292	-0.951362	0.133237
C44	C	1.889292	-0.451362	0.633237
C45	C	1.374845	-1.065704	0.125029
C46	C	1.874845	-0.565704	0.625029
C47	C	1.430877	-1.124514	0.156748
C48	C	1.930877	-0.624514	0.656748
C49	C	1.415946	-1.242692	0.148265
C50	C	1.915946	-0.742692	0.648265
C51	C	1.691509	-0.718170	0.127558
C52	C	2.191509	-0.218170	0.627558
C53	C	1.805811	-0.732683	0.116948
C54	C	2.305811	-0.232683	0.616948
C55	C	1.423348	-0.684058	0.328998
C56	C	1.923348	-0.184058	0.828998
C57	C	1.423376	-0.684033	0.404229
C58	C	1.923376	-0.184033	0.904229
C59	C	1.457433	-0.415828	0.171761
C60	C	1.957433	0.084172	0.671761
C61	C	1.471986	-0.301500	0.179988
C62	C	1.971986	0.198500	0.679988
C63	C	1.423285	-0.684106	-0.023400
C64	C	1.923285	-0.184106	0.476600
C65	C	1.423493	-0.683866	-0.098629
C66	C	1.923493	-0.183866	0.401371
C67	C	1.497525	-0.626594	0.438203
C68	C	1.997525	-0.126594	0.938203
C69	C	1.497539	-0.626565	0.508893
C70	C	1.997539	-0.126565	1.008893
C71	C	1.423408	-0.683983	0.545606
C72	C	1.923408	-0.183983	1.045606
C73	C	1.349252	-0.741424	0.511628
C74	C	1.849252	-0.241424	1.011628
C75	C	1.349234	-0.741446	0.440940
C76	C	1.849234	-0.241446	0.940940
C77	C	1.349322	-0.741336	0.796703
C78	C	1.849322	-0.241336	1.296703
C79	C	1.349348	-0.741312	0.867395
C80	C	1.849348	-0.241312	1.367395
C81	C	1.497627	-0.626455	0.864656
C82	C	1.997627	-0.126455	1.364656
C83	C	1.497609	-0.626477	0.793968
C84	C	1.997609	-0.126477	1.293968
C85	C	1.423450	-0.683914	0.759996
C86	C	1.923450	-0.183914	1.259996
C87	C	1.423434	-0.683942	0.683347
C88	C	1.923434	-0.183942	1.183347
C89	C	1.423428	-0.683961	0.622254
C90	C	1.923428	-0.183961	1.122254
H91	H	1.004774	-0.576708	0.231074
H92	H	1.504774	-0.076708	0.731074
H93	H	1.489898	-1.087375	0.190187
H94	H	1.989898	-0.587375	0.690187
H95	H	1.019890	-0.750682	0.103739
H96	H	1.519890	-0.250682	0.603739
H97	H	0.827716	-0.617702	0.201103
H98	H	1.327716	-0.117702	0.701103
H99	H	1.356913	-1.279828	0.114831
H100	H	1.856913	-0.779828	0.614831
C101	C	0.855803	-0.812396	0.058596
C102	C	1.355803	-0.312396	0.558596
H103	H	0.928649	-0.811998	0.058867
H104	H	1.428649	-0.311998	0.558867
H105	H	0.829469	-0.879319	0.065073
H106	H	1.329469	-0.379319	0.565073
H107	H	0.840145	-0.795030	0.015845
H108	H	1.340145	-0.295030	0.515845
H109	H	1.557920	-0.579795	0.536551
H110	H	2.057920	-0.079795	1.036551
C111	C	1.295105	-1.115868	0.079860
C112	C	1.795105	-0.615868	0.579860
H113	H	1.295535	-1.188717	0.080082
H114	H	1.795535	-0.688717	0.580082
H115	H	1.228197	-1.089588	0.097389
H116	H	1.728197	-0.589588	0.597389
H117	H	1.312402	-1.100256	0.034236
H118	H	1.812402	-0.600256	0.534236
C119	C	1.551731	-1.251343	0.225160
C120	C	2.051731	-0.751343	0.725160
H121	H	1.551312	-1.178495	0.224932
H122	H	2.051312	-0.678495	0.724932
H123	H	1.534444	-1.266959	0.270780
H124	H	2.034444	-0.766959	0.770780
H125	H	1.618642	-1.277622	0.207623
H126	H	2.118642	-0.777622	0.707623
H127	H	1.288950	-0.788122	0.769049
H128	H	1.788950	-0.288122	1.269049
C129	C	1.579065	-0.563428	0.397826
C130	C	2.079065	-0.063428	0.897826
H131	H	1.623220	-0.529206	0.428188
H132	H	2.123220	-0.029206	0.928188
H133	H	1.618860	-0.608465	0.363260
H134	H	2.118860	-0.108465	0.863260
H135	H	1.545414	-0.513621	0.377130
H136	H	2.045414	-0.013621	0.877130
C137	C	1.579149	-0.563314	0.753587
C138	C	2.079149	-0.063314	1.253587
H139	H	1.623307	-0.529091	0.783947
H140	H	2.123307	-0.029091	1.283947
H141	H	1.618941	-0.608353	0.719021
H142	H	2.118941	-0.108353	1.219021
H143	H	1.545497	-0.513507	0.732891
H144	H	2.045497	-0.013507	1.232891
C145	C	1.579196	-0.563266	0.902027
C146	C	2.079196	-0.063266	1.402027
H147	H	1.568588	-0.571465	0.949386
H148	H	2.068588	-0.071465	1.449386
H149	H	1.646370	-0.587100	0.882949
H150	H	2.146370	-0.087100	1.382949
H151	H	1.572938	-0.492244	0.896811
H152	H	2.072938	0.007756	1.396811
C153	C	1.267794	-0.804466	0.907780
C154	C	1.767794	-0.304466	1.407780
H155	H	1.223618	-0.838668	0.877425
H156	H	1.723618	-0.338668	1.377425
H157	H	1.301430	-0.854271	0.928480
H158	H	1.801430	-0.354271	1.428480
H159	H	1.228009	-0.759407	0.942344
H160	H	1.728009	-0.259407	1.442344
C161	C	1.267711	-0.804584	0.552010
C162	C	1.767711	-0.304584	1.052010
H163	H	1.278347	-0.796354	0.598974
H164	H	1.778347	-0.296354	1.098974
H165	H	1.200528	-0.780764	0.547921
H166	H	1.700528	-0.280764	1.047921
H167	H	1.273968	-0.875613	0.534053
H168	H	1.773968	-0.375613	1.034053
C169	C	1.267693	-0.804659	0.403565
C170	C	1.767693	-0.304659	0.903565
H171	H	1.223557	-0.838867	0.435550
H172	H	1.723557	-0.338867	0.935550
H173	H	1.227878	-0.759652	0.382969
H174	H	1.727878	-0.259652	0.882969
H175	H	1.301346	-0.854479	0.369120
H176	H	1.801346	-0.354479	0.869120
