data_functionalizedCrystal
_audit_creation_method	'MofGen! by Chris Wilmer'
_symmetry_space_group_name_H-M	'P1'
_symmetry_Int_Tables_number	1
_symmetry_cell_setting	triclinic
loop_
_symmetry_equiv_pos_as_xyz
  x,y,z
_cell_length_a	14.908571
_cell_length_b	14.908520
_cell_length_c	12.827885
_cell_angle_alpha	86.736484
_cell_angle_beta	93.314186
_cell_angle_gamma	90.205961
loop_
_atom_site_label
_atom_site_type_symbol
_atom_site_fract_x
_atom_site_fract_y
_atom_site_fract_z
Zn1	Zn	1.353982	-0.437358	0.710436
Zn2	Zn	1.345195	-0.587734	0.545146
Zn3	Zn	1.203612	-0.428713	0.525093
Zn4	Zn	1.194910	-0.578983	0.709228
O5	O	1.274425	-0.508197	0.622475
O6	O	1.478642	-0.464587	0.697407
O7	O	1.326378	-0.566684	0.396250
O8	O	1.230879	-0.304038	0.541792
O9	O	1.472186	-0.575068	0.575969
O10	O	1.341355	-0.310390	0.677963
O11	O	1.222358	-0.449852	0.381517
O12	O	1.076633	-0.441365	0.540621
O13	O	1.216047	-0.560151	0.855624
O14	O	1.070239	-0.551768	0.675904
O15	O	1.332916	-0.456101	0.856511
O16	O	1.317940	-0.712395	0.574798
O17	O	1.207526	-0.705965	0.695349
C18	C	1.040811	-0.494680	0.605956
C19	C	0.940869	-0.488918	0.598916
C20	C	0.746447	-0.593233	0.726387
C21	C	0.652542	-0.587823	0.719776
C22	C	0.659153	-0.472683	0.579087
C23	C	0.753058	-0.478094	0.585698
C24	C	0.796701	-0.538372	0.659350
C25	C	0.890608	-0.543786	0.665956
C26	C	0.897217	-0.428643	0.525273
C27	C	0.803312	-0.423232	0.518661
C28	C	1.260859	-0.741805	0.637143
C29	C	1.255138	-0.841748	0.643458
C30	C	1.359480	-1.036194	0.529912
C31	C	1.354107	-1.130100	0.535843
C32	C	1.239026	-1.123468	0.661255
C33	C	1.244399	-1.029562	0.655325
C34	C	1.304627	-0.985928	0.589650
C35	C	1.309994	-0.892021	0.583714
C36	C	1.194918	-0.885391	0.709131
C37	C	1.189545	-0.979297	0.715062
C38	C	1.508951	-0.521768	0.639060
C39	C	1.608892	-0.527551	0.646127
C40	C	1.274491	-0.508114	0.895045
C41	C	1.274519	-0.508079	1.011197
C42	C	1.288068	-0.273678	0.607776
C43	C	1.293882	-0.173740	0.601511
C44	C	1.274414	-0.508218	0.350966
C45	C	1.274575	-0.508010	0.234810
C46	C	1.332357	-0.456581	1.063421
C47	C	1.332387	-0.456543	1.183471
H48	H	0.926141	-0.592869	0.725925
H49	H	1.381907	-0.412457	1.228381
C50	C	1.144002	-1.005607	0.890690
C51	C	1.123347	-1.027267	0.787249
H52	H	1.103135	-1.035226	0.935253
H53	H	1.139344	-0.942494	0.895699
H54	H	1.203533	-1.024427	0.911273
H55	H	1.063818	-1.008441	0.766663
H56	H	1.127997	-1.090394	0.782235
C57	C	1.154285	-0.615129	1.244637
C58	C	1.207730	-0.567544	1.174203
H59	H	1.113024	-0.651888	1.207213
H60	H	1.122140	-0.573983	1.282311
H61	H	1.191448	-0.651797	1.292143
H62	H	1.170567	-0.530870	1.126701
H63	H	1.239877	-0.608695	1.136510
C64	C	1.152051	-0.738497	0.755732
C65	C	1.134620	-0.830137	0.774804
H66	H	1.114828	-0.704388	0.796278
H67	H	1.139803	-0.722411	0.683617
H68	H	1.213342	-0.726542	0.774385
H69	H	1.073330	-0.842093	0.756144
H70	H	1.146861	-0.846228	0.846935
C71	C	1.351756	-0.336496	0.933838
C72	C	1.399178	-0.397101	1.003805
H73	H	1.393012	-0.299780	0.897031
H74	H	1.314640	-0.299790	0.971493
H75	H	1.315465	-0.368820	0.885525
H76	H	1.435464	-0.364777	1.052123
H77	H	1.436309	-0.433811	0.966148
H78	H	0.938144	-0.383972	0.470684
H79	H	0.781982	-0.642319	0.786352
H80	H	1.225020	-0.552134	1.055363
H81	H	1.189998	-1.159011	0.714732
H82	H	1.359032	-0.856495	0.530235
C83	C	0.655445	-0.702176	0.859502
C84	C	0.597302	-0.648129	0.793464
H85	H	0.621339	-0.739410	0.904992
H86	H	0.694353	-0.665150	0.899665
H87	H	0.690063	-0.738634	0.818633
H88	H	0.562688	-0.611667	0.834333
H89	H	0.558377	-0.685160	0.753297
H90	H	0.623602	-0.423603	0.519129
H91	H	0.767765	-0.374154	0.458699
H92	H	1.408514	-1.000666	0.476430
H93	H	1.398776	-1.171023	0.487201
