data_functionalizedCrystal
_audit_creation_method	'MofGen! by Chris Wilmer'
_symmetry_space_group_name_H-M	'P1'
_symmetry_Int_Tables_number	1
_symmetry_cell_setting	triclinic
loop_
_symmetry_equiv_pos_as_xyz
  x,y,z
_cell_length_a	16.959455
_cell_length_b	13.897448
_cell_length_c	16.959447
_cell_angle_alpha	90.029368
_cell_angle_beta	90.014322
_cell_angle_gamma	90.014639
loop_
_atom_site_label
_atom_site_type_symbol
_atom_site_fract_x
_atom_site_fract_y
_atom_site_fract_z
Zn1	Zn	1.208397	-0.384074	0.446914
Zn2	Zn	1.208325	-0.545393	0.314738
Zn3	Zn	1.076225	-0.384105	0.314751
Zn4	Zn	1.076195	-0.545321	0.446876
O5	O	1.142286	-0.464723	0.380820
O6	O	1.318998	-0.405491	0.429390
O7	O	1.190784	-0.524040	0.204128
O8	O	1.093801	-0.249119	0.332305
O9	O	1.318945	-0.524011	0.332281
O10	O	1.190907	-0.249097	0.429404
O11	O	1.093731	-0.405543	0.204139
O12	O	0.965610	-0.405473	0.332268
O13	O	1.093750	-0.523888	0.557492
O14	O	0.965589	-0.523917	0.429340
O15	O	1.190878	-0.405421	0.557520
O16	O	1.190755	-0.680365	0.332244
O17	O	1.093680	-0.680312	0.429326
C18	C	0.936919	-0.464691	0.380802
C19	C	0.849063	-0.464701	0.380813
C20	C	1.142228	-0.715337	0.380797
C21	C	1.142276	-0.822551	0.380814
C22	C	0.477574	-0.402998	0.330380
C23	C	0.477600	-0.526527	0.431305
C24	C	0.560146	-0.526513	0.431300
C25	C	0.601410	-0.464742	0.380834
C26	C	0.560128	-0.402985	0.330372
C27	C	0.601434	-0.588276	0.481754
C28	C	0.683985	-0.588266	0.481751
C29	C	0.725251	-0.526489	0.431288
C30	C	0.683963	-0.464728	0.380825
C31	C	0.725227	-0.402957	0.330359
C32	C	0.683941	-0.341191	0.279900
C33	C	0.601393	-0.341208	0.279909
C34	C	0.807799	-0.526472	0.431279
C35	C	0.807781	-0.402944	0.330351
C36	C	1.142359	-1.018846	0.380863
C37	C	1.142310	-0.909614	0.380838
C38	C	1.348454	-0.464756	0.380838
C39	C	1.436310	-0.464770	0.380846
C40	C	1.142319	-0.464643	0.586988
C41	C	1.142333	-0.464609	0.674845
C42	C	1.142365	-0.213130	0.380860
C43	C	1.142399	-0.105916	0.380877
C44	C	1.142298	-0.464733	0.175454
C45	C	1.142437	-0.464495	0.087597
C46	C	1.091857	-0.526188	1.046309
C47	C	1.192997	-0.402827	1.046333
C48	C	1.192976	-0.402848	0.963787
C49	C	1.142395	-0.464540	0.922498
C50	C	1.091836	-0.526212	0.963755
C51	C	1.243540	-0.341184	0.922523
C52	C	1.243522	-0.341203	0.839972
C53	C	1.192937	-0.402891	0.798682
C54	C	1.142375	-0.464564	0.839944
C55	C	1.091794	-0.526257	0.798655
C56	C	1.041227	-0.587926	0.839916
C57	C	1.041251	-0.587900	0.922465
C58	C	1.192913	-0.402917	0.716134
C59	C	1.091773	-0.526281	0.716102
H60	H	0.717549	-0.290901	0.238807
H61	H	1.284696	-0.290987	0.806385
C62	C	1.036986	-0.593320	0.671173
C63	C	1.081712	-0.655151	0.623757
C64	C	1.031270	-0.716911	0.582349
H65	H	1.006857	-0.630135	0.707477
H66	H	1.002564	-0.556452	0.638930
H67	H	1.116119	-0.692016	0.655997
H68	H	1.111839	-0.618363	0.587438
H69	H	0.996849	-0.680043	0.550105
H70	H	1.001144	-0.753720	0.618658
H71	H	1.061609	-0.758865	0.550167
H72	H	0.443956	-0.352707	0.289300
H73	H	0.567771	-0.290922	0.238827
C74	C	0.986406	-0.655012	0.967164
C75	C	1.003569	-0.750457	0.947047
C76	C	0.953059	-0.812307	0.988204
H77	H	0.993618	-0.646293	1.022251
H78	H	0.933283	-0.640951	0.953627
H79	H	1.056679	-0.764513	0.960589
H80	H	0.996352	-0.759207	0.891967
H81	H	0.899936	-0.798246	0.974668
H82	H	0.960275	-0.803579	1.043290
H83	H	0.964692	-0.877072	0.974555
H84	H	1.050685	-0.576395	1.079907
H85	H	0.841410	-0.576764	0.472360
C86	C	0.432849	-0.593746	0.486004
C87	C	0.452899	-0.689158	0.468654
C88	C	0.411682	-0.751105	0.519028
H89	H	0.446368	-0.579823	0.539157
H90	H	0.377765	-0.584978	0.478780
H91	H	0.507971	-0.697922	0.475885
H92	H	0.439379	-0.703111	0.415510
H93	H	0.356597	-0.742338	0.511803
H94	H	0.425203	-0.737174	0.572177
H95	H	0.425274	-0.815850	0.507257
C96	C	0.728948	-0.655275	0.536456
C97	C	0.810073	-0.642057	0.525641
C98	C	0.851519	-0.703774	0.576016
H99	H	0.715529	-0.641297	0.589615
H100	H	0.715460	-0.720094	0.524792
H101	H	0.823557	-0.577253	0.537310
H102	H	0.823516	-0.656042	0.472491
H103	H	0.838030	-0.768592	0.564353
H104	H	0.838093	-0.689790	0.629173
H105	H	0.906566	-0.694820	0.568680
H106	H	1.000048	-0.638161	0.806288
C107	C	1.247828	-0.335892	1.091300
C108	C	1.237015	-0.349058	1.172424
C109	C	1.287507	-0.287402	1.213875
H110	H	1.300961	-0.349960	1.077861
H111	H	1.236270	-0.271061	1.077836
H112	H	1.248579	-0.413874	1.185882
H113	H	1.183893	-0.334983	1.185887
H114	H	1.275949	-0.222572	1.200411
H115	H	1.340636	-0.301476	1.200429
H116	H	1.280172	-0.296321	1.268922
C117	C	0.556728	-0.655267	0.536678
C118	C	0.576855	-0.634383	0.614909
C119	C	0.535687	-0.696076	0.665531
H120	H	0.501642	-0.646474	0.529562
H121	H	0.570248	-0.720081	0.525073
H122	H	0.563330	-0.569585	0.626509
H123	H	0.631934	-0.643181	0.622049
H124	H	0.549208	-0.760891	0.653927
H125	H	0.480604	-0.687279	0.658409
H126	H	0.549343	-0.681922	0.718616
C127	C	1.298407	-0.274056	0.967254
C128	C	1.281241	-0.178620	0.947183
C129	C	1.331776	-0.116753	0.988371
H130	H	1.291221	-0.282745	1.022337
H131	H	1.351523	-0.288130	0.953711
H132	H	1.228139	-0.164550	0.960730
H133	H	1.288432	-0.169900	0.892107
H134	H	1.384892	-0.130828	0.974829
H135	H	1.324586	-0.125451	1.043452
H136	H	1.320141	-0.051994	0.974753
C137	C	1.247838	-0.335865	0.671479
C138	C	1.292129	-0.281821	0.725306
C139	C	1.342728	-0.220029	0.684200
H140	H	1.282325	-0.372672	0.639263
H141	H	1.217625	-0.293785	0.639305
H142	H	1.322339	-0.323895	0.757466
H143	H	1.257663	-0.244993	0.757524
H144	H	1.312515	-0.177949	0.652026
H145	H	1.377210	-0.256844	0.651985
H146	H	1.372780	-0.183346	0.720715
H147	H	0.841372	-0.352635	0.289260
