data_functionalizedCrystal
_audit_creation_method	'MofGen! by Chris Wilmer'
_symmetry_space_group_name_H-M	'P1'
_symmetry_Int_Tables_number	1
_symmetry_cell_setting	triclinic
loop_
_symmetry_equiv_pos_as_xyz
  x,y,z
_cell_length_a	23.532407
_cell_length_b	23.532407
_cell_length_c	12.996460
_cell_angle_alpha	89.985369
_cell_angle_beta	89.999749
_cell_angle_gamma	82.848713
loop_
_atom_site_label
_atom_site_type_symbol
_atom_site_fract_x
_atom_site_fract_y
_atom_site_fract_z
O1	O	0.755260	0.069136	-0.085457
O2	O	1.005260	0.319136	0.164543
O3	O	1.255260	0.569136	0.414543
O4	O	1.505260	0.819136	0.664543
O5	O	0.589397	0.079139	-0.085490
O6	O	0.839397	0.329139	0.164510
O7	O	1.089397	0.579139	0.414510
O8	O	1.339397	0.829139	0.664510
O9	O	0.677330	-0.008794	-0.085444
O10	O	0.927330	0.241206	0.164556
O11	O	1.177330	0.491206	0.414556
O12	O	1.427330	0.741206	0.664556
O13	O	0.667327	0.157069	-0.085503
O14	O	0.917327	0.407069	0.164497
O15	O	1.167327	0.657069	0.414497
O16	O	1.417327	0.907069	0.664497
O17	O	0.677321	-0.008799	0.085690
O18	O	0.927321	0.241201	0.335690
O19	O	1.177321	0.491201	0.585690
O20	O	1.427321	0.741201	0.835690
O21	O	0.589388	0.079134	0.085644
O22	O	0.839388	0.329134	0.335644
O23	O	1.089388	0.579134	0.585644
O24	O	1.339388	0.829134	0.835644
O25	O	0.755251	0.069131	0.085677
O26	O	1.005251	0.319131	0.335677
O27	O	1.255251	0.569131	0.585677
O28	O	1.505251	0.819131	0.835677
Cu29	Cu	0.672319	0.074132	0.101286
Cu30	Cu	0.922319	0.324132	0.351286
Cu31	Cu	1.172319	0.574132	0.601286
Cu32	Cu	1.422319	0.824132	0.851286
Cu33	Cu	0.672329	0.074138	-0.101099
Cu34	Cu	0.922329	0.324138	0.148901
Cu35	Cu	1.172329	0.574138	0.398901
Cu36	Cu	1.422329	0.824138	0.648901
O37	O	0.667318	0.157064	0.085630
O38	O	0.917318	0.407064	0.335630
O39	O	1.167318	0.657064	0.585630
O40	O	1.417318	0.907064	0.835630
C41	C	0.568176	0.078882	0.000073
C42	C	0.818176	0.328882	0.250073
C43	C	1.068176	0.578882	0.500073
C44	C	1.318176	0.828882	0.750073
C45	C	0.504959	0.078116	0.000062
C46	C	0.754959	0.328116	0.250062
C47	C	1.004959	0.578116	0.500062
C48	C	1.254959	0.828116	0.750062
C49	C	0.105856	0.125350	0.000092
C50	C	0.355856	0.375350	0.250092
C51	C	0.605856	0.625350	0.500092
C52	C	0.855856	0.875350	0.750092
C53	C	0.046456	0.124638	0.000098
C54	C	0.296456	0.374638	0.250098
C55	C	0.546456	0.624638	0.500098
C56	C	0.796456	0.874638	0.750098
O57	O	0.009711	0.168424	0.000120
O58	O	0.259711	0.418424	0.250120
O59	O	0.509711	0.668424	0.500120
O60	O	0.759711	0.918424	0.750120
N61	N	0.023830	0.072362	0.000115
N62	N	0.273830	0.322362	0.250115
N63	N	0.523830	0.572362	0.500115
N64	N	0.773830	0.822362	0.750115
C65	C	0.060607	0.020794	0.000136
C66	C	0.310607	0.270794	0.250136
C67	C	0.560607	0.520794	0.500136
C68	C	0.810607	0.770794	0.750136
O69	O	0.035908	-0.023737	0.000152
O70	O	0.285908	0.226263	0.250152
O71	O	0.535908	0.476263	0.500152
O72	O	0.785908	0.726263	0.750152
C73	C	0.120006	0.021506	0.000137
C74	C	0.370006	0.271506	0.250137
C75	C	0.620006	0.521506	0.500137
C76	C	0.870006	0.771506	0.750137
C77	C	0.142629	0.073785	0.000109
C78	C	0.392629	0.323785	0.250109
C79	C	0.642629	0.573785	0.500109
C80	C	0.892629	0.823785	0.750109
C81	C	0.128480	0.177625	0.000065
C82	C	0.378480	0.427625	0.250065
C83	C	0.628480	0.677625	0.500065
C84	C	0.878480	0.927625	0.750065
C85	C	0.187876	0.178336	0.000057
C86	C	0.437876	0.428336	0.250057
C87	C	0.687876	0.678336	0.500057
C88	C	0.937876	0.928336	0.750057
C89	C	0.224649	0.126772	0.000075
C90	C	0.474649	0.376772	0.250075
C91	C	0.724649	0.626772	0.500075
C92	C	0.974649	0.876772	0.750075
C93	C	0.202025	0.074496	0.000101
C94	C	0.452025	0.324496	0.250101
C95	C	0.702025	0.574496	0.500101
C96	C	0.952025	0.824496	0.750101
C97	C	0.156783	-0.030062	0.000165
C98	C	0.406783	0.219938	0.250165
C99	C	0.656783	0.469938	0.500165
C100	C	0.906783	0.719938	0.750165
C101	C	0.216185	-0.029345	0.000167
C102	C	0.466185	0.220655	0.250167
C103	C	0.716185	0.470655	0.500167
C104	C	0.966185	0.720655	0.750167
C105	C	0.238808	0.022934	0.000139
C106	C	0.488808	0.272934	0.250139
C107	C	0.738808	0.522934	0.500139
C108	C	0.988808	0.772934	0.750139
C109	C	0.298194	0.023643	0.000110
C110	C	0.548194	0.273643	0.250110
C111	C	0.798194	0.523643	0.500110
C112	C	1.048194	0.773643	0.750110
N113	N	0.320821	0.075920	0.000093
N114	N	0.570821	0.325920	0.250093
N115	N	0.820821	0.575920	0.500093
N116	N	1.070821	0.825920	0.750093
C117	C	0.284048	0.127484	0.000075
C118	C	0.534048	0.377484	0.250075
C119	C	0.784048	0.627484	0.500075
C120	C	1.034048	0.877484	0.750075
C121	C	-0.064135	0.019302	0.000136
C122	C	0.185865	0.269302	0.250136
C123	C	0.435865	0.519302	0.500136
C124	C	0.685865	0.769302	0.750136
C125	C	-0.123533	0.018589	0.000128
C126	C	0.126467	0.268589	0.250128
C127	C	0.376467	0.518589	0.500128
C128	C	0.626467	0.768589	0.750128
C129	C	-0.137680	0.122434	0.000092
C130	C	0.112320	0.372434	0.250092
C131	C	0.362320	0.622434	0.500092
C132	C	0.612320	0.872434	0.750092
C133	C	-0.078281	0.123146	0.000093
C134	C	0.171719	0.373146	0.250093
C135	C	0.421719	0.623146	0.500093
C136	C	0.671719	0.873146	0.750093
C137	C	-0.041509	0.071578	0.000119
C138	C	0.208491	0.321578	0.250119
C139	C	0.458491	0.571578	0.500119
C140	C	0.708491	0.821578	0.750119
C141	C	0.408784	0.128974	0.000057
C142	C	0.658784	0.378974	0.250057
C143	C	0.908784	0.628974	0.500057
C144	C	1.158784	0.878974	0.750057
C145	C	0.468186	0.129680	0.000044
C146	C	0.718186	0.379680	0.250044
C147	C	0.968186	0.629680	0.500044
C148	C	1.218186	0.879680	0.750044
C149	C	0.482329	0.025836	0.000086
C150	C	0.732329	0.275836	0.250086
C151	C	0.982329	0.525836	0.500086
C152	C	1.232329	0.775836	0.750086
C153	C	0.422932	0.025129	0.000093
C154	C	0.672932	0.275129	0.250093
C155	C	0.922932	0.525129	0.500093
C156	C	1.172932	0.775129	0.750093
C157	C	0.386160	0.076702	0.000082
C158	C	0.636160	0.326702	0.250082
C159	C	0.886160	0.576702	0.500082
C160	C	1.136160	0.826702	0.750082
O161	O	0.334974	-0.020119	0.000093
O162	O	0.584974	0.229881	0.250093
O163	O	0.834974	0.479881	0.500093
O164	O	1.084974	0.729881	0.750093
O165	O	0.308756	0.172007	0.000073
O166	O	0.558756	0.422007	0.250073
O167	O	0.808756	0.672007	0.500073
O168	O	1.058756	0.922007	0.750073
C169	C	0.677071	-0.030013	0.000128
C170	C	0.927071	0.219987	0.250128
C171	C	1.177071	0.469987	0.500128
C172	C	1.427071	0.719987	0.750128
C173	C	0.676305	-0.093230	0.000144
C174	C	0.926305	0.156770	0.250144
C175	C	1.176305	0.406770	0.500144
C176	C	1.426305	0.656770	0.750144
C177	C	0.621110	-0.359397	0.000069
C178	C	0.871110	-0.109397	0.250069
C179	C	1.121110	0.140603	0.500069
C180	C	1.371110	0.390603	0.750069
C181	C	0.621821	-0.299997	0.000077
C182	C	0.871821	-0.049997	0.250077
C183	C	1.121821	0.200003	0.500077
C184	C	1.371821	0.450003	0.750077
O185	O	0.578035	-0.263252	0.000035
O186	O	0.828035	-0.013252	0.250035
O187	O	1.078035	0.236748	0.500035
O188	O	1.328035	0.486748	0.750035
N189	N	0.674097	-0.277371	0.000099
N190	N	0.924097	-0.027371	0.250099
N191	N	1.174097	0.222629	0.500099
N192	N	1.424097	0.472629	0.750099
C193	C	0.725666	-0.314148	0.000103
C194	C	0.975666	-0.064148	0.250103
C195	C	1.225666	0.185852	0.500103
C196	C	1.475666	0.435852	0.750103
O197	O	0.770196	-0.289449	0.000121
O198	O	1.020196	-0.039449	0.250121
O199	O	1.270196	0.210551	0.500121
O200	O	1.520196	0.460551	0.750121
C201	C	0.724954	-0.373547	0.000087
C202	C	0.974954	-0.123547	0.250087
C203	C	1.224954	0.126453	0.500087
C204	C	1.474954	0.376453	0.750087
C205	C	0.672674	-0.396170	0.000075
C206	C	0.922674	-0.146170	0.250075
C207	C	1.172674	0.103830	0.500075
C208	C	1.422674	0.353830	0.750075
C209	C	0.568834	-0.382020	0.000056
C210	C	0.818834	-0.132020	0.250056
C211	C	1.068834	0.117980	0.500056
C212	C	1.318834	0.367980	0.750056
C213	C	0.568123	-0.441417	0.000050
C214	C	0.818123	-0.191417	0.250050
C215	C	1.068123	0.058583	0.500050
C216	C	1.318123	0.308583	0.750050
C217	C	0.619687	-0.478189	0.000056
C218	C	0.869687	-0.228189	0.250056
C219	C	1.119687	0.021811	0.500056
C220	C	1.369687	0.271811	0.750056
C221	C	0.671963	-0.455566	0.000069
C222	C	0.921963	-0.205566	0.250069
C223	C	1.171963	0.044434	0.500069
C224	C	1.421963	0.294434	0.750069
C225	C	0.776521	-0.410324	0.000083
C226	C	1.026521	-0.160324	0.250083
C227	C	1.276521	0.089676	0.500083
C228	C	1.526521	0.339676	0.750083
C229	C	0.775805	-0.469726	0.000067
C230	C	1.025805	-0.219726	0.250067
C231	C	1.275805	0.030274	0.500067
C232	C	1.525805	0.280274	0.750067
C233	C	0.723525	-0.492349	0.000056
C234	C	0.973525	-0.242349	0.250056
C235	C	1.223525	0.007651	0.500056
C236	C	1.473525	0.257651	0.750056
C237	C	0.722816	-0.551735	0.000070
C238	C	0.972816	-0.301735	0.250070
C239	C	1.222816	-0.051735	0.500070
C240	C	1.472816	0.198265	0.750070
N241	N	0.670539	-0.574361	0.000048
N242	N	0.920539	-0.324361	0.250048
N243	N	1.170539	-0.074361	0.500048
N244	N	1.420539	0.175639	0.750048
C245	C	0.618975	-0.537589	0.000041
C246	C	0.868975	-0.287589	0.250041
C247	C	1.118975	-0.037589	0.500041
C248	C	1.368975	0.212411	0.750041
C249	C	0.727157	-0.189406	0.000133
C250	C	0.977157	0.060594	0.250133
C251	C	1.227157	0.310594	0.500133
C252	C	1.477157	0.560594	0.750133
C253	C	0.727870	-0.130008	0.000156
C254	C	0.977870	0.119992	0.250156
C255	C	1.227870	0.369992	0.500156
C256	C	1.477870	0.619992	0.750156
C257	C	0.624025	-0.115861	0.000128
C258	C	0.874025	0.134139	0.250128
C259	C	1.124025	0.384139	0.500128
C260	C	1.374025	0.634139	0.750128
C261	C	0.623313	-0.175260	0.000113
C262	C	0.873313	0.074740	0.250113
C263	C	1.123313	0.324740	0.500113
C264	C	1.373313	0.574740	0.750113
C265	C	0.674881	-0.212032	0.000111
C266	C	0.924881	0.037968	0.250111
C267	C	1.174881	0.287968	0.500111
C268	C	1.424881	0.537968	0.750111
C269	C	0.617486	-0.662325	0.000029
C270	C	0.867486	-0.412325	0.250029
C271	C	1.117486	-0.162325	0.500029
C272	C	1.367486	0.087675	0.750029
C273	C	0.616779	-0.721727	0.000027
C274	C	0.866779	-0.471727	0.250027
C275	C	1.116779	-0.221727	0.500027
C276	C	1.366779	0.028273	0.750027
C277	C	0.720623	-0.735869	0.000049
C278	C	0.970623	-0.485869	0.250049
C279	C	1.220623	-0.235869	0.500049
C280	C	1.470623	0.014131	0.750049
C281	C	0.721330	-0.676473	0.000057
C282	C	0.971330	-0.426473	0.250057
C283	C	1.221330	-0.176473	0.500057
C284	C	1.471330	0.073527	0.750057
C285	C	0.669757	-0.639701	0.000043
C286	C	0.919757	-0.389701	0.250043
C287	C	1.169757	-0.139701	0.500043
C288	C	1.419757	0.110299	0.750043
O289	O	0.766579	-0.588514	0.000107
O290	O	1.016579	-0.338514	0.250107
O291	O	1.266579	-0.088514	0.500107
O292	O	1.516579	0.161486	0.750107
O293	O	0.574452	-0.562296	0.000009
O294	O	0.824452	-0.312296	0.250009
O295	O	1.074452	-0.062296	0.500009
O296	O	1.324452	0.187704	0.750009
C297	C	0.776472	0.069388	0.000111
C298	C	1.026472	0.319388	0.250111
C299	C	1.276472	0.569388	0.500111
C300	C	1.526472	0.819388	0.750111
C301	C	0.839689	0.070154	0.000116
C302	C	1.089689	0.320154	0.250116
C303	C	1.339689	0.570154	0.500116
C304	C	1.589689	0.820154	0.750116
C305	C	0.667577	0.178283	0.000056
C306	C	0.917577	0.428283	0.250056
C307	C	1.167577	0.678283	0.500056
C308	C	1.417577	0.928283	0.750056
C309	C	0.668343	0.241500	0.000034
C310	C	0.918343	0.491500	0.250034
C311	C	1.168343	0.741500	0.500034
C312	C	1.418343	0.991500	0.750034
N313	N	0.672315	0.074128	0.243633
N314	N	0.922315	0.324128	0.493633
N315	N	1.172315	0.574128	0.743633
N316	N	1.422315	0.824128	0.993633
N317	N	0.672337	0.074138	-0.243447
N318	N	0.922337	0.324138	0.006553
N319	N	1.172337	0.574138	0.256553
N320	N	1.422337	0.824138	0.506553
C321	C	0.672329	0.074138	0.663447
C322	C	0.922329	0.324138	0.913447
C323	C	1.172329	0.574138	1.163447
C324	C	1.422329	0.824138	1.413447
C325	C	0.672323	0.074137	0.546642
C326	C	0.922323	0.324137	0.796642
C327	C	1.172323	0.574137	1.046642
C328	C	1.422323	0.824137	1.296642
C329	C	0.672322	0.074134	0.453544
C330	C	0.922322	0.324134	0.703544
C331	C	1.172322	0.574134	0.953544
C332	C	1.422322	0.824134	1.203544
C333	C	0.672316	0.074132	0.336731
C334	C	0.922316	0.324132	0.586731
C335	C	1.172316	0.574132	0.836731
C336	C	1.422316	0.824132	1.086731
H337	H	0.138374	-0.072634	0.000189
H338	H	0.388374	0.177366	0.250189
H339	H	0.638374	0.427366	0.500189
H340	H	0.888374	0.677366	0.750189
C341	C	0.510615	-0.466294	0.000022
C342	C	0.760615	-0.216294	0.250022
C343	C	1.010615	0.033706	0.500022
C344	C	1.260615	0.283706	0.750022
H345	H	0.480012	-0.435880	0.000008
H346	H	0.730012	-0.185880	0.250008
H347	H	0.980012	0.064120	0.500008
H348	H	1.230012	0.314120	0.750008
H349	H	0.508167	-0.489184	0.059692
H350	H	0.758167	-0.239184	0.309692
H351	H	1.008167	0.010816	0.559692
H352	H	1.258167	0.260816	0.809692
H353	H	0.508182	-0.489157	-0.059672
H354	H	0.758182	-0.239157	0.190328
H355	H	1.008182	0.010843	0.440328
H356	H	1.258182	0.260843	0.690328
H357	H	0.526842	-0.352085	0.000047
H358	H	0.776842	-0.102085	0.250047
H359	H	1.026842	0.147915	0.500047
H360	H	1.276842	0.397915	0.750047
H361	H	0.206289	0.220908	0.000034
H362	H	0.456289	0.470908	0.250034
H363	H	0.706289	0.720908	0.500034
H364	H	0.956289	0.970908	0.750034
C365	C	0.256632	-0.086072	0.000185
C366	C	0.506632	0.163928	0.250185
C367	C	0.756632	0.413928	0.500185
C368	C	1.006632	0.663928	0.750185
H369	H	0.234647	-0.117306	0.000191
H370	H	0.484647	0.132694	0.250191
H371	H	0.734647	0.382694	0.500191
H372	H	0.984647	0.632694	0.750191
H373	H	0.280102	-0.087958	0.059858
H374	H	0.530102	0.162042	0.309858
H375	H	0.780102	0.412042	0.559858
H376	H	1.030102	0.662042	0.809858
H377	H	0.280092	-0.087951	-0.059506
H378	H	0.530092	0.162049	0.190494
H379	H	0.780092	0.412049	0.440494
H380	H	1.030092	0.662049	0.690494
H381	H	0.098544	0.219617	0.000054
H382	H	0.348544	0.469617	0.250054
H383	H	0.598544	0.719617	0.500054
H384	H	0.848544	0.969617	0.750054
C385	C	-0.178138	0.179155	0.000081
C386	C	0.071862	0.429155	0.250081
C387	C	0.321862	0.679155	0.500081
C388	C	0.571862	0.929155	0.750081
H389	H	-0.216753	0.171239	0.000096
H390	H	0.033247	0.421239	0.250096
H391	H	0.283247	0.671239	0.500096
H392	H	0.533247	0.921239	0.750096
H393	H	-0.171316	0.200611	-0.059603
H394	H	0.078684	0.450611	0.190397
H395	H	0.328684	0.700611	0.440397
H396	H	0.578684	0.950611	0.690397
H397	H	-0.171311	0.200601	0.059761
H398	H	0.078689	0.450601	0.309761
H399	H	0.328689	0.700601	0.559761
H400	H	0.578689	0.950601	0.809761
H401	H	0.762606	-0.765820	0.000060
H402	H	1.012606	-0.515820	0.250060
H403	H	1.262606	-0.265820	0.500060
H404	H	1.512606	-0.015820	0.750060
H405	H	-0.141947	-0.023982	0.000134
H406	H	0.108053	0.226018	0.250134
H407	H	0.358053	0.476018	0.500134
H408	H	0.608053	0.726018	0.750134
C409	C	0.565806	-0.200139	0.000085
C410	C	0.815806	0.049861	0.250085
C411	C	1.065806	0.299861	0.500085
C412	C	1.315806	0.549861	0.750085
H413	H	0.535201	-0.169727	0.000076
H414	H	0.785201	0.080273	0.250076
H415	H	1.035201	0.330273	0.500076
H416	H	1.285201	0.580273	0.750076
H417	H	0.563361	-0.223032	0.059752
H418	H	0.813361	0.026968	0.309752
H419	H	1.063361	0.276968	0.559752
H420	H	1.313361	0.526968	0.809752
H421	H	0.563373	-0.223000	-0.059612
H422	H	0.813373	0.027000	0.190388
H423	H	1.063373	0.277000	0.440388
H424	H	1.313373	0.527000	0.690388
C425	C	-0.023690	-0.037426	0.000143
C426	C	0.226310	0.212574	0.250143
C427	C	0.476310	0.462574	0.500143
C428	C	0.726310	0.712574	0.750143
H429	H	-0.045677	-0.068658	0.000142
H430	H	0.204323	0.181342	0.250142
H431	H	0.454323	0.431342	0.500142
H432	H	0.704323	0.681342	0.750142
H433	H	-0.000221	-0.039317	0.059818
H434	H	0.249779	0.210683	0.309818
H435	H	0.499779	0.460683	0.559818
H436	H	0.749779	0.710683	0.809818
H437	H	-0.000228	-0.039304	-0.059546
H438	H	0.249772	0.210696	0.190454
H439	H	0.499772	0.460696	0.440454
H440	H	0.749772	0.710696	0.690454
C441	C	-0.053401	0.180653	0.000072
C442	C	0.196599	0.430653	0.250072
C443	C	0.446599	0.680653	0.500072
C444	C	0.696599	0.930653	0.750072
H445	H	-0.083814	0.211258	0.000066
H446	H	0.166186	0.461258	0.250066
H447	H	0.416186	0.711258	0.500066
H448	H	0.666186	0.961258	0.750066
H449	H	-0.030522	0.183094	-0.059604
H450	H	0.219478	0.433094	0.190396
H451	H	0.469478	0.683094	0.440396
H452	H	0.719478	0.933094	0.690396
H453	H	-0.030527	0.183090	0.059759
H454	H	0.219473	0.433090	0.309759
H455	H	0.469473	0.683090	0.559759
H456	H	0.719473	0.933090	0.809759
C457	C	0.567304	-0.075403	0.000103
C458	C	0.817304	0.174597	0.250103
C459	C	1.067304	0.424597	0.500103
C460	C	1.317304	0.674597	0.750103
H461	H	0.575220	-0.036788	0.000101
H462	H	0.825220	0.213212	0.250101
H463	H	1.075220	0.463212	0.500101
H464	H	1.325220	0.713212	0.750101
H465	H	0.545844	-0.082235	0.059769
H466	H	0.795844	0.167765	0.309769
H467	H	1.045844	0.417765	0.559769
H468	H	1.295844	0.667765	0.809769
H469	H	0.545863	-0.082219	-0.059594
H470	H	0.795863	0.167781	0.190406
H471	H	1.045863	0.417781	0.440406
H472	H	1.295863	0.667781	0.690406
H473	H	0.512280	-0.016146	0.000096
H474	H	0.762280	0.233854	0.250096
H475	H	1.012280	0.483854	0.500096
H476	H	1.262280	0.733854	0.750096
H477	H	0.770441	-0.111594	0.000182
H478	H	1.020441	0.138406	0.250182
H479	H	1.270441	0.388406	0.500182
H480	H	1.520441	0.638406	0.750182
H481	H	0.769152	-0.219343	0.000139
H482	H	1.019152	0.030657	0.250139
H483	H	1.269152	0.280657	0.500139
H484	H	1.519152	0.530657	0.750139
H485	H	0.575489	-0.632392	0.000017
H486	H	0.825489	-0.382392	0.250017
H487	H	1.075489	-0.132392	0.500017
H488	H	1.325489	0.117608	0.750017
C489	C	0.834028	-0.385449	0.000096
C490	C	1.084028	-0.135449	0.250096
C491	C	1.334028	0.114551	0.500096
C492	C	1.584028	0.364551	0.750096
H493	H	0.827076	-0.344806	0.000111
H494	H	1.077076	-0.094806	0.250111
H495	H	1.327076	0.155194	0.500111
H496	H	1.577076	0.405194	0.750111
H497	H	0.855245	-0.398083	-0.059580
H498	H	1.105245	-0.148083	0.190420
H499	H	1.355245	0.101917	0.440420
H500	H	1.605245	0.351917	0.690420
H501	H	0.855240	-0.398106	0.059784
H502	H	1.105240	-0.148106	0.309784
H503	H	1.355240	0.101894	0.559784
H504	H	1.605240	0.351894	0.809784
C505	C	0.832529	-0.510175	0.000066
C506	C	1.082529	-0.260175	0.250066
C507	C	1.332529	-0.010175	0.500066
C508	C	1.582529	0.239825	0.750066
H509	H	0.824622	-0.548792	0.000050
H510	H	1.074622	-0.298792	0.250050
H511	H	1.324622	-0.048792	0.500050
H512	H	1.574622	0.201208	0.750050
H513	H	0.853979	-0.503357	0.059746
H514	H	1.103979	-0.253357	0.309746
H515	H	1.353979	-0.003357	0.559746
H516	H	1.603979	0.246643	0.809746
H517	H	0.853978	-0.503334	-0.059617
H518	H	1.103978	-0.253334	0.190383
H519	H	1.353978	-0.003334	0.440383
H520	H	1.603978	0.246666	0.690383
C521	C	0.778836	-0.651586	0.000082
C522	C	1.028836	-0.401586	0.250082
C523	C	1.278836	-0.151586	0.500082
C524	C	1.528836	0.098414	0.750082
H525	H	0.809443	-0.681996	0.000083
H526	H	1.059443	-0.431996	0.250083
H527	H	1.309443	-0.181996	0.500083
H528	H	1.559443	0.068004	0.750083
H529	H	0.781269	-0.628716	0.059759
H530	H	1.031269	-0.378716	0.309759
H531	H	1.281269	-0.128716	0.559759
H532	H	1.531269	0.121284	0.809759
H533	H	0.781276	-0.628702	-0.059604
H534	H	1.031276	-0.378702	0.190396
H535	H	1.281276	-0.128702	0.440396
H536	H	1.531276	0.121298	0.690396
C537	C	0.559271	-0.746612	0.000010
C538	C	0.809271	-0.496612	0.250010
C539	C	1.059271	-0.246612	0.500010
C540	C	1.309271	0.003388	0.750010
H541	H	0.566228	-0.787255	0.000015
H542	H	0.816228	-0.537255	0.250015
H543	H	1.066228	-0.287255	0.500015
H544	H	1.316228	-0.037255	0.750015
H545	H	0.538058	-0.733959	-0.059672
H546	H	0.788058	-0.483959	0.190328
H547	H	1.038058	-0.233959	0.440328
H548	H	1.288058	0.016041	0.690328
H549	H	0.538052	-0.733979	0.059691
H550	H	0.788052	-0.483979	0.309691
H551	H	1.038052	-0.233979	0.559691
H552	H	1.288052	0.016021	0.809691
C553	C	0.493068	0.187190	0.000020
C554	C	0.743068	0.437190	0.250020
C555	C	0.993068	0.687190	0.500020
C556	C	1.243068	0.937190	0.750020
H557	H	0.462657	0.217797	0.000021
H558	H	0.712657	0.467797	0.250021
H559	H	0.962657	0.717797	0.500021
H560	H	1.212657	0.967797	0.750021
H561	H	0.515943	0.189631	-0.059661
H562	H	0.765943	0.439631	0.190339
H563	H	1.015943	0.689631	0.440339
H564	H	1.265943	0.939631	0.690339
H565	H	0.515946	0.189624	0.059703
H566	H	0.765946	0.439624	0.309703
H567	H	1.015946	0.689624	0.559703
H568	H	1.265946	0.939624	0.809703
H569	H	0.404512	-0.017441	0.000100
H570	H	0.654512	0.232559	0.250100
H571	H	0.904512	0.482559	0.500100
H572	H	1.154512	0.732559	0.750100
H573	H	0.378852	0.170970	0.000051
H574	H	0.628852	0.420970	0.250051
H575	H	0.878852	0.670970	0.500051
H576	H	1.128852	0.920970	0.750051
