data_functionalizedCrystal
_audit_creation_method	'MofGen! by Chris Wilmer'
_symmetry_space_group_name_H-M	'P1'
_symmetry_Int_Tables_number	1
_symmetry_cell_setting	triclinic
loop_
_symmetry_equiv_pos_as_xyz
  x,y,z
_cell_length_a	15.625020
_cell_length_b	15.538191
_cell_length_c	9.130313
_cell_angle_alpha	90.003329
_cell_angle_beta	108.088041
_cell_angle_gamma	66.738808
loop_
_atom_site_label
_atom_site_type_symbol
_atom_site_fract_x
_atom_site_fract_y
_atom_site_fract_z
O1	O	1.156047	0.122931	0.735879
O2	O	0.888764	0.137577	0.593899
O3	O	1.074435	-0.006808	0.692533
O4	O	0.970377	0.267316	0.637244
O5	O	1.074426	-0.006817	0.448930
O6	O	0.888756	0.137568	0.350295
O7	O	1.156039	0.122922	0.492275
Cu8	Cu	1.022396	0.130244	0.399043
Cu9	Cu	1.022406	0.130255	0.687132
O10	O	0.970368	0.267306	0.393641
C11	C	0.855387	0.136909	0.454370
C12	C	0.755952	0.134921	0.401551
C13	C	0.615796	0.132113	0.194326
C14	C	0.709231	0.133981	0.243973
C15	C	0.709251	0.133988	0.509545
C16	C	0.615816	0.132115	0.459922
C17	C	0.569096	0.131178	0.302310
C18	C	0.569116	0.131180	0.567906
C19	C	0.475688	0.129312	0.518284
C20	C	0.428959	0.128379	0.360678
C21	C	0.475667	0.129311	0.252688
C22	C	0.615836	0.132123	0.725515
C23	C	0.569136	0.131188	0.833499
C24	C	0.475708	0.129314	0.783880
C25	C	0.428980	0.128380	0.626274
C26	C	0.429000	0.128382	0.891870
C27	C	0.335572	0.126514	0.842248
C28	C	0.335551	0.126512	0.576652
C29	C	1.085317	-0.041894	0.576520
C30	C	1.117747	-0.146425	0.593761
C31	C	0.795570	-0.434635	0.422590
C32	C	0.826065	-0.532861	0.438786
C33	C	0.997592	-0.555081	0.529901
C34	C	0.967112	-0.456855	0.513720
C35	C	0.866099	-0.396639	0.460062
C36	C	1.037641	-0.418859	0.551193
C37	C	1.007162	-0.320641	0.535005
C38	C	0.906154	-0.260419	0.481345
C39	C	0.835621	-0.298422	0.443875
C40	C	1.138653	-0.479076	0.604840
C41	C	1.209182	-0.441080	0.642312
C42	C	1.178704	-0.342860	0.626135
C43	C	1.077696	-0.282639	0.572476
C44	C	1.249238	-0.304858	0.663606
C45	C	1.218759	-0.206640	0.647418
C46	C	1.047217	-0.184421	0.556288
C47	C	1.189415	0.123590	0.631807
C48	C	1.288851	0.125578	0.684636
C49	C	0.959485	0.302392	0.509658
C50	C	0.927056	0.406924	0.492426
N51	N	1.022396	0.130236	0.196420
C52	C	0.986460	0.073037	-0.052713
C53	C	0.986452	0.073024	0.100620
C54	C	1.058358	0.187457	0.138884
C55	C	1.058372	0.187464	-0.014442
N56	N	1.022416	0.130256	0.889760
H57	H	0.437619	0.128560	0.124342
H58	H	1.087630	0.234035	0.216900
H59	H	0.607187	0.131954	0.961827
O60	O	0.757641	-0.569885	0.402633
C61	C	0.770127	-0.626013	0.535443
H62	H	0.849161	-0.650369	0.619493
H63	H	0.716055	-0.582679	0.595062
C64	C	0.652975	-0.683046	0.383216
C65	C	0.750049	-0.712968	0.486441
H66	H	0.640585	-0.736682	0.352991
H67	H	0.644559	-0.645229	0.293739
H68	H	0.607926	-0.646934	0.432913
H69	H	0.795095	-0.749069	0.436737
H70	H	0.758471	-0.750793	0.575909
O71	O	1.287303	-0.169767	0.684108
C72	C	1.346944	-0.200539	0.841939
H73	H	1.305142	-0.221045	0.907905
H74	H	1.418120	-0.264472	0.851228
C75	C	1.423755	-0.094904	0.831667
C76	C	1.372409	-0.120082	0.912690
H77	H	1.439467	-0.045278	0.875309
H78	H	1.383576	-0.074175	0.725331
H79	H	1.483062	-0.148189	0.839415
H80	H	1.313098	-0.066802	0.904924
H81	H	1.412578	-0.140802	1.019026
O82	O	1.093297	0.243138	-0.070109
C83	C	1.125044	0.293618	0.047327
H84	H	1.085939	0.299041	0.135843
H85	H	1.208460	0.254961	0.107967
C86	C	1.147897	0.386991	-0.134594
C87	C	1.099860	0.393660	-0.025884
H88	H	1.132367	0.448701	-0.179753
H89	H	1.126512	0.352980	-0.213713
H90	H	1.217406	0.354773	-0.084045
H91	H	1.030352	0.425866	-0.076438
H92	H	1.121233	0.427679	0.053224
H93	H	0.753366	-0.249390	0.400192
H94	H	1.163465	-0.559050	0.618031
O95	O	0.697406	-0.376268	0.370397
C96	C	0.641683	-0.430862	0.340844
H97	H	0.688542	-0.504133	0.319607
H98	H	0.618567	-0.437892	0.445436
C99	C	0.491190	-0.292033	0.222046
C100	C	0.548741	-0.382023	0.195949
H101	H	0.433856	-0.261906	0.132673
H102	H	0.528731	-0.255251	0.241961
H103	H	0.471937	-0.297904	0.309210
H104	H	0.568003	-0.376150	0.108799
H105	H	0.511201	-0.418803	0.176016
H106	H	0.297503	0.125762	0.448306
O107	O	1.347368	-0.363316	0.715468
C108	C	1.392097	-0.346053	0.613090
H109	H	1.333530	-0.312548	0.493802
H110	H	1.427888	-0.295971	0.660636
C111	C	1.543658	-0.481259	0.744683
C112	C	1.471726	-0.440115	0.598167
H113	H	1.592780	-0.539280	0.735481
H114	H	1.513525	-0.492888	0.813661
H115	H	1.573473	-0.439515	0.784289
H116	H	1.441905	-0.481854	0.558572
H117	H	1.501857	-0.428495	0.529181
H118	H	0.352881	0.126863	0.320278
O119	O	0.951547	0.017374	-0.145538
C120	C	0.919788	-0.033115	-0.061888
H121	H	0.958875	-0.038541	0.068191
H122	H	0.836369	0.005537	-0.089913
C123	C	0.896976	-0.126483	-0.268133
C124	C	0.944989	-0.133155	-0.108369
H125	H	0.912516	-0.188191	-0.296809
H126	H	0.918369	-0.092466	-0.324494
H127	H	0.827463	-0.094270	-0.291468
H128	H	1.014500	-0.165357	-0.085040
H129	H	0.923608	-0.167180	-0.052005
O130	O	0.951413	0.017585	0.156596
C131	C	0.871120	0.074887	0.202591
H132	H	0.876303	0.144799	0.228354
H133	H	0.798683	0.089189	0.104981
C134	C	0.867899	-0.062145	0.318248
C135	C	0.874268	0.023719	0.349902
H136	H	0.869837	-0.093708	0.409111
H137	H	0.921991	-0.100751	0.287255
H138	H	0.807533	-0.050214	0.236902
H139	H	0.934638	0.011787	0.431232
H140	H	0.820186	0.062323	0.380912
H141	H	0.577748	0.131362	0.065980
H142	H	0.747248	0.134748	0.156025
H143	H	0.747302	0.134753	0.637873
H144	H	0.691908	0.133650	0.765910
O145	O	0.290164	0.125476	0.947028
C146	C	0.273017	0.042901	0.945885
H147	H	0.271306	0.015453	0.829684
H148	H	0.334849	-0.013438	1.044258
C149	C	0.175174	0.099594	1.111440
C150	C	0.173064	0.065887	0.968714
H151	H	0.113521	0.113770	1.125529
H152	H	0.186729	0.155225	1.112215
H153	H	0.226706	0.052639	1.193401
H154	H	0.121541	0.112845	0.886755
H155	H	0.161498	0.010264	0.967925
H156	H	1.079837	-0.604121	0.573583
O157	O	1.307289	-0.499616	0.694690
C158	C	1.330046	-0.557110	0.832918
H159	H	1.272189	-0.521207	0.890360
H160	H	1.330101	-0.628562	0.804416
C161	C	1.504045	-0.615991	0.874268
C162	C	1.432989	-0.571890	0.944826
H163	H	1.567547	-0.625112	0.943296
H164	H	1.488714	-0.577259	0.781138
H165	H	1.504078	-0.675530	0.850519
H166	H	1.432948	-0.512348	0.968555
H167	H	1.448322	-0.610612	1.037963
H168	H	0.467050	0.129153	1.020195
H169	H	0.964963	-0.135390	0.512606
H170	H	0.881341	-0.180445	0.468158
