data_functionalizedCrystal
_audit_creation_method	'MofGen! by Chris Wilmer'
_symmetry_space_group_name_H-M	'P1'
_symmetry_Int_Tables_number	1
_symmetry_cell_setting	triclinic
loop_
_symmetry_equiv_pos_as_xyz
  x,y,z
_cell_length_a	21.295420
_cell_length_b	21.295417
_cell_length_c	18.215384
_cell_angle_alpha	89.899621
_cell_angle_beta	89.937690
_cell_angle_gamma	90.026289
loop_
_atom_site_label
_atom_site_type_symbol
_atom_site_fract_x
_atom_site_fract_y
_atom_site_fract_z
Zn1	Zn	0.962590	-0.250263	-0.416094
Zn2	Zn	1.462590	0.249737	0.083906
Zn3	Zn	0.962423	-0.355659	-0.293018
Zn4	Zn	1.462423	0.144341	0.206982
Zn5	Zn	0.857244	-0.250400	-0.293041
Zn6	Zn	1.357244	0.249600	0.206959
Zn7	Zn	0.857282	-0.355490	-0.416043
Zn8	Zn	1.357282	0.144510	0.083957
O9	O	0.909885	-0.302953	-0.354549
O10	O	1.409885	0.197047	0.145451
O11	O	1.050657	-0.264257	-0.399779
O12	O	1.550657	0.235743	0.100221
O13	O	0.948385	-0.341824	-0.190036
O14	O	1.448385	0.158176	0.309964
O15	O	0.871272	-0.162292	-0.309395
O16	O	1.371272	0.337708	0.190605
O17	O	1.050534	-0.341691	-0.309356
O18	O	1.550534	0.158309	0.190644
O19	O	0.948669	-0.162191	-0.399801
O20	O	1.448669	0.337809	0.100199
O21	O	0.871110	-0.264491	-0.190053
O22	O	1.371110	0.235509	0.309947
O23	O	0.769159	-0.264327	-0.309346
O24	O	1.269159	0.235673	0.190654
O25	O	0.871338	-0.341403	-0.519035
O26	O	1.371338	0.158597	-0.019035
O27	O	0.769188	-0.341537	-0.399715
O28	O	1.269188	0.158463	0.100285
O29	O	0.948707	-0.264093	-0.519072
O30	O	1.448707	0.235907	-0.019072
O31	O	0.948422	-0.443726	-0.309307
O32	O	1.448422	0.056274	0.190693
O33	O	0.871176	-0.443602	-0.399693
O34	O	1.371176	0.056398	0.100307
C35	C	0.746333	-0.302929	-0.354528
C36	C	1.246333	0.197071	0.145472
C37	C	0.676365	-0.302934	-0.354537
C38	C	1.176365	0.197066	0.145463
C39	C	0.176970	-0.262728	-0.401720
C40	C	0.676970	0.237272	0.098280
C41	C	0.242713	-0.262723	-0.401720
C42	C	0.742713	0.237277	0.098280
C43	C	0.275526	-0.302972	-0.354566
C44	C	0.775526	0.197028	0.145434
C45	C	0.242590	-0.343240	-0.307422
C46	C	0.742590	0.156760	0.192578
C47	C	0.176849	-0.343248	-0.307429
C48	C	0.676849	0.156752	0.192571
N49	N	0.378679	-0.307783	-0.290126
N50	N	0.878679	0.192217	0.209874
N51	N	0.441131	-0.307772	-0.290122
N52	N	0.941131	0.192228	0.209878
C53	C	0.473600	-0.302951	-0.354544
C54	C	0.973600	0.197049	0.145456
N55	N	0.441259	-0.298130	-0.418973
N56	N	0.941259	0.201870	0.081027
N57	N	0.378802	-0.298138	-0.418976
N58	N	0.878802	0.201862	0.081024
C59	C	0.346811	-0.302968	-0.354554
C60	C	0.846811	0.197032	0.145446
C61	C	0.577813	-0.262684	-0.401689
C62	C	1.077813	0.237316	0.098311
C63	C	0.643557	-0.262684	-0.401690
C64	C	1.143557	0.237316	0.098310
C65	C	0.643433	-0.343197	-0.307386
C66	C	1.143433	0.156803	0.192614
C67	C	0.577691	-0.343201	-0.307391
C68	C	1.077691	0.156799	0.192609
C69	C	0.544885	-0.302941	-0.354542
C70	C	1.044885	0.197059	0.145458
C71	C	0.909802	-0.466505	-0.354508
C72	C	1.409802	0.033495	0.145492
C73	C	0.909824	-0.536473	-0.354515
C74	C	1.409824	-0.036473	0.145485
C75	C	0.950082	-0.569383	-0.307499
C76	C	1.450082	-0.069383	0.192501
C77	C	0.950112	-0.635126	-0.307516
C78	C	1.450112	-0.135126	0.192484
C79	C	0.909872	-0.667955	-0.354541
C80	C	1.409872	-0.167955	0.145459
C81	C	0.869611	-0.635037	-0.401566
C82	C	1.369611	-0.135037	0.098434
C83	C	0.869588	-0.569296	-0.401553
C84	C	1.369588	-0.069296	0.098447
N85	N	0.854808	-0.771211	-0.360144
N86	N	1.354808	-0.271211	0.139856
N87	N	0.854833	-0.833663	-0.360152
N88	N	1.354833	-0.333663	0.139848
C89	C	0.909943	-0.866030	-0.354583
C90	C	1.409943	-0.366030	0.145417
N91	N	0.965028	-0.833586	-0.348992
N92	N	1.465028	-0.333586	0.151008
N93	N	0.965003	-0.771129	-0.348980
N94	N	1.465003	-0.271129	0.151020
C95	C	0.909894	-0.739241	-0.354560
C96	C	1.409894	-0.239241	0.145440
C97	C	0.950236	-0.970226	-0.307583
C98	C	1.450236	-0.470226	0.192417
C99	C	0.950267	-1.035969	-0.307604
C100	C	1.450267	-0.535969	0.192396
C101	C	0.869761	-1.035879	-0.401650
C102	C	1.369761	-0.535879	0.098350
C103	C	0.869736	-0.970137	-0.401632
C104	C	1.369736	-0.470137	0.098368
C105	C	0.909973	-0.937314	-0.354595
C106	C	1.409973	-0.437314	0.145405
C107	C	1.074075	-0.302978	-0.354570
C108	C	1.574075	0.197022	0.145430
C109	C	1.144043	-0.302988	-0.354579
C110	C	1.644043	0.197012	0.145421
C111	C	0.910045	-0.302714	-0.546502
C112	C	1.410045	0.197286	-0.046502
C113	C	0.910114	-0.302612	-0.628302
C114	C	1.410114	0.197388	-0.128302
C115	C	0.909985	-0.138763	-0.354606
C116	C	1.409985	0.361237	0.145394
C117	C	0.910027	-0.068794	-0.354630
C118	C	1.410027	0.431206	0.145370
C119	C	0.909761	-0.303146	-0.163342
C120	C	1.409761	0.196854	0.336658
C121	C	0.909815	-0.303070	-0.081544
C122	C	1.409815	0.196930	0.418456
C123	C	0.869949	-0.343421	0.106871
C124	C	1.369949	0.156579	0.606871
C125	C	0.869999	-0.343342	0.183730
C126	C	1.369999	0.156658	0.683730
C127	C	0.949981	-0.262257	0.183278
C128	C	1.449981	0.237743	0.683278
C129	C	0.949928	-0.262333	0.106421
C130	C	1.449928	0.237667	0.606421
C131	C	0.909913	-0.302918	0.068220
C132	C	1.409913	0.197082	0.568220
C133	C	0.910015	-0.302764	0.221935
C134	C	1.410015	0.197236	0.721935
C135	C	0.910069	-0.302679	0.305269
C136	C	1.410069	0.197321	0.805269
C137	C	0.909859	-0.303003	-0.015119
C138	C	1.409859	0.196997	0.484881
H139	H	0.150040	-0.376034	-0.269041
H140	H	0.650040	0.123966	0.230959
H141	H	0.837454	-0.376322	0.215197
H142	H	1.337454	0.123678	0.715197
Br143	Br	1.004752	-0.679800	-0.243704
Br144	Br	1.504752	-0.179800	0.256296
Br145	Br	1.004271	-0.207167	0.235127
Br146	Br	1.504271	0.292833	0.735127
Br147	Br	0.815005	-0.679589	-0.465391
Br148	Br	1.315005	-0.179589	0.034609
Br149	Br	1.004840	-0.925676	-0.243745
Br150	Br	1.504840	-0.425676	0.256255
Br151	Br	1.004170	-0.207363	0.053960
Br152	Br	1.504170	0.292637	0.553960
Br153	Br	0.814948	-0.524628	-0.465367
Br154	Br	1.314948	-0.024628	0.034633
H155	H	0.836951	-0.943340	-0.439914
H156	H	1.336951	-0.443340	0.060086
Br157	Br	0.533000	-0.397834	-0.243401
Br158	Br	1.033000	0.102166	0.256599
H159	H	0.837366	-0.376467	0.075770
H160	H	1.337366	0.123533	0.575770
Br161	Br	1.004914	-1.080635	-0.243799
Br162	Br	1.504914	-0.580635	0.256201
H163	H	0.269527	-0.229935	-0.440106
H164	H	0.769527	0.270065	0.059894
Br165	Br	0.815155	-1.080427	-0.465478
Br166	Br	1.315155	-0.580427	0.034522
Br167	Br	0.132450	-0.208094	-0.465714
Br168	Br	0.632450	0.291906	0.034286
H169	H	0.551101	-0.229902	-0.440081
H170	H	1.051101	0.270098	0.059919
Br171	Br	0.287120	-0.397869	-0.243433
Br172	Br	0.787120	0.102131	0.256567
Br173	Br	1.004698	-0.524840	-0.243673
Br174	Br	1.504698	-0.024840	0.256327
Br175	Br	0.687957	-0.397830	-0.243399
Br176	Br	1.187957	0.102170	0.256601
Br177	Br	0.688245	-0.208047	-0.465681
Br178	Br	1.188245	0.291953	0.034319
