data_functionalizedCrystal
_audit_creation_method	'MofGen! by Chris Wilmer'
_symmetry_space_group_name_H-M	'P1'
_symmetry_Int_Tables_number	1
_symmetry_cell_setting	triclinic
loop_
_symmetry_equiv_pos_as_xyz
  x,y,z
_cell_length_a	13.185408
_cell_length_b	13.339070
_cell_length_c	14.048226
_cell_angle_alpha	89.996915
_cell_angle_beta	89.995408
_cell_angle_gamma	83.801397
loop_
_atom_site_label
_atom_site_type_symbol
_atom_site_fract_x
_atom_site_fract_y
_atom_site_fract_z
O1	O	1.373298	-0.243485	-0.079095
O2	O	1.084466	-0.148748	-0.079110
O3	O	1.195733	-0.334355	-0.079101
O4	O	1.262031	-0.057877	-0.079103
O5	O	1.195712	-0.334358	0.079220
O6	O	1.084445	-0.148751	0.079212
O7	O	1.373277	-0.243488	0.079226
Zn8	Zn	1.228857	-0.196120	0.104356
Zn9	Zn	1.228885	-0.196116	-0.104239
O10	O	1.262009	-0.057881	0.079218
C11	C	1.046733	-0.139145	0.000049
C12	C	0.934328	-0.110538	0.000043
C13	C	0.895277	-0.008684	0.000041
C14	C	0.789668	0.018197	0.000049
C15	C	0.723099	-0.056774	0.000053
C16	C	0.762150	-0.158631	0.000049
C17	C	0.867770	-0.185514	0.000048
C18	C	0.695592	-0.233605	0.000060
C19	C	0.734643	-0.335461	0.000056
C20	C	0.840253	-0.362340	0.000054
C21	C	0.906821	-0.287369	0.000051
C22	C	0.589973	-0.206722	0.000061
C23	C	0.562466	-0.383552	0.000068
C24	C	0.668075	-0.410432	0.000060
C25	C	1.184524	-0.368997	0.000058
C26	C	1.151143	-0.472211	0.000052
C27	C	1.410697	-0.907668	0.000066
C28	C	1.442064	-0.810695	0.000076
C29	C	1.369336	-0.726069	0.000070
C30	C	1.265237	-0.738426	0.000054
C31	C	1.233867	-0.835408	0.000051
C32	C	1.192506	-0.653810	0.000055
C33	C	1.088406	-0.666166	0.000039
C34	C	1.057042	-0.763140	0.000035
C35	C	1.129770	-0.847766	0.000041
C36	C	1.223876	-0.556827	0.000058
C37	C	1.047045	-0.484568	0.000043
C38	C	1.015679	-0.581541	0.000032
C39	C	1.411010	-0.253091	0.000066
C40	C	1.523415	-0.281698	0.000065
C41	C	1.273219	-0.023239	0.000057
C42	C	1.306600	0.079975	0.000056
N43	N	1.228846	-0.196126	0.246717
N44	N	1.228903	-0.196120	-0.246600
C45	C	1.278144	-0.278292	0.296538
C46	C	1.278151	-0.278295	0.396196
C47	C	1.228864	-0.196126	0.446030
C48	C	1.179559	-0.113955	0.396201
C49	C	1.179547	-0.113957	0.296546
C50	C	1.179591	-0.113956	0.603916
C51	C	1.179604	-0.113953	0.703578
C52	C	1.278194	-0.278294	0.703566
C53	C	1.278182	-0.278296	0.603910
C54	C	1.228878	-0.196123	0.554089
H55	H	0.949485	0.052346	0.000045
H56	H	1.139402	-0.047049	0.255982
H57	H	1.139423	-0.047053	0.436782
H58	H	0.992818	-0.309250	0.000047
H59	H	1.139438	-0.047044	0.563354
H60	H	0.872044	-0.445278	0.000063
H61	H	0.699886	-0.493365	0.000057
H62	H	1.318284	-0.345200	0.255970
H63	H	0.508265	-0.444600	0.000027
H64	H	0.930919	-0.591616	0.000019
H65	H	0.558188	-0.123789	0.000065
H66	H	0.972278	-0.773195	0.000029
H67	H	1.394881	-0.647111	0.000079
H68	H	0.637108	-0.034882	0.000061
H69	H	1.308634	-0.546778	0.000071
H70	H	1.469901	-0.976575	0.000079
H71	H	1.139469	-0.047044	0.744148
H72	H	0.757880	0.101128	0.000052
H73	H	1.526821	-0.800642	0.000091
H74	H	0.987824	-0.415664	0.000042
H75	H	1.104236	-0.926732	0.000029
H76	H	1.318293	-0.345201	0.436761
H77	H	1.318321	-0.345200	0.563336
H78	H	1.318338	-0.345202	0.744137
