data_functionalizedCrystal
_audit_creation_method	'MofGen! by Chris Wilmer'
_symmetry_space_group_name_H-M	'P1'
_symmetry_Int_Tables_number	1
_symmetry_cell_setting	triclinic
loop_
_symmetry_equiv_pos_as_xyz
  x,y,z
_cell_length_a	17.077404
_cell_length_b	14.908506
_cell_length_c	17.077396
_cell_angle_alpha	93.269594
_cell_angle_beta	89.980223
_cell_angle_gamma	93.315312
loop_
_atom_site_label
_atom_site_type_symbol
_atom_site_fract_x
_atom_site_fract_y
_atom_site_fract_z
Zn1	Zn	1.182022	-0.359269	-0.461886
Zn2	Zn	1.174357	-0.510140	-0.338194
Zn3	Zn	1.050753	-0.359288	-0.330634
Zn4	Zn	1.043153	-0.510074	-0.469414
O5	O	1.112571	-0.434693	-0.400032
O6	O	1.290852	-0.379302	-0.445491
O7	O	1.157934	-0.490165	-0.227346
O8	O	1.074555	-0.233041	-0.341730
O9	O	1.285220	-0.490147	-0.354616
O10	O	1.170998	-0.233027	-0.438160
O11	O	1.067122	-0.379335	-0.221792
O12	O	0.939899	-0.379270	-0.349030
O13	O	1.061602	-0.490034	-0.578261
O14	O	0.934315	-0.490052	-0.450991
O15	O	1.163628	-0.379238	-0.572730
O16	O	1.150564	-0.636376	-0.361916
O17	O	1.054169	-0.636327	-0.458322
C18	C	0.908625	-0.434657	-0.400008
C19	C	0.821375	-0.434663	-0.400017
C20	C	0.442666	-0.492506	-0.453073
C21	C	0.524647	-0.492494	-0.453061
C22	C	0.568524	-0.434717	-0.400046
C23	C	0.530415	-0.376954	-0.347035
C24	C	0.448435	-0.376971	-0.347044
C25	C	0.701287	-0.376921	-0.347020
C26	C	0.783272	-0.376903	-0.347011
C27	C	0.777499	-0.492444	-0.453037
C28	C	0.695519	-0.492461	-0.453046
C29	C	0.657416	-0.434697	-0.400036
C30	C	1.100731	-0.669085	-0.411773
C31	C	1.095738	-0.769360	-0.416823
C32	C	1.038473	-0.910699	-0.474085
C33	C	1.043163	-0.816482	-0.469347
C34	C	1.143627	-0.816460	-0.369035
C35	C	1.138937	-0.910676	-0.373774
C36	C	1.086358	-0.957792	-0.426300
C37	C	1.081664	-1.052011	-0.431034
C38	C	1.182132	-1.051987	-0.330727
C39	C	1.186822	-0.957770	-0.325988
C40	C	1.317314	-0.434730	-0.400057
C41	C	1.404563	-0.434746	-0.400068
C42	C	1.112622	-0.434626	-0.604773
C43	C	1.112644	-0.434598	-0.692022
C44	C	1.124479	-0.199385	-0.388262
C45	C	1.129554	-0.099111	-0.383247
C46	C	1.165771	-0.376902	-0.730133
C47	C	1.165782	-0.376872	-0.812112
C48	C	1.112669	-0.434543	-0.855978
C49	C	1.059536	-0.492242	-0.817862
C50	C	1.059522	-0.492267	-0.735884
C51	C	1.059570	-0.492188	-0.988729
C52	C	1.059585	-0.492164	-1.070712
C53	C	1.165831	-0.376793	-1.064957
C54	C	1.165817	-0.376818	-0.982979
C55	C	1.112684	-0.434518	-0.944868
C56	C	1.112569	-0.434694	-0.196084
C57	C	1.112712	-0.434468	-0.108824
H58	H	0.808526	-0.539476	-0.496202
H59	H	1.004172	-0.778141	-0.508259
Br60	Br	0.576355	-0.570891	-0.524996
H61	H	1.186442	-0.778086	-0.326275
Br62	Br	0.987448	-0.570506	-0.877394
H63	H	0.670266	-0.329881	-0.303855
H64	H	1.209092	-0.329810	-1.095991
Br65	Br	1.010302	-1.115954	-0.502313
Br66	Br	1.237921	-0.298609	-0.863833
Br67	Br	0.987413	-0.570566	-0.684160
Br68	Br	1.247109	-1.115905	-0.265857
Br69	Br	1.258181	-0.893819	-0.254711
Br70	Br	0.635972	-0.570867	-0.525002
H71	H	1.209025	-0.329942	-0.694422
Br72	Br	0.967103	-0.974646	-0.545353
H73	H	0.406947	-0.539550	-0.496248
H74	H	0.566146	-0.329915	-0.303866
H75	H	1.016293	-0.539159	-0.957701
H76	H	1.209070	-0.329862	-0.947265
H77	H	1.016334	-0.539123	-1.106427
H78	H	0.818995	-0.329846	-0.303849
Br79	Br	0.396722	-0.298586	-0.275099
