data_functionalizedCrystal
_audit_creation_method	'MofGen! by Chris Wilmer'
_symmetry_space_group_name_H-M	'P1'
_symmetry_Int_Tables_number	1
_symmetry_cell_setting	triclinic
loop_
_symmetry_equiv_pos_as_xyz
  x,y,z
_cell_length_a	27.732048
_cell_length_b	27.732048
_cell_length_c	26.210047
_cell_angle_alpha	90.000479
_cell_angle_beta	89.996535
_cell_angle_gamma	97.357345
loop_
_atom_site_label
_atom_site_type_symbol
_atom_site_fract_x
_atom_site_fract_y
_atom_site_fract_z
O1	O	0.640931	-0.057510	-0.042369
O2	O	0.974264	0.275823	0.290965
O3	O	1.307598	0.609157	0.624298
O4	O	0.500138	-0.066256	-0.042385
O5	O	0.833471	0.267078	0.290948
O6	O	1.166804	0.600411	0.624282
O7	O	0.574907	0.008514	-0.042367
O8	O	0.908240	0.341847	0.290967
O9	O	1.241574	0.675181	0.624300
O10	O	0.566162	-0.132279	-0.042387
O11	O	0.899495	0.201054	0.290946
O12	O	1.232828	0.534387	0.624280
O13	O	0.574893	0.008502	0.042491
O14	O	0.908226	0.341836	0.375825
O15	O	1.241559	0.675169	0.709158
O16	O	0.500123	-0.066267	0.042473
O17	O	0.833457	0.267066	0.375806
O18	O	1.166790	0.600399	0.709140
O19	O	0.640917	-0.057522	0.042489
O20	O	0.974250	0.275812	0.375823
O21	O	1.307583	0.609145	0.709156
Cu22	Cu	0.570519	-0.061896	0.050229
Cu23	Cu	0.903852	0.271438	0.383563
Cu24	Cu	1.237185	0.604771	0.716896
Cu25	Cu	0.570536	-0.061882	-0.050125
Cu26	Cu	0.903869	0.271452	0.283208
Cu27	Cu	1.237202	0.604785	0.616542
O28	O	0.566147	-0.132291	0.042471
O29	O	0.899481	0.201042	0.375804
O30	O	1.232814	0.534375	0.709138
C31	C	0.482124	-0.066078	0.000042
C32	C	0.815457	0.267256	0.333376
C33	C	1.148790	0.600589	0.666709
C34	C	0.428469	-0.065525	0.000036
C35	C	0.761802	0.267808	0.333370
C36	C	1.095135	0.601142	0.666703
C37	C	0.574716	0.026515	0.000064
C38	C	0.908050	0.359848	0.333397
C39	C	1.241383	0.693182	0.666731
C40	C	0.574164	0.080170	0.000068
C41	C	0.907497	0.413503	0.333401
C42	C	1.240830	0.746837	0.666735
C43	C	0.089654	-0.106229	0.000053
C44	C	0.422987	0.227105	0.333386
C45	C	0.756320	0.560438	0.666719
C46	C	-0.112006	-0.104178	0.000057
C47	C	0.221327	0.229156	0.333391
C48	C	0.554661	0.562489	0.666724
O49	O	-0.143262	-0.141398	0.000074
O50	O	0.190072	0.191935	0.333408
O51	O	0.523405	0.525268	0.666741
N52	N	-0.131130	-0.059843	0.000063
N53	N	0.202204	0.273491	0.333396
N54	N	0.535537	0.606824	0.666730
C55	C	-0.099835	-0.016017	0.000071
C56	C	0.233498	0.317316	0.333404
C57	C	0.566832	0.650650	0.666737
O58	O	-0.120728	0.021740	0.000081
O59	O	0.212605	0.355073	0.333414
O60	O	0.545938	0.688407	0.666747
C61	C	0.101824	-0.018068	0.000069
C62	C	0.435157	0.315265	0.333403
C63	C	0.768490	0.648598	0.666736
C64	C	0.120944	-0.062407	0.000059
C65	C	0.454278	0.270927	0.333392
C66	C	0.787611	0.604260	0.666725
C67	C	0.108775	-0.150563	0.000043
C68	C	0.442108	0.182770	0.333376
C69	C	0.775442	0.516103	0.666709
C70	C	0.159187	-0.151076	0.000039
C71	C	0.492520	0.182258	0.333372
C72	C	0.825853	0.515591	0.666705
C73	C	0.190477	-0.107253	0.000045
C74	C	0.523811	0.226080	0.333378
C75	C	0.857144	0.559413	0.666711
C76	C	0.171356	-0.062919	0.000055
C77	C	0.504690	0.270415	0.333388
C78	C	0.838023	0.603748	0.666721
C79	C	0.133117	0.025757	0.000081
C80	C	0.466451	0.359090	0.333414
C81	C	0.799784	0.692423	0.666747
C82	C	0.183535	0.025240	0.000082
C83	C	0.516868	0.358573	0.333415
C84	C	0.850201	0.691906	0.666748
C85	C	0.202655	-0.019098	0.000071
C86	C	0.535989	0.314235	0.333404
C87	C	0.869322	0.647568	0.666738
C88	C	0.253059	-0.019609	0.000057
C89	C	0.586392	0.313724	0.333390
C90	C	0.919725	0.647058	0.666724
N91	N	0.272183	-0.063944	0.000051
N92	N	0.605516	0.269389	0.333385
N93	N	0.938849	0.602723	0.666718
C94	C	0.240892	-0.107766	0.000045
C95	C	0.574225	0.225567	0.333379
C96	C	0.907559	0.558900	0.666712
C97	C	-0.205709	-0.014943	0.000070
C98	C	0.127624	0.318390	0.333404
C99	C	0.460957	0.651724	0.666737
C100	C	-0.256124	-0.014430	0.000070
C101	C	0.077210	0.318903	0.333403
C102	C	0.410543	0.652237	0.666736
C103	C	-0.268291	-0.102591	0.000057
C104	C	0.065042	0.230742	0.333391
C105	C	0.398376	0.564076	0.666724
C106	C	-0.217876	-0.103104	0.000054
C107	C	0.115458	0.230230	0.333388
C108	C	0.448791	0.563563	0.666721
C109	C	-0.186585	-0.059278	0.000065
C110	C	0.146748	0.274055	0.333398
C111	C	0.480081	0.607388	0.666731
C112	C	0.346761	-0.108839	0.000036
C113	C	0.680094	0.224495	0.333370
C114	C	1.013428	0.557828	0.666703
C115	C	0.397178	-0.109347	0.000030
C116	C	0.730511	0.223986	0.333364
C117	C	1.063845	0.557319	0.666697
C118	C	0.409341	-0.021186	0.000045
C119	C	0.742674	0.312147	0.333379
C120	C	1.076008	0.645480	0.666712
C121	C	0.358929	-0.020678	0.000049
C122	C	0.692262	0.312656	0.333382
C123	C	1.025595	0.645989	0.666715
C124	C	0.327639	-0.064508	0.000046
C125	C	0.660973	0.268825	0.333379
C126	C	0.994306	0.602159	0.666713
O127	O	0.284343	0.017592	0.000046
O128	O	0.617676	0.350925	0.333379
O129	O	0.951009	0.684259	0.666713
O130	O	0.261794	-0.145518	0.000047
O131	O	0.595128	0.187816	0.333380
O132	O	0.928461	0.521149	0.666713
C133	C	0.039242	-0.105716	0.000057
C134	C	0.372575	0.227617	0.333390
C135	C	0.705908	0.560950	0.666723
C136	C	0.020120	-0.061382	0.000067
C137	C	0.353454	0.271951	0.333400
C138	C	0.686787	0.605285	0.666733
C139	C	0.051411	-0.017560	0.000073
C140	C	0.384744	0.315774	0.333406
C141	C	0.718078	0.649107	0.666740
C142	C	-0.030294	-0.060869	0.000066
C143	C	0.303039	0.272464	0.333399
C144	C	0.636373	0.605798	0.666733
C145	C	-0.061585	-0.104691	0.000060
C146	C	0.271749	0.228642	0.333393
C147	C	0.605082	0.561975	0.666727
C148	C	-0.042461	-0.149026	0.000054
C149	C	0.290872	0.184307	0.333388
C150	C	0.624206	0.517640	0.666721
C151	C	0.007951	-0.149539	0.000050
C152	C	0.341284	0.183795	0.333384
C153	C	0.674618	0.517128	0.666717
C154	C	0.032287	0.026775	0.000078
C155	C	0.365621	0.360109	0.333412
C156	C	0.698954	0.693442	0.666745
C157	C	-0.018125	0.027284	0.000082
C158	C	0.315208	0.360617	0.333415
C159	C	0.648541	0.693951	0.666749
C160	C	-0.049416	-0.016538	0.000076
C161	C	0.283917	0.316795	0.333409
C162	C	0.617251	0.650129	0.666742
C163	C	0.658931	-0.057699	0.000061
C164	C	0.992264	0.275634	0.333394
C165	C	1.325598	0.608967	0.666728
C166	C	0.712586	-0.058252	0.000064
C167	C	1.045919	0.275081	0.333397
C168	C	1.379252	0.608414	0.666730
C169	C	0.566338	-0.150292	0.000040
C170	C	0.899671	0.183041	0.333373
C171	C	1.233005	0.516374	0.666706
C172	C	0.566891	-0.203947	0.000032
C173	C	0.900224	0.129386	0.333365
C174	C	1.233557	0.462720	0.666699
N175	N	0.570510	-0.061905	0.120813
N176	N	0.903844	0.271428	0.454147
N177	N	1.237177	0.604762	0.787480
C178	C	0.614867	0.418985	0.000046
C179	C	0.948201	0.752318	0.333380
C180	C	1.281534	1.085652	0.666713
C181	C	0.612816	0.620645	0.000039
C182	C	0.946150	0.953978	0.333372
C183	C	1.279483	1.287311	0.666706
O184	O	0.650037	0.651900	0.000021
O185	O	0.983370	0.985234	0.333354
O186	O	1.316704	1.318567	0.666688
N187	N	0.568481	0.639768	0.000034
N188	N	0.901814	0.973102	0.333368
N189	N	1.235148	1.306435	0.666701
C190	C	0.524656	0.608474	0.000028
C191	C	0.857989	0.941807	0.333362
C192	C	1.191322	1.275140	0.666695
O193	O	0.486899	0.629367	0.000019
O194	O	0.820232	0.962700	0.333352
O195	O	1.153565	1.296033	0.666686
C196	C	0.526707	0.406815	0.000032
C197	C	0.860040	0.740148	0.333365
C198	C	1.193374	1.073482	0.666699
C199	C	0.571045	0.387694	0.000042
C200	C	0.904378	0.721028	0.333375
C201	C	1.237712	1.054361	0.666709
C202	C	0.659202	0.399864	0.000056
C203	C	0.992535	0.733197	0.333389
C204	C	1.325868	1.066530	0.666722
C205	C	0.659714	0.349452	0.000060
C206	C	0.993047	0.682785	0.333394
C207	C	1.326381	1.016118	0.666727
C208	C	0.615892	0.318161	0.000056
C209	C	0.949225	0.651494	0.333389
C210	C	1.282559	0.984828	0.666722
C211	C	0.571557	0.337282	0.000046
C212	C	0.904891	0.670616	0.333380
C213	C	1.238224	1.003949	0.666713
C214	C	0.482882	0.375521	0.000022
C215	C	0.816215	0.708855	0.333356
C216	C	1.149549	1.042188	0.666689
C217	C	0.483399	0.325104	0.000022
C218	C	0.816732	0.658437	0.333355
C219	C	1.150066	0.991771	0.666689
C220	C	0.527737	0.305983	0.000032
C221	C	0.861070	0.639317	0.333365
C222	C	1.194404	0.972650	0.666698
C223	C	0.528247	0.255580	0.000046
C224	C	0.861581	0.588913	0.333380
C225	C	1.194914	0.922246	0.666713
N226	N	0.572583	0.236456	0.000051
N227	N	0.905916	0.569789	0.333384
N228	N	1.239249	0.903123	0.666718
C229	C	0.616405	0.267747	0.000056
C230	C	0.949738	0.601080	0.333389
C231	C	1.283072	0.934413	0.666722
C232	C	0.523582	0.714348	0.000027
C233	C	0.856915	1.047681	0.333361
C234	C	1.190248	1.381014	0.666694
C235	C	0.523069	0.764762	0.000027
C236	C	0.856402	1.098096	0.333361
C237	C	1.189735	1.431429	0.666694
C238	C	0.611230	0.776930	0.000037
C239	C	0.944563	1.110263	0.333371
C240	C	1.277896	1.443596	0.666704
C241	C	0.611742	0.726514	0.000041
C242	C	0.945075	1.059848	0.333374
C243	C	1.278409	1.393181	0.666708
C244	C	0.567917	0.695224	0.000032
C245	C	0.901250	1.028557	0.333365
C246	C	1.234583	1.361891	0.666699
C247	C	0.617477	0.161878	0.000066
C248	C	0.950811	0.495211	0.333399
C249	C	1.284144	0.828544	0.666733
C250	C	0.617986	0.111461	0.000073
C251	C	0.951319	0.444794	0.333406
C252	C	1.284652	0.778127	0.666739
C253	C	0.529825	0.099298	0.000060
C254	C	0.863158	0.432631	0.333393
C255	C	1.196492	0.765964	0.666727
C256	C	0.529316	0.149710	0.000056
C257	C	0.862650	0.483043	0.333389
C258	C	1.195983	0.816377	0.666723
C259	C	0.573147	0.180999	0.000057
C260	C	0.906480	0.514333	0.333391
C261	C	1.239813	0.847666	0.666724
O262	O	0.491047	0.224296	0.000059
O263	O	0.824380	0.557629	0.333392
O264	O	1.157713	0.890962	0.666725
O265	O	0.654156	0.246844	0.000054
O266	O	0.987490	0.580177	0.333387
O267	O	1.320823	0.913511	0.666720
C268	C	0.614355	0.469397	0.000042
C269	C	0.947688	0.802730	0.333375
C270	C	1.281022	1.136064	0.666709
C271	C	0.570021	0.488518	0.000033
C272	C	0.903354	0.821852	0.333366
C273	C	1.236687	1.155185	0.666699
C274	C	0.526198	0.457228	0.000028
C275	C	0.859532	0.790561	0.333361
C276	C	1.192865	1.123894	0.666695
C277	C	0.569508	0.538933	0.000033
C278	C	0.902841	0.872266	0.333366
C279	C	1.236174	1.205599	0.666699
C280	C	0.613330	0.570223	0.000037
C281	C	0.946663	0.903557	0.333371
C282	C	1.279996	1.236890	0.666704
C283	C	0.657665	0.551100	0.000042
C284	C	0.990998	0.884433	0.333375
C285	C	1.324332	1.217766	0.666709
C286	C	0.658177	0.500688	0.000046
C287	C	0.991511	0.834021	0.333380
C288	C	1.324844	1.167354	0.666713
C289	C	0.481863	0.476351	0.000023
C290	C	0.815197	0.809685	0.333357
C291	C	1.148530	1.143018	0.666690
C292	C	0.481355	0.526764	0.000019
C293	C	0.814688	0.860097	0.333353
C294	C	1.148021	1.193430	0.666686
C295	C	0.525177	0.558054	0.000024
C296	C	0.858510	0.891388	0.333357
C297	C	1.191843	1.224721	0.666691
N298	N	0.570548	-0.061868	-0.120709
N299	N	0.903881	0.271465	0.212624
N300	N	1.237215	0.604798	0.545958
C301	C	0.603640	-0.028781	0.473336
C302	C	0.936974	0.304552	0.806669
C303	C	1.270307	0.637885	1.140002
C304	C	0.603651	-0.028774	0.686994
C305	C	0.936984	0.304559	1.020327
C306	C	1.270318	0.637892	1.353661
O307	O	0.631801	-0.000614	0.714623
O308	O	0.965134	0.332720	1.047956
O309	O	1.298467	0.666053	1.381290
N310	N	0.570538	-0.061871	0.713707
N311	N	0.903872	0.271462	1.047041
N312	N	1.237205	0.604796	1.380374
C313	C	0.537419	-0.094970	0.687003
C314	C	0.870752	0.238364	1.020336
C315	C	1.204085	0.571697	1.353669
O316	O	0.509251	-0.123117	0.714626
O317	O	0.842585	0.210216	1.047960
O318	O	1.175918	0.543550	1.381293
C319	C	0.537406	-0.094974	0.473345
C320	C	0.870739	0.238360	0.806678
C321	C	1.204073	0.571693	1.140012
C322	C	0.570524	-0.061878	0.446635
C323	C	0.903857	0.271455	0.779968
C324	C	1.237191	0.604788	1.113301
C325	C	0.636755	0.004312	0.446625
C326	C	0.970088	0.337645	0.779958
C327	C	1.303422	0.670979	1.113292
C328	C	0.636754	0.004308	0.393214
C329	C	0.970087	0.337642	0.726547
C330	C	1.303421	0.670975	1.059880
C331	C	0.603638	-0.028789	0.366513
C332	C	0.936971	0.304545	0.699846
C333	C	1.270304	0.637878	1.033179
C334	C	0.570523	-0.061882	0.393223
C335	C	0.903856	0.271451	0.726556
C336	C	1.237189	0.604785	1.059890
C337	C	0.504284	-0.128070	0.446641
C338	C	0.837618	0.205264	0.779975
C339	C	1.170951	0.538597	1.113308
C340	C	0.504283	-0.128067	0.393223
C341	C	0.837617	0.205266	0.726557
C342	C	1.170950	0.538600	1.059890
C343	C	0.537401	-0.094971	0.366513
C344	C	0.870735	0.238362	0.699846
C345	C	1.204068	0.571695	1.033180
C346	C	0.537405	-0.094983	0.313111
C347	C	0.870739	0.238351	0.646444
C348	C	1.204072	0.571684	0.979777
N349	N	0.570518	-0.061886	0.286397
N350	N	0.903851	0.271447	0.619731
N351	N	1.237185	0.604781	0.953064
C352	C	0.603634	-0.028789	0.313098
C353	C	0.936967	0.304544	0.646432
C354	C	1.270301	0.637878	0.979765
C355	C	0.537428	-0.094966	0.799176
C356	C	0.870762	0.238368	1.132509
C357	C	1.204095	0.571701	1.465843
C358	C	0.537432	-0.094965	0.852590
C359	C	0.870765	0.238368	1.185923
C360	C	1.204099	0.571701	1.519257
C361	C	0.603664	-0.028769	0.852578
C362	C	0.936997	0.304564	1.185911
C363	C	1.270330	0.637897	1.519245
C364	C	0.603662	-0.028773	0.799163
C365	C	0.936995	0.304561	1.132496
C366	C	1.270329	0.637894	1.465829
C367	C	0.570541	-0.061869	0.772463
C368	C	0.903874	0.271464	1.105796
C369	C	1.237207	0.604798	1.439129
C370	C	0.603629	-0.028800	0.200931
C371	C	0.936963	0.304533	0.534264
C372	C	1.270296	0.637867	0.867597
C373	C	0.603626	-0.028808	0.147514
C374	C	0.936960	0.304525	0.480848
C375	C	1.270293	0.637859	0.814181
C376	C	0.537393	-0.095002	0.147531
C377	C	0.870726	0.238331	0.480865
C378	C	1.204060	0.571665	0.814198
C379	C	0.537397	-0.094996	0.200943
C380	C	0.870731	0.238338	0.534276
C381	C	1.204064	0.571671	0.867609
C382	C	0.570517	-0.061891	0.227641
C383	C	0.903851	0.271443	0.560974
C384	C	1.237184	0.604776	0.894308
O385	O	0.509267	-0.123125	0.285449
O386	O	0.842600	0.210208	0.618782
O387	O	1.175933	0.543542	0.952116
O388	O	0.631790	-0.000639	0.285466
O389	O	0.965123	0.332694	0.618799
O390	O	1.298457	0.666028	0.952132
C391	C	0.603641	-0.028777	0.526747
C392	C	0.936975	0.304556	0.860080
C393	C	1.270308	0.637889	1.193414
C394	C	0.570527	-0.061871	0.553457
C395	C	0.903860	0.271463	0.886791
C396	C	1.237193	0.604796	1.220124
C397	C	0.537410	-0.094968	0.526756
C398	C	0.870744	0.238366	0.860090
C399	C	1.204077	0.571699	1.193423
C400	C	0.570530	-0.061870	0.606872
C401	C	0.903864	0.271463	0.940205
C402	C	1.237197	0.604796	1.273538
C403	C	0.603646	-0.028773	0.633573
C404	C	0.936980	0.304560	0.966906
C405	C	1.270313	0.637893	1.300239
C406	C	0.636759	0.004323	0.606859
C407	C	0.970092	0.337657	0.940193
C408	C	1.303426	0.670990	1.273526
C409	C	0.636758	0.004320	0.553448
C410	C	0.970091	0.337653	0.886781
C411	C	1.303424	0.670986	1.220115
C412	C	0.504298	-0.128064	0.553470
C413	C	0.837631	0.205269	0.886803
C414	C	1.170965	0.538602	1.220136
C415	C	0.504302	-0.128058	0.606881
C416	C	0.837635	0.205275	0.940214
C417	C	1.170969	0.538609	1.273548
C418	C	0.537418	-0.094961	0.633582
C419	C	0.870752	0.238372	0.966915
C420	C	1.204085	0.571706	1.300249
H421	H	0.412743	-0.145454	0.000021
H422	H	0.746076	0.187879	0.333355
H423	H	1.079410	0.521213	0.666688
C424	C	-0.277151	0.034342	0.000076
C425	C	0.056182	0.367675	0.333410
C426	C	0.389516	0.701008	0.666743
H427	H	-0.251291	0.060365	0.000085
H428	H	0.082042	0.393698	0.333419
H429	H	0.415376	0.727031	0.666752
H430	H	-0.296563	0.036383	-0.029514
H431	H	0.036770	0.369716	0.303819
H432	H	0.370104	0.703049	0.637153
H433	H	-0.296565	0.036371	0.029673
H434	H	0.036768	0.369704	0.363007
H435	H	0.370102	0.703037	0.696340
C436	C	0.500967	-0.131406	0.118156
C437	C	0.834300	0.201927	0.451489
C438	C	1.167634	0.535260	0.784822
H439	H	0.481245	-0.151120	0.141711
H440	H	0.814578	0.182213	0.475044
H441	H	1.147911	0.515547	0.808377
H442	H	0.480980	-0.114153	0.097320
H443	H	0.814313	0.219180	0.430653
H444	H	1.147646	0.552514	0.763987
H445	H	0.518206	-0.151411	0.097318
H446	H	0.851539	0.181922	0.430651
H447	H	1.184872	0.515255	0.763985
C448	C	0.432579	0.547791	0.000007
C449	C	0.765913	0.881124	0.333340
C450	C	1.099246	1.214457	0.666674
H451	H	0.406556	0.521931	-0.000001
H452	H	0.739890	0.855264	0.333333
H453	H	1.073223	1.188597	0.666666
H454	H	0.430535	0.567208	0.029594
H455	H	0.763868	0.900541	0.362928
H456	H	1.097201	1.233875	0.696261
H457	H	0.430554	0.567199	-0.029593
H458	H	0.763888	0.900533	0.303740
H459	H	1.097221	1.233866	0.637074
H460	H	0.486964	0.780325	0.000028
H461	H	0.820297	1.113659	0.333362
H462	H	1.153631	1.446992	0.666695
H463	H	0.663725	0.031269	0.531704
H464	H	0.997059	0.364602	0.865038
H465	H	1.330392	0.697936	1.198371
C466	C	0.640087	0.007640	0.881955
C467	C	0.973420	0.340974	1.215289
C468	C	1.306753	0.674307	1.548622
H469	H	0.635340	0.002900	0.917592
H470	H	0.968673	0.336234	1.250925
H471	H	1.302006	0.669567	1.584258
H472	H	0.672309	0.002621	0.873202
H473	H	1.005643	0.335954	1.206536
H474	H	1.338976	0.669287	1.539869
H475	H	0.635071	0.039866	0.873203
H476	H	0.968404	0.373199	1.206537
H477	H	1.301737	0.706533	1.539870
H478	H	0.693347	0.576585	0.000048
H479	H	1.026680	0.909919	0.333381
H480	H	1.360013	1.243252	0.666715
H481	H	0.477317	-0.155019	0.468381
H482	H	0.810650	0.178315	0.801715
H483	H	1.143983	0.511648	1.135048
C484	C	-0.171296	0.033268	0.000076
C485	C	0.162038	0.366601	0.333409
C486	C	0.495371	0.699935	0.666743
H487	H	-0.189910	0.059742	0.000074
H488	H	0.143423	0.393075	0.333407
H489	H	0.476757	0.726409	0.666741
H490	H	-0.151377	0.034903	0.029667
H491	H	0.181957	0.368236	0.363001
H492	H	0.515290	0.701570	0.696334
H493	H	-0.151375	0.034905	-0.029520
H494	H	0.181958	0.368238	0.303813
H495	H	0.515291	0.701572	0.637146
C496	C	-0.302717	-0.150794	0.000054
C497	C	0.030617	0.182539	0.333388
C498	C	0.363950	0.515872	0.666721
H499	H	-0.335479	-0.144135	0.000060
H500	H	-0.002146	0.189199	0.333393
H501	H	0.331188	0.522532	0.666726
H502	H	-0.296957	-0.168992	-0.029537
H503	H	0.036376	0.164341	0.303796
H504	H	0.369709	0.497675	0.637129
H505	H	-0.296958	-0.168990	0.029650
H506	H	0.036375	0.164344	0.362984
H507	H	0.369708	0.497677	0.696317
C508	C	0.660513	0.705486	0.000047
C509	C	0.993847	1.038819	0.333380
C510	C	1.327180	1.372152	0.666714
H511	H	0.686536	0.731346	0.000047
H512	H	1.019870	1.064679	0.333380
H513	H	1.353203	1.398013	0.666714
H514	H	0.662544	0.686070	0.029638
H515	H	0.995877	1.019404	0.362971
H516	H	1.329210	1.352737	0.696304
H517	H	0.662553	0.686075	-0.029550
H518	H	0.995886	1.019409	0.303783
H519	H	1.329219	1.352742	0.637117
H520	H	0.117558	0.061861	0.000090
H521	H	0.450892	0.395195	0.333423
H522	H	0.784225	0.728528	0.666757
H523	H	0.446177	0.450879	0.000018
H524	H	0.779510	0.784212	0.333352
H525	H	1.112844	1.117545	0.666685
H526	H	0.663725	0.031271	0.628608
H527	H	0.997059	0.364604	0.961941
H528	H	1.330392	0.697937	1.295275
C529	C	0.337894	0.028092	0.000055
C530	C	0.671228	0.361426	0.333388
C531	C	1.004561	0.694759	0.666722
H532	H	0.363752	0.054117	0.000059
H533	H	0.697086	0.387451	0.333393
H534	H	1.030419	0.720784	0.666726
H535	H	0.318478	0.030130	-0.029533
H536	H	0.651812	0.363463	0.303800
H537	H	0.985145	0.696797	0.637134
H538	H	0.318484	0.030121	0.029654
H539	H	0.651817	0.363454	0.362988
H540	H	0.985150	0.696788	0.696321
C541	C	0.480546	0.170744	0.000044
C542	C	0.813880	0.504078	0.333377
C543	C	1.147213	0.837411	0.666711
H544	H	0.454521	0.144886	0.000039
H545	H	0.787854	0.478219	0.333372
H546	H	1.121188	0.811553	0.666705
H547	H	0.478504	0.190164	0.029630
H548	H	0.811837	0.523497	0.362963
H549	H	1.145170	0.856831	0.696297
H550	H	0.478523	0.190151	-0.029558
H551	H	0.811856	0.523484	0.303776
H552	H	1.145189	0.856818	0.637109
H553	H	0.646911	0.802415	0.000041
H554	H	0.980245	1.135749	0.333375
H555	H	1.313578	1.469082	0.666708
C556	C	0.443767	0.027014	0.000056
C557	C	0.777100	0.360347	0.333389
C558	C	1.110433	0.693681	0.666723
H559	H	0.476529	0.020355	0.000059
H560	H	0.809862	0.353688	0.333392
H561	H	1.143196	0.687022	0.666725
H562	H	0.438011	0.045220	-0.029530
H563	H	0.771344	0.378553	0.303803
H564	H	1.104678	0.711887	0.637137
H565	H	0.438004	0.045201	0.029658
H566	H	0.771337	0.378534	0.362991
H567	H	1.104670	0.711868	0.696324
C568	C	0.475371	0.679934	0.000025
C569	C	0.808704	1.013268	0.333358
C570	C	1.142037	1.346601	0.666691
H571	H	0.448897	0.698549	0.000028
H572	H	0.782230	1.031882	0.333361
H573	H	1.115563	1.365215	0.666694
H574	H	0.473736	0.660012	-0.029566
H575	H	0.807069	0.993346	0.303768
H576	H	1.140403	1.326679	0.637101
H577	H	0.473733	0.660017	0.029622
H578	H	0.807067	0.993350	0.362955
H579	H	1.140400	1.326683	0.696288
C580	C	0.217951	0.073449	0.000087
C581	C	0.551284	0.406782	0.333421
C582	C	0.884618	0.740116	0.666754
H583	H	0.199339	0.099925	0.000089
H584	H	0.532673	0.433258	0.333422
H585	H	0.866006	0.766592	0.666756
H586	H	0.237872	0.075080	0.029677
H587	H	0.571206	0.408414	0.363010
H588	H	0.904539	0.741747	0.696343
H589	H	0.237869	0.075086	-0.029511
H590	H	0.571202	0.408419	0.303823
H591	H	0.904535	0.741752	0.637156
H592	H	0.174750	-0.187180	0.000030
H593	H	0.508083	0.146153	0.333363
H594	H	0.841417	0.479487	0.666696
H595	H	0.630629	-0.001823	0.777418
H596	H	0.963962	0.331510	1.110752
H597	H	1.297296	0.664844	1.444085
C598	C	0.312350	-0.157051	0.000027
C599	C	0.645683	0.176283	0.333360
C600	C	0.979017	0.509616	0.666693
H601	H	0.330965	-0.183525	0.000015
H602	H	0.664298	0.149809	0.333348
H603	H	0.997631	0.483142	0.666681
H604	H	0.292427	-0.158696	0.029617
H605	H	0.625760	0.174638	0.362951
H606	H	0.959093	0.507971	0.696284
H607	H	0.292434	-0.158678	-0.029570
H608	H	0.625768	0.174655	0.303763
H609	H	0.959101	0.507989	0.637097
H610	H	0.023514	-0.185643	0.000042
H611	H	0.356847	0.147690	0.333376
H612	H	0.690181	0.481023	0.666709
C613	C	0.640055	0.007601	0.118136
C614	C	0.973389	0.340934	0.451469
C615	C	1.306722	0.674267	0.784802
H616	H	0.659774	0.027315	0.141691
H617	H	0.993107	0.360649	0.475025
H618	H	1.326441	0.693982	0.808358
H619	H	0.660047	-0.009649	0.097297
H620	H	0.993380	0.323685	0.430631
H621	H	1.326713	0.657018	0.763964
H622	H	0.622815	0.027605	0.097301
H623	H	0.956149	0.360938	0.430634
H624	H	1.289482	0.694271	0.763967
H625	H	0.446777	0.391080	0.000011
H626	H	0.780111	0.724414	0.333345
H627	H	1.113444	1.057747	0.666678
C628	C	0.707411	0.434276	0.000065
C629	C	1.040744	0.767610	0.333398
C630	C	1.374077	1.100943	0.666732
H631	H	0.733884	0.415661	0.000074
H632	H	1.067217	0.748994	0.333408
H633	H	1.400550	1.082327	0.666741
H634	H	0.709057	0.454200	-0.029525
H635	H	1.042390	0.787533	0.303809
H636	H	1.375723	1.120867	0.637142
H637	H	0.709038	0.454192	0.029663
H638	H	1.042372	0.787526	0.362996
H639	H	1.375705	1.120859	0.696330
H640	H	0.447710	0.299629	0.000014
H641	H	0.781043	0.632963	0.333347
H642	H	1.114377	0.966296	0.666681
H643	H	0.630598	-0.001842	0.222662
H644	H	0.963931	0.331491	0.555996
H645	H	1.297265	0.664825	0.889329
H646	H	0.663720	0.031259	0.371469
H647	H	0.997053	0.364592	0.704802
H648	H	1.330387	0.697925	1.038136
H649	H	-0.067947	-0.184708	0.000047
H650	H	0.265386	0.148625	0.333381
H651	H	0.598720	0.481959	0.666714
C652	C	0.467868	-0.164464	0.636257
C653	C	0.801201	0.168870	0.969590
C654	C	1.134534	0.502203	1.302923
H655	H	0.448143	-0.184170	0.612700
H656	H	0.781476	0.149163	0.946033
H657	H	1.114810	0.482497	1.279367
H658	H	0.485096	-0.184469	0.657097
H659	H	0.818430	0.148864	0.990430
H660	H	1.151763	0.482197	1.323764
H661	H	0.447877	-0.147205	0.657090
H662	H	0.781210	0.186129	0.990423
H663	H	1.114543	0.519462	1.323756
C664	C	-0.039152	0.076059	0.000095
C665	C	0.294181	0.409393	0.333428
C666	C	0.627515	0.742726	0.666761
H667	H	-0.013292	0.102082	0.000103
H668	H	0.320041	0.435416	0.333436
H669	H	0.653375	0.768749	0.666770
H670	H	-0.058567	0.078103	-0.029493
H671	H	0.274766	0.411436	0.303840
H672	H	0.608099	0.744770	0.637174
H673	H	-0.058563	0.078086	0.029695
H674	H	0.274770	0.411419	0.363028
H675	H	0.608104	0.744752	0.696361
H676	H	0.494146	0.073812	0.000058
H677	H	0.827480	0.407145	0.333391
H678	H	1.160813	0.740478	0.666725
H679	H	0.510469	-0.121920	0.874334
H680	H	0.843803	0.211413	1.207667
H681	H	1.177136	0.544747	1.541001
C682	C	0.673189	0.040719	0.475988
C683	C	1.006522	0.374053	0.809321
C684	C	1.339855	0.707386	1.142655
H685	H	0.692909	0.060423	0.452423
H686	H	1.026243	0.393756	0.785756
H687	H	1.359576	0.727089	1.119090
H688	H	0.655962	0.060727	0.496830
H689	H	0.989295	0.394061	0.830163
H690	H	1.322628	0.727394	1.163496
H691	H	0.693184	0.023465	0.496819
H692	H	1.026517	0.356799	0.830152
H693	H	1.359851	0.690132	1.163485
H694	H	0.057760	0.062462	0.000085
H695	H	0.391093	0.395795	0.333418
H696	H	0.724427	0.729128	0.666751
H697	H	0.477330	-0.155015	0.531734
H698	H	0.810663	0.178318	0.865067
H699	H	1.143997	0.511651	1.198400
C700	C	0.500997	-0.131378	0.769812
C701	C	0.834330	0.201955	1.103146
C702	C	1.167663	0.535288	1.436479
H703	H	0.481283	-0.151090	0.793376
H704	H	0.814616	0.182243	1.126709
H705	H	1.147950	0.515577	1.460043
H706	H	0.481001	-0.114134	0.748977
H707	H	0.814334	0.219199	1.082310
H708	H	1.147668	0.552533	1.415644
H709	H	0.518235	-0.151385	0.748975
H710	H	0.851568	0.181949	1.082309
H711	H	1.184901	0.515282	1.415642
C712	C	0.467852	-0.164477	0.363856
C713	C	0.801185	0.168857	0.697190
C714	C	1.134518	0.502190	1.030523
H715	H	0.448133	-0.184187	0.387417
H716	H	0.781467	0.149146	0.720751
H717	H	1.114800	0.482480	1.054084
H718	H	0.447860	-0.147229	0.343019
H719	H	0.781194	0.186104	0.676352
H720	H	1.114527	0.519438	1.009686
H721	H	0.485089	-0.184484	0.343021
H722	H	0.818423	0.148849	0.676354
H723	H	1.151756	0.482182	1.009688
H724	H	0.695819	0.333889	0.000066
H725	H	1.029152	0.667222	0.333400
H726	H	1.362485	1.000555	0.666733
C727	C	0.666759	0.090431	0.000080
C728	C	1.000093	0.423764	0.333414
C729	C	1.333426	0.757097	0.666747
H730	H	0.692784	0.116290	0.000077
H731	H	1.026117	0.449623	0.333410
H732	H	1.359450	0.782956	0.666744
H733	H	0.668790	0.071018	0.029673
H734	H	1.002123	0.404352	0.363007
H735	H	1.335456	0.737685	0.696340
H736	H	0.668797	0.071017	-0.029514
H737	H	1.002130	0.404350	0.303819
H738	H	1.335463	0.737683	0.637153
C739	C	0.500951	-0.131381	0.230325
C740	C	0.834284	0.201952	0.563659
C741	C	1.167617	0.535285	0.896992
H742	H	0.481221	-0.151086	0.206771
H743	H	0.814554	0.182248	0.540104
H744	H	1.147887	0.515581	0.873438
H745	H	0.518163	-0.151391	0.251178
H746	H	0.851497	0.181942	0.584511
H747	H	1.184830	0.515275	0.917844
H748	H	0.480967	-0.114103	0.251146
H749	H	0.814300	0.219230	0.584480
H750	H	1.147634	0.552563	0.917813
H751	H	0.083302	-0.186251	0.000039
H752	H	0.416636	0.147083	0.333373
H753	H	0.749969	0.480416	0.666706
H754	H	-0.202311	-0.139207	0.000049
H755	H	0.131022	0.194126	0.333382
H756	H	0.464355	0.527459	0.666715
H757	H	0.653168	0.187348	0.000065
H758	H	0.986501	0.520681	0.333398
H759	H	1.319835	0.854015	0.666731
H760	H	0.694282	0.485125	0.000054
H761	H	1.027615	0.818458	0.333388
H762	H	1.360949	1.151791	0.666721
