data_functionalizedCrystal
_audit_creation_method	'MofGen! by Chris Wilmer'
_symmetry_space_group_name_H-M	'P1'
_symmetry_Int_Tables_number	1
_symmetry_cell_setting	triclinic
loop_
_symmetry_equiv_pos_as_xyz
  x,y,z
_cell_length_a	18.050591
_cell_length_b	19.120786
_cell_length_c	18.050582
_cell_angle_alpha	87.534997
_cell_angle_beta	89.979078
_cell_angle_gamma	92.460873
loop_
_atom_site_label
_atom_site_type_symbol
_atom_site_fract_x
_atom_site_fract_y
_atom_site_fract_z
Zn1	Zn	1.122689	-0.279748	-0.407398
Zn2	Zn	1.117309	-0.397198	-0.277904
Zn3	Zn	0.998508	-0.279751	-0.283209
Zn4	Zn	0.993167	-0.397160	-0.402042
O5	O	1.057918	-0.338464	-0.342638
O6	O	1.225899	-0.295342	-0.390242
O7	O	1.101533	-0.381635	-0.174683
O8	O	1.019469	-0.181461	-0.304145
O9	O	1.221946	-0.381632	-0.295104
O10	O	1.110704	-0.181458	-0.395386
O11	O	1.014251	-0.295347	-0.178580
O12	O	0.893876	-0.295311	-0.298951
O13	O	1.010365	-0.381569	-0.506677
O14	O	0.889951	-0.381571	-0.386256
O15	O	1.105524	-0.295306	-0.510613
O16	O	1.096354	-0.495482	-0.289909
O17	O	1.005147	-0.495455	-0.381112
C18	C	0.864967	-0.338438	-0.342598
C19	C	0.782421	-0.338444	-0.342598
C20	C	0.585086	-0.291481	-0.295238
C21	C	0.532780	-0.355544	-0.274069
C22	C	0.631290	-0.338465	-0.342631
C23	C	0.536513	-0.274424	-0.363797
C24	C	0.485304	-0.338480	-0.342661
C25	C	0.580070	-0.402562	-0.321425
C26	C	0.583809	-0.321399	-0.411186
C27	C	0.531524	-0.385506	-0.390041
C28	C	0.715389	-0.338455	-0.342612
C29	C	0.401207	-0.338497	-0.342680
C30	C	1.049607	-0.520954	-0.334370
C31	C	1.046119	-0.599024	-0.330858
C32	C	1.091947	-0.635640	-0.376751
C33	C	1.088667	-0.708995	-0.373452
C34	C	1.039563	-0.745733	-0.324256
C35	C	0.993730	-0.709112	-0.278361
C36	C	0.997007	-0.635758	-0.281664
C37	C	1.027291	-0.967217	-0.311907
C38	C	1.024019	-1.040576	-0.308606
C39	C	1.118955	-1.040454	-0.403698
C40	C	1.122231	-0.967099	-0.406994
C41	C	1.076395	-0.930484	-0.361102
C42	C	1.036210	-0.820713	-0.320881
C43	C	1.079744	-0.855505	-0.364481
C44	C	1.251623	-0.338491	-0.342679
C45	C	1.334168	-0.338502	-0.342696
C46	C	1.057949	-0.338433	-0.536345
C47	C	1.057962	-0.338420	-0.618892
C48	C	1.066282	-0.155262	-0.350955
C49	C	1.069846	-0.077191	-0.354499
C50	C	1.006255	-0.385265	-0.816205
C51	C	1.073236	-0.402439	-0.864828
C52	C	1.058001	-0.338366	-0.770025
C53	C	0.991057	-0.321173	-0.868484
C54	C	1.058032	-0.338316	-0.916012
C55	C	1.125016	-0.355573	-0.817559
C56	C	1.042793	-0.274278	-0.821212
C57	C	1.109822	-0.291427	-0.869814
C58	C	1.057981	-0.338397	-0.685925
C59	C	1.058059	-0.338285	-1.000110
C60	C	1.057933	-0.338444	-0.149687
C61	C	1.058073	-0.338260	-0.067150
H62	H	0.517245	-0.220266	-0.381661
H63	H	0.984029	-1.070485	-0.268544
H64	H	0.934431	-0.306652	-0.890828
H65	H	0.606217	-0.306933	-0.469133
H66	H	1.029890	-0.220116	-0.801941
H67	H	0.953745	-0.739029	-0.238308
H68	H	0.608531	-0.251791	-0.255112
H69	H	0.962532	-0.424978	-0.792735
H70	H	0.599207	-0.456743	-0.303471
H71	H	1.162215	-0.937188	-0.447053
H72	H	0.959689	-0.605946	-0.244294
H73	H	1.131936	-0.605733	-0.416808
H74	H	0.989971	-0.937411	-0.274539
H75	H	0.510391	-0.369990	-0.216106
H76	H	1.086118	-0.456616	-0.884082
H77	H	1.181657	-0.370156	-0.795304
H78	H	0.508210	-0.425291	-0.430130
H79	H	1.119722	-0.825591	-0.404539
H80	H	1.153644	-0.251744	-0.893146
H81	H	1.156270	-1.070273	-0.441062
H82	H	1.125990	-0.738805	-0.410817
H83	H	0.996232	-0.850634	-0.280823
