data_functionalizedCrystal
_audit_creation_method	'MofGen! by Chris Wilmer'
_symmetry_space_group_name_H-M	'P1'
_symmetry_Int_Tables_number	1
_symmetry_cell_setting	triclinic
loop_
_symmetry_equiv_pos_as_xyz
  x,y,z
_cell_length_a	10.654562
_cell_length_b	15.944493
_cell_length_c	9.130313
_cell_angle_alpha	90.004626
_cell_angle_beta	89.996930
_cell_angle_gamma	83.982574
loop_
_atom_site_label
_atom_site_type_symbol
_atom_site_fract_x
_atom_site_fract_y
_atom_site_fract_z
O1	O	1.666261	0.118026	-0.121875
O2	O	1.300636	0.129256	-0.121854
O3	O	1.493471	0.001421	-0.121877
O4	O	1.473426	0.245861	-0.121852
O5	O	1.493468	0.001425	0.121722
O6	O	1.300633	0.129259	0.121744
O7	O	1.666259	0.118030	0.121724
Cu8	Cu	1.483446	0.123645	0.143977
Cu9	Cu	1.483449	0.123641	-0.144107
O10	O	1.473424	0.245864	0.121747
C11	C	1.253848	0.128431	-0.000053
C12	C	1.114438	0.125957	-0.000046
C13	C	1.048921	0.124805	0.132728
C14	C	0.917930	0.122488	0.132703
C15	C	0.917983	0.122478	-0.132881
C16	C	1.048973	0.124789	-0.132855
C17	C	1.114387	0.125973	0.265537
C18	C	1.048870	0.124822	0.398322
C19	C	0.917878	0.122505	0.398298
C20	C	0.852403	0.121338	0.265488
C21	C	1.492650	-0.029877	-0.000084
C22	C	1.490194	-0.123140	-0.000102
C23	C	1.603701	-0.358239	-0.000081
C24	C	1.542492	-0.409165	-0.120184
C25	C	1.485643	-0.293887	-0.000084
C26	C	1.542462	-0.409138	0.119986
C27	C	1.481256	-0.458822	-0.000060
C28	C	1.424466	-0.343585	-0.120286
C29	C	1.424453	-0.343554	0.119991
C30	C	1.363158	-0.394447	-0.000141
C31	C	1.488174	-0.198872	-0.000099
C32	C	1.478715	-0.553834	-0.000056
C33	C	1.713047	0.118855	-0.000081
C34	C	1.852456	0.121328	-0.000097
C35	C	1.474244	0.277162	-0.000049
C36	C	1.476700	0.370425	-0.000040
N37	N	1.483453	0.123647	0.346600
N38	N	1.483451	0.123632	-0.346730
C39	C	1.568862	0.067062	0.423241
C40	C	1.568859	0.067051	0.576578
C41	C	1.398033	0.180220	0.576618
C42	C	1.398032	0.180225	0.423284
C43	C	1.654283	0.010483	0.346557
C44	C	1.739700	-0.046106	0.423199
C45	C	1.739697	-0.046116	0.576536
C46	C	1.654277	0.010463	0.653231
H47	H	0.864539	0.121561	0.506417
H48	H	1.592351	-0.437822	-0.221729
O49	O	1.358476	-0.305809	-0.254945
H50	H	1.360894	-0.236386	-0.253928
H51	H	1.809238	-0.092199	0.638936
O52	O	1.831817	-0.107133	0.340480
H53	H	1.891196	-0.146489	0.419539
O54	O	0.847364	0.121212	-0.276114
H55	H	0.914932	0.122389	-0.368439
H56	H	1.374638	-0.314882	0.221540
O57	O	1.654268	0.010457	0.818617
H58	H	1.728014	-0.038394	0.859031
H59	H	1.102317	0.125731	-0.240972
O60	O	1.738392	-0.336732	-0.000244
H61	H	1.787114	-0.363126	-0.100106
O62	O	1.608516	-0.447065	0.254493
H63	H	1.708282	-0.432832	0.254223
H64	H	1.328489	0.226286	0.639073
H65	H	1.328483	0.226302	0.360881
H66	H	0.745742	0.119449	0.265479
H67	H	1.221046	0.127863	0.265572
H68	H	1.102189	0.125766	0.506451
H69	H	1.261387	-0.410506	-0.000201
H70	H	1.654296	0.010488	0.221703
