data_functionalizedCrystal
_audit_creation_method	'MofGen! by Chris Wilmer'
_symmetry_space_group_name_H-M	'P1'
_symmetry_Int_Tables_number	1
_symmetry_cell_setting	triclinic
loop_
_symmetry_equiv_pos_as_xyz
  x,y,z
_cell_length_a	18.627276
_cell_length_b	18.627284
_cell_length_c	18.626792
_cell_angle_alpha	120.001836
_cell_angle_beta	59.998700
_cell_angle_gamma	120.000068
loop_
_atom_site_label
_atom_site_type_symbol
_atom_site_fract_x
_atom_site_fract_y
_atom_site_fract_z
O1	O	-0.611958	0.492534	1.125738
O2	O	-0.507545	0.388125	0.874329
O3	O	-0.507554	0.388133	1.021340
O4	O	-0.611949	0.492526	0.978727
O5	O	-0.388153	0.507536	1.021343
O6	O	-0.388144	0.507529	0.874331
O7	O	-0.492557	0.611937	1.125741
Cu8	Cu	-0.429448	0.570635	1.000037
Cu9	Cu	-0.570653	0.429427	1.000033
O10	O	-0.492548	0.611929	0.978729
C11	C	-0.613054	0.613031	0.969041
C12	C	-0.568751	0.568730	0.975131
C13	C	-0.569650	0.699431	0.968435
C14	C	-0.743058	0.613034	0.969050
C15	C	-0.837756	0.568734	0.975150
C16	C	-0.699457	0.699433	0.968444
C17	C	-0.613056	0.743034	0.969048
C18	C	-0.568757	0.837732	0.975147
C19	C	-0.699454	0.569628	0.968437
O20	O	-1.125760	0.388137	1.021359
O21	O	-0.874358	0.492531	0.978747
O22	O	-1.021355	0.492535	1.125758
O23	O	-0.978762	0.388133	0.874348
O24	O	-1.021356	0.611940	1.125765
O25	O	-0.874358	0.611936	0.978754
O26	O	-1.125760	0.507541	1.021365
Cu27	Cu	-1.000059	0.570641	1.000060
Cu28	Cu	-1.000059	0.429431	1.000052
O29	O	-0.978762	0.507538	0.874354
C30	C	-0.969073	0.257032	0.613037
C31	C	-0.975170	0.162333	0.568730
C32	C	-0.968463	0.300633	0.699439
C33	C	-0.969074	0.387037	0.613047
C34	C	-0.975172	0.431340	0.568750
C35	C	-0.968464	0.430441	0.699448
C36	C	-0.969070	0.387034	0.743047
C37	C	-0.975164	0.431334	0.837748
C38	C	-0.968467	0.300636	0.569636
C39	C	-0.257058	0.387036	1.031052
C40	C	-0.162361	0.431337	1.024959
C41	C	-0.300660	0.300638	1.031660
C42	C	-0.387055	0.387035	1.031044
C43	C	-0.431353	0.431334	1.024942
C44	C	-0.430460	0.300636	1.031652
C45	C	-0.387058	0.257035	1.031049
C46	C	-0.431358	0.162338	1.024952
C47	C	-0.300657	0.430440	1.031655
O48	O	-0.507563	1.125736	1.021358
O49	O	-0.611959	0.874334	0.978751
O50	O	-0.611958	1.021336	1.125760
O51	O	-0.507564	0.978734	0.874349
O52	O	-0.492552	1.021336	1.125752
O53	O	-0.492553	0.874334	0.978743
O54	O	-0.388157	1.125736	1.021350
Cu55	Cu	-0.429452	1.000035	1.000045
Cu56	Cu	-0.570664	1.000035	1.000055
O57	O	-0.388158	0.978734	0.874341
O58	O	-1.021377	0.492543	0.388152
O59	O	-0.978773	0.388140	0.492545
O60	O	-1.125775	0.388144	0.492554
O61	O	-0.874375	0.492539	0.388142
O62	O	-1.125773	0.507548	0.611964
O63	O	-0.978771	0.507545	0.611954
O64	O	-1.021375	0.611947	0.507561
Cu65	Cu	-1.000073	0.570648	0.570661
Cu66	Cu	-1.000075	0.429439	0.429445
O67	O	-0.874373	0.611943	0.507552
O68	O	-1.021453	-0.125692	0.507534
O69	O	-0.978824	0.125716	0.611949
O70	O	-1.125836	-0.021271	0.611874
O71	O	-0.874440	0.021295	0.507609
O72	O	-1.125726	-0.021241	0.492429
O73	O	-0.978714	0.125746	0.492504
O74	O	-1.021342	-0.125662	0.388089
Cu75	Cu	-1.000018	0.000045	0.429390
Cu76	Cu	-1.000148	0.000009	0.570648
O77	O	-0.874330	0.021325	0.388164
C78	C	-0.743073	0.613043	1.387046
C79	C	-0.837772	0.568743	1.431346
C80	C	-0.699475	0.699444	1.430454
C81	C	-0.613066	0.613041	1.257043
C82	C	-0.568761	0.568738	1.162343
C83	C	-0.569665	0.699442	1.300649
C84	C	-0.613074	0.743046	1.387050
C85	C	-0.568777	0.837745	1.431354
C86	C	-0.699467	0.569636	1.300645
C87	C	-0.387019	0.257005	0.613028
C88	C	-0.431315	0.162305	0.568728
C89	C	-0.300617	0.300605	0.569626
C90	C	-0.387031	0.387015	0.743030
C91	C	-0.431339	0.431323	0.837728
C92	C	-0.300628	0.430417	0.699430
C93	C	-0.257019	0.387007	0.613032
C94	C	-0.162319	0.431305	0.568735
C95	C	-0.430431	0.300613	0.699427
C96	C	-1.031075	0.743041	1.387080
C97	C	-1.025036	0.837724	1.431398
C98	C	-1.031616	0.699464	1.430466
C99	C	-1.031033	0.613047	1.257061
C100	C	-1.024950	0.568741	1.162364
C101	C	-1.031575	0.569668	1.300645
C102	C	-1.030955	0.613082	1.387044
C103	C	-1.024788	0.568812	1.431324
C104	C	-1.031694	0.699429	1.300681
C105	C	-0.613054	1.031034	1.387064
C106	C	-0.568751	1.024938	1.431363
C107	C	-0.699453	1.031641	1.430473
C108	C	-0.613056	1.031033	1.257060
C109	C	-0.568756	1.024935	1.162359
C110	C	-0.699456	1.031640	1.300667
C111	C	-0.743057	1.031034	1.387069
C112	C	-0.837755	1.024937	1.431374
C113	C	-0.569650	1.031640	1.300661
O114	O	-0.388192	1.125755	1.492550
O115	O	-0.492573	0.874346	1.388154
O116	O	-0.492585	1.021332	1.388139
O117	O	-0.388181	0.978769	1.492565
O118	O	-0.611992	1.021334	1.507543
O119	O	-0.611980	0.874348	1.507559
O120	O	-0.507599	1.125757	1.611954
Cu121	Cu	-0.570693	1.000053	1.570659
Cu122	Cu	-0.429480	1.000050	1.429449
O123	O	-0.507588	0.978771	1.611970
C124	C	-0.257066	0.969036	0.613028
C125	C	-0.162368	0.975132	0.568721
C126	C	-0.300672	0.968429	0.569628
C127	C	-0.387064	0.969038	0.743040
C128	C	-0.431361	0.975135	0.837741
C129	C	-0.430473	0.968430	0.699442
C130	C	-0.387072	0.969037	0.613039
C131	C	-0.431377	0.975133	0.568743
C132	C	-0.300664	0.968430	0.699431
H133	H	-0.498657	0.734430	0.967447
C134	C	-0.420646	0.700073	1.229174
C135	C	-0.473826	0.746705	1.253413
H136	H	-0.361480	0.729257	1.200025
H137	H	-0.440355	0.642283	1.190804
H138	H	-0.424027	0.697066	1.280259
H139	H	-0.470451	0.749706	1.202327
H140	H	-0.454111	0.804510	1.291785
H141	H	-0.265652	0.967452	0.734430
H142	H	-0.967494	0.265626	0.498645
H143	H	-0.734488	0.734449	1.501445
H144	H	-1.032594	0.734477	1.501459
H145	H	-1.032716	0.734421	1.265690
H146	H	-0.265610	0.265593	0.498635
C147	C	-0.751142	0.958184	1.531230
C148	C	-0.746719	1.032959	1.526307
H149	H	-0.780328	0.958996	1.590391
H150	H	-0.693345	0.957914	1.511518
H151	H	-0.782766	0.906930	1.495128
H152	H	-0.715089	1.084214	1.562404
H153	H	-0.804526	1.033237	1.546030
H154	H	-0.734476	0.498648	1.265638
C155	C	-0.891583	0.579470	0.700102
C156	C	-0.967146	0.526274	0.746725
H157	H	-0.890770	0.638631	0.729296
H158	H	-0.891870	0.559760	0.642311
H159	H	-0.840864	0.576106	0.697094
H160	H	-1.017865	0.529632	0.749727
H161	H	-0.966866	0.545989	0.804532
C162	C	-0.751152	0.958196	1.178142
C163	C	-0.746723	1.032966	1.253426
H164	H	-0.780331	0.959021	1.148982
H165	H	-0.782776	0.906944	1.194602
H166	H	-0.693348	0.957924	1.139777
H167	H	-0.804528	1.033235	1.291794
H168	H	-0.715100	1.084232	1.236967
C169	C	-0.468893	0.958182	1.248969
C170	C	-0.473818	1.032956	1.253393
H171	H	-0.409732	0.958998	1.219790
H172	H	-0.504983	0.906933	1.217343
H173	H	-0.488611	0.957913	1.306776
H174	H	-0.454106	1.033222	1.195585
H175	H	-0.437715	1.084219	1.285017
C176	C	-0.700117	0.420591	0.891553
C177	C	-0.746730	0.473798	0.967121
H178	H	-0.729312	0.361432	0.890743
H179	H	-0.642326	0.440294	0.891834
H180	H	-0.697113	0.423951	0.840833
H181	H	-0.749728	0.470442	1.017842
H182	H	-0.804536	0.454088	0.966848
C183	C	-1.041934	0.178111	0.751131
C184	C	-0.967154	0.253383	0.746708
H185	H	-1.041130	0.148948	0.780321
H186	H	-1.042202	0.139754	0.693332
H187	H	-1.093185	0.194587	0.782755
H188	H	-0.915903	0.236906	0.715078
H189	H	-0.966878	0.291747	0.804517
C190	C	-0.531169	0.248924	0.958137
C191	C	-0.526279	0.253347	1.032932
H192	H	-0.590319	0.219726	0.958921
H193	H	-0.495050	0.217320	0.906897
H194	H	-0.511466	0.306730	0.957877
H195	H	-0.545976	0.195541	1.033189
H196	H	-0.562410	0.284950	1.084185
C197	C	-0.700088	0.770993	0.891609
C198	C	-0.746703	0.746728	0.967167
H199	H	-0.729250	0.800204	0.890836
H200	H	-0.697128	0.719923	0.840887
H201	H	-0.642274	0.809321	0.891869
H202	H	-0.804516	0.708394	0.966904
H203	H	-0.749673	0.797805	1.017902
H204	H	-0.501461	0.967458	0.734459
H205	H	-0.265629	0.501409	0.734441
H206	H	-0.265665	0.967451	0.498636
H207	H	-0.265653	0.265637	1.032643
H208	H	-1.032439	0.498714	1.265598
C209	C	-0.178154	0.531126	0.958115
C210	C	-0.253412	0.526252	1.032916
H211	H	-0.148990	0.590270	0.958881
H212	H	-0.194640	0.494988	0.906879
H213	H	-0.139786	0.511438	0.957866
H214	H	-0.291783	0.545935	1.033161
H215	H	-0.236927	0.562403	1.084166
H216	H	-0.501424	0.265607	0.734426
