data_functionalizedCrystal
_audit_creation_method	'MofGen! by Chris Wilmer'
_symmetry_space_group_name_H-M	'P1'
_symmetry_Int_Tables_number	1
_symmetry_cell_setting	triclinic
loop_
_symmetry_equiv_pos_as_xyz
  x,y,z
_cell_length_a	12.645331
_cell_length_b	21.295417
_cell_length_c	12.645323
_cell_angle_alpha	89.967055
_cell_angle_beta	89.984262
_cell_angle_gamma	90.028938
loop_
_atom_site_label
_atom_site_type_symbol
_atom_site_fract_x
_atom_site_fract_y
_atom_site_fract_z
Zn1	Zn	1.620643	-0.250617	-0.599191
Zn2	Zn	1.620487	-0.355892	-0.421906
Zn3	Zn	1.443357	-0.250639	-0.421956
Zn4	Zn	1.443302	-0.355851	-0.599142
O5	O	1.531947	-0.303250	-0.510549
O6	O	1.768969	-0.264590	-0.575672
O7	O	1.596949	-0.341956	-0.273565
O8	O	1.466963	-0.162547	-0.445508
O9	O	1.768855	-0.341935	-0.445422
O10	O	1.597214	-0.162531	-0.575721
O11	O	1.466812	-0.264627	-0.273602
O12	O	1.295003	-0.264588	-0.445462
O13	O	1.466868	-0.341865	-0.747496
O14	O	1.294962	-0.341886	-0.575639
O15	O	1.597160	-0.264551	-0.747532
O16	O	1.596895	-0.443976	-0.445375
O17	O	1.466718	-0.443946	-0.575590
C18	C	1.256518	-0.303235	-0.510551
C19	C	1.138688	-0.303244	-0.510578
C20	C	0.971133	-0.352140	-0.592046
C21	C	1.093693	-0.351982	-0.592386
C22	C	1.094233	-0.236943	-0.541115
C23	C	0.971635	-0.237242	-0.541689
C24	C	0.971436	-0.320116	-0.398314
C25	C	1.094041	-0.321566	-0.398920
C26	C	1.531812	-0.466801	-0.510495
C27	C	1.531851	-0.536769	-0.510508
C28	C	1.599634	-0.569571	-0.578358
C29	C	1.599672	-0.635313	-0.578384
C30	C	1.531937	-0.668252	-0.510541
C31	C	1.464141	-0.635443	-0.442686
C32	C	1.464098	-0.569702	-0.442669
N33	N	1.523925	-0.771516	-0.417766
N34	N	1.523972	-0.833967	-0.417784
C35	C	1.532061	-0.866327	-0.510589
N36	N	1.540122	-0.833875	-0.603376
N37	N	1.540080	-0.771418	-0.603356
C38	C	1.531976	-0.739537	-0.510552
C39	C	1.599888	-0.970413	-0.578473
C40	C	1.599918	-1.036157	-0.578501
C41	C	1.464393	-1.036285	-0.442793
C42	C	1.464358	-0.970543	-0.442775
C43	C	1.532111	-0.937611	-0.510613
C44	C	1.808452	-0.303264	-0.510547
C45	C	1.926282	-0.303271	-0.510546
C46	C	1.532025	-0.303201	-0.787054
C47	C	1.532059	-0.303180	-0.904884
C48	C	1.532112	-0.139059	-0.510626
C49	C	1.532182	-0.069091	-0.510659
C50	C	1.449839	-0.351590	-1.072426
C51	C	1.450055	-0.351830	-0.949866
C52	C	1.643752	-0.321184	-0.949386
C53	C	1.643301	-0.321488	-1.071985
C54	C	1.503641	-0.236496	-1.072101
C55	C	1.501149	-0.236895	-0.949495
C56	C	1.531930	-0.303253	-0.235119
C57	C	1.532103	-0.303096	-0.117290
H58	H	1.123379	-0.199543	-0.483609
O59	O	1.134605	-0.277838	-0.314163
H60	H	1.066805	-0.254005	-0.275516
H61	H	1.408989	-0.662266	-0.387450
O62	O	1.132590	-0.337212	-0.702535
H63	H	1.181163	-0.293800	-0.700587
H64	H	1.668293	-0.369360	-0.918683
H65	H	1.468842	-0.401203	-0.920538
O66	O	0.932036	-0.417483	-0.566985
H67	H	0.886609	-0.435941	-0.635335
H68	H	1.655115	-1.062863	-0.633758
O69	O	1.672705	-0.534054	-0.651532
H70	H	1.661296	-0.482829	-0.640119
O71	O	1.134953	-0.217675	-0.648613
H72	H	1.067174	-0.210281	-0.702957
H73	H	1.423614	-0.220085	-1.103019
H74	H	0.940346	-0.341136	-0.674721
O75	O	1.391339	-1.071801	-0.369611
H76	H	1.402760	-1.123027	-0.381014
O77	O	1.672790	-0.670704	-0.651560
H78	H	1.719900	-0.636759	-0.698723
H79	H	1.408900	-0.542994	-0.387416
H80	H	1.367230	-0.340563	-0.919777
O81	O	1.392275	-0.218908	-0.910956
H82	H	1.339254	-0.211724	-0.979841
H83	H	0.943065	-0.222953	-0.623735
O84	O	1.672950	-0.934886	-0.651645
H85	H	1.720080	-0.968743	-0.698844
H86	H	0.940497	-0.367639	-0.370562
H87	H	1.409167	-0.943834	-0.387520
H88	H	0.941967	-0.199525	-0.485051
H89	H	1.366769	-0.340432	-1.101913
H90	H	1.123107	-0.370354	-0.375888
O91	O	1.474435	-0.416580	-1.113270
H92	H	1.545002	-0.414494	-1.165375
O93	O	0.933016	-0.272972	-0.317867
H94	H	0.882009	-0.237712	-0.357556
H95	H	1.667429	-0.370174	-1.100581
O96	O	1.727254	-0.276747	-1.111312
H97	H	1.768000	-0.254994	-1.042761
H98	H	1.706686	-0.286981	-0.920252
H99	H	1.563558	-0.200366	-1.101116
H100	H	1.556690	-0.198855	-0.918876
H101	H	1.123748	-0.401148	-0.573246
