data_functionalizedCrystal
_audit_creation_method	'MofGen! by Chris Wilmer'
_symmetry_space_group_name_H-M	'P1'
_symmetry_Int_Tables_number	1
_symmetry_cell_setting	triclinic
loop_
_symmetry_equiv_pos_as_xyz
  x,y,z
_cell_length_a	15.298709
_cell_length_b	16.959447
_cell_length_c	15.296118
_cell_angle_alpha	80.285811
_cell_angle_beta	110.812486
_cell_angle_gamma	99.646930
loop_
_atom_site_label
_atom_site_type_symbol
_atom_site_fract_x
_atom_site_fract_y
_atom_site_fract_z
Zn1	Zn	1.357705	-0.222594	-0.123901
Zn2	Zn	1.330692	-0.070886	-0.279499
Zn3	Zn	1.202182	-0.109875	-0.150893
Zn4	Zn	1.175254	-0.222471	-0.306387
O5	O	1.266458	-0.156457	-0.215170
O6	O	1.484260	-0.186204	-0.121993
O7	O	1.313609	0.034554	-0.262482
O8	O	1.245387	-0.141195	-0.017120
O9	O	1.464414	-0.074745	-0.236309
O10	O	1.359649	-0.224010	0.002711
O11	O	1.219193	0.005909	-0.167997
O12	O	1.068471	-0.141077	-0.194069
O13	O	1.199492	-0.333100	-0.282136
O14	O	1.048687	-0.223801	-0.308309
O15	O	1.333538	-0.333190	-0.148065
O16	O	1.287498	-0.074626	-0.413258
O17	O	1.173299	-0.185995	-0.433012
C18	C	1.024836	-0.186657	-0.257036
C19	C	0.921465	-0.199592	-0.274970
C20	C	1.266525	-0.362627	-0.215089
C21	C	1.266553	-0.450485	-0.215054
C22	C	1.315726	-0.476847	-0.264231
C23	C	1.217400	-0.506677	-0.165851
C24	C	1.217421	-0.589225	-0.165821
C25	C	1.266594	-0.615587	-0.214998
C26	C	1.315746	-0.559401	-0.264205
C27	C	1.168262	-0.645416	-0.116623
C28	C	1.168280	-0.727969	-0.116592
C29	C	1.217459	-0.754332	-0.165764
C30	C	1.266614	-0.698141	-0.214972
C31	C	1.315786	-0.724503	-0.264149
C32	C	1.364947	-0.668314	-0.313352
C33	C	1.364924	-0.585765	-0.313377
C34	C	1.217482	-0.836881	-0.165739
C35	C	1.315806	-0.807058	-0.264122
C36	C	0.862613	-0.248647	-0.342963
C37	C	0.765491	-0.260809	-0.359808
C38	C	0.727211	-0.223912	-0.308665
C39	C	0.786063	-0.174852	-0.240675
C40	C	0.883195	-0.162694	-0.223823
C41	C	0.747793	-0.137960	-0.189525
C42	C	0.806645	-0.088900	-0.121535
C43	C	0.903767	-0.076743	-0.104687
C44	C	0.942046	-0.113640	-0.155830
C45	C	0.650661	-0.150118	-0.206376
C46	C	0.671243	-0.064165	-0.087236
C47	C	0.768365	-0.052003	-0.070392
C48	C	1.509024	-0.126139	-0.173141
C49	C	1.612391	-0.113219	-0.155230
C50	C	1.224570	-0.126081	-0.456888
C51	C	1.206736	-0.113102	-0.560282
C52	C	1.266457	0.048910	-0.215174
C53	C	1.266654	0.136757	-0.214915
C54	C	1.138898	-0.063834	-0.619256
C55	C	1.122145	-0.051643	-0.716398
C56	C	1.173223	-0.088723	-0.754577
C57	C	1.241058	-0.137996	-0.695603
C58	C	1.257818	-0.150183	-0.598450
C59	C	1.292143	-0.175072	-0.733772
C60	C	1.359978	-0.224345	-0.674798
C61	C	1.376734	-0.236530	-0.577655
C62	C	1.325656	-0.199450	-0.539476
C63	C	1.275383	-0.162885	-0.830925
C64	C	1.394304	-0.249233	-0.810119
C65	C	1.411056	-0.261425	-0.712977
C66	C	1.308535	-0.186965	0.027497
C67	C	1.326465	-0.199966	0.130907
H68	H	1.355853	-0.828514	-0.304164
O69	O	0.708198	-0.308463	-0.425788
C70	C	0.549443	-0.365249	-0.504584
C71	C	0.614225	-0.311274	-0.429814
H72	H	0.473451	-0.367526	-0.507877
H73	H	0.571321	-0.428680	-0.485034
H74	H	0.555600	-0.339451	-0.576249
H75	H	0.608100	-0.337000	-0.358122
H76	H	0.592329	-0.247850	-0.449444
H77	H	1.128251	-0.773712	-0.076528
O78	O	1.476955	-0.309338	-0.655824
C79	C	1.593174	-0.393668	-0.645426
C80	C	1.518560	-0.339439	-0.710261
H81	H	1.626847	-0.418006	-0.689410
H82	H	1.558328	-0.446057	-0.607370
H83	H	1.649636	-0.357034	-0.591481
H84	H	1.462076	-0.376005	-0.764258
H85	H	1.553474	-0.287048	-0.748248
O86	O	0.960799	-0.029042	-0.038630
C87	C	0.970968	0.054882	0.077809
C88	C	0.906272	0.000898	0.003010
H89	H	0.926912	0.079091	0.111509
H90	H	1.009017	0.107367	0.043088
H91	H	1.024891	0.018102	0.134253
H92	H	0.852296	0.037610	-0.053457
H93	H	0.868292	-0.051588	0.037799
H94	H	0.602754	-0.190064	-0.261734
O95	O	1.412515	-0.531150	-0.361298
C96	C	1.403216	-0.420554	-0.484732
C97	C	1.349207	-0.482379	-0.430550
H98	H	1.352058	-0.381095	-0.540721
H99	H	1.438341	-0.453526	-0.519949
H100	H	1.459256	-0.381234	-0.433581
H101	H	1.293124	-0.521716	-0.481638
H102	H	1.314149	-0.449356	-0.395319
O103	O	1.443812	-0.285226	-0.847354
C104	C	1.470735	-0.304680	-0.987792
C105	C	1.414587	-0.263892	-0.945743
H106	H	1.447141	-0.287433	-1.067343
H107	H	1.457652	-0.372862	-0.971554
H108	H	1.549036	-0.283895	-0.955589
H109	H	1.336269	-0.284613	-0.977922
H110	H	1.427748	-0.195716	-0.961972
O111	O	0.633908	-0.028335	-0.037682
C112	C	0.493396	-0.008974	-0.010841
C113	C	0.535561	-0.049588	-0.067030
H114	H	0.413881	-0.026156	-0.034534
H115	H	0.509584	0.059219	-0.023807
H116	H	0.525529	-0.029963	0.067474
H117	H	0.503454	-0.028665	-0.145362
H118	H	0.519383	-0.117775	-0.053985
O119	O	0.632894	-0.235808	-0.324878
C120	C	0.508967	-0.284834	-0.259880
C121	C	0.615806	-0.271427	-0.241390
H122	H	0.495118	-0.313617	-0.192388
H123	H	0.473432	-0.326273	-0.317214
H124	H	0.479255	-0.224475	-0.283718
H125	H	0.645601	-0.331746	-0.217514
H126	H	0.651274	-0.229952	-0.184086
O127	O	0.825481	-0.004229	-0.004453
C128	C	0.862955	0.128161	0.046073
C129	C	0.798217	0.074151	-0.028678
H130	H	0.840924	0.191538	0.026525
H131	H	0.938956	0.130580	0.049322
H132	H	0.856873	0.102325	0.117758
H133	H	0.804217	0.099946	-0.100401
H134	H	0.722243	0.071734	-0.031844
H135	H	1.220151	-0.122767	-0.878932
H136	H	1.431977	-0.276644	-0.529636
H137	H	1.021129	-0.103737	-0.142122
O138	O	1.412698	-0.694063	-0.361038
C139	C	1.456241	-0.808028	-0.404641
C140	C	1.402146	-0.778973	-0.350582
H141	H	1.447713	-0.876680	-0.396222
H142	H	1.534082	-0.784549	-0.375302
H143	H	1.426921	-0.784353	-0.482484
H144	H	1.431386	-0.802636	-0.272732
H145	H	1.324311	-0.802443	-0.379997
O146	O	1.363325	-0.422237	-0.312149
C147	C	1.354054	-0.311641	-0.435578
C148	C	1.300031	-0.373455	-0.381402
H149	H	1.302907	-0.272173	-0.491568
H150	H	1.389172	-0.344621	-0.470793
H151	H	1.410100	-0.272328	-0.384424
H152	H	1.243941	-0.412786	-0.432494
H153	H	1.264979	-0.340425	-0.346172
H154	H	1.066915	-0.011523	-0.764408
O155	O	1.169719	-0.480935	-0.118100
C156	C	1.126063	-0.366979	-0.074591
C157	C	1.180120	-0.396024	-0.128695
H158	H	1.134437	-0.298326	-0.083155
H159	H	1.155409	-0.390544	0.003285
H160	H	1.048258	-0.390572	-0.103906
H161	H	1.257932	-0.372442	-0.099461
H162	H	1.150697	-0.372467	-0.206566
H163	H	1.128221	-0.623945	-0.076594
O164	O	0.899947	-0.284396	-0.392580
C165	C	1.040470	-0.303797	-0.419370
C166	C	0.998311	-0.263244	-0.363122
H167	H	1.120006	-0.286725	-0.395560
H168	H	1.008450	-0.282765	-0.497689
H169	H	1.024165	-0.371980	-0.406455
H170	H	1.014602	-0.195056	-0.375958
H171	H	1.030333	-0.284341	-0.284822
O172	O	1.156800	-0.076830	-0.848966
C173	C	1.067539	-0.011925	-0.999784
C174	C	1.086036	-0.025339	-0.892903
H175	H	1.010340	0.029719	-1.035336
H176	H	1.043590	-0.072215	-1.029529
H177	H	1.135054	0.016695	-1.013604
H178	H	1.018557	-0.053932	-0.878999
H179	H	1.110026	0.034972	-0.863212
H180	H	1.097320	-0.033643	-0.588163
H181	H	1.177454	-0.882627	-0.125680
H182	H	1.339287	-0.209379	-0.460376
