data_functionalizedCrystal
_audit_creation_method	'MofGen! by Chris Wilmer'
_symmetry_space_group_name_H-M	'P1'
_symmetry_Int_Tables_number	1
_symmetry_cell_setting	triclinic
loop_
_symmetry_equiv_pos_as_xyz
  x,y,z
_cell_length_a	8.497374
_cell_length_b	13.032721
_cell_length_c	13.032831
_cell_angle_alpha	89.097115
_cell_angle_beta	82.827283
_cell_angle_gamma	82.830905
loop_
_atom_site_label
_atom_site_type_symbol
_atom_site_fract_x
_atom_site_fract_y
_atom_site_fract_z
Zn1	Zn	1.299749	-0.609635	-1.519982
Zn2	Zn	1.799749	-0.109635	-1.019982
Zn3	Zn	1.064703	-0.781567	-1.498071
Zn4	Zn	1.564703	-0.281567	-0.998071
Zn5	Zn	0.998870	-0.587743	-1.348061
Zn6	Zn	1.498870	-0.087743	-0.848061
Zn7	Zn	1.291326	-0.759681	-1.326132
Zn8	Zn	1.791326	-0.259681	-0.826132
O9	O	1.163662	-0.684657	-1.423062
O10	O	1.663662	-0.184657	-0.923062
O11	O	1.299646	-0.650764	-1.660983
O12	O	1.799646	-0.150764	-1.160983
O13	O	0.835209	-0.755853	-1.478179
O14	O	1.335209	-0.255853	-0.978179
O15	O	1.014756	-0.446737	-1.389213
O16	O	1.514756	0.053263	-0.889213
O17	O	1.126959	-0.777081	-1.644885
O18	O	1.626959	-0.277081	-1.144885
O19	O	1.235810	-0.462821	-1.515523
O20	O	1.735810	0.037179	-1.015523
O21	O	0.786842	-0.613452	-1.367967
O22	O	1.286842	-0.113452	-0.867967
O23	O	1.006589	-0.592230	-1.201245
O24	O	1.506589	-0.092230	-0.701245
O25	O	1.513205	-0.739780	-1.351839
O26	O	2.013205	-0.239780	-0.851839
O27	O	1.221455	-0.718552	-1.185134
O28	O	1.721455	-0.218552	-0.685134
O29	O	1.519393	-0.629542	-1.494260
O30	O	2.019393	-0.129542	-0.994260
O31	O	1.118792	-0.922574	-1.456916
O32	O	1.618792	-0.422574	-0.956916
O33	O	1.285291	-0.906494	-1.330593
O34	O	1.785291	-0.406494	-0.830593
C35	C	1.208312	-0.951852	-1.389026
C36	C	1.708312	-0.451852	-0.889026
C37	C	1.227486	-1.066171	-1.374559
C38	C	1.727486	-0.566171	-0.874559
C39	C	1.105965	-0.650641	-1.155876
C40	C	1.605965	-0.150641	-0.655876
C41	C	1.081324	-0.636114	-1.041569
C42	C	1.581324	-0.136114	-0.541569
C43	C	1.153738	-1.125067	-1.430666
C44	C	1.653738	-0.625067	-0.930666
C45	C	1.173554	-1.243222	-1.415716
C46	C	1.673554	-0.743222	-0.915716
C47	C	1.575141	-0.684657	-1.423054
C48	C	2.075141	-0.184657	-0.923054
C49	C	1.753788	-0.684668	-1.423055
C50	C	2.253788	-0.184668	-0.923055
C51	C	1.221586	-0.718806	-1.691291
C52	C	1.721586	-0.218806	-1.191291
C53	C	1.246269	-0.733358	-1.805594
C54	C	1.746269	-0.233358	-1.305594
C55	C	1.118879	-0.416421	-1.457259
C56	C	1.618879	0.083579	-0.957259
C57	C	1.099795	-0.302116	-1.471831
C58	C	1.599795	0.197884	-0.971831
C59	C	1.176523	-0.692239	-0.982652
C60	C	1.676523	-0.192239	-0.482652
C61	C	1.151057	-0.677225	-0.864510
C62	C	1.651057	-0.177225	-0.364510
H63	H	1.075935	-1.088019	-1.489775
H64	H	1.575935	-0.588019	-0.989775
C65	C	1.332603	-1.116220	-1.294708
C66	C	1.832603	-0.616220	-0.794708
N67	N	1.411776	-1.153915	-1.234560
N68	N	1.911776	-0.653915	-0.734560
H69	H	1.050699	-0.618052	-0.827493
H70	H	1.550699	-0.118052	-0.327493
H71	H	1.276884	-0.751400	-1.019674
H72	H	1.776884	-0.251400	-0.519674
H73	H	1.346641	-0.792522	-0.842611
H74	H	1.846641	-0.292522	-0.342611
C75	C	1.278676	-1.293266	-1.335861
C76	C	1.778676	-0.793266	-0.835861
N77	N	1.357849	-1.330961	-1.275713
N78	N	1.857849	-0.830961	-0.775713
H79	H	1.021987	-1.265071	-1.530944
H80	H	1.521987	-0.765071	-1.030944
H81	H	0.980973	-0.576944	-1.004548
H82	H	1.480973	-0.076944	-0.504548
