data_functionalizedCrystal
_audit_creation_method	'MofGen! by Chris Wilmer'
_symmetry_space_group_name_H-M	'P1'
_symmetry_Int_Tables_number	1
_symmetry_cell_setting	triclinic
loop_
_symmetry_equiv_pos_as_xyz
  x,y,z
_cell_length_a	31.640171
_cell_length_b	31.640172
_cell_length_c	19.851628
_cell_angle_alpha	90.005652
_cell_angle_beta	59.998920
_cell_angle_gamma	59.979319
loop_
_atom_site_label
_atom_site_type_symbol
_atom_site_fract_x
_atom_site_fract_y
_atom_site_fract_z
Zr1	Zr	0.462736	0.406965	-0.088513
O2	O	0.550943	0.339436	-0.196120
O3	O	0.374529	0.427696	-0.055498
O4	O	0.462725	0.427657	-0.196063
O5	O	0.462755	0.339473	0.055293
O6	O	0.462717	0.497214	-0.196048
O7	O	0.462747	0.339475	-0.055556
O8	O	0.304950	0.497283	0.055396
O9	O	0.620521	0.339403	-0.196151
O10	O	0.410803	0.488411	-0.041440
O11	O	0.410816	0.436500	0.041274
O12	O	0.514655	0.436454	-0.124222
O13	O	0.514668	0.384543	-0.041508
Zr14	Zr	0.462735	0.517897	0.088302
Zr15	Zr	0.462722	0.517901	-0.088489
Zr16	Zr	0.462749	0.406962	0.088278
Zr17	Zr	0.573706	0.406913	-0.088562
Zr18	Zr	0.351765	0.517950	0.088351
O19	O	0.550941	0.497167	0.055287
O20	O	0.550923	0.497172	-0.196087
O21	O	0.550961	0.339431	0.055254
O22	O	0.374528	0.585427	0.195909
O23	O	0.374509	0.585431	-0.055465
O24	O	0.374548	0.427691	0.195876
O25	O	0.462716	0.585390	-0.055504
O26	O	0.462745	0.497206	0.195851
O27	O	0.462754	0.427649	0.195837
O28	O	0.462724	0.585388	0.055345
O29	O	0.620510	0.427582	-0.196132
O30	O	0.304960	0.497281	0.195921
O31	O	0.304949	0.585459	0.195940
O32	O	0.304939	0.585462	0.055414
O33	O	0.620532	0.339401	-0.055626
O34	O	0.620521	0.427579	-0.055607
O35	O	0.410815	0.488408	0.124011
O36	O	0.410803	0.540320	0.041296
O37	O	0.514655	0.488363	-0.041486
O38	O	0.514667	0.436451	0.041229
C39	C	0.323929	0.462497	-0.000044
C40	C	0.276819	0.462519	-0.000024
C41	C	0.462753	0.323668	-0.000135
C42	C	0.462759	0.276573	-0.000145
C43	C	-0.097747	0.500772	0.060982
C44	C	0.079206	0.500818	0.061028
O45	O	0.069473	0.533439	0.112971
N46	N	0.139681	0.462486	-0.000061
C47	C	0.155918	0.424142	-0.061168
O48	O	0.211417	0.391543	-0.113131
C49	C	-0.021034	0.424099	-0.061216
C50	C	-0.081510	0.462430	-0.000119
C51	C	-0.158220	0.539101	0.122074
C52	C	-0.202455	0.539087	0.122064
C53	C	-0.186218	0.500745	0.060963
C54	C	-0.125745	0.462417	-0.000129
C55	C	-0.004797	0.385757	-0.122326
C56	C	-0.049041	0.385751	-0.122334
C57	C	-0.109517	0.424082	-0.061237
C58	C	-0.153743	0.424061	-0.061239
N59	N	-0.214218	0.462393	-0.000151
C60	C	-0.230456	0.500735	0.060950
C61	C	0.248818	0.424167	-0.061137
C62	C	0.293057	0.424177	-0.061125
C63	C	0.216341	0.500854	0.061070
C64	C	0.172102	0.500841	0.061060
C65	C	0.188343	0.462499	-0.000049
C66	C	-0.323350	0.500704	0.060926
C67	C	-0.367586	0.500686	0.060914
C68	C	-0.290866	0.424011	-0.061283
C69	C	-0.246634	0.424027	-0.061268
C70	C	-0.262881	0.462378	-0.000160
O71	O	-0.144054	0.391461	-0.113160
O72	O	-0.285957	0.533336	0.112895
C73	C	-0.053512	0.500786	0.060991
C74	C	0.006961	0.462457	-0.000100
C75	C	0.023198	0.424115	-0.061201
C76	C	0.051199	0.462467	-0.000088
C77	C	0.034961	0.500809	0.061014
C78	C	-0.025514	0.539141	0.122102
C79	C	-0.069749	0.539128	0.122092
C80	C	0.083673	0.385783	-0.122290
C81	C	0.127906	0.385800	-0.122275
C82	C	0.111668	0.424142	-0.061174
C83	C	0.408520	0.011688	0.043122
C84	C	0.408510	-0.165297	0.043139
O85	O	0.362406	-0.165117	0.079918
N86	N	0.462719	-0.214548	-0.000074
C87	C	0.516935	-0.219551	-0.043289
O88	O	0.563043	-0.265503	-0.080036
C89	C	0.516944	-0.042567	-0.043300
C90	C	0.462732	0.006683	-0.000091
C91	C	0.354312	0.060936	0.086328
C92	C	0.354315	0.105180	0.086320
C93	C	0.408526	0.100175	0.043106
C94	C	0.462735	0.050927	-0.000100
C95	C	0.571160	-0.047571	-0.086510
C96	C	0.571157	-0.003320	-0.086507
C97	C	0.516944	0.045930	-0.043298
C98	C	0.516949	0.090165	-0.043322
N99	N	0.462740	0.139416	-0.000109
C100	C	0.408529	0.144421	0.043105
C101	C	0.516926	-0.312469	-0.043281
C102	C	0.516923	-0.356715	-0.043280
C103	C	0.408498	-0.302457	0.043149
C104	C	0.408501	-0.258211	0.043142
C105	C	0.462716	-0.263218	-0.000069
C106	C	0.408539	0.237333	0.043084
C107	C	0.408547	0.281578	0.043069
C108	C	0.516972	0.227316	-0.043356
C109	C	0.516965	0.183075	-0.043345
C110	C	0.462743	0.188087	-0.000119
O111	O	0.563029	0.090025	-0.080074
O112	O	0.362427	0.190377	0.079862
C113	C	0.408517	-0.032555	0.043131
C114	C	0.462725	-0.081803	-0.000075
C115	C	0.516937	-0.086808	-0.043289
C116	C	0.462723	-0.126049	-0.000074
C117	C	0.408511	-0.121045	0.043140
C118	C	0.354302	-0.071794	0.086353
C119	C	0.354305	-0.027551	0.086344
C120	C	0.571146	-0.136059	-0.086501
C121	C	0.571139	-0.180300	-0.086490
C122	C	0.516927	-0.175295	-0.043276
C123	C	0.601542	0.462366	-0.000167
C124	C	0.648652	0.462344	-0.000187
C125	C	0.462719	0.462436	-0.221244
C126	C	0.462714	0.462437	-0.296297
C127	C	0.462718	0.601195	-0.000076
C128	C	0.462712	0.648290	-0.000066
C129	C	0.406102	0.490765	-0.432526
C130	C	0.434412	0.441942	-0.500002
C131	C	0.462729	0.462432	-0.433728
C132	C	0.434416	0.511245	-0.499987
C133	C	0.462740	0.462431	-0.566477
C134	C	0.491039	0.413581	-0.500215
C135	C	0.491035	0.482919	-0.500190
C136	C	0.519386	0.434067	-0.567678
C137	C	0.462721	0.462433	-0.357253
C138	C	0.462752	0.462425	-0.642954
C139	C	0.462752	0.462427	0.221033
C140	C	0.462757	0.462426	0.296085
C141	C	0.323911	0.601260	-0.000015
C142	C	0.276796	0.648377	0.000016
C143	C	0.323945	0.462493	0.221094
C144	C	0.276841	0.462513	0.296167
C145	C	0.323928	0.601256	0.221124
C146	C	0.276818	0.648372	0.296207
C147	C	0.601543	0.323607	-0.221335
C148	C	0.648653	0.276491	-0.296418
C149	C	0.601559	0.323603	-0.000196
C150	C	0.648675	0.276485	-0.000227
C151	C	0.601526	0.462370	-0.221305
C152	C	0.648630	0.462349	-0.296378
C153	C	0.254670	0.643409	-0.043165
C154	C	0.210406	0.687676	-0.043152
C155	C	0.188266	0.736912	0.000046
C156	C	0.210396	0.741879	0.043228
C157	C	0.254662	0.697613	0.043210
C158	C	0.254720	0.489619	0.374617
C159	C	0.210467	0.489636	0.445163
C160	C	0.188333	0.462551	0.437257
C161	C	0.210458	0.435443	0.358799
C162	C	0.254713	0.435422	0.288255
C163	C	0.254688	0.697600	0.288291
C164	C	0.210429	0.741874	0.358833
C165	C	0.188298	0.736920	0.437290
C166	C	0.210432	0.687687	0.445204
C167	C	0.254693	0.643413	0.374663
C168	C	0.670788	0.227263	-0.288502
C169	C	0.715061	0.182989	-0.359044
C170	C	0.737194	0.187943	-0.437501
C171	C	0.715057	0.237176	-0.445415
C172	C	0.670788	0.281449	-0.374874
C173	C	0.670805	0.281454	0.042946
C174	C	0.715082	0.237187	0.042914
C175	C	0.737224	0.187951	-0.000286
C176	C	0.715091	0.182983	-0.043465
C177	C	0.670819	0.227250	-0.043437
C178	C	0.670750	0.489440	-0.288446
C179	C	0.715004	0.489430	-0.358979
C180	C	0.737139	0.462327	-0.437443
C181	C	0.715014	0.435236	-0.445373
C182	C	0.670758	0.435249	-0.374842
H183	H	-0.336587	0.531933	0.110687
H184	H	0.192393	0.683621	-0.078316
C185	C	-0.268975	0.581258	0.189268
C186	C	-0.294539	0.638699	0.198536
C187	C	-0.361058	0.680873	0.265742
C188	C	-0.402013	0.665606	0.323681
C189	C	-0.376450	0.608162	0.314415
C190	C	-0.309931	0.565988	0.247209
H191	H	-0.264221	0.650003	0.155644
H192	H	-0.379981	0.723397	0.272601
H193	H	-0.451254	0.696826	0.373431
H194	H	-0.406768	0.596858	0.357306
H195	H	-0.291007	0.523464	0.240350
C196	C	0.402070	0.567012	-0.500850
C197	C	0.425162	0.599778	-0.500518
C198	C	0.392811	0.655545	-0.501373
C199	C	0.337368	0.678547	-0.502561
C200	C	0.314273	0.645781	-0.502893
C201	C	0.346624	0.590013	-0.502037
H202	H	0.466206	0.582751	-0.499638
H203	H	0.409907	0.679801	-0.501127
H204	H	0.313420	0.719829	-0.503194
H205	H	0.273228	0.662807	-0.503772
H206	H	0.329528	0.565758	-0.502283
H207	H	0.652770	0.223219	-0.224624
C208	C	0.739405	0.242621	-0.531722
C209	C	0.788095	0.193917	-0.609307
C210	C	0.812442	0.199360	-0.695616
C211	C	0.788099	0.253507	-0.704339
C212	C	0.739406	0.302214	-0.626752
C213	C	0.715059	0.296771	-0.540443
H214	H	0.806118	0.153831	-0.602852
H215	H	0.848487	0.163304	-0.753051
H216	H	0.806121	0.257536	-0.768230
H217	H	0.721383	0.342300	-0.633207
H218	H	0.679014	0.332828	-0.483008
H219	H	0.652802	0.223197	-0.078592
H220	H	0.733126	0.142890	-0.078637
H221	H	0.192407	0.683660	0.509093
C222	C	0.266692	0.381984	-0.128360
C223	C	0.246826	0.397237	-0.186315
C224	C	0.264703	0.355052	-0.253535
C225	C	0.302445	0.297613	-0.262801
C226	C	0.322313	0.282357	-0.204844
C227	C	0.304436	0.324542	-0.137624
H228	H	0.218885	0.439760	-0.179458
H229	H	0.249996	0.366346	-0.296439
H230	H	0.315679	0.266385	-0.312562
H231	H	0.350254	0.239835	-0.211701
H232	H	0.319144	0.313248	-0.094720
H233	H	0.410483	0.424611	-0.500671
C234	C	0.584117	0.401656	-0.645727
C235	C	0.606487	0.427128	-0.707903
C236	C	0.671216	0.394715	-0.785954
C237	C	0.713577	0.336829	-0.801828
C238	C	0.691209	0.311353	-0.739650
C239	C	0.626479	0.343766	-0.661599
H240	H	0.575128	0.469982	-0.696154
H241	H	0.687775	0.413574	-0.831983
H242	H	0.761494	0.312835	-0.859606
H243	H	0.722567	0.268499	-0.751399
H244	H	0.609921	0.324907	-0.615570
H245	H	0.272737	0.511675	0.381070
C246	C	0.630779	-0.234474	-0.134023
C247	C	0.645699	-0.272365	-0.204085
C248	C	0.705338	-0.326536	-0.251608
C249	C	0.750057	-0.342815	-0.229070
C250	C	0.735139	-0.304923	-0.159005
C251	C	0.675500	-0.250753	-0.111482
H252	H	0.612594	-0.260315	-0.220772
H253	H	0.716381	-0.354586	-0.303475
H254	H	0.794206	-0.382916	-0.264250
H255	H	0.768244	-0.316974	-0.142318
H256	H	0.664457	-0.222703	-0.059615
H257	H	0.272706	0.603331	0.381120
H258	H	0.514958	0.372281	-0.499639
C259	C	0.139568	0.785603	0.000067
C260	C	0.115230	0.780131	-0.047428
C261	C	0.066530	0.828820	-0.047406
C262	C	0.042168	0.882981	0.000110
C263	C	0.066506	0.888455	0.047609
C264	C	0.115206	0.839766	0.047588
H265	H	0.133264	0.740036	-0.082606
H266	H	0.048514	0.824767	-0.082568
H267	H	0.006118	0.919023	0.000126
H268	H	0.048472	0.928550	0.082787
H269	H	0.133222	0.843819	0.082750
H270	H	0.192363	0.781973	0.078398
H271	H	0.192412	0.781958	0.352374
H272	H	0.152258	0.772974	0.494722
C273	C	0.785824	0.462313	-0.515024
C274	C	0.846692	0.410882	-0.577597
C275	C	0.895378	0.410868	-0.655175
C276	C	0.883197	0.462285	-0.670180
C277	C	0.822326	0.513720	-0.607606
C278	C	0.773639	0.513734	-0.530028
H279	H	0.855712	0.372816	-0.566490
H280	H	0.940439	0.372792	-0.701496
H281	H	0.919237	0.462274	-0.727608
H282	H	0.813306	0.551785	-0.618712
H283	H	0.728579	0.551809	-0.483706
H284	H	0.733078	0.142905	-0.352583
C285	C	0.785920	0.139260	-0.000306
C286	C	0.810279	0.085099	-0.047819
C287	C	0.858974	0.036410	-0.047832
C288	C	0.883310	0.041882	-0.000334
C289	C	0.858951	0.096045	0.047182
C290	C	0.810256	0.144734	0.047196
H291	H	0.792265	0.081046	-0.082983
H292	H	0.877006	-0.003685	-0.083007
H293	H	0.919357	0.005840	-0.000344
H294	H	0.876966	0.100098	0.082347
H295	H	0.792224	0.184829	0.082371
H296	H	0.272696	0.603323	-0.078352
C297	C	0.630784	-0.141572	-0.134046
C298	C	0.675497	-0.170043	-0.227869
C299	C	0.735139	-0.175561	-0.275422
C300	C	0.750070	-0.152608	-0.229152
C301	C	0.705356	-0.124135	-0.135323
C302	C	0.645713	-0.118617	-0.087770
H303	H	0.664445	-0.187036	-0.262126
H304	H	0.768239	-0.196638	-0.344880
H305	H	0.794221	-0.156692	-0.264353
H306	H	0.716407	-0.107142	-0.101066
H307	H	0.612614	-0.097539	-0.018312
H308	H	0.364399	0.321680	0.078257
H309	H	0.773240	0.151889	-0.494933
C310	C	0.278990	0.703083	0.090724
C311	C	0.254627	0.757243	0.138246
C312	C	0.278951	0.762719	0.185764
C313	C	0.327639	0.714034	0.185761
C314	C	0.352004	0.659870	0.138238
C315	C	0.327680	0.654395	0.090720
H316	H	0.218583	0.793286	0.138249
H317	H	0.260914	0.802815	0.220944
H318	H	0.345645	0.718087	0.220937
H319	H	0.388048	0.623827	0.138235
H320	H	0.345717	0.614298	0.055540
C321	C	0.739372	0.405421	-0.531689
C322	C	0.733286	0.434478	-0.592038
C323	C	0.757649	0.404660	-0.678356
C324	C	0.788098	0.345785	-0.704325
C325	C	0.794185	0.316724	-0.643974
C326	C	0.769822	0.346542	-0.557656
H327	H	0.710744	0.478064	-0.572816
H328	H	0.753142	0.426173	-0.723031
H329	H	0.806133	0.323712	-0.768222
H330	H	0.816727	0.273138	-0.663197
H331	H	0.774328	0.325029	-0.512981
C332	C	0.186132	0.519461	0.531460
C333	C	0.210475	0.549260	0.540148
C334	C	0.186141	0.579085	0.626442
C335	C	0.137464	0.579111	0.704048
C336	C	0.113118	0.549311	0.695362
C337	C	0.137452	0.519486	0.609068
H338	H	0.246510	0.549242	0.482698
H339	H	0.204163	0.601145	0.632871
H340	H	0.119450	0.601190	0.767927
H341	H	0.077082	0.549330	0.752813
H342	H	0.119430	0.497426	0.602639
H343	H	0.652766	0.321532	-0.381330
C344	C	0.139648	0.462580	0.514862
C345	C	0.078791	0.514020	0.577432
C346	C	0.030105	0.514053	0.655040
C347	C	0.042276	0.462645	0.670078
C348	C	0.103135	0.411201	0.607507
C349	C	0.151821	0.411168	0.529899
H350	H	0.069780	0.552079	0.566302
H351	H	-0.014947	0.552135	0.701360
H352	H	0.006235	0.462669	0.727528
H353	H	0.112147	0.373142	0.618637
H354	H	0.196873	0.373086	0.483579
C355	C	0.198483	0.543034	0.128279
C356	C	0.218341	0.579392	0.103944
C357	C	0.200488	0.621573	0.171145
C358	C	0.162776	0.627394	0.262681
C359	C	0.142916	0.591034	0.287021
C360	C	0.160770	0.548854	0.219820
H361	H	0.246259	0.575084	0.036180
H362	H	0.215190	0.648489	0.153127
H363	H	0.149560	0.658619	0.312427
H364	H	0.114998	0.595343	0.354785
H365	H	0.146068	0.521938	0.237838
C366	C	0.186105	0.405652	0.350111
C367	C	0.137423	0.405682	0.427714
C368	C	0.113066	0.375893	0.419028
C369	C	0.137392	0.346075	0.332740
C370	C	0.186077	0.346044	0.255131
C371	C	0.210433	0.375832	0.263816
H372	H	0.119413	0.427756	0.491596
H373	H	0.077026	0.375916	0.476480
H374	H	0.119362	0.324023	0.326310
H375	H	0.204086	0.323969	0.191249
H376	H	0.246473	0.375809	0.206364
H377	H	-0.416829	0.531900	0.110670
H378	H	0.652735	0.511510	-0.224563
C379	C	0.523332	0.506346	-0.499234
C380	C	0.549247	0.525935	-0.569610
C381	C	0.581538	0.549370	-0.568648
C382	C	0.587915	0.553216	-0.497309
C383	C	0.562000	0.533627	-0.426928
C384	C	0.529709	0.510192	-0.427890
H385	H	0.544527	0.523088	-0.622424
H386	H	0.600722	0.563871	-0.620749
H387	H	0.611819	0.570564	-0.496596
H388	H	0.566720	0.536473	-0.374114
H389	H	0.510525	0.495690	-0.375789
C390	C	-0.136270	0.581296	0.189296
C391	C	-0.177222	0.566025	0.247231
C392	C	-0.243742	0.608196	0.314437
C393	C	-0.269310	0.665638	0.323709
C394	C	-0.228358	0.680912	0.265773
C395	C	-0.161838	0.638741	0.198566
H396	H	-0.158295	0.523500	0.240369
H397	H	-0.274057	0.596889	0.357326
H398	H	-0.318552	0.696856	0.373459
H399	H	-0.247285	0.723437	0.272634
H400	H	-0.131523	0.650048	0.155678
H401	H	-0.171451	0.570326	0.171831
C402	C	0.646458	0.335610	0.090466
C403	C	0.689059	0.351859	0.067888
C404	C	0.664717	0.406014	0.115406
C405	C	0.597774	0.443919	0.185502
C406	C	0.555168	0.427672	0.208084
C407	C	0.579510	0.373517	0.160566
H408	H	0.738618	0.323798	0.015995
H409	H	0.696257	0.418041	0.098689
H410	H	0.579755	0.484008	0.220677
H411	H	0.505609	0.455733	0.259976
H412	H	0.547970	0.361489	0.177283
H413	H	0.272718	0.413352	0.224380
H414	H	0.272700	0.701644	0.224413
H415	H	0.733094	0.241242	0.078078
H416	H	0.733013	0.511490	-0.352505
H417	H	0.122862	0.532054	0.110811
H418	H	0.652753	0.413187	-0.381312
H419	H	0.044439	0.354547	-0.172084
C420	C	0.359577	0.382009	-0.128328
C421	C	0.400526	0.397284	-0.186256
C422	C	0.467046	0.355116	-0.253465
C423	C	0.492618	0.297672	-0.262746
C424	C	0.451669	0.282394	-0.204816
C425	C	0.385149	0.324562	-0.137607
H426	H	0.381596	0.439810	-0.179387
H427	H	0.497359	0.366427	-0.296348
H428	H	0.541861	0.266457	-0.312498
H429	H	0.470599	0.239868	-0.211685
H430	H	0.354836	0.313251	-0.094724
C431	C	-0.031174	0.343572	-0.189555
C432	C	0.006536	0.337763	-0.281085
C433	C	0.024403	0.295583	-0.348304
C434	C	0.004560	0.259213	-0.323993
C435	C	-0.033152	0.265021	-0.232459
C436	C	-0.051019	0.307200	-0.165240
H437	H	0.021227	0.364687	-0.299085
H438	H	0.052321	0.291284	-0.416063
H439	H	0.017786	0.227989	-0.373752
H440	H	-0.047843	0.238096	-0.214458
H441	H	-0.078936	0.311499	-0.097480
C442	C	0.348897	0.242849	0.090625
C443	C	0.333980	0.219891	0.044339
C444	C	0.274339	0.225406	0.091874
C445	C	0.229615	0.253879	0.185696
C446	C	0.244531	0.276840	0.231988
C447	C	0.304172	0.271324	0.184453
H448	H	0.367088	0.198811	-0.025119
H449	H	0.263297	0.208409	0.057605
H450	H	0.185465	0.257962	0.220884
H451	H	0.211422	0.297919	0.301446
H452	H	0.315214	0.288321	0.218722
C453	C	-0.273014	0.381838	-0.128494
C454	C	-0.235310	0.376033	-0.220024
C455	C	-0.217459	0.333864	-0.287240
C456	C	-0.237311	0.297500	-0.262926
C457	C	-0.275017	0.303304	-0.171392
C458	C	-0.292868	0.345473	-0.104176
H459	H	-0.220612	0.402953	-0.238026
H460	H	-0.189547	0.329567	-0.354999
H461	H	-0.224097	0.266283	-0.312683
H462	H	-0.289714	0.276384	-0.153390
H463	H	-0.320780	0.349770	-0.036417
C464	C	-0.043370	0.581319	0.189313
C465	C	-0.023516	0.617680	0.164982
C466	C	-0.041367	0.659857	0.232186
C467	C	-0.079073	0.665673	0.323721
C468	C	-0.098929	0.629310	0.348056
C469	C	-0.081078	0.587133	0.280852
H470	H	0.004398	0.613376	0.097219
H471	H	-0.026668	0.686775	0.214171
H472	H	-0.092287	0.696895	0.373469
H473	H	-0.126843	0.633614	0.415819
H474	H	-0.095777	0.560215	0.298867
H475	H	-0.197391	0.392802	-0.110999
H476	H	0.096904	0.354560	-0.172047
C477	C	0.294671	0.066452	0.133867
C478	C	0.279748	0.043501	0.087582
C479	C	0.220102	0.049023	0.135119
C480	C	0.175380	0.077497	0.228941
C481	C	0.190303	0.100450	0.275232
C482	C	0.249948	0.094927	0.227694
H483	H	0.312855	0.022421	0.018124
H484	H	0.209056	0.032032	0.100851
H485	H	0.131227	0.081585	0.264131
H486	H	0.157196	0.121530	0.344689
H487	H	0.260994	0.111919	0.261962
C488	C	0.348867	-0.204037	0.090678
C489	C	0.304138	-0.187745	0.068154
C490	C	0.244501	-0.133573	0.115694
C491	C	0.229593	-0.095693	0.185757
C492	C	0.274322	-0.111984	0.208285
C493	C	0.333960	-0.166156	0.160745
H494	H	0.315173	-0.215787	0.016286
H495	H	0.211389	-0.121514	0.099017
H496	H	0.185446	-0.055592	0.220949
H497	H	0.263287	-0.083942	0.260153
H498	H	0.367071	-0.178216	0.177422
H499	H	0.310169	0.145278	0.121501
C500	C	0.576559	-0.410888	-0.090813
C501	C	0.636187	-0.416385	-0.138338
C502	C	0.695824	-0.470557	-0.185866
C503	C	0.695833	-0.519232	-0.185870
C504	C	0.636202	-0.513736	-0.138343
C505	C	0.576565	-0.459564	-0.090815
H506	H	0.636182	-0.380352	-0.138337
H507	H	0.739967	-0.474625	-0.221049
H508	H	0.739980	-0.559333	-0.221053
H509	H	0.636207	-0.549769	-0.138345
H510	H	0.532423	-0.455496	-0.055633
C511	C	0.630796	-0.008829	-0.134044
C512	C	0.675517	-0.037298	-0.227868
C513	C	0.735155	-0.042808	-0.275406
C514	C	0.750073	-0.019849	-0.229121
C515	C	0.705351	0.008622	-0.135292
C516	C	0.645713	0.014132	-0.087754
H517	H	0.664475	-0.054296	-0.262135
H518	H	0.768261	-0.063885	-0.344864
H519	H	0.794221	-0.023928	-0.264311
H520	H	0.716393	0.025619	-0.101024
H521	H	0.612607	0.035208	-0.018295
H522	H	0.177148	0.354580	-0.172027
H523	H	0.364357	-0.298389	0.078331
H524	H	0.561077	-0.316555	-0.078475
H525	H	0.615306	-0.087666	-0.121694
H526	H	0.561109	0.142973	-0.078540
H527	H	0.561110	0.223250	-0.078543
C528	C	0.341422	0.523080	-0.354356
C529	C	0.288622	0.549082	-0.362059
C530	C	0.223945	0.581394	-0.283889
C531	C	0.212067	0.587703	-0.198015
C532	C	0.264869	0.561699	-0.190308
C533	C	0.329546	0.529388	-0.268478
H534	H	0.297413	0.544412	-0.425631
H535	H	0.184857	0.600643	-0.289595
H536	H	0.164189	0.611622	-0.140149
H537	H	0.256077	0.566369	-0.126736
H538	H	0.368633	0.510138	-0.262773
H539	H	0.310160	0.012548	0.121531
H540	H	0.310161	-0.067726	0.121534
