data_functionalizedCrystal
_audit_creation_method	'MofGen! by Chris Wilmer'
_symmetry_space_group_name_H-M	'P1'
_symmetry_Int_Tables_number	1
_symmetry_cell_setting	triclinic
loop_
_symmetry_equiv_pos_as_xyz
  x,y,z
_cell_length_a	18.215407
_cell_length_b	12.759400
_cell_length_c	18.215399
_cell_angle_alpha	90.024546
_cell_angle_beta	90.019833
_cell_angle_gamma	90.015132
loop_
_atom_site_label
_atom_site_type_symbol
_atom_site_fract_x
_atom_site_fract_y
_atom_site_fract_z
Zn1	Zn	1.125124	-0.418265	0.416133
Zn2	Zn	1.125054	-0.593962	0.293074
Zn3	Zn	1.002057	-0.418299	0.293081
Zn4	Zn	1.002044	-0.593903	0.416099
O5	O	1.063570	-0.506107	0.354597
O6	O	1.228099	-0.441581	0.399821
O7	O	1.108714	-0.570699	0.190091
O8	O	1.018416	-0.271273	0.309421
O9	O	1.228048	-0.570665	0.309410
O10	O	1.108833	-0.271248	0.399827
O11	O	1.018349	-0.441640	0.190096
O12	O	0.899071	-0.441583	0.309388
O13	O	1.018395	-0.570566	0.519088
O14	O	0.899062	-0.570599	0.399769
O15	O	1.108821	-0.441525	0.519113
O16	O	1.108703	-0.740975	0.309377
O17	O	1.018328	-0.740932	0.399763
C18	C	0.872364	-0.506089	0.354576
C19	C	0.790565	-0.506107	0.354584
C20	C	0.602385	-0.573391	0.401587
C21	C	0.525527	-0.573394	0.401596
C22	C	0.525506	-0.438842	0.307623
C23	C	0.602364	-0.438835	0.307618
C24	C	0.640801	-0.506115	0.354599
C25	C	0.487085	-0.506126	0.354613
C26	C	0.403752	-0.506129	0.354623
C27	C	0.724140	-0.506111	0.354590
C28	C	1.063526	-0.779075	0.354582
C29	C	1.063575	-0.895851	0.354600
C30	C	1.110685	-0.950701	0.307588
C31	C	1.110731	-1.060425	0.307610
C32	C	1.016549	-1.060440	0.401659
C33	C	1.016508	-0.950718	0.401639
C34	C	1.157753	-0.895834	0.260548
C35	C	1.204866	-0.950683	0.213532
C36	C	1.204911	-1.060407	0.213554
C37	C	1.157843	-1.115282	0.260593
C38	C	1.255523	-0.506126	0.354618
C39	C	1.337322	-0.506134	0.354628
C40	C	1.063615	-0.506035	0.546550
C41	C	1.063634	-0.506004	0.628349
C42	C	1.063634	-0.232074	0.354628
C43	C	1.063661	-0.115297	0.354642
C44	C	1.063568	-0.506103	0.163391
C45	C	1.063691	-0.505838	0.081592
C46	C	1.110736	-0.438749	0.816557
C47	C	1.110744	-0.438719	0.893416
C48	C	1.016584	-0.573096	0.893379
C49	C	1.016572	-0.573120	0.816521
C50	C	1.063652	-0.505949	0.778112
C51	C	1.063673	-0.505894	0.931829
C52	C	1.063682	-0.505861	1.015162
C53	C	1.063642	-0.505980	0.694773
H54	H	1.157719	-0.806491	0.260522
C55	C	1.246613	-0.782479	0.171732
C56	C	1.256602	-0.890370	0.161829
H57	H	1.278552	-0.745248	0.139809
H58	H	1.257352	-0.764439	0.221179
H59	H	1.197163	-0.764580	0.160913
H60	H	1.306052	-0.908270	0.172653
H61	H	1.245869	-0.908418	0.112371
C62	C	0.626095	-0.624776	0.526142
C63	C	0.644639	-0.647332	0.453234
H64	H	0.652184	-0.670420	0.558028
H65	H	0.574830	-0.634412	0.532864
H66	H	0.638709	-0.554200	0.536981
H67	H	0.632020	-0.717906	0.442393
H68	H	0.695915	-0.637704	0.446508
H69	H	0.633643	-0.384044	0.269355
H70	H	1.243279	-1.105063	0.175277
C71	C	1.006315	-1.183759	0.500659
C72	C	0.964809	-1.120759	0.453356
H73	H	0.974369	-1.221000	0.532570
H74	H	1.038338	-1.140891	0.528832
H75	H	1.034376	-1.232123	0.472654
H76	H	0.936751	-1.072389	0.481361
H77	H	0.932773	-1.163629	0.425180
H78	H	1.157889	-1.204627	0.260614
C79	C	0.439142	-0.588179	0.500582
C80	C	0.483301	-0.647348	0.453246
H81	H	0.413079	-0.633838	0.532473
H82	H	0.405252	-0.548127	0.472604
H83	H	0.469153	-0.542457	0.528780
H84	H	0.453289	-0.693065	0.425043
H85	H	0.517195	-0.687418	0.481227
H86	H	0.978147	-0.906059	0.439921
C87	C	1.203802	-0.305911	0.824317
C88	C	1.162478	-0.364905	0.774337
H89	H	1.235741	-0.260316	0.798252
H90	H	1.231948	-0.351676	0.854290
H91	H	1.171741	-0.265719	0.854295
H92	H	1.194539	-0.405103	0.744362
H93	H	1.134329	-0.319134	0.744351
C94	C	1.121009	-0.297356	0.979856
C95	C	1.162499	-0.364846	0.935671
H96	H	1.152962	-0.251742	1.005937
H97	H	1.092985	-0.337355	1.013732
H98	H	1.088950	-0.257187	0.949861
H99	H	1.194554	-0.405020	0.965667
H100	H	1.190536	-0.324842	0.901792
C101	C	0.407680	-0.379109	0.265905
C102	C	0.483253	-0.364895	0.255981
H103	H	0.381597	-0.333460	0.234018
H104	H	0.395111	-0.363824	0.315365
H105	H	0.395077	-0.449684	0.255048
H106	H	0.495856	-0.294321	0.266843
H107	H	0.495827	-0.380173	0.206509
C108	C	0.974797	-0.632731	1.011180
C109	C	0.964841	-0.646937	0.935600
H110	H	0.942855	-0.678325	1.037243
H111	H	0.964041	-0.562145	1.023780
H112	H	1.024245	-0.648107	1.023774
H113	H	0.915394	-0.631553	0.923005
H114	H	0.975592	-0.717539	0.922994
C115	C	0.923503	-0.705960	0.824198
C116	C	0.964817	-0.646997	0.774257
H117	H	0.891556	-0.751568	0.798104
H118	H	0.895366	-0.660178	0.854175
H119	H	0.955571	-0.746138	0.854177
H120	H	0.932749	-0.606813	0.744281
H121	H	0.992956	-0.692785	0.744268
