data_functionalizedCrystal
_audit_creation_method	'MofGen! by Chris Wilmer'
_symmetry_space_group_name_H-M	'P1'
_symmetry_Int_Tables_number	1
_symmetry_cell_setting	triclinic
loop_
_symmetry_equiv_pos_as_xyz
  x,y,z
_cell_length_a	25.639239
_cell_length_b	12.759401
_cell_length_c	12.759393
_cell_angle_alpha	90.021396
_cell_angle_beta	89.962897
_cell_angle_gamma	89.960492
loop_
_atom_site_label
_atom_site_type_symbol
_atom_site_fract_x
_atom_site_fract_y
_atom_site_fract_z
Zn1	Zn	-0.208108	-1.606080	-0.594024
Zn2	Zn	-0.295555	-1.605901	-0.418327
Zn3	Zn	-0.208137	-1.430382	-0.418354
Zn4	Zn	-0.295516	-1.430297	-0.593959
O5	O	-0.251829	-1.518165	-0.506166
O6	O	-0.219713	-1.753077	-0.570733
O7	O	-0.283987	-1.582578	-0.271309
O8	O	-0.134968	-1.453799	-0.441695
O9	O	-0.283960	-1.752946	-0.441649
O10	O	-0.134947	-1.582884	-0.570759
O11	O	-0.219761	-1.453626	-0.271329
O12	O	-0.219723	-1.283350	-0.441633
O13	O	-0.283893	-1.453654	-0.740989
O14	O	-0.283920	-1.283287	-0.570649
O15	O	-0.219675	-1.582801	-0.741036
O16	O	-0.368715	-1.582496	-0.441587
O17	O	-0.368686	-1.453481	-0.570623
C18	C	-0.251821	-1.245198	-0.506138
C19	C	-0.251830	-1.128421	-0.506151
C20	C	-0.285308	-1.073554	-0.573222
C21	C	-0.285309	-0.963830	-0.573240
C22	C	-0.218353	-0.963849	-0.439106
C23	C	-0.218350	-1.073572	-0.439094
C24	C	-0.387672	-1.517988	-0.506118
C25	C	-0.445786	-1.518009	-0.506133
C26	C	-0.806151	-1.585519	-0.439091
C27	C	-0.860755	-1.585559	-0.439105
O28	O	-0.888994	-1.642775	-0.382052
N29	N	-0.888068	-1.518350	-0.506236
C30	C	-0.860773	-1.451102	-0.573364
O31	O	-0.889019	-1.393940	-0.630465
C32	C	-0.806170	-1.451068	-0.573354
C33	C	-0.778860	-1.518274	-0.506212
C34	C	-0.778841	-1.652720	-0.371955
C35	C	-0.724241	-1.652678	-0.371940
C36	C	-0.696950	-1.585434	-0.439061
C37	C	-0.724260	-1.518232	-0.506197
C38	C	-0.778877	-1.383827	-0.640487
C39	C	-0.724270	-1.383798	-0.640472
C40	C	-0.696960	-1.451005	-0.573330
C41	C	-0.642369	-1.450945	-0.573303
N42	N	-0.615056	-1.518155	-0.506172
C43	C	-0.642347	-1.585399	-0.439051
C44	C	-0.975444	-1.451181	-0.573380
C45	C	-1.030046	-1.451210	-0.573385
C46	C	-1.030024	-1.585669	-0.439128
C47	C	-0.975421	-1.585634	-0.439118
C48	C	-0.948131	-1.518391	-0.506250
C49	C	-0.527682	-1.585304	-0.439024
C50	C	-0.473076	-1.585253	-0.439012
C51	C	-0.473103	-1.450799	-0.573273
C52	C	-0.527703	-1.450846	-0.573281
C53	C	-0.554991	-1.518107	-0.506154
O54	O	-0.614095	-1.393761	-0.630330
O55	O	-0.614094	-1.642562	-0.381969
C56	C	-0.115456	-1.518371	-0.506237
C57	C	-0.057342	-1.518459	-0.506268
C58	C	-0.251776	-1.518238	-0.780200
C59	C	-0.251754	-1.518270	-0.896976
C60	C	-0.251836	-0.792198	-0.506188
C61	C	-0.251835	-0.908975	-0.506180
C62	C	-0.218305	-1.451148	-0.951848
C63	C	-0.218289	-1.451172	-1.061572
C64	C	-0.285171	-1.585449	-1.061543
C65	C	-0.285190	-1.585419	-0.951821
C66	C	-0.251844	-1.518152	-0.233199
C67	C	-0.251719	-1.518325	-0.116423
H68	H	-0.450842	-1.639980	-0.384333
C69	C	-1.060084	-1.377278	-0.647233
H70	H	-1.096513	-1.386921	-0.637631
H71	H	-1.051096	-1.392610	-0.717833
H72	H	-1.051177	-1.306687	-0.631782
H73	H	-1.052254	-1.640426	-0.384478
H74	H	-0.312393	-1.640120	-1.106211
C75	C	-0.321984	-1.659258	-0.891458
H76	H	-0.341889	-1.699264	-0.939834
H77	H	-0.344769	-1.619020	-0.848636
H78	H	-0.301989	-1.705056	-0.848673
H79	H	-0.191096	-0.919178	-0.384509
C80	C	-0.181503	-1.377327	-1.121932
H81	H	-0.186286	-1.386946	-1.195134
H82	H	-0.146375	-1.392739	-1.103984
H83	H	-0.189165	-1.306722	-1.103926
C84	C	-0.322135	-0.903476	-0.647016
H85	H	-0.317339	-0.830273	-0.637430
H86	H	-0.357254	-0.921403	-0.631508
H87	H	-0.314521	-0.921506	-0.717635
C88	C	-0.322130	-1.133885	-0.646991
H89	H	-0.342064	-1.085489	-0.686945
H90	H	-0.344887	-1.176642	-0.606718
H91	H	-0.302150	-1.176732	-0.692840
H92	H	-0.801103	-1.329095	-0.695157
H93	H	-0.549940	-1.396124	-0.627957
C94	C	-0.181535	-1.377271	-0.891522
H95	H	-0.161617	-1.337290	-0.939921
H96	H	-0.158761	-1.417472	-0.848732
H97	H	-0.201549	-1.331450	-0.848709
H98	H	-0.191085	-1.118245	-0.384476
C99	C	-0.557691	-1.659282	-0.365178
H100	H	-0.533599	-1.699286	-0.325190
H101	H	-0.578954	-1.705061	-0.405401
H102	H	-0.579028	-1.619125	-0.319363
C103	C	-0.694207	-1.726619	-0.298096
H104	H	-0.718287	-1.766676	-0.258138
H105	H	-0.672941	-1.686454	-0.252270
H106	H	-0.672871	-1.772366	-0.338333
C107	C	-0.945430	-1.377197	-0.647217
H108	H	-0.969520	-1.337173	-0.687187
H109	H	-0.924091	-1.417338	-0.693033
H110	H	-0.924169	-1.331421	-0.606975
C111	C	-0.808855	-1.726680	-0.298104
H112	H	-0.845288	-1.717089	-0.307713
H113	H	-0.799931	-1.711321	-0.227506
H114	H	-0.799865	-1.797263	-0.313538
C115	C	-0.945385	-1.659568	-0.365271
H116	H	-0.969464	-1.699622	-0.325306
H117	H	-0.924119	-1.619398	-0.319451
H118	H	-0.924050	-1.705319	-0.405505
C119	C	-0.694254	-1.309830	-0.714320
H120	H	-0.718342	-1.269810	-0.754299
H121	H	-0.672915	-1.349980	-0.760126
H122	H	-0.672993	-1.264049	-0.674083
H123	H	-0.450874	-1.396046	-0.627919
