data_functionalizedCrystal
_audit_creation_method	'MofGen! by Chris Wilmer'
_symmetry_space_group_name_H-M	'P1'
_symmetry_Int_Tables_number	1
_symmetry_cell_setting	triclinic
loop_
_symmetry_equiv_pos_as_xyz
  x,y,z
_cell_length_a	14.971486
_cell_length_b	17.038272
_cell_length_c	14.048226
_cell_angle_alpha	89.993466
_cell_angle_beta	89.998499
_cell_angle_gamma	87.362843
loop_
_atom_site_label
_atom_site_type_symbol
_atom_site_fract_x
_atom_site_fract_y
_atom_site_fract_z
O1	O	1.194576	0.101897	-0.079052
O2	O	0.935090	0.114100	-0.079077
O3	O	1.063291	-0.005819	-0.079057
O4	O	1.066375	0.221816	-0.079072
O5	O	1.063274	-0.005826	0.079264
O6	O	0.935073	0.114093	0.079244
O7	O	1.194559	0.101890	0.079270
Zn8	Zn	1.064813	0.107990	0.104394
Zn9	Zn	1.064836	0.108000	-0.104201
O10	O	1.066358	0.221809	0.079249
C11	C	0.901716	0.113551	0.000080
C12	C	0.802296	0.111915	0.000070
C13	C	0.750345	0.182364	0.000067
C14	C	0.656930	0.180823	0.000081
C15	C	0.615468	0.108832	0.000092
C16	C	0.667426	0.038378	0.000098
C17	C	0.760839	0.039920	0.000091
C18	C	0.472723	0.035169	0.000111
C19	C	0.379303	0.033626	0.000117
C20	C	0.368815	0.176072	0.000102
C21	C	0.462228	0.177614	0.000095
C22	C	0.514179	0.107159	0.000099
C23	C	1.060477	-0.034954	0.000103
C24	C	1.052107	-0.121756	0.000102
C25	C	1.128951	-0.171781	0.000111
C26	C	1.121081	-0.253341	0.000101
C27	C	1.036367	-0.284874	0.000089
C28	C	0.959518	-0.234843	0.000078
C29	C	0.967388	-0.153285	0.000081
C30	C	1.008563	-0.530664	0.000073
C31	C	1.000698	-0.612229	0.000073
C32	C	1.162262	-0.630721	0.000095
C33	C	1.170125	-0.549161	0.000103
C34	C	1.093276	-0.499137	0.000087
C35	C	1.028321	-0.368241	0.000082
C36	C	1.101323	-0.415771	0.000087
C37	C	1.227933	0.102440	0.000110
C38	C	1.327353	0.104075	0.000114
C39	C	1.069172	0.250944	0.000087
C40	C	1.077542	0.337746	0.000082
N41	N	1.064804	0.107984	0.246754
N42	N	1.064851	0.108000	-0.246562
C43	C	1.121592	0.054906	0.296581
C44	C	1.121599	0.054905	0.396239
C45	C	1.064820	0.107987	0.446068
C46	C	1.008026	0.161067	0.396234
C47	C	1.008016	0.161064	0.296578
C48	C	1.008052	0.161073	0.603948
C49	C	1.008063	0.161078	0.703611
C50	C	1.121635	0.054915	0.703609
C51	C	1.121625	0.054911	0.603953
C52	C	1.064831	0.107993	0.554126
H53	H	0.345548	-0.024995	0.000127
H54	H	0.961827	0.204302	0.744176
H55	H	0.614636	0.238189	0.000078
C56	C	0.860582	-0.621587	-0.081352
C57	C	0.907576	-0.646897	0.000049
H58	H	0.803099	-0.642996	-0.081368
H59	H	0.854262	-0.565861	-0.081347
H60	H	0.892509	-0.638750	-0.136547
H61	H	0.875652	-0.629729	0.055244
H62	H	0.913892	-0.702634	0.000052
H63	H	0.326511	0.233438	0.000103
H64	H	0.945986	-0.489944	0.000060
C65	C	0.895753	0.265995	0.386218
C66	C	0.945606	0.219412	0.451002
H67	H	0.857214	0.302011	0.420031
H68	H	0.935119	0.294177	0.347341
H69	H	0.861105	0.233387	0.347357
H70	H	0.980259	0.252019	0.489859
H71	H	0.906235	0.191228	0.489895
C72	C	0.869408	-0.341777	0.000065
C73	C	0.935203	-0.402905	0.000070
H74	H	0.811922	-0.363180	0.000049
H75	H	0.875826	-0.310361	0.055276
H76	H	0.875848	-0.310340	-0.055145
H77	H	0.928767	-0.434339	0.055284
H78	H	0.928783	-0.434334	-0.055147
C79	C	1.329035	-0.575635	0.000123
C80	C	1.263246	-0.514502	0.000118
H81	H	1.386523	-0.554236	0.000131
H82	H	1.322595	-0.607067	0.055326
H83	H	1.322611	-0.607054	-0.055095
H84	H	1.269667	-0.483086	0.055340
H85	H	1.269689	-0.483057	-0.055091
C86	C	0.996682	0.267443	0.184480
C87	C	0.945596	0.219409	0.241801
H88	H	0.958142	0.303458	0.150660
H89	H	1.036049	0.295626	0.223344
H90	H	1.030492	0.235819	0.140548
H91	H	0.911791	0.251033	0.285738
H92	H	0.906213	0.191224	0.202933
C93	C	1.247150	-0.733154	-0.081292
C94	C	1.246733	-0.685708	0.000100
H95	H	1.299304	-0.767096	-0.081292
H96	H	1.195579	-0.763604	-0.081289
H97	H	1.246864	-0.700937	-0.136493
H98	H	1.247012	-0.717925	0.055301
H99	H	1.298317	-0.655255	0.000105
H100	H	0.803137	-0.017447	0.000093
C101	C	1.287858	-0.198260	0.000115
C102	C	1.222073	-0.137124	0.000117
H103	H	1.345347	-0.176864	0.000109
H104	H	1.281426	-0.229689	0.055322
H105	H	1.281421	-0.229682	-0.055099
H106	H	1.228505	-0.105705	0.055335
H107	H	1.228508	-0.105682	-0.055096
H108	H	0.890541	-0.260524	0.000062
H109	H	0.633660	-0.020239	0.000120
C110	C	0.730585	0.323009	0.000063
C111	C	0.795916	0.261500	0.000058
H112	H	0.758719	0.371864	0.000066
H113	H	0.694369	0.319448	-0.055141
H114	H	0.694370	0.319434	0.055280
H115	H	0.832127	0.265071	-0.055163
H116	H	0.832147	0.265062	0.055267
H117	H	0.515019	-0.022203	0.000116
H118	H	1.183656	-0.294068	0.000110
H119	H	0.904813	-0.112555	0.000073
C120	C	0.561223	0.261976	0.081436
C121	C	0.507817	0.256741	0.000064
H122	H	0.589374	0.310823	0.081409
H123	H	0.525005	0.258433	0.136644
H124	H	0.605520	0.220227	0.081431
H125	H	0.463516	0.298487	0.000072
H126	H	0.544037	0.260292	-0.055159
H127	H	1.170296	-0.390093	0.000076
H128	H	1.167832	0.011684	0.256017
H129	H	1.167839	0.011685	0.436808
C130	C	1.233883	-0.050031	0.613956
C131	C	1.184035	-0.003438	0.549179
H132	H	1.272406	-0.086057	0.580139
H133	H	1.268539	-0.017437	0.652811
H134	H	1.194506	-0.078210	0.652840
H135	H	1.223411	0.024745	0.510300
H136	H	1.149376	-0.036036	0.510308
C137	C	1.132979	-0.051486	0.815680
C138	C	1.184062	-0.003440	0.758370
H139	H	1.171521	-0.087511	0.849483
H140	H	1.099174	-0.019877	0.859617
H141	H	1.093606	-0.079664	0.776801
H142	H	1.223430	0.024743	0.797249
H143	H	1.217882	-0.035053	0.714428
H144	H	0.961801	0.204295	0.563382
