data_functionalizedCrystal
_audit_creation_method	'MofGen! by Chris Wilmer'
_symmetry_space_group_name_H-M	'P1'
_symmetry_Int_Tables_number	1
_symmetry_cell_setting	triclinic
loop_
_symmetry_equiv_pos_as_xyz
  x,y,z
_cell_length_a	6.817900
_cell_length_b	9.514072
_cell_length_c	11.102291
_cell_angle_alpha	88.635729
_cell_angle_beta	108.605752
_cell_angle_gamma	118.843421
loop_
_atom_site_label
_atom_site_type_symbol
_atom_site_fract_x
_atom_site_fract_y
_atom_site_fract_z
V1	V	-4.170291	-0.222225	-0.397255
O2	O	-4.067753	0.010658	-0.388668
O3	O	-4.204806	-0.440614	-0.395523
O4	O	-4.146174	-0.218815	-0.570062
O5	O	-4.126791	-0.212676	-0.212921
V6	V	-4.640028	-0.194368	-0.375087
O7	O	-4.461789	-0.283330	-0.445881
O8	O	-4.798727	-0.133262	-0.326461
O9	O	-4.382307	0.024021	-0.376819
O10	O	-4.859963	-0.427251	-0.383674
O11	O	-4.800925	-0.203917	-0.559421
O12	O	-4.440938	-0.197777	-0.202280
C13	C	-4.069192	-0.493852	-0.389511
C14	C	-4.178861	-0.672389	-0.389247
C15	C	-3.994399	-0.210924	-0.612150
C16	C	-4.056514	-0.209582	-0.753427
C17	C	-4.271819	-0.216961	-0.826308
C18	C	-4.330149	-0.215668	-0.959049
C19	C	-3.957850	-0.199623	-0.946015
C20	C	-3.899516	-0.200904	-0.813276
C21	C	-4.428817	-0.225638	-0.766459
C22	C	-4.644139	-0.233020	-0.839341
C23	C	-4.702468	-0.231727	-0.972082
C24	C	-4.545476	-0.223053	-1.031940
C25	C	-4.181265	0.077251	-0.382828
C26	C	-4.050837	0.255786	-0.383100
C27	C	-4.256056	-0.205674	-0.160185
C28	C	-4.173177	-0.207008	-0.018907
H29	H	-4.372408	-0.747498	-0.394352
Br30	Br	-4.994670	-0.241726	-1.070988
Br31	Br	-4.349677	-0.227410	-0.586315
Br32	Br	-4.624616	-0.221258	-1.212084
H33	H	-3.857294	-0.669109	-0.377977
H34	H	-4.771944	-0.240073	-0.790594
Br35	Br	-3.607286	-0.190856	-0.714353
H36	H	-3.830041	-0.192562	-0.994763
