data_functionalizedCrystal
_audit_creation_method	'MofGen! by Chris Wilmer'
_symmetry_space_group_name_H-M	'P1'
_symmetry_Int_Tables_number	1
_symmetry_cell_setting	triclinic
loop_
_symmetry_equiv_pos_as_xyz
  x,y,z
_cell_length_a	17.699083
_cell_length_b	17.699104
_cell_length_c	16.776229
_cell_angle_alpha	89.991971
_cell_angle_beta	90.000201
_cell_angle_gamma	96.712734
loop_
_atom_site_label
_atom_site_type_symbol
_atom_site_fract_x
_atom_site_fract_y
_atom_site_fract_z
O1	O	-0.095788	1.004069	-0.066293
O2	O	0.404212	1.504069	0.433707
O3	O	-0.108224	0.783692	-0.066290
O4	O	0.391776	1.283692	0.433710
O5	O	0.008183	0.900107	-0.066299
O6	O	0.508183	1.400107	0.433701
O7	O	-0.212195	0.887654	-0.066283
O8	O	0.287805	1.387654	0.433717
O9	O	0.008190	0.900091	0.066277
O10	O	0.508190	1.400091	0.566277
O11	O	-0.108217	0.783677	0.066287
O12	O	0.391783	1.283677	0.566287
O13	O	-0.095781	1.004053	0.066284
O14	O	0.404219	1.504053	0.566284
Zn15	Zn	-0.101998	0.893863	0.087335
Zn16	Zn	0.398002	1.393863	0.587335
Zn17	Zn	-0.102007	0.893883	-0.087341
Zn18	Zn	0.397993	1.393883	0.412659
O19	O	-0.212188	0.887639	0.066293
O20	O	0.287812	1.387639	0.566293
C21	C	-0.107772	0.755488	-0.000001
C22	C	0.392228	1.255488	0.499999
C23	C	-0.106427	0.671471	-0.000000
C24	C	0.393573	1.171471	0.500000
C25	C	-0.167171	0.146600	-0.000004
C26	C	0.332829	0.646600	0.499996
C27	C	-0.168430	0.225543	-0.000007
C28	C	0.331570	0.725543	0.499993
C29	C	-0.100095	0.274161	-0.000011
C30	C	0.399905	0.774161	0.499989
C31	C	-0.030496	0.243831	-0.000022
C32	C	0.469504	0.743831	0.499978
C33	C	-0.029238	0.164889	-0.000025
C34	C	0.470762	0.664889	0.499975
C35	C	-0.035569	0.562197	-0.000009
C36	C	0.464431	1.062197	0.499991
C37	C	-0.036833	0.641144	-0.000003
C38	C	0.463167	1.141144	0.499997
C39	C	-0.174762	0.622852	0.000010
C40	C	0.325238	1.122852	0.500010
C41	C	-0.173503	0.543909	0.000007
C42	C	0.326497	1.043909	0.500007
C43	C	-0.103905	0.513587	-0.000008
C44	C	0.396095	1.013587	0.499992
C45	C	-0.102541	0.427987	-0.000007
C46	C	0.397459	0.927987	0.499993
C47	C	-0.101459	0.359759	-0.000006
C48	C	0.398541	0.859759	0.499994
C49	C	-0.240388	0.888093	0.000007
C50	C	0.259612	1.388093	0.500007
C51	C	-0.324406	0.889431	0.000013
C52	C	0.175594	1.389431	0.500013
C53	C	-0.373022	0.821099	0.000014
C54	C	0.126978	1.321099	0.500014
C55	C	-0.451966	0.822361	0.000004
C56	C	0.048034	1.322361	0.500004
C57	C	-0.482292	0.891957	-0.000000
C58	C	0.017708	1.391957	0.500000
C59	C	-0.433670	0.960295	-0.000004
C60	C	0.066330	1.460295	0.499996
C61	C	-0.354728	0.959032	-0.000000
C62	C	0.145272	1.459032	0.500000
C63	C	-0.752033	0.965390	-0.000020
C64	C	-0.252033	1.465390	0.499980
C65	C	-0.830981	0.966648	-0.000021
C66	C	-0.330981	1.466648	0.499979
C67	C	-0.849271	0.828719	-0.000015
C68	C	-0.349271	1.328719	0.499985
C69	C	-0.770329	0.827456	-0.000012
C70	C	-0.270329	1.327456	0.499988
C71	C	-0.721714	0.895794	-0.000019
C72	C	-0.221714	1.395794	0.499981
C73	C	-0.636115	0.894424	-0.000011
C74	C	-0.136115	1.394424	0.499989
C75	C	-0.567889	0.893327	-0.000003
C76	C	-0.067889	1.393327	0.499997
C77	C	0.036383	0.899653	-0.000015
C78	C	0.536383	1.399653	0.499985
C79	C	0.120402	0.898314	-0.000026
C80	C	0.620402	1.398314	0.499974
C81	C	-0.096233	1.032258	-0.000007
C82	C	0.403767	1.532258	0.499993
C83	C	-0.097578	1.116275	-0.000013
C84	C	0.402422	1.616275	0.499987
N85	N	-0.101991	0.893854	0.206546
N86	N	0.398009	1.393854	0.706546
N87	N	-0.102008	0.893897	-0.206552
N88	N	0.397992	1.393897	0.293448
C89	C	-0.050467	0.945418	0.248259
C90	C	0.449533	1.445418	0.748259
C91	C	-0.050466	0.945422	0.331711
C92	C	0.449534	1.445422	0.831711
C93	C	-0.101994	0.893866	0.373449
C94	C	0.398006	1.393866	0.873449
C95	C	-0.153520	0.842296	0.331730
C96	C	0.346480	1.342296	0.831730
C97	C	-0.153516	0.842289	0.248279
C98	C	0.346484	1.342289	0.748279
C99	C	-0.153535	0.842324	0.668277
C100	C	0.346465	1.342324	1.168277
C101	C	-0.153536	0.842336	0.751734
C102	C	0.346464	1.342336	1.251734
C103	C	-0.050485	0.945457	0.751709
C104	C	0.449515	1.445457	1.251709
C105	C	-0.050481	0.945450	0.668258
C106	C	0.449519	1.445450	1.168258
C107	C	-0.102004	0.893878	0.626547
C108	C	0.397996	1.393878	1.126547
C109	C	-0.102004	0.893873	0.536058
C110	C	0.397996	1.393873	1.036058
C111	C	-0.101999	0.893874	0.463936
C112	C	0.398001	1.393874	0.963936
H113	H	0.025143	0.283422	-0.000030
H114	H	0.525143	0.783422	0.499970
C115	C	0.047315	0.131531	-0.000032
C116	C	0.547315	0.631531	0.499968
H117	H	0.087833	0.171791	-0.000028
H118	H	0.587833	0.671791	0.499972
H119	H	0.050669	0.101124	-0.046266
H120	H	0.550669	0.601124	0.453734
H121	H	0.050675	0.101109	0.046204
H122	H	0.550675	0.601109	0.546204
H123	H	-0.008511	0.987405	0.214281
H124	H	0.491489	1.487405	0.714281
C125	C	-0.210214	0.785620	0.797648
C126	C	0.289786	1.285620	1.297648
H127	H	-0.202840	0.793018	0.853322
H128	H	0.297160	1.293018	1.353322
H129	H	-0.202050	0.735124	0.783990
H130	H	0.297950	1.235124	1.283990
H131	H	-0.260722	0.793741	0.783967
H132	H	0.239278	1.293741	1.283967
H133	H	-0.712459	1.021035	-0.000021
H134	H	-0.212459	1.521035	0.499979
C135	C	0.006203	1.002150	0.377592
C136	C	0.506203	1.502150	0.877592
H137	H	0.036883	1.032861	0.340782
H138	H	0.536883	1.532861	0.840782
H139	H	0.037681	0.974996	0.410156
H140	H	0.537681	1.474996	0.910156
H141	H	-0.021000	1.033603	0.410134
H142	H	0.479000	1.533603	0.910134
H143	H	-0.458367	1.016961	-0.000006
H144	H	0.041633	1.516961	0.499994
C145	C	-0.301247	1.034195	-0.000002
C146	C	0.198753	1.534195	0.499998
H147	H	-0.249889	1.023476	-0.000008
H148	H	0.250111	1.523476	0.499992
H149	H	-0.310425	1.062738	0.046227
H150	H	0.189575	1.562738	0.546227
H151	H	-0.310426	1.062739	-0.046243
H152	H	0.189574	1.562739	0.453757
H153	H	-0.348338	0.764426	0.000027
H154	H	0.151662	1.264426	0.500027
H155	H	-0.195472	0.800314	0.365718
H156	H	0.304528	1.300314	0.865718
C157	C	-0.505440	0.747195	0.000014
C158	C	-0.005440	1.247195	0.500014
H159	H	-0.476073	0.705566	0.000030
H160	H	0.023927	1.205566	0.500030
H161	H	-0.536615	0.744818	-0.046218
H162	H	-0.036615	1.244818	0.453782
H163	H	-0.536615	0.744822	0.046252
H164	H	-0.036615	1.244822	0.546252
C165	C	-0.244981	0.258902	-0.000000
C166	C	0.255019	0.758902	0.500000
H167	H	-0.235946	0.312879	-0.000010
H168	H	0.264054	0.812879	0.499990
H169	H	-0.273111	0.242203	0.046234
H170	H	0.226889	0.742203	0.546234
H171	H	-0.273111	0.242210	-0.046237
H172	H	0.226889	0.742210	0.453763
C173	C	0.006201	1.002159	0.622351
C174	C	0.506201	1.502159	1.122351
H175	H	0.036893	1.032865	0.659146
H176	H	0.536893	1.532865	1.159146
H177	H	-0.020985	1.033609	0.589784
H178	H	0.479015	1.533609	1.089784
H179	H	0.037678	0.974983	0.589808
H180	H	0.537678	1.474983	1.089808
C181	C	0.006198	1.002178	0.797593
C182	C	0.506198	1.502178	1.297593
H183	H	-0.001175	0.994795	0.853271
H184	H	0.498825	1.494795	1.353271
H185	H	-0.001962	1.052671	0.783905
H186	H	0.498038	1.552671	1.283905
H187	H	0.056705	0.994049	0.783918
H188	H	0.556705	1.494049	1.283918
H189	H	-0.195488	0.800334	0.634322
H190	H	0.304512	1.300334	1.134322
C191	C	-0.248672	0.490434	0.000008
C192	C	0.251328	0.990434	0.500008
H193	H	-0.290301	0.519802	0.000004
H194	H	0.209699	1.019802	0.500004
H195	H	-0.251048	0.459248	0.046237
H196	H	0.248952	0.959248	0.546237
H197	H	-0.251045	0.459270	-0.046234
H198	H	0.248955	0.959270	0.453766
H199	H	-0.195471	0.800300	0.214318
H200	H	0.304529	1.300300	0.714318
C201	C	-0.251322	0.656205	0.000016
C202	C	0.248678	1.156205	0.500016
H203	H	-0.291838	0.615943	0.000027
H204	H	0.208162	1.115943	0.500027
H205	H	-0.254686	0.686627	-0.046215
H206	H	0.245314	1.186627	0.453785
H207	H	-0.254676	0.686613	0.046255
H208	H	0.245324	1.186613	0.546255
C209	C	-0.242341	0.093127	-0.000004
C210	C	0.257659	0.593127	0.499996
H211	H	-0.283968	0.122497	-0.000008
H212	H	0.216032	0.622497	0.499992
H213	H	-0.244720	0.061941	0.046226
H214	H	0.255280	0.561941	0.546226
H215	H	-0.244716	0.061963	-0.046245
H216	H	0.255284	0.561963	0.453755
C217	C	0.038339	0.694623	-0.000019
C218	C	0.538339	1.194623	0.499981
H219	H	0.079970	0.665258	-0.000037
H220	H	0.579970	1.165258	0.499963
H221	H	0.040723	0.725793	0.046213
H222	H	0.540723	1.225793	0.546213
H223	H	0.040702	0.725804	-0.046257
H224	H	0.540702	1.225804	0.453743
C225	C	0.040983	0.528848	-0.000027
C226	C	0.540983	1.028848	0.499973
H227	H	0.031951	0.474870	-0.000040
H228	H	0.531951	0.974870	0.499960
H229	H	0.069122	0.545532	0.046201
H230	H	0.569122	1.045532	0.546201
H231	H	0.069103	0.545556	-0.046269
H232	H	0.569103	1.045556	0.453731
C233	C	-0.736974	0.750901	-0.000010
C234	C	-0.236974	1.250901	0.499990
H235	H	-0.777235	0.710384	-0.000019
H236	H	-0.277235	1.210384	0.499981
H237	H	-0.706560	0.747533	0.046222
H238	H	-0.206560	1.247533	0.546222
H239	H	-0.706559	0.747552	-0.046249
H240	H	-0.206559	1.247552	0.453751
H241	H	-0.888863	0.773075	-0.000012
H242	H	-0.388863	1.273075	0.499988
H243	H	-0.855669	1.023324	-0.000026
H244	H	-0.355669	1.523324	0.499974
