data_functionalizedCrystal
_audit_creation_method	'MofGen! by Chris Wilmer'
_symmetry_space_group_name_H-M	'P1'
_symmetry_Int_Tables_number	1
_symmetry_cell_setting	triclinic
loop_
_symmetry_equiv_pos_as_xyz
  x,y,z
_cell_length_a	26.455835
_cell_length_b	26.455273
_cell_length_c	26.451828
_cell_angle_alpha	60.005170
_cell_angle_beta	60.010757
_cell_angle_gamma	59.993435
loop_
_atom_site_label
_atom_site_type_symbol
_atom_site_fract_x
_atom_site_fract_y
_atom_site_fract_z
O1	O	0.069940	-0.738516	0.617604
O2	O	0.026299	-0.574986	0.497618
O3	O	0.129847	-0.678463	0.497546
O4	O	-0.033607	-0.635040	0.617676
O5	O	0.164197	-0.644116	0.531822
O6	O	0.060649	-0.540639	0.531894
O7	O	0.104290	-0.704170	0.651880
Cu8	Cu	0.085606	-0.619268	0.595016
Cu9	Cu	0.044984	-0.659887	0.554481
O10	O	0.000742	-0.600693	0.651952
N11	N	0.114179	-0.590703	0.623530
N12	N	0.016416	-0.688458	0.525968
C13	C	0.157553	-0.547535	0.933368
C14	C	0.424104	-0.547506	0.666656
C15	C	0.157413	-0.547503	0.666729
C16	C	0.157397	-0.280846	0.666749
C17	C	0.200330	-0.409550	0.709625
C18	C	0.200339	-0.504608	0.709615
C19	C	0.224118	-0.480848	0.733375
C20	C	0.327800	-0.462984	0.678792
C21	C	0.392611	-0.484588	0.657175
C22	C	0.392630	-0.589450	0.697162
C23	C	0.327821	-0.567844	0.718781
C24	C	0.215955	-0.377135	0.645910
C25	C	0.194327	-0.312320	0.624323
C26	C	0.141457	-0.312339	0.730169
C27	C	0.163084	-0.377154	0.751756
C28	C	0.136618	-0.488954	0.725292
C29	C	0.115007	-0.510553	0.703686
C30	C	0.220833	-0.563461	0.650740
C31	C	0.242447	-0.541861	0.672339
C32	C	0.136680	-0.488971	0.837094
C33	C	0.115112	-0.510589	0.901907
C34	C	0.220969	-0.563508	0.901868
C35	C	0.242535	-0.541892	0.837053
C36	C	0.200389	-0.504622	0.804668
C37	C	0.295409	-0.504610	0.709593
C38	C	0.132990	-0.570876	1.004655
C39	C	0.495389	-0.570440	0.642547
C40	C	0.132802	-0.570856	0.643399
C41	C	0.133212	-0.209553	0.643833
C42	C	-0.097217	-0.706972	0.506986
C43	C	-0.002040	-0.707108	0.412067
C44	C	-0.002230	-0.802124	0.507163
C45	C	-0.002214	-0.707101	0.507221
C46	C	-0.025925	-0.730827	0.483360
N47	N	0.553723	-0.590712	0.623415
O48	O	0.751638	-0.596429	0.475603
O49	O	0.751819	-0.716773	0.638980
O50	O	0.751753	-0.716500	0.535361
O51	O	0.751705	-0.596703	0.579222
O52	O	0.648791	-0.682239	0.569747
O53	O	0.648858	-0.682512	0.673366
O54	O	0.648676	-0.562169	0.509989
Cu55	Cu	0.639366	-0.619212	0.594817
Cu56	Cu	0.761130	-0.659729	0.554152
O57	O	0.648743	-0.562442	0.613609
N58	N	0.846773	-0.688230	0.525548
N59	N	0.114157	-0.151217	0.623565
O60	O	-0.033591	0.046803	0.617717
O61	O	0.129795	0.046806	0.497390
O62	O	0.026157	0.046789	0.497680
O63	O	0.070046	0.046819	0.617427
O64	O	0.060509	-0.056181	0.532004
O65	O	0.164146	-0.056164	0.531714
O66	O	0.000760	-0.056167	0.652041
Cu67	Cu	0.085590	-0.065568	0.595012
Cu68	Cu	0.044965	0.056206	0.554419
O69	O	0.104397	-0.056151	0.651751
N70	N	0.016390	0.141855	0.525867
N71	N	0.114410	-0.590756	1.062992
O72	O	0.108565	-0.738494	1.260998
O73	O	-0.011747	-0.575059	1.261012
O74	O	-0.011470	-0.678679	1.260970
O75	O	0.108287	-0.634874	1.261040
O76	O	0.022849	-0.644347	1.158004
O77	O	0.022572	-0.540726	1.158046
O78	O	0.142884	-0.704162	1.158033
Cu79	Cu	0.085861	-0.619309	1.148638
Cu80	Cu	0.045275	-0.659911	1.270406
O81	O	0.142606	-0.600541	1.158074
N82	N	0.016726	-0.688471	1.356052
C83	C	0.039385	-0.537207	0.498225
C84	C	0.167616	-0.665350	0.498136
C85	C	0.091204	-0.741950	0.651272
C86	C	-0.037027	-0.613806	0.651361
C87	C	0.700360	-0.716215	0.676756
C88	C	0.700279	-0.715877	0.548436
C89	C	0.700133	-0.562725	0.472214
C90	C	0.700218	-0.563065	0.600533
C91	C	0.167511	-0.004552	0.497940
C92	C	0.039211	-0.004699	0.498341
C93	C	-0.036999	-0.004682	0.651449
C94	C	0.091344	-0.004663	0.651090
C95	C	-0.011156	-0.537302	1.209530
C96	C	-0.010806	-0.665617	1.209458
C97	C	0.142293	-0.741918	1.209514
C98	C	0.141950	-0.613596	1.209563
H99	H	0.063231	-0.497836	0.928300
O100	O	-0.093024	-0.004564	0.696462
C101	C	-0.203162	0.048776	0.726347
C102	C	-0.139752	0.048722	0.675322
H103	H	-0.240960	0.091846	0.709268
H104	H	-0.203264	0.048828	0.769470
H105	H	-0.212207	0.005663	0.738063
H106	H	-0.130667	0.091828	0.663553
H107	H	-0.139681	0.048637	0.632230
O108	O	0.700312	-0.761275	0.732758
C109	C	0.647090	-0.829050	0.823601
C110	C	0.647058	-0.778010	0.760200
H111	H	0.604045	-0.842604	0.845801
H112	H	0.647058	-0.811127	0.854866
H113	H	0.690222	-0.871237	0.817052
H114	H	0.603933	-0.735805	0.766691
H115	H	0.647122	-0.795982	0.728958
O116	O	0.028381	-0.481193	0.453205
C117	C	0.068985	-0.417559	0.348841
C118	C	0.081533	-0.481015	0.399776
H119	H	0.111945	-0.417398	0.305627
H120	H	0.057250	-0.379770	0.365893
H121	H	0.028444	-0.408543	0.337285
H122	H	0.122081	-0.490090	0.411356
H123	H	0.093231	-0.518769	0.382697
O124	O	0.700147	-0.517627	0.416238
C125	C	0.753401	-0.449905	0.325354
C126	C	0.753455	-0.500966	0.388741
H127	H	0.796502	-0.436428	0.303099
H128	H	0.710317	-0.407667	0.331860
H129	H	0.753360	-0.467852	0.294156
H130	H	0.753518	-0.483076	0.419972
H131	H	0.796535	-0.543194	0.382187
H132	H	0.029814	-0.004702	0.460721
H133	H	0.700208	-0.525435	0.609919
H134	H	0.100526	-0.788925	0.688956
H135	H	-0.083976	-0.604550	0.689083
O136	O	0.223397	-0.004179	0.452815
C137	C	0.325227	-0.003698	0.423867
C138	C	0.261960	-0.004105	0.475020
H139	H	0.356428	-0.003651	0.441805
H140	H	0.318501	0.039497	0.381776
H141	H	0.347606	-0.046687	0.410160
H142	H	0.239547	0.038854	0.488779
H143	H	0.268727	-0.047329	0.517077
O144	O	0.700270	-0.760698	0.537149
C145	C	0.700276	-0.789032	0.463584
C146	C	0.700272	-0.738213	0.476288
H147	H	0.700290	-0.770876	0.414375
H148	H	0.657206	-0.802589	0.497836
H149	H	0.743384	-0.831276	0.469128
H150	H	0.657192	-0.695937	0.470736
H151	H	0.743370	-0.724709	0.442038
H152	H	-0.048413	-0.674973	1.209396
H153	H	0.100739	-0.004653	0.688708
O154	O	0.187378	-0.797917	1.209592
C155	C	0.255044	-0.888814	1.262960
C156	C	0.203997	-0.825401	1.262942
H157	H	0.268487	-0.911059	1.306095
H158	H	0.297298	-0.882345	1.219907
H159	H	0.237103	-0.920004	1.262908
H160	H	0.221880	-0.794178	1.263015
H161	H	0.161753	-0.831917	1.305991
O162	O	-0.056162	-0.481280	1.209561
C163	C	-0.084930	-0.379277	1.209550
C164	C	-0.033912	-0.442698	1.209531
H165	H	-0.066955	-0.348061	1.209513
H166	H	-0.127156	-0.385737	1.252643
H167	H	-0.098438	-0.357067	1.166461
H168	H	-0.020351	-0.464942	1.252591
H169	H	0.008280	-0.436197	1.166410
O170	O	0.186779	-0.602309	1.209552
C171	C	0.215080	-0.528777	1.209621
C172	C	0.164263	-0.541473	1.209619
H173	H	0.196891	-0.479597	1.209689
H174	H	0.257335	-0.534277	1.166521
H175	H	0.228626	-0.563084	1.252703
H176	H	0.150665	-0.507177	1.166566
H177	H	0.122042	-0.535995	1.252748
H178	H	0.255291	-0.593843	0.928229
O179	O	0.095652	-0.452796	0.805731
C180	C	-0.011619	-0.402556	0.812610
C181	C	0.034772	-0.443537	0.848206
H182	H	-0.060851	-0.395047	0.846936
H183	H	-0.004214	-0.426291	0.782283
H184	H	-0.004131	-0.355950	0.782253
H185	H	0.027311	-0.490150	0.878596
H186	H	0.027355	-0.419754	0.878494
H187	H	0.294416	-0.554643	0.810656
H188	H	0.063121	-0.497793	0.716436
O189	O	0.261822	-0.599623	0.614519
C190	C	0.369072	-0.649854	0.564319
C191	C	0.322719	-0.608885	0.605334
H192	H	0.418318	-0.657366	0.556891
H193	H	0.361628	-0.626108	0.517679
H194	H	0.361582	-0.696460	0.588061
H195	H	0.330181	-0.562272	0.581646
H196	H	0.330175	-0.632679	0.651971
H197	H	0.294333	-0.554601	0.659567
O198	O	0.296326	-0.608272	0.748798
C199	C	0.223161	-0.651540	0.842958
C200	C	0.258801	-0.605743	0.809040
H201	H	0.192804	-0.649501	0.891665
H202	H	0.257434	-0.700464	0.845858
H203	H	0.192828	-0.638526	0.816436
H204	H	0.289135	-0.618700	0.835533
H205	H	0.224495	-0.556831	0.806134
O206	O	0.424055	-0.650879	0.706043
C207	C	0.443916	-0.740275	0.687002
C208	C	0.408279	-0.670712	0.676911
H209	H	0.431184	-0.756329	0.663444
H210	H	0.431189	-0.767435	0.738716
H211	H	0.495798	-0.748551	0.666279
H212	H	0.356389	-0.662378	0.697598
H213	H	0.421057	-0.643587	0.625190
O214	O	0.423982	-0.444065	0.627241
C215	C	0.417125	-0.337780	0.589888
C216	C	0.381518	-0.383604	0.623786
H217	H	0.382809	-0.288889	0.587095
H218	H	0.447432	-0.339715	0.541139
H219	H	0.447501	-0.350825	0.616378
H220	H	0.351108	-0.370590	0.597348
H221	H	0.351250	-0.381662	0.672538
O222	O	0.223575	-0.676395	0.453072
C223	C	0.278903	-0.681929	0.349874
C224	C	0.215493	-0.669419	0.400861
H225	H	0.272389	-0.676281	0.307644
H226	H	0.310088	-0.731115	0.367847
H227	H	0.301175	-0.647608	0.336370
H228	H	0.193167	-0.703701	0.414386
H229	H	0.184351	-0.620217	0.382859
H230	H	0.301415	-0.411495	0.671309
O231	O	0.252041	-0.408580	0.604965
C232	C	0.260289	-0.428372	0.521097
C233	C	0.219352	-0.392734	0.567445
H234	H	0.233881	-0.415564	0.490742
H235	H	0.273050	-0.480272	0.547441
H236	H	0.304266	-0.415630	0.490767
H237	H	0.175349	-0.405424	0.597787
H238	H	0.206640	-0.340843	0.541063
O239	O	0.209395	-0.280800	0.562433
C240	C	0.172102	-0.207578	0.476648
C241	C	0.154951	-0.243246	0.546741
H242	H	0.128094	-0.177197	0.463941
H243	H	0.202409	-0.241837	0.450211
H244	H	0.198508	-0.177261	0.463906
H245	H	0.128523	-0.273564	0.559541
H246	H	0.124674	-0.208954	0.573140
H247	H	0.102328	-0.458621	0.755642
H248	H	0.111138	-0.285961	0.764475
H249	H	0.150353	-0.403547	0.803641
