data_functionalizedCrystal
_audit_creation_method	'MofGen! by Chris Wilmer'
_symmetry_space_group_name_H-M	'P1'
_symmetry_Int_Tables_number	1
_symmetry_cell_setting	triclinic
loop_
_symmetry_equiv_pos_as_xyz
  x,y,z
_cell_length_a	16.625546
_cell_length_b	16.959455
_cell_length_c	16.625539
_cell_angle_alpha	89.974728
_cell_angle_beta	90.028532
_cell_angle_gamma	89.982540
loop_
_atom_site_label
_atom_site_type_symbol
_atom_site_fract_x
_atom_site_fract_y
_atom_site_fract_z
Zn1	Zn	-0.321123	-1.208383	0.456074
Zn2	Zn	0.178877	-0.708383	0.956074
Zn3	Zn	-0.455961	-1.208297	0.321237
Zn4	Zn	0.044039	-0.708297	0.821237
Zn5	Zn	-0.321135	-1.076208	0.321236
Zn6	Zn	0.178865	-0.576208	0.821236
Zn7	Zn	-0.455905	-1.076171	0.456007
Zn8	Zn	0.044095	-0.576171	0.956007
O9	O	-0.388531	-1.142265	0.388638
O10	O	0.111469	-0.642265	0.888638
O11	O	-0.339028	-1.318983	0.438216
O12	O	0.160972	-0.818983	0.938216
O13	O	-0.438105	-1.190754	0.208404
O14	O	0.061895	-0.690754	0.708404
O15	O	-0.208301	-1.093793	0.339150
O16	O	0.291699	-0.593793	0.839150
O17	O	-0.438093	-1.318919	0.339152
O18	O	0.061907	-0.818919	0.839152
O19	O	-0.208292	-1.190902	0.438215
O20	O	0.291708	-0.690902	0.938215
O21	O	-0.339048	-1.093709	0.208403
O22	O	0.160952	-0.593709	0.708403
O23	O	-0.338994	-0.965592	0.339085
O24	O	0.161006	-0.465592	0.839085
O25	O	-0.437997	-1.093730	0.568849
O26	O	0.062003	-0.593730	1.068849
O27	O	-0.438009	-0.965565	0.438101
O28	O	0.061991	-0.465565	0.938101
O29	O	-0.338973	-1.190866	0.568898
O30	O	0.161027	-0.690866	1.068898
O31	O	-0.568786	-1.190718	0.339087
O32	O	-0.068786	-0.690718	0.839087
O33	O	-0.568745	-1.093646	0.438102
O34	O	-0.068745	-0.593646	0.938102
C35	C	-0.388497	-0.936898	0.388586
C36	C	0.111503	-0.436898	0.888586
C37	C	-0.388502	-0.849042	0.388582
C38	C	0.111498	-0.349042	0.888582
C39	C	-0.440039	-0.477522	0.336990
C40	C	0.059961	0.022478	0.836990
C41	C	-0.337042	-0.477610	0.440307
C42	C	0.162958	0.022390	0.940307
C43	C	-0.337031	-0.560156	0.440292
C44	C	0.162969	-0.060156	0.940292
C45	C	-0.388527	-0.601389	0.388627
C46	C	0.111473	-0.101389	0.888627
C47	C	-0.440032	-0.560076	0.336976
C48	C	0.059968	-0.060076	0.836976
C49	C	-0.285533	-0.601475	0.491948
C50	C	0.214467	-0.101475	0.991948
C51	C	-0.285521	-0.684026	0.491936
C52	C	0.214479	-0.184026	0.991936
C53	C	-0.337013	-0.725261	0.440266
C54	C	0.162987	-0.225261	0.940266
C55	C	-0.388520	-0.683942	0.388612
C56	C	0.111480	-0.183942	0.888612
C57	C	-0.440015	-0.725175	0.336946
C58	C	0.059985	-0.225175	0.836946
C59	C	-0.491519	-0.683859	0.285288
C60	C	0.008481	-0.183859	0.785288
C61	C	-0.491524	-0.601310	0.285305
C62	C	0.008476	-0.101310	0.785305
C63	C	-0.337007	-0.807809	0.440248
C64	C	0.162993	-0.307809	0.940248
C65	C	-0.440008	-0.807729	0.336932
C66	C	0.059992	-0.307729	0.836932
C67	C	-0.598022	-1.142190	0.388605
C68	C	-0.098022	-0.642190	0.888605
C69	C	-0.687643	-1.142230	0.388617
C70	C	-0.187643	-0.642230	0.888617
C71	C	-1.015819	-1.142368	0.388701
C72	C	-0.515819	-0.642368	0.888701
C73	C	-0.924510	-1.142327	0.388680
C74	C	-0.424510	-0.642327	0.888680
C75	C	-0.851734	-1.142299	0.388659
C76	C	-0.351734	-0.642299	0.888659
C77	C	-0.760419	-1.142259	0.388638
C78	C	-0.260419	-0.642259	0.888638
C79	C	-0.178222	-1.142361	0.388690
C80	C	0.321778	-0.642361	0.888690
C81	C	-0.088601	-1.142403	0.388712
C82	C	0.411399	-0.642403	0.888712
C83	C	-0.388478	-1.142303	0.598947
C84	C	0.111522	-0.642303	1.098947
C85	C	-0.388455	-1.142320	0.688569
C86	C	0.111545	-0.642320	1.188569
C87	C	-0.388556	-0.348433	0.388677
C88	C	0.111444	0.151567	0.888677
C89	C	-0.388544	-0.436290	0.388656
C90	C	0.111456	0.063710	0.888656
C91	C	-0.388526	-1.142272	0.179148
C92	C	0.111474	-0.642272	0.679148
C93	C	-0.388321	-1.142408	0.089527
C94	C	0.111679	-0.642408	0.589527
C95	C	-0.388437	-1.142333	0.761351
C96	C	0.111563	-0.642333	1.261351
C97	C	-0.388407	-1.142351	0.852660
C98	C	0.111593	-0.642351	1.352660
C99	C	-0.388379	-1.142370	0.925436
C100	C	0.111621	-0.642370	1.425436
C101	C	-0.388350	-1.142390	1.016750
C102	C	0.111650	-0.642390	1.516750
H103	H	-0.481939	-0.841295	0.294856
H104	H	0.018061	-0.341295	0.794856
H105	H	-0.533455	-0.567663	0.243248
H106	H	-0.033455	-0.067663	0.743248
C107	C	-0.229511	-0.728738	0.548044
C108	C	0.270489	-0.228738	1.048044
C109	C	-0.184402	-0.674958	0.593278
C110	C	0.315598	-0.174958	1.093278
C111	C	-0.132787	-0.716118	0.644962
C112	C	0.367213	-0.216118	1.144962
H113	H	-0.260302	-0.760962	0.583186
H114	H	0.239698	-0.260962	1.083186
H115	H	-0.194292	-0.760908	0.517271
H116	H	0.305708	-0.260908	1.017271
H117	H	-0.219616	-0.642802	0.624048
H118	H	0.280384	-0.142802	1.124048
H119	H	-0.153594	-0.642732	0.558157
H120	H	0.346406	-0.142732	1.058157
H121	H	-0.097568	-0.748288	0.614189
H122	H	0.402432	-0.248288	1.114189
H123	H	-0.163585	-0.748341	0.680099
H124	H	0.336415	-0.248341	1.180099
H125	H	-0.102169	-0.679635	0.675654
H126	H	0.397831	-0.179635	1.175654
C127	C	-0.229656	-0.556567	0.547950
C128	C	0.270344	-0.056567	1.047950
C129	C	-0.240668	-0.475431	0.536885
C130	C	0.259332	0.024569	1.036885
C131	C	-0.189196	-0.434033	0.588452
C132	C	0.310804	0.065967	1.088452
H133	H	-0.241473	-0.570024	0.602136
H134	H	0.258527	-0.070024	1.102136
H135	H	-0.175447	-0.570056	0.536236
H136	H	0.324553	-0.070056	1.036236
H137	H	-0.294864	-0.461947	0.548604
H138	H	0.205136	0.038053	1.048604
H139	H	-0.228845	-0.461951	0.482710
H140	H	0.271155	0.038049	0.982710
H141	H	-0.134987	-0.447523	0.576739
H142	H	0.365013	0.052477	1.076739
H143	H	-0.201018	-0.447497	0.642635
H144	H	0.298982	0.052503	1.142635
H145	H	-0.196656	-0.378979	0.580947
H146	H	0.303344	0.121021	1.080947
H147	H	-0.533450	-0.717441	0.243226
H148	H	-0.033450	-0.217441	0.743226
C149	C	-0.495858	-0.432713	0.280774
C150	C	0.004142	0.067287	0.780774
C151	C	-0.478183	-0.452739	0.201025
C152	C	0.021817	0.047261	0.701025
C153	C	-0.529581	-0.411468	0.149216
C154	C	-0.029581	0.088532	0.649216
H155	H	-0.550076	-0.446203	0.292369
H156	H	-0.050076	0.053797	0.792369
H157	H	-0.488483	-0.377636	0.288122
H158	H	0.011517	0.122364	0.788122
H159	H	-0.485565	-0.507803	0.193680
H160	H	0.014435	-0.007803	0.693680
H161	H	-0.423975	-0.439246	0.189404
H162	H	0.076025	0.060754	0.689404
H163	H	-0.522205	-0.356391	0.156565
H164	H	-0.022205	0.143609	0.656565
H165	H	-0.583795	-0.424961	0.160819
H166	H	-0.083795	0.075039	0.660819
H167	H	-0.517590	-0.425044	0.095101
H168	H	-0.017590	0.074956	0.595101
H169	H	-0.295121	-0.444033	0.482375
H170	H	0.204879	0.055967	0.982375
H171	H	-0.295075	-0.841445	0.482309
H172	H	0.204925	-0.341445	0.982309
