data_functionalizedCrystal
_audit_creation_method	'MofGen! by Chris Wilmer'
_symmetry_space_group_name_H-M	'P1'
_symmetry_Int_Tables_number	1
_symmetry_cell_setting	triclinic
loop_
_symmetry_equiv_pos_as_xyz
  x,y,z
_cell_length_a	17.077404
_cell_length_b	21.395362
_cell_length_c	17.077396
_cell_angle_alpha	89.967711
_cell_angle_beta	89.981638
_cell_angle_gamma	90.027761
loop_
_atom_site_label
_atom_site_type_symbol
_atom_site_fract_x
_atom_site_fract_y
_atom_site_fract_z
Zn1	Zn	1.200017	-0.249472	-0.443798
Zn2	Zn	1.199908	-0.354254	-0.312523
Zn3	Zn	1.068749	-0.249490	-0.312549
Zn4	Zn	1.068701	-0.354212	-0.443750
O5	O	1.134344	-0.301857	-0.378155
O6	O	1.309849	-0.263382	-0.426394
O7	O	1.182484	-0.340381	-0.202680
O8	O	1.086227	-0.161810	-0.329990
O9	O	1.309770	-0.340364	-0.329947
O10	O	1.182669	-0.161797	-0.426418
O11	O	1.086122	-0.263412	-0.202698
O12	O	0.958895	-0.263372	-0.329943
O13	O	1.086146	-0.340294	-0.553603
O14	O	0.958860	-0.340311	-0.426336
O15	O	1.182623	-0.263342	-0.553639
O16	O	1.182438	-0.441926	-0.329900
O17	O	1.086040	-0.441896	-0.426311
C18	C	0.930396	-0.301839	-0.378137
C19	C	0.843146	-0.301847	-0.378148
C20	C	1.134243	-0.464645	-0.378115
C21	C	1.134272	-0.534286	-0.378124
C22	C	0.802198	-0.261834	-0.428445
C23	C	0.720218	-0.261838	-0.428449
C24	C	0.679187	-0.301859	-0.378159
C25	C	0.720140	-0.341874	-0.327857
C26	C	0.802119	-0.341866	-0.327850
C27	C	0.549270	-0.341888	-0.327876
C28	C	0.467286	-0.341897	-0.327884
C29	C	0.467369	-0.261859	-0.428475
C30	C	0.549348	-0.261852	-0.428468
C31	C	0.590296	-0.301868	-0.378167
C32	C	1.184461	-0.566936	-0.428370
C33	C	1.184488	-0.632371	-0.428389
C34	C	1.134336	-0.665154	-0.378148
C35	C	1.084137	-0.632497	-0.327898
C36	C	1.084106	-0.567063	-0.327886
C37	C	1.128232	-0.768866	-0.307439
C38	C	1.128269	-0.834299	-0.307450
C39	C	1.134429	-0.866975	-0.378186
C40	C	1.140568	-0.834210	-0.448913
C41	C	1.140536	-0.768776	-0.448901
C42	C	1.134364	-0.736107	-0.378156
C43	C	1.184650	-0.970577	-0.428457
C44	C	1.184672	-1.036014	-0.428477
C45	C	1.084325	-1.036139	-0.327980
C46	C	1.084299	-0.970703	-0.327967
C47	C	1.134466	-0.937926	-0.378204
C48	C	1.339088	-0.301876	-0.378173
C49	C	1.426338	-0.301883	-0.378181
C50	C	1.134391	-0.301811	-0.582899
C51	C	1.134411	-0.301791	-0.670149
C52	C	1.134466	-0.138434	-0.378212
C53	C	1.134518	-0.068793	-0.378237
C54	C	1.184649	-0.261719	-0.711159
C55	C	1.184658	-0.261698	-0.793140
C56	C	1.134434	-0.301753	-0.834109
C57	C	1.084191	-0.341827	-0.793093
C58	C	1.084178	-0.341845	-0.711114
C59	C	1.084222	-0.341790	-0.963963
C60	C	1.084236	-0.341773	-1.045948
C61	C	1.184703	-0.261643	-1.045989
C62	C	1.184690	-0.261661	-0.964010
C63	C	1.134448	-0.301736	-0.923000
C64	C	1.134342	-0.301858	-0.174207
C65	C	1.134473	-0.301701	-0.086958
H66	H	0.835600	-0.229245	-0.469399
H67	H	1.043337	-0.374388	-1.079302
H68	H	1.043485	-1.062830	-0.287078
H69	H	1.123212	-0.742267	-0.249833
H70	H	0.582607	-0.374472	-0.286914
H71	H	1.043261	-0.374469	-0.677725
H72	H	0.433880	-0.374486	-0.286934
H73	H	1.225550	-0.229104	-0.677808
C74	C	1.239936	-0.217602	-0.918945
H75	H	1.269855	-0.193728	-0.955109
H76	H	1.274113	-0.241580	-0.886960
H77	H	1.209917	-0.190305	-0.886972
C78	C	0.675012	-0.385898	-0.272538
H79	H	0.711142	-0.409724	-0.242578
H80	H	0.643032	-0.413231	-0.302506
H81	H	0.643029	-0.361895	-0.238391
C82	C	1.239882	-1.071931	-0.483749
H83	H	1.232712	-1.115596	-0.476568
H84	H	1.292624	-1.061179	-0.472300
H85	H	1.228360	-1.061184	-0.536482
H86	H	1.225611	-0.229012	-1.079383
C87	C	0.422330	-0.217841	-0.483804
H88	H	0.367630	-0.223571	-0.476601
H89	H	0.435781	-0.227066	-0.536522
H90	H	0.435782	-0.175728	-0.472410
H91	H	1.225496	-0.943889	-0.469366
H92	H	1.043297	-0.374413	-0.930575
C93	C	0.675178	-0.217824	-0.483776
H94	H	0.711356	-0.193994	-0.513732
H95	H	0.643200	-0.190495	-0.453817
H96	H	0.643201	-0.241834	-0.517927
H97	H	0.835458	-0.374449	-0.286893
C98	C	1.239641	-0.530884	-0.483629
H99	H	1.269533	-0.559705	-0.513560
H100	H	1.273846	-0.505352	-0.453624
H101	H	1.209582	-0.505360	-0.517807
H102	H	1.225351	-0.658959	-0.469314
H103	H	1.145533	-0.742100	-0.506489
H104	H	1.145586	-0.860814	-0.506513
C105	C	1.028972	-0.668556	-0.272634
H106	H	1.036184	-0.712203	-0.279831
H107	H	0.976218	-0.657864	-0.284072
H108	H	1.040490	-0.657853	-0.219898
C109	C	1.028943	-0.385888	-0.838153
H110	H	0.999016	-0.409752	-0.801985
H111	H	1.058955	-0.413184	-0.870127
H112	H	0.994761	-0.361907	-0.870136
H113	H	1.043434	-0.944118	-0.287048
H114	H	1.043235	-0.540479	-0.286969
C115	C	1.121516	-0.870335	-0.229655
H116	H	1.117828	-0.841504	-0.187527
H117	H	1.166518	-0.895833	-0.222794
H118	H	1.076021	-0.895891	-0.230645
H119	H	1.225569	-0.229069	-0.826526
H120	H	0.582753	-0.229267	-0.469423
