data_functionalizedCrystal
_audit_creation_method	'MofGen! by Chris Wilmer'
_symmetry_space_group_name_H-M	'P1'
_symmetry_Int_Tables_number	1
_symmetry_cell_setting	triclinic
loop_
_symmetry_equiv_pos_as_xyz
  x,y,z
_cell_length_a	12.759401
_cell_length_b	13.031981
_cell_length_c	12.759393
_cell_angle_alpha	97.216555
_cell_angle_beta	90.020938
_cell_angle_gamma	97.193318
loop_
_atom_site_label
_atom_site_type_symbol
_atom_site_fract_x
_atom_site_fract_y
_atom_site_fract_z
Zn1	Zn	1.553159	-0.416025	0.540846
Zn2	Zn	1.530734	-0.590838	0.342822
Zn3	Zn	1.377451	-0.416080	0.365174
Zn4	Zn	1.355143	-0.590765	0.518469
O5	O	1.454122	-0.503427	0.441828
O6	O	1.697204	-0.439221	0.514588
O7	O	1.510352	-0.567710	0.198759
O8	O	1.419479	-0.269807	0.407196
O9	O	1.680729	-0.567656	0.369101
O10	O	1.548571	-0.269766	0.536262
O11	O	1.397735	-0.439316	0.215181
O12	O	1.227471	-0.439245	0.385498
O13	O	1.381459	-0.567531	0.668465
O14	O	1.211082	-0.567585	0.498123
O15	O	1.526941	-0.439151	0.684905
O16	O	1.488721	-0.737094	0.347403
O17	O	1.359715	-0.737040	0.476450
C18	C	1.181156	-0.503414	0.441808
C19	C	1.064377	-0.503434	0.441822
C20	C	1.000996	-0.570362	0.500347
C21	C	0.891271	-0.570366	0.500367
C22	C	0.908319	-0.436511	0.383329
C23	C	1.018042	-0.436502	0.383315
C24	C	1.419393	-0.774992	0.407096
C25	C	1.404632	-0.891169	0.392272
C26	C	1.461881	-0.942861	0.449585
C27	C	1.446627	-1.062935	0.434266
C28	C	1.728153	-0.503440	0.441847
C29	C	1.844929	-0.503446	0.441856
C30	C	1.454213	-0.503327	0.715874
C31	C	1.454252	-0.503284	0.832656
C32	C	1.489015	-0.230801	0.476718
C33	C	1.503884	-0.114624	0.491587
C34	C	1.454101	-0.503451	0.168857
C35	C	1.454303	-0.503200	0.052113
C36	C	1.530011	-0.436425	0.896082
C37	C	1.530034	-0.436380	1.005812
C38	C	1.378537	-0.570061	0.988680
C39	C	1.378509	-0.570100	0.878952
H40	H	0.839670	-0.624864	0.548026
H41	H	0.870579	-0.382019	0.335693
O42	O	1.533958	-0.889734	0.521594
C43	C	1.716913	-0.855884	0.577014
C44	C	1.635394	-0.916127	0.495399
H45	H	1.798945	-0.877185	0.555852
H46	H	1.695803	-0.877266	0.659020
H47	H	1.716343	-0.768535	0.576552
H48	H	1.635921	-1.003490	0.495767
H49	H	1.656534	-0.894659	0.413432
H50	H	1.591683	-0.382016	0.858391
H51	H	1.316810	-0.624544	0.827309
O52	O	1.603731	-0.371403	1.067264
C53	C	1.753957	-0.238774	1.072675
C54	C	1.670569	-0.312329	1.002955
H55	H	1.808003	-0.190977	1.020711
H56	H	1.802837	-0.286696	1.117894
H57	H	1.712711	-0.184139	1.131054
H58	H	1.711729	-0.366978	0.944516
H59	H	1.621695	-0.264341	0.957810
H60	H	1.069650	-0.381995	0.335658
O61	O	1.305072	-0.634935	1.033821
C62	C	1.237932	-0.694078	1.195273
C63	C	1.321206	-0.620571	1.144291
H64	H	1.250935	-0.682475	1.284597
H65	H	1.245585	-0.778392	1.162989
H66	H	1.155572	-0.675735	1.175972
H67	H	1.403604	-0.638820	1.163572
H68	H	1.313461	-0.536279	1.176577
H69	H	1.038718	-0.624860	0.547990
O70	O	1.374749	-1.116337	0.362207
C71	C	1.293933	-1.284707	0.281323
C72	C	1.375387	-1.224359	0.362943
H73	H	1.294406	-1.372052	0.281906
H74	H	1.315110	-1.263434	0.199293
H75	H	1.211921	-1.263299	0.302399
H76	H	1.457428	-1.245734	0.341965
H77	H	1.354119	-1.245637	0.444950
H78	H	1.564192	-1.069990	0.552004
H79	H	1.344319	-0.935809	0.331868
