data_functionalizedCrystal
_audit_creation_method	'MofGen! by Chris Wilmer'
_symmetry_space_group_name_H-M	'P1'
_symmetry_Int_Tables_number	1
_symmetry_cell_setting	triclinic
loop_
_symmetry_equiv_pos_as_xyz
  x,y,z
_cell_length_a	11.792241
_cell_length_b	15.995350
_cell_length_c	10.268362
_cell_angle_alpha	89.996947
_cell_angle_beta	89.999626
_cell_angle_gamma	83.842895
loop_
_atom_site_label
_atom_site_type_symbol
_atom_site_fract_x
_atom_site_fract_y
_atom_site_fract_z
O1	O	1.505952	0.114763	-0.108167
O2	O	2.005952	0.614763	0.391833
O3	O	1.175512	0.126591	-0.108197
O4	O	1.675512	0.626591	0.391803
O5	O	1.349764	-0.001170	-0.108180
O6	O	1.849764	0.498830	0.391820
O7	O	1.331699	0.242524	-0.108184
O8	O	1.831699	0.742524	0.391816
O9	O	1.349749	-0.001175	0.108421
O10	O	1.849749	0.498825	0.608421
O11	O	1.175497	0.126586	0.108404
O12	O	1.675497	0.626586	0.608404
O13	O	1.505936	0.114758	0.108434
O14	O	2.005936	0.614758	0.608434
Cu15	Cu	1.340715	0.120671	0.128196
Cu16	Cu	1.840715	0.620671	0.628196
Cu17	Cu	1.340733	0.120678	-0.127959
Cu18	Cu	1.840733	0.620678	0.372041
O19	O	1.331684	0.242518	0.108417
O20	O	1.831684	0.742518	0.608417
C21	C	1.133220	0.125845	0.000100
C22	C	1.633220	0.625845	0.500100
C23	C	1.007224	0.123621	0.000088
C24	C	1.507224	0.623621	0.500088
C25	C	0.776546	0.119532	0.000126
C26	C	1.276546	0.619532	0.500126
C27	C	0.904913	0.121804	0.000105
C28	C	1.404913	0.621804	0.500105
C29	C	1.349010	-0.032370	0.000118
C30	C	1.849010	0.467630	0.500118
C31	C	1.346771	-0.125331	0.000111
C32	C	1.846771	0.374669	0.500111
C33	C	1.338730	-0.463115	0.000114
C34	C	1.838730	0.036885	0.500114
C35	C	1.214630	-0.416244	-0.000383
C36	C	1.714630	0.083756	0.499617
C37	C	1.216870	-0.319544	0.000106
C38	C	1.716870	0.180456	0.500106
C39	C	1.342718	-0.295536	0.000112
C40	C	1.842718	0.204464	0.500112
C41	C	1.403920	-0.336339	0.123804
C42	C	1.903920	0.163661	0.623804
C43	C	1.400803	-0.432989	0.123908
C44	C	1.900803	0.067011	0.623908
C45	C	1.403383	-0.433329	-0.122408
C46	C	1.903383	0.066671	0.377592
C47	C	1.403354	-0.336384	-0.124042
C48	C	1.903354	0.163616	0.375958
C49	C	1.344979	-0.200829	0.000115
C50	C	1.844979	0.299171	0.500115
C51	C	1.336473	-0.557823	0.000120
C52	C	1.836473	-0.057823	0.500120
C53	C	1.548229	0.115504	0.000134
C54	C	2.048229	0.615504	0.500134
C55	C	1.674224	0.117727	0.000137
C56	C	2.174224	0.617727	0.500137
C57	C	1.332438	0.273719	0.000116
C58	C	1.832438	0.773719	0.500116
C59	C	1.334677	0.366680	0.000115
C60	C	1.834677	0.866680	0.500115
N61	N	1.340711	0.120666	0.308362
N62	N	1.840711	0.620666	0.808362
N63	N	1.340746	0.120676	-0.308125
N64	N	1.840746	0.620676	0.191875
C65	C	1.340727	0.120676	0.574033
C66	C	1.840727	0.620676	1.074033
C67	C	1.340715	0.120673	0.426195
C68	C	1.840715	0.620673	0.926195
H69	H	1.168761	-0.291338	-0.088562
H70	H	1.668761	0.208662	0.411438
H71	H	1.165035	-0.434999	-0.089086
H72	H	1.665035	0.065001	0.410914
H73	H	1.491914	-0.464823	0.129524
H74	H	1.991914	0.035177	0.629524
C75	C	1.526987	-0.475672	-0.123539
C76	C	2.026987	0.024328	0.376461
H77	H	1.565623	-0.457423	-0.197788
H78	H	2.065623	0.042577	0.302212
H79	H	1.526558	-0.534990	-0.126716
H80	H	2.026558	-0.034990	0.373284
H81	H	1.565038	-0.460712	-0.046805
H82	H	2.065038	0.039288	0.453195
H83	H	1.168425	-0.291901	0.088916
H84	H	1.668425	0.208099	0.588916
C85	C	1.340483	-0.457993	0.248797
C86	C	1.840483	0.042007	0.748797
H87	H	1.318107	-0.409103	0.298988
H88	H	1.818107	0.090897	0.798988
H89	H	1.391184	-0.495735	0.298255
H90	H	1.891184	0.004265	0.798255
H91	H	1.274924	-0.484552	0.226189
H92	H	1.774924	0.015448	0.726189
C93	C	1.528818	-0.316687	0.130039
C94	C	2.028818	0.183313	0.630039
H95	H	1.544785	-0.283340	0.057090
H96	H	2.044785	0.216660	0.557090
H97	H	1.578031	-0.367750	0.128897
H98	H	2.078031	0.132250	0.628897
H99	H	1.540685	-0.286828	0.207975
H100	H	2.040685	0.213172	0.707975
C101	C	1.346473	-0.298277	0.248150
C102	C	1.846473	0.201723	0.748150
H103	H	1.285200	-0.257531	0.224950
H104	H	1.785200	0.242469	0.724950
H105	H	1.400672	-0.272294	0.298202
H106	H	1.900672	0.227706	0.798202
H107	H	1.318077	-0.341532	0.298002
H108	H	1.818077	0.158468	0.798002
C109	C	1.527346	-0.315097	-0.134115
C110	C	2.027346	0.184903	0.365885
H111	H	1.561855	-0.340576	-0.209953
H112	H	2.061855	0.159424	0.290047
H113	H	1.568712	-0.335733	-0.059309
H114	H	2.068712	0.164267	0.440691
H115	H	1.527969	-0.255849	-0.139309
H116	H	2.027969	0.244151	0.360691
H117	H	1.358608	-0.309336	-0.215547
H118	H	1.858608	0.190664	0.284453
C119	C	1.147911	-0.443007	0.118772
C120	C	1.647911	0.056993	0.618772
H121	H	1.195358	-0.482619	0.168824
H122	H	1.695358	0.017381	0.668824
H123	H	1.082580	-0.467848	0.090331
H124	H	1.582580	0.032152	0.590331
H125	H	1.124655	-0.395061	0.170690
H126	H	1.624655	0.104939	0.670690
C127	C	1.348579	-0.461314	-0.249059
C128	C	1.848579	0.038686	0.250941
H129	H	1.285747	-0.491428	-0.228394
H130	H	1.785747	0.008572	0.271606
H131	H	1.403341	-0.496539	-0.297353
H132	H	1.903341	0.003461	0.202647
H133	H	1.322808	-0.413231	-0.299551
H134	H	1.822808	0.086769	0.200449
