data_functionalizedCrystal
_audit_creation_method	'MofGen! by Chris Wilmer'
_symmetry_space_group_name_H-M	'P1'
_symmetry_Int_Tables_number	1
_symmetry_cell_setting	triclinic
loop_
_symmetry_equiv_pos_as_xyz
  x,y,z
_cell_length_a	23.532407
_cell_length_b	19.288864
_cell_length_c	18.366186
_cell_angle_alpha	90.022894
_cell_angle_beta	89.989089
_cell_angle_gamma	97.007539
loop_
_atom_site_label
_atom_site_type_symbol
_atom_site_fract_x
_atom_site_fract_y
_atom_site_fract_z
O1	O	0.071045	-0.921134	-0.060790
O2	O	0.080629	-0.718843	-0.060742
O3	O	-0.007082	-0.826089	-0.060754
O4	O	0.158756	-0.813889	-0.060778
O5	O	-0.007086	-0.826071	0.060345
O6	O	0.080625	-0.718825	0.060358
O7	O	0.071041	-0.921116	0.060309
Zn8	Zn	0.075832	-0.819968	0.079560
Zn9	Zn	0.075838	-0.819991	-0.079993
O10	O	0.158752	-0.813870	0.060321
C11	C	-0.028301	-0.825769	-0.000203
C12	C	-0.091520	-0.824835	-0.000197
C13	C	0.080319	-0.692959	-0.000186
C14	C	0.079393	-0.615858	-0.000166
C15	C	0.071351	-0.947000	-0.000249
C16	C	0.072277	-1.024101	-0.000273
C17	C	-0.490503	-0.882442	-0.000251
C18	C	-0.549905	-0.881574	-0.000256
O19	O	-0.586539	-0.934976	-0.000296
N20	N	-0.572664	-0.817817	-0.000240
C21	C	-0.536017	-0.754923	-0.000226
O22	O	-0.560829	-0.700613	-0.000214
C23	C	-0.476616	-0.755792	-0.000226
C24	C	-0.453861	-0.819553	-0.000235
C25	C	-0.467748	-0.946198	-0.000260
C26	C	-0.408350	-0.947065	-0.000253
C27	C	-0.371707	-0.884177	-0.000237
C28	C	-0.394463	-0.820420	-0.000228
C29	C	-0.439970	-0.692899	-0.000217
C30	C	-0.380565	-0.693773	-0.000218
C31	C	-0.357810	-0.757534	-0.000226
C32	C	-0.298422	-0.758399	-0.000205
N33	N	-0.275664	-0.822156	-0.000221
C34	C	-0.312307	-0.885045	-0.000237
C35	C	-0.660763	-0.753104	-0.000228
C36	C	-0.720163	-0.752235	-0.000223
C37	C	-0.734047	-0.878886	-0.000254
C38	C	-0.674647	-0.879755	-0.000254
C39	C	-0.638005	-0.816861	-0.000244
C40	C	-0.187566	-0.886862	-0.000222
C41	C	-0.128162	-0.887724	-0.000213
C42	C	-0.114283	-0.761073	-0.000185
C43	C	-0.173681	-0.760211	-0.000191
C44	C	-0.210322	-0.823111	-0.000212
O45	O	-0.261754	-0.705025	-0.000168
O46	O	-0.287486	-0.939346	-0.000259
C47	C	0.179971	-0.814190	-0.000232
C48	C	0.243190	-0.815124	-0.000242
N49	N	0.075828	-0.819956	0.188452
C50	C	0.130858	-0.571003	-0.000185
C51	C	0.129988	-0.498559	-0.000193
C52	C	0.077651	-0.470973	-0.000197
C53	C	0.026179	-0.515838	-0.000174
C54	C	0.027050	-0.588280	-0.000159
C55	C	0.036509	-0.362844	-0.042642
C56	C	0.035640	-0.290402	-0.042662
C57	C	0.074961	-0.247535	-0.000240
C58	C	0.115162	-0.277118	0.042191
C59	C	0.116033	-0.349561	0.042206
C60	C	0.076700	-0.392422	-0.000213
C61	C	0.125487	-0.124127	-0.000267
C62	C	0.124615	-0.051682	-0.000270
C63	C	0.020805	-0.068962	-0.000258
C64	C	0.021678	-0.141406	-0.000248
C65	C	0.074021	-0.168984	-0.000255
N66	N	0.075837	-0.820008	-0.188884
C67	C	0.037009	-0.867460	0.226546
C68	C	0.037006	-0.867464	0.302774
C69	C	0.075833	-0.819972	0.340904
C70	C	0.114655	-0.772459	0.302800
C71	C	0.114653	-0.772452	0.226574
C72	C	0.127724	-0.810514	0.461659
C73	C	0.127727	-0.810526	0.537884
C74	C	0.075840	-0.819991	0.576012
C75	C	0.023947	-0.829459	0.537906
C76	C	0.023945	-0.829451	0.461679
C77	C	0.075839	-0.819975	0.423559
C78	C	0.037014	-0.867502	0.696762
C79	C	0.037011	-0.867502	0.772991
C80	C	0.114665	-0.772500	0.773015
C81	C	0.114663	-0.772497	0.696788
C82	C	0.075839	-0.820002	0.658665
H83	H	-0.109639	-0.939648	-0.000218
Br84	Br	0.167339	-0.707977	0.174869
H85	H	-0.763893	-0.930094	-0.000269
H86	H	-0.738684	-0.700314	-0.000203
Br87	Br	0.198151	-0.797685	0.589591
H88	H	-0.016435	-0.493372	-0.000187
H89	H	-0.656124	-0.931675	-0.000261
Br90	Br	-0.046476	-0.842293	0.409966
H91	H	-0.192209	-0.708291	-0.000164
H92	H	0.146267	-0.733789	0.333850
Br93	Br	0.167353	-0.708038	0.824757
H94	H	-0.014860	-0.624802	-0.000144
H95	H	-0.630931	-0.701886	-0.000213
H96	H	-0.020230	-0.177928	-0.000236
H97	H	0.005394	-0.906139	0.195509
Br98	Br	-0.046476	-0.842314	0.589641
Br99	Br	0.198150	-0.797736	0.409921
Br100	Br	-0.015678	-0.931970	0.645022
Br101	Br	-0.015683	-0.931938	0.354484
H102	H	-0.458486	-0.640978	-0.000215
Br103	Br	-0.237284	-0.972227	-0.000252
Br104	Br	0.167351	-0.708028	0.645082
H105	H	-0.350733	-0.642556	-0.000211
H106	H	-0.389829	-0.998986	-0.000263
H107	H	-0.497577	-0.997412	-0.000276
Br108	Br	-0.064543	-0.675728	-0.000163
Br109	Br	0.201894	-0.608427	-0.000194
Br110	Br	-0.015681	-0.931970	0.824695
H111	H	0.171898	-0.462031	-0.000206
H112	H	0.166526	-0.015161	-0.000281
H113	H	0.148763	-0.373644	0.076758
Br114	Br	0.196521	-0.161559	-0.000272
Br115	Br	-0.050226	-0.031532	-0.000251
Br116	Br	-0.018909	-0.250261	-0.100256
H117	H	0.147181	-0.242217	0.076735
Br118	Br	-0.016862	-0.421014	-0.100217
