data_functionalizedCrystal
_audit_creation_method	'MofGen! by Chris Wilmer'
_symmetry_space_group_name_H-M	'P1'
_symmetry_Int_Tables_number	1
_symmetry_cell_setting	triclinic
loop_
_symmetry_equiv_pos_as_xyz
  x,y,z
_cell_length_a	14.519731
_cell_length_b	14.519709
_cell_length_c	14.048226
_cell_angle_alpha	89.992623
_cell_angle_beta	89.993451
_cell_angle_gamma	83.684499
loop_
_atom_site_label
_atom_site_type_symbol
_atom_site_fract_x
_atom_site_fract_y
_atom_site_fract_z
O1	O	1.223858	0.120987	-0.079165
O2	O	1.723858	0.620987	0.420835
O3	O	0.955384	0.135203	-0.079166
O4	O	1.455384	0.635203	0.420834
O5	O	1.096739	-0.006143	-0.079157
O6	O	1.596739	0.493857	0.420843
O7	O	1.082502	0.262333	-0.079174
O8	O	1.582502	0.762333	0.420826
O9	O	1.096722	-0.006151	0.079164
O10	O	1.596722	0.493849	0.579164
O11	O	0.955367	0.135194	0.079155
O12	O	1.455367	0.635194	0.579155
O13	O	1.223841	0.120978	0.079157
O14	O	1.723841	0.620978	0.579157
Zn15	Zn	1.089601	0.128085	0.104293
Zn16	Zn	1.589601	0.628085	0.604293
Zn17	Zn	1.089623	0.128096	-0.104303
Zn18	Zn	1.589623	0.628096	0.395697
O19	O	1.082485	0.262324	0.079147
O20	O	1.582485	0.762324	0.579147
C21	C	0.921016	0.134532	-0.000006
C22	C	1.421016	0.634532	0.499994
C23	C	0.818635	0.132536	-0.000006
C24	C	1.318635	0.632536	0.499994
C25	C	0.735491	0.130915	-0.000010
C26	C	1.235491	0.630915	0.499990
C27	C	0.631182	0.128888	-0.000010
C28	C	1.131182	0.628888	0.499990
C29	C	0.548043	0.127280	-0.000010
C30	C	1.048043	0.627280	0.499990
C31	C	0.443728	0.125253	-0.000012
C32	C	0.943728	0.625253	0.499988
C33	C	1.096067	-0.040507	0.000004
C34	C	1.596067	0.459493	0.500004
C35	C	1.094079	-0.142889	0.000004
C36	C	1.594079	0.357111	0.500004
C37	C	1.086759	-0.517785	-0.000020
C38	C	1.586759	-0.017785	0.499980
C39	C	1.088792	-0.413477	-0.000013
C40	C	1.588792	0.086523	0.499987
C41	C	1.090419	-0.330340	-0.000007
C42	C	1.590419	0.169660	0.499993
C43	C	1.092452	-0.226025	-0.000002
C44	C	1.592452	0.273975	0.499998
C45	C	1.258209	0.121649	-0.000006
C46	C	1.758209	0.621649	0.499994
C47	C	1.360589	0.123645	-0.000012
C48	C	1.860589	0.623645	0.499988
C49	C	1.083157	0.296688	-0.000016
C50	C	1.583157	0.796688	0.499984
C51	C	1.085146	0.399070	-0.000023
C52	C	1.585146	0.899070	0.499977
N53	N	1.089592	0.128077	0.246653
N54	N	1.589592	0.628077	0.746653
N55	N	1.089639	0.128097	-0.246663
N56	N	1.589639	0.628097	0.253337
C57	C	1.152204	0.065515	0.296476
C58	C	1.652204	0.565515	0.796476
C59	C	1.152210	0.065514	0.396133
C60	C	1.652210	0.565514	0.896133
C61	C	1.089609	0.128081	0.445967
C62	C	1.589609	0.628081	0.945967
C63	C	1.026990	0.190646	0.396138
C64	C	1.526990	0.690646	0.896138
C65	C	1.026980	0.190642	0.296482
C66	C	1.526980	0.690642	0.796482
C67	C	1.027017	0.190653	0.603852
C68	C	1.527017	0.690653	1.103852
C69	C	1.027027	0.190659	0.703515
C70	C	1.527027	0.690659	1.203515
C71	C	1.152247	0.065526	0.703503
C72	C	1.652247	0.565526	1.203503
C73	C	1.152237	0.065521	0.603847
C74	C	1.652237	0.565521	1.103847
C75	C	1.089619	0.128088	0.554025
C76	C	1.589619	0.628088	1.054025
H77	H	1.203186	0.014570	0.255908
H78	H	1.703186	0.514570	0.755908
C79	C	0.903205	0.314323	0.386131
C80	C	1.403205	0.814323	0.886131
C81	C	0.958169	0.259416	0.450911
C82	C	1.458169	0.759416	0.950911
H83	H	0.860713	0.356774	0.419947
H84	H	1.360713	0.856774	0.919947
H85	H	0.941636	0.347587	0.347251
H86	H	1.441636	0.847587	0.847251
H87	H	0.869976	0.275841	0.347274
H88	H	1.369976	0.775841	0.847274
H89	H	0.991403	0.297897	0.489765
H90	H	1.491403	0.797897	0.989765
H91	H	0.919732	0.226149	0.489808
H92	H	1.419732	0.726149	0.989808
C93	C	1.007156	0.316099	0.184383
C94	C	1.507156	0.816099	0.684383
C95	C	0.958158	0.259412	0.241710
C96	C	1.458158	0.759412	0.741710
H97	H	0.964663	0.358549	0.150567
H98	H	1.464663	0.858549	0.650567
H99	H	1.045588	0.349364	0.223244
H100	H	1.545588	0.849364	0.723244
H101	H	1.044434	0.278824	0.140449
H102	H	1.544434	0.778824	0.640449
H103	H	0.920884	0.296687	0.285650
H104	H	1.420884	0.796687	0.785650
H105	H	0.919710	0.226144	0.202846
H106	H	1.419710	0.726144	0.702846
H107	H	1.203193	0.014571	0.436698
H108	H	1.703193	0.514571	0.936698
H109	H	1.203232	0.014582	0.744074
H110	H	1.703232	0.514582	1.244074
C111	C	1.276009	-0.058173	0.613841
C112	C	1.776009	0.441827	1.113841
C113	C	1.221049	-0.003253	0.549068
C114	C	1.721049	0.496747	1.049068
H115	H	1.318484	-0.100636	0.580020
H116	H	1.818484	0.399364	1.080020
H117	H	1.309247	-0.019708	0.652692
H118	H	1.809247	0.480292	1.152692
H119	H	1.237566	-0.091433	0.652729
H120	H	1.737566	0.408567	1.152729
H121	H	1.259491	0.030012	0.510184
H122	H	1.759491	0.530012	1.010184
H123	H	1.187808	-0.041723	0.510200
H124	H	1.687808	0.458277	1.010200
C125	C	0.903221	0.314318	0.693521
C126	C	1.403221	0.814318	1.193521
C127	C	0.958198	0.259415	0.758294
C128	C	1.458198	0.759415	1.258294
H129	H	0.860722	0.356757	0.727342
H130	H	1.360722	0.856757	1.227342
H131	H	0.941643	0.347596	0.654644
H132	H	1.441643	0.847596	1.154644
H133	H	0.870001	0.275832	0.654660
H134	H	1.370001	0.775832	1.154660
H135	H	0.991423	0.297901	0.797151
H136	H	1.491423	0.797901	1.297151
H137	H	0.919771	0.226134	0.797188
H138	H	1.419771	0.726134	1.297188
H139	H	0.976023	0.241598	0.563290
H140	H	1.476023	0.741598	1.063290
