data_functionalizedCrystal
_audit_creation_method	'MofGen! by Chris Wilmer'
_symmetry_space_group_name_H-M	'P1'
_symmetry_Int_Tables_number	1
_symmetry_cell_setting	triclinic
loop_
_symmetry_equiv_pos_as_xyz
  x,y,z
_cell_length_a	6.817900
_cell_length_b	16.417825
_cell_length_c	14.858572
_cell_angle_alpha	95.076393
_cell_angle_beta	104.524003
_cell_angle_gamma	103.385495
loop_
_atom_site_label
_atom_site_type_symbol
_atom_site_fract_x
_atom_site_fract_y
_atom_site_fract_z
V1	V	-4.037850	-0.116413	-0.290288
O2	O	-4.025633	0.005052	-0.284426
O3	O	-3.988830	-0.230306	-0.288625
O4	O	-3.994497	-0.114860	-0.416745
O5	O	-4.019927	-0.111193	-0.155419
V6	V	-4.520905	-0.101856	-0.274117
O7	O	-4.300137	-0.148344	-0.325759
O8	O	-4.708816	-0.069925	-0.238646
O9	O	-4.346719	0.012036	-0.275780
O10	O	-4.650519	-0.223321	-0.279978
O11	O	-4.656225	-0.107076	-0.408985
O12	O	-4.341052	-0.103409	-0.147660
C13	C	-3.833516	-0.258063	-0.284129
C14	C	-3.874757	-0.351173	-0.283612
C15	C	-3.926095	-0.553281	-0.197243
C16	C	-3.964868	-0.640769	-0.196765
C17	C	-4.052041	-0.664989	-0.367172
C18	C	-4.013283	-0.577502	-0.367649
C19	C	-3.950299	-0.521650	-0.282682
C20	C	-4.027830	-0.696625	-0.281726
C21	C	-4.069869	-0.791484	-0.281208
C22	C	-3.908261	-0.426785	-0.283199
C23	C	-3.840744	-0.110800	-0.447557
C24	C	-3.886577	-0.110284	-0.550939
C25	C	-4.054327	-0.108399	-0.929502
C26	C	-4.007645	-0.108923	-0.824174
C27	C	-3.970453	-0.109342	-0.740224
C28	C	-3.923769	-0.109865	-0.634889
C29	C	-4.165374	0.039789	-0.280274
C30	C	-4.103372	0.132899	-0.280796
C31	C	-4.158147	-0.107472	-0.116842
C32	C	-4.091552	-0.107984	-0.013460
H33	H	-3.874811	-0.507807	-0.128057
H34	H	-4.103322	-0.710475	-0.436349
Cl35	Cl	-3.934446	-0.680529	-0.089351
Cl36	Cl	-4.043726	-0.537735	-0.475068
