data_functionalizedCrystal
_audit_creation_method	'MofGen! by Chris Wilmer'
_symmetry_space_group_name_H-M	'P1'
_symmetry_Int_Tables_number	1
_symmetry_cell_setting	triclinic
loop_
_symmetry_equiv_pos_as_xyz
  x,y,z
_cell_length_a	16.625548
_cell_length_b	12.645330
_cell_length_c	16.625539
_cell_angle_alpha	89.973614
_cell_angle_beta	89.979432
_cell_angle_gamma	90.013714
loop_
_atom_site_label
_atom_site_type_symbol
_atom_site_fract_x
_atom_site_fract_y
_atom_site_fract_z
Zn1	Zn	1.232735	-0.422007	-0.455920
Zn2	Zn	1.566069	-0.088674	-0.122587
Zn3	Zn	1.899402	0.244659	0.210747
Zn4	Zn	1.232662	-0.599293	-0.321092
Zn5	Zn	1.565995	-0.265960	0.012241
Zn6	Zn	1.899328	0.067373	0.345575
Zn7	Zn	1.097897	-0.422048	-0.321101
Zn8	Zn	1.431231	-0.088714	0.012233
Zn9	Zn	1.764564	0.244619	0.345566
Zn10	Zn	1.097891	-0.599232	-0.455882
Zn11	Zn	1.431224	-0.265899	-0.122548
Zn12	Zn	1.764557	0.067434	0.210785
O13	O	1.165296	-0.510645	-0.388499
O14	O	1.498630	-0.177312	-0.055165
O15	O	1.831963	0.156022	0.278168
O16	O	1.345558	-0.445533	-0.438047
O17	O	1.678891	-0.112200	-0.104714
O18	O	2.012225	0.221134	0.228619
O19	O	1.214757	-0.575824	-0.208261
O20	O	1.548090	-0.242490	0.125073
O21	O	1.881424	0.090843	0.458406
O22	O	1.115817	-0.273695	-0.339004
O23	O	1.449151	0.059638	-0.005671
O24	O	1.782484	0.392972	0.327662
O25	O	1.345504	-0.575784	-0.338990
O26	O	1.678837	-0.242451	-0.005656
O27	O	2.012171	0.090882	0.327677
O28	O	1.214882	-0.273665	-0.438056
O29	O	1.548216	0.059668	-0.104722
O30	O	1.881549	0.393001	0.228611
O31	O	1.115746	-0.445602	-0.208267
O32	O	1.449079	-0.112269	0.125066
O33	O	1.782413	0.221065	0.458400
O34	O	0.985064	-0.445543	-0.338967
O35	O	1.318397	-0.112210	-0.005634
O36	O	1.651731	0.221124	0.327699
O37	O	1.115806	-0.575681	-0.568719
O38	O	1.449140	-0.242347	-0.235386
O39	O	1.782473	0.090986	0.097947
O40	O	0.985059	-0.575720	-0.437990
O41	O	1.318393	-0.242387	-0.104657
O42	O	1.651726	0.090947	0.228676
O43	O	1.214876	-0.445474	-0.568747
O44	O	1.548210	-0.112141	-0.235414
O45	O	1.881543	0.221193	0.097919
O46	O	1.214751	-0.747632	-0.338952
O47	O	1.548084	-0.414299	-0.005619
O48	O	1.881417	-0.080966	0.327714
O49	O	1.115735	-0.747588	-0.437982
O50	O	1.449068	-0.414254	-0.104648
O51	O	1.782402	-0.080921	0.228685
C52	C	0.955806	-0.510630	-0.388476
C53	C	1.289139	-0.177297	-0.055143
C54	C	1.622472	0.156037	0.278191
C55	C	0.866184	-0.510649	-0.388486
C56	C	1.199518	-0.177316	-0.055152
C57	C	1.532851	0.156018	0.278181
C58	C	1.165256	-0.786075	-0.388480
C59	C	1.498589	-0.452742	-0.055146
C60	C	1.831923	-0.119408	0.278187
C61	C	1.165312	-0.903905	-0.388498
C62	C	1.498646	-0.570572	-0.055165
C63	C	1.831979	-0.237238	0.278168
C64	C	0.538009	-0.510656	-0.388520
C65	C	0.871342	-0.177323	-0.055187
C66	C	1.204675	0.156011	0.278147
C67	C	0.629317	-0.510651	-0.388508
C68	C	0.962651	-0.177318	-0.055174
C69	C	1.295984	0.156016	0.278159
C70	C	0.702094	-0.510653	-0.388502
C71	C	1.035427	-0.177320	-0.055169
C72	C	1.368760	0.156014	0.278165
C73	C	0.793408	-0.510647	-0.388491
C74	C	1.126741	-0.177314	-0.055158
C75	C	1.460075	0.156020	0.278175
C76	C	1.227503	-1.071453	-0.326072
C77	C	1.560837	-0.738120	0.007261
C78	C	1.894170	-0.404786	0.340594
C79	C	1.227706	-0.948893	-0.326225
C80	C	1.561039	-0.615559	0.007108
C81	C	1.894372	-0.282226	0.340441
C82	C	1.188356	-0.948288	-0.473491
C83	C	1.521689	-0.614954	-0.140158
C84	C	1.855022	-0.281621	0.193176
C85	C	1.188849	-1.070886	-0.473160
C86	C	1.522183	-0.737552	-0.139826
C87	C	1.855516	-0.404219	0.193507
C88	C	1.080054	-1.071234	-0.366769
C89	C	1.413387	-0.737901	-0.033436
C90	C	1.746721	-0.404567	0.299897
C91	C	1.080463	-0.948630	-0.364863
C92	C	1.413796	-0.615296	-0.031530
C93	C	1.747129	-0.281963	0.301803
C94	C	1.375605	-0.510661	-0.388522
C95	C	1.708939	-0.177328	-0.055188
C96	C	2.042272	0.156006	0.278145
C97	C	1.465226	-0.510668	-0.388532
C98	C	1.798560	-0.177335	-0.055198
C99	C	2.131893	0.155999	0.278135
C100	C	1.165349	-0.510566	-0.598808
C101	C	1.498682	-0.177233	-0.265474
C102	C	1.832015	0.156101	0.067859
C103	C	1.165371	-0.510532	-0.688429
C104	C	1.498704	-0.177199	-0.355095
C105	C	1.832038	0.156134	-0.021762
C106	C	1.165359	-0.234140	-0.388535
C107	C	1.498692	0.099193	-0.055202
C108	C	1.832026	0.432527	0.278131
C109	C	1.165386	-0.116310	-0.388551
C110	C	1.498719	0.217024	-0.055218
C111	C	1.832052	0.550357	0.278116
C112	C	1.165408	-0.510414	-1.016605
C113	C	1.498742	-0.177080	-0.683271
C114	C	1.832075	0.156253	-0.349938
C115	C	1.165396	-0.510450	-0.925296
C116	C	1.498729	-0.177117	-0.591963
C117	C	1.832062	0.156216	-0.258629
C118	C	1.165390	-0.510474	-0.852520
C119	C	1.498723	-0.177141	-0.519186
C120	C	1.832057	0.156193	-0.185853
C121	C	1.165377	-0.510509	-0.761205
C122	C	1.498710	-0.177175	-0.427872
C123	C	1.832043	0.156158	-0.094539
C124	C	1.165291	-0.510647	-0.179008
C125	C	1.498624	-0.177314	0.154326
C126	C	1.831957	0.156019	0.487659
C127	C	1.165424	-0.510382	-0.089387
C128	C	1.498758	-0.177049	0.243946
C129	C	1.832091	0.156284	0.577280
H130	H	1.213289	-0.918889	-0.263205
H131	H	1.546622	-0.585556	0.070129
H132	H	1.879955	-0.252222	0.403462
F133	F	1.016702	-0.908618	-0.419981
F134	F	1.350036	-0.575285	-0.086648
F135	F	1.683369	-0.241951	0.246686
F136	F	1.131015	-0.910207	-0.535968
F137	F	1.464349	-0.576873	-0.202635
F138	F	1.797682	-0.243540	0.130698
H139	H	1.059099	-1.102243	-0.305872
H140	H	1.392432	-0.768909	0.027461
H141	H	1.725766	-0.435576	0.360795
H142	H	1.290366	-1.102182	-0.340318
H143	H	1.623700	-0.768848	-0.006985
H144	H	1.957033	-0.435515	0.326348
F145	F	1.310315	-0.910447	-0.345060
F146	F	1.643648	-0.577114	-0.011727
F147	F	1.976982	-0.243781	0.321607
H148	H	1.063088	-0.919632	-0.302316
H149	H	1.396421	-0.586299	0.031018
H150	H	1.729754	-0.252966	0.364351
F151	F	1.268962	-0.908047	-0.498011
F152	F	1.602295	-0.574714	-0.164678
F153	F	1.935628	-0.241380	0.168656
H154	H	1.213266	-1.101005	-0.262867
H155	H	1.546600	-0.767672	0.070466
H156	H	1.879933	-0.434338	0.403799
F157	F	1.270375	-1.108155	-0.497274
F158	F	1.603709	-0.774822	-0.163941
F159	F	1.937042	-0.441489	0.169393
H160	H	1.145587	-1.100555	-0.521315
H161	H	1.478921	-0.767222	-0.187982
H162	H	1.812254	-0.433888	0.145352
F163	F	1.019558	-1.109153	-0.426246
F164	F	1.352891	-0.775820	-0.092913
F165	F	1.686225	-0.442486	0.240421
