data_functionalizedCrystal
_audit_creation_method	'MofGen! by Chris Wilmer'
_symmetry_space_group_name_H-M	'P1'
_symmetry_Int_Tables_number	1
_symmetry_cell_setting	triclinic
loop_
_symmetry_equiv_pos_as_xyz
  x,y,z
_cell_length_a	14.044191
_cell_length_b	11.792241
_cell_length_c	10.868271
_cell_angle_alpha	90.005281
_cell_angle_beta	89.998192
_cell_angle_gamma	91.307404
loop_
_atom_site_label
_atom_site_type_symbol
_atom_site_fract_x
_atom_site_fract_y
_atom_site_fract_z
O1	O	1.259115	-0.273808	-0.102263
O2	O	1.759115	0.226192	0.397737
O3	O	0.983095	-0.263921	-0.102279
O4	O	1.483095	0.236079	0.397721
O5	O	1.127803	-0.104323	-0.102262
O6	O	1.627803	0.395677	0.397738
O7	O	1.114407	-0.433406	-0.102280
O8	O	1.614407	0.066594	0.397720
O9	O	1.127791	-0.104315	0.102383
O10	O	1.627791	0.395685	0.602383
O11	O	0.983083	-0.263913	0.102366
O12	O	1.483083	0.236087	0.602366
O13	O	1.259103	-0.273801	0.102381
O14	O	1.759103	0.226199	0.602381
Zn15	Zn	1.121091	-0.268856	0.134865
Zn16	Zn	1.621091	0.231144	0.634865
Zn17	Zn	1.121107	-0.268866	-0.134763
Zn18	Zn	1.621107	0.231134	0.365237
O19	O	1.114395	-0.433398	0.102364
O20	O	1.614395	0.066602	0.602364
C21	C	0.947752	-0.259592	0.000041
C22	C	1.447752	0.240408	0.500041
C23	C	0.842460	-0.246689	0.000036
C24	C	1.342460	0.253311	0.500036
C25	C	0.592522	-0.314607	0.000044
C26	C	1.092522	0.185393	0.500044
C27	C	0.649681	-0.223120	0.000047
C28	C	1.149681	0.276880	0.500047
C29	C	0.756953	-0.236237	0.000041
C30	C	1.256953	0.263763	0.500041
C31	C	0.485241	-0.301491	0.000051
C32	C	0.985241	0.198509	0.500051
C33	C	1.126956	-0.061949	0.000060
C34	C	1.626956	0.438051	0.500060
C35	C	1.124437	0.064301	0.000058
C36	C	1.624437	0.564301	0.500058
C37	C	1.294446	-0.278130	0.000058
C38	C	1.794446	0.221870	0.500058
C39	C	1.399738	-0.291032	0.000056
C40	C	1.899738	0.208968	0.500056
C41	C	1.115242	-0.475772	0.000040
C42	C	1.615242	0.024228	0.500040
C43	C	1.117761	-0.602023	0.000033
C44	C	1.617761	-0.102023	0.500033
N45	N	1.121087	-0.268848	0.318879
N46	N	1.621087	0.231152	0.818879
C47	C	1.119806	0.295448	0.000038
C48	C	1.619806	0.795448	0.500038
C49	C	1.122379	0.166821	0.000049
C50	C	1.622379	0.666821	0.500049
N51	N	1.121118	-0.268865	-0.318777
N52	N	1.621118	0.231135	0.181223
C53	C	1.121102	-0.268863	0.569885
C54	C	1.621102	0.231137	1.069885
C55	C	1.121091	-0.268858	0.430208
C56	C	1.621091	0.231142	0.930208
H57	H	0.624149	-0.402776	0.000036
H58	H	1.124149	0.097224	0.500036
C59	C	0.637360	-0.045024	-0.105158
C60	C	1.137360	0.454976	0.394842
C61	C	0.606997	-0.104080	0.000044
C62	C	1.106997	0.395920	0.500044
H63	H	0.611010	0.028466	-0.105157
H64	H	1.111010	0.528466	0.394843
H65	H	0.616769	-0.085118	-0.176505
H66	H	1.116769	0.414882	0.323495
H67	H	0.704895	-0.038352	-0.105145
H68	H	1.204895	0.461648	0.394855
H69	H	0.539462	-0.110758	0.000027
H70	H	1.039462	0.389242	0.500027
H71	H	0.627583	-0.063975	0.071410
H72	H	1.127583	0.436025	0.571410
