data_functionalizedCrystal
_audit_creation_method	'MofGen! by Chris Wilmer'
_symmetry_space_group_name_H-M	'P1'
_symmetry_Int_Tables_number	1
_symmetry_cell_setting	triclinic
loop_
_symmetry_equiv_pos_as_xyz
  x,y,z
_cell_length_a	6.817900
_cell_length_b	11.102288
_cell_length_c	17.078481
_cell_angle_alpha	95.111737
_cell_angle_beta	99.306161
_cell_angle_gamma	108.605689
loop_
_atom_site_label
_atom_site_type_symbol
_atom_site_fract_x
_atom_site_fract_y
_atom_site_fract_z
V1	V	-4.005700	-0.175542	-0.247362
O2	O	-3.966747	0.008741	-0.242653
O3	O	-3.983201	-0.348365	-0.245670
O4	O	-3.936325	-0.172708	-0.355245
O5	O	-4.013948	-0.168132	-0.132320
V6	V	-4.488690	-0.153516	-0.233602
O7	O	-4.268129	-0.223860	-0.277545
O8	O	-4.676459	-0.105199	-0.203418
O9	O	-4.287983	0.019306	-0.235293
O10	O	-4.645040	-0.337799	-0.238311
O11	O	-4.597839	-0.160927	-0.348644
O12	O	-4.334858	-0.156350	-0.125719
C13	C	-3.835182	-0.390499	-0.241768
C14	C	-3.897933	-0.531783	-0.241104
C15	C	-3.775386	-0.166430	-0.381540
C16	C	-3.800119	-0.165257	-0.469735
C17	C	-4.109728	-0.604627	-0.244750
C18	C	-4.168680	-0.737379	-0.244132
C19	C	-3.804019	-0.724430	-0.236219
C20	C	-3.745073	-0.591682	-0.236842
C21	C	-3.994021	-0.171050	-0.515211
C22	C	-4.017249	-0.169946	-0.598079
C23	C	-3.846575	-0.163058	-0.635471
C24	C	-3.652655	-0.157261	-0.589988
C25	C	-3.629426	-0.158356	-0.507121
C26	C	-3.896497	-0.159097	-0.882874
C27	C	-3.919744	-0.158006	-0.965748
C28	C	-4.284335	-0.170689	-0.973832
C29	C	-4.261092	-0.171790	-0.890964
C30	C	-4.067172	-0.165986	-0.845488
N31	N	-3.870315	-0.161934	-0.720175
N32	N	-4.043431	-0.167101	-0.760784
C33	C	-4.099346	0.061434	-0.239193
C34	C	-4.015832	0.202717	-0.239863
C35	C	-4.159142	-0.162632	-0.099419
C36	C	-4.113646	-0.163799	-0.011224
H37	H	-4.341140	-0.796684	-0.247103
H38	H	-3.572599	-0.532371	-0.233876
O39	O	-4.159865	-0.177967	-0.478878
C40	C	-4.397735	-0.297121	-0.400739
C41	C	-4.209936	-0.289465	-0.441864
H42	H	-4.438247	-0.387245	-0.370789
H43	H	-4.540419	-0.301155	-0.447454
H44	H	-4.353465	-0.208564	-0.353479
H45	H	-4.254003	-0.377999	-0.489119
H46	H	-4.067304	-0.285368	-0.395102
H47	H	-4.442218	-0.175412	-1.010867
H48	H	-4.175138	-0.174656	-0.635101
O49	O	-4.426942	-0.178709	-0.854634
C50	C	-4.664816	-0.297884	-0.776505
C51	C	-4.477003	-0.290210	-0.817624
H52	H	-4.705320	-0.388012	-0.746557
H53	H	-4.807498	-0.301923	-0.823222
H54	H	-4.620566	-0.209332	-0.729243
H55	H	-4.521050	-0.378740	-0.864881
H56	H	-4.334372	-0.286108	-0.770860
O57	O	-3.655562	-0.782643	-0.231930
C58	C	-3.482929	-0.907903	-0.157602
C59	C	-3.651095	-0.842013	-0.162354
H60	H	-3.479293	-0.955944	-0.101363
H61	H	-3.321348	-0.833076	-0.155051
H62	H	-3.523757	-0.983549	-0.212916
H63	H	-3.610467	-0.766375	-0.107053
H64	H	-3.812628	-0.916915	-0.164944
H65	H	-3.780748	-0.152394	-0.996189
O66	O	-3.708184	-0.153382	-0.838624
C67	C	-3.417917	-0.037013	-0.729479
C68	C	-3.631075	-0.043221	-0.779562
H69	H	-3.355532	0.052030	-0.681705
H70	H	-3.299716	-0.031881	-0.770352
H71	H	-3.440779	-0.126661	-0.699268
H72	H	-3.608417	0.046405	-0.809780
H73	H	-3.749200	-0.048417	-0.738650
O74	O	-3.486933	-0.150402	-0.626383
C75	C	-3.248918	-0.031171	-0.704446
C76	C	-3.436639	-0.038792	-0.663282
H77	H	-3.208169	0.059073	-0.734275
H78	H	-3.293110	-0.119625	-0.751782
H79	H	-3.106394	-0.027280	-0.657699
H80	H	-3.579240	-0.042642	-0.709970
H81	H	-3.392272	0.049661	-0.615931
O82	O	-3.441011	-0.152516	-0.462886
C83	C	-3.150684	-0.035846	-0.353830
C84	C	-3.364025	-0.042290	-0.403875
H85	H	-3.088399	0.053250	-0.306097
H86	H	-3.032553	-0.030656	-0.394739
H87	H	-3.173238	-0.125429	-0.323568
H88	H	-3.341675	0.047271	-0.434143
H89	H	-3.482080	-0.047544	-0.362927
H90	H	-4.234200	-0.555861	-0.248219
