data_functionalizedCrystal
_audit_creation_method	'MofGen! by Chris Wilmer'
_symmetry_space_group_name_H-M	'P1'
_symmetry_Int_Tables_number	1
_symmetry_cell_setting	triclinic
loop_
_symmetry_equiv_pos_as_xyz
  x,y,z
_cell_length_a	12.759401
_cell_length_b	12.759400
_cell_length_c	19.076919
_cell_angle_alpha	92.274856
_cell_angle_beta	92.283027
_cell_angle_gamma	90.014916
loop_
_atom_site_label
_atom_site_type_symbol
_atom_site_fract_x
_atom_site_fract_y
_atom_site_fract_z
Zn1	Zn	1.582345	-0.442147	-0.397929
Zn2	Zn	1.589311	-0.610783	-0.280241
Zn3	Zn	1.413718	-0.435120	-0.280252
Zn4	Zn	1.406638	-0.617784	-0.397901
O5	O	1.498003	-0.526458	-0.339081
O6	O	1.730290	-0.464528	-0.382325
O7	O	1.571897	-0.581610	-0.181753
O8	O	1.436135	-0.289032	-0.295878
O9	O	1.735408	-0.588424	-0.295860
O10	O	1.560025	-0.294195	-0.382335
O11	O	1.442889	-0.452551	-0.181761
O12	O	1.265758	-0.459340	-0.295851
O13	O	1.424067	-0.600356	-0.496394
O14	O	1.260556	-0.593542	-0.382287
O15	O	1.553159	-0.471316	-0.496414
O16	O	1.565031	-0.758732	-0.295833
O17	O	1.430822	-0.763875	-0.382277
C18	C	1.225037	-0.526439	-0.339067
C19	C	1.108259	-0.526456	-0.339078
C20	C	1.056069	-0.590858	-0.293995
C21	C	0.946345	-0.590876	-0.294007
C22	C	0.941009	-0.462084	-0.384189
C23	C	1.050732	-0.462071	-0.384179
C24	C	1.113597	-0.655243	-0.248894
C25	C	1.061407	-0.719648	-0.203806
C26	C	0.951682	-0.719667	-0.203818
C27	C	0.894147	-0.655280	-0.248918
C28	C	1.497942	-0.799425	-0.339066
C29	C	1.498010	-0.916202	-0.339083
C30	C	1.567965	-0.968354	-0.294121
C31	C	1.568028	-1.078080	-0.294143
C32	C	1.428173	-1.083492	-0.384090
C33	C	1.428116	-0.973768	-0.384072
C34	C	1.637859	-0.910788	-0.249133
C35	C	1.707818	-0.962940	-0.204167
C36	C	1.707881	-1.072666	-0.204189
C37	C	1.637985	-1.130239	-0.249176
C38	C	1.772036	-0.526479	-0.339094
C39	C	1.888812	-0.526488	-0.339100
C40	C	1.487046	-0.537401	-0.522655
C41	C	1.482377	-0.542064	-0.600884
C42	C	1.498093	-0.252427	-0.339111
C43	C	1.498131	-0.135651	-0.339124
C44	C	1.547391	-0.477074	-0.637648
C45	C	1.542991	-0.481451	-0.711152
C46	C	1.473582	-0.550824	-0.747891
C47	C	1.408561	-0.615817	-0.711122
C48	C	1.412956	-0.611434	-0.637619
C49	C	1.453225	-0.571133	-0.967720
C50	C	1.448836	-0.575514	-1.041228
C51	C	1.583266	-0.441146	-1.041253
C52	C	1.587660	-0.436773	-0.967748
C53	C	1.522635	-0.501762	-0.930986
N54	N	1.469085	-0.555303	-0.823024
N55	N	1.527127	-0.497277	-0.855854
C56	C	1.508978	-0.515483	-0.156220
C57	C	1.513850	-0.510524	-0.077992
H58	H	0.894156	-0.409662	-0.420906
H59	H	1.637813	-0.821444	-0.249108
C60	C	1.654781	-0.369654	-1.081693
C61	C	1.734229	-0.418193	-1.132229
C62	C	1.805745	-0.346694	-1.172669
C63	C	1.797812	-0.226656	-1.162574
C64	C	1.718361	-0.178110	-1.112035
C65	C	1.646845	-0.249609	-1.071595
H66	H	1.740105	-0.507058	-1.139704
H67	H	1.864560	-0.382631	-1.210081
H68	H	1.850752	-0.173728	-1.192510
H69	H	1.712485	-0.089245	-1.104560
H70	H	1.588030	-0.213672	-1.034184
H71	H	1.764853	-1.115125	-0.167580
C72	C	1.108149	-0.391228	-0.433770
C73	C	1.044877	-0.320397	-0.483372
C74	C	1.102295	-0.249556	-0.532966
C75	C	1.222985	-0.249547	-0.532957
C76	C	1.286265	-0.320381	-0.483353
C77	C	1.228847	-0.391222	-0.433759
H78	H	0.955528	-0.320401	-0.483381
H79	H	1.055450	-0.197120	-0.569687
H80	H	1.265489	-0.197107	-0.569670
H81	H	1.375613	-0.320377	-0.483344
H82	H	1.275691	-0.443658	-0.397038
H83	H	1.764731	-0.916059	-0.167544
C84	C	1.351161	-0.916389	-0.433524
C85	C	1.232087	-0.931218	-0.427710
C86	C	1.155133	-0.873836	-0.477164
C87	C	1.197255	-0.801626	-0.532432
C88	C	1.316336	-0.786793	-0.538247
C89	C	1.393289	-0.844175	-0.488794
H90	H	1.200900	-0.984675	-0.386796
H91	H	1.066982	-0.884816	-0.472858
H92	H	1.140290	-0.759148	-0.569040
H93	H	1.347523	-0.733336	-0.579162
H94	H	1.481441	-0.833195	-0.493099
H95	H	0.804802	-0.655308	-0.248930
C96	C	0.894273	-0.790513	-0.154226
C97	C	0.822122	-0.741576	-0.099032
C98	C	0.764715	-0.812420	-0.049434
C99	C	0.779460	-0.932201	-0.055031
C100	C	0.851614	-0.981144	-0.110227
C101	C	0.909020	-0.910300	-0.159825
H102	H	0.811204	-0.652902	-0.094887
H103	H	0.711302	-0.776189	-0.008574
H104	H	0.736964	-0.984644	-0.018316
H105	H	0.862531	-1.069819	-0.114372
H106	H	0.962434	-0.946532	-0.200685
H107	H	1.638050	-1.219585	-0.249196
C108	C	1.381665	-0.642606	-0.927302
C109	C	1.302198	-0.594033	-0.876794
C110	C	1.230616	-0.665501	-0.836381
C111	C	1.238502	-0.785543	-0.846475
C112	C	1.317973	-0.834122	-0.896985
C113	C	1.389555	-0.762654	-0.937399
H114	H	1.296357	-0.505166	-0.869320
H115	H	1.171786	-0.629539	-0.798990
H116	H	1.185514	-0.838448	-0.816558
H117	H	1.323814	-0.922990	-0.904460
H118	H	1.448385	-0.798617	-0.974790
H119	H	1.371266	-1.130376	-0.420716
C120	C	1.124690	-0.790475	-0.154201
C121	C	1.245381	-0.790458	-0.154183
C122	C	1.308661	-0.861287	-0.104577
C123	C	1.251249	-0.932133	-0.054989
C124	C	1.130552	-0.932153	-0.055005
C125	C	1.067272	-0.861324	-0.104611
H126	H	1.287886	-0.738011	-0.190893
H127	H	1.398009	-0.861272	-0.104566
H128	H	1.298093	-0.984566	-0.018268
H129	H	1.088047	-0.984600	-0.018295
H130	H	0.977923	-0.861338	-0.104622
C131	C	1.623744	-0.400760	-0.597238
C132	C	1.614601	-0.281927	-0.607357
C133	C	1.690952	-0.205609	-0.566950
C134	C	1.776447	-0.248124	-0.516423
C135	C	1.785593	-0.366963	-0.506301
C136	C	1.709242	-0.443281	-0.546709
H137	H	1.551310	-0.250450	-0.644763
H138	H	1.684181	-0.117636	-0.574443
H139	H	1.832967	-0.191629	-0.486510
H140	H	1.848884	-0.398441	-0.468896
H141	H	1.716013	-0.531254	-0.539216
H142	H	1.595935	-0.428531	-0.741082
C143	C	1.664011	-0.360460	-0.927338
C144	C	1.735527	-0.288969	-0.967777
C145	C	1.811884	-0.212660	-0.927366
C146	C	1.816725	-0.207841	-0.846515
C147	C	1.745206	-0.279335	-0.806072
C148	C	1.668849	-0.355644	-0.846483
H149	H	1.731946	-0.292533	-1.027631
H150	H	1.864826	-0.159736	-0.957305
H151	H	1.873248	-0.151353	-0.816601
H152	H	1.748787	-0.275770	-0.746218
H153	H	1.615907	-0.408568	-0.816543
H154	H	1.202941	-0.655232	-0.248878
H155	H	1.392311	-0.632009	-1.071139
H156	H	1.352042	-0.672299	-0.741041
H157	H	1.360004	-0.664345	-0.607687
