data_functionalizedCrystal
_audit_creation_method	'MofGen! by Chris Wilmer'
_symmetry_space_group_name_H-M	'P1'
_symmetry_Int_Tables_number	1
_symmetry_cell_setting	triclinic
loop_
_symmetry_equiv_pos_as_xyz
  x,y,z
_cell_length_a	10.489746
_cell_length_b	10.489741
_cell_length_c	11.295483
_cell_angle_alpha	94.137284
_cell_angle_beta	85.855585
_cell_angle_gamma	84.540238
loop_
_atom_site_label
_atom_site_type_symbol
_atom_site_fract_x
_atom_site_fract_y
_atom_site_fract_z
O1	O	1.702556	0.171495	-0.098944
O2	O	2.202556	0.671495	0.401056
O3	O	1.331363	0.188379	-0.098964
O4	O	1.831363	0.688379	0.401036
O5	O	1.525405	-0.005660	-0.098946
O6	O	2.025405	0.494340	0.401054
O7	O	1.508514	0.365534	-0.098961
O8	O	2.008514	0.865534	0.401039
O9	O	1.508362	0.011357	0.099103
O10	O	2.008362	0.511357	0.599103
O11	O	1.314320	0.205396	0.099086
O12	O	1.814320	0.705396	0.599086
O13	O	1.685513	0.188512	0.099105
O14	O	2.185513	0.688512	0.599105
Cu15	Cu	1.498360	0.198507	0.117179
Cu16	Cu	1.998360	0.698507	0.617179
Cu17	Cu	1.518516	0.178384	-0.117037
Cu18	Cu	2.018516	0.678384	0.382963
O19	O	1.491470	0.382551	0.099088
O20	O	1.991470	0.882551	0.599088
C21	C	1.275310	0.195611	0.000058
C22	C	1.775310	0.695611	0.500058
C23	C	1.133681	0.191790	0.000051
C24	C	1.633681	0.691790	0.500051
C25	C	0.980822	0.066069	0.000073
C26	C	1.480822	0.566069	0.500073
C27	C	1.049813	0.137315	0.097716
C28	C	1.549813	0.637315	0.597716
C29	C	1.066572	0.120567	-0.097545
C30	C	1.566572	0.620567	0.402455
C31	C	0.950314	0.256304	0.097804
C32	C	1.450314	0.756304	0.597804
C33	C	0.967075	0.239531	-0.097545
C34	C	1.467075	0.739531	0.402455
C35	C	1.036015	0.310867	0.000121
C36	C	1.536015	0.810867	0.500121
C37	C	1.515608	-0.044683	0.000078
C38	C	2.015608	0.455317	0.500078
C39	C	1.511791	-0.186313	0.000075
C40	C	2.011791	0.313687	0.500075
C41	C	1.388328	-0.254457	0.000060
C42	C	1.888328	0.245543	0.500060
C43	C	1.438248	-0.338188	0.097712
C44	C	1.938248	0.161812	0.597712
C45	C	1.455080	-0.354939	-0.097549
C46	C	1.955080	0.145061	0.402451
C47	C	1.561755	-0.268172	0.097808
C48	C	2.061755	0.231828	0.597808
C49	C	1.578578	-0.284921	-0.097541
C50	C	2.078578	0.215079	0.402459
C51	C	1.628585	-0.368623	0.000134
C52	C	2.128585	0.131377	0.500134
C53	C	1.741566	0.181280	0.000081
C54	C	2.241566	0.681280	0.500081
C55	C	1.883195	0.185100	0.000080
C56	C	2.383195	0.685100	0.500080
C57	C	1.501268	0.421574	0.000062
C58	C	2.001268	0.921574	0.500062
C59	C	1.505086	0.563203	0.000056
C60	C	2.005086	1.063203	0.500056
N61	N	1.484193	0.212661	0.281914
N62	N	1.984193	0.712661	0.781914
N63	N	1.532693	0.164220	-0.281772
N64	N	2.032693	0.664220	0.218228
C65	C	1.634676	0.062265	0.531217
C66	C	2.134676	0.562265	1.031217
C67	C	1.623979	0.072970	0.655880
C68	C	2.123979	0.572970	1.155880
C69	C	1.452096	0.244768	0.655904
C70	C	1.952096	0.744768	1.155904
C71	C	1.462793	0.234064	0.531242
C72	C	1.962793	0.734064	1.031242
C73	C	1.554087	0.142810	0.468902
C74	C	2.054087	0.642810	0.968902
C75	C	1.564790	0.132112	0.344237
C76	C	2.064790	0.632112	0.844237
C77	C	1.392902	0.303904	0.344264
C78	C	1.892902	0.803904	0.844264
C79	C	1.382205	0.314609	0.468927
C80	C	1.882205	0.814609	0.968927
H81	H	0.956092	-0.037424	0.000176
H82	H	1.456092	0.462576	0.500176
H83	H	1.060487	0.414450	0.000171
H84	H	1.560487	0.914450	0.500171
H85	H	1.637878	-0.260969	-0.180098
H86	H	2.137878	0.239031	0.319902
Cl87	Cl	1.785442	-0.444926	0.000222
Cl88	Cl	2.285442	0.055074	0.500222
H89	H	1.327285	0.369492	0.293514
H90	H	1.827285	0.869492	0.793514
Cl91	Cl	1.337320	0.359467	0.734286
Cl92	Cl	1.837320	0.859467	1.234286
Cl93	Cl	1.385361	-0.413731	-0.225004
Cl94	Cl	1.885361	0.086269	0.274996
H95	H	0.899922	0.313619	0.180449
H96	H	1.399922	0.813619	0.680449
Cl97	Cl	1.679561	0.017398	0.265870
Cl98	Cl	2.179561	0.517398	0.765870
Cl99	Cl	1.631363	-0.209613	0.225412
Cl100	Cl	2.131363	0.290387	0.725412
Cl101	Cl	1.749456	-0.052437	0.452846
Cl102	Cl	2.249456	0.447563	0.952846
Cl103	Cl	1.725292	-0.028294	0.734215
Cl104	Cl	2.225292	0.471706	1.234215
H105	H	0.930679	0.282641	-0.180105
H106	H	1.430679	0.782641	0.319895
H107	H	1.117119	0.063203	-0.180097
H108	H	1.617119	0.563203	0.319903
H109	H	1.286808	-0.204800	0.000153
H110	H	1.786808	0.295200	0.500153
Cl111	Cl	1.267437	0.429319	0.547305
Cl112	Cl	1.767437	0.929319	1.047305
H113	H	1.086185	0.094159	0.180272
H114	H	1.586185	0.594159	0.680272
H115	H	1.378903	-0.362108	0.180264
H116	H	1.878903	0.137892	0.680264
