data_functionalizedCrystal
_audit_creation_method	'MofGen! by Chris Wilmer'
_symmetry_space_group_name_H-M	'P1'
_symmetry_Int_Tables_number	1
_symmetry_cell_setting	triclinic
loop_
_symmetry_equiv_pos_as_xyz
  x,y,z
_cell_length_a	17.699077
_cell_length_b	14.519709
_cell_length_c	16.176319
_cell_angle_alpha	89.992256
_cell_angle_beta	89.993140
_cell_angle_gamma	83.480361
loop_
_atom_site_label
_atom_site_type_symbol
_atom_site_fract_x
_atom_site_fract_y
_atom_site_fract_z
O1	O	1.004415	0.116598	-0.068737
O2	O	1.337749	0.449932	0.264596
O3	O	1.671082	0.783265	0.597929
O4	O	0.784080	0.131777	-0.068742
O5	O	1.117413	0.465110	0.264592
O6	O	1.450747	0.798444	0.597925
O7	O	0.900090	-0.010076	-0.068732
O8	O	1.233423	0.323258	0.264601
O9	O	1.566756	0.656591	0.597935
O10	O	0.888406	0.258451	-0.068747
O11	O	1.221739	0.591784	0.264586
O12	O	1.555072	0.925118	0.597920
O13	O	0.900074	-0.010085	0.068761
O14	O	1.233407	0.323249	0.402095
O15	O	1.566740	0.656582	0.735428
O16	O	0.784064	0.131768	0.068752
O17	O	1.117397	0.465101	0.402085
O18	O	1.450731	0.798435	0.735418
O19	O	1.004399	0.116589	0.068756
O20	O	1.337733	0.449923	0.402089
O21	O	1.671066	0.783256	0.735423
Cu22	Cu	0.894230	0.124178	0.081308
Cu23	Cu	1.227564	0.457511	0.414641
Cu24	Cu	1.560897	0.790845	0.747975
Cu25	Cu	0.894249	0.124188	-0.081294
Cu26	Cu	1.227582	0.457522	0.252040
Cu27	Cu	1.560916	0.790855	0.585373
O28	O	0.888390	0.258442	0.068746
O29	O	1.221723	0.591775	0.402080
O30	O	1.555056	0.925109	0.735413
C31	C	0.755873	0.131230	0.000005
C32	C	1.089207	0.464563	0.333338
C33	C	1.422540	0.797896	0.666671
C34	C	0.671850	0.129601	0.000003
C35	C	1.005184	0.462934	0.333336
C36	C	1.338517	0.796267	0.666670
C37	C	0.632372	0.128828	0.074952
C38	C	0.965705	0.462162	0.408285
C39	C	1.299039	0.795495	0.741618
C40	C	0.553425	0.127283	0.074953
C41	C	0.886758	0.460616	0.408286
C42	C	1.220092	0.793950	0.741619
C43	C	0.513957	0.126517	0.000004
C44	C	0.847290	0.459850	0.333337
C45	C	1.180624	0.793184	0.666671
C46	C	0.553441	0.127287	-0.074950
C47	C	0.886775	0.460620	0.258383
C48	C	1.220108	0.793953	0.591717
C49	C	0.632387	0.128825	-0.074950
C50	C	0.965721	0.462159	0.258383
C51	C	1.299054	0.795492	0.591716
C52	C	0.235060	0.121081	-0.074951
C53	C	0.568393	0.454414	0.258382
C54	C	0.901727	0.787747	0.591715
C55	C	0.156108	0.119545	-0.074945
C56	C	0.489441	0.452878	0.258388
C57	C	0.822775	0.786211	0.591721
C58	C	0.156098	0.119538	0.074951
C59	C	0.489431	0.452872	0.408285
C60	C	0.822764	0.786205	0.741618
C61	C	0.235044	0.121077	0.074951
C62	C	0.568377	0.454410	0.408285
C63	C	0.901711	0.787744	0.741618
C64	C	0.274522	0.121842	-0.000002
C65	C	0.607855	0.455175	0.333331
C66	C	0.941188	0.788508	0.666664
C67	C	0.360125	0.123515	-0.000003
C68	C	0.693458	0.456849	0.333331
C69	C	1.026792	0.790182	0.666664
C70	C	0.428354	0.124850	0.000003
C71	C	0.761688	0.458183	0.333337
C72	C	1.095021	0.791517	0.666670
C73	C	0.899537	-0.044438	0.000015
C74	C	1.232870	0.288896	0.333348
C75	C	1.566204	0.622229	0.666681
C76	C	0.897905	-0.146812	0.000015
C77	C	1.231239	0.186521	0.333349
C78	C	1.564572	0.519855	0.666682
C79	C	0.891898	-0.521682	-0.000006
C80	C	1.225232	-0.188349	0.333327
C81	C	1.558565	0.144985	0.666660
C82	C	0.893566	-0.417381	-0.000000
C83	C	1.226900	-0.084048	0.333333
C84	C	1.560233	0.249285	0.666667
C85	C	0.894902	-0.334250	0.000005
C86	C	1.228235	-0.000917	0.333339
C87	C	1.561568	0.332416	0.666672
C88	C	0.896570	-0.229943	0.000010
C89	C	1.229903	0.103390	0.333343
C90	C	1.563237	0.436724	0.666677
C91	C	1.032606	0.117137	0.000008
C92	C	1.365939	0.450470	0.333341
C93	C	1.699273	0.783803	0.666675
C94	C	1.116629	0.118766	0.000004
C95	C	1.449962	0.452099	0.333337
C96	C	1.783296	0.785432	0.666671
C97	C	0.888942	0.292804	-0.000002
C98	C	1.222276	0.626137	0.333331
C99	C	1.555609	0.959471	0.666664
C100	C	0.890574	0.395178	-0.000008
C101	C	1.223907	0.728512	0.333325
C102	C	1.557241	1.061845	0.666658
N103	N	0.894222	0.124170	0.195673
N104	N	1.227556	0.457503	0.529006
N105	N	1.560889	0.790836	0.862340
N106	N	0.894263	0.124189	-0.195659
N107	N	1.227596	0.457523	0.137674
N108	N	1.560930	0.790856	0.471008
C109	C	0.945607	0.061383	0.238942
C110	C	1.278940	0.394716	0.572275
C111	C	1.612274	0.728050	0.905608
C112	C	0.945611	0.061382	0.325489
C113	C	1.278944	0.394715	0.658822
C114	C	1.612278	0.728049	0.992155
C115	C	0.894233	0.124173	0.368766
C116	C	1.227566	0.457506	0.702099
C117	C	1.560900	0.790840	1.035432
C118	C	0.842843	0.186963	0.325491
C119	C	1.176176	0.520296	0.658825
C120	C	1.509510	0.853629	0.992158
C121	C	0.842836	0.186959	0.238946
C122	C	1.176169	0.520292	0.572279
C123	C	1.509503	0.853625	0.905612
C124	C	0.842869	0.186980	0.674519
C125	C	1.176202	0.520313	1.007853
C126	C	1.509536	0.853647	1.341186
C127	C	0.842881	0.186981	0.761071
C128	C	1.176215	0.520315	1.094404
C129	C	1.509548	0.853648	1.427738
C130	C	0.945644	0.061403	0.761062
C131	C	1.278977	0.394737	1.094396
C132	C	1.612310	0.728070	1.427729
C133	C	0.945637	0.061399	0.674517
C134	C	1.278970	0.394733	1.007850
C135	C	1.612303	0.728066	1.341184
C136	C	0.894244	0.124185	0.631250
C137	C	1.227578	0.457519	0.964583
C138	C	1.560911	0.790852	1.297917
C139	C	0.894240	0.124184	0.537406
C140	C	1.227573	0.457518	0.870739
C141	C	1.560907	0.790851	1.204073
C142	C	0.894241	0.124179	0.462608
C143	C	1.227574	0.457512	0.795942
C144	C	1.560907	0.790846	1.129275
H145	H	0.123946	0.118911	0.135982
H146	H	0.457279	0.452245	0.469316
H147	H	0.790613	0.785578	0.802649
H148	H	0.521287	0.126639	0.135983
H149	H	0.854620	0.459972	0.469316
H150	H	1.187954	0.793305	0.802650
Cl151	Cl	0.778232	0.265891	0.184552
Cl152	Cl	1.111566	0.599225	0.517885
Cl153	Cl	1.444899	0.932558	0.851218
Cl154	Cl	0.681980	0.129797	0.169178
Cl155	Cl	1.015314	0.463131	0.502512
Cl156	Cl	1.348647	0.796464	0.835845
H157	H	0.987476	0.010272	0.639284
H158	H	1.320809	0.343605	0.972617
H159	H	1.654142	0.676939	1.305950
H160	H	0.267174	0.121705	0.135982
H161	H	0.600508	0.455039	0.469315
H162	H	0.933841	0.788372	0.802649
H163	H	0.267194	0.121700	-0.135983
H164	H	0.600527	0.455034	0.197350
H165	H	0.933860	0.788367	0.530683
H166	H	0.521301	0.126656	-0.135974
H167	H	0.854634	0.459990	0.197359
H168	H	1.187967	0.793323	0.530692
Cl169	Cl	0.106492	0.118580	-0.169174
Cl170	Cl	0.439826	0.451913	0.164160
Cl171	Cl	0.773159	0.785246	0.497493
H172	H	0.801006	0.238085	0.360732
H173	H	1.134340	0.571419	0.694066
H174	H	1.467673	0.904752	1.027399
Cl175	Cl	1.010209	-0.017552	0.379885
Cl176	Cl	1.343542	0.315781	0.713218
Cl177	Cl	1.676876	0.649114	1.046552
H178	H	0.801025	0.238104	0.639298
H179	H	1.134358	0.571438	0.972632
H180	H	1.467692	0.904771	1.305965
H181	H	0.664529	0.129456	-0.135981
H182	H	0.997863	0.462789	0.197352
H183	H	1.331196	0.796123	0.530686
Cl184	Cl	1.010204	-0.017555	0.184545
Cl185	Cl	1.343537	0.315778	0.517879
Cl186	Cl	1.676871	0.649111	0.851212
H187	H	0.987488	0.010276	0.796300
H188	H	1.320821	0.343610	1.129633
H189	H	1.654155	0.676943	1.462966
H190	H	0.801040	0.238115	0.796306
H191	H	1.134374	0.571448	1.129639
H192	H	1.467707	0.904782	1.462972
