data_functionalizedCrystal
_audit_creation_method	'MofGen! by Chris Wilmer'
_symmetry_space_group_name_H-M	'P1'
_symmetry_Int_Tables_number	1
_symmetry_cell_setting	triclinic
loop_
_symmetry_equiv_pos_as_xyz
  x,y,z
_cell_length_a	16.109301
_cell_length_b	14.586319
_cell_length_c	16.109301
_cell_angle_alpha	89.994786
_cell_angle_beta	96.538519
_cell_angle_gamma	90.000787
loop_
_atom_site_label
_atom_site_type_symbol
_atom_site_fract_x
_atom_site_fract_y
_atom_site_fract_z
O1	O	-1.103131	-0.076185	0.106866
O2	O	-0.603131	0.423815	0.606866
O3	O	-0.861069	-0.076200	0.120165
O4	O	-0.361069	0.423800	0.620165
O5	O	-0.988749	-0.076183	-0.007515
O6	O	-0.488749	0.423817	0.492485
O7	O	-0.975450	-0.076203	0.234547
O8	O	-0.475450	0.423797	0.734547
O9	O	-0.988741	0.076298	-0.007517
O10	O	-0.488741	0.576298	0.492483
O11	O	-0.861060	0.076281	0.120164
O12	O	-0.361060	0.576281	0.620164
O13	O	-1.103122	0.076295	0.106864
O14	O	-0.603122	0.576295	0.606864
Cu15	Cu	-0.982090	0.090211	0.113514
Cu16	Cu	-0.482090	0.590211	0.613514
Cu17	Cu	-0.982101	-0.090115	0.113516
Cu18	Cu	-0.482101	0.409885	0.613516
O19	O	-0.975441	0.076278	0.234545
O20	O	-0.475441	0.576278	0.734545
C21	C	-0.830090	0.000038	0.119626
C22	C	-0.330090	0.500038	0.619626
C23	C	-0.737794	0.000033	0.118011
C24	C	-0.237794	0.500033	0.618011
C25	C	-0.988206	0.000058	-0.038491
C26	C	-0.488206	0.500058	0.461509
C27	C	-0.986591	0.000059	-0.130786
C28	C	-0.486591	0.500059	0.369214
C29	C	-1.134101	0.000055	0.107404
C30	C	-0.634101	0.500055	0.607404
C31	C	-1.226397	0.000054	0.109019
C32	C	-0.726397	0.500054	0.609019
N33	N	-0.982089	0.217042	0.113512
N34	N	-0.482089	0.717042	0.613512
C35	C	-0.515522	0.000038	0.190018
C36	C	-0.015522	0.500038	0.690018
C37	C	-0.428801	0.000044	0.188494
C38	C	0.071199	0.500044	0.688494
C39	C	-0.448676	0.000052	0.037006
C40	C	0.051324	0.500052	0.537006
C41	C	-0.535394	0.000053	0.038530
C42	C	-0.035394	0.500053	0.538530
C43	C	-0.568815	0.000041	0.115039
C44	C	-0.068815	0.500041	0.615039
C45	C	-0.395376	0.000046	0.111990
C46	C	0.104624	0.500046	0.611990
C47	C	-0.301350	0.000053	0.110337
C48	C	0.198650	0.500053	0.610337
C49	C	-0.662847	0.000036	0.116693
C50	C	-0.162847	0.500036	0.616693
N51	N	-0.982109	-0.216947	0.113511
N52	N	-0.482109	0.283053	0.613511
C53	C	-1.038644	0.452057	0.056994
C54	C	-0.538644	0.952057	0.556994
C55	C	-1.038647	0.548038	0.056992
C56	C	-0.538647	1.048038	0.556992
C57	C	-0.925547	0.548032	0.170032
C58	C	-0.425547	1.048032	0.670032
C59	C	-0.925541	0.452052	0.170030
C60	C	-0.425541	0.952052	0.670030
C61	C	-0.982095	0.404067	0.113511
C62	C	-0.482095	0.904067	0.613511
C63	C	-0.982103	0.596028	0.113512
C64	C	-0.482103	1.096028	0.613512
C65	C	-0.982105	0.700095	0.113510
C66	C	-0.482105	1.200095	0.613510
C67	C	-0.982092	0.299993	0.113512
C68	C	-0.482092	0.799993	0.613512
C69	C	-1.058599	0.000049	-0.353059
C70	C	-0.558599	0.500049	0.146941
C71	C	-1.057075	0.000041	-0.439779
C72	C	-0.557075	0.500041	0.060221
C73	C	-0.905586	0.000036	-0.419905
C74	C	-0.405586	0.500036	0.080095
C75	C	-0.907111	0.000037	-0.333186
C76	C	-0.407111	0.500037	0.166814
C77	C	-0.983620	0.000048	-0.299766
C78	C	-0.483620	0.500048	0.200234
C79	C	-0.980571	0.000039	-0.473205
C80	C	-0.480571	0.500039	0.026795
C81	C	-0.978918	0.000031	-0.567231
C82	C	-0.478918	0.500031	-0.067231
C83	C	-0.985273	0.000055	-0.205734
C84	C	-0.485273	0.500055	0.294266
C85	C	-0.975984	0.000035	0.265521
C86	C	-0.475984	0.500035	0.765521
C87	C	-0.977600	0.000028	0.357816
C88	C	-0.477600	0.500028	0.857816
H89	H	-0.385413	0.000043	0.249550
H90	H	0.114587	0.500043	0.749550
C91	C	-0.324566	0.000046	-0.032597
C92	C	0.175434	0.500046	0.467403
C93	C	-0.411936	0.000053	-0.047090
C94	C	0.088064	0.500053	0.452910
H95	H	-0.301888	0.000038	-0.084517
H96	H	0.198112	0.500038	0.415483
H97	H	-0.306274	0.053215	-0.001736
H98	H	0.193726	0.553215	0.498264
H99	H	-0.306282	-0.053133	-0.001721
H100	H	0.193718	0.446867	0.498279
H101	H	-0.430221	0.053235	-0.077962
H102	H	0.069779	0.553235	0.422038
H103	H	-0.430235	-0.053122	-0.077965
H104	H	0.069765	0.446878	0.422035
C105	C	-0.842186	0.000026	-0.191425
C106	C	-0.342186	0.500026	0.308575
C107	C	-0.824688	0.000032	-0.274598
C108	C	-0.324688	0.500032	0.225402
H109	H	-0.791303	0.000014	-0.155257
H110	H	-0.291303	0.500014	0.344743
H111	H	-0.873548	0.053199	-0.181305
H112	H	-0.373548	0.553199	0.318695
H113	H	-0.873563	-0.053148	-0.181305
H114	H	-0.373563	0.446852	0.318695
H115	H	-0.793316	0.053210	-0.284719
H116	H	-0.293316	0.553210	0.215281
H117	H	-0.793313	-0.053147	-0.284722
H118	H	-0.293313	0.446853	0.215278
H119	H	-1.084694	0.587108	0.010969
H120	H	-0.584694	1.087108	0.510969
H121	H	-0.879503	0.587111	0.216049
H122	H	-0.379503	1.087111	0.716049
H123	H	-1.084693	0.412989	0.010972
H124	H	-0.584693	0.912989	0.510972
H125	H	-0.578788	0.000058	-0.022530
H126	H	-0.078788	0.500058	0.477470
C127	C	-0.813748	0.461680	0.281777
C128	C	-0.313748	0.961680	0.781777
C129	C	-0.863379	0.399295	0.232161
C130	C	-0.363379	0.899295	0.732161
H131	H	-0.775377	0.429107	0.320133
H132	H	-0.275377	0.929107	0.820133
H133	H	-0.783856	0.499121	0.247163
H134	H	-0.283856	0.999121	0.747163
H135	H	-0.848356	0.499110	0.311694
H136	H	-0.348356	0.999110	0.811694
H137	H	-0.828771	0.361870	0.202239
H138	H	-0.328771	0.861870	0.702239
H139	H	-0.893273	0.361838	0.266779
H140	H	-0.393273	0.861838	0.766779
H141	H	-0.542730	0.000035	0.252317
H142	H	-0.042730	0.500035	0.752317
C143	C	-1.208185	0.000037	-0.381417
C144	C	-0.708185	0.500037	0.118583
C145	C	-1.142696	0.000045	-0.316322
C146	C	-0.642696	0.500045	0.183678
H147	H	-1.260103	0.000025	-0.358737
H148	H	-0.760103	0.500025	0.141263
H149	H	-1.204443	0.053208	-0.414829
H150	H	-0.704443	0.553208	0.085171
H151	H	-1.204428	-0.053139	-0.414824
H152	H	-0.704428	0.446861	0.085176
H153	H	-1.146449	0.053224	-0.282918
H154	H	-0.646449	0.553224	0.217082
H155	H	-1.146440	-0.053132	-0.282897
H156	H	-0.646440	0.446868	0.217103
H157	H	-0.843295	0.000028	-0.447127
H158	H	-0.343295	0.500028	0.052873
C159	C	-1.143251	-0.078349	-0.548812
C160	C	-0.643251	0.421651	-0.048812
C161	C	-1.139496	0.000041	-0.498357
C162	C	-0.639496	0.500041	0.001643
H163	H	-1.194140	-0.078351	-0.584971
H164	H	-0.694140	0.421649	-0.084971
H165	H	-1.097478	-0.078346	-0.581128
H166	H	-0.597478	0.421654	-0.081128
H167	H	-1.140696	-0.131513	-0.514551
H168	H	-0.640696	0.368487	-0.014551
H169	H	-1.142044	0.053206	-0.532618
H170	H	-0.642044	0.553206	-0.032618
H171	H	-1.185281	0.000047	-0.466038
H172	H	-0.685281	0.500047	0.033962
