data_functionalizedCrystal
_audit_creation_method	'MofGen! by Chris Wilmer'
_symmetry_space_group_name_H-M	'P1'
_symmetry_Int_Tables_number	1
_symmetry_cell_setting	triclinic
loop_
_symmetry_equiv_pos_as_xyz
  x,y,z
_cell_length_a	10.723023
_cell_length_b	10.723022
_cell_length_c	16.776229
_cell_angle_alpha	89.994545
_cell_angle_beta	89.993021
_cell_angle_gamma	84.467387
loop_
_atom_site_label
_atom_site_type_symbol
_atom_site_fract_x
_atom_site_fract_y
_atom_site_fract_z
O1	O	1.657193	0.175026	-0.066284
O2	O	1.294040	0.191780	-0.066286
O3	O	1.483994	0.001827	-0.066282
O4	O	1.467239	0.364979	-0.066288
O5	O	1.483968	0.001814	0.066295
O6	O	1.294014	0.191768	0.066291
O7	O	1.657167	0.175014	0.066293
Zn8	Zn	1.475587	0.183389	0.087341
Zn9	Zn	1.475620	0.183405	-0.087334
O10	O	1.467213	0.364967	0.066289
C11	C	1.247528	0.190555	0.000002
C12	C	1.108973	0.186908	0.000002
C13	C	1.047215	0.185288	-0.068677
C14	C	0.904012	0.181518	-0.068680
C15	C	1.482762	-0.044679	0.000006
C16	C	1.479115	-0.183233	0.000003
C17	C	1.369575	-0.231794	0.000001
C18	C	1.365804	-0.374997	-0.000002
C19	C	1.703679	0.176239	0.000003
C20	C	1.842234	0.179886	-0.000002
C21	C	1.468445	0.411473	-0.000000
C22	C	1.472092	0.550027	-0.000003
N23	N	1.475573	0.183377	0.206552
N24	N	1.475644	0.183406	-0.206545
C25	C	1.559711	0.099301	0.248271
C26	C	1.559718	0.099300	0.331723
C27	C	1.475592	0.183382	0.373455
C28	C	1.391445	0.267463	0.331731
C29	C	1.391433	0.267457	0.248280
C30	C	1.391490	0.267488	0.668278
C31	C	1.391511	0.267490	0.751734
C32	C	1.559775	0.099331	0.751721
C33	C	1.559763	0.099325	0.668271
C34	C	1.475612	0.183400	0.626553
C35	C	1.475604	0.183399	0.536065
C36	C	1.475605	0.183391	0.463942
H37	H	1.278587	-0.167352	0.000005
F38	F	1.649257	0.009813	0.203865
F39	F	1.039516	0.185082	0.076856
F40	F	1.594688	-0.395336	-0.000006
H41	H	1.272016	-0.416809	-0.000008
H42	H	1.628228	0.030838	0.365690
F43	F	0.834598	0.179688	-0.145536
H44	H	1.322942	0.335920	0.365713
H45	H	1.628270	0.030862	0.634295
F46	F	1.598049	-0.267459	0.000008
F47	F	1.649333	0.009845	0.796126
H48	H	1.323001	0.335962	0.785711
F49	F	1.116671	0.187125	-0.145532
F50	F	1.301878	0.356939	0.203881
F51	F	1.301936	0.356969	0.623885
H52	H	0.895337	0.181273	0.058800
