data_functionalizedCrystal
_audit_creation_method	'MofGen! by Chris Wilmer'
_symmetry_space_group_name_H-M	'P1'
_symmetry_Int_Tables_number	1
_symmetry_cell_setting	triclinic
loop_
_symmetry_equiv_pos_as_xyz
  x,y,z
_cell_length_a	15.995350
_cell_length_b	17.699083
_cell_length_c	16.776229
_cell_angle_alpha	90.007545
_cell_angle_beta	90.003494
_cell_angle_gamma	83.387695
loop_
_atom_site_label
_atom_site_type_symbol
_atom_site_fract_x
_atom_site_fract_y
_atom_site_fract_z
O1	O	-1.110790	-0.097560	-0.066222
O2	O	-0.777457	0.235774	0.267111
O3	O	-0.444123	0.569107	0.600444
O4	O	-0.866990	-0.109607	-0.066239
O5	O	-0.533657	0.223726	0.267094
O6	O	-0.200324	0.557060	0.600428
O7	O	-0.995778	0.006594	-0.066223
O8	O	-0.662445	0.339928	0.267110
O9	O	-0.329111	0.673261	0.600444
O10	O	-0.982002	-0.213761	-0.066238
O11	O	-0.648669	0.119572	0.267095
O12	O	-0.315336	0.452906	0.600429
O13	O	-0.995761	0.006602	0.066353
O14	O	-0.662428	0.339935	0.399687
O15	O	-0.329094	0.673268	0.733020
O16	O	-0.866973	-0.109600	0.066338
O17	O	-0.533640	0.223734	0.399671
O18	O	-0.200307	0.557067	0.733004
O19	O	-1.110773	-0.097553	0.066354
O20	O	-0.777440	0.235781	0.399688
O21	O	-0.444106	0.569114	0.733021
Zn22	Zn	-0.988870	-0.103575	0.087395
Zn23	Zn	-0.655537	0.229758	0.420729
Zn24	Zn	-0.322204	0.563092	0.754062
Zn25	Zn	-0.988893	-0.103584	-0.087280
Zn26	Zn	-0.655560	0.229749	0.246053
Zn27	Zn	-0.322226	0.563082	0.579387
O28	O	-0.981985	-0.213754	0.066338
O29	O	-0.648652	0.119579	0.399672
O30	O	-0.315318	0.452913	0.733005
C31	C	-0.995276	0.034796	0.000065
C32	C	-0.661943	0.368129	0.333399
C33	C	-0.328609	0.701463	0.666732
C34	C	-0.993795	0.118816	0.000065
C35	C	-0.660462	0.452150	0.333399
C36	C	-0.327128	0.785483	0.666732
C37	C	-0.835788	-0.109105	0.000047
C38	C	-0.502455	0.224228	0.333381
C39	C	-0.169121	0.557561	0.666714
C40	C	-0.742841	-0.107612	0.000041
C41	C	-0.409507	0.225721	0.333375
C42	C	-0.076174	0.559055	0.666708
C43	C	-1.141975	-0.098054	0.000066
C44	C	-0.808642	0.235279	0.333400
C45	C	-0.475309	0.568612	0.666733
C46	C	-1.234923	-0.099547	0.000067
C47	C	-0.901589	0.233786	0.333401
C48	C	-0.568256	0.567119	0.666734
C49	C	-0.405104	-0.102250	0.000058
C50	C	-0.071771	0.231084	0.333391
C51	C	0.261563	0.564417	0.666725
C52	C	-0.452706	-0.019493	0.000360
C53	C	-0.119373	0.313840	0.333693
C54	C	0.213960	0.647173	0.667026
C55	C	-0.549394	-0.020987	0.000055
C56	C	-0.216060	0.312347	0.333388
C57	C	0.117273	0.645680	0.666722
C58	C	-0.572659	-0.104910	0.000050
C59	C	-0.239326	0.228424	0.333384
C60	C	0.094007	0.561757	0.666717
C61	C	-0.531499	-0.145732	-0.075657
C62	C	-0.198165	0.187601	0.257676
C63	C	0.135168	0.520935	0.591010
C64	C	-0.434867	-0.143653	-0.075715
C65	C	-0.101534	0.189680	0.257619
C66	C	0.231799	0.523014	0.590952
C67	C	-0.434505	-0.145355	0.075049
C68	C	-0.101172	0.187979	0.408383
C69	C	0.232161	0.521312	0.741716
C70	C	-0.531451	-0.145335	0.076044
C71	C	-0.198117	0.187998	0.409378
C72	C	0.135216	0.521332	0.742711
C73	C	-0.667354	-0.106417	0.000043
C74	C	-0.334020	0.226916	0.333376
C75	C	-0.000687	0.560249	0.666710
C76	C	-0.310409	-0.100745	0.000060
C77	C	0.022924	0.232589	0.333393
C78	C	0.356257	0.565922	0.666727
C79	C	-0.982487	-0.241955	0.000048
C80	C	-0.649154	0.091378	0.333382
C81	C	-0.315821	0.424711	0.666715
C82	C	-0.983968	-0.325976	0.000043
C83	C	-0.650635	0.007358	0.333376
C84	C	-0.317301	0.340691	0.666710
N85	N	-0.988861	-0.103568	0.206607
N86	N	-0.655528	0.229765	0.539940
N87	N	-0.322194	0.563099	0.873273
C88	C	-1.069391	0.167312	0.000072
C89	C	-0.736057	0.500645	0.333405
C90	C	-0.402724	0.833978	0.666738
C91	C	-1.067994	0.246257	0.000065
C92	C	-0.734661	0.579591	0.333398
C93	C	-0.401328	0.912924	0.666731
C94	C	-0.991001	0.276706	0.000057
C95	C	-0.657668	0.610039	0.333390
C96	C	-0.324335	0.943373	0.666724
C97	C	-0.915400	0.228205	0.000048
C98	C	-0.582066	0.561538	0.333382
C99	C	-0.248733	0.894871	0.666715
C100	C	-0.916797	0.149261	0.000050
C101	C	-0.583464	0.482594	0.333383
C102	C	-0.250130	0.815927	0.666716
C103	C	-0.909763	0.546577	0.000041
C104	C	-0.576430	0.879910	0.333375
C105	C	-0.243096	1.213244	0.666708
C106	C	-0.908372	0.625527	0.000042
C107	C	-0.575038	0.958861	0.333376
C108	C	-0.241705	1.292194	0.666709
C109	C	-1.060960	0.643574	0.000056
C110	C	-0.727627	0.976907	0.333390
C111	C	-0.394294	1.310240	0.666723
C112	C	-1.062358	0.564630	0.000058
C113	C	-0.729024	0.897963	0.333391
C114	C	-0.395691	1.231296	0.666724
C115	C	-0.986757	0.516135	0.000045
C116	C	-0.653423	0.849469	0.333378
C117	C	-0.320090	1.182802	0.666712
C118	C	-0.988272	0.430533	0.000051
C119	C	-0.654938	0.763867	0.333384
C120	C	-0.321605	1.097200	0.666718
C121	C	-0.989485	0.362306	0.000056
C122	C	-0.656152	0.695640	0.333390
C123	C	-0.322819	1.028973	0.666723
N124	N	-0.988909	-0.103585	-0.206491
N125	N	-0.655575	0.229748	0.126842
N126	N	-0.322242	0.563081	0.460175
C127	C	-1.045906	-0.052135	0.248331
C128	C	-0.712572	0.281198	0.581664
C129	C	-0.379239	0.614531	0.914997
C130	C	-1.045910	-0.052135	0.331783
C131	C	-0.712577	0.281199	0.665116
C132	C	-0.379244	0.614532	0.998449
C133	C	-0.988874	-0.103571	0.373509
C134	C	-0.655540	0.229762	0.706843
C135	C	-0.322207	0.563096	1.040176
C136	C	-0.931823	-0.155006	0.331779
C137	C	-0.598490	0.178327	0.665113
C138	C	-0.265156	0.511660	0.998446
C139	C	-0.931815	-0.155003	0.248329
C140	C	-0.598482	0.178331	0.581662
C141	C	-0.265148	0.511664	0.914995
C142	C	-0.931853	-0.155021	0.668327
C143	C	-0.598520	0.178312	1.001660
C144	C	-0.265187	0.511645	1.334993
C145	C	-0.931867	-0.155022	0.751783
C146	C	-0.598534	0.178311	1.085117
C147	C	-0.265201	0.511644	1.418450
C148	C	-1.045949	-0.052153	0.751781
C149	C	-0.712615	0.281180	1.085114
C150	C	-0.379282	0.614514	1.418447
C151	C	-1.045941	-0.052150	0.668330
C152	C	-0.712607	0.281184	1.001663
C153	C	-0.379274	0.614517	1.334997
C154	C	-0.988887	-0.103582	0.626607
C155	C	-0.655554	0.229752	0.959941
C156	C	-0.322221	0.563085	1.293274
C157	C	-0.988882	-0.103581	0.536119
C158	C	-0.655549	0.229752	0.869452
C159	C	-0.322215	0.563086	1.202786
C160	C	-0.988883	-0.103576	0.463996
C161	C	-0.655549	0.229757	0.797330
C162	C	-0.322216	0.563091	1.130663
H163	H	-0.577881	0.011101	0.054326
H164	H	-0.244547	0.344435	0.387659
H165	H	0.088786	0.677768	0.720992
C166	C	-0.833636	0.095915	0.000045
C167	C	-0.500302	0.429249	0.333378
C168	C	-0.166969	0.762582	0.666711
N169	N	-0.770996	0.055737	0.000039
N170	N	-0.437663	0.389070	0.333372
N171	N	-0.104329	0.722403	0.666706
C172	C	-0.569911	-0.107432	-0.151771
C173	C	-0.236578	0.225901	0.181562
C174	C	0.096755	0.559234	0.514896
N175	N	-0.598842	-0.078580	-0.209098
N176	N	-0.265509	0.254754	0.124235
N177	N	0.067824	0.588087	0.457569
C178	C	-0.587130	0.022645	-0.073386
C179	C	-0.253796	0.355978	0.259947
C180	C	0.079537	0.689311	0.593280
N181	N	-0.615552	0.055509	-0.128707
N182	N	-0.282219	0.388842	0.204627
N183	N	0.051115	0.722176	0.537960
C184	C	-0.826599	0.493243	0.000023
C185	C	-0.493266	0.826576	0.333356
C186	C	-0.159933	1.159910	0.666690
N187	N	-0.763956	0.453069	0.000007
N188	N	-0.430623	0.786402	0.333340
N189	N	-0.097289	1.119735	0.666673
C190	C	-0.823669	0.659018	0.000027
C191	C	-0.490336	0.992352	0.333361
C192	C	-0.157003	1.325685	0.666694
N193	N	-0.759875	0.684244	0.000015
N194	N	-0.426541	1.017577	0.333349
N195	N	-0.093208	1.350911	0.666682
C196	C	-1.151156	0.299599	0.000084
C197	C	-0.817823	0.632933	0.333418
C198	C	-0.484489	0.966266	0.666751
N199	N	-1.213797	0.339776	0.000103
N200	N	-0.880464	0.673110	0.333437
N201	N	-0.547130	1.006443	0.666770
H202	H	-0.434245	0.013589	0.054652
H203	H	-0.100911	0.346923	0.387986
H204	H	0.232422	0.680256	0.721319
C205	C	-1.108683	0.004436	0.622435
C206	C	-0.775350	0.337769	0.955769
C207	C	-0.442017	0.671103	1.289102
N208	N	-1.155939	0.047060	0.587869
N209	N	-0.822606	0.380394	0.921202
N210	N	-0.489273	0.713727	1.254535
H211	H	-0.546691	-0.206534	0.080614
H212	H	-0.213358	0.126799	0.413947
H213	H	0.119976	0.460133	0.747280
C214	C	-0.869068	-0.211589	0.202433
C215	C	-0.535735	0.121744	0.535766
C216	C	-0.202402	0.455078	0.869099
N217	N	-0.821806	-0.254212	0.167865
N218	N	-0.488472	0.079122	0.501198
N219	N	-0.155139	0.412455	0.834532
C220	C	-0.391133	-0.225733	-0.080378
C221	C	-0.057799	0.107601	0.252955
C222	C	0.275534	0.440934	0.586289
N223	N	-0.358195	-0.287554	-0.083899
N224	N	-0.024862	0.045779	0.249435
N225	N	0.308471	0.379113	0.582768
H226	H	-0.416627	-0.113890	-0.132304
H227	H	-0.083293	0.219444	0.201029
H228	H	0.250040	0.552777	0.534362
C229	C	-0.426324	0.024994	-0.072568
C230	C	-0.092991	0.358327	0.260766
C231	C	0.240342	0.691660	0.594099
N232	N	-0.406450	0.058500	-0.127497
N233	N	-0.073116	0.391833	0.205837
N234	N	0.260217	0.725167	0.539170
H235	H	-0.414018	-0.118297	0.132434
H236	H	-0.080684	0.215037	0.465767
H237	H	0.252649	0.548370	0.799100
C238	C	-0.550416	-0.229026	-0.079471
C239	C	-0.217082	0.104307	0.253863
C240	C	0.116251	0.437641	0.587196
N241	N	-0.564666	-0.291763	-0.082342
N242	N	-0.231333	0.041571	0.250991
N243	N	0.102000	0.374904	0.584325
H244	H	-0.558821	-0.115535	0.132052
H245	H	-0.225487	0.217798	0.465386
H246	H	0.107846	0.551132	0.798719
C247	C	-1.108651	0.004450	0.202439
C248	C	-0.775318	0.337784	0.535772
C249	C	-0.441984	0.671117	0.869106
N250	N	-1.155910	0.047075	0.167876
N251	N	-0.822577	0.380408	0.501209
N252	N	-0.489244	0.713741	0.834542
H253	H	-1.092402	-0.010272	0.785760
H254	H	-0.759069	0.323062	1.119093
H255	H	-0.425735	0.656395	1.452427
C256	C	-1.154091	0.133826	0.000080
C257	C	-0.820757	0.467159	0.333414
C258	C	-0.487424	0.800493	0.666747
N259	N	-1.217889	0.108607	0.000083
N260	N	-0.884556	0.441941	0.333416
N261	N	-0.551222	0.775274	0.666750
C262	C	-0.869074	-0.211580	0.377682
C263	C	-0.535741	0.121753	0.711015
C264	C	-0.202408	0.455087	1.044348
N265	N	-0.821810	-0.254192	0.412255
N266	N	-0.488477	0.079141	0.745588
N267	N	-0.155144	0.412474	1.078921
C268	C	-0.391426	-0.227783	0.075739
C269	C	-0.058093	0.105551	0.409072
C270	C	0.275240	0.438884	0.742406
N271	N	-0.358974	-0.289865	0.076253
N272	N	-0.025641	0.043469	0.409586
N273	N	0.307692	0.376802	0.742919
C274	C	-1.108644	0.004464	0.377676
C275	C	-0.775311	0.337797	0.711009
C276	C	-0.441977	0.671130	1.044342
N277	N	-1.155890	0.047103	0.412241
N278	N	-0.822557	0.380437	0.745575
N279	N	-0.489223	0.713770	1.078908
H280	H	-0.885400	-0.196900	0.634363
H281	H	-0.552067	0.136433	0.967696
H282	H	-0.218734	0.469766	1.301029
H283	H	-1.125053	0.539843	0.000068
H284	H	-0.791720	0.873176	0.333401
H285	H	-0.458386	1.206510	0.666735
H286	H	-1.122518	0.683068	0.000063
H287	H	-0.789185	1.016401	0.333396
H288	H	-0.455852	1.349735	0.666729
H289	H	-0.852711	0.253002	0.000037
H290	H	-0.519377	0.586336	0.333370
H291	H	-0.186044	0.919669	0.666704
C292	C	-0.869114	-0.211604	0.797681
C293	C	-0.535781	0.121729	1.131014
C294	C	-0.202448	0.455062	1.464347
N295	N	-0.821851	-0.254219	0.832251
N296	N	-0.488517	0.079114	1.165584
N297	N	-0.155184	0.412448	1.498918
