data_functionalizedCrystal
_audit_creation_method	'MofGen! by Chris Wilmer'
_symmetry_space_group_name_H-M	'P1'
_symmetry_Int_Tables_number	1
_symmetry_cell_setting	triclinic
loop_
_symmetry_equiv_pos_as_xyz
  x,y,z
_cell_length_a	15.944556
_cell_length_b	14.519710
_cell_length_c	13.596369
_cell_angle_alpha	89.995619
_cell_angle_beta	90.017613
_cell_angle_gamma	96.409243
loop_
_atom_site_label
_atom_site_type_symbol
_atom_site_fract_x
_atom_site_fract_y
_atom_site_fract_z
O1	O	-0.110109	1.223679	-0.081796
O2	O	0.139891	1.473679	0.168204
O3	O	0.389891	1.723679	0.418204
O4	O	0.639891	1.973679	0.668204
O5	O	-0.123075	0.955179	-0.081806
O6	O	0.126925	1.205179	0.168194
O7	O	0.376925	1.455179	0.418194
O8	O	0.626925	1.705179	0.668194
O9	O	0.005672	1.096758	-0.081765
O10	O	0.255672	1.346758	0.168235
O11	O	0.505672	1.596758	0.418235
O12	O	0.755672	1.846758	0.668235
O13	O	-0.238856	1.082100	-0.081837
O14	O	0.011144	1.332100	0.168163
O15	O	0.261144	1.582100	0.418163
O16	O	0.511144	1.832100	0.668163
O17	O	0.005679	1.096744	0.081818
O18	O	0.255679	1.346744	0.331818
O19	O	0.505679	1.596744	0.581818
O20	O	0.755679	1.846744	0.831818
O21	O	-0.123068	0.955165	0.081777
O22	O	0.126932	1.205165	0.331777
O23	O	0.376932	1.455165	0.581777
O24	O	0.626932	1.705165	0.831777
O25	O	-0.110102	1.223665	0.081787
O26	O	0.139898	1.473665	0.331787
O27	O	0.389898	1.723665	0.581787
O28	O	0.639898	1.973665	0.831787
Zn29	Zn	-0.116584	1.089413	0.107754
Zn30	Zn	0.133416	1.339413	0.357754
Zn31	Zn	0.383416	1.589413	0.607754
Zn32	Zn	0.633416	1.839413	0.857754
Zn33	Zn	-0.116593	1.089431	-0.107773
Zn34	Zn	0.133407	1.339431	0.142227
Zn35	Zn	0.383407	1.589431	0.392227
Zn36	Zn	0.633407	1.839431	0.642227
O37	O	-0.238849	1.082086	0.081746
O38	O	0.011151	1.332086	0.331746
O39	O	0.261151	1.582086	0.581746
O40	O	0.511151	1.832086	0.831746
C41	C	0.036970	1.096141	0.000033
C42	C	0.286970	1.346141	0.250033
C43	C	0.536970	1.596141	0.500033
C44	C	0.786970	1.846141	0.750033
C45	C	0.130218	1.094314	0.000054
C46	C	0.380218	1.344314	0.250054
C47	C	0.630218	1.594314	0.500054
C48	C	0.880218	1.844314	0.750054
C49	C	-0.122467	0.920814	-0.000015
C50	C	0.127533	1.170814	0.249985
C51	C	0.377533	1.420814	0.499985
C52	C	0.627533	1.670814	0.749985
C53	C	-0.120657	0.818435	-0.000017
C54	C	0.129343	1.068435	0.249983
C55	C	0.379343	1.318435	0.499983
C56	C	0.629343	1.568435	0.749983
C57	C	-0.110710	1.258030	-0.000006
C58	C	0.139290	1.508030	0.249994
C59	C	0.389290	1.758030	0.499994
C60	C	0.639290	2.008030	0.749994
C61	C	-0.112520	1.360408	-0.000011
C62	C	0.137480	1.610408	0.249989
C63	C	0.387480	1.860408	0.499989
C64	C	0.637480	2.110408	0.749989
C65	C	0.400985	1.001093	0.000084
C66	C	0.650985	1.251093	0.250084
C67	C	0.900985	1.501093	0.500084
C68	C	1.150985	1.751093	0.750084
C69	C	0.350331	1.046040	-0.080580
C70	C	0.600331	1.296040	0.169420
C71	C	0.850331	1.546040	0.419420
C72	C	1.100331	1.796040	0.669420
C73	C	0.465870	1.087797	0.000091
C74	C	0.715870	1.337797	0.250091
C75	C	0.965870	1.587797	0.500091
C76	C	1.215870	1.837797	0.750091
C77	C	0.350365	1.046049	0.080700
C78	C	0.600365	1.296049	0.330700
C79	C	0.850365	1.546049	0.580700
C80	C	1.100365	1.796049	0.830700
C81	C	0.300953	1.090994	0.000075
C82	C	0.550953	1.340994	0.250075
C83	C	0.800953	1.590994	0.500075
C84	C	1.050953	1.840994	0.750075
C85	C	0.416444	1.132720	-0.080639
C86	C	0.666444	1.382720	0.169361
C87	C	0.916444	1.632720	0.419361
C88	C	1.166444	1.882720	0.669361
C89	C	0.416482	1.132717	0.080713
C90	C	0.666482	1.382717	0.330713
C91	C	0.916482	1.632717	0.580713
C92	C	1.166482	1.882717	0.830713
C93	C	0.365861	1.177727	0.000030
C94	C	0.615861	1.427727	0.250030
C95	C	0.865861	1.677727	0.500030
C96	C	1.115861	1.927727	0.750030
C97	C	0.560874	1.085952	0.000100
C98	C	0.810874	1.335952	0.250100
C99	C	1.060874	1.585952	0.500100
C100	C	1.310874	1.835952	0.750100
C101	C	0.205951	1.092845	0.000059
C102	C	0.455951	1.342845	0.250059
C103	C	0.705951	1.592845	0.500059
C104	C	0.955951	1.842845	0.750059
C105	C	0.729851	1.082690	-0.000005
C106	C	0.979851	1.332690	0.249995
C107	C	1.229851	1.582690	0.499995
C108	C	1.479851	1.832690	0.749995
C109	C	0.636599	1.084480	0.000113
C110	C	0.886599	1.334480	0.250113
C111	C	1.136599	1.584480	0.500113
C112	C	1.386599	1.834480	0.750113
N113	N	-0.116577	1.089407	0.254846
N114	N	0.133423	1.339407	0.504846
N115	N	0.383423	1.589407	0.754846
N116	N	0.633423	1.839407	1.004846
C117	C	-0.119187	1.735293	-0.000013
C118	C	0.130813	1.985293	0.249987
C119	C	0.380813	2.235293	0.499987
C120	C	0.630813	2.485293	0.749987
C121	C	-0.117336	1.630988	-0.000013
C122	C	0.132664	1.880988	0.249987
C123	C	0.382664	2.130988	0.499987
C124	C	0.632664	2.380988	0.749987
C125	C	-0.115854	1.547854	-0.000013
C126	C	0.134146	1.797854	0.249987
C127	C	0.384146	2.047854	0.499987
C128	C	0.634146	2.297854	0.749987
C129	C	-0.114002	1.443543	-0.000011
C130	C	0.135998	1.693543	0.249989
C131	C	0.385998	1.943543	0.499989
C132	C	0.635998	2.193543	0.749989
N133	N	-0.116593	1.089444	-0.254865
N134	N	0.133407	1.339444	-0.004865
N135	N	0.383407	1.589444	0.245135
N136	N	0.633407	1.839444	0.495135
C137	C	-0.116594	1.089430	0.656137
C138	C	0.133406	1.339430	0.906137
C139	C	0.383406	1.589430	1.156137
C140	C	0.633406	1.839430	1.406137
C141	C	-0.116592	1.089421	0.544486
C142	C	0.133408	1.339421	0.794486
C143	C	0.383408	1.589421	1.044486
C144	C	0.633408	1.839421	1.294486
C145	C	-0.116586	1.089419	0.455495
C146	C	0.133414	1.339419	0.705495
C147	C	0.383414	1.589419	0.955495
C148	C	0.633414	1.839419	1.205495
C149	C	-0.116583	1.089409	0.343837
C150	C	0.133417	1.339409	0.593837
C151	C	0.383417	1.589409	0.843837
C152	C	0.633417	1.839409	1.093837
H153	H	0.416746	0.926419	0.000007
H154	H	0.666746	1.176419	0.250007
H155	H	0.916746	1.426419	0.500007
H156	H	1.166746	1.676419	0.750007
O157	O	0.316033	1.002222	0.162019
O158	O	0.566033	1.252222	0.412019
O159	O	0.816033	1.502222	0.662019
O160	O	1.066033	1.752222	0.912019
C161	C	0.333559	0.909168	0.161701
C162	C	0.583559	1.159168	0.411701
C163	C	0.833559	1.409168	0.661701
C164	C	1.083559	1.659168	0.911701
H165	H	0.391635	0.902473	0.114482
H166	H	0.641635	1.152473	0.364482
H167	H	0.891635	1.402473	0.614482
H168	H	1.141635	1.652473	0.864482
H169	H	0.345992	0.886480	0.240140
H170	H	0.595992	1.136480	0.490140
H171	H	0.845992	1.386480	0.740140
H172	H	1.095992	1.636480	0.990140
H173	H	0.277224	0.863304	0.130225
H174	H	0.527224	1.113304	0.380225
H175	H	0.777224	1.363304	0.630225
H176	H	1.027224	1.613304	0.880225
O177	O	0.347149	1.266844	-0.000151
O178	O	0.597149	1.516844	0.249849
O179	O	0.847149	1.766844	0.499849
O180	O	1.097149	2.016844	0.749849
C181	C	0.299195	1.282312	-0.084497
C182	C	0.549195	1.532312	0.165503
C183	C	0.799195	1.782312	0.415503
C184	C	1.049195	2.032312	0.665503
H185	H	0.266414	1.213423	-0.112277
H186	H	0.516414	1.463423	0.137723
H187	H	0.766414	1.713423	0.387723
H188	H	1.016414	1.963423	0.637723
H189	H	0.249798	1.330374	-0.065119
H190	H	0.499798	1.580374	0.184881
H191	H	0.749798	1.830374	0.434881
H192	H	0.999798	2.080374	0.684881
H193	H	0.342596	1.315646	-0.144296
H194	H	0.592596	1.565646	0.105704
H195	H	0.842596	1.815646	0.355704
H196	H	1.092596	2.065646	0.605704
H197	H	0.321447	1.009428	-0.148775
H198	H	0.571447	1.259428	0.101225
H199	H	0.821447	1.509428	0.351225
H200	H	1.071447	1.759428	0.601225
H201	H	0.445381	1.169296	0.148911
H202	H	0.695381	1.419296	0.398911
H203	H	0.945381	1.669296	0.648911
H204	H	1.195381	1.919296	0.898911
H205	H	0.445194	1.169316	-0.148896
H206	H	0.695194	1.419316	0.101104
H207	H	0.945194	1.669316	0.351104
H208	H	1.195194	1.919316	0.601104
