data_functionalizedCrystal
_audit_creation_method	'MofGen! by Chris Wilmer'
_symmetry_space_group_name_H-M	'P1'
_symmetry_Int_Tables_number	1
_symmetry_cell_setting	triclinic
loop_
_symmetry_equiv_pos_as_xyz
  x,y,z
_cell_length_a	15.538191
_cell_length_b	15.944551
_cell_length_c	14.750779
_cell_angle_alpha	77.355667
_cell_angle_beta	97.572172
_cell_angle_gamma	65.385416
loop_
_atom_site_label
_atom_site_type_symbol
_atom_site_fract_x
_atom_site_fract_y
_atom_site_fract_z
O1	O	1.229446	-0.248345	-0.079831
O2	O	0.955193	-0.151359	-0.079833
O3	O	1.099811	-0.324413	-0.079824
O4	O	1.084828	-0.075291	-0.079841
O5	O	1.140693	-0.373329	0.079829
O6	O	0.996075	-0.200275	0.079820
O7	O	1.270328	-0.297261	0.079821
Zn8	Zn	1.139692	-0.256535	0.105169
Zn9	Zn	1.085829	-0.192085	-0.105181
O10	O	1.125710	-0.124207	0.079812
C11	C	0.940539	-0.165670	-0.000007
C12	C	0.835967	-0.135444	-0.000007
C13	C	1.119630	-0.379976	0.000003
C14	C	1.117766	-0.472653	0.000004
C15	C	0.548159	-0.435726	-0.000001
C16	C	0.449895	-0.407303	-0.000004
C17	C	0.427459	-0.247430	-0.000015
C18	C	0.525725	-0.275842	-0.000007
C19	C	0.586068	-0.369990	-0.000002
C20	C	0.563633	-0.210106	-0.000008
C21	C	0.661889	-0.238514	-0.000005
C22	C	0.722237	-0.332657	-0.000003
C23	C	0.684324	-0.398398	0.000001
C24	C	0.503287	-0.115955	-0.000020
C25	C	0.541195	-0.050219	-0.000021
C26	C	0.639455	-0.078629	-0.000012
C27	C	0.699803	-0.172773	-0.000009
C28	C	0.677369	-0.012888	-0.000015
C29	C	0.775625	-0.041296	-0.000013
C30	C	0.798059	-0.201180	-0.000006
C31	C	1.023667	-0.658813	-0.000010
C32	C	1.087519	-0.757273	0.078709
C33	C	1.114392	-0.642349	-0.000004
C34	C	1.047235	-0.709035	-0.078697
C35	C	1.111125	-0.806262	-0.000015
C36	C	1.178285	-0.739608	0.078780
C37	C	1.137970	-0.691338	-0.078696
C38	C	1.201893	-0.789807	0.000042
C39	C	1.116272	-0.547921	0.000004
C40	C	1.109254	-0.900693	-0.000016
C41	C	1.284982	-0.282950	-0.000007
C42	C	1.389552	-0.313173	-0.000013
C43	C	1.105890	-0.068644	-0.000017
C44	C	1.107753	0.024036	-0.000024
N45	N	1.176460	-0.300522	0.248727
N46	N	1.049069	-0.148107	-0.248739
C47	C	0.946383	-0.025293	0.600530
C48	C	0.972154	-0.056113	0.701031
C49	C	1.100240	-0.209318	0.701002
C50	C	1.074477	-0.178513	0.600499
C51	C	0.997548	-0.086499	0.550271
C52	C	1.125641	-0.239719	0.550240
C53	C	1.099883	-0.208913	0.449746
C54	C	1.022960	-0.116902	0.399511
C55	C	0.971790	-0.055693	0.449777
C56	C	1.202574	-0.331730	0.600470
C57	C	1.253739	-0.392936	0.550211
C58	C	1.227976	-0.362133	0.449715
C59	C	1.151053	-0.270122	0.399480
C60	C	1.279146	-0.423342	0.399449
C61	C	1.253388	-0.392536	0.298955
C62	C	1.125295	-0.239316	0.298986
H63	H	0.802240	-0.355781	-0.000014
O64	O	1.050667	-0.149861	0.250227
C65	C	1.072252	-0.078890	0.274791
H66	H	1.154740	-0.109891	0.302406
H67	H	1.044481	-0.013184	0.208700
H68	H	1.034988	-0.056207	0.333130
H69	H	1.233685	-0.751722	0.145404
O70	O	0.856751	-0.292573	-0.000123
C71	C	0.893066	-0.288454	-0.082820
H72	H	0.890976	-0.214850	-0.110396
H73	H	0.971673	-0.347954	-0.064218
H74	H	0.845916	-0.299226	-0.140715
H75	H	0.948383	-0.602566	0.000068
H76	H	1.277274	-0.845962	0.000087
O77	O	1.227745	-0.361633	0.698091
C78	C	1.325762	-0.382077	0.731643
H79	H	1.347720	-0.340683	0.673720
H80	H	1.333614	-0.358974	0.798876
H81	H	1.375210	-0.463102	0.749464
H82	H	1.066188	-0.786071	0.145259
O83	O	1.163216	-0.656888	-0.158189
C84	C	1.093940	-0.639706	-0.241024
H85	H	1.021970	-0.628831	-0.222165
H86	H	1.081614	-0.571979	-0.298147
H87	H	1.122214	-0.704410	-0.269744
O88	O	0.981237	-0.694857	-0.158119
C89	C	1.029596	-0.752940	-0.213043
H90	H	1.100768	-0.816597	-0.164933
H91	H	0.980698	-0.781254	-0.245841
H92	H	1.046427	-0.707938	-0.272769
H93	H	0.930484	-0.006263	0.741947
O94	O	0.997834	-0.086806	0.301891
C95	C	0.918949	0.007521	0.268339
H96	H	0.917369	0.044802	0.326257
H97	H	0.928247	0.050662	0.201100
H98	H	0.847445	0.003373	0.250528
O99	O	1.303158	-0.452127	0.250276
C100	C	1.376594	-0.539938	0.316157
H101	H	1.356342	-0.551099	0.387804
H102	H	1.383516	-0.602488	0.287114
H103	H	1.449303	-0.537234	0.326826
H104	H	0.909140	0.019230	0.408880
H105	H	0.597296	-0.512393	0.000009
O106	O	0.871654	0.064136	0.551879
C107	C	0.831992	0.111547	0.617785
H108	H	0.888964	0.078791	0.689415
H109	H	0.810178	0.191902	0.588748
H110	H	0.764762	0.102287	0.628486
H111	H	1.162878	-0.284236	0.741909
O112	O	1.328390	-0.482389	0.598905
C113	C	1.306757	-0.553345	0.574371
H114	H	1.251753	-0.519822	0.501412
H115	H	1.376668	-0.615213	0.570923
H116	H	1.274357	-0.582376	0.630939
O117	O	0.742869	-0.489814	-0.000162
C118	C	0.704504	-0.506185	-0.082831
H119	H	0.656124	-0.433896	-0.140627
H120	H	0.767106	-0.552618	-0.110584
H121	H	0.659262	-0.545280	-0.064132
O122	O	0.413238	-0.471299	0.000039
C123	C	0.487564	-0.560476	0.000015
H124	H	0.562056	-0.566554	0.030246
H125	H	0.478887	-0.622382	0.046363
H126	H	0.481852	-0.564603	-0.076579
H127	H	0.378314	-0.170773	-0.000023
O128	O	0.407823	-0.088427	-0.000152
C129	C	0.359972	-0.097433	-0.082845
H130	H	0.416085	-0.152043	-0.110403
H131	H	0.304509	-0.123420	-0.064247
H132	H	0.320627	-0.024122	-0.140753
H133	H	1.341788	-0.498257	0.440358
H134	H	0.628221	0.063771	-0.000029
O135	O	0.482453	0.041182	0.000019
C136	C	0.387593	0.052170	-0.000010
H137	H	0.391550	-0.021914	0.030213
H138	H	0.354955	0.099815	0.046342
H139	H	0.339567	0.087495	-0.076605
H140	H	0.806492	0.012231	-0.000004
