data_functionalizedCrystal
_audit_creation_method	'MofGen! by Chris Wilmer'
_symmetry_space_group_name_H-M	'P1'
_symmetry_Int_Tables_number	1
_symmetry_cell_setting	triclinic
loop_
_symmetry_equiv_pos_as_xyz
  x,y,z
_cell_length_a	16.625546
_cell_length_b	16.959455
_cell_length_c	16.959447
_cell_angle_alpha	90.022996
_cell_angle_beta	90.032298
_cell_angle_gamma	90.019488
loop_
_atom_site_label
_atom_site_type_symbol
_atom_site_fract_x
_atom_site_fract_y
_atom_site_fract_z
Zn1	Zn	-0.321049	1.208391	0.447026
Zn2	Zn	0.178951	1.708391	0.947026
Zn3	Zn	-0.455897	1.208302	0.314843
Zn4	Zn	0.044103	1.708302	0.814843
Zn5	Zn	-0.321075	1.076214	0.314849
Zn6	Zn	0.178925	1.576214	0.814849
Zn7	Zn	-0.455836	1.076179	0.446968
Zn8	Zn	0.044164	1.576179	0.946968
O9	O	-0.388464	1.142271	0.380921
O10	O	0.111536	1.642271	0.880921
O11	O	-0.338951	1.318990	0.429513
O12	O	0.161049	1.818990	0.929513
O13	O	-0.438048	1.190758	0.204233
O14	O	0.061952	1.690758	0.704233
O15	O	-0.208239	1.093799	0.332410
O16	O	0.291761	1.593799	0.832410
O17	O	-0.438023	1.318925	0.332399
O18	O	0.061977	1.818925	0.832399
O19	O	-0.208220	1.190909	0.429520
O20	O	0.291780	1.690909	0.929520
O21	O	-0.338995	1.093713	0.204238
O22	O	0.161005	1.593713	0.704238
O23	O	-0.338937	0.965598	0.332354
O24	O	0.161063	1.465598	0.832354
O25	O	-0.437921	1.093740	0.557586
O26	O	0.062079	1.593740	1.057586
O27	O	-0.437946	0.965572	0.429420
O28	O	0.062054	1.465572	0.929420
O29	O	-0.338893	1.190876	0.557629
O30	O	0.161107	1.690876	1.057629
O31	O	-0.568721	1.190724	0.332342
O32	O	-0.068721	1.690724	0.832342
O33	O	-0.568677	1.093653	0.429414
O34	O	-0.068677	1.593653	0.929414
C35	C	-0.388438	0.936905	0.380882
C36	C	0.111562	1.436905	0.880882
C37	C	-0.388446	0.849048	0.380883
C38	C	0.111554	1.349048	0.880883
C39	C	-0.440000	0.477528	0.330328
C40	C	0.060000	0.977528	0.830328
C41	C	-0.336996	0.477618	0.431611
C42	C	0.163004	0.977618	0.931611
C43	C	-0.336982	0.560164	0.431592
C44	C	0.163018	1.060164	0.931592
C45	C	-0.388479	0.601396	0.380941
C46	C	0.111521	1.101396	0.880941
C47	C	-0.439990	0.560082	0.330309
C48	C	0.060010	1.060082	0.830309
C49	C	-0.285479	0.601484	0.482228
C50	C	0.214521	1.101484	0.982228
C51	C	-0.285464	0.684034	0.482211
C52	C	0.214536	1.184034	0.982211
C53	C	-0.336958	0.725268	0.431556
C54	C	0.163042	1.225268	0.931556
C55	C	-0.388469	0.683949	0.380922
C56	C	0.111531	1.183949	0.880922
C57	C	-0.439967	0.725181	0.330271
C58	C	0.060033	1.225181	0.830271
C59	C	-0.491475	0.683864	0.279632
C60	C	0.008525	1.183864	0.779632
C61	C	-0.491484	0.601315	0.279654
C62	C	0.008516	1.101315	0.779654
C63	C	-0.336949	0.807816	0.431534
C64	C	0.163051	1.307816	0.931534
C65	C	-0.439957	0.807735	0.330252
C66	C	0.060043	1.307735	0.830252
C67	C	-0.597955	1.142197	0.380888
C68	C	-0.097955	1.642197	0.880888
C69	C	-0.687576	1.142237	0.380901
C70	C	-0.187576	1.642237	0.880901
C71	C	-1.015752	1.142375	0.380983
C72	C	-0.515752	1.642375	0.880983
C73	C	-0.924443	1.142334	0.380962
C74	C	-0.424443	1.642334	0.880962
C75	C	-0.851667	1.142305	0.380941
C76	C	-0.351667	1.642305	0.880941
C77	C	-0.760353	1.142266	0.380922
C78	C	-0.260353	1.642266	0.880922
C79	C	-0.178155	1.142368	0.380972
C80	C	0.321845	1.642368	0.880972
C81	C	-0.088534	1.142409	0.380994
C82	C	0.411466	1.642409	0.880994
C83	C	-0.388397	1.142314	0.587090
C84	C	0.111603	1.642314	1.087090
C85	C	-0.388369	1.142332	0.674946
C86	C	0.111631	1.642332	1.174946
C87	C	-0.388491	1.348440	0.380962
C88	C	0.111509	1.848440	0.880962
C89	C	-0.388503	1.436296	0.380979
C90	C	0.111497	1.936296	0.880979
C91	C	-0.388473	1.142275	0.175555
C92	C	0.111527	1.642275	0.675555
C93	C	-0.388274	1.142410	0.087699
C94	C	0.111726	1.642410	0.587699
C95	C	-0.336711	1.091875	1.046431
C96	C	0.163289	1.591875	1.546431
C97	C	-0.439856	1.192928	1.046414
C98	C	0.060144	1.692928	1.546414
C99	C	-0.439875	1.192914	0.963868
C100	C	0.060125	1.692914	1.463868
C101	C	-0.388312	1.142379	0.922600
C102	C	0.111688	1.642379	1.422600
C103	C	-0.336730	1.091858	0.963877
C104	C	0.163270	1.591858	1.463877
C105	C	-0.491462	1.243429	0.922584
C106	C	0.008538	1.743429	1.422584
C107	C	-0.491483	1.243417	0.840033
C108	C	0.008517	1.743417	1.340033
C109	C	-0.439915	1.192885	0.798763
C110	C	0.060085	1.692885	1.298763
C111	C	-0.388331	1.142362	0.840046
C112	C	0.111669	1.642362	1.340046
C113	C	-0.336768	1.091827	0.798778
C114	C	0.163232	1.591827	1.298778
C115	C	-0.285179	1.041308	0.840059
C116	C	0.214821	1.541308	1.340059
C117	C	-0.285162	1.041326	0.922608
C118	C	0.214838	1.541326	1.422608
C119	C	-0.439932	1.192867	0.716215
C120	C	0.060068	1.692867	1.216215
C121	C	-0.336787	1.091810	0.716224
C122	C	0.163213	1.591810	1.216224
H123	H	-0.243522	0.717668	0.523444
H124	H	0.256478	1.217668	1.023444
H125	H	-0.481929	1.234005	0.682607
H126	H	0.018071	1.734005	1.182607
O127	O	-0.547110	1.297920	0.795516
O128	O	-0.047110	1.797920	1.295516
H129	H	-0.610389	1.284350	0.811337
H130	H	-0.110389	1.784350	1.311337
O131	O	-0.495499	0.852207	0.275619
O132	O	0.004501	1.352207	0.775619
H133	H	-0.531317	0.809606	0.240416
H134	H	-0.031317	1.309606	0.740416
O135	O	-0.229562	0.986808	0.795542
O136	O	0.270438	1.486808	1.295542
H137	H	-0.243375	0.924766	0.811362
H138	H	0.256625	1.424766	1.311362
H139	H	-0.533408	0.717446	0.238396
H140	H	-0.033408	1.217446	0.738396
O141	O	-0.547039	0.556755	0.225041
O142	O	-0.047039	1.056755	0.725041
H143	H	-0.538399	0.492427	0.233572
H144	H	-0.038399	0.992427	0.733572
O145	O	-0.229508	0.986855	0.967130
O146	O	0.270492	1.486855	1.467130
H147	H	-0.238159	0.995358	1.031464
H148	H	0.261841	1.495358	1.531464
H149	H	-0.294706	1.050745	1.080046
H150	H	0.205294	1.550745	1.580046
H151	H	-0.481935	0.443884	0.289097
H152	H	0.018065	0.943884	0.789097
O153	O	-0.495469	1.247433	1.090918
O154	O	0.004531	1.747433	1.590918
H155	H	-0.486788	1.238959	1.155254
H156	H	0.013212	1.738959	1.655254
O157	O	-0.547071	1.297932	0.967095
O158	O	-0.047071	1.797932	1.467095
H159	H	-0.610356	1.284337	0.951238
H160	H	-0.110356	1.784337	1.451238
H161	H	-0.295073	0.444042	0.472853
H162	H	0.204927	0.944042	0.972853
H163	H	-0.243557	0.567906	0.523470
H164	H	0.256443	1.067906	1.023470
H165	H	-0.295013	0.841453	0.472765
H166	H	0.204987	1.341453	0.972765
O167	O	-0.281167	1.037309	0.671713
O168	O	0.218833	1.537309	1.171713
H169	H	-0.245296	1.002184	0.714289
H170	H	0.254704	1.502184	1.214289
