data_functionalizedCrystal
_audit_creation_method	'MofGen! by Chris Wilmer'
_symmetry_space_group_name_H-M	'P1'
_symmetry_Int_Tables_number	1
_symmetry_cell_setting	triclinic
loop_
_symmetry_equiv_pos_as_xyz
  x,y,z
_cell_length_a	13.032831
_cell_length_b	18.050589
_cell_length_c	13.033454
_cell_angle_alpha	97.215798
_cell_angle_beta	90.908350
_cell_angle_gamma	82.833186
loop_
_atom_site_label
_atom_site_type_symbol
_atom_site_fract_x
_atom_site_fract_y
_atom_site_fract_z
Zn1	Zn	1.498458	-0.360556	0.780878
Zn2	Zn	1.520149	-0.502252	0.608889
Zn3	Zn	1.348298	-0.364514	0.587108
Zn4	Zn	1.326418	-0.471132	0.759022
O5	O	1.423331	-0.424614	0.683974
O6	O	1.645255	-0.390719	0.776325
O7	O	1.515586	-0.498661	0.462075
O8	O	1.368296	-0.260069	0.612844
O9	O	1.661191	-0.494822	0.649965
O10	O	1.478618	-0.257161	0.755206
O11	O	1.389329	-0.397466	0.446073
O12	O	1.201476	-0.367291	0.591651
O13	O	1.331006	-0.441784	0.905846
O14	O	1.185401	-0.445623	0.717956
O15	O	1.457403	-0.360544	0.921904
O16	O	1.494371	-0.602044	0.628773
O17	O	1.352038	-0.579181	0.739075
C18	C	1.156122	-0.403510	0.650069
C19	C	1.041806	-0.394497	0.635588
C20	C	0.982926	-0.429318	0.691532
C21	C	0.864774	-0.420003	0.676567
C22	C	1.423209	-0.617558	0.683942
C23	C	1.423246	-0.700104	0.683974
C24	C	1.345916	-0.887156	0.743941
C25	C	1.332758	-0.944174	0.646915
C26	C	1.423346	-0.851241	0.684000
C27	C	1.436554	-0.941307	0.781043
C28	C	1.423439	-0.997231	0.684033
C29	C	1.410144	-0.907173	0.586918
C30	C	1.513976	-0.904299	0.721116
C31	C	1.500861	-0.961304	0.624029
C32	C	1.423289	-0.767139	0.683982
C33	C	1.423497	-1.081332	0.684041
C34	C	1.691583	-0.445800	0.718013
C35	C	1.805896	-0.454829	0.732518
C36	C	1.389344	-0.397251	0.952236
C37	C	1.374861	-0.385591	1.066554
C38	C	1.423479	-0.230916	0.684033
C39	C	1.423541	-0.148374	0.684059
C40	C	1.457245	-0.451821	0.416764
C41	C	1.471927	-0.463288	0.302472
C42	C	1.430874	-0.430461	1.125437
C43	C	1.415906	-0.418411	1.243590
H44	H	0.842951	-0.491534	0.791503
O45	O	1.027239	-0.473011	0.761955
C46	C	1.080967	-0.428879	0.836316
H47	H	1.101550	-0.377496	0.802188
H48	H	1.029988	-0.409797	0.907358
C49	C	1.155434	-0.538969	0.909594
C50	C	1.180723	-0.475863	0.867675
H51	H	1.216967	-0.567951	0.928942
H52	H	1.119234	-0.568702	0.859499
H53	H	1.112950	-0.523058	0.968791
H54	H	1.223195	-0.491775	0.808472
H55	H	1.216933	-0.446134	0.917761
H56	H	1.590552	-0.886603	0.752524
O57	O	0.997628	-0.350594	0.565344
C58	C	1.020991	-0.276345	0.591268
H59	H	1.040206	-0.266618	0.677164
H60	H	1.090243	-0.267363	0.543997
C61	C	0.903407	-0.232456	0.461912
C62	C	0.926998	-0.220508	0.567413
H63	H	0.845430	-0.198012	0.447193
H64	H	0.887669	-0.282479	0.444444
H65	H	0.961124	-0.224972	0.422532
H66	H	0.869287	-0.228000	0.606791
H67	H	0.942724	-0.170484	0.584888
O68	O	1.449899	-0.959369	0.878990
C69	C	1.458204	-0.893567	0.947786
H70	H	1.484545	-0.848671	0.903579
H71	H	1.379721	-0.871995	0.984804
C72	C	1.505357	-0.966618	1.086943
C73	C	1.537718	-0.911478	1.032649
H74	H	1.554401	-0.977666	1.139294
H75	H	1.499758	-1.010950	1.040595
H76	H	1.439954	-0.948634	1.117782
H77	H	1.603113	-0.929467	1.001800
H78	H	1.543330	-0.867150	1.078994
O79	O	1.241453	-0.965400	0.609454
C80	C	1.243129	-1.043680	0.609141
H81	H	1.326677	-1.071470	0.607645
H82	H	1.203268	-1.055156	0.681737
C83	C	1.083329	-1.042016	0.514592
C84	C	1.185944	-1.076149	0.512746
H85	H	1.048051	-1.062045	0.455134
H86	H	1.082197	-0.989277	0.514807
H87	H	1.050126	-1.051583	0.575093
H88	H	1.219149	-1.066574	0.452252
H89	H	1.187080	-1.128888	0.512519
O90	O	1.542299	-0.519853	1.258385
C91	C	1.516459	-0.589444	1.281665
H92	H	1.467105	-0.579959	1.354677
H93	H	1.471170	-0.616401	1.214504
C94	C	1.676698	-0.653507	1.209521
C95	C	1.616088	-0.641858	1.299200
H96	H	1.738153	-0.685840	1.220333
H97	H	1.694106	-0.606623	1.193833
H98	H	1.638945	-0.675968	1.153562
H99	H	1.653836	-0.619388	1.355154
H100	H	1.598688	-0.688739	1.314898
H101	H	1.280362	-0.855008	0.794538
H102	H	0.827716	-0.383290	0.617593
O103	O	1.396711	-0.888962	0.489053
C104	C	1.396806	-0.810759	0.490220
H105	H	1.374907	-0.781040	0.570705
H106	H	1.477226	-0.798717	0.469445
C107	C	1.344755	-0.818247	0.311980
C108	C	1.317849	-0.781745	0.410832
H109	H	1.296054	-0.800350	0.263007
H110	H	1.344695	-0.870934	0.311193
H111	H	1.411773	-0.808209	0.294683
H112	H	1.250838	-0.791791	0.428133
H113	H	1.317896	-0.729058	0.411621
O114	O	1.501229	-0.486920	1.081065
C115	C	1.500524	-0.486374	0.972974
H116	H	1.423006	-0.457259	0.948342
H117	H	1.565392	-0.454732	0.950239
C118	C	1.612051	-0.603612	0.949143
C119	C	1.516838	-0.567857	0.918888
H120	H	1.622118	-0.653873	0.915778
H121	H	1.612529	-0.603978	1.021965
H122	H	1.666097	-0.577235	0.930195
H123	H	1.462793	-0.594228	0.937847
H124	H	1.516350	-0.567497	0.846067
O125	O	1.578936	-0.999483	0.563345
C126	C	1.564671	-0.982161	0.461171
H127	H	1.479593	-0.961903	0.448316
H128	H	1.613429	-0.935985	0.447980
C129	C	1.702647	-1.077860	0.400536
C130	C	1.598151	-1.052986	0.384744
H131	H	1.723302	-1.121547	0.353391
H132	H	1.712260	-1.089529	0.469372
H133	H	1.743265	-1.039374	0.389544
H134	H	1.557533	-1.091468	0.395749
H135	H	1.588531	-1.041325	0.315908
O136	O	1.345352	-0.362027	1.287817
C137	C	1.271095	-0.392769	1.341542
H138	H	1.268783	-0.454042	1.308278
H139	H	1.292655	-0.389596	1.426958
C140	C	1.166820	-0.272611	1.370632
C141	C	1.163973	-0.347866	1.329771
H142	H	1.100742	-0.244911	1.363377
H143	H	1.216849	-0.251898	1.334440
H144	H	1.184791	-0.269977	1.441810
H145	H	1.146015	-0.350499	1.258593
H146	H	1.113938	-0.368578	1.365951
H147	H	1.315830	-0.338251	1.103614
