data_functionalizedCrystal
_audit_creation_method	'MofGen! by Chris Wilmer'
_symmetry_space_group_name_H-M	'P1'
_symmetry_Int_Tables_number	1
_symmetry_cell_setting	triclinic
loop_
_symmetry_equiv_pos_as_xyz
  x,y,z
_cell_length_a	15.995350
_cell_length_b	11.026607
_cell_length_c	10.065875
_cell_angle_alpha	100.697662
_cell_angle_beta	98.791555
_cell_angle_gamma	83.960804
loop_
_atom_site_label
_atom_site_type_symbol
_atom_site_fract_x
_atom_site_fract_y
_atom_site_fract_z
O1	O	0.340991	-1.627917	-0.113481
O2	O	0.301065	-1.274611	-0.113484
O3	O	0.200596	-1.460922	-0.113481
O4	O	0.441460	-1.441606	-0.113484
O5	O	0.219853	-1.425395	0.113507
O6	O	0.320322	-1.239084	0.113504
O7	O	0.360247	-1.592390	0.113508
Zn8	Zn	0.343342	-1.410096	0.149545
Zn9	Zn	0.317971	-1.456905	-0.149522
O10	O	0.460716	-1.406079	0.113504
C11	C	0.178909	-1.442360	0.000011
C12	C	0.085597	-1.439967	0.000003
C13	C	0.303328	-1.211637	0.000010
C14	C	0.281371	-1.076923	0.000008
C15	C	0.357984	-1.655365	0.000011
C16	C	0.379940	-1.790080	0.000003
C17	C	-0.253446	-1.431369	0.000007
C18	C	-0.226055	-1.298762	-0.000503
C19	C	-0.128960	-1.301076	0.000009
C20	C	-0.085243	-1.435634	0.000004
C21	C	-0.105459	-1.480793	0.129624
C22	C	-0.202588	-1.477442	0.129732
C23	C	-0.224432	-1.520584	-0.128396
C24	C	-0.127636	-1.520821	-0.130109
C25	C	0.009819	-1.438051	0.000007
C26	C	-0.348507	-1.428955	0.000014
C27	C	0.482403	-1.424641	0.000010
C28	C	0.575714	-1.427036	0.000009
N29	N	0.360658	-1.378160	0.353650
C30	C	0.341997	-1.003118	0.000007
C31	C	0.319305	-0.863884	0.000005
N32	N	0.300649	-1.488851	-0.353627
C33	C	0.323989	-1.445785	0.421430
C34	C	0.337324	-1.421215	0.578597
H35	H	-0.116175	-1.264174	-0.092908
F36	F	0.469750	-0.842203	0.000019
F37	F	0.431801	-1.055251	0.000010
F38	F	0.191569	-1.024787	0.000018
H39	H	0.250594	-0.824003	-0.000029
H40	H	-0.075746	-1.420240	0.226085
F41	F	-0.246770	-1.648633	-0.129542
H42	H	0.282719	-1.521868	0.363107
H43	H	0.378589	-1.345120	0.636917
F44	F	0.414591	-1.278702	0.429880
H45	H	-0.260465	-1.260276	-0.093456
F46	F	-0.252154	-1.210714	0.119983
H47	H	-0.101006	-1.234718	0.093083
F48	F	-0.225171	-1.395238	0.256378
F49	F	-0.224897	-1.603565	0.137430
H50	H	-0.098149	-1.620171	-0.137938
F51	F	0.246878	-1.588511	0.570152
H52	H	-0.259845	-1.492579	-0.226640
H53	H	-0.115735	-1.487979	-0.225998
F54	F	-0.066988	-1.609019	0.135926
