data_functionalizedCrystal
_audit_creation_method	'MofGen! by Chris Wilmer'
_symmetry_space_group_name_H-M	'P1'
_symmetry_Int_Tables_number	1
_symmetry_cell_setting	triclinic
loop_
_symmetry_equiv_pos_as_xyz
  x,y,z
_cell_length_a	14.908571
_cell_length_b	25.639240
_cell_length_c	14.908854
_cell_angle_alpha	86.660665
_cell_angle_beta	89.795614
_cell_angle_gamma	86.728305
loop_
_atom_site_label
_atom_site_type_symbol
_atom_site_fract_x
_atom_site_fract_y
_atom_site_fract_z
Zn1	Zn	1.345233	-0.233547	-0.587514
Zn2	Zn	1.353776	-0.326304	-0.437118
Zn3	Zn	1.203543	-0.234141	-0.428508
Zn4	Zn	1.194812	-0.316208	-0.578777
O5	O	1.274341	-0.277550	-0.507979
O6	O	1.472191	-0.249829	-0.574824
O7	O	1.341076	-0.318552	-0.310146
O8	O	1.222417	-0.160898	-0.449653
O9	O	1.478468	-0.317977	-0.464328
O10	O	1.326517	-0.160462	-0.566475
O11	O	1.230701	-0.250840	-0.303821
O12	O	1.076560	-0.241050	-0.441181
O13	O	1.207537	-0.300769	-0.705765
O14	O	1.070145	-0.301344	-0.551583
O15	O	1.318051	-0.240039	-0.712184
O16	O	1.332610	-0.398129	-0.455856
O17	O	1.215820	-0.390711	-0.559932
C18	C	1.040728	-0.270166	-0.494500
C19	C	0.940786	-0.267019	-0.488755
C20	C	0.746362	-0.324000	-0.592767
C21	C	0.652457	-0.321044	-0.587372
C22	C	0.659070	-0.258151	-0.472576
C23	C	0.752974	-0.261106	-0.477971
C24	C	0.796617	-0.294032	-0.538067
C25	C	0.890524	-0.296990	-0.543457
C26	C	0.897134	-0.234094	-0.428666
C27	C	0.803230	-0.231139	-0.423271
C28	C	1.274218	-0.413391	-0.507901
C29	C	1.274246	-0.471506	-0.507903
C30	C	1.328568	-0.831601	-0.568913
C31	C	1.328594	-0.886206	-0.568933
O32	O	1.374633	-0.914213	-0.620725
N33	N	1.274461	-0.913790	-0.508073
C34	C	1.220292	-0.886766	-0.447196
O35	O	1.174250	-0.915242	-0.395432
C36	C	1.220263	-0.832162	-0.447181
C37	C	1.274406	-0.804581	-0.508039
C38	C	1.382706	-0.804020	-0.629767
C39	C	1.382682	-0.749420	-0.629746
C40	C	1.328519	-0.722400	-0.568871
C41	C	1.274381	-0.749981	-0.508017
C42	C	1.166090	-0.805139	-0.386308
C43	C	1.166064	-0.750532	-0.386299
C44	C	1.220208	-0.722951	-0.447157
C45	C	1.220195	-0.668360	-0.447122
N46	N	1.274327	-0.640776	-0.507981
C47	C	1.328490	-0.667796	-0.568856
C48	C	1.220358	-1.001438	-0.447232
C49	C	1.220391	-1.056041	-0.447242
C50	C	1.328692	-1.055477	-0.568981
C51	C	1.328662	-1.000873	-0.568966
C52	C	1.274490	-0.973854	-0.508092
C53	C	1.328435	-0.553131	-0.568807
C54	C	1.328408	-0.498526	-0.568777
C55	C	1.220105	-0.499094	-0.447042
C56	C	1.220135	-0.553695	-0.447068
C57	C	1.274302	-0.580712	-0.507957
O58	O	1.174176	-0.640318	-0.395358
O59	O	1.374516	-0.639313	-0.620619
C60	C	1.508867	-0.284963	-0.521511
C61	C	1.608808	-0.288122	-0.527278
C62	C	1.260867	-0.269211	-0.742513
C63	C	1.255125	-0.265658	-0.842457
C64	C	1.274488	-0.141178	-0.508078
C65	C	1.274551	-0.083065	-0.508120
C66	C	1.359290	-0.329488	-1.036854
C67	C	1.353898	-0.326151	-1.130760
C68	C	1.238954	-0.255645	-1.124180
C69	C	1.244346	-0.258982	-1.030273
C70	C	1.304515	-0.295905	-0.986613
C71	C	1.309902	-0.299245	-0.892704
C72	C	1.194963	-0.228736	-0.886126
C73	C	1.189571	-0.225399	-0.980033
C74	C	1.287815	-0.285820	-0.274361
C75	C	1.293731	-0.289231	-0.174427
H76	H	1.372501	-0.476071	-0.618335
C77	C	1.113041	-0.505122	-0.326722
C78	C	1.160563	-0.469387	-0.380137
H79	H	1.076281	-0.486780	-0.285420
H80	H	1.076385	-0.523947	-0.363894
H81	H	1.154231	-0.528869	-0.294616
H82	H	1.119373	-0.445642	-0.412248
H83	H	1.197222	-0.450553	-0.342961
C84	C	0.934764	-0.214813	-0.278145
C85	C	0.952376	-0.201150	-0.368534
H86	H	0.968872	-0.194478	-0.241023
H87	H	0.872598	-0.208338	-0.266342
H88	H	0.950891	-0.250887	-0.265766
H89	H	0.936242	-0.165077	-0.380915
H90	H	1.014556	-0.207621	-0.380342
C91	C	1.080081	-0.221406	-0.773556
C92	C	1.134748	-0.191818	-0.830899
H93	H	1.042910	-0.198616	-0.739459
H94	H	1.043568	-0.241793	-0.808194
H95	H	1.116694	-0.243870	-0.734115
H96	H	1.098134	-0.169357	-0.870345
H97	H	1.171264	-0.171422	-0.796259
C98	C	0.638827	-0.237032	-0.318744
C99	C	0.611070	-0.221956	-0.406540
H100	H	0.609192	-0.214684	-0.277983
H101	H	0.624171	-0.272132	-0.304586
H102	H	0.701944	-0.234497	-0.314118
H103	H	0.547954	-0.224496	-0.411168
H104	H	0.625720	-0.186848	-0.420702
H105	H	1.176247	-0.979442	-0.397654
C106	C	1.468781	-0.333480	-1.243325
C107	C	1.414112	-0.363067	-1.185983
H108	H	1.505962	-0.356271	-1.277411
H109	H	1.432177	-0.311021	-1.282767
H110	H	1.505293	-0.313088	-1.208680
H111	H	1.377595	-0.383456	-1.220628
H112	H	1.450720	-0.385535	-1.146535
H113	H	0.926056	-0.323801	-0.592389
C114	C	1.045883	-0.863222	-0.366776
C115	C	1.106559	-0.835444	-0.319420
H116	H	1.009129	-0.881931	-0.325481
H117	H	1.009221	-0.839444	-0.403938
H118	H	1.078153	-0.887137	-0.403016
H119	H	1.074289	-0.811526	-0.283186
H120	H	1.143225	-0.859225	-0.282243
H121	H	1.189972	-0.225581	-1.159744
H122	H	0.781896	-0.350812	-0.641695
H123	H	1.372792	-1.077486	-0.618550
H124	H	1.426767	-0.726967	-0.679304
H125	H	1.176054	-0.576153	-0.397506
C126	C	0.655357	-0.383508	-0.701382
C127	C	0.597215	-0.353986	-0.647498
H128	H	0.621251	-0.403847	-0.738500
H129	H	0.690026	-0.360685	-0.737952
H130	H	0.694216	-0.406021	-0.664235
H131	H	0.558361	-0.331470	-0.684646
H132	H	0.562532	-0.376811	-0.610924
C133	C	0.776870	-0.143206	-0.378096
C134	C	0.755254	-0.194947	-0.357215
H135	H	0.747249	-0.120863	-0.337316
H136	H	0.839981	-0.140682	-0.373477
H137	H	0.758023	-0.132978	-0.437655
H138	H	0.774107	-0.205176	-0.297659
H139	H	0.692129	-0.197473	-0.361826
C140	C	1.435482	-0.547074	-0.689140
C141	C	1.387975	-0.582822	-0.635738
H142	H	1.472243	-0.565405	-0.730455
H143	H	1.394290	-0.523326	-0.721224
H144	H	1.472143	-0.528252	-0.651955
H145	H	1.351307	-0.601641	-0.672923
H146	H	1.429171	-0.606579	-0.603652
C147	C	1.417658	-0.816713	-0.784590
C148	C	1.442254	-0.833714	-0.696685
H149	H	1.454431	-0.835040	-0.825900
H150	H	1.356498	-0.823325	-0.794219
H151	H	1.425378	-0.780243	-0.793269
H152	H	1.434527	-0.870183	-0.688004
H153	H	1.503428	-0.827105	-0.687052
C154	C	1.435707	-1.005812	-0.689303
C155	C	1.388166	-0.970558	-0.635872
H156	H	1.472437	-0.987098	-0.730615
H157	H	1.472394	-1.029578	-0.652144
H158	H	1.394528	-1.024664	-0.721399
H159	H	1.429345	-0.951709	-0.603771
H160	H	1.351476	-0.946783	-0.673036
C161	C	1.113339	-1.051100	-0.326910
C162	C	1.160881	-1.086354	-0.380340
H163	H	1.076592	-1.069813	-0.285614
H164	H	1.154510	-1.032256	-0.294805
H165	H	1.076660	-1.027326	-0.364078
H166	H	1.197565	-1.110126	-0.343172
H167	H	1.119705	-1.105206	-0.412447
C168	C	1.059005	-0.756578	-0.265975
C169	C	1.106516	-0.720833	-0.319382
H170	H	1.022249	-0.738243	-0.224660
H171	H	1.022348	-0.775399	-0.303150
H172	H	1.100202	-0.780327	-0.233882
H173	H	1.065319	-0.697086	-0.351479
H174	H	1.143177	-0.702003	-0.282202
H175	H	1.408286	-0.359551	-1.001306
C176	C	1.422980	-0.368599	-0.908645
C177	C	1.376039	-0.339830	-0.844711
H178	H	1.463815	-0.393653	-0.879016
H179	H	1.381683	-0.386059	-0.942996
H180	H	1.455290	-0.345597	-0.947274
H181	H	1.343723	-0.362832	-0.806086
H182	H	1.417342	-0.322369	-0.810344
H183	H	1.140585	-0.195336	-1.015593
