data_functionalizedCrystal
_audit_creation_method	'MofGen! by Chris Wilmer'
_symmetry_space_group_name_H-M	'P1'
_symmetry_Int_Tables_number	1
_symmetry_cell_setting	triclinic
loop_
_symmetry_equiv_pos_as_xyz
  x,y,z
_cell_length_a	10.654550
_cell_length_b	10.654550
_cell_length_c	15.186229
_cell_angle_alpha	90.004532
_cell_angle_beta	89.992514
_cell_angle_gamma	95.515097
loop_
_atom_site_label
_atom_site_type_symbol
_atom_site_fract_x
_atom_site_fract_y
_atom_site_fract_z
O1	O	-1.667840	0.176398	0.073302
O2	O	-1.302362	0.193204	0.073288
O3	O	-1.493504	0.002062	0.073289
O4	O	-1.476698	0.367540	0.073301
O5	O	-1.493489	0.002057	-0.073169
O6	O	-1.302347	0.193199	-0.073170
O7	O	-1.667825	0.176393	-0.073156
Zn8	Zn	-1.485084	0.184796	-0.096416
Zn9	Zn	-1.485103	0.184802	0.096548
O10	O	-1.476683	0.367536	-0.073156
C11	C	-1.255556	0.191968	0.000057
C12	C	-1.116113	0.188276	0.000052
C13	C	-1.492263	-0.044739	0.000060
C14	C	-1.488571	-0.184182	0.000061
C15	C	-1.714631	0.177630	0.000077
C16	C	-1.854074	0.181321	0.000088
C17	C	-1.036627	0.300817	0.000068
C18	C	-0.905607	0.297341	0.000083
C19	C	-0.933570	0.068771	0.000069
C20	C	-1.064588	0.072249	0.000048
C21	C	-1.020482	0.432780	0.000080
C22	C	-0.889461	0.429304	0.000095
N23	N	-1.485080	0.184791	-0.228109
C24	C	-1.477925	0.414336	0.000074
C25	C	-1.481616	0.553779	0.000079
C26	C	-1.369075	0.633265	0.000066
C27	C	-1.372551	0.764286	0.000060
C28	C	-1.601121	0.736322	0.000076
C29	C	-1.597643	0.605304	0.000088
C30	C	-1.237112	0.649410	0.000054
C31	C	-1.240589	0.780431	0.000047
C32	C	-1.569752	0.100182	-0.546027
C33	C	-1.569749	0.100182	-0.453837
C34	C	-1.400441	0.269415	-0.453848
C35	C	-1.400451	0.269419	-0.546036
C36	C	-1.485106	0.184796	-0.592123
C37	C	-1.485092	0.184792	-0.407745
C38	C	-1.485087	0.184793	-0.307789
C39	C	-1.485112	0.184796	-0.692085
N40	N	-1.485118	0.184797	0.228241
H41	H	-1.129302	-0.019393	0.000021
H42	H	-1.638684	0.031278	-0.583548
Br43	Br	-1.174149	0.856552	0.105437
Br44	Br	-1.079935	0.502811	0.105472
H45	H	-1.689285	0.540590	0.000109
H46	H	-1.638677	0.031283	-0.416308
H47	H	-1.695586	0.778290	0.000099
H48	H	-0.843783	0.469183	-0.063133
H49	H	-0.891602	-0.025694	0.000079
H50	H	-1.185501	0.620073	0.061342
Br51	Br	-1.069371	0.518805	-0.102072
H52	H	-1.331516	0.338312	-0.416315
H53	H	-1.190869	0.822170	-0.061252
Br54	Br	-0.819902	0.512177	0.102258
H55	H	-1.195073	0.613764	-0.063178
Br56	Br	-1.285576	0.384270	-0.608602
