data_functionalizedCrystal
_audit_creation_method	'MofGen! by Chris Wilmer'
_symmetry_space_group_name_H-M	'P1'
_symmetry_Int_Tables_number	1
_symmetry_cell_setting	triclinic
loop_
_symmetry_equiv_pos_as_xyz
  x,y,z
_cell_length_a	13.032831
_cell_length_b	25.639239
_cell_length_c	13.033255
_cell_angle_alpha	97.151592
_cell_angle_beta	76.666554
_cell_angle_gamma	82.842759
loop_
_atom_site_label
_atom_site_type_symbol
_atom_site_fract_x
_atom_site_fract_y
_atom_site_fract_z
Zn1	Zn	1.699817	-0.367531	-0.806304
Zn2	Zn	1.677095	-0.442241	-0.628671
Zn3	Zn	1.499664	-0.342104	-0.606207
Zn4	Zn	1.522107	-0.442194	-0.783713
O5	O	1.599671	-0.398517	-0.706224
O6	O	1.845430	-0.388103	-0.801596
O7	O	1.634657	-0.418336	-0.477065
O8	O	1.526332	-0.272322	-0.632803
O9	O	1.828737	-0.442992	-0.671091
O10	O	1.673383	-0.291004	-0.779813
O11	O	1.504300	-0.344765	-0.460560
O12	O	1.354014	-0.344719	-0.610897
O13	O	1.564582	-0.442912	-0.935336
O14	O	1.370502	-0.418255	-0.741310
O15	O	1.695144	-0.388057	-0.951934
O16	O	1.656419	-0.515389	-0.649185
O17	O	1.542550	-0.515355	-0.763093
C18	C	1.323721	-0.378724	-0.671215
C19	C	1.205671	-0.370270	-0.656264
C20	C	1.161214	-0.402929	-0.714027
C21	C	1.039204	-0.394193	-0.698575
C22	C	1.599486	-0.534344	-0.706152
C23	C	1.599509	-0.592460	-0.706170
C24	C	1.659154	-0.952863	-0.647050
C25	C	1.659197	-1.007472	-0.647069
O26	O	1.709718	-1.035725	-0.596727
N27	N	1.599866	-1.034775	-0.706318
C28	C	1.540497	-1.007468	-0.765559
O29	O	1.490036	-1.035706	-0.815957
C30	C	1.540461	-0.952861	-0.765545
C31	C	1.599787	-0.925560	-0.706284
C32	C	1.718477	-0.925562	-0.587795
C33	C	1.718432	-0.870957	-0.587774
C34	C	1.659065	-0.843654	-0.647008
C35	C	1.599742	-0.870955	-0.706263
C36	C	1.481098	-0.925556	-0.824792
C37	C	1.481068	-0.870946	-0.824773
C38	C	1.540394	-0.843645	-0.765512
C39	C	1.540331	-0.789047	-0.765477
N40	N	1.599661	-0.761744	-0.706229
C41	C	1.659029	-0.789047	-0.646994
C42	C	1.540579	-1.122145	-0.765586
C43	C	1.540609	-1.176750	-0.765594
C44	C	1.659311	-1.176750	-0.647106
C45	C	1.659275	-1.122144	-0.647092
C46	C	1.599910	-1.094842	-0.706337
C47	C	1.658929	-0.674374	-0.646954
C48	C	1.658876	-0.619764	-0.646935
C49	C	1.540179	-0.619769	-0.765428
C50	C	1.540227	-0.674373	-0.765443
C51	C	1.599611	-0.701675	-0.706204
O52	O	1.489839	-0.760759	-0.815797
O53	O	1.709492	-0.760804	-0.596616
C54	C	1.876699	-0.418389	-0.741369
C55	C	1.994751	-0.426857	-0.756346
C56	C	1.634901	-0.418316	-0.983250
C57	C	1.649914	-0.426752	-1.101302
C58	C	1.599888	-0.262164	-0.706322
C59	C	1.599981	-0.204059	-0.706364
C60	C	1.607632	-0.402832	-1.267785
C61	C	1.592106	-0.394110	-1.145771
C62	C	1.564639	-0.378763	-0.430283
C63	C	1.549832	-0.370194	-0.312258
H64	H	1.047014	-0.461286	-0.817250
Br65	Br	1.490454	-0.336774	-1.058688
Br66	Br	1.448184	-0.312860	-1.225172
H67	H	1.213482	-0.437356	-0.774923
H68	H	1.710900	-0.461154	-1.153552
Br69	Br	1.459617	-0.582704	-0.845818
H70	H	1.153405	-0.335840	-0.595376
H71	H	1.707288	-0.696596	-0.598719
Br72	Br	1.709260	-0.460174	-1.354869
H73	H	1.766744	-0.848732	-0.539522
Br74	Br	0.952105	-0.336801	-0.597084
Br75	Br	1.739393	-0.582715	-0.566502
H76	H	1.766827	-0.947787	-0.539560
H77	H	1.707584	-1.099918	-0.598837
H78	H	1.492288	-1.198973	-0.813839
H79	H	1.707655	-1.198991	-0.598878
Br80	Br	1.459998	-1.085098	-0.845990
H81	H	1.432783	-0.947775	-0.873043
H82	H	1.491923	-0.696604	-0.813702
Br83	Br	1.400502	-0.833898	-0.905187
