data_functionalizedCrystal
_audit_creation_method	'MofGen! by Chris Wilmer'
_symmetry_space_group_name_H-M	'P1'
_symmetry_Int_Tables_number	1
_symmetry_cell_setting	triclinic
loop_
_symmetry_equiv_pos_as_xyz
  x,y,z
_cell_length_a	10.686220
_cell_length_b	12.594516
_cell_length_c	10.686551
_cell_angle_alpha	85.596700
_cell_angle_beta	90.308082
_cell_angle_gamma	94.397503
loop_
_atom_site_label
_atom_site_type_symbol
_atom_site_fract_x
_atom_site_fract_y
_atom_site_fract_z
Zn1	Zn	1.972283	-0.259491	-0.562399
Zn2	Zn	1.956050	-0.452140	-0.352650
Zn3	Zn	1.746401	-0.286719	-0.368718
Zn4	Zn	1.762480	-0.449983	-0.578427
O5	O	1.859303	-0.362083	-0.465548
O6	O	2.145671	-0.274554	-0.521143
O7	O	1.914717	-0.442494	-0.179236
O8	O	1.776429	-0.134156	-0.394426
O9	O	2.133745	-0.416093	-0.367041
O10	O	1.942383	-0.114152	-0.536723
O11	O	1.760688	-0.320960	-0.191041
O12	O	1.572992	-0.318868	-0.409968
O13	O	1.803834	-0.412416	-0.751846
O14	O	1.584805	-0.438818	-0.564041
O15	O	1.957975	-0.272463	-0.740070
O16	O	1.930308	-0.600805	-0.382583
O17	O	1.788093	-0.599220	-0.548461
C18	C	1.533382	-0.381564	-0.490488
C19	C	1.393954	-0.389922	-0.501188
C20	C	1.859220	-0.638630	-0.465542
C21	C	1.859303	-0.756928	-0.465573
C22	C	1.781939	-0.825363	-0.555736
C23	C	1.742587	-0.906041	-0.443608
C24	C	1.898771	-0.887040	-0.577711
C25	C	1.819885	-0.836056	-0.353389
C26	C	1.976128	-0.817041	-0.487566
C27	C	1.936813	-0.897690	-0.375356
C28	C	2.186497	-0.342527	-0.440512
C29	C	2.325928	-0.334193	-0.429842
C30	C	1.884508	-0.339162	-0.792747
C31	C	1.895249	-0.329394	-0.932180
C32	C	1.859423	-0.084453	-0.465579
C33	C	1.859474	0.033857	-0.465592
C34	C	1.834268	-0.384834	-0.139617
C35	C	1.823770	-0.394288	-0.000166
H36	H	1.374354	-0.280088	-0.360574
H37	H	1.964673	-0.266362	-0.980651
Cl38	Cl	1.319186	-0.473476	-0.608128
Cl39	Cl	2.037930	-0.946386	-0.257528
Cl40	Cl	1.680729	-0.776384	-0.673313
Cl41	Cl	1.590167	-0.965939	-0.414884
Cl42	Cl	1.768280	-0.801192	-0.206955
H43	H	1.754361	-0.457322	-0.951701
Cl44	Cl	1.950201	-0.922128	-0.724112
Cl45	Cl	2.128513	-0.757102	-0.516343
