data_functionalizedCrystal
_audit_creation_method	'MofGen! by Chris Wilmer'
_symmetry_space_group_name_H-M	'P1'
_symmetry_Int_Tables_number	1
_symmetry_cell_setting	triclinic
loop_
_symmetry_equiv_pos_as_xyz
  x,y,z
_cell_length_a	19.805407
_cell_length_b	12.594516
_cell_length_c	19.805399
_cell_angle_alpha	89.977527
_cell_angle_beta	89.979591
_cell_angle_gamma	90.013756
loop_
_atom_site_label
_atom_site_type_symbol
_atom_site_fract_x
_atom_site_fract_y
_atom_site_fract_z
Zn1	Zn	1.034804	-0.423712	-0.382759
Zn2	Zn	1.534804	0.076288	0.117241
Zn3	Zn	1.034748	-0.601705	-0.269581
Zn4	Zn	1.534748	-0.101705	0.230419
Zn5	Zn	0.921619	-0.423747	-0.269582
Zn6	Zn	1.421619	0.076253	0.230418
Zn7	Zn	0.921611	-0.601655	-0.382726
Zn8	Zn	1.421611	-0.101655	0.117274
O9	O	0.978196	-0.512705	-0.326162
O10	O	1.478196	-0.012705	0.173838
O11	O	1.129513	-0.447329	-0.367759
O12	O	1.629513	0.052671	0.132241
O13	O	1.019721	-0.578135	-0.174864
O14	O	1.519721	-0.078135	0.325136
O15	O	0.936660	-0.274797	-0.284609
O16	O	1.436660	0.225203	0.215391
O17	O	1.129472	-0.578100	-0.284607
O18	O	1.629472	-0.078100	0.215393
O19	O	1.019817	-0.274771	-0.367760
O20	O	1.519817	0.225229	0.132240
O21	O	0.936605	-0.447390	-0.174865
O22	O	1.436605	0.052610	0.325135
O23	O	0.826901	-0.447340	-0.284577
O24	O	1.326901	0.052660	0.215423
O25	O	0.936647	-0.578014	-0.477447
O26	O	1.436647	-0.078014	0.022553
O27	O	0.826896	-0.578048	-0.367704
O28	O	1.326896	-0.078048	0.132296
O29	O	1.019809	-0.447280	-0.477471
O30	O	1.519809	0.052720	0.022529
O31	O	1.019713	-0.750644	-0.284575
O32	O	1.519713	-0.250644	0.215425
O33	O	0.936592	-0.750607	-0.367703
O34	O	1.436592	-0.250607	0.132297
C35	C	0.802340	-0.512694	-0.326137
C36	C	1.302340	-0.012694	0.173863
C37	C	0.727108	-0.512714	-0.326143
C38	C	1.227108	-0.012714	0.173857
C39	C	0.978164	-0.789246	-0.326150
C40	C	1.478164	-0.289246	0.173850
C41	C	0.978213	-0.907551	-0.326168
C42	C	1.478213	-0.407551	0.173832
C43	C	0.265342	-0.444739	-0.369551
C44	C	0.765342	0.055261	0.130449
C45	C	0.336030	-0.444741	-0.369546
C46	C	0.836030	0.055259	0.130454
C47	C	0.371346	-0.512721	-0.326184
C48	C	0.871346	-0.012721	0.173816
C49	C	0.335970	-0.580710	-0.282828
C50	C	0.835970	-0.080710	0.217172
C51	C	0.265283	-0.580713	-0.282837
C52	C	0.765283	-0.080713	0.217163
C53	C	0.621043	-0.580702	-0.282792
C54	C	1.121043	-0.080702	0.217208
C55	C	0.691735	-0.580692	-0.282785
C56	C	1.191735	-0.080692	0.217215
C57	C	0.691791	-0.444731	-0.369502
C58	C	1.191791	0.055269	0.130498
C59	C	0.621103	-0.444733	-0.369511
C60	C	1.121103	0.055267	0.130489
C61	C	0.585733	-0.512726	-0.326158
C62	C	1.085733	-0.012726	0.173842
C63	C	0.509085	-0.512725	-0.326164
C64	C	1.009085	-0.012725	0.173836
C65	C	0.447993	-0.512718	-0.326173
C66	C	0.947993	-0.012718	0.173827
C67	C	1.023475	-0.976786	-0.281003
C68	C	1.523475	-0.476786	0.218997
C69	C	1.040013	-1.047490	-0.342782
C70	C	1.540013	-0.547490	0.157218
C71	C	0.961760	-1.047645	-0.264428
C72	C	1.461760	-0.547645	0.235572
C73	C	0.994782	-0.976697	-0.387979
C74	C	1.494782	-0.476697	0.112021
C75	C	0.916500	-0.976846	-0.309583
C76	C	1.416500	-0.476846	0.190417
C77	C	0.933015	-1.047519	-0.371405
C78	C	1.433015	-0.547519	0.128595
C79	C	1.154738	-0.512716	-0.326187
C80	C	1.654738	-0.012716	0.173813
C81	C	1.229970	-0.512721	-0.326197
C82	C	1.729970	-0.012721	0.173803
C83	C	0.978234	-0.512638	-0.502705
C84	C	1.478234	-0.012638	-0.002705
C85	C	0.978250	-0.512609	-0.577937
C86	C	1.478250	-0.012609	-0.077937
C87	C	0.978246	-0.235084	-0.326188
C88	C	1.478246	0.264916	0.173812
C89	C	0.978267	-0.116778	-0.326200
C90	C	1.478267	0.383222	0.173800
C91	C	1.021553	-0.444532	-0.613294
C92	C	1.521553	0.055468	-0.113294
C93	C	1.021560	-0.444502	-0.683983
C94	C	1.521560	0.055498	-0.183983
C95	C	0.978267	-0.512553	-0.719312
C96	C	1.478267	-0.012553	-0.219312
C97	C	0.934958	-0.580633	-0.683949
C98	C	1.434958	-0.080633	-0.183949
C99	C	0.934948	-0.580658	-0.613262
C100	C	1.434948	-0.080658	-0.113262
C101	C	0.934996	-0.580534	-0.969023
C102	C	1.434996	-0.080534	-0.469023
C103	C	0.935011	-0.580506	-1.039715
C104	C	1.435011	-0.080506	-0.539715
C105	C	1.021608	-0.444378	-1.039744
C106	C	1.521608	0.055622	-0.539744
C107	C	1.021599	-0.444402	-0.969056
C108	C	1.521599	0.055598	-0.469056
C109	C	0.978288	-0.512477	-0.933700
C110	C	1.478288	-0.012477	-0.433700
C111	C	0.978280	-0.512509	-0.857051
C112	C	1.478280	-0.012509	-0.357051
C113	C	0.978277	-0.512528	-0.795959
C114	C	1.478277	-0.012528	-0.295959
C115	C	0.978197	-0.512695	-0.150306
C116	C	1.478197	-0.012695	0.349694
C117	C	0.978312	-0.512423	-0.075074
C118	C	1.478312	-0.012423	0.424926
H119	H	0.236593	-0.389376	-0.404858
H120	H	0.736593	0.110624	0.095142
H121	H	1.061758	-0.945727	-0.242843
H122	H	1.561758	-0.445727	0.257157
H123	H	1.008669	-0.945666	-0.440250
H124	H	1.508669	-0.445666	0.059750
H125	H	0.947821	-1.078808	-0.212202
H126	H	1.447821	-0.578808	0.287798
Br127	Br	0.829497	-0.925088	-0.286147
Br128	Br	1.329497	-0.425088	0.213853
H129	H	0.899705	-0.636038	-0.712720
H130	H	1.399705	-0.136038	-0.212720
H131	H	1.092225	-1.078524	-0.356827
H132	H	1.592225	-0.578524	0.143173
Br133	Br	0.573178	-0.352468	-0.428359
Br134	Br	1.073178	0.147532	0.071641
H135	H	0.899753	-0.635924	-1.068478
H136	H	1.399753	-0.135924	-0.568478
H137	H	1.056810	-0.389120	-0.584534
H138	H	1.556810	0.110880	-0.084534
H139	H	0.720597	-0.389370	-0.404804
H140	H	1.220597	0.110630	0.095196
Br141	Br	0.383897	-0.672977	-0.223982
Br142	Br	0.883897	-0.172977	0.276018
Br143	Br	1.080364	-0.352157	-0.731966
Br144	Br	1.580364	0.147843	-0.231966
Br145	Br	0.217277	-0.672991	-0.224005
Br146	Br	0.717277	-0.172991	0.275995
Br147	Br	1.080360	-0.352049	-0.921113
Br148	Br	1.580360	0.147951	-0.421113
H149	H	1.056872	-0.388944	-1.068539
H150	H	1.556872	0.111056	-0.568539
Br151	Br	0.869255	-1.098963	-0.435157
Br152	Br	1.369255	-0.598963	0.064843
H153	H	0.899740	-0.635980	-0.940244
H154	H	1.399740	-0.135980	-0.440244
H155	H	0.899679	-0.636082	-0.584475
H156	H	1.399679	-0.136082	-0.084475
H157	H	0.720487	-0.636054	-0.247473
H158	H	1.220487	-0.136054	0.252527
Br159	Br	0.384032	-0.352485	-0.428392
Br160	Br	0.884032	0.147515	0.071608
Br161	Br	0.573049	-0.672946	-0.223935
Br162	Br	1.073049	-0.172946	0.276065
