data_functionalizedCrystal
_audit_creation_method	'MofGen! by Chris Wilmer'
_symmetry_space_group_name_H-M	'P1'
_symmetry_Int_Tables_number	1
_symmetry_cell_setting	triclinic
loop_
_symmetry_equiv_pos_as_xyz
  x,y,z
_cell_length_a	10.654562
_cell_length_b	10.654559
_cell_length_c	9.130313
_cell_angle_alpha	90.001323
_cell_angle_beta	89.996930
_cell_angle_gamma	84.489394
loop_
_atom_site_label
_atom_site_type_symbol
_atom_site_fract_x
_atom_site_fract_y
_atom_site_fract_z
O1	O	1.667831	0.176468	-0.121887
O2	O	1.302355	0.193258	-0.121867
O3	O	1.493490	0.002125	-0.121877
O4	O	1.476696	0.367601	-0.121877
O5	O	1.493487	0.002130	0.121721
O6	O	1.302352	0.193263	0.121731
O7	O	1.667828	0.176473	0.121712
Cu8	Cu	1.485090	0.184869	0.143964
Cu9	Cu	1.485093	0.184863	-0.144120
O10	O	1.476693	0.367606	0.121722
C11	C	1.255556	0.192024	-0.000066
C12	C	1.116113	0.188326	-0.000059
C13	C	1.492253	-0.044670	-0.000081
C14	C	1.488556	-0.184113	-0.000090
C15	C	1.050581	0.186604	0.132715
C16	C	0.919559	0.183139	0.132691
C17	C	0.919611	0.183124	-0.132894
C18	C	1.050632	0.186580	-0.132868
C19	C	1.116062	0.188350	0.265524
C20	C	1.050530	0.186629	0.398310
C21	C	0.919507	0.183164	0.398285
C22	C	0.854017	0.181420	0.265476
C23	C	1.372545	-0.235658	-0.000088
C24	C	1.369079	-0.366681	-0.000076
C25	C	1.597647	-0.394602	-0.000076
C26	C	1.601111	-0.263582	-0.000077
C27	C	1.259990	-0.156189	-0.000101
C28	C	1.143969	-0.207733	-0.000100
C29	C	1.140503	-0.338755	-0.000089
C30	C	1.253058	-0.418234	-0.000079
C31	C	1.714627	0.177707	-0.000093
C32	C	1.854070	0.181405	-0.000109
C33	C	1.477930	0.414402	-0.000077
C34	C	1.481627	0.553844	-0.000078
N35	N	1.485097	0.184872	0.346587
N36	N	1.485096	0.184849	-0.346742
C37	C	1.569754	0.100268	0.423235
C38	C	1.569750	0.100253	0.576571
C39	C	1.400430	0.269458	0.576599
C40	C	1.400428	0.269466	0.423265
C41	C	1.654423	0.015674	0.346556
C42	C	1.739087	-0.068936	0.423204
C43	C	1.739084	-0.068951	0.576541
C44	C	1.654416	0.015644	0.653230
H45	H	1.222746	0.191175	0.265559
H46	H	0.747330	0.178596	0.265466
H47	H	1.331498	0.338333	0.639050
H48	H	1.654412	0.015616	0.778087
H49	H	1.689284	-0.459323	-0.000070
H50	H	1.052331	-0.143014	-0.000096
H51	H	1.695578	-0.221614	-0.000077
H52	H	1.654436	0.015681	0.221702
H53	H	1.808014	-0.137818	0.360756
H54	H	1.331492	0.338357	0.360858
H55	H	1.250227	-0.524920	-0.000070
H56	H	1.046034	-0.380718	-0.000073
H57	H	1.808012	-0.137853	0.638946
H58	H	1.103861	0.188040	0.506438
H59	H	0.866279	0.181707	-0.241021
H60	H	1.262799	-0.049503	-0.000113
H61	H	0.866155	0.181753	0.506405
H62	H	1.103989	0.187988	-0.240984
