data_functionalizedCrystal
_audit_creation_method	'MofGen! by Chris Wilmer'
_symmetry_space_group_name_H-M	'P1'
_symmetry_Int_Tables_number	1
_symmetry_cell_setting	triclinic
loop_
_symmetry_equiv_pos_as_xyz
  x,y,z
_cell_length_a	6.817900
_cell_length_b	16.255748
_cell_length_c	16.255661
_cell_angle_alpha	95.347428
_cell_angle_beta	103.488922
_cell_angle_gamma	103.490428
loop_
_atom_site_label
_atom_site_type_symbol
_atom_site_fract_x
_atom_site_fract_y
_atom_site_fract_z
V1	V	-4.026718	-0.117775	-0.264162
O2	O	-4.014190	0.004956	-0.258836
O3	O	-3.978277	-0.232852	-0.262642
O4	O	-3.978280	-0.116272	-0.379242
O5	O	-4.014186	-0.112431	-0.141429
V6	V	-4.510357	-0.103059	-0.249447
O7	O	-4.287724	-0.150057	-0.296440
O8	O	-4.699549	-0.070777	-0.217170
O9	O	-4.335592	0.012018	-0.250968
O10	O	-4.640282	-0.225790	-0.254774
O11	O	-4.640286	-0.108403	-0.372181
O12	O	-4.335588	-0.104562	-0.134368
C13	C	-3.823268	-0.260896	-0.258548
C14	C	-3.864948	-0.354974	-0.258072
C15	C	-3.800462	-0.634058	-0.252241
C16	C	-3.906949	-0.591123	-0.324865
C17	C	-4.015121	-0.693616	-0.256396
C18	C	-3.834252	-0.568919	-0.184633
C19	C	-3.941325	-0.527229	-0.257218
C20	C	-4.122189	-0.651929	-0.329071
C21	C	-4.049434	-0.629719	-0.188775
C22	C	-4.156080	-0.586816	-0.261419
C23	C	-4.057627	-0.789466	-0.255923
C24	C	-3.898837	-0.431382	-0.257697
C25	C	-3.823272	-0.112186	-0.407282
C26	C	-3.864952	-0.111718	-0.501362
C27	C	-3.775508	-0.106135	-0.724167
C28	C	-3.931928	-0.178192	-0.793821
C29	C	-3.941336	-0.110842	-0.673609
C30	C	-3.859207	-0.037960	-0.771590
C31	C	-4.015104	-0.109991	-0.839990
C32	C	-4.097238	-0.182963	-0.742033
C33	C	-4.024455	-0.042667	-0.719786
C34	C	-4.181011	-0.114745	-0.789421
C35	C	-3.898835	-0.111332	-0.577760
C36	C	-4.057622	-0.109507	-0.935837
C37	C	-4.153942	0.040057	-0.255059
C38	C	-4.091501	0.134135	-0.255540
C39	C	-4.153938	-0.108651	-0.106323
C40	C	-4.091497	-0.109114	-0.012242
H41	H	-4.109985	-0.646981	-0.131226
C42	C	-4.508611	-0.601374	-0.342341
C43	C	-4.358702	-0.558820	-0.266690
H44	H	-4.633692	-0.584084	-0.345599
H45	H	-4.536615	-0.661445	-0.342533
H46	H	-4.457199	-0.587441	-0.390199
H47	H	-4.410108	-0.572758	-0.218832
H48	H	-4.330700	-0.498736	-0.266490
C49	C	-3.482850	-0.544011	-0.097604
C50	C	-3.669358	-0.520298	-0.102234
H51	H	-3.381053	-0.514001	-0.046734
H52	H	-3.433525	-0.530219	-0.145957
H53	H	-3.507483	-0.603897	-0.096967
H54	H	-3.644729	-0.460413	-0.102877
H55	H	-3.718692	-0.534085	-0.053868
H56	H	-3.603754	-0.102588	-0.695678
H57	H	-3.893258	-0.235490	-0.826049
H58	H	-3.846340	-0.573883	-0.382412
H59	H	-4.244217	-0.687853	-0.390177
C60	C	-4.429139	-0.046734	-0.865502
C61	C	-4.413026	-0.119678	-0.827705
H62	H	-4.572376	-0.049782	-0.889133
H63	H	-4.358843	-0.043907	-0.909613
H64	H	-4.367153	0.002955	-0.823389
H65	H	-4.474999	-0.169367	-0.869820
H66	H	-4.483351	-0.122513	-0.783589
C67	C	-4.191895	-0.265506	-0.635522
C68	C	-4.232523	-0.265786	-0.724066
H69	H	-4.275399	-0.316641	-0.624431
H70	H	-4.224452	-0.217435	-0.609484
H71	H	-4.048282	-0.262267	-0.612604
H72	H	-4.376134	-0.269019	-0.746984
H73	H	-4.199982	-0.313871	-0.750114
H74	H	-4.063046	0.014633	-0.687536
H75	H	-3.758969	0.023305	-0.785048
H76	H	-3.650608	-0.654960	-0.248445
