data_functionalizedCrystal
_audit_creation_method	'MofGen! by Chris Wilmer'
_symmetry_space_group_name_H-M	'P1'
_symmetry_Int_Tables_number	1
_symmetry_cell_setting	triclinic
loop_
_symmetry_equiv_pos_as_xyz
  x,y,z
_cell_length_a	19.077105
_cell_length_b	18.050589
_cell_length_c	19.076919
_cell_angle_alpha	92.275255
_cell_angle_beta	90.076224
_cell_angle_gamma	87.724731
loop_
_atom_site_label
_atom_site_type_symbol
_atom_site_fract_x
_atom_site_fract_y
_atom_site_fract_z
Zn1	Zn	1.058247	-0.359281	-0.440438
Zn2	Zn	1.391580	-0.025948	-0.107105
Zn3	Zn	1.724914	0.307386	0.226228
Zn4	Zn	1.062879	-0.478689	-0.322938
Zn5	Zn	1.396213	-0.145356	0.010395
Zn6	Zn	1.729546	0.187977	0.343728
Zn7	Zn	0.945466	-0.349333	-0.318231
Zn8	Zn	1.278799	-0.015999	0.015102
Zn9	Zn	1.612132	0.317334	0.348435
Zn10	Zn	0.940701	-0.478241	-0.435691
Zn11	Zn	1.274034	-0.144908	-0.102358
Zn12	Zn	1.607368	0.188425	0.230976
O13	O	1.001823	-0.416386	-0.379325
O14	O	1.335157	-0.083053	-0.045991
O15	O	1.668490	0.250281	0.287342
O16	O	1.157193	-0.379472	-0.428809
O17	O	1.490526	-0.046139	-0.095475
O18	O	1.823860	0.287195	0.237858
O19	O	1.051237	-0.457554	-0.223983
O20	O	1.384570	-0.124220	0.109351
O21	O	1.717903	0.209113	0.442684
O22	O	0.960482	-0.246731	-0.334459
O23	O	1.293815	0.086603	-0.001126
O24	O	1.627148	0.419936	0.332208
O25	O	1.160596	-0.467201	-0.342482
O26	O	1.493930	-0.133867	-0.009149
O27	O	1.827263	0.199466	0.324185
O28	O	1.043342	-0.254040	-0.424244
O29	O	1.376675	0.079293	-0.090911
O30	O	1.710008	0.412627	0.242422
O31	O	0.964973	-0.362516	-0.220524
O32	O	1.298307	-0.029183	0.112809
O33	O	1.631640	0.304151	0.446143
O34	O	0.846502	-0.362082	-0.329856
O35	O	1.179835	-0.028748	0.003478
O36	O	1.513169	0.304585	0.336811
O37	O	0.952361	-0.466437	-0.534652
O38	O	1.285695	-0.133104	-0.201319
O39	O	1.619028	0.200229	0.132014
O40	O	0.843002	-0.456790	-0.416153
O41	O	1.176335	-0.123457	-0.082820
O42	O	1.509668	0.209876	0.250514
O43	O	1.038722	-0.379038	-0.538140
O44	O	1.372055	-0.045704	-0.204807
O45	O	1.705388	0.287629	0.128526
O46	O	1.046617	-0.582551	-0.337879
O47	O	1.379950	-0.249218	-0.004545
O48	O	1.713283	0.084115	0.328788
O49	O	0.956853	-0.582222	-0.420717
O50	O	1.290186	-0.248889	-0.087384
O51	O	1.623520	0.084444	0.245949
C52	C	0.819256	-0.408308	-0.371979
C53	C	1.152589	-0.074975	-0.038645
C54	C	1.485922	0.258358	0.294688
C55	C	0.741152	-0.404871	-0.368853
C56	C	1.074485	-0.071538	-0.035519
C57	C	1.407818	0.261795	0.297814
C58	C	1.001739	-0.609334	-0.379310
C59	C	1.335072	-0.276001	-0.045976
C60	C	1.668406	0.057333	0.287357
C61	C	1.001766	-0.691882	-0.379329
C62	C	1.335100	-0.358548	-0.045996
C63	C	1.668433	-0.025215	0.287337
C64	C	0.702657	-0.452635	-0.412244
C65	C	1.035990	-0.119302	-0.078911
C66	C	1.369324	0.214032	0.254423
C67	C	0.629270	-0.449396	-0.409310
C68	C	0.962603	-0.116063	-0.075977
C69	C	1.295937	0.217271	0.257357
C70	C	0.594379	-0.398396	-0.362981
C71	C	0.927712	-0.065063	-0.029648
C72	C	1.261046	0.268271	0.303685
C73	C	0.632879	-0.350627	-0.319588
C74	C	0.966212	-0.017294	0.013745
C75	C	1.299545	0.316040	0.347078
C76	C	0.706264	-0.353863	-0.322526
C77	C	1.039598	-0.020530	0.010807
C78	C	1.372931	0.312803	0.344141
C79	C	0.375093	-0.383419	-0.349388
C80	C	0.708426	-0.050086	-0.016054
C81	C	1.041759	0.283248	0.317279
C82	C	0.301702	-0.380188	-0.346452
C83	C	0.635035	-0.046855	-0.013118
C84	C	0.968368	0.286479	0.320215
C85	C	0.298098	-0.478956	-0.436175
C86	C	0.631431	-0.145623	-0.102841
C87	C	0.964765	0.187710	0.230492
C88	C	0.371485	-0.482191	-0.439105
C89	C	0.704818	-0.148858	-0.105772
C90	C	1.038152	0.184476	0.227561
C91	C	0.409979	-0.434419	-0.395715
C92	C	0.743312	-0.101086	-0.062382
C93	C	1.076645	0.232247	0.270951
N94	N	0.519366	-0.395085	-0.359980
N95	N	0.852699	-0.061752	-0.026646
N96	N	1.186032	0.271581	0.306687
N97	N	0.484990	-0.437727	-0.398721
N98	N	0.818324	-0.104394	-0.065387
N99	N	1.151657	0.228940	0.267946
C100	C	0.952999	-0.891182	-0.424363
C101	C	1.286333	-0.557848	-0.091029
C102	C	1.619666	-0.224515	0.242304
C103	C	0.938449	-0.937256	-0.359556
C104	C	1.271783	-0.603922	-0.026222
C105	C	1.605116	-0.270589	0.307111
C106	C	1.001835	-0.843016	-0.379341
C107	C	1.335168	-0.509682	-0.046008
C108	C	1.668502	-0.176349	0.287325
C109	C	1.016419	-0.944025	-0.444157
C110	C	1.349752	-0.610692	-0.110824
C111	C	1.683086	-0.277358	0.222510
C112	C	1.001900	-0.989004	-0.379358
C113	C	1.335233	-0.655671	-0.046025
C114	C	1.668566	-0.322337	0.287308
C115	C	0.987253	-0.887999	-0.314499
C116	C	1.320586	-0.554666	0.018834
C117	C	1.653919	-0.221333	0.352168
C118	C	1.065250	-0.894768	-0.399145
C119	C	1.398584	-0.561434	-0.065811
C120	C	1.731917	-0.228101	0.267522
C121	C	1.050726	-0.940818	-0.334295
C122	C	1.384060	-0.607485	-0.000961
C123	C	1.717393	-0.274152	0.332372
C124	C	1.001796	-0.758915	-0.379332
C125	C	1.335129	-0.425582	-0.045999
C126	C	1.668462	-0.092249	0.287334
C127	C	1.001939	-1.073102	-0.379360
C128	C	1.335272	-0.739769	-0.046027
C129	C	1.668606	-0.406436	0.287306
C130	C	1.185104	-0.424496	-0.386700
C131	C	1.518437	-0.091163	-0.053367
C132	C	1.851771	0.242171	0.279967
C133	C	1.263207	-0.427952	-0.389843
C134	C	1.596540	-0.094618	-0.056509
C135	C	1.929874	0.238715	0.276824
C136	C	0.994493	-0.423797	-0.562605
C137	C	1.327827	-0.090464	-0.229272
C138	C	1.661160	0.242869	0.104061
C139	C	0.991370	-0.426955	-0.640709
C140	C	1.324703	-0.093622	-0.307375
C141	C	1.658036	0.239711	0.025958
C142	C	1.001926	-0.222686	-0.379356
C143	C	1.335260	0.110647	-0.046023
C144	C	1.668593	0.443980	0.287311
C145	C	1.001970	-0.140143	-0.379369
C146	C	1.335304	0.193191	-0.046036
C147	C	1.668637	0.526524	0.287297
C148	C	1.034863	-0.382937	-0.679219
C149	C	1.368197	-0.049603	-0.345885
C150	C	1.701530	0.283730	-0.012552
C151	C	1.031920	-0.385901	-0.752605
C152	C	1.365253	-0.052568	-0.419271
C153	C	1.698587	0.280766	-0.085938
C154	C	0.985486	-0.432888	-0.787479
C155	C	1.318819	-0.099555	-0.454146
C156	C	1.652153	0.233778	-0.120813
C157	C	0.941988	-0.476908	-0.748964
C158	C	1.275321	-0.143575	-0.415631
C159	C	1.608654	0.189758	-0.082297
C160	C	0.944928	-0.473940	-0.675579
C161	C	1.278261	-0.140606	-0.342246
C162	C	1.611595	0.192727	-0.008913
C163	C	0.971867	-0.446642	-1.006761
C164	C	1.305200	-0.113309	-0.673428
C165	C	1.638534	0.220024	-0.340095
C166	C	0.968931	-0.449609	-1.080151
C167	C	1.302265	-0.116276	-0.746818
C168	C	1.635598	0.217057	-0.413485
C169	C	1.058863	-0.358601	-1.083787
C170	C	1.392196	-0.025267	-0.750454
C171	C	1.725530	0.308066	-0.417120
C172	C	1.061802	-0.355639	-1.010401
C173	C	1.395136	-0.022306	-0.677067
C174	C	1.728469	0.311027	-0.343734
C175	C	1.018301	-0.399657	-0.971892
C176	C	1.351635	-0.066323	-0.638558
C177	C	1.684968	0.267010	-0.305225
N178	N	0.982478	-0.435921	-0.862492
N179	N	1.315811	-0.102588	-0.529158
N180	N	1.649144	0.230746	-0.195825
N181	N	1.021307	-0.396619	-0.896881
N182	N	1.354640	-0.063286	-0.563547
N183	N	1.687973	0.270047	-0.230214
C184	C	1.009165	-0.408952	-0.196759
C185	C	1.342498	-0.075619	0.136574
C186	C	1.675832	0.257715	0.469908
C187	C	1.012425	-0.405591	-0.118661
C188	C	1.345758	-0.072257	0.214672
C189	C	1.679092	0.261076	0.548005
H190	H	0.731060	-0.494167	-0.449968
H191	H	1.064393	-0.160834	-0.116634
H192	H	1.397726	0.172500	0.216699
C193	C	1.033050	-0.977120	-0.518199
C194	C	1.366383	-0.643787	-0.184865
C195	C	1.699717	-0.310454	0.148468
N196	N	1.045572	-1.002044	-0.573968
N197	N	1.378905	-0.668711	-0.240635
N198	N	1.712238	-0.335378	0.092699
H199	H	0.974881	-0.863588	-0.259675
H200	H	1.308214	-0.530254	0.073659
H201	H	1.641547	-0.196921	0.406992
C202	C	0.417426	-0.330873	-0.301652
C203	C	0.750759	0.002460	0.031681
C204	C	1.084093	0.335794	0.365014
N205	N	0.449314	-0.291294	-0.265694
N206	N	0.782648	0.042039	0.067639
N207	N	1.115981	0.375373	0.400972
H208	H	0.884851	-0.956052	-0.342820
H209	H	1.218185	-0.622718	-0.009487
H210	H	1.551518	-0.289385	0.323846
H211	H	0.931117	-0.487874	-1.108544
H212	H	1.264450	-0.154540	-0.775211
H213	H	1.597784	0.178793	-0.441877
C214	C	0.586929	-0.501954	-0.457031
C215	C	0.920263	-0.168621	-0.123697
C216	C	1.253596	0.164713	0.209636
N217	N	0.555039	-0.541548	-0.492972
N218	N	0.888372	-0.208214	-0.159638
N219	N	1.221706	0.125119	0.173695
H220	H	1.072677	-0.344677	-0.650829
H221	H	1.406010	-0.011344	-0.317496
H222	H	1.739344	0.321990	0.015837
H223	H	0.273296	-0.338649	-0.308729
H224	H	0.606629	-0.005316	0.024604
H225	H	0.939962	0.328017	0.357937
C226	C	1.106557	-0.970076	-0.282809
C227	C	1.439890	-0.636743	0.050525
C228	C	1.773223	-0.303409	0.383858
N229	N	1.148604	-0.992115	-0.244027
N230	N	1.481938	-0.658782	0.089306
N231	N	1.815271	-0.325448	0.422640
H232	H	0.604465	-0.309099	-0.281869
H233	H	0.937798	0.024234	0.051464
H234	H	1.271131	0.357568	0.384797
C235	C	1.106702	-0.310175	-1.126152
C236	C	1.440035	0.023158	-0.792819
C237	C	1.773369	0.356491	-0.459486
N238	N	1.142733	-0.273695	-1.158062
N239	N	1.476066	0.059638	-0.824729
N240	N	1.809399	0.392971	-0.491396
H241	H	0.909504	-0.509777	-0.644225
H242	H	1.242837	-0.176443	-0.310891
H243	H	1.576170	0.156890	0.022442
C244	C	1.137635	-0.869363	-0.421800
C245	C	1.470968	-0.536030	-0.088467
C246	C	1.804301	-0.202696	0.244866
N247	N	1.192152	-0.850223	-0.438874
N248	N	1.525486	-0.516890	-0.105541
N249	N	1.858819	-0.183556	0.227792
C250	C	0.897132	-0.861730	-0.475715
C251	C	1.230466	-0.528397	-0.142382
C252	C	1.563799	-0.195064	0.190951
N253	N	0.855052	-0.839545	-0.514390
N254	N	1.188385	-0.506212	-0.181056
N255	N	1.521718	-0.172878	0.152277
C256	C	1.079768	-0.337478	-0.794963
C257	C	1.413101	-0.004145	-0.461629
C258	C	1.746434	0.329188	-0.128296
N259	N	1.115809	-0.301004	-0.826866
N260	N	1.449142	0.032330	-0.493533
N261	N	1.782476	0.365663	-0.160200
H262	H	0.737606	-0.314965	-0.287196
H263	H	1.070939	0.018368	0.046137
H264	H	1.404273	0.351702	0.379471
C265	C	0.409860	-0.538298	-0.490068
C266	C	0.743193	-0.204965	-0.156734
C267	C	1.076526	0.128369	0.176599
N268	N	0.438764	-0.580562	-0.528450
N269	N	0.772097	-0.247229	-0.195117
N270	N	1.105430	0.086105	0.138217
C271	C	0.255749	-0.531496	-0.483906
C272	C	0.589083	-0.198163	-0.150573
C273	C	0.922416	0.135171	0.182761
N274	N	0.223852	-0.571069	-0.519862
N275	N	0.557185	-0.237735	-0.186528
N276	N	0.890518	0.095598	0.146805
H277	H	1.099616	-0.317380	-0.982011
H278	H	1.432949	0.015954	-0.648678
H279	H	1.766282	0.349287	-0.315344
C280	C	0.924012	-0.495061	-0.964411
C281	C	1.257345	-0.161727	-0.631077
C282	C	1.590679	0.171606	-0.297744
N283	N	0.887964	-0.531530	-0.932510
N284	N	1.221298	-0.198197	-0.599176
N285	N	1.554631	0.135136	-0.265843
C286	C	0.890903	-0.528587	-0.787329
C287	C	1.224236	-0.195254	-0.453995
C288	C	1.557569	0.138079	-0.120662
N289	N	0.852424	-0.567513	-0.816224
N290	N	1.185757	-0.234179	-0.482891
N291	N	1.519091	0.099154	-0.149557
