data_functionalizedCrystal
_audit_creation_method	'MofGen! by Chris Wilmer'
_symmetry_space_group_name_H-M	'P1'
_symmetry_Int_Tables_number	1
_symmetry_cell_setting	triclinic
loop_
_symmetry_equiv_pos_as_xyz
  x,y,z
_cell_length_a	12.837943
_cell_length_b	10.540539
_cell_length_c	11.892095
_cell_angle_alpha	93.930600
_cell_angle_beta	85.689438
_cell_angle_gamma	89.677216
loop_
_atom_site_label
_atom_site_type_symbol
_atom_site_fract_x
_atom_site_fract_y
_atom_site_fract_z
O1	O	1.384471	0.322967	-0.093973
O2	O	1.082545	0.306651	-0.093980
O3	O	1.240396	0.130859	-0.093975
O4	O	1.226620	0.498759	-0.093978
O5	O	1.227234	0.145491	0.094032
O6	O	1.069383	0.321283	0.094027
O7	O	1.371309	0.337599	0.094034
Zn8	Zn	1.218257	0.331764	0.123881
Zn9	Zn	1.235597	0.312486	-0.123827
O10	O	1.213458	0.513391	0.094029
C11	C	1.037303	0.308455	0.000023
C12	C	0.922104	0.292017	0.000020
C13	C	0.682608	0.489636	0.000034
C14	C	0.574368	0.474197	0.000032
C15	C	0.597382	0.245700	0.000022
C16	C	0.705621	0.261139	0.000024
C17	C	0.748231	0.383111	0.000028
C18	C	0.856473	0.398549	0.000022
C19	C	0.879484	0.170054	0.000020
C20	C	0.771244	0.154614	0.000018
C21	C	1.232782	0.090759	0.000027
C22	C	1.229692	-0.050529	0.000020
C23	C	1.111279	-0.247002	-0.000404
C24	C	1.114382	-0.100007	0.000019
C25	C	1.277668	-0.097735	0.107383
C26	C	1.273726	-0.244704	0.107473
C27	C	1.291038	-0.261604	-0.106326
C28	C	1.292200	-0.114616	-0.107745
C29	C	1.416551	0.335795	0.000029
C30	C	1.531751	0.352232	0.000025
C31	C	1.221072	0.553491	0.000025
C32	C	1.224163	0.694779	0.000024
N33	N	1.206429	0.344921	0.292934
N34	N	1.247433	0.299320	-0.292880
C35	C	1.329731	0.207693	0.529586
C36	C	1.321471	0.216900	0.647928
C37	C	1.181647	0.372535	0.647961
C38	C	1.189906	0.363328	0.529620
C39	C	1.263952	0.280906	0.470436
C40	C	1.272215	0.271706	0.352093
C41	C	1.132387	0.427334	0.352128
C42	C	1.124127	0.436540	0.470470
H43	H	1.076106	-0.068190	-0.076943
N44	N	1.352054	0.182796	0.288242
H45	H	1.401783	0.233099	0.239126
H46	H	1.392395	0.137818	0.343737
H47	H	0.891163	0.497865	0.000027
N48	N	1.409599	0.118816	0.465744
H49	H	1.450021	0.073837	0.521173
H50	H	1.372895	0.053995	0.416649
N51	N	1.392426	0.137947	0.711728
H52	H	1.440587	0.084344	0.656274
H53	H	1.435223	0.195997	0.760812
N54	N	1.401432	-0.312094	-0.107276
H55	H	1.444031	-0.283761	-0.175776
H56	H	1.433566	-0.278256	-0.036425
N57	N	0.725293	0.023061	0.000004
H58	H	0.744286	-0.018782	0.069694
H59	H	0.646776	0.029537	-0.000038
H60	H	1.362068	-0.065766	0.111377
N61	N	1.058066	-0.299456	-0.102377
H62	H	1.039743	-0.227457	-0.149412
H63	H	1.106661	-0.361484	-0.149204
H64	H	0.562663	0.146403	0.000112
H65	H	1.121354	0.439632	0.696164
N66	N	1.044263	0.525428	0.534306
H67	H	1.049009	0.520150	0.618251
H68	H	1.058362	0.615407	0.513621
H69	H	1.233527	-0.053152	0.187277
N70	N	0.950264	0.055147	0.000002
H71	H	1.025300	0.083432	-0.000001
H72	H	0.931496	0.007973	0.069694
N73	N	1.245853	-0.074503	-0.212960
H74	H	1.184624	-0.015061	-0.190924
H75	H	1.300587	-0.029547	-0.260604
H76	H	1.078828	0.486952	0.303955
H77	H	1.065016	-0.057082	0.077107
N78	N	0.728568	0.621185	0.000023
H79	H	0.699824	0.673873	0.069715
H80	H	0.807090	0.614694	-0.000021
N81	N	0.503584	0.589093	0.000082
H82	H	0.547004	0.668701	0.000099
H83	H	0.463032	0.582276	-0.069602
H84	H	1.060554	-0.276235	0.076154
N85	N	1.211963	-0.279767	0.213774
H86	H	1.187546	-0.199794	0.260133
H87	H	1.149431	-0.331510	0.192878
H88	H	1.356314	-0.283183	0.112346
N89	N	1.249160	-0.317218	-0.214119
H90	H	1.186406	-0.371259	-0.195101
H91	H	1.228005	-0.246094	-0.260708
H92	H	1.376723	-0.081663	-0.114226
