data_functionalizedCrystal
_audit_creation_method	'MofGen! by Chris Wilmer'
_symmetry_space_group_name_H-M	'P1'
_symmetry_Int_Tables_number	1
_symmetry_cell_setting	triclinic
loop_
_symmetry_equiv_pos_as_xyz
  x,y,z
_cell_length_a	16.120484
_cell_length_b	16.625548
_cell_length_c	16.625539
_cell_angle_alpha	90.018832
_cell_angle_beta	92.870299
_cell_angle_gamma	87.074492
loop_
_atom_site_label
_atom_site_type_symbol
_atom_site_fract_x
_atom_site_fract_y
_atom_site_fract_z
Zn1	Zn	-0.331925	-1.216357	-0.472207
Zn2	Zn	0.001408	-0.883024	-0.138873
Zn3	Zn	0.334742	-0.549690	0.194460
Zn4	Zn	-0.471345	-1.209424	-0.344203
Zn5	Zn	-0.138012	-0.876090	-0.010870
Zn6	Zn	0.195322	-0.542757	0.322463
Zn7	Zn	-0.331949	-1.081526	-0.337384
Zn8	Zn	0.001384	-0.748192	-0.004051
Zn9	Zn	0.334718	-0.414859	0.329283
Zn10	Zn	-0.471299	-1.074647	-0.478987
Zn11	Zn	-0.137965	-0.741313	-0.145653
Zn12	Zn	0.195368	-0.407980	0.187680
O13	O	-0.401629	-1.145488	-0.408195
O14	O	-0.068296	-0.812155	-0.074862
O15	O	0.265037	-0.478822	0.258472
O16	O	-0.350428	-1.328269	-0.455243
O17	O	-0.017095	-0.994936	-0.121910
O18	O	0.316238	-0.661602	0.211424
O19	O	-0.452883	-1.192435	-0.230468
O20	O	-0.119550	-0.859102	0.102866
O21	O	0.213783	-0.525768	0.436199
O22	O	-0.215280	-1.105192	-0.349577
O23	O	0.118053	-0.771859	-0.016244
O24	O	0.451387	-0.438525	0.317089
O25	O	-0.452860	-1.323175	-0.361199
O26	O	-0.119526	-0.989842	-0.027866
O27	O	0.213807	-0.656509	0.305467
O28	O	-0.215262	-1.204252	-0.448631
O29	O	0.118071	-0.870918	-0.115298
O30	O	0.451405	-0.537585	0.218036
O31	O	-0.350470	-1.098469	-0.225458
O32	O	-0.017136	-0.765136	0.107876
O33	O	0.316197	-0.431802	0.441209
O34	O	-0.350425	-0.967781	-0.356152
O35	O	-0.017092	-0.634448	-0.022818
O36	O	0.316242	-0.301115	0.310515
O37	O	-0.452781	-1.093468	-0.590918
O38	O	-0.119447	-0.760134	-0.257585
O39	O	0.213886	-0.426801	0.075748
O40	O	-0.452804	-0.962727	-0.460186
O41	O	-0.119471	-0.629394	-0.126853
O42	O	0.213862	-0.296061	0.206480
O43	O	-0.350384	-1.197581	-0.585937
O44	O	-0.017050	-0.864248	-0.252604
O45	O	0.316283	-0.530915	0.080730
O46	O	-0.588005	-1.185765	-0.367774
O47	O	-0.254671	-0.852431	-0.034440
O48	O	0.078662	-0.519098	0.298893
O49	O	-0.587971	-1.086745	-0.466799
O50	O	-0.254637	-0.753411	-0.133465
O51	O	0.078696	-0.420078	0.199868
C52	C	-0.401613	-0.935998	-0.408165
C53	C	-0.068280	-0.602665	-0.074832
C54	C	0.265054	-0.269332	0.258501
C55	C	-0.401626	-0.846377	-0.408173
C56	C	-0.068293	-0.513043	-0.074839
C57	C	0.265041	-0.179710	0.258494
C58	C	-0.618238	-1.134778	-0.418779
C59	C	-0.284905	-0.801444	-0.085446
C60	C	0.048429	-0.468111	0.247887
C61	C	-0.710904	-1.130270	-0.423334
C62	C	-0.377571	-0.796936	-0.090001
C63	C	-0.044237	-0.463603	0.243332
C64	C	-0.401624	-0.518201	-0.408197
C65	C	-0.068291	-0.184868	-0.074864
C66	C	0.265042	0.148466	0.258470
C67	C	-0.401622	-0.609510	-0.408187
C68	C	-0.068289	-0.276176	-0.074854
C69	C	0.265044	0.057157	0.258479
C70	C	-0.401625	-0.682286	-0.408184
C71	C	-0.068292	-0.348952	-0.074851
C72	C	0.265041	-0.015619	0.258483
C73	C	-0.401623	-0.773600	-0.408176
C74	C	-0.068289	-0.440267	-0.074843
C75	C	0.265044	-0.106934	0.258491
C76	C	-0.880566	-1.122043	-0.431667
C77	C	-0.547232	-0.788710	-0.098334
C78	C	-0.213899	-0.455377	0.235000
C79	C	-0.921852	-1.169078	-0.384736
C80	C	-0.588519	-0.835744	-0.051403
C81	C	-0.255186	-0.502411	0.281930
C82	C	-1.016258	-1.164501	-0.389373
C83	C	-0.682925	-0.831167	-0.056039
C84	C	-0.349591	-0.497834	0.277294
C85	C	-0.786152	-1.126619	-0.427032
C86	C	-0.452818	-0.793286	-0.093698
C87	C	-0.119485	-0.459953	0.239635
C88	C	-0.184175	-1.156263	-0.397587
C89	C	0.149158	-0.822929	-0.064254
C90	C	0.482492	-0.489596	0.269079
C91	C	-0.091509	-1.160854	-0.393067
C92	C	0.241824	-0.827521	-0.059733
C93	C	0.575158	-0.494187	0.273600
C94	C	-0.401574	-1.145531	-0.618501
C95	C	-0.068241	-0.812197	-0.285168
C96	C	0.265092	-0.478864	0.048165
C97	C	-0.401551	-1.145549	-0.708121
C98	C	-0.068218	-0.812215	-0.374788
C99	C	0.265116	-0.478882	-0.041455
C100	C	-0.401641	-0.355797	-0.408218
C101	C	-0.068308	-0.022463	-0.074884
C102	C	0.265026	0.310870	0.258449
C103	C	-0.401632	-0.445418	-0.408207
C104	C	-0.068299	-0.112085	-0.074873
C105	C	0.265035	0.221249	0.258460
C106	C	-0.401532	-1.145563	-0.780903
C107	C	-0.068199	-0.812229	-0.447570
C108	C	0.265134	-0.478896	-0.114236
C109	C	-0.401501	-1.145583	-0.872210
C110	C	-0.068168	-0.812250	-0.538877
C111	C	0.265165	-0.478916	-0.205543
C112	C	-0.401472	-1.145603	-0.944985
C113	C	-0.068139	-0.812270	-0.611652
C114	C	0.265195	-0.478937	-0.278318
C115	C	-0.401442	-1.145625	-1.036298
C116	C	-0.068109	-0.812292	-0.702965
C117	C	0.265225	-0.478958	-0.369631
C118	C	-0.401624	-1.145496	-0.198704
C119	C	-0.068291	-0.812162	0.134629
C120	C	0.265043	-0.478829	0.467963
C121	C	-0.401413	-1.145645	-0.109073
C122	C	-0.068079	-0.812312	0.224260
C123	C	0.265254	-0.478979	0.557594
H124	H	-0.886298	-1.212782	-0.341075
H125	H	-0.552964	-0.879449	-0.007742
H126	H	-0.219631	-0.546115	0.325591
C127	C	-0.928590	-1.063000	-0.490645
C128	C	-0.595257	-0.729667	-0.157311
C129	C	-0.261923	-0.396333	0.176022
C130	C	-1.024361	-1.058450	-0.495250
C131	C	-0.691028	-0.725117	-0.161917
C132	C	-0.357695	-0.391783	0.171416
C133	C	-1.072397	-0.999406	-0.554225
C134	C	-0.739064	-0.666073	-0.220892
C135	C	-0.405731	-0.332740	0.112442
C136	C	-1.024662	-0.944913	-0.608594
C137	C	-0.691329	-0.611579	-0.275261
C138	C	-0.357995	-0.278246	0.058073
C139	C	-0.928885	-0.949461	-0.603990
C140	C	-0.595552	-0.616128	-0.270657
C141	C	-0.262219	-0.282794	0.062677
C142	C	-0.880849	-1.008505	-0.545015
C143	C	-0.547516	-0.675171	-0.211682
C144	C	-0.214183	-0.341838	0.121651
H145	H	-1.059703	-1.098791	-0.455001
H146	H	-0.726369	-0.765458	-0.121668
H147	H	-0.393036	-0.432124	0.211665
H148	H	-1.143298	-0.996040	-0.557633
H149	H	-0.809964	-0.662706	-0.224300
H150	H	-0.476631	-0.329373	0.109034
H151	H	-1.060221	-0.901205	-0.652251
H152	H	-0.726888	-0.567872	-0.318917
H153	H	-0.393554	-0.234538	0.014416
H154	H	-0.893544	-0.909120	-0.644239
H155	H	-0.560211	-0.575786	-0.310906
H156	H	-0.226877	-0.242453	0.022428
H157	H	-0.809949	-1.011871	-0.541608
H158	H	-0.476616	-0.678538	-0.208274
H159	H	-0.143282	-0.345205	0.125059
