data_functionalizedCrystal
_audit_creation_method	'MofGen! by Chris Wilmer'
_symmetry_space_group_name_H-M	'P1'
_symmetry_Int_Tables_number	1
_symmetry_cell_setting	triclinic
loop_
_symmetry_equiv_pos_as_xyz
  x,y,z
_cell_length_a	10.723024
_cell_length_b	14.519731
_cell_length_c	9.798715
_cell_angle_alpha	89.995867
_cell_angle_beta	89.996609
_cell_angle_gamma	84.078361
loop_
_atom_site_label
_atom_site_type_symbol
_atom_site_fract_x
_atom_site_fract_y
_atom_site_fract_z
O1	O	1.655991	0.129346	-0.113486
O2	O	1.292724	0.141727	-0.113491
O3	O	1.483975	0.001349	-0.113475
O4	O	1.464740	0.269725	-0.113501
O5	O	1.483961	0.001348	0.113507
O6	O	1.292710	0.141727	0.113492
O7	O	1.655977	0.129346	0.113497
Zn8	Zn	1.474341	0.135536	0.149532
Zn9	Zn	1.474360	0.135537	-0.149526
O10	O	1.464726	0.269724	0.113482
C11	C	1.246226	0.140826	0.000000
C12	C	1.107697	0.138130	-0.000001
C13	C	0.916714	0.054394	0.000004
C14	C	1.059891	0.057179	0.000005
C15	C	1.483067	-0.033016	0.000016
C16	C	1.480366	-0.135410	0.000017
C17	C	1.478172	-0.218565	0.000013
C18	C	1.475429	-0.322888	0.000003
C19	C	1.473253	-0.406038	-0.000006
C20	C	1.470511	-0.510367	-0.000014
C21	C	1.702475	0.130247	0.000003
C22	C	1.841005	0.132943	-0.000004
C23	C	1.465634	0.304089	-0.000013
C24	C	1.468335	0.406483	-0.000023
N25	N	1.474337	0.135535	0.353632
N26	N	1.474373	0.135530	-0.353626
C27	C	1.554641	0.076335	0.421415
C28	C	1.554661	0.076331	0.578578
H29	H	1.042649	0.205378	-0.000014
O30	O	1.383302	0.202693	0.430860
H31	H	1.285894	0.190519	0.403550
O32	O	0.862185	-0.037422	0.000017
H33	H	0.758284	-0.025201	0.000008
H34	H	1.623417	0.025650	0.636869
O35	O	1.645658	0.009178	0.344162
H36	H	1.706501	0.048297	0.279029
H37	H	1.124946	-0.010065	0.000004
H38	H	0.882186	0.202252	-0.000002
H39	H	1.405623	0.186221	0.588092
