data_functionalizedCrystal
_audit_creation_method	'MofGen! by Chris Wilmer'
_symmetry_space_group_name_H-M	'P1'
_symmetry_Int_Tables_number	1
_symmetry_cell_setting	triclinic
loop_
_symmetry_equiv_pos_as_xyz
  x,y,z
_cell_length_a	6.817900
_cell_length_b	11.102182
_cell_length_c	13.563541
_cell_angle_alpha	107.703580
_cell_angle_beta	75.295376
_cell_angle_gamma	71.396226
loop_
_atom_site_label
_atom_site_type_symbol
_atom_site_fract_x
_atom_site_fract_y
_atom_site_fract_z
V1	V	4.125717	-0.450132	-0.153628
O2	O	4.069865	-0.386130	0.007371
O3	O	4.116452	-0.500368	-0.304608
O4	O	4.102273	-0.622127	-0.151270
O5	O	4.084143	-0.263528	-0.147028
V6	V	4.601040	-0.421336	-0.134370
O7	O	4.404962	-0.513299	-0.195872
O8	O	4.771992	-0.358170	-0.092127
O9	O	4.387098	-0.371101	0.016609
O10	O	4.774289	-0.485339	-0.295369
O11	O	4.760011	-0.607941	-0.140970
O12	O	4.401278	-0.249341	-0.136728
C13	C	3.970166	-0.507023	-0.341413
C14	C	4.044044	-0.549243	-0.464841
C15	C	4.005742	-0.180445	-0.749321
C16	C	3.936315	-0.140774	-0.633354
C17	C	3.963244	-0.242888	-0.591220
C18	C	4.059607	-0.384679	-0.665064
C19	C	4.129024	-0.424353	-0.781043
C20	C	4.086526	-0.486796	-0.622941
C21	C	4.182889	-0.628588	-0.696786
C22	C	4.252300	-0.668255	-0.812752
C23	C	4.225371	-0.566141	-0.854886
C24	C	4.017108	-0.447123	-0.506963
C25	C	4.140391	-0.691031	-0.538685
C26	C	4.209818	-0.730702	-0.654652
C27	C	3.952077	-0.662338	-0.145815
C28	C	4.014451	-0.803295	-0.144886
C29	C	4.113324	-0.923331	-0.246120
C30	C	4.171946	-1.055768	-0.245234
C31	C	4.032802	-0.948116	-0.041869
C32	C	3.974197	-0.815682	-0.042757
C33	C	4.193649	-0.985484	-0.363531
C34	C	4.252271	-1.117922	-0.362645
C35	C	4.196727	-0.364444	0.053409
C36	C	4.102089	-0.322232	0.176835
C37	C	4.214815	-0.209126	-0.142188
C38	C	4.131678	-0.068165	-0.143111
H39	H	3.906701	-0.210579	-0.496793
H40	H	4.162317	-0.774181	-0.504380
C41	C	4.358280	-0.824229	-0.893978
N42	N	4.438106	-0.941709	-0.955156
C43	C	3.830315	0.015192	-0.552134
N44	N	3.750470	0.132674	-0.490956
H45	H	3.893717	-0.717949	0.039677
C46	C	4.005413	-0.947076	-0.407257
N47	N	3.863665	-0.918159	-0.440215
C48	C	4.124040	-1.189995	-0.417459
N49	N	4.027455	-1.244277	-0.458741
H50	H	4.000038	-0.958220	0.041281
H51	H	3.983815	-0.097318	-0.783638
C52	C	3.911129	-0.291156	-0.425748
N53	N	3.831307	-0.173673	-0.364576
H54	H	4.281912	-0.598435	-0.949315
H55	H	4.288283	-0.846151	-0.714792
H56	H	4.350252	-0.979867	-0.413111
C57	C	4.507971	-1.208466	-0.417414
N58	N	4.700563	-1.276661	-0.458656
