data_functionalizedCrystal
_audit_creation_method	'MofGen! by Chris Wilmer'
_symmetry_space_group_name_H-M	'P1'
_symmetry_Int_Tables_number	1
_symmetry_cell_setting	triclinic
loop_
_symmetry_equiv_pos_as_xyz
  x,y,z
_cell_length_a	27.731988
_cell_length_b	11.026607
_cell_length_c	10.065918
_cell_angle_alpha	97.653451
_cell_angle_beta	80.084145
_cell_angle_gamma	84.397811
loop_
_atom_site_label
_atom_site_type_symbol
_atom_site_fract_x
_atom_site_fract_y
_atom_site_fract_z
O1	O	-0.661569	0.159438	0.113101
O2	O	-0.161569	0.659438	0.613101
O3	O	-0.522757	0.181443	0.113185
O4	O	-0.022757	0.681443	0.613185
O5	O	-0.580658	-0.005990	0.113145
O6	O	-0.080658	0.494010	0.613145
O7	O	-0.603668	0.346872	0.113141
O8	O	-0.103668	0.846872	0.613141
O9	O	-0.565236	-0.037367	-0.113835
O10	O	-0.065236	0.462633	0.386165
O11	O	-0.507334	0.150066	-0.113795
O12	O	-0.007334	0.650066	0.386205
O13	O	-0.646147	0.128061	-0.113879
O14	O	-0.146147	0.628061	0.386121
Zn15	Zn	-0.574292	0.134082	-0.149875
Zn16	Zn	-0.074292	0.634082	0.350125
Zn17	Zn	-0.594611	0.175422	0.149181
Zn18	Zn	-0.094611	0.675422	0.649181
O19	O	-0.588246	0.315494	-0.113839
O20	O	-0.088246	0.815494	0.386161
C21	C	-0.496998	0.165306	-0.000294
C22	C	0.003002	0.665306	0.499706
C23	C	-0.443222	0.163954	-0.000261
C24	C	0.056778	0.663954	0.499739
C25	C	-0.568702	-0.066807	-0.000340
C26	C	-0.068702	0.433193	0.499660
C27	C	-0.556049	-0.201275	-0.000328
C28	C	-0.056049	0.298725	0.499672
C29	C	-0.067578	0.171215	0.123406
C30	C	0.432422	0.671215	0.623406
C31	C	-0.269704	0.176391	0.123440
C32	C	0.230296	0.676391	0.623440
O33	O	-0.302983	0.191557	0.228666
O34	O	0.197017	0.691557	0.728666
N35	N	-0.286576	0.159935	-0.000285
N36	N	0.213424	0.659935	0.499715
C37	C	-0.252913	0.142175	-0.124026
C38	C	0.247087	0.642175	0.375974
O39	O	-0.271901	0.128284	-0.229261
O40	O	0.228099	0.628284	0.270739
C41	C	-0.050788	0.136991	-0.124059
C42	C	0.449212	0.636991	0.375941
C43	C	-0.033919	0.153461	-0.000326
C44	C	0.466081	0.653461	0.499674
C45	C	-0.050709	0.187682	0.247128
C46	C	0.449291	0.687682	0.747128
C47	C	-0.000181	0.186395	0.247119
C48	C	0.499819	0.686395	0.747119
C49	C	0.033478	0.168640	0.123387
C50	C	0.533478	0.668640	0.623387
C51	C	0.016609	0.152173	-0.000336
C52	C	0.516609	0.652173	0.499664
C53	C	-0.017125	0.119223	-0.247799
C54	C	0.482875	0.619223	0.252201
C55	C	0.033408	0.117925	-0.247796
C56	C	0.533408	0.617925	0.252204
C57	C	0.050277	0.134395	-0.124063
C58	C	0.550277	0.634395	0.375937
C59	C	0.100796	0.133131	-0.124077
C60	C	0.600796	0.633131	0.375923
N61	N	0.117668	0.149587	-0.000353
N62	N	0.617668	0.649587	0.499647
C63	C	0.084009	0.167342	0.123379
C64	C	0.584009	0.667342	0.623379
C65	C	-0.359032	0.144901	-0.124001
C66	C	0.140968	0.644901	0.375999
C67	C	-0.409563	0.146199	-0.123993
C68	C	0.090437	0.646199	0.376007
C69	C	-0.426351	0.180413	0.123473
C70	C	0.073649	0.680413	0.623473
C71	C	-0.375819	0.179123	0.123464
C72	C	0.124181	0.679123	0.623464
C73	C	-0.342160	0.161357	-0.000276
C74	C	0.157840	0.661357	0.499724
C75	C	0.190123	0.164638	0.123350
C76	C	0.690123	0.664638	0.623350
C77	C	0.240656	0.163354	0.123329
C78	C	0.740656	0.663354	0.623329
C79	C	0.257439	0.129134	-0.124137
C80	C	0.757439	0.629134	0.375863
C81	C	0.206910	0.130424	-0.124117
C82	C	0.706910	0.630424	0.375883
C83	C	0.173253	0.148174	-0.000363
C84	C	0.673253	0.648174	0.499637
O85	O	0.134102	0.117958	-0.229249
O86	O	0.634102	0.617958	0.270751
O87	O	0.103008	0.181203	0.228598
O88	O	0.603008	0.681203	0.728598
C89	C	-0.118107	0.172503	0.123416
C90	C	0.381893	0.672503	0.623416
C91	C	-0.134976	0.156035	-0.000307
C92	C	0.365024	0.656035	0.499693
C93	C	-0.101317	0.138281	-0.124039
C94	C	0.398683	0.638281	0.375961
C95	C	-0.185507	0.157334	-0.000299
C96	C	0.314493	0.657334	0.499701
C97	C	-0.219166	0.175088	0.123433
C98	C	0.280834	0.675088	0.623433
C99	C	-0.202294	0.191545	0.247157
C100	C	0.297706	0.691545	0.747157
C101	C	-0.151766	0.190257	0.247148
C102	C	0.348234	0.690257	0.747148
C103	C	-0.118189	0.121825	-0.247763
C104	C	0.381811	0.621825	0.252237
C105	C	-0.168718	0.123115	-0.247744
C106	C	0.331282	0.623115	0.252256
C107	C	-0.202377	0.140869	-0.124011
C108	C	0.297623	0.640869	0.375989
C109	C	-0.590988	-0.275758	-0.000347
C110	C	-0.090988	0.224242	0.499653
C111	C	-0.577911	-0.414738	-0.000334
C112	C	-0.077911	0.085262	0.499666
C113	C	0.328094	0.144211	-0.000392
C114	C	0.828094	0.644211	0.499608
C115	C	0.274315	0.145599	-0.000403
C116	C	0.774315	0.645599	0.499597
C117	C	-0.600202	0.376312	-0.000350
C118	C	-0.100202	0.876312	0.499650
C119	C	-0.612856	0.510781	-0.000353
C120	C	-0.112856	1.010781	0.499647
N121	N	-0.560428	0.105867	-0.353972
N122	N	-0.060428	0.605867	0.146028
C123	C	-0.589785	0.165606	-0.421768
C124	C	-0.089785	0.665606	0.078232
C125	C	-0.579118	0.143880	-0.578929
C126	C	-0.079118	0.643880	-0.078929
N127	N	-0.608478	0.203628	0.353279
N128	N	-0.108478	0.703628	0.853279
H129	H	0.254387	0.176770	0.224091
H130	H	0.754387	0.676770	0.724091
H131	H	-0.630582	-0.236634	-0.000379
H132	H	-0.130582	0.263366	0.499621
H133	H	-0.527399	0.038634	-0.412281
H134	H	-0.027399	0.538634	0.087719
H135	H	0.193175	0.117037	-0.224870
H136	H	0.693175	0.617037	0.275130
H137	H	-0.229708	0.206008	0.347905
H138	H	0.270292	0.706008	0.847905
H139	H	-0.516454	-0.240399	-0.000295
H140	H	-0.016454	0.259601	0.499705
H141	H	-0.622816	0.232830	-0.363459
H142	H	-0.122816	0.732830	0.136541
H143	H	0.284853	0.114684	-0.224876
H144	H	0.784853	0.614684	0.275124
H145	H	-0.641512	0.270859	-0.588419
H146	H	-0.141512	0.770859	-0.088419
H147	H	0.162724	0.179093	0.224122
H148	H	0.662724	0.679093	0.724122
H149	H	-0.538314	-0.453855	-0.000301
H150	H	-0.038314	0.046145	0.499699
H151	H	-0.182447	0.109712	-0.348509
H152	H	0.317553	0.609712	0.151491
H153	H	0.013548	0.199801	0.347875
H154	H	0.513548	0.699801	0.847875
H155	H	-0.546086	0.076642	-0.637232
H156	H	-0.046086	0.576642	-0.137232
H157	H	-0.078110	0.202137	0.347892
H158	H	0.421890	0.702137	0.847892
H159	H	-0.090788	0.107360	-0.348523
H160	H	0.409212	0.607360	0.151477
H161	H	-0.453765	0.194873	0.224221
H162	H	0.046235	0.694873	0.724221
H163	H	-0.652460	-0.450088	-0.000275
H164	H	-0.152460	0.049912	0.499725
H165	H	-0.362089	0.192534	0.224218
H166	H	0.137911	0.692534	0.724218
H167	H	-0.331630	0.130429	-0.224771
H168	H	0.168370	0.630429	0.275229
H169	H	-0.423293	0.132807	-0.224749
H170	H	0.076707	0.632807	0.275251
H171	H	-0.030850	0.105807	-0.348555
H172	H	0.469150	0.605807	0.151445
H173	H	0.060812	0.103468	-0.348563
H174	H	0.560812	0.603468	0.151437
H175	H	-0.138037	0.203668	0.347904
H176	H	0.361963	0.703668	0.847904
