data_functionalizedCrystal
_audit_creation_method	'MofGen! by Chris Wilmer'
_symmetry_space_group_name_H-M	'P1'
_symmetry_Int_Tables_number	1
_symmetry_cell_setting	triclinic
loop_
_symmetry_equiv_pos_as_xyz
  x,y,z
_cell_length_a	21.395362
_cell_length_b	18.050589
_cell_length_c	21.395356
_cell_angle_alpha	89.977927
_cell_angle_beta	89.957023
_cell_angle_gamma	90.044101
loop_
_atom_site_label
_atom_site_type_symbol
_atom_site_fract_x
_atom_site_fract_y
_atom_site_fract_z
Zn1	Zn	0.957864	-0.295363	-0.354610
Zn2	Zn	0.957773	-0.419555	-0.249843
Zn3	Zn	0.853081	-0.295418	-0.249811
Zn4	Zn	0.853053	-0.419551	-0.354548
O5	O	0.905443	-0.357472	-0.302203
O6	O	1.045530	-0.311817	-0.340752
O7	O	0.943859	-0.403113	-0.162161
O8	O	0.867031	-0.191486	-0.263726
O9	O	1.045463	-0.403060	-0.263780
O10	O	0.944015	-0.191446	-0.340721
O11	O	0.866942	-0.311910	-0.162138
O12	O	0.765399	-0.311905	-0.263665
O13	O	0.866983	-0.403052	-0.442234
O14	O	0.765379	-0.403105	-0.340615
O15	O	0.943987	-0.311812	-0.442280
O16	O	0.943832	-0.523479	-0.263719
O17	O	0.866895	-0.523476	-0.340645
C18	C	0.742655	-0.357511	-0.302130
C19	C	0.673014	-0.357546	-0.302114
C20	C	0.640307	-0.405096	-0.342121
C21	C	0.574871	-0.405078	-0.342149
C22	C	0.542146	-0.357517	-0.302159
C23	C	0.574861	-0.309957	-0.262148
C24	C	0.640295	-0.309972	-0.262126
C25	C	0.438422	-0.351545	-0.245753
C26	C	0.372989	-0.351536	-0.245774
C27	C	0.340325	-0.357469	-0.302228
C28	C	0.373102	-0.363426	-0.358662
C29	C	0.438536	-0.363440	-0.358640
C30	C	0.471193	-0.357496	-0.302179
C31	C	0.236665	-0.405002	-0.342269
C32	C	0.171228	-0.404979	-0.342298
C33	C	0.171220	-0.309862	-0.262291
C34	C	0.236655	-0.309881	-0.262268
C35	C	0.269374	-0.357455	-0.302256
C36	C	0.905367	-0.550424	-0.302192
C37	C	0.905392	-0.632970	-0.302209
C38	C	0.863595	-0.832445	-0.344027
C39	C	0.848318	-0.881889	-0.286848
C40	C	0.905454	-0.784100	-0.302217
C41	C	0.920762	-0.881738	-0.359402
C42	C	0.905512	-0.930085	-0.302230
C43	C	0.890147	-0.832456	-0.245009
C44	C	0.962617	-0.832301	-0.317601
C45	C	0.947362	-0.881722	-0.260383
C46	C	0.905419	-0.700002	-0.302211
C47	C	0.905547	-1.014182	-0.302230
C48	C	1.068866	-0.357433	-0.302276
C49	C	1.138508	-0.357416	-0.302307
C50	C	0.905492	-0.357426	-0.465626
C51	C	0.905513	-0.357406	-0.535268
C52	C	0.905536	-0.163766	-0.302227
C53	C	0.905576	-0.081220	-0.302237
C54	C	0.865473	-0.309911	-0.567959
C55	C	0.865471	-0.309898	-0.633394
C56	C	0.905520	-0.357371	-0.666136
C57	C	0.945563	-0.404875	-0.633437
C58	C	0.945559	-0.404892	-0.568003
C59	C	0.961972	-0.363191	-0.769842
C60	C	0.961977	-0.363168	-0.835275
C61	C	0.905530	-0.357321	-0.867957
C62	C	0.849078	-0.351480	-0.835198
C63	C	0.849074	-0.351498	-0.769764
C64	C	0.905528	-0.357357	-0.737088
C65	C	0.865485	-0.309808	-0.971601
C66	C	0.865482	-0.309800	-1.037037
C67	C	0.945579	-0.404773	-1.037079
C68	C	0.945577	-0.404786	-0.971643
C69	C	0.905530	-0.357299	-0.938908
C70	C	0.905430	-0.357464	-0.139415
C71	C	0.905530	-0.357274	-0.069774
H72	H	0.263306	-0.443736	-0.374833
H73	H	1.010920	-0.810506	-0.330628
H74	H	0.978167	-0.443568	-0.541386
Cl75	Cl	0.808865	-0.799035	-0.398539
H76	H	0.803109	-0.346744	-0.743094
Cl77	Cl	0.815127	-0.250218	-0.526809
H78	H	0.978189	-0.443425	-1.063736
Cl79	Cl	0.940716	-0.915164	-0.434057
Cl80	Cl	0.815145	-0.250169	-0.674500
H81	H	0.666925	-0.271248	-0.229547
Cl82	Cl	0.995920	-0.464492	-0.930543
H83	H	0.803114	-0.346714	-0.861806
Cl84	Cl	0.815123	-0.250107	-1.078135
Cl85	Cl	0.773721	-0.915515	-0.266761
H86	H	0.832876	-0.271143	-0.944946
H87	H	1.007944	-0.367920	-0.861942
Cl88	Cl	0.995907	-0.464559	-0.674597
H89	H	0.877166	-0.810898	-0.196640
Cl90	Cl	1.032940	-0.370548	-0.728763
H91	H	0.548236	-0.443799	-0.374731
Cl92	Cl	0.681435	-0.464900	-0.392395
Cl93	Cl	0.533721	-0.250163	-0.211877
H94	H	0.263286	-0.271164	-0.229686
Cl95	Cl	1.002055	-0.914920	-0.205743
H96	H	0.465221	-0.368289	-0.404590
Cl97	Cl	0.130110	-0.464758	-0.392602
Cl98	Cl	0.332047	-0.370880	-0.429638
H99	H	0.346307	-0.346690	-0.199822
Cl100	Cl	0.130085	-0.250065	-0.212020
Cl101	Cl	0.479478	-0.344089	-0.174775
