data_functionalizedCrystal
_audit_creation_method	'MofGen! by Chris Wilmer'
_symmetry_space_group_name_H-M	'P1'
_symmetry_Int_Tables_number	1
_symmetry_cell_setting	triclinic
loop_
_symmetry_equiv_pos_as_xyz
  x,y,z
_cell_length_a	17.077404
_cell_length_b	16.959453
_cell_length_c	17.077396
_cell_angle_alpha	90.029064
_cell_angle_beta	90.019501
_cell_angle_gamma	90.020213
loop_
_atom_site_label
_atom_site_type_symbol
_atom_site_fract_x
_atom_site_fract_y
_atom_site_fract_z
Zn1	Zn	1.200070	-0.314677	0.443840
Zn2	Zn	1.199984	-0.446865	0.312572
Zn3	Zn	1.068802	-0.314705	0.312587
Zn4	Zn	1.068777	-0.446818	0.443796
O5	O	1.134408	-0.380766	0.378199
O6	O	1.309906	-0.332220	0.426439
O7	O	1.182557	-0.429365	0.202727
O8	O	1.086262	-0.204090	0.330023
O9	O	1.309843	-0.429338	0.329997
O10	O	1.182704	-0.204070	0.426453
O11	O	1.086178	-0.332267	0.202738
O12	O	0.958952	-0.332222	0.329981
O13	O	1.086219	-0.429258	0.553649
O14	O	0.958933	-0.429285	0.426379
O15	O	1.182680	-0.332174	0.553681
O16	O	1.182533	-0.557469	0.329955
O17	O	1.086135	-0.557435	0.426364
C18	C	0.930461	-0.380752	0.378177
C19	C	0.843211	-0.380765	0.378186
C20	C	0.802231	-0.431381	0.428300
C21	C	0.720251	-0.431383	0.428313
C22	C	0.679251	-0.380771	0.378207
C23	C	0.720236	-0.330149	0.328091
C24	C	0.802215	-0.330144	0.328083
C25	C	0.549366	-0.330164	0.328110
C26	C	0.467382	-0.330170	0.328116
C27	C	0.467402	-0.431404	0.428340
C28	C	0.549381	-0.431399	0.428332
C29	C	0.590360	-0.380777	0.378214
C30	C	1.134343	-0.586132	0.378170
C31	C	1.134387	-0.673989	0.378184
C32	C	1.184690	-1.045395	0.428505
C33	C	1.084346	-1.045533	0.328009
C34	C	1.084317	-0.962988	0.327991
C35	C	1.134474	-0.921642	0.378232
C36	C	1.184661	-0.962842	0.428490
C37	C	1.034126	-0.921781	0.277739
C38	C	1.034094	-0.839230	0.277720
C39	C	1.084256	-0.797883	0.327957
C40	C	1.134445	-0.839088	0.378217
C41	C	1.184603	-0.797742	0.428457
C42	C	1.234796	-0.838946	0.478714
C43	C	1.234823	-0.921494	0.478727
C44	C	1.084229	-0.715335	0.327944
C45	C	1.184573	-0.715189	0.428442
C46	C	1.339153	-0.380781	0.378221
C47	C	1.426402	-0.380787	0.378230
C48	C	1.134456	-0.380708	0.582943
C49	C	1.134476	-0.380683	0.670193
C50	C	1.134496	-0.174598	0.378245
C51	C	1.134533	-0.086741	0.378264
C52	C	1.134406	-0.380767	0.174251
C53	C	1.134538	-0.380569	0.087002
C54	C	1.184705	-0.330127	0.711201
C55	C	1.184715	-0.330101	0.793182
C56	C	1.134498	-0.380635	0.834152
C57	C	1.084264	-0.431193	0.793139
C58	C	1.084251	-0.431214	0.711160
C59	C	1.084296	-0.431145	0.964009
C60	C	1.084309	-0.431125	1.045993
C61	C	1.184759	-0.330032	1.046031
C62	C	1.184746	-0.330054	0.964052
C63	C	1.134512	-0.380613	0.923044
H64	H	0.582729	-0.288936	0.287306
H65	H	1.043507	-1.079202	0.287109
H66	H	1.275632	-0.805273	0.519623
C67	C	0.847323	-0.487060	0.483422
N68	N	0.881285	-0.528996	0.524943
C69	C	0.979049	-0.967266	0.222387
N70	N	0.937599	-1.001530	0.180657
C71	C	1.239901	-1.090719	0.483784
N72	N	1.281485	-1.124858	0.525422
C73	C	1.239985	-0.274462	0.918985
N74	N	1.281588	-0.232587	0.885042
H75	H	1.275687	-0.955050	0.519644
H76	H	0.993224	-0.805688	0.236798
H77	H	1.225421	-0.681530	0.469351
H78	H	0.434033	-0.472620	0.469150
C79	C	1.029021	-0.670015	0.272664
N80	N	0.987437	-0.635880	0.231022
C81	C	1.239947	-0.274534	0.666141
N82	N	1.281554	-0.232657	0.632204
H83	H	1.043417	-0.472272	1.079350
C84	C	0.675134	-0.274473	0.272975
N85	N	0.641163	-0.232539	0.231460
H86	H	0.835580	-0.288922	0.287279
C87	C	1.240016	-0.274416	1.091141
N88	N	1.281637	-0.232530	1.125122
C89	C	1.029038	-0.486766	0.918902
N90	N	0.987423	-0.528662	0.884927
H91	H	1.225618	-0.288936	0.826567
H92	H	0.434002	-0.288948	0.287325
H93	H	1.043374	-0.472335	0.826504
H94	H	0.686889	-0.472601	0.469120
C95	C	0.594479	-0.487079	0.483447
N96	N	0.628447	-0.529017	0.524961
H97	H	1.043342	-0.472374	0.677772
