data_functionalizedCrystal
_audit_creation_method	'MofGen! by Chris Wilmer'
_symmetry_space_group_name_H-M	'P1'
_symmetry_Int_Tables_number	1
_symmetry_cell_setting	triclinic
loop_
_symmetry_equiv_pos_as_xyz
  x,y,z
_cell_length_a	18.050589
_cell_length_b	13.897449
_cell_length_c	13.897441
_cell_angle_alpha	90.020733
_cell_angle_beta	90.027873
_cell_angle_gamma	90.029500
loop_
_atom_site_label
_atom_site_type_symbol
_atom_site_fract_x
_atom_site_fract_y
_atom_site_fract_z
Zn1	Zn	-0.295610	1.474632	0.545399
Zn2	Zn	0.204390	1.974632	1.045399
Zn3	Zn	-0.419815	1.474496	0.384108
Zn4	Zn	0.080185	1.974496	0.884108
Zn5	Zn	-0.295646	1.313321	0.384118
Zn6	Zn	0.204354	1.813321	0.884118
Zn7	Zn	-0.419766	1.313273	0.545361
Zn8	Zn	0.080234	1.813273	1.045361
O9	O	-0.357709	1.393931	0.464747
O10	O	0.142291	1.893931	0.964747
O11	O	-0.312092	1.609596	0.524016
O12	O	0.187908	2.109596	1.024016
O13	O	-0.403379	1.453079	0.249128
O14	O	0.096621	1.953079	0.749128
O15	O	-0.191716	1.334796	0.405532
O16	O	0.308284	1.834796	0.905532
O17	O	-0.403344	1.609496	0.405516
O18	O	0.096656	2.109496	0.905516
O19	O	-0.191690	1.453311	0.524025
O20	O	0.308310	1.953311	1.024025
O21	O	-0.312152	1.334665	0.249135
O22	O	0.187848	1.834665	0.749135
O23	O	-0.312105	1.178333	0.405495
O24	O	0.187895	1.678333	0.905495
O25	O	-0.403261	1.334715	0.680348
O26	O	0.096739	1.834715	1.180348
O27	O	-0.403295	1.178298	0.523960
O28	O	0.096705	1.678298	1.023960
O29	O	-0.312045	1.453264	0.680376
O30	O	0.187955	1.953264	1.180376
O31	O	-0.523733	1.453033	0.405479
O32	O	-0.023733	1.953033	0.905479
O33	O	-0.523697	1.334583	0.523951
O34	O	-0.023697	1.834583	1.023951
C35	C	-0.357699	1.143316	0.464725
C36	C	0.142301	1.643316	0.964725
C37	C	-0.357713	1.036102	0.464738
C38	C	0.142287	1.536102	0.964738
C39	C	-0.357716	0.839807	0.464763
C40	C	0.142284	1.339807	0.964763
C41	C	-0.357712	0.949040	0.464747
C42	C	0.142288	1.449040	0.964747
C43	C	-0.550661	1.393814	0.464731
C44	C	-0.050661	1.893814	0.964731
C45	C	-0.633207	1.393853	0.464756
C46	C	-0.133207	1.893853	0.964756
C47	C	-0.832665	1.329503	0.529158
C48	C	-0.332665	1.829503	1.029158
C49	C	-0.882111	1.305986	0.441140
C50	C	-0.382111	1.805986	0.941140
C51	C	-0.784337	1.393947	0.464769
C52	C	-0.284337	1.893947	0.964769
C53	C	-0.881973	1.417512	0.552797
C54	C	-0.381973	1.917512	1.052797
C55	C	-0.930323	1.394037	0.464789
C56	C	-0.430323	1.894037	0.964789
C57	C	-0.832696	1.370384	0.376703
C58	C	-0.332696	1.870384	0.876703
C59	C	-0.832554	1.481951	0.488420
C60	C	-0.332554	1.981951	0.988420
C61	C	-0.881977	1.458467	0.400341
C62	C	-0.381977	1.958467	0.900341
C63	C	-0.700239	1.393893	0.464758
C64	C	-0.200239	1.893893	0.964758
C65	C	-1.014419	1.394092	0.464789
C66	C	-0.514419	1.894092	0.964789
C67	C	-0.164004	1.394074	0.464784
C68	C	0.335996	1.894074	0.964784
C69	C	-0.081458	1.394135	0.464800
C70	C	0.418542	1.894135	0.964800
C71	C	-0.357644	1.393999	0.716340
C72	C	0.142356	1.893999	1.216340
C73	C	-0.357616	1.394028	0.823554
C74	C	0.142384	1.894028	1.323554
C75	C	-0.357720	1.645524	0.464769
C76	C	0.142280	2.145524	0.964769
C77	C	-0.357724	1.752738	0.464779
C78	C	0.142276	2.252738	0.964779
C79	C	-0.357721	1.393918	0.214132
C80	C	0.142279	1.893918	0.714132
C81	C	-0.357540	1.394076	0.106919
C82	C	0.142460	1.894076	0.606919
C83	C	-0.357565	1.394055	1.019849
C84	C	0.142435	1.894055	1.519849
C85	C	-0.357595	1.394037	0.910616
C86	C	0.142405	1.894037	1.410616
H87	H	-0.811012	1.274924	0.583534
H88	H	-0.311012	1.774924	1.083534
N89	N	-0.804153	1.343911	0.278075
N90	N	-0.304153	1.843911	0.778075
H91	H	-0.822511	1.392296	0.229389
H92	H	-0.322511	1.892296	0.729389
H93	H	-0.748203	1.343998	0.278770
H94	H	-0.248203	1.843998	0.778770
H95	H	-0.903895	1.231606	0.421153
H96	H	-0.403895	1.731606	0.921153
H97	H	-0.903493	1.513005	0.345834
H98	H	-0.403493	2.013005	0.845834
H99	H	-0.810772	1.556314	0.508449
H100	H	-0.310772	2.056314	1.008449
N101	N	-0.910654	1.443868	0.651391
N102	N	-0.410654	1.943868	1.151391
H103	H	-0.892717	1.395106	0.699964
H104	H	-0.392717	1.895106	1.199964
H105	H	-0.891848	1.509850	0.669665
H106	H	-0.391848	2.009850	1.169665
