data_functionalizedCrystal
_audit_creation_method	'MofGen! by Chris Wilmer'
_symmetry_space_group_name_H-M	'P1'
_symmetry_Int_Tables_number	1
_symmetry_cell_setting	triclinic
loop_
_symmetry_equiv_pos_as_xyz
  x,y,z
_cell_length_a	6.817900
_cell_length_b	11.102289
_cell_length_c	10.943624
_cell_angle_alpha	91.861746
_cell_angle_beta	108.838799
_cell_angle_gamma	108.605707
loop_
_atom_site_label
_atom_site_type_symbol
_atom_site_fract_x
_atom_site_fract_y
_atom_site_fract_z
V1	V	-4.114282	-0.175806	-0.402551
O2	O	-4.073263	0.008482	-0.394888
O3	O	-4.091041	-0.348626	-0.399798
O4	O	-4.092264	-0.173086	-0.578117
O5	O	-4.072031	-0.168273	-0.215334
V6	V	-4.591232	-0.153765	-0.380158
O7	O	-4.389960	-0.224155	-0.451671
O8	O	-4.765752	-0.105415	-0.331038
O9	O	-4.391267	0.019056	-0.382912
O10	O	-4.749649	-0.338053	-0.387821
O11	O	-4.750880	-0.161298	-0.567375
O12	O	-4.390044	-0.156484	-0.204592
C13	C	-3.941308	-0.390757	-0.393447
C14	C	-4.003768	-0.532039	-0.392366
C15	C	-3.942867	-0.166837	-0.620910
C16	C	-4.006314	-0.165757	-0.764437
C17	C	-4.217163	-0.604887	-0.398299
C18	C	-4.275844	-0.737639	-0.397294
C19	C	-3.907711	-0.724682	-0.384419
C20	C	-3.849038	-0.591934	-0.385432
C21	C	-4.429699	-0.612368	-0.405727
C22	C	-4.488380	-0.745120	-0.404723
C23	C	-3.851194	-0.158485	-0.841584
C24	C	-4.039808	-0.266416	-0.947574
C25	C	-3.930779	-0.055914	-0.914187
C26	C	-4.194138	-0.273789	-0.868550
C27	C	-4.085029	-0.063191	-0.835140
C28	C	-4.273779	-0.171153	-0.941100
C29	C	-4.204342	0.061180	-0.389259
C30	C	-4.121122	0.202461	-0.390348
C31	C	-4.202783	-0.162738	-0.161792
C32	C	-4.118573	-0.163811	-0.018265
H33	H	-3.675284	-0.532628	-0.380616
H34	H	-4.304885	-0.365970	-0.848005
H35	H	-3.820065	0.036144	-0.934950
O36	O	-4.428840	-0.548661	-0.297189
C37	C	-4.368645	-0.416010	-0.304669
H38	H	-4.271084	-0.391836	-0.373261
H39	H	-4.262159	-0.359012	-0.203281
H40	H	-4.524010	-0.389915	-0.343511
O41	O	-4.487774	-0.177795	-0.992678
C42	C	-4.626485	-0.292718	-0.969859
H43	H	-4.539242	-0.366106	-0.953975
H44	H	-4.786589	-0.332532	-1.057836
H45	H	-4.665790	-0.272447	-0.879319
H46	H	-3.781744	-0.773465	-0.378775
H47	H	-4.620843	-0.802979	-0.500372
H48	H	-3.672029	-0.153274	-0.798136
H49	H	-4.542207	-0.593140	-0.499624
O50	O	-4.548968	-0.775153	-0.299585
C51	C	-4.607908	-0.908864	-0.298746
H52	H	-4.657774	-0.960014	-0.401893
H53	H	-4.752761	-0.944046	-0.262660
H54	H	-4.460857	-0.930657	-0.231008
O55	O	-4.017997	-0.369050	-1.005860
C56	C	-4.154930	-0.483650	-0.981376
H57	H	-4.190515	-0.462861	-0.889572
H58	H	-4.067959	-0.557174	-0.966791
H59	H	-4.317040	-0.523582	-1.067963
H60	H	-4.103399	0.022729	-0.786156
