data_functionalizedCrystal
_audit_creation_method	'MofGen! by Chris Wilmer'
_symmetry_space_group_name_H-M	'P1'
_symmetry_Int_Tables_number	1
_symmetry_cell_setting	triclinic
loop_
_symmetry_equiv_pos_as_xyz
  x,y,z
_cell_length_a	14.908742
_cell_length_b	13.897447
_cell_length_c	13.897441
_cell_angle_alpha	89.970673
_cell_angle_beta	93.280977
_cell_angle_gamma	86.726005
loop_
_atom_site_label
_atom_site_type_symbol
_atom_site_fract_x
_atom_site_fract_y
_atom_site_fract_z
Zn1	Zn	1.379176	-0.469028	-0.460135
Zn2	Zn	1.629176	-0.219028	-0.210135
Zn3	Zn	1.879176	0.030972	0.039865
Zn4	Zn	2.129176	0.280972	0.289865
Zn5	Zn	1.379072	-0.630343	-0.298846
Zn6	Zn	1.629072	-0.380343	-0.048846
Zn7	Zn	1.879072	-0.130343	0.201154
Zn8	Zn	2.129072	0.119657	0.451154
Zn9	Zn	1.228313	-0.459768	-0.308179
Zn10	Zn	1.478313	-0.209768	-0.058179
Zn11	Zn	1.728313	0.040232	0.191821
Zn12	Zn	1.978313	0.290232	0.441821
Zn13	Zn	1.228291	-0.620979	-0.469419
Zn14	Zn	1.478291	-0.370979	-0.219419
Zn15	Zn	1.728291	-0.120979	0.030581
Zn16	Zn	1.978291	0.129021	0.280581
O17	O	1.303713	-0.545030	-0.384145
O18	O	1.553713	-0.295030	-0.134145
O19	O	1.803713	-0.045030	0.115855
O20	O	2.053713	0.204970	0.365855
O21	O	1.505402	-0.498222	-0.430948
O22	O	1.755402	-0.248222	-0.180948
O23	O	2.005402	0.001778	0.069052
O24	O	2.255402	0.251778	0.319052
O25	O	1.359040	-0.607760	-0.165105
O26	O	1.609040	-0.357760	0.084895
O27	O	1.859040	-0.107760	0.334895
O28	O	2.109040	0.142240	0.584895
O29	O	1.248378	-0.326018	-0.328356
O30	O	1.498378	-0.076018	-0.078356
O31	O	1.748378	0.173982	0.171644
O32	O	1.998378	0.423982	0.421644
O33	O	1.505325	-0.616739	-0.312450
O34	O	1.755325	-0.366739	-0.062450
O35	O	2.005325	-0.116739	0.187550
O36	O	2.255325	0.133261	0.437550
O37	O	1.359217	-0.332821	-0.439998
O38	O	1.609217	-0.082821	-0.189998
O39	O	1.859217	0.167179	0.060002
O40	O	2.109217	0.417179	0.310002
O41	O	1.248278	-0.482439	-0.171961
O42	O	1.498278	-0.232439	0.078039
O43	O	1.748278	0.017561	0.328039
O44	O	1.998278	0.267561	0.578039
O45	O	1.102071	-0.473358	-0.337359
O46	O	1.352071	-0.223358	-0.087359
O47	O	1.602071	0.026642	0.162641
O48	O	1.852071	0.276642	0.412641
O49	O	1.248341	-0.600779	-0.603167
O50	O	1.498341	-0.350779	-0.353167
O51	O	1.748341	-0.100779	-0.103167
O52	O	1.998341	0.149221	0.146833
O53	O	1.102055	-0.591799	-0.455822
O54	O	1.352055	-0.341799	-0.205822
O55	O	1.602055	-0.091799	0.044178
O56	O	1.852055	0.158201	0.294178
O57	O	1.359195	-0.489141	-0.596346
O58	O	1.609195	-0.239141	-0.346346
O59	O	1.859195	0.010859	-0.096346
O60	O	2.109195	0.260859	0.153654
O61	O	1.359018	-0.764080	-0.321453
O62	O	1.609018	-0.514080	-0.071453
O63	O	1.859018	-0.264080	0.178547
O64	O	2.109018	-0.014080	0.428547
O65	O	1.248240	-0.757199	-0.446772
O66	O	1.498240	-0.507199	-0.196772
O67	O	1.748240	-0.257199	0.053228
O68	O	1.998240	-0.007199	0.303228
C69	C	1.069331	-0.530558	-0.398611
C70	C	1.319331	-0.280558	-0.148611
C71	C	1.569331	-0.030558	0.101389
C72	C	1.819331	0.219442	0.351389
C73	C	0.969061	-0.524391	-0.404823
C74	C	1.219061	-0.274391	-0.154823
C75	C	1.469061	-0.024391	0.095177
C76	C	1.719061	0.225609	0.345177
C77	C	0.827771	-0.454101	-0.475363
C78	C	1.077771	-0.204101	-0.225363
C79	C	1.327771	0.045899	0.024637
C80	C	1.577771	0.295899	0.274637
C81	C	0.921984	-0.459888	-0.469531
C82	C	1.171984	-0.209888	-0.219531
C83	C	1.421984	0.040112	0.030469
C84	C	1.671984	0.290112	0.280469
C85	C	0.921920	-0.583113	-0.345944
C86	C	1.171920	-0.333113	-0.095944
C87	C	1.421920	-0.083113	0.154056
C88	C	1.671920	0.166887	0.404056
C89	C	0.827707	-0.577327	-0.351776
C90	C	1.077707	-0.327327	-0.101776
C91	C	1.327707	-0.077327	0.148224
C92	C	1.577707	0.172673	0.398224
C93	C	0.780636	-0.512817	-0.416486
C94	C	1.030636	-0.262817	-0.166486
C95	C	1.280636	-0.012817	0.083514
C96	C	1.530636	0.237183	0.333514
C97	C	0.686422	-0.507027	-0.422312
C98	C	0.936422	-0.257027	-0.172312
C99	C	1.186422	-0.007027	0.077688
C100	C	1.436422	0.242973	0.327688
C101	C	0.686360	-0.630256	-0.298731
C102	C	0.936360	-0.380256	-0.048731
C103	C	1.186360	-0.130256	0.201269
C104	C	1.436360	0.119744	0.451269
C105	C	0.780572	-0.636043	-0.292900
C106	C	1.030572	-0.386043	-0.042900
C107	C	1.280572	-0.136043	0.207100
C108	C	1.530572	0.113957	0.457100
C109	C	1.303640	-0.795639	-0.384127
C110	C	1.553640	-0.545639	-0.134127
C111	C	1.803640	-0.295639	0.115873
C112	C	2.053640	-0.045639	0.365873
C113	C	1.303691	-0.902856	-0.384147
C114	C	1.553691	-0.652856	-0.134147
C115	C	1.803691	-0.402856	0.115853
C116	C	2.053691	-0.152856	0.365853
C117	C	1.303735	-0.989929	-0.384166
C118	C	1.553735	-0.739929	-0.134166
C119	C	1.803735	-0.489929	0.115834
C120	C	2.053735	-0.239929	0.365834
C121	C	1.303798	-1.099165	-0.384187
C122	C	1.553798	-0.849165	-0.134187
C123	C	1.803798	-0.599165	0.115813
C124	C	2.053798	-0.349165	0.365813
C125	C	1.539011	-0.559558	-0.369622
C126	C	1.789011	-0.309558	-0.119622
C127	C	2.039011	-0.059558	0.130378
C128	C	2.289011	0.190442	0.380378
C129	C	1.639281	-0.565749	-0.363434
C130	C	1.889281	-0.315749	-0.113434
C131	C	2.139281	-0.065749	0.136566
C132	C	2.389281	0.184251	0.386566
C133	C	1.303777	-0.544948	-0.635734
C134	C	1.553777	-0.294948	-0.385734
C135	C	1.803777	-0.044948	-0.135734
C136	C	2.053777	0.205052	0.114266
C137	C	1.303805	-0.544914	-0.742946
C138	C	1.553805	-0.294914	-0.492946
C139	C	1.803805	-0.044914	-0.242946
C140	C	2.053805	0.205086	0.007054
C141	C	1.303812	-0.293443	-0.384182
C142	C	1.553812	-0.043443	-0.134182
C143	C	1.803812	0.206557	0.115818
C144	C	2.053812	0.456557	0.365818
C145	C	1.303853	-0.186231	-0.384198
C146	C	1.553853	0.063769	-0.134198
C147	C	1.803853	0.313769	0.115802
C148	C	2.053853	0.563769	0.365802
C149	C	1.303829	-0.544850	-0.939240
C150	C	1.553829	-0.294850	-0.689240
C151	C	1.803829	-0.044850	-0.439240
C152	C	2.053829	0.205150	-0.189240
C153	C	1.303813	-0.544888	-0.830009
C154	C	1.553813	-0.294888	-0.580009
C155	C	1.803813	-0.044888	-0.330009
C156	C	2.053813	0.205112	-0.080009
C157	C	1.303702	-0.545044	-0.133531
C158	C	1.553702	-0.295044	0.116469
C159	C	1.803702	-0.045044	0.366469
C160	C	2.053702	0.204956	0.616469
C161	C	1.303849	-0.544818	-0.026309
C162	C	1.553849	-0.294818	0.223691
C163	C	1.803849	-0.044818	0.473691
C164	C	2.053849	0.205182	0.723691
H165	H	0.960261	-0.635636	-0.293263
H166	H	1.210261	-0.385636	-0.043263
H167	H	1.460261	-0.135636	0.206737
H168	H	1.710261	0.114364	0.456737
H169	H	0.648099	-0.454496	-0.474999
H170	H	0.898099	-0.204496	-0.224999
H171	H	1.148099	0.045504	0.025001
H172	H	1.398099	0.295504	0.275001
C173	C	0.775987	-0.383142	-0.546531
C174	C	1.025987	-0.133142	-0.296531
C175	C	1.275987	0.116858	-0.046531
C176	C	1.525987	0.366858	0.203469
H177	H	0.713126	-0.388101	-0.541566
H178	H	0.963126	-0.138101	-0.291566
H179	H	1.213126	0.111899	-0.041566
H180	H	1.463126	0.361899	0.208434
H181	H	0.791450	-0.398277	-0.610361
H182	H	1.041450	-0.148277	-0.360361
H183	H	1.291450	0.101723	-0.110361
H184	H	1.541450	0.351723	0.139639
H185	H	0.791428	-0.319262	-0.531556
H186	H	1.041428	-0.069262	-0.281556
H187	H	1.291428	0.180738	-0.031556
H188	H	1.541428	0.430738	0.218444
H189	H	0.818910	-0.688566	-0.240217
H190	H	1.068910	-0.438566	0.009783
H191	H	1.318910	-0.188566	0.259783
H192	H	1.568910	0.061434	0.509783
H193	H	0.960358	-0.412075	-0.517474
H194	H	1.210358	-0.162075	-0.267474
H195	H	1.460358	0.087925	-0.017474
H196	H	1.710358	0.337925	0.232526
C197	C	0.634510	-0.694853	-0.233972
C198	C	0.884510	-0.444853	0.016028
C199	C	1.134510	-0.194853	0.266028
C200	C	1.384510	0.055147	0.516028
H201	H	0.571658	-0.682175	-0.246715
H202	H	0.821658	-0.432175	0.003285
H203	H	1.071658	-0.182175	0.253285
H204	H	1.321658	0.067825	0.503285
H205	H	0.649925	-0.681612	-0.168231
H206	H	0.899925	-0.431612	0.081769
H207	H	1.149925	-0.181612	0.331769
H208	H	1.399925	0.068388	0.581769
H209	H	0.649949	-0.760631	-0.247033
H210	H	0.899949	-0.510631	0.002967
H211	H	1.149949	-0.260631	0.252967
H212	H	1.399949	-0.010631	0.502967
