data_functionalizedCrystal
_audit_creation_method	'MofGen! by Chris Wilmer'
_symmetry_space_group_name_H-M	'P1'
_symmetry_Int_Tables_number	1
_symmetry_cell_setting	triclinic
loop_
_symmetry_equiv_pos_as_xyz
  x,y,z
_cell_length_a	17.699104
_cell_length_b	22.610064
_cell_length_c	17.699092
_cell_angle_alpha	89.994252
_cell_angle_beta	83.288943
_cell_angle_gamma	90.009101
loop_
_atom_site_label
_atom_site_type_symbol
_atom_site_fract_x
_atom_site_fract_y
_atom_site_fract_z
O1	O	1.004074	0.049194	0.095776
O2	O	1.337407	0.382528	0.429109
O3	O	1.670741	0.715861	0.762442
O4	O	0.783698	0.049193	0.108212
O5	O	1.117031	0.382526	0.441545
O6	O	1.450365	0.715859	0.774878
O7	O	0.900109	0.049192	-0.008195
O8	O	1.233442	0.382525	0.325139
O9	O	1.566776	0.715859	0.658472
O10	O	0.887663	0.049195	0.212182
O11	O	1.220996	0.382528	0.545515
O12	O	1.554330	0.715861	0.878849
O13	O	0.900088	-0.049177	-0.008178
O14	O	1.233422	0.284156	0.325156
O15	O	1.566755	0.617490	0.658489
O16	O	0.783678	-0.049177	0.108228
O17	O	1.117011	0.284157	0.441562
O18	O	1.450344	0.617490	0.774895
O19	O	1.004053	-0.049175	0.095793
O20	O	1.337387	0.284158	0.429126
O21	O	1.670720	0.617492	0.762459
Zn22	Zn	0.893862	-0.064794	0.102013
Zn23	Zn	1.227196	0.268539	0.435347
Zn24	Zn	1.560529	0.601873	0.768680
Zn25	Zn	0.893889	0.064812	0.101991
Zn26	Zn	1.227223	0.398145	0.435324
Zn27	Zn	1.560556	0.731478	0.768658
O28	O	0.887643	-0.049174	0.212199
O29	O	1.220976	0.284159	0.545532
O30	O	1.554309	0.617492	0.878865
C31	C	0.755491	0.000008	0.107772
C32	C	1.088824	0.333341	0.441105
C33	C	1.422158	0.666674	0.774438
C34	C	0.671474	0.000007	0.106427
C35	C	1.004807	0.333341	0.439760
C36	C	1.338140	0.666674	0.773094
C37	C	0.146605	0.000014	0.167170
C38	C	0.479938	0.333347	0.500504
C39	C	0.813271	0.666681	0.833837
C40	C	0.225548	0.000016	0.168430
C41	C	0.558882	0.333349	0.501763
C42	C	0.892215	0.666683	0.835096
C43	C	0.274164	0.000015	0.100095
C44	C	0.607497	0.333348	0.433428
C45	C	0.940831	0.666682	0.766761
C46	C	0.243832	0.000018	0.030496
C47	C	0.577165	0.333352	0.363829
C48	C	0.910499	0.666685	0.697163
C49	C	0.164890	0.000021	0.029238
C50	C	0.498223	0.333354	0.362571
C51	C	0.831556	0.666687	0.695904
C52	C	0.562198	0.000009	0.035569
C53	C	0.895532	0.333342	0.368902
C54	C	1.228865	0.666676	0.702236
C55	C	0.641145	0.000005	0.036833
C56	C	0.974479	0.333338	0.370166
C57	C	1.307812	0.666671	0.703499
C58	C	0.622857	0.000004	0.174761
C59	C	0.956190	0.333337	0.508094
C60	C	1.289524	0.666671	0.841428
C61	C	0.543915	0.000006	0.173503
C62	C	0.877248	0.333340	0.506836
C63	C	1.210581	0.666673	0.840169
C64	C	0.513590	0.000013	0.103905
C65	C	0.846923	0.333346	0.437238
C66	C	1.180256	0.666680	0.770571
C67	C	0.427990	0.000012	0.102540
C68	C	0.761323	0.333346	0.435874
C69	C	1.094656	0.666679	0.769207
C70	C	0.359762	0.000011	0.101458
C71	C	0.693096	0.333345	0.434792
C72	C	1.026429	0.666678	0.768125
N73	N	0.893849	-0.153246	0.102028
N74	N	1.227183	0.180087	0.435361
N75	N	1.560516	0.513420	0.768695
C76	C	0.945438	-0.561888	0.050454
C77	C	1.278772	-0.228555	0.383787
C78	C	1.612105	0.104779	0.717121
C79	C	0.945442	-0.623808	0.050449
C80	C	1.278776	-0.290475	0.383782
C81	C	1.612109	0.042859	0.717115
O82	O	0.989273	-0.655827	0.006610
O83	O	1.322606	-0.322494	0.339943
O84	O	1.655940	0.010840	0.673276
N85	N	0.893889	-0.654784	0.101975
N86	N	1.227222	-0.321450	0.435308
N87	N	1.560555	0.011883	0.768642
C88	C	0.842323	-0.623836	0.153505
C89	C	1.175656	-0.290503	0.486839
C90	C	1.508990	0.042831	0.820172
O91	O	0.798472	-0.655869	0.197332
O92	O	1.131806	-0.322536	0.530665
O93	O	1.465139	0.010798	0.863999
C94	C	0.842316	-0.561917	0.153507
C95	C	1.175649	-0.228584	0.486840
C96	C	1.508983	0.104749	0.820173
C97	C	0.893878	-0.530945	0.101982
C98	C	1.227211	-0.197612	0.435315
C99	C	1.560545	0.135722	0.768649
C100	C	0.996996	-0.530916	-0.001067
C101	C	1.330329	-0.197582	0.332266
C102	C	1.663662	0.135751	0.665599
C103	C	0.996992	-0.469000	-0.001061
C104	C	1.330326	-0.135667	0.332273
C105	C	1.663659	0.197667	0.665606
C106	C	0.945432	-0.438057	0.050467
C107	C	1.278765	-0.104723	0.383801
C108	C	1.612099	0.228610	0.717134
C109	C	0.893875	-0.469029	0.101989
C110	C	1.227208	-0.135696	0.435322
C111	C	1.560542	0.197637	0.768655
C112	C	0.790747	-0.530971	0.205033
C113	C	1.124080	-0.197638	0.538366
C114	C	1.457414	0.135696	0.871699
C115	C	0.790744	-0.469048	0.205029
C116	C	1.124078	-0.135715	0.538363
C117	C	1.457411	0.197619	0.871696
C118	C	0.842306	-0.438076	0.153504
C119	C	1.175640	-0.104742	0.486838
C120	C	1.508973	0.228591	0.820171
C121	C	0.842311	-0.376170	0.153523
C122	C	1.175645	-0.042837	0.486856
C123	C	1.508978	0.290496	0.820190
N124	N	0.893865	-0.345195	0.101996
N125	N	1.227198	-0.011861	0.435330
N126	N	1.560532	0.321472	0.768663
C127	C	0.945425	-0.376138	0.050469
C128	C	1.278759	-0.042805	0.383802
C129	C	1.612092	0.290529	0.717135
C130	C	0.842340	-0.753870	0.153498
C131	C	1.175674	-0.420536	0.486831
C132	C	1.509007	-0.087203	0.820165
C133	C	0.842350	-0.815787	0.153501
C134	C	1.175684	-0.482454	0.486834
C135	C	1.509017	-0.149121	0.820168
C136	C	0.945469	-0.815755	0.050443
C137	C	1.278802	-0.482422	0.383776
C138	C	1.612135	-0.149088	0.717110
C139	C	0.945462	-0.753836	0.050444
C140	C	1.278795	-0.420503	0.383777
C141	C	1.612129	-0.087169	0.717111
C142	C	0.893894	-0.722894	0.101971
C143	C	1.227227	-0.389561	0.435305
C144	C	1.560560	-0.056227	0.768638
C145	C	0.945415	-0.246111	0.050487
C146	C	1.278749	0.087223	0.383820
C147	C	1.612082	0.420556	0.717154
C148	C	0.945410	-0.184190	0.050500
C149	C	1.278743	0.149144	0.383833
C150	C	1.612076	0.482477	0.717167
C151	C	0.842289	-0.184227	0.153555
C152	C	1.175622	0.149106	0.486889
C153	C	1.508955	0.482439	0.820222
C154	C	0.842297	-0.246143	0.153545
C155	C	1.175630	0.087190	0.486878
C156	C	1.508963	0.420524	0.820212
C157	C	0.893863	-0.277083	0.102004
C158	C	1.227196	0.056250	0.435338
C159	C	1.560529	0.389583	0.768671
O160	O	0.798501	-0.344112	0.197337
O161	O	1.131834	-0.010779	0.530671
O162	O	1.465168	0.322554	0.864004
O163	O	0.989262	-0.344097	0.006643
O164	O	1.322595	-0.010764	0.339976
O165	O	1.655928	0.322569	0.673310
C166	C	1.032260	0.000011	0.096232
C167	C	1.365594	0.333345	0.429566
C168	C	1.698927	0.666678	0.762899
C169	C	1.116278	0.000016	0.097577
C170	C	1.449611	0.333349	0.430911
C171	C	1.782944	0.666682	0.764244
N172	N	0.893908	0.153264	0.101970
N173	N	1.227242	0.486597	0.435303
N174	N	1.560575	0.819931	0.768637
C175	C	0.899652	0.000008	-0.036383
C176	C	1.232985	0.333342	0.296950
C177	C	1.566318	0.666675	0.630283
C178	C	0.898311	0.000011	-0.120401
C179	C	1.231644	0.333345	0.212932
C180	C	1.564977	0.666678	0.546266
C181	C	0.897694	0.053633	-0.159878
C182	C	1.231027	0.386966	0.173456
C183	C	1.564360	0.720300	0.506789
C184	C	0.896429	0.053634	-0.238821
C185	C	1.229762	0.386967	0.094513
C186	C	1.563095	0.720300	0.427846
C187	C	0.895786	0.000012	-0.278286
C188	C	1.229120	0.333345	0.055047
C189	C	1.562453	0.666679	0.388380
C190	C	0.896401	-0.053614	-0.238804
C191	C	1.229734	0.279719	0.094529
C192	C	1.563068	0.613053	0.427863
C193	C	0.897661	-0.053614	-0.159862
C194	C	1.230994	0.279719	0.173472
C195	C	1.564327	0.613053	0.506805
C196	C	0.891321	-0.053615	-0.557169
C197	C	1.224654	0.279719	-0.223836
C198	C	1.557987	0.613052	0.109497
C199	C	0.890063	-0.053611	-0.636117
C200	C	1.223397	0.279723	-0.302784
C201	C	1.556730	0.613056	0.030549
C202	C	0.890089	0.053633	-0.636129
C203	C	1.223422	0.386966	-0.302795
C204	C	1.556755	0.720299	0.030538
C205	C	0.891348	0.053633	-0.557186
C206	C	1.224682	0.386966	-0.223853
C207	C	1.558015	0.720299	0.109480
C208	C	0.891959	0.000007	-0.517710
C209	C	1.225292	0.333341	-0.184377
C210	C	1.558626	0.666674	0.148957
C211	C	0.893329	0.000007	-0.432111
C212	C	1.226662	0.333340	-0.098777
C213	C	1.559996	0.666674	0.234556
C214	C	0.894421	0.000011	-0.363885
C215	C	1.227755	0.333345	-0.030552
C216	C	1.561088	0.666678	0.302782
C217	C	0.888100	0.000011	0.240387
C218	C	1.221433	0.333344	0.573721
C219	C	1.554767	0.666677	0.907054
C220	C	0.889441	0.000012	0.324405
C221	C	1.222774	0.333345	0.657738
C222	C	1.556108	0.666678	0.991072
H223	H	0.140199	0.000023	-0.027432
H224	H	0.473533	0.333357	0.305901
H225	H	0.806866	0.666690	0.639235
C226	C	0.898400	0.112618	-0.116472
C227	C	1.231733	0.445951	0.216861
C228	C	1.565066	0.779284	0.550194
H229	H	0.897844	0.144552	-0.151292
H230	H	1.231177	0.477886	0.182042
H231	H	1.564511	0.811219	0.515375
H232	H	0.943009	0.114849	-0.091525
H233	H	1.276343	0.448182	0.241808
H234	H	1.609676	0.781516	0.575141
H235	H	0.854767	0.114846	-0.079829
H236	H	1.188100	0.448179	0.253504
H237	H	1.521433	0.781512	0.586837
C238	C	0.528846	0.000017	-0.040983
C239	C	0.862180	0.333351	0.292350
C240	C	1.195513	0.666684	0.625684
H241	H	0.474869	0.000027	-0.031951
H242	H	0.808202	0.333361	0.301383
H243	H	1.141535	0.666694	0.634716
H244	H	0.545529	-0.034285	-0.069113
H245	H	0.878862	0.299048	0.264220
H246	H	1.212195	0.632382	0.597554
H247	H	0.545555	0.034326	-0.069111
H248	H	0.878889	0.367660	0.264222
H249	H	1.212222	0.700993	0.597555
C250	C	1.053721	-0.564944	-0.057749
C251	C	1.387054	-0.231610	0.275584
C252	C	1.720388	0.101723	0.608918
H253	H	1.084424	-0.537621	-0.088424
H254	H	1.417757	-0.204288	0.244910
H255	H	1.751091	0.129046	0.578243
H256	H	1.026570	-0.589103	-0.089232
H257	H	1.359903	-0.255770	0.244102
H258	H	1.693237	0.077563	0.577435
H259	H	1.085183	-0.589090	-0.030554
H260	H	1.418516	-0.255757	0.302779
H261	H	1.751849	0.077576	0.636113
H262	H	0.987400	-0.158974	0.008542
H263	H	1.320734	0.174360	0.341876
H264	H	1.654067	0.507693	0.675209
H265	H	0.800311	-0.159024	0.195511
H266	H	1.133644	0.174310	0.528844
H267	H	1.466978	0.507643	0.862178
H268	H	0.895929	0.097298	-0.270960
H269	H	1.229263	0.430631	0.062374
H270	H	1.562596	0.763964	0.395707
C271	C	0.656213	0.000004	0.251321
C272	C	0.989546	0.333338	0.584654
C273	C	1.322879	0.666671	0.917987
H274	H	0.615952	-0.000001	0.291837
H275	H	0.949285	0.333332	0.625170
H276	H	1.282618	0.666666	0.958503
H277	H	0.686636	0.034307	0.254677
H278	H	1.019969	0.367641	0.588010
H279	H	1.353303	0.700974	0.921344
H280	H	0.686619	-0.034304	0.254684
H281	H	1.019952	0.299029	0.588017
H282	H	1.353285	0.632363	0.921350
C283	C	0.895697	-0.112597	-0.282214
C284	C	1.229030	0.220737	0.051119
C285	C	1.562364	0.554070	0.384452
H286	H	0.894867	-0.104918	-0.334885
H287	H	1.228200	0.228416	-0.001551
H288	H	1.561534	0.561749	0.331782
H289	H	0.851781	-0.134632	-0.263427
H290	H	1.185115	0.198702	0.069906
H291	H	1.518448	0.532035	0.403239
H292	H	0.940024	-0.134626	-0.275120
H293	H	1.273357	0.198707	0.058213
H294	H	1.606691	0.532040	0.391546
C295	C	0.892058	0.112615	-0.513775
C296	C	1.225392	0.445948	-0.180442
C297	C	1.558725	0.779281	0.152892
H298	H	0.892904	0.104934	-0.461107
H299	H	1.226237	0.438268	-0.127773
H300	H	1.559571	0.771601	0.205560
H301	H	0.847739	0.134649	-0.520865
H302	H	1.181073	0.467983	-0.187532
H303	H	1.514406	0.801316	0.145802
H304	H	0.935982	0.134645	-0.532566
H305	H	1.269315	0.467978	-0.199232
H306	H	1.602649	0.801312	0.134101
H307	H	0.250236	0.000020	0.225099
H308	H	0.583570	0.333353	0.558433
H309	H	0.916903	0.666687	0.891766
H310	H	0.891833	-0.097280	-0.525039
H311	H	1.225167	0.236053	-0.191706
H312	H	1.558500	0.569387	0.141627
C313	C	0.694625	0.000008	-0.038337
C314	C	1.027958	0.333341	0.294996
C315	C	1.361292	0.666675	0.628330
H316	H	0.745983	-0.000001	-0.027617
H317	H	1.079316	0.333333	0.305717
H318	H	1.412649	0.666666	0.639050
H319	H	0.685457	0.034314	-0.066883
H320	H	1.018791	0.367647	0.266450
H321	H	1.352124	0.700981	0.599783
H322	H	0.685435	-0.034297	-0.066878
H323	H	1.018769	0.299036	0.266455
H324	H	1.352102	0.632369	0.599789
H325	H	0.898152	-0.097278	-0.127719
H326	H	1.231486	0.236055	0.205614
H327	H	1.564819	0.569388	0.538947
H328	H	0.504335	0.000004	0.229148
H329	H	0.837668	0.333338	0.562481
H330	H	1.171001	0.666671	0.895815
H331	H	0.987404	-0.271295	0.008517
H332	H	1.320737	0.062038	0.341850
H333	H	1.654071	0.395372	0.675184
C334	C	0.889406	0.112621	-0.679553
C335	C	1.222739	0.445954	-0.346220
C336	C	1.556073	0.779287	-0.012886
H337	H	0.888555	0.104944	-0.732219
H338	H	1.221888	0.438277	-0.398886
H339	H	1.555222	0.771611	-0.065553
H340	H	0.933736	0.134653	-0.672468
H341	H	1.267070	0.467986	-0.339135
H342	H	1.600403	0.801320	-0.005802
H343	H	0.845494	0.134652	-0.660765
H344	H	1.178827	0.467985	-0.327432
H345	H	1.512160	0.801319	0.005901
H346	H	0.107027	0.000010	0.222817
H347	H	0.440360	0.333344	0.556150
H348	H	0.773693	0.666677	0.889484
H349	H	0.800372	-0.841001	0.195465
H350	H	1.133705	-0.507668	0.528798
H351	H	1.467038	-0.174334	0.862132
H352	H	0.283421	0.000021	-0.025143
H353	H	0.616755	0.333354	0.308190
H354	H	0.950088	0.666688	0.641523
C355	C	0.889348	-0.112597	-0.679527
C356	C	1.222681	0.220736	-0.346194
C357	C	1.556014	0.554070	-0.012861
H358	H	0.889884	-0.144535	-0.644710
H359	H	1.223217	0.188798	-0.311377
H360	H	1.556550	0.522132	0.021957
H361	H	0.932974	-0.114830	-0.716172
H362	H	1.266307	0.218504	-0.382838
H363	H	1.599640	0.551837	-0.049505
H364	H	0.844731	-0.114819	-0.704472
H365	H	1.178065	0.218515	-0.371139
H366	H	1.511398	0.551848	-0.037805
C367	C	0.734022	-0.435012	0.261712
C368	C	1.067355	-0.101679	0.595045
C369	C	1.400689	0.231654	0.928378
H370	H	0.741396	-0.393699	0.254336
H371	H	1.074730	-0.060366	0.587669
H372	H	1.408063	0.272967	0.921003
H373	H	0.742145	-0.445167	0.312215
H374	H	1.075478	-0.111834	0.645548
H375	H	1.408811	0.221499	0.978881
H376	H	0.683527	-0.445168	0.253542
H377	H	1.016860	-0.111835	0.586876
H378	H	1.350194	0.221499	0.920209
C379	C	1.053702	-0.434938	-0.057747
C380	C	1.387036	-0.101605	0.275586
C381	C	1.720369	0.231729	0.608920
H382	H	1.084400	-0.462242	-0.088437
H383	H	1.417733	-0.128909	0.244896
H384	H	1.751067	0.204425	0.578229
H385	H	1.085160	-0.410778	-0.030567
H386	H	1.418493	-0.077445	0.302766
H387	H	1.751827	0.255889	0.636100
H388	H	1.026528	-0.410789	-0.089225
H389	H	1.359861	-0.077455	0.244108
H390	H	1.693194	0.255878	0.577442
H391	H	0.987448	-0.728622	0.008488
H392	H	1.320781	-0.395289	0.341821
H393	H	1.654114	-0.061955	0.675155
C394	C	1.002178	-0.849800	-0.006245
C395	C	1.335511	-0.516467	0.327088
C396	C	1.668844	-0.183134	0.660422
H397	H	0.994787	-0.891112	0.001132
H398	H	1.328120	-0.557779	0.334465
H399	H	1.661453	-0.224445	0.667798
H400	H	1.052675	-0.839650	0.001907
H401	H	1.386008	-0.506317	0.335241
H402	H	1.719341	-0.172984	0.668574
H403	H	0.994042	-0.839649	-0.056750
H404	H	1.327375	-0.506316	0.276584
H405	H	1.660709	-0.172983	0.609917
H406	H	0.800349	-0.728680	0.195464
H407	H	1.133683	-0.395346	0.528797
H408	H	1.467016	-0.062013	0.862130
H409	H	0.748760	-0.556180	0.246988
H410	H	1.082094	-0.222847	0.580322
H411	H	1.415427	0.110487	0.913655
C412	C	0.785552	-0.280214	0.210192
C413	C	1.118885	0.053119	0.543525
C414	C	1.452218	0.386453	0.876858
H415	H	0.754833	-0.252915	0.240869
H416	H	1.088166	0.080419	0.574202
H417	H	1.421499	0.413752	0.907535
H418	H	0.812681	-0.304387	0.241677
H419	H	1.146014	0.028946	0.575010
H420	H	1.479347	0.362280	0.908343
H421	H	0.754108	-0.304351	0.182959
H422	H	1.087442	0.028983	0.516292
H423	H	1.420775	0.362316	0.849626
