data_functionalizedCrystal
_audit_creation_method	'MofGen! by Chris Wilmer'
_symmetry_space_group_name_H-M	'P1'
_symmetry_Int_Tables_number	1
_symmetry_cell_setting	triclinic
loop_
_symmetry_equiv_pos_as_xyz
  x,y,z
_cell_length_a	14.044220
_cell_length_b	12.503572
_cell_length_c	12.837942
_cell_angle_alpha	93.896304
_cell_angle_beta	85.991091
_cell_angle_gamma	93.835250
loop_
_atom_site_label
_atom_site_type_symbol
_atom_site_fract_x
_atom_site_fract_y
_atom_site_fract_z
O1	O	1.285429	0.089203	-0.246491
O2	O	1.008640	0.089230	-0.237395
O3	O	1.140897	0.089211	-0.090473
O4	O	1.153173	0.089223	-0.393413
O5	O	1.130952	-0.089430	-0.101542
O6	O	0.998696	-0.089410	-0.248464
O7	O	1.275485	-0.089437	-0.257560
Cu8	Cu	1.136182	-0.105735	-0.254023
Cu9	Cu	1.147943	0.105528	-0.240932
O10	O	1.143228	-0.089418	-0.404482
C11	C	0.967994	-0.000086	-0.238948
C12	C	0.861696	-0.000076	-0.227074
C13	C	0.667073	-0.000098	-0.205366
C14	C	0.617047	-0.000099	-0.289583
C15	C	0.508751	-0.000112	-0.277505
C16	C	0.775378	-0.000086	-0.217443
N17	N	1.127917	-0.254326	-0.263230
C18	C	1.115760	-0.473439	-0.276784
C19	C	1.168369	-0.526774	-0.218167
C20	C	1.161605	-0.648697	-0.225708
C21	C	1.122523	-0.351506	-0.269244
C22	C	1.316131	-0.000118	-0.256006
C23	C	1.422429	-0.000121	-0.267881
C24	C	1.131778	-0.000108	-0.057003
C25	C	1.119411	-0.000105	0.059217
N26	N	1.156215	0.254119	-0.231717
C27	C	1.152347	-0.000096	-0.437951
C28	C	1.164715	-0.000092	-0.554172
C29	C	1.268090	-0.000098	0.286428
C30	C	1.256475	-0.000095	0.395628
C31	C	1.084565	-0.000089	0.386820
C32	C	1.096181	-0.000092	0.277620
C33	C	1.187946	-0.000098	0.227428
C34	C	1.199561	-0.000108	0.118225
C35	C	1.027652	-0.000095	0.109420
C36	C	1.016036	-0.000092	0.218620
H37	H	0.628572	-0.000107	-0.124201
H38	H	1.065643	-0.519339	-0.332627
H39	H	0.962392	-0.000104	0.061370
H40	H	0.941324	-0.000083	0.259502
O41	O	1.298534	-0.000112	0.064091
H42	H	1.293150	-0.000124	-0.021757
O43	O	1.367059	-0.000103	0.232281
H44	H	1.420839	-0.000097	0.291655
O45	O	0.668036	-0.000092	-0.397110
H46	H	0.651624	0.072716	-0.435655
H47	H	1.218490	-0.480869	-0.162321
H48	H	1.321737	-0.000091	0.443663
O49	O	0.985594	-0.000090	0.440962
H50	H	0.990986	-0.000095	0.526807
