data_functionalizedCrystal
_audit_creation_method	'MofGen! by Chris Wilmer'
_symmetry_space_group_name_H-M	'P1'
_symmetry_Int_Tables_number	1
_symmetry_cell_setting	triclinic
loop_
_symmetry_equiv_pos_as_xyz
  x,y,z
_cell_length_a	15.538191
_cell_length_b	19.288865
_cell_length_c	17.766277
_cell_angle_alpha	90.011603
_cell_angle_beta	89.989018
_cell_angle_gamma	114.795829
loop_
_atom_site_label
_atom_site_type_symbol
_atom_site_fract_x
_atom_site_fract_y
_atom_site_fract_z
O1	O	1.250877	0.225834	-0.062580
O2	O	0.976277	0.145548	-0.062588
O3	O	1.121512	0.288804	-0.062569
O4	O	1.105642	0.082579	-0.062599
O5	O	1.121486	0.288803	0.062620
O6	O	0.976252	0.145547	0.062601
O7	O	1.250851	0.225834	0.062609
Cu8	Cu	1.113549	0.185690	0.074035
Cu9	Cu	1.113579	0.185691	-0.074014
O10	O	1.105617	0.082578	0.062590
C11	C	0.941133	0.137147	0.000006
C12	C	0.836453	0.112126	0.000004
N13	N	1.113535	0.185691	0.178166
C14	C	1.120988	0.314552	0.000028
C15	C	1.119455	0.391273	0.000034
C16	C	0.549718	0.360705	0.000028
C17	C	0.451352	0.337176	0.000024
C18	C	0.428348	0.204832	0.000005
C19	C	0.526713	0.228350	0.000013
C20	C	0.587391	0.306287	0.000024
C21	C	0.564386	0.173932	0.000008
C22	C	0.662744	0.197448	0.000012
C23	C	0.723427	0.275382	0.000020
C24	C	0.685748	0.329803	0.000027
C25	C	0.503707	0.095996	-0.000008
C26	C	0.541380	0.041578	-0.000013
C27	C	0.639739	0.065094	-0.000004
C28	C	0.700423	0.143027	0.000005
C29	C	0.677418	0.010673	-0.000011
C30	C	0.775776	0.034189	-0.000007
C31	C	0.798780	0.166543	0.000008
C32	C	1.285995	0.234234	0.000013
C33	C	1.390675	0.259255	0.000011
C34	C	1.106140	0.056829	-0.000009
C35	C	1.107673	-0.019891	-0.000020
C36	C	1.204672	0.457257	0.000040
C37	C	1.203232	0.529344	0.000029
C38	C	1.116570	0.535443	0.000026
C39	C	1.031342	0.469446	0.000015
C40	C	1.032785	0.397361	0.000020
C41	C	1.048435	0.626711	0.043875
C42	C	1.046996	0.698796	0.043875
C43	C	1.112118	0.757776	0.000009
C44	C	1.178694	0.744668	-0.043848
C45	C	1.180137	0.672583	-0.043844
C46	C	1.114997	0.613604	0.000020
C47	C	1.195779	0.901928	0.000001
C48	C	1.194336	0.974015	-0.000016
C49	C	1.022443	0.914114	-0.000022
C50	C	1.023889	0.842029	-0.000013
C51	C	1.110560	0.835941	0.000002
N52	N	1.113601	0.185697	-0.178145
C53	C	1.177865	0.249107	0.217561
C54	C	1.177871	0.249112	0.296363
C55	C	1.113555	0.185691	0.335766
C56	C	1.049212	0.122268	0.296362
C57	C	1.049202	0.122269	0.217561
C58	C	1.100930	0.119249	0.460595
C59	C	1.100947	0.119250	0.539394
C60	C	1.113580	0.185689	0.578813
C61	C	1.126217	0.252135	0.539423
C62	C	1.126207	0.252135	0.460623
C63	C	1.113558	0.185684	0.421212
C64	C	1.177920	0.249114	0.703654
C65	C	1.177919	0.249118	0.782457
C66	C	1.049265	0.122270	0.782454
C67	C	1.049261	0.122271	0.703653
C68	C	1.113594	0.185694	0.664257
H69	H	0.848188	0.230008	0.000022
H70	H	0.378931	0.141376	-0.000007
H71	H	0.803516	0.294527	0.000013
C72	C	0.973768	0.713211	0.092115
H73	H	0.935179	0.667758	0.118230
H74	H	1.005794	0.752695	0.127385
H75	H	0.935136	0.728058	0.060484
H76	H	0.951881	0.919078	-0.000028
H77	H	0.735156	0.393267	0.000041
H78	H	0.806449	-0.010124	-0.000004
H79	H	1.275246	0.452307	0.000050
C80	C	0.616469	0.446435	0.000037
H81	H	0.579948	0.475479	0.000035
H82	H	0.655313	0.458361	0.043691
H83	H	0.655319	0.458352	-0.043627
C84	C	0.474635	-0.044148	-0.000028
H85	H	0.511162	-0.073188	-0.000035
H86	H	0.435773	-0.056075	0.043624
H87	H	0.435804	-0.056070	-0.043694
H88	H	0.628000	-0.052784	-0.000027
H89	H	0.963389	0.343632	0.000015
H90	H	0.996816	0.070627	0.185485
C91	C	1.248688	0.318878	0.825792
H92	H	1.287004	0.356644	0.791041
H93	H	1.214903	0.339293	0.856546
H94	H	1.287834	0.303734	0.856518
C95	C	0.930152	0.769442	-0.000014
H96	H	0.943423	0.725637	-0.000018
H97	H	0.894589	0.768954	0.043638
H98	H	0.894618	0.768946	-0.043680
H99	H	0.420684	0.381495	0.000027
C100	C	0.395515	0.070124	-0.000011
H101	H	0.364774	0.015915	-0.000028
H102	H	0.377500	0.089240	0.043648
H103	H	0.377523	0.089246	-0.043669
C104	C	1.296974	0.601937	0.000041
H105	H	1.348797	0.587986	0.000054
H106	H	1.299999	0.631300	-0.043614
H107	H	1.299964	0.631302	0.043703
H108	H	1.234344	0.661913	-0.079555
H109	H	0.996881	0.070630	0.671575
H110	H	1.230246	0.300751	0.185488
C111	C	1.140092	0.325214	0.417295
H112	H	1.147746	0.364817	0.452050
H113	H	1.194921	0.340379	0.386459
H114	H	1.086154	0.315532	0.386652
C115	C	1.250327	0.809535	-0.092108
H116	H	1.239927	0.854341	-0.085840
H117	H	1.312953	0.819470	-0.076688
H118	H	1.242276	0.794816	-0.143576
C119	C	1.291111	0.895226	0.000008
H120	H	1.341659	0.944852	-0.000001
H121	H	1.295239	0.868361	0.043667
H122	H	1.295253	0.868341	-0.043650
C123	C	0.976796	0.561838	0.092130
H124	H	0.936950	0.579971	0.118255
H125	H	0.939288	0.520443	0.060512
H126	H	1.009960	0.545088	0.127403
C127	C	0.978516	0.052506	0.825785
H128	H	0.940199	0.014737	0.791033
H129	H	1.012314	0.032098	0.856512
H130	H	0.939370	0.067644	0.856537
H131	H	1.263733	1.027743	-0.000015
H132	H	0.960782	0.474415	0.000011
H133	H	1.230258	0.300754	0.328444
C134	C	1.140106	0.325220	0.582773
H135	H	1.138290	0.315703	0.635345
H136	H	1.199683	0.364987	0.569858
H137	H	1.090898	0.340048	0.569871
H138	H	1.230301	0.300758	0.671577
H139	H	1.090626	0.065139	0.428506
C140	C	1.087054	0.046165	0.582715
H141	H	1.079513	0.006593	0.547954
H142	H	1.140922	0.055865	0.613441
H143	H	1.032140	0.030940	0.613467
H144	H	0.996844	0.070631	0.328448
