data_functionalizedCrystal
_audit_creation_method	'MofGen! by Chris Wilmer'
_symmetry_space_group_name_H-M	'P1'
_symmetry_Int_Tables_number	1
_symmetry_cell_setting	triclinic
loop_
_symmetry_equiv_pos_as_xyz
  x,y,z
_cell_length_a	18.101398
_cell_length_b	19.121063
_cell_length_c	19.120904
_cell_angle_alpha	94.741613
_cell_angle_beta	92.417658
_cell_angle_gamma	92.464489
loop_
_atom_site_label
_atom_site_type_symbol
_atom_site_fract_x
_atom_site_fract_y
_atom_site_fract_z
Zn1	Zn	1.100316	-0.297201	-0.409871
Zn2	Zn	1.100224	-0.409848	-0.297222
Zn3	Zn	0.981998	-0.292192	-0.292213
Zn4	Zn	0.970919	-0.414818	-0.414831
O5	O	1.038364	-0.353515	-0.353534
O6	O	1.203935	-0.312161	-0.394949
O7	O	1.089139	-0.390065	-0.198098
O8	O	1.002367	-0.194394	-0.303649
O9	O	1.203867	-0.394922	-0.312186
O10	O	1.089295	-0.198074	-0.390092
O11	O	1.002279	-0.303623	-0.194418
O12	O	0.876897	-0.308442	-0.308458
O13	O	0.983486	-0.403392	-0.512633
O14	O	0.868757	-0.398535	-0.398545
O15	O	1.078553	-0.316979	-0.508989
O16	O	1.078397	-0.508970	-0.316995
O17	O	0.983397	-0.512621	-0.403401
C18	C	0.845957	-0.353485	-0.353496
C19	C	0.763642	-0.353489	-0.353498
C20	C	1.029704	-0.536326	-0.361295
C21	C	1.026066	-0.614534	-0.364639
C22	C	0.464546	-0.353536	-0.353559
C23	C	0.500968	-0.296592	-0.297132
C24	C	0.586590	-0.296728	-0.296908
C25	C	0.612931	-0.353512	-0.353528
C26	C	0.579293	-0.426768	-0.336425
C27	C	0.493680	-0.426448	-0.336036
C28	C	0.493547	-0.337874	-0.427243
C29	C	0.579294	-0.336207	-0.426766
C30	C	0.696792	-0.353503	-0.353513
C31	C	0.380686	-0.353550	-0.353573
C32	C	1.073853	-0.649354	-0.321260
C33	C	1.070436	-0.722840	-0.324408
C34	C	1.019227	-0.761504	-0.370933
C35	C	0.971437	-0.726679	-0.414317
C36	C	0.974859	-0.653195	-0.411171
C37	C	1.006423	-0.983474	-0.382683
C38	C	1.003003	-1.056963	-0.385824
C39	C	1.102003	-1.053119	-0.295916
C40	C	1.105417	-0.979634	-0.292772
C41	C	1.057630	-0.944815	-0.336158
C42	C	1.015731	-0.836618	-0.374151
C43	C	1.061130	-0.869703	-0.332943
C44	C	1.231523	-0.353546	-0.353573
C45	C	1.313836	-0.353559	-0.353589
C46	C	1.029794	-0.361298	-0.537054
C47	C	1.026142	-0.364615	-0.615260
C48	C	1.047077	-0.169990	-0.345759
C49	C	1.050790	-0.091783	-0.342445
C50	C	1.073920	-0.321186	-0.650105
C51	C	1.070479	-0.324300	-0.723587
C52	C	1.019264	-0.370847	-0.762222
C53	C	0.971480	-0.414279	-0.727372
C54	C	0.974918	-0.411161	-0.653891
C55	C	1.006405	-0.382509	-0.984182
C56	C	1.002973	-0.385625	-1.057668
C57	C	1.101971	-0.295644	-1.053877
C58	C	1.105407	-0.292534	-0.980395
C59	C	1.057621	-0.335963	-0.945551
C60	C	1.015747	-0.374033	-0.837333
C61	C	1.061135	-0.332773	-0.870442
C62	C	1.046946	-0.345711	-0.170726
C63	C	1.050751	-0.342195	-0.092513
H64	H	0.482390	-0.241997	-0.307344
H65	H	0.935947	-0.624846	-0.446496
C66	C	0.616939	-0.310378	-0.223063
C67	C	0.670032	-0.255506	-0.181331
C68	C	0.700379	-0.269158	-0.107483
C69	C	0.677632	-0.337682	-0.075366
C70	C	0.624536	-0.392559	-0.117098
C71	C	0.594189	-0.378907	-0.190947
H72	H	0.686873	-0.204776	-0.205105
H73	H	0.739684	-0.228534	-0.076590
H74	H	0.700097	-0.347788	-0.020699
H75	H	0.607695	-0.443289	-0.093324
H76	H	0.554884	-0.419531	-0.221839
C77	C	1.117458	-0.827176	-0.281765
C78	C	1.200905	-0.837459	-0.288011
C79	C	1.257231	-0.794924	-0.236831
C80	C	1.230110	-0.742107	-0.179405
C81	C	1.146660	-0.731822	-0.173158
C82	C	1.090334	-0.774356	-0.224338
H83	H	1.220984	-0.876559	-0.330523
H84	H	1.319006	-0.802538	-0.241456
H85	H	1.271806	-0.710620	-0.141519
H86	H	1.126580	-0.692721	-0.130646
H87	H	1.028558	-0.766742	-0.219712
C88	C	1.154528	-0.247870	-1.092206
C89	C	1.210863	-0.196668	-1.049709
C90	C	1.263421	-0.148890	-1.088037
C91	C	1.259645	-0.152314	-1.168863
C92	C	1.203307	-0.203518	-1.211365
C93	C	1.150749	-0.251296	-1.173037
H94	H	1.213661	-0.194132	-0.989873
H95	H	1.305126	-0.110986	-1.056574
H96	H	1.298551	-0.116945	-1.197236
H97	H	1.200510	-0.206054	-1.271201
H98	H	1.109045	-0.289200	-1.204500
H99	H	1.115550	-0.617879	-0.283371
H100	H	0.609609	-0.242307	-0.307266
H101	H	0.595908	-0.470195	-0.376375
C102	C	0.469081	-0.444887	-0.263392
C103	C	0.417651	-0.510130	-0.257141
C104	C	0.393057	-0.528567	-0.184495
C105	C	0.419891	-0.481761	-0.118100
C106	C	0.471323	-0.416514	-0.124349
C107	C	0.495918	-0.398076	-0.196995
H108	H	0.397784	-0.544782	-0.306293
H109	H	0.354983	-0.576867	-0.179870
H110	H	0.401685	-0.495409	-0.064323
H111	H	0.491190	-0.381861	-0.075197
H112	H	0.533991	-0.349776	-0.201620
H113	H	0.601475	-0.282314	-0.439720
H114	H	0.974035	-0.868106	-0.412031
H115	H	1.109348	-0.751187	-0.289084
H116	H	0.929777	-0.452177	-0.758835
C117	C	0.610601	-0.445624	-0.264589
C118	C	0.666644	-0.394684	-0.221393
C119	C	0.697951	-0.413536	-0.149555
C120	C	0.673214	-0.483328	-0.120914
C121	C	0.617168	-0.534272	-0.164112
C122	C	0.585861	-0.515420	-0.235949
H123	H	0.684959	-0.343016	-0.242594
H124	H	0.739440	-0.375824	-0.117578
H125	H	0.696389	-0.497283	-0.067736
H126	H	0.598853	-0.585940	-0.142910
H127	H	0.544371	-0.553133	-0.267926
C128	C	1.161746	-0.937110	-0.241588
C129	C	1.134627	-0.884302	-0.184154
C130	C	1.190953	-0.841781	-0.132963
C131	C	1.274399	-0.852068	-0.139207
C132	C	1.301522	-0.904879	-0.196643
C133	C	1.245196	-0.947400	-0.247834
H134	H	1.072852	-0.876685	-0.179530
H135	H	1.170874	-0.802687	-0.090445
H136	H	1.316094	-0.820591	-0.101313
H137	H	1.363297	-0.912496	-0.201267
H138	H	1.265275	-0.986494	-0.290352
H139	H	0.469217	-0.470142	-0.375514
C140	C	1.117471	-0.281572	-0.827945
C141	C	1.114762	-0.202010	-0.834651
C142	C	1.171101	-0.150812	-0.792147
C143	C	1.230150	-0.179176	-0.742936
C144	C	1.232862	-0.258742	-0.736228
C145	C	1.176523	-0.309940	-0.778732
H146	H	1.071048	-0.181010	-0.871082
H147	H	1.169093	-0.091911	-0.797113
H148	H	1.271856	-0.141276	-0.711472
H149	H	1.276575	-0.279743	-0.699797
H150	H	1.178531	-0.368841	-0.773766
H151	H	1.115627	-0.283283	-0.618653
C152	C	1.161744	-0.241326	-0.937902
C153	C	1.159026	-0.161766	-0.944617
C154	C	1.215367	-0.110559	-0.902126
C155	C	1.274427	-0.138912	-0.852919
C156	C	1.277148	-0.218476	-0.846202
C157	C	1.220807	-0.269683	-0.888693
H158	H	1.115304	-0.140773	-0.981045
H159	H	1.213352	-0.051660	-0.907099
H160	H	1.316134	-0.101006	-0.821465
H161	H	1.320869	-0.239469	-0.809774
H162	H	1.222821	-0.328582	-0.883720
H163	H	1.109387	-0.288936	-0.751954
C164	C	0.466602	-0.267192	-0.449077
C165	C	0.418314	-0.264833	-0.517026
C166	C	0.391370	-0.194147	-0.538851
C167	C	0.412713	-0.125819	-0.492726
C168	C	0.461004	-0.128175	-0.424772
C169	C	0.487948	-0.198861	-0.402948
H170	H	0.402512	-0.315416	-0.551175
H171	H	0.355621	-0.192404	-0.589155
H172	H	0.392767	-0.073493	-0.508882
H173	H	0.476806	-0.077593	-0.390624
H174	H	0.523696	-0.200605	-0.352643
H175	H	0.469534	-0.379389	-0.469247
H176	H	0.961265	-0.423532	-1.089123
C177	C	0.953833	-0.430286	-0.945875
C178	C	0.869450	-0.424950	-0.955741
C179	C	0.816870	-0.472730	-0.917438
C180	C	0.848673	-0.525846	-0.869269
C181	C	0.933060	-0.531184	-0.859402
C182	C	0.985641	-0.483404	-0.897705
H183	H	0.845904	-0.385629	-0.991400
H184	H	0.754400	-0.468779	-0.924743
H185	H	0.809750	-0.561216	-0.840915
H186	H	0.956607	-0.570505	-0.823743
H187	H	1.048110	-0.487355	-0.890400
C188	C	0.922365	-0.458941	-0.615562
C189	C	0.954197	-0.512044	-0.567395
C190	C	0.901641	-0.559825	-0.529067
C191	C	0.817253	-0.554504	-0.538907
C192	C	0.785417	-0.501399	-0.587077
C193	C	0.837973	-0.453618	-0.625404
H194	H	1.016669	-0.515985	-0.560109
H195	H	0.925208	-0.599137	-0.493409
H196	H	0.778348	-0.589875	-0.510535
H197	H	0.722945	-0.497458	-0.594363
H198	H	0.814406	-0.414306	-0.661062
H199	H	0.974051	-0.411936	-0.868798
H200	H	0.596977	-0.374913	-0.470805
C201	C	0.474557	-0.310055	-0.223709
C202	C	0.420113	-0.372478	-0.214812
C203	C	0.393702	-0.385944	-0.141390
C204	C	0.421734	-0.336987	-0.076865
C205	C	0.476182	-0.274560	-0.085759
C206	C	0.502593	-0.261094	-0.159182
H207	H	0.399359	-0.408722	-0.262580
H208	H	0.353396	-0.432156	-0.134806
H209	H	0.402183	-0.346955	-0.022513
H210	H	0.496936	-0.238316	-0.037992
H211	H	0.542899	-0.214881	-0.165766
H212	H	1.140909	-1.081476	-0.260594
C213	C	0.946675	-1.099500	-0.437007
C214	C	0.863229	-1.089216	-0.430764
C215	C	0.806904	-1.131755	-0.481942
C216	C	0.834025	-1.184577	-0.539362
C217	C	0.917475	-1.194864	-0.545607
C218	C	0.973800	-1.152325	-0.494429
H219	H	0.843148	-1.050111	-0.388257
H220	H	0.745128	-1.124140	-0.477319
H221	H	0.792330	-1.216067	-0.577246
H222	H	0.937556	-1.233969	-0.588114
H223	H	1.035576	-1.159940	-0.499052
C224	C	0.953856	-0.945185	-0.430409
C225	C	0.869471	-0.955106	-0.425025
C226	C	0.816901	-0.916815	-0.472756
C227	C	0.848718	-0.868604	-0.525871
C228	C	0.933107	-0.858682	-0.531257
C229	C	0.985676	-0.896972	-0.483526
H230	H	0.845914	-0.990796	-0.385704
H231	H	0.754430	-0.924161	-0.468768
H232	H	0.809803	-0.840260	-0.561204
H233	H	0.956663	-0.822991	-0.570578
H234	H	1.048147	-0.889627	-0.487514
H235	H	0.929745	-0.758165	-0.452202
