data_functionalizedCrystal
_audit_creation_method	'MofGen! by Chris Wilmer'
_symmetry_space_group_name_H-M	'P1'
_symmetry_Int_Tables_number	1
_symmetry_cell_setting	triclinic
loop_
_symmetry_equiv_pos_as_xyz
  x,y,z
_cell_length_a	9.198806
_cell_length_b	9.065218
_cell_length_c	9.065218
_cell_angle_alpha	85.015885
_cell_angle_beta	90.001336
_cell_angle_gamma	90.004029
loop_
_atom_site_label
_atom_site_type_symbol
_atom_site_fract_x
_atom_site_fract_y
_atom_site_fract_z
O1	O	-0.120890	-1.960401	-0.216354
O2	O	0.379110	-1.460401	0.283646
O3	O	-0.120891	-1.531116	-0.234100
O4	O	0.379109	-1.031116	0.265900
O5	O	-0.120887	-1.754631	-0.010584
O6	O	0.379113	-1.254631	0.489416
O7	O	-0.120893	-1.736885	-0.439869
O8	O	0.379107	-1.236885	0.060131
O9	O	0.120898	-1.754614	-0.010584
O10	O	0.620898	-1.254614	0.489416
O11	O	0.120894	-1.531098	-0.234099
O12	O	0.620894	-1.031098	0.265901
O13	O	0.120895	-1.960383	-0.216353
O14	O	0.620895	-1.460383	0.283647
Cu15	Cu	0.142971	-1.745739	-0.225226
Cu16	Cu	0.642971	-1.245739	0.274774
Cu17	Cu	-0.142967	-1.745760	-0.225227
Cu18	Cu	0.357033	-1.245760	0.274773
O19	O	0.120892	-1.736867	-0.439868
O20	O	0.620892	-1.236867	0.060132
C21	C	0.000001	-1.476120	-0.232394
C22	C	0.500001	-0.976120	0.267606
C23	C	0.000000	-1.312277	-0.227294
C24	C	0.500000	-0.812277	0.272706
N25	N	0.344085	-1.745735	-0.225225
N26	N	0.844085	-1.245735	0.274775
N27	N	-0.344081	-1.745776	-0.225217
N28	N	0.155919	-1.245776	0.274783
C29	C	0.416284	-1.839580	-0.130961
C30	C	0.916284	-1.339580	0.369039
C31	C	0.583696	-1.839603	-0.130956
C32	C	1.083696	-1.339603	0.369044
C33	C	0.000003	-1.752917	0.044403
C34	C	0.500003	-1.252917	0.544403
C35	C	-0.000004	-1.747817	0.208245
C36	C	0.499996	-1.247817	0.708245
C37	C	-0.000000	-2.015378	-0.218059
C38	C	0.500000	-1.515378	0.281941
C39	C	-0.000009	-2.179221	-0.223158
C40	C	0.499991	-1.679221	0.276842
C41	C	-0.000002	-1.738582	-0.494855
C42	C	0.499998	-1.238582	0.005145
C43	C	-0.000004	-1.743681	-0.658698
C44	C	0.499996	-1.243681	-0.158698
H45	H	0.354159	-1.919904	-0.050256
H46	H	0.854159	-1.419904	0.449744
Br47	Br	0.687172	-1.973537	0.003550
Br48	Br	1.187172	-1.473537	0.503550
Br49	Br	0.552453	-1.611861	-0.359751
Br50	Br	1.052453	-1.111861	0.140249
H51	H	0.406212	-1.665401	-0.305918
H52	H	0.906212	-1.165401	0.194082
