data_functionalizedCrystal
_audit_creation_method	'MofGen! by Chris Wilmer'
_symmetry_space_group_name_H-M	'P1'
_symmetry_Int_Tables_number	1
_symmetry_cell_setting	triclinic
loop_
_symmetry_equiv_pos_as_xyz
  x,y,z
_cell_length_a	14.971482
_cell_length_b	14.971486
_cell_length_c	14.048226
_cell_angle_alpha	89.993360
_cell_angle_beta	89.994098
_cell_angle_gamma	83.613368
loop_
_atom_site_label
_atom_site_type_symbol
_atom_site_fract_x
_atom_site_fract_y
_atom_site_fract_z
O1	O	1.186949	0.116549	-0.079149
O2	O	1.686949	0.616549	0.420851
O3	O	0.926548	0.130511	-0.079153
O4	O	1.426548	0.630511	0.420847
O5	O	1.063728	-0.006670	-0.079144
O6	O	1.563728	0.493330	0.420856
O7	O	1.049769	0.253730	-0.079158
O8	O	1.549769	0.753730	0.420842
O9	O	1.063712	-0.006678	0.079177
O10	O	1.563712	0.493322	0.579177
O11	O	0.926532	0.130503	0.079168
O12	O	1.426532	0.630503	0.579168
O13	O	1.186933	0.116541	0.079173
O14	O	1.686933	0.616541	0.579173
Zn15	Zn	1.056730	0.123521	0.104307
Zn16	Zn	1.556730	0.623521	0.604307
Zn17	Zn	1.056751	0.123531	-0.104288
Zn18	Zn	1.556751	0.623531	0.395712
O19	O	1.049753	0.253722	0.079163
O20	O	1.549753	0.753722	0.579163
C21	C	0.893215	0.129883	0.000007
C22	C	1.393215	0.629883	0.500007
C23	C	0.793918	0.128014	0.000005
C24	C	1.293918	0.628014	0.500005
C25	C	0.747265	0.127129	0.086307
C26	C	1.247265	0.627129	0.586307
C27	C	0.653966	0.125358	0.086308
C28	C	1.153966	0.625358	0.586308
C29	C	0.607322	0.124479	0.000006
C30	C	1.107322	0.624479	0.500006
C31	C	0.653983	0.125361	-0.086302
C32	C	1.153983	0.625361	0.413698
C33	C	0.747280	0.127125	-0.086303
C34	C	1.247280	0.627125	0.413697
C35	C	0.459521	0.121686	-0.086296
C36	C	0.959521	0.621686	0.413704
C37	C	0.366216	0.119923	-0.086296
C38	C	0.866216	0.619923	0.413704
C39	C	0.366207	0.119918	0.086315
C40	C	0.866207	0.619918	0.586315
C41	C	0.459504	0.121683	0.086315
C42	C	0.959504	0.621683	0.586315
C43	C	0.506158	0.122567	0.000005
C44	C	1.006158	0.622567	0.500005
C45	C	1.063096	-0.039999	0.000016
C46	C	1.563096	0.460001	0.500016
C47	C	1.061225	-0.139296	0.000015
C48	C	1.561225	0.360704	0.500015
C49	C	1.141814	-0.196522	0.000017
C50	C	1.641814	0.303478	0.500017
C51	C	1.140051	-0.289822	0.000008
C52	C	1.640051	0.210178	0.500008
C53	C	1.057698	-0.325893	0.000003
C54	C	1.557698	0.174107	0.500003
C55	C	0.977102	-0.268659	-0.000002
C56	C	1.477102	0.231341	0.499998
C57	C	0.978866	-0.175362	0.000001
C58	C	1.478866	0.324638	0.500001
C59	C	0.973431	-0.463122	-0.000006
C60	C	1.473431	0.036878	0.499994
C61	C	0.971667	-0.556426	-0.000007
C62	C	1.471667	-0.056426	0.499993
C63	C	1.134616	-0.577582	0.000001
C64	C	1.634616	-0.077582	0.500001
C65	C	1.136380	-0.484284	0.000004
C66	C	1.636380	0.015716	0.500004
C67	C	1.055784	-0.427057	0.000001
C68	C	1.555784	0.072943	0.500001
C69	C	1.220266	0.117168	0.000010
C70	C	1.720266	0.617168	0.500010
C71	C	1.319563	0.119038	0.000006
C72	C	1.819563	0.619038	0.500006
C73	C	1.050385	0.287051	0.000001
C74	C	1.550385	0.787051	0.500001
C75	C	1.052256	0.386348	-0.000005
C76	C	1.552256	0.886348	0.499995
N77	N	1.056721	0.123513	0.246668
N78	N	1.556721	0.623513	0.746668
N79	N	1.056767	0.123532	-0.246649
N80	N	1.556767	0.623532	0.253351
C81	C	1.117484	0.062794	0.296490
C82	C	1.617484	0.562794	0.796490
C83	C	1.117490	0.062793	0.396148
C84	C	1.617490	0.562793	0.896148
C85	C	1.056737	0.123517	0.445981
C86	C	1.556737	0.623517	0.945981
C87	C	0.995968	0.184238	0.396152
C88	C	1.495968	0.684238	0.896152
C89	C	0.995959	0.184234	0.296496
C90	C	1.495959	0.684234	0.796496
C91	C	0.995994	0.184245	0.603866
C92	C	1.495994	0.684245	1.103866
C93	C	0.996005	0.184251	0.703529
C94	C	1.496005	0.684251	1.203529
C95	C	1.117525	0.062804	0.703518
C96	C	1.617525	0.562804	1.203518
C97	C	1.117515	0.062800	0.603862
C98	C	1.617515	0.562800	1.103862
C99	C	1.056748	0.123523	0.554040
C100	C	1.556748	0.623523	1.054040
H101	H	0.497503	0.122406	-0.156578
H102	H	0.997503	0.622406	0.343422
C103	C	0.890212	-0.112412	0.000001
C104	C	1.390212	0.387588	0.500001
N105	N	0.823434	-0.065000	-0.000002
N106	N	1.323434	0.435000	0.499998
H107	H	0.946532	0.233697	0.744099
H108	H	1.446532	0.733697	1.244099
C109	C	0.884771	-0.400173	-0.000004
C110	C	1.384771	0.099827	0.499996
N111	N	0.817993	-0.352761	0.000003
N112	N	1.317993	0.147239	0.500003
H113	H	0.946507	0.233689	0.563304
H114	H	1.446507	0.733689	1.063304
H115	H	0.946498	0.233677	0.436733
H116	H	1.446498	0.733677	0.936733
C117	C	0.602671	0.124391	-0.181236
C118	C	1.102671	0.624391	0.318764
N119	N	0.564024	0.123663	-0.252741
N120	N	1.064024	0.623663	0.247259
H121	H	0.785264	0.127847	-0.156579
H122	H	1.285264	0.627847	0.343421
H123	H	0.946479	0.233676	0.255932
H124	H	1.446479	0.733676	0.755932
H125	H	0.785234	0.127852	0.156584
H126	H	1.285234	0.627852	0.656584
H127	H	1.208876	-0.167161	0.000027
H128	H	1.708876	0.332839	0.500027
C129	C	1.184367	-0.003995	0.758324
C130	C	1.684367	0.496005	1.258324
N131	N	1.234712	-0.054305	0.799608
N132	N	1.734712	0.445695	1.299608
C133	C	1.184317	-0.004008	0.241682
C134	C	1.684317	0.495992	0.741682
N135	N	1.234655	-0.054328	0.200403
N136	N	1.734655	0.445672	0.700403
C137	C	1.184312	-0.004024	0.450947
C138	C	1.684312	0.495976	0.950947
N139	N	1.234637	-0.054362	0.492222
N140	N	1.734637	0.445638	0.992222
H141	H	0.615987	0.124623	0.156584
H142	H	1.115987	0.624623	0.656584
C143	C	0.510811	0.122651	0.181251
C144	C	1.010811	0.622651	0.681251
N145	N	0.549455	0.123377	0.252759
N146	N	1.049455	0.623377	0.752759
C147	C	0.314886	0.118940	0.181256
C148	C	0.814886	0.618940	0.681256
N149	N	0.276228	0.118205	0.252763
N150	N	0.776228	0.618205	0.752763
C151	C	0.881074	-0.596102	-0.000024
C152	C	1.381074	-0.096102	0.499976
N153	N	0.812838	-0.625986	-0.000041
N154	N	1.312838	-0.125986	0.499959
H155	H	1.205675	-0.336413	0.000012
H156	H	1.705675	0.163587	0.500012
H157	H	0.910049	-0.298036	-0.000012
H158	H	1.410049	0.201964	0.499988
C159	C	1.226973	-0.444608	0.000014
C160	C	1.726973	0.055392	0.500014
N161	N	1.295209	-0.414725	0.000019
N162	N	1.795209	0.085275	0.500019
C163	C	0.314910	0.118951	-0.181233
C164	C	0.814910	0.618951	0.318767
N165	N	0.276267	0.118219	-0.252740
N166	N	0.776267	0.618219	0.247260
H167	H	1.166989	0.013359	0.563287
H168	H	1.666989	0.513359	1.063287
C169	C	1.223273	-0.640534	-0.000002
C170	C	1.723273	-0.140534	0.499998
N171	N	1.290046	-0.687953	-0.000003
N172	N	1.790046	-0.187953	0.499997
