data_functionalizedCrystal
_audit_creation_method	'MofGen! by Chris Wilmer'
_symmetry_space_group_name_H-M	'P1'
_symmetry_Int_Tables_number	1
_symmetry_cell_setting	triclinic
loop_
_symmetry_equiv_pos_as_xyz
  x,y,z
_cell_length_a	12.759401
_cell_length_b	16.120484
_cell_length_c	12.759393
_cell_angle_alpha	92.864008
_cell_angle_beta	89.979062
_cell_angle_gamma	92.926992
loop_
_atom_site_label
_atom_site_type_symbol
_atom_site_fract_x
_atom_site_fract_y
_atom_site_fract_z
Zn1	Zn	1.584985	-0.331832	-0.615183
Zn2	Zn	2.084985	0.168168	-0.115183
Zn3	Zn	1.575933	-0.471268	-0.448395
Zn4	Zn	2.075933	0.028732	0.051605
Zn5	Zn	1.409280	-0.331877	-0.439521
Zn6	Zn	1.909280	0.168123	0.060479
Zn7	Zn	1.400336	-0.471209	-0.624029
Zn8	Zn	1.900336	0.028791	-0.124029
O9	O	1.492634	-0.401546	-0.531782
O10	O	1.992634	0.098454	-0.031782
O11	O	1.730804	-0.350334	-0.593070
O12	O	2.230804	0.149666	-0.093070
O13	O	1.553781	-0.452820	-0.300200
O14	O	2.053781	0.047180	0.199800
O15	O	1.440119	-0.215205	-0.455406
O16	O	1.940119	0.284795	0.044594
O17	O	1.724154	-0.452777	-0.470532
O18	O	2.224154	0.047223	0.029468
O19	O	1.569208	-0.215173	-0.584465
O20	O	2.069208	0.284827	-0.084465
O21	O	1.431342	-0.350410	-0.293680
O22	O	1.931342	0.149590	0.206320
O23	O	1.261073	-0.350354	-0.463984
O24	O	1.761073	0.149646	0.036016
O25	O	1.424875	-0.452678	-0.769874
O26	O	1.924875	0.047322	-0.269874
O27	O	1.254502	-0.452721	-0.599541
O28	O	1.754502	0.047279	-0.099541
O29	O	1.560535	-0.350278	-0.763375
O30	O	2.060535	0.149722	-0.263375
O31	O	1.545108	-0.587925	-0.479110
O32	O	2.045108	-0.087925	0.020890
O33	O	1.416098	-0.587883	-0.608147
O34	O	1.916098	-0.087883	-0.108147
C35	C	1.219667	-0.401536	-0.531760
C36	C	1.719667	0.098464	-0.031760
C37	C	1.102889	-0.401552	-0.531777
C38	C	1.602889	0.098448	-0.031777
C39	C	1.044628	-0.454936	-0.602261
C40	C	1.544628	0.045064	-0.102261
C41	C	0.934904	-0.454939	-0.602282
C42	C	1.434904	0.045061	-0.102282
C43	C	0.941712	-0.348172	-0.461326
C44	C	1.441712	0.151828	0.038674
C45	C	1.051434	-0.348166	-0.461311
C46	C	1.551434	0.151834	0.038689
C47	C	1.478679	-0.618154	-0.545574
C48	C	1.978679	-0.118154	-0.045574
C49	C	1.472805	-0.710820	-0.551509
C50	C	1.972805	-0.210820	-0.051509
C51	C	1.462088	-0.880481	-0.562368
C52	C	1.962088	-0.380481	-0.062368
C53	C	1.523367	-0.921772	-0.501213
C54	C	2.023367	-0.421772	-0.001213
C55	C	1.517404	-1.016177	-0.507255
C56	C	2.017404	-0.516177	-0.007255
C57	C	1.468050	-0.786067	-0.556327
C58	C	1.968050	-0.286067	-0.056327
C59	C	1.766666	-0.401557	-0.531804
C60	C	2.266666	0.098443	-0.031804
C61	C	1.883442	-0.401562	-0.531814
C62	C	2.383442	0.098438	-0.031814
C63	C	1.492717	-0.401466	-0.805810
C64	C	1.992717	0.098534	-0.305810
C65	C	1.492753	-0.401432	-0.922585
C66	C	1.992753	0.098568	-0.422585
C67	C	1.506671	-0.184093	-0.517959
C68	C	2.006671	0.315907	-0.017959
C69	C	1.512653	-0.091427	-0.512068
C70	C	2.012653	0.408573	-0.012068
C71	C	1.563397	-0.348104	-0.974064
C72	C	2.063397	0.151896	-0.474064
C73	C	1.563417	-0.348068	-1.083786
C74	C	2.063417	0.151932	-0.583786
C75	C	1.422146	-0.454696	-1.090540
C76	C	1.922146	0.045304	-0.590540
C77	C	1.422122	-0.454727	-0.980820
C78	C	1.922122	0.045273	-0.480820
C79	C	1.492614	-0.401566	-0.258816
C80	C	1.992614	0.098434	0.241184
C81	C	1.492797	-0.401365	-0.142027
C82	C	1.992797	0.098635	0.357973
H83	H	1.098873	-0.304689	-0.403914
H84	H	1.598873	0.195311	0.096086
H85	H	0.899804	-0.304708	-0.403953
H86	H	1.399804	0.195292	0.096047
O87	O	1.394269	-0.922848	-0.630381
O88	O	1.894269	-0.422848	-0.130381
C89	C	1.418463	-0.901551	-0.733781
C90	C	1.918463	-0.401551	-0.233781
H91	H	1.503881	-0.877478	-0.737662
H92	H	2.003881	-0.377478	-0.237662
H93	H	1.405838	-0.958841	-0.789264
H94	H	1.905838	-0.458841	-0.289264
H95	H	1.365237	-0.851115	-0.758030
H96	H	1.865237	-0.351115	-0.258030
H97	H	1.364587	-0.498152	-0.938905
H98	H	1.864587	0.001848	-0.438905
O99	O	1.631894	-0.296210	-0.917534
O100	O	2.131894	0.203790	-0.417534
C101	C	1.614315	-0.213112	-0.939085
C102	C	2.114315	0.286888	-0.439085
H103	H	1.530661	-0.208894	-0.968962
H104	H	2.030661	0.291106	-0.468962
H105	H	1.626009	-0.171942	-0.864315
H106	H	2.126009	0.328058	-0.364315
H107	H	1.672060	-0.191305	-1.001400
H108	H	2.172060	0.308695	-0.501400
O109	O	1.631896	-0.296175	-1.133830
O110	O	2.131896	0.203825	-0.633830
C111	C	1.575572	-0.242315	-1.193877
C112	C	2.075572	0.257685	-0.693877
H113	H	1.493150	-0.237174	-1.160470
H114	H	1.993150	0.262826	-0.660470
H115	H	1.617713	-0.178157	-1.191042
H116	H	2.117713	0.321843	-0.691042
H117	H	1.570307	-0.268061	-1.278673
H118	H	2.070307	0.231939	-0.778673
O119	O	1.591202	-0.879238	-0.433355
O120	O	2.091202	-0.379238	0.066645
C121	C	1.582138	-0.793082	-0.442359
C122	C	2.082138	-0.293082	0.057641
H123	H	1.501772	-0.781332	-0.475970
H124	H	2.001772	-0.281332	0.024030
H125	H	1.591343	-0.759964	-0.361589
H126	H	2.091343	-0.259964	0.138411
H127	H	1.645969	-0.768282	-0.496797
H128	H	2.145969	-0.268282	0.003203
O129	O	1.353689	-0.506556	-1.147166
O130	O	1.853689	-0.006556	-0.647166
C131	C	1.410041	-0.560375	-1.214082
C132	C	1.910041	-0.060375	-0.714082
H133	H	1.492447	-0.565539	-1.181356
H134	H	1.992447	-0.065539	-0.681356
H135	H	1.367899	-0.624532	-1.219399
H136	H	1.867899	-0.124532	-0.719399
H137	H	1.415346	-0.534575	-1.295599
H138	H	1.915346	-0.034575	-0.795599
O139	O	1.094572	-0.506698	-0.670862
O140	O	1.594572	-0.006698	-0.170862
C141	C	1.068957	-0.488588	-0.774459
C142	C	1.568957	0.011412	-0.274459
H143	H	1.043087	-0.421992	-0.775661
H144	H	1.543087	0.078008	-0.275661
H145	H	1.140674	-0.495813	-0.826801
H146	H	1.640674	0.004187	-0.326801
H147	H	1.002401	-0.533314	-0.804687
H148	H	1.502401	-0.033314	-0.304687
O149	O	0.878270	-0.506679	-0.670853
O150	O	1.378270	-0.006679	-0.170853
C151	C	0.817872	-0.459285	-0.735789
C152	C	1.317872	0.040715	-0.235789
H153	H	0.855171	-0.393628	-0.738233
H154	H	1.355171	0.106372	-0.238233
H155	H	0.814725	-0.489518	-0.818503
H156	H	1.314725	0.010482	-0.318503
H157	H	0.734885	-0.456386	-0.703142
H158	H	1.234885	0.043614	-0.203142
