data_functionalizedCrystal
_audit_creation_method	'MofGen! by Chris Wilmer'
_symmetry_space_group_name_H-M	'P1'
_symmetry_Int_Tables_number	1
_symmetry_cell_setting	triclinic
loop_
_symmetry_equiv_pos_as_xyz
  x,y,z
_cell_length_a	17.699077
_cell_length_b	11.792241
_cell_length_c	16.176319
_cell_angle_alpha	89.993071
_cell_angle_beta	89.993140
_cell_angle_gamma	83.736996
loop_
_atom_site_label
_atom_site_type_symbol
_atom_site_fract_x
_atom_site_fract_y
_atom_site_fract_z
O1	O	1.004846	0.143495	-0.068736
O2	O	1.504846	0.643495	0.431264
O3	O	0.784567	0.162175	-0.068740
O4	O	1.284567	0.662175	0.431260
O5	O	0.900052	-0.012400	-0.068732
O6	O	1.400052	0.487600	0.431268
O7	O	0.889361	0.318070	-0.068744
O8	O	1.389361	0.818070	0.431256
O9	O	0.900036	-0.012411	0.068761
O10	O	1.400036	0.487589	0.568761
O11	O	0.784551	0.162164	0.068753
O12	O	1.284551	0.662164	0.568753
O13	O	1.004830	0.143484	0.068757
O14	O	1.504830	0.643484	0.568757
Cu15	Cu	0.894689	0.152823	0.081309
Cu16	Cu	1.394689	0.652823	0.581309
Cu17	Cu	0.894708	0.152836	-0.081292
Cu18	Cu	1.394708	0.652836	0.418708
O19	O	0.889345	0.318058	0.068749
O20	O	1.389345	0.818058	0.568749
C21	C	0.756358	0.161501	0.000006
C22	C	1.256358	0.661501	0.500006
C23	C	0.672329	0.159497	0.000005
C24	C	1.172329	0.659497	0.500005
C25	C	0.632848	0.158546	0.074953
C26	C	1.132848	0.658546	0.574953
C27	C	0.553895	0.156644	0.074954
C28	C	1.053895	0.656644	0.574954
C29	C	0.514425	0.155701	0.000006
C30	C	1.014425	0.655701	0.500006
C31	C	0.553912	0.156649	-0.074949
C32	C	1.053912	0.656649	0.425051
C33	C	0.632864	0.158542	-0.074949
C34	C	1.132864	0.658542	0.425051
C35	C	0.235508	0.149011	-0.074950
C36	C	0.735508	0.649011	0.425050
C37	C	0.156550	0.147121	-0.074944
C38	C	0.656550	0.647121	0.425056
C39	C	0.156540	0.147113	0.074953
C40	C	0.656540	0.647113	0.574953
C41	C	0.235491	0.149006	0.074953
C42	C	0.735491	0.649006	0.574953
C43	C	0.274972	0.149948	-0.000001
C44	C	0.774972	0.649948	0.499999
C45	C	0.360582	0.152007	-0.000001
C46	C	0.860582	0.652007	0.499999
C47	C	0.428816	0.153650	0.000005
C48	C	0.928816	0.653650	0.500005
C49	C	0.899373	-0.054688	0.000014
C50	C	1.399373	0.445312	0.500014
C51	C	0.897363	-0.180678	0.000013
C52	C	1.397363	0.319322	0.500013
C53	C	0.893666	-0.411346	-0.000000
C54	C	1.393666	0.088654	0.500000
C55	C	0.895720	-0.282985	0.000007
C56	C	1.395720	0.217015	0.500007
C57	C	1.033039	0.144157	0.000009
C58	C	1.533039	0.644157	0.500009
C59	C	1.117068	0.146162	0.000005
C60	C	1.617068	0.646162	0.500005
C61	C	0.890025	0.360347	0.000001
C62	C	1.390025	0.860347	0.500001
C63	C	0.892035	0.486336	-0.000003
C64	C	1.392035	0.986336	0.499997
N65	N	0.894681	0.152813	0.195675
N66	N	1.394681	0.652813	0.695675
N67	N	0.894722	0.152837	-0.195657
N68	N	1.394722	0.652837	0.304343
C69	C	0.945834	0.075542	0.238942
C70	C	1.445834	0.575542	0.738942
C71	C	0.945838	0.075541	0.325489
C72	C	1.445838	0.575541	0.825489
C73	C	0.894692	0.152817	0.368767
C74	C	1.394692	0.652817	0.868767
C75	C	0.843534	0.230091	0.325494
C76	C	1.343534	0.730091	0.825494
C77	C	0.843527	0.230085	0.238948
C78	C	1.343527	0.730085	0.738948
C79	C	0.843560	0.230112	0.674522
C80	C	1.343560	0.730112	1.174522
C81	C	0.843572	0.230113	0.761073
C82	C	1.343572	0.730113	1.261073
C83	C	0.945871	0.075568	0.761063
C84	C	1.445871	0.575568	1.261063
C85	C	0.945864	0.075563	0.674518
C86	C	1.445864	0.575563	1.174518
C87	C	0.894703	0.152832	0.631252
C88	C	1.394703	0.652832	1.131252
C89	C	0.894699	0.152831	0.537407
C90	C	1.394699	0.652831	1.037407
C91	C	0.894700	0.152824	0.462610
C92	C	1.394700	0.652824	0.962610
H93	H	0.124415	0.146352	-0.135980
H94	H	0.624415	0.646352	0.364020
C95	C	1.001227	-0.008409	0.627382
C96	C	1.501227	0.491591	1.127382
C97	C	0.990224	0.008055	0.542328
C98	C	1.490224	0.508055	1.042328
C99	C	1.041156	-0.069362	0.498883
C100	C	1.541156	0.430638	0.998883
H101	H	0.992611	-0.084107	0.641559
H102	H	1.492611	0.415893	1.141559
H103	H	1.051860	0.003621	0.641421
H104	H	1.551860	0.503621	1.141421
H105	H	0.939603	-0.003985	0.528295
H106	H	1.439603	0.496015	1.028295
H107	H	0.998846	0.083736	0.528127
H108	H	1.498846	0.583736	1.028127
H109	H	1.091790	-0.057332	0.512922
H110	H	1.591790	0.442668	1.012922
H111	H	1.032536	-0.145055	0.513066
H112	H	1.532536	0.354945	1.013066
H113	H	1.033703	-0.058195	0.441170
H114	H	1.533703	0.441805	0.941170
H115	H	0.267624	0.149780	0.135984
H116	H	0.767624	0.649780	0.635984
C117	C	0.278505	0.149996	-0.156240
C118	C	0.778505	0.649996	0.343760
C119	C	0.356099	0.151825	-0.140207
C120	C	0.856099	0.651825	0.359793
C121	C	0.395736	0.152722	-0.215074
C122	C	0.895736	0.652722	0.284926
H123	H	0.260156	0.215835	-0.187094
H124	H	0.760156	0.715835	0.312906
H125	H	0.271116	0.083507	-0.187042
H126	H	0.771116	0.583507	0.312958
H127	H	0.363484	0.218307	-0.109417
H128	H	0.863484	0.718307	0.390583
H129	H	0.374471	0.085992	-0.109364
H130	H	0.874471	0.585992	0.390636
H131	H	0.388347	0.086233	-0.245877
H132	H	0.888347	0.586233	0.254123
H133	H	0.377381	0.218561	-0.245923
H134	H	0.877381	0.718561	0.254077
H135	H	0.448389	0.153952	-0.204206
H136	H	0.948389	0.653952	0.295794
H137	H	0.521769	0.155873	-0.135973
H138	H	1.021769	0.655873	0.364027
C139	C	0.788088	0.313941	0.372627
C140	C	1.288088	0.813941	0.872627
C141	C	0.799056	0.297432	0.457682
C142	C	1.299056	0.797432	0.957682
C143	C	0.748001	0.374669	0.501125
C144	C	1.248001	0.874669	1.001125
H145	H	0.737493	0.301786	0.358559
H146	H	1.237493	0.801786	0.858559
H147	H	0.796621	0.389697	0.358478
H148	H	1.296621	0.889697	0.858478
H149	H	0.790517	0.221695	0.471826
H150	H	1.290517	0.721695	0.971826
H151	H	0.849641	0.309596	0.471775
H152	H	1.349641	0.809596	0.971775
H153	H	0.756534	0.450424	0.486976
H154	H	1.256534	0.950424	0.986976
H155	H	0.697409	0.362507	0.487050
H156	H	1.197409	0.862507	0.987050
H157	H	0.755440	0.363485	0.558839
H158	H	1.255440	0.863485	1.058839
C159	C	1.001277	-0.008568	0.192025
C160	C	1.501277	0.491432	0.692025
C161	C	0.988517	-0.120056	0.213105
C162	C	1.488517	0.379944	0.713105
C163	C	1.039569	-0.197585	0.169906
C164	C	1.539569	0.302415	0.669906
H165	H	1.051871	0.003499	0.206167
H166	H	1.551871	0.503499	0.706167
H167	H	0.993959	0.002389	0.134272
H168	H	1.493959	0.502389	0.634272
H169	H	0.995842	-0.131008	0.270845
H170	H	1.495842	0.368992	0.770845
H171	H	0.937934	-0.132159	0.198960
H172	H	1.437934	0.367841	0.698960
H173	H	1.032251	-0.186628	0.112152
H174	H	1.532251	0.313372	0.612152
H175	H	1.090160	-0.185507	0.184051
H176	H	1.590160	0.314493	0.684051
H177	H	1.030914	-0.273237	0.184197
H178	H	1.530914	0.226763	0.684197
C179	C	0.675590	0.159638	-0.156409
C180	C	1.175590	0.659638	0.343591
C181	C	0.624124	0.158441	-0.222046
C182	C	1.124124	0.658441	0.277954
C183	C	0.663454	0.159462	-0.297101
C184	C	1.163454	0.659462	0.202899
H185	H	0.711895	0.094237	-0.159641
H186	H	1.211895	0.594237	0.340359
H187	H	0.700867	0.226563	-0.159570
H188	H	1.200867	0.726563	0.340430
H189	H	0.598860	0.091523	-0.218887
H190	H	1.098860	0.591523	0.281113
H191	H	0.587818	0.223837	-0.218841
H192	H	1.087818	0.723837	0.281159
H193	H	0.688731	0.226387	-0.300262
H194	H	1.188731	0.726387	0.199738
H195	H	0.699758	0.094059	-0.300325
H196	H	1.199758	0.594059	0.199675
H197	H	0.628540	0.158660	-0.341645
H198	H	1.128540	0.658660	0.158355
H199	H	0.987489	0.012621	0.360718
H200	H	1.487489	0.512621	0.860718
H201	H	0.987526	0.012647	0.796300
H202	H	1.487526	0.512647	1.296300
C203	C	0.787949	0.314060	0.807913
C204	C	1.287949	0.814060	1.307913
C205	C	0.743128	0.381706	0.751500
C206	C	1.243128	0.881706	1.251500
C207	C	0.691876	0.459034	0.794619
C208	C	1.191876	0.959034	1.294619
H209	H	0.815278	0.361369	0.841665
H210	H	1.315278	0.861369	1.341665
H211	H	0.756247	0.273312	0.841670
H212	H	1.256247	0.773312	1.341670
H213	H	0.774826	0.422452	0.717757
H214	H	1.274826	0.922452	1.217757
H215	H	0.715783	0.334429	0.717747
H216	H	1.215783	0.834429	1.217747
H217	H	0.660173	0.418286	0.828376
H218	H	1.160173	0.918286	1.328376
H219	H	0.719211	0.506335	0.828369
H220	H	1.219211	1.006335	1.328369
H221	H	0.661454	0.504935	0.756349
H222	H	1.161454	1.004935	1.256349
H223	H	0.801905	0.293029	0.639301
H224	H	1.301905	0.793029	1.139301
C225	C	0.787958	0.314110	0.192118
C226	C	1.287958	0.814110	0.692118
C227	C	0.743182	0.381808	0.248540
C228	C	1.243182	0.881808	0.748540
C229	C	0.691987	0.459233	0.205431
C230	C	1.191987	0.959233	0.705431
H231	H	0.756214	0.273472	0.158366
H232	H	1.256214	0.773472	0.658366
H233	H	0.815353	0.361366	0.158361
H234	H	1.315353	0.861366	0.658361
H235	H	0.715789	0.334559	0.282282
H236	H	1.215789	0.834559	0.782282
H237	H	0.774906	0.422472	0.282293
H238	H	1.274906	0.922472	0.782293
H239	H	0.719382	0.506488	0.171675
H240	H	1.219382	1.006488	0.671675
H241	H	0.660248	0.418585	0.171681
H242	H	1.160248	0.918585	0.671681
H243	H	0.661605	0.505182	0.243707
H244	H	1.161605	1.005182	0.743707
H245	H	0.521755	0.155851	0.135985
H246	H	1.021755	0.655851	0.635985
C247	C	0.675567	0.159506	0.156415
C248	C	1.175567	0.659506	0.656415
C249	C	0.624091	0.158233	0.222051
C250	C	1.124091	0.658233	0.722051
C251	C	0.663415	0.159097	0.297107
C252	C	1.163415	0.659097	0.797107
H253	H	0.700868	0.226385	0.159649
H254	H	1.200868	0.726385	0.659649
H255	H	0.711855	0.094057	0.159576
H256	H	1.211855	0.594057	0.659576
H257	H	0.587817	0.223676	0.218891
H258	H	1.087817	0.723676	0.718891
H259	H	0.598789	0.091360	0.218844
H260	H	1.098789	0.591360	0.718844
H261	H	0.699703	0.093648	0.300268
H262	H	1.199703	0.593648	0.800268
H263	H	0.688714	0.225976	0.300332
H264	H	1.188714	0.725976	0.800332
H265	H	0.628496	0.158223	0.341650
H266	H	1.128496	0.658223	0.841650
H267	H	0.124385	0.146341	0.135984
H268	H	0.624385	0.646341	0.635984
