data_functionalizedCrystal
_audit_creation_method	'MofGen! by Chris Wilmer'
_symmetry_space_group_name_H-M	'P1'
_symmetry_Int_Tables_number	1
_symmetry_cell_setting	triclinic
loop_
_symmetry_equiv_pos_as_xyz
  x,y,z
_cell_length_a	15.297475
_cell_length_b	18.101397
_cell_length_c	15.296720
_cell_angle_alpha	99.641375
_cell_angle_beta	91.617114
_cell_angle_gamma	80.322482
loop_
_atom_site_label
_atom_site_type_symbol
_atom_site_fract_x
_atom_site_fract_y
_atom_site_fract_z
Zn1	Zn	1.253431	-0.576362	-0.726551
Zn2	Zn	1.753431	-0.076362	-0.226551
Zn3	Zn	1.278699	-0.682998	-0.580058
Zn4	Zn	1.778699	-0.182998	-0.080058
Zn5	Zn	1.132307	-0.534758	-0.554796
Zn6	Zn	1.632307	-0.034758	-0.054796
Zn7	Zn	1.106925	-0.675719	-0.701187
Zn8	Zn	1.606925	-0.175719	-0.201187
O9	O	1.192841	-0.617459	-0.640648
O10	O	1.692841	-0.117459	-0.140648
O11	O	1.379362	-0.610965	-0.728306
O12	O	1.879362	-0.110965	-0.228306
O13	O	1.280477	-0.648969	-0.454134
O14	O	1.780477	-0.148969	0.045866
O15	O	1.148422	-0.436657	-0.577622
O16	O	1.648422	0.063343	-0.077622
O17	O	1.397926	-0.689310	-0.620678
O18	O	1.897926	-0.189310	-0.120678
O19	O	1.237411	-0.467223	-0.703810
O20	O	1.737411	0.032777	-0.203810
O21	O	1.172923	-0.540058	-0.435573
O22	O	1.672923	-0.040058	0.064427
O23	O	1.006361	-0.532999	-0.553027
O24	O	1.506361	-0.032999	-0.053027
O25	O	1.105162	-0.676903	-0.827125
O26	O	1.605162	-0.176903	-0.327125
O27	O	0.987713	-0.636562	-0.660581
O28	O	1.487713	-0.136562	-0.160581
O29	O	1.212800	-0.603906	-0.845760
O30	O	1.712800	-0.103906	-0.345760
O31	O	1.255866	-0.785653	-0.596084
O32	O	1.755866	-0.285653	-0.096084
O33	O	1.129664	-0.780304	-0.685077
O34	O	1.629664	-0.280304	-0.185077
C35	C	0.965253	-0.579477	-0.601311
C36	C	1.465253	-0.079477	-0.101311
C37	C	0.867887	-0.563248	-0.584503
C38	C	1.367887	-0.063248	-0.084503
C39	C	0.554750	-0.733453	-0.760779
C40	C	1.054750	-0.233453	-0.260779
C41	C	0.646231	-0.748706	-0.776569
C42	C	1.146231	-0.248706	-0.276569
C43	C	0.701649	-0.702343	-0.728554
C44	C	1.201649	-0.202343	-0.228554
C45	C	0.665578	-0.640724	-0.664746
C46	C	1.165578	-0.140724	-0.164746
C47	C	0.574089	-0.625474	-0.648950
C48	C	1.074089	-0.125474	-0.148950
C49	C	0.720988	-0.594363	-0.616725
C50	C	1.220988	-0.094363	-0.116725
C51	C	0.684917	-0.532745	-0.552918
C52	C	1.184917	-0.032745	-0.052918
C53	C	0.593436	-0.517496	-0.537125
C54	C	1.093436	-0.017496	-0.037125
C55	C	0.538018	-0.563860	-0.585140
C56	C	1.038018	-0.063860	-0.085140
C57	C	0.812477	-0.609614	-0.632521
C58	C	1.312477	-0.109614	-0.132521
C59	C	0.831816	-0.501634	-0.520692
C60	C	1.331816	-0.001634	-0.020692
C61	C	0.740335	-0.486381	-0.504903
C62	C	1.240335	0.013619	-0.004903
C63	C	1.192773	-0.809852	-0.640593
C64	C	1.692773	-0.309852	-0.140593
C65	C	1.192819	-0.892176	-0.640612
C66	C	1.692819	-0.392176	-0.140612
C67	C	1.192917	-1.191295	-0.640711
C68	C	1.692917	-0.691295	-0.140711
C69	C	1.272162	-1.163251	-0.584506
C70	C	1.772162	-0.663251	-0.084506
C71	C	1.272366	-1.077692	-0.584722
C72	C	1.772366	-0.577692	-0.084722
C73	C	1.192869	-1.042898	-0.640662
C74	C	1.692869	-0.542898	-0.140662
C75	C	1.201906	-1.088917	-0.737308
C76	C	1.701906	-0.588917	-0.237308
C77	C	1.202492	-1.174605	-0.737029
C78	C	1.702492	-0.674605	-0.237029
C79	C	1.104316	-1.141563	-0.601039
C80	C	1.604316	-0.641563	-0.101039
C81	C	1.105131	-1.055748	-0.599057
C82	C	1.605131	-0.555748	-0.099057
C83	C	1.192839	-0.959031	-0.640639
C84	C	1.692839	-0.459031	-0.140639
C85	C	1.192948	-1.275163	-0.640741
C86	C	1.692948	-0.775163	-0.140741
C87	C	1.421316	-0.655590	-0.680140
C88	C	1.921316	-0.155590	-0.180140
C89	C	1.518679	-0.671839	-0.696969
C90	C	2.018679	-0.171839	-0.196969
C91	C	1.153331	-0.644233	-0.869113
C92	C	1.653331	-0.144233	-0.369113
C93	C	1.136495	-0.655643	-0.966472
C94	C	1.636495	-0.155643	-0.466472
C95	C	1.192929	-0.424321	-0.640727
C96	C	1.692929	0.075679	-0.140727
C97	C	1.192967	-0.342017	-0.640761
C98	C	1.692967	0.157983	-0.140761
C99	C	1.313207	-0.535789	-1.279718
C100	C	1.813207	-0.035789	-0.779718
C101	C	1.329031	-0.525071	-1.188247
C102	C	1.829031	-0.025071	-0.688247
C103	C	1.280898	-0.557713	-1.132798
C104	C	1.780898	-0.057713	-0.632798
C105	C	1.216938	-0.601075	-1.168831
C106	C	1.716938	-0.101075	-0.668831
C107	C	1.201118	-0.611798	-1.260313
C108	C	1.701118	-0.111798	-0.760313
C109	C	1.168809	-0.633722	-1.113393
C110	C	1.668809	-0.133722	-0.613393
C111	C	1.104849	-0.677084	-1.149425
C112	C	1.604849	-0.177084	-0.649425
C113	C	1.089031	-0.687806	-1.240898
C114	C	1.589031	-0.187806	-0.740898
C115	C	1.137164	-0.655164	-1.296346
C116	C	1.637164	-0.155164	-0.796346
C117	C	1.184630	-0.622999	-1.021911
C118	C	1.684630	-0.122999	-0.521911
C119	C	1.072541	-0.699008	-1.002505
C120	C	1.572541	-0.199008	-0.502505
C121	C	1.056717	-0.709726	-1.093977
C122	C	1.556717	-0.209726	-0.593977
C123	C	1.232247	-0.590744	-0.413081
C124	C	1.732247	-0.090744	0.086919
C125	C	1.249253	-0.579154	-0.315752
C126	C	1.749253	-0.079154	0.184248
H127	H	0.710953	-0.436211	-0.452950
H128	H	1.210953	0.063789	0.047050
Cl129	Cl	1.373716	-0.494767	-1.349428
Cl130	Cl	1.873716	0.005233	-0.849428
H131	H	0.463526	-0.551443	-0.572289
H132	H	0.963526	-0.051443	-0.072289
Cl133	Cl	0.901479	-0.443349	-0.460323
Cl134	Cl	1.401479	0.056651	0.039677
H135	H	1.004640	-0.745032	-1.123328
H136	H	1.504640	-0.245032	-0.623328
Cl137	Cl	0.816655	-0.721517	-0.748408
Cl138	Cl	1.316655	-0.221517	-0.248408
H139	H	1.265376	-1.080978	-0.769262
H140	H	1.765376	-0.580978	-0.269262
Cl141	Cl	1.266438	-1.028879	-0.474858
Cl142	Cl	1.766438	-0.528879	0.025142
H143	H	1.044206	-1.030900	-0.635713
H144	H	1.544206	-0.530900	-0.135713
H145	H	1.145258	-1.066703	-0.781000
H146	H	1.645258	-0.566703	-0.281000
H147	H	1.337773	-1.197927	-0.611776
H148	H	1.837773	-0.697927	-0.111776
H149	H	1.124283	-0.663888	-1.370831
H150	H	1.624283	-0.163888	-0.870831
Cl151	Cl	1.266649	-1.178700	-0.474370
Cl152	Cl	1.766649	-0.678700	0.025630
H153	H	1.093006	-1.151661	-0.530951
H154	H	1.593006	-0.651661	-0.030951
Cl155	Cl	1.008639	-0.742333	-1.286197
Cl156	Cl	1.508639	-0.242333	-0.786197
Cl157	Cl	0.691572	-0.826167	-0.856779
Cl158	Cl	1.191572	-0.326167	-0.356779
Cl159	Cl	1.374193	-1.066491	-0.627210
Cl160	Cl	1.874193	-0.566491	-0.127210
Cl161	Cl	0.857813	-0.687074	-0.712734
Cl162	Cl	1.357813	-0.187074	-0.212734
H163	H	1.045469	-1.159242	-0.641781
H164	H	1.545469	-0.659242	-0.141781
H165	H	0.564072	-0.467329	-0.485160
H166	H	1.064072	0.032671	0.014840
Cl167	Cl	1.012032	-0.740051	-0.932806
Cl168	Cl	1.512032	-0.240051	-0.432806
H169	H	1.266779	-1.208180	-0.768775
H170	H	1.766779	-0.708180	-0.268775
H171	H	1.146428	-1.193631	-0.781216
H172	H	1.646428	-0.693631	-0.281216
H173	H	1.098027	-1.024367	-0.527855
H174	H	1.598027	-0.524367	-0.027855
Cl175	Cl	1.265033	-0.568488	-0.976624
Cl176	Cl	1.765033	-0.068488	-0.476624
H177	H	0.509622	-0.771199	-0.799861
H178	H	1.009622	-0.271199	-0.299861
H179	H	1.293786	-0.548984	-1.058318
H180	H	1.793786	-0.048984	-0.558318
H181	H	1.381109	-0.489768	-1.158916
H182	H	1.881109	0.010232	-0.658916
