data_functionalizedCrystal
_audit_creation_method	'MofGen! by Chris Wilmer'
_symmetry_space_group_name_H-M	'P1'
_symmetry_Int_Tables_number	1
_symmetry_cell_setting	triclinic
loop_
_symmetry_equiv_pos_as_xyz
  x,y,z
_cell_length_a	8.634740
_cell_length_b	9.730223
_cell_length_c	8.559649
_cell_angle_alpha	90.001748
_cell_angle_beta	94.825514
_cell_angle_gamma	90.002804
loop_
_atom_site_label
_atom_site_type_symbol
_atom_site_fract_x
_atom_site_fract_y
_atom_site_fract_z
O1	O	1.985470	0.114272	-0.511620
O2	O	1.541598	0.114277	-0.468717
O3	O	1.802639	0.114273	-0.263587
O4	O	1.724429	0.114276	-0.716750
O5	O	1.802623	-0.114307	-0.263598
O6	O	1.541582	-0.114303	-0.468728
O7	O	1.985453	-0.114308	-0.511631
Zn8	Zn	1.763515	-0.150597	-0.490181
Zn9	Zn	1.763537	0.150566	-0.490167
O10	O	1.724412	-0.114304	-0.716761
C11	C	1.485291	-0.000013	-0.459004
C12	C	1.317539	-0.000011	-0.430026
N13	N	1.763511	-0.356134	-0.490192
C14	C	1.844077	-0.428073	-0.599556
C15	C	1.844103	-0.571956	-0.599529
C16	C	1.682986	-0.571948	-0.380770
C17	C	1.682969	-0.428067	-0.380791
C18	C	1.924619	-0.356140	-0.708957
C19	C	2.005190	-0.428079	-0.818331
C20	C	2.005216	-0.571962	-0.818305
C21	C	1.924672	-0.643906	-0.708905
C22	C	2.041761	-0.000015	-0.521344
C23	C	2.209512	-0.000008	-0.550322
C24	C	1.808558	-0.000015	-0.204975
C25	C	1.826201	-0.000007	-0.030311
N26	N	1.763554	0.356103	-0.490145
C27	C	1.718493	-0.000013	-0.775373
C28	C	1.700851	-0.000012	-0.950037
H29	H	1.245366	-0.000016	-0.675491
H30	H	1.281691	0.000024	-0.304865
H31	H	1.580036	-0.000015	-0.014934
C32	C	1.859417	-0.150066	-0.854162
C33	C	1.924596	-0.197983	-0.708989
H34	H	1.859410	-0.052427	-0.854182
H35	H	1.755721	-0.182631	-0.871815
H36	H	1.918936	-0.182626	-0.934943
H37	H	1.865070	-0.165430	-0.628209
H38	H	2.028309	-0.165403	-0.691319
C39	C	2.033491	-0.383827	-1.090414
C40	C	2.093727	-0.349009	-0.938577
H41	H	2.088161	-0.335020	-1.164648
H42	H	1.926442	-0.360259	-1.103547
H43	H	2.045043	-0.479816	-1.106026
H44	H	2.082164	-0.253021	-0.922961
H45	H	2.200802	-0.372568	-0.925439
C46	C	2.251580	-0.616223	-0.919148
C47	C	2.093784	-0.651036	-0.938521
H48	H	2.306251	-0.665032	-0.993379
H49	H	2.292434	-0.639792	-0.816139
H50	H	2.263068	-0.520235	-0.934815
H51	H	2.082294	-0.747024	-0.922842
H52	H	2.052917	-0.627477	-1.041555
C53	C	2.077598	-0.849989	-0.682796
C54	C	1.924705	-0.802065	-0.708871
H55	H	2.077611	-0.947628	-0.682789
H56	H	2.121778	-0.817422	-0.584333
H57	H	2.137088	-0.817435	-0.763603
H58	H	1.865217	-0.834611	-0.628057
H59	H	1.880504	-0.834647	-0.807347
H60	H	1.617407	-0.630536	-0.291704
C61	C	2.101721	-0.000013	-0.051464
C62	C	1.989314	-0.000018	0.057291
H63	H	2.202416	-0.000028	0.002621
H64	H	2.089509	0.079699	-0.115360
H65	H	2.089483	-0.079723	-0.115393
H66	H	2.001544	0.079698	0.121213
H67	H	2.001531	-0.079738	0.121214
C68	C	1.523693	-0.442500	-0.164569
C69	C	1.594402	-0.348981	-0.260584
H70	H	1.469011	-0.393671	-0.090362
H71	H	1.601002	-0.498598	-0.111029
H72	H	1.453093	-0.498639	-0.227201
H73	H	1.665011	-0.292848	-0.197953
H74	H	1.517084	-0.292859	-0.314127
