data_functionalizedCrystal
_audit_creation_method	'MofGen! by Chris Wilmer'
_symmetry_space_group_name_H-M	'P1'
_symmetry_Int_Tables_number	1
_symmetry_cell_setting	triclinic
loop_
_symmetry_equiv_pos_as_xyz
  x,y,z
_cell_length_a	19.805407
_cell_length_b	19.805404
_cell_length_c	19.805399
_cell_angle_alpha	89.972890
_cell_angle_beta	90.021064
_cell_angle_gamma	89.971422
loop_
_atom_site_label
_atom_site_type_symbol
_atom_site_fract_x
_atom_site_fract_y
_atom_site_fract_z
Zn1	Zn	-1.034721	-0.269497	-0.382749
Zn2	Zn	-0.534721	0.230503	0.117251
Zn3	Zn	-1.034629	-0.382686	-0.269561
Zn4	Zn	-0.534629	0.117314	0.230439
Zn5	Zn	-0.921535	-0.269514	-0.269570
Zn6	Zn	-0.421535	0.230486	0.230430
Zn7	Zn	-0.921493	-0.382648	-0.382705
Zn8	Zn	-0.421493	0.117352	0.117295
O9	O	-0.978094	-0.326086	-0.326146
O10	O	-0.478094	0.173914	0.173854
O11	O	-1.129425	-0.284521	-0.367749
O12	O	-0.629425	0.215479	0.132251
O13	O	-1.019607	-0.367696	-0.174846
O14	O	-0.519607	0.132304	0.325154
O15	O	-0.936606	-0.174795	-0.284606
O16	O	-0.436606	0.325205	0.215394
O17	O	-1.129358	-0.367680	-0.284590
O18	O	-0.629358	0.132320	0.215410
O19	O	-1.019763	-0.174783	-0.367757
O20	O	-0.519763	0.325217	0.132243
O21	O	-0.936517	-0.284549	-0.174853
O22	O	-0.436517	0.215451	0.325147
O23	O	-0.826813	-0.284512	-0.284564
O24	O	-0.326813	0.215488	0.215436
O25	O	-0.936533	-0.367615	-0.477428
O26	O	-0.436533	0.132385	0.022572
O27	O	-0.826782	-0.367631	-0.367683
O28	O	-0.326782	0.132369	0.132317
O29	O	-1.019721	-0.284484	-0.477460
O30	O	-0.519721	0.215516	0.022540
O31	O	-1.019565	-0.477397	-0.284548
O32	O	-0.519565	0.022603	0.215452
O33	O	-0.936444	-0.477369	-0.367675
O34	O	-0.436444	0.022631	0.132325
C35	C	-0.802238	-0.326070	-0.326120
C36	C	-0.302238	0.173930	0.173880
C37	C	-0.727006	-0.326079	-0.326125
C38	C	-0.227006	0.173921	0.173875
C39	C	-0.978009	-0.501942	-0.326120
C40	C	-0.478009	-0.001942	0.173880
C41	C	-0.978034	-0.577174	-0.326132
C42	C	-0.478034	-0.077174	0.173868
C43	C	-0.691664	-0.369424	-0.369334
C44	C	-0.191664	0.130576	0.130666
C45	C	-0.620975	-0.369424	-0.369342
C46	C	-0.120975	0.130576	0.130658
C47	C	-0.585631	-0.326082	-0.326136
C48	C	-0.085631	0.173918	0.173864
C49	C	-0.620979	-0.282733	-0.282925
C50	C	-0.120979	0.217267	0.217075
C51	C	-0.691666	-0.282730	-0.282921
C52	C	-0.191666	0.217270	0.217079
C53	C	-0.335905	-0.282743	-0.282940
C54	C	0.164095	0.217257	0.217060
C55	C	-0.265213	-0.282750	-0.282946
C56	C	0.234787	0.217250	0.217054
C57	C	-0.265215	-0.369437	-0.369361
C58	C	0.234785	0.130563	0.130639
C59	C	-0.335902	-0.369434	-0.369357
C60	C	0.164098	0.130566	0.130643
C61	C	-0.371244	-0.326082	-0.326148
C62	C	0.128756	0.173918	0.173852
C63	C	-0.447892	-0.326082	-0.326141
C64	C	0.052108	0.173918	0.173859
C65	C	-0.508984	-0.326085	-0.326139
C66	C	-0.008984	0.173915	0.173861
C67	C	-0.154637	-0.326098	-0.326167
C68	C	0.345363	0.173902	0.173833
C69	C	-0.229869	-0.326092	-0.326159
C70	C	0.270131	0.173908	0.173841
C71	C	-1.021542	-1.038957	-0.282957
C72	C	-0.521542	-0.538957	0.217043
C73	C	-1.021510	-0.968269	-0.282944
C74	C	-0.521510	-0.468269	0.217056
C75	C	-0.978183	-0.932936	-0.326182
C76	C	-0.478183	-0.432936	0.173818
C77	C	-0.934880	-0.968295	-0.369432
C78	C	-0.434880	-0.468295	0.130568
C79	C	-0.934909	-1.038982	-0.369441
C80	C	-0.434909	-0.538982	0.130559
C81	C	-0.934763	-0.683222	-0.369395
C82	C	-0.434763	-0.183222	0.130605
C83	C	-0.934739	-0.612530	-0.369383
C84	C	-0.434739	-0.112530	0.130617
C85	C	-1.021364	-0.612508	-0.282898
C86	C	-0.521364	-0.112508	0.217102
C87	C	-1.021392	-0.683195	-0.282907
C88	C	-0.521392	-0.183195	0.217093
C89	C	-0.978087	-0.718548	-0.326154
C90	C	-0.478087	-0.218548	0.173846
C91	C	-0.978121	-0.795197	-0.326166
C92	C	-0.478121	-0.295197	0.173834
C93	C	-0.978152	-0.856289	-0.326173
C94	C	-0.478152	-0.356289	0.173827
C95	C	-0.978132	-0.326043	-0.502689
C96	C	-0.478132	0.173957	-0.002689
C97	C	-0.978149	-0.326025	-0.577921
C98	C	-0.478149	0.173975	-0.077921
C99	C	-0.978199	-0.149543	-0.326187
C100	C	-0.478199	0.350457	0.173813
C101	C	-0.978244	-0.074311	-0.326205
C102	C	-0.478244	0.425689	0.173795
C103	C	-1.021466	-0.282737	-0.613283
C104	C	-0.521466	0.217263	-0.113283
C105	C	-1.021473	-0.282717	-0.683972
C106	C	-0.521473	0.217283	-0.183972
C107	C	-0.978165	-0.325990	-0.719297
C108	C	-0.478165	0.174010	-0.219297
C109	C	-0.934844	-0.369280	-0.683930
C110	C	-0.434844	0.130720	-0.183930
C111	C	-0.934834	-0.369296	-0.613243
C112	C	-0.434834	0.130704	-0.113243
C113	C	-0.934882	-0.369217	-0.969004
C114	C	-0.434882	0.130783	-0.469004
C115	C	-0.934896	-0.369200	-1.039696
C116	C	-0.434896	0.130800	-0.539696
C117	C	-1.021521	-0.282638	-1.039732
C118	C	-0.521521	0.217362	-0.539732
C119	C	-1.021511	-0.282654	-0.969045
C120	C	-0.521511	0.217346	-0.469045
C121	C	-0.978187	-0.325942	-0.933684
C122	C	-0.478187	0.174058	-0.433684
C123	C	-0.978179	-0.325961	-0.857036
C124	C	-0.478179	0.174039	-0.357036
C125	C	-0.978176	-0.325974	-0.795944
C126	C	-0.478176	0.174026	-0.295944
C127	C	-0.978096	-0.326080	-0.150290
C128	C	-0.478096	0.173920	0.349710
C129	C	-0.978211	-0.325907	-0.075059
C130	C	-0.478211	0.174093	0.424941
H131	H	-0.720436	-0.404720	-0.404515
H132	H	-0.220436	0.095280	0.095485
H133	H	-1.056795	-0.247389	-1.068531
H134	H	-0.556795	0.252611	-0.568531
H135	H	-1.056676	-0.711960	-0.247700
H136	H	-0.556676	-0.211960	0.252300
C137	C	-0.374780	-0.417118	-0.416871
C138	C	0.125220	0.082882	0.083129
H139	H	-0.421941	-0.410916	-0.410673
H140	H	0.078059	0.089084	0.089327
H141	H	-0.363226	-0.407284	-0.462370
H142	H	0.136774	0.092716	0.037630
H143	H	-0.363166	-0.462582	-0.406871
H144	H	0.136834	0.037418	0.093129
C145	C	-1.069137	-0.235118	-0.722870
C146	C	-0.569137	0.264882	-0.222870
H147	H	-1.062941	-0.241304	-0.770028
H148	H	-0.562941	0.258696	-0.270028
H149	H	-1.114601	-0.245047	-0.711287
H150	H	-0.614601	0.254953	-0.211287
H151	H	-1.059269	-0.189635	-0.711300
H152	H	-0.559269	0.310365	-0.211300
C153	C	-0.887225	-0.929434	-0.416998
C154	C	-0.387225	-0.429434	0.083002
H155	H	-0.861439	-0.960616	-0.442753
H156	H	-0.361439	-0.460616	0.057247
H157	H	-0.913091	-0.901820	-0.446510
H158	H	-0.413091	-0.401820	0.053490
H159	H	-0.857734	-0.901899	-0.391074
H160	H	-0.357734	-0.401899	0.108926
H161	H	-0.592196	-0.247440	-0.247749
H162	H	-0.092196	0.252560	0.252251
C163	C	-0.887075	-0.573661	-0.416944
C164	C	-0.387075	-0.073661	0.083056
H165	H	-0.893268	-0.526500	-0.410748
H166	H	-0.393268	-0.026500	0.089252
H167	H	-0.841609	-0.585289	-0.406993
H168	H	-0.341609	-0.085289	0.093007
H169	H	-0.896959	-0.585209	-0.462435
H170	H	-0.396959	-0.085209	0.037565
H171	H	-0.899496	-0.711998	-0.404603
H172	H	-0.399496	-0.211998	0.095397
H173	H	-0.720441	-0.247431	-0.247739
H174	H	-0.220441	0.252569	0.252261
H175	H	-0.899580	-0.404511	-0.712698
H176	H	-0.399580	0.095489	-0.212698
C177	C	-1.068989	-0.573618	-0.235316
C178	C	-0.568989	-0.073618	0.264684
H179	H	-1.062762	-0.526459	-0.241494
H180	H	-0.562762	-0.026459	0.258506
H181	H	-1.114465	-0.585153	-0.245265
H182	H	-0.614465	-0.085153	0.254735
H183	H	-1.059108	-0.585245	-0.189830
H184	H	-0.559108	-0.085245	0.310170
H185	H	-0.899655	-1.067767	-0.404661
H186	H	-0.399655	-0.567767	0.095339
C187	C	-1.069101	-0.235133	-0.574431
C188	C	-0.569101	0.264867	-0.074431
H189	H	-1.094894	-0.209344	-0.605619
H190	H	-0.594894	0.290656	-0.105619
H191	H	-1.098575	-0.261028	-0.546854
H192	H	-0.598575	0.238972	-0.046854
H193	H	-1.043216	-0.205643	-0.546861
H194	H	-0.543216	0.294357	-0.046861
C195	C	-1.069146	-0.235052	-0.930191
C196	C	-0.569146	0.264948	-0.430191
H197	H	-1.094941	-0.209262	-0.961376
H198	H	-0.594941	0.290738	-0.461376
H199	H	-1.098618	-0.260949	-0.902614
H200	H	-0.598618	0.239051	-0.402614
H201	H	-1.043260	-0.205563	-0.902620
H202	H	-0.543260	0.294437	-0.402620
C203	C	-1.069199	-1.077820	-0.235395
C204	C	-0.569199	-0.577820	0.264605
H205	H	-1.063021	-1.124983	-0.241596
H206	H	-0.563021	-0.624983	0.258404
H207	H	-1.059315	-1.066271	-0.189907
H208	H	-0.559315	-0.566271	0.310093
H209	H	-1.114669	-1.066188	-0.245346
H210	H	-0.614669	-0.566188	0.254654
C211	C	-1.069142	-0.929382	-0.235376
C212	C	-0.569142	-0.429382	0.264624
H213	H	-1.094956	-0.960549	-0.209633
H214	H	-0.594956	-0.460549	0.290367
H215	H	-1.043262	-0.901848	-0.205853
H216	H	-0.543262	-0.401848	0.294147
H217	H	-1.098606	-0.901765	-0.261300
H218	H	-0.598606	-0.401765	0.238700
H219	H	-0.592202	-0.404720	-0.404527
H220	H	-0.092202	0.095280	0.095473
C221	C	-0.887251	-0.416797	-1.078553
C222	C	-0.387251	0.083203	-0.578553
H223	H	-0.861442	-0.442575	-1.047370
H224	H	-0.361442	0.057425	-0.547370
H225	H	-0.913127	-0.446286	-1.106126
H226	H	-0.413127	0.053714	-0.606126
H227	H	-0.857782	-0.390887	-1.106127
H228	H	-0.357782	0.109113	-0.606127
H229	H	-0.236438	-0.247452	-0.247762
H230	H	0.263562	0.252548	0.252238
C231	C	-0.226337	-0.417116	-0.416897
C232	C	0.273663	0.082884	0.083103
H233	H	-0.179176	-0.410908	-0.410719
H234	H	0.320824	0.089092	0.089281
H235	H	-0.237896	-0.462580	-0.406909
H236	H	0.262104	0.037420	0.093091
H237	H	-0.237949	-0.407266	-0.462393
H238	H	0.262051	0.092734	0.037607
H239	H	-0.899615	-0.404475	-0.940221
H240	H	-0.399615	0.095525	-0.440221
C241	C	-0.374772	-0.235070	-0.235401
C242	C	0.125228	0.264930	0.264599
H243	H	-0.343597	-0.209267	-0.209664
H244	H	0.156403	0.290733	0.290336
H245	H	-0.402375	-0.205607	-0.261334
H246	H	0.097625	0.294393	0.238666
H247	H	-0.402319	-0.260932	-0.205861
H248	H	0.097681	0.239068	0.294139
H249	H	-0.899554	-0.404539	-0.584452
H250	H	-0.399554	0.095461	-0.084452
