data_functionalizedCrystal
_audit_creation_method	'MofGen! by Chris Wilmer'
_symmetry_space_group_name_H-M	'P1'
_symmetry_Int_Tables_number	1
_symmetry_cell_setting	triclinic
loop_
_symmetry_equiv_pos_as_xyz
  x,y,z
_cell_length_a	10.489716
_cell_length_b	10.489741
_cell_length_c	10.268362
_cell_angle_alpha	89.995004
_cell_angle_beta	89.995798
_cell_angle_gamma	84.534155
loop_
_atom_site_label
_atom_site_type_symbol
_atom_site_fract_x
_atom_site_fract_y
_atom_site_fract_z
O1	O	1.694072	0.179820	-0.108289
O2	O	1.322872	0.196745	-0.108294
O3	O	1.516919	0.002684	-0.108284
O4	O	1.500026	0.373881	-0.108299
O5	O	1.516902	0.002676	0.108317
O6	O	1.322855	0.196737	0.108307
O7	O	1.694055	0.179812	0.108312
Cu8	Cu	1.508453	0.188274	0.128087
Cu9	Cu	1.508474	0.188283	-0.128069
O10	O	1.500009	0.373873	0.108301
C11	C	1.275332	0.195470	0.000006
C12	C	1.133701	0.191665	0.000004
C13	C	1.515634	-0.044852	0.000016
C14	C	1.511817	-0.186481	0.000014
C15	C	1.036027	0.310669	-0.000004
C16	C	0.958672	0.247781	0.106800
C17	C	0.958696	0.247761	-0.106751
C18	C	1.058212	0.128826	0.106896
C19	C	1.058240	0.128823	-0.106751
C20	C	0.980935	0.065848	0.000079
C21	C	1.388351	-0.254610	0.000002
C22	C	1.446667	-0.346742	0.106799
C23	C	1.446713	-0.346708	-0.106753
C24	C	1.570184	-0.276747	0.106898
C25	C	1.570212	-0.276704	-0.106749
C26	C	1.628618	-0.368808	0.000073
C27	C	1.741596	0.181087	0.000009
C28	C	1.883227	0.184892	0.000002
C29	C	1.501293	0.421409	-0.000001
C30	C	1.505110	0.563038	-0.000007
N31	N	1.508449	0.188266	0.308252
N32	N	1.508489	0.188281	-0.308235
C33	C	1.508467	0.188281	0.573923
C34	C	1.508453	0.188276	0.426085
H35	H	1.060696	0.414185	0.000091
O36	O	1.109828	0.068725	0.214638
C37	C	1.081193	-0.059901	0.214909
H38	H	1.060595	-0.090747	0.111167
H39	H	0.993520	-0.069573	0.278468
C40	C	1.221468	-0.107785	0.396901
C41	C	1.196180	-0.145674	0.269482
H42	H	1.292394	-0.160694	0.430570
H43	H	1.240757	-0.021126	0.396723
H44	H	1.148399	-0.115846	0.449851
H45	H	1.269242	-0.137597	0.216532
H46	H	1.176905	-0.232334	0.269653
H47	H	1.394418	-0.377752	0.197086
H48	H	0.915183	0.298014	0.197089
H49	H	0.915219	0.298025	-0.197032
H50	H	1.622416	-0.245661	-0.197041
O51	O	1.632566	-0.239848	0.214600
C52	C	1.740239	-0.178077	0.176496
H53	H	1.725260	-0.139098	0.073433
H54	H	1.829235	-0.249458	0.179067
C55	C	1.776265	-0.114708	0.397206
C56	C	1.757863	-0.066823	0.270625
H57	H	1.787141	-0.046084	0.455272
H58	H	1.703727	-0.156328	0.422879
H59	H	1.850427	-0.174192	0.399330
H60	H	1.683694	-0.007353	0.268500
H61	H	1.830389	-0.025190	0.244954
O62	O	1.749848	-0.427736	0.000370
C63	C	1.814446	-0.392032	0.113101
H64	H	1.741510	-0.359431	0.191445
H65	H	1.874584	-0.310266	0.088643
C66	C	1.991876	-0.547563	0.067229
C67	C	1.902295	-0.507532	0.163456
H68	H	2.046070	-0.618805	0.098288
H69	H	1.948359	-0.571615	-0.008724
H70	H	2.041978	-0.479414	0.046855
H71	H	1.852184	-0.575674	0.183815
H72	H	1.945806	-0.483493	0.239413
O73	O	1.384211	-0.383485	-0.214431
C74	C	1.257566	-0.324808	-0.214004
H75	H	1.252271	-0.234662	-0.151479
H76	H	1.190777	-0.394128	-0.172325
C77	C	1.223105	-0.399567	-0.431093
C78	C	1.216603	-0.288841	-0.354308
H79	H	1.197833	-0.377385	-0.517639
H80	H	1.308426	-0.439102	-0.431380
H81	H	1.167447	-0.457323	-0.396346
H82	H	1.272272	-0.231094	-0.389046
H83	H	1.131290	-0.249294	-0.354030
H84	H	0.956505	-0.037744	0.000145
H85	H	1.101743	0.078629	-0.197044
H86	H	1.286838	-0.204950	0.000109
