data_functionalizedCrystal
_audit_creation_method	'MofGen! by Chris Wilmer'
_symmetry_space_group_name_H-M	'P1'
_symmetry_Int_Tables_number	1
_symmetry_cell_setting	triclinic
loop_
_symmetry_equiv_pos_as_xyz
  x,y,z
_cell_length_a	18.215407
_cell_length_b	18.101395
_cell_length_c	18.215399
_cell_angle_alpha	89.973573
_cell_angle_beta	89.980167
_cell_angle_gamma	90.031552
loop_
_atom_site_label
_atom_site_type_symbol
_atom_site_fract_x
_atom_site_fract_y
_atom_site_fract_z
Zn1	Zn	1.125040	-0.294828	-0.416124
Zn2	Zn	1.124935	-0.418675	-0.293061
Zn3	Zn	1.001973	-0.294853	-0.293071
Zn4	Zn	1.001925	-0.418634	-0.416086
O5	O	1.063468	-0.356747	-0.354585
O6	O	1.228010	-0.311264	-0.399811
O7	O	1.108600	-0.402277	-0.190078
O8	O	1.018362	-0.191216	-0.309415
O9	O	1.227933	-0.402253	-0.309397
O10	O	1.108779	-0.191199	-0.399821
O11	O	1.018260	-0.311305	-0.190085
O12	O	0.898982	-0.311265	-0.309378
O13	O	1.018281	-0.402183	-0.519075
O14	O	0.898947	-0.402207	-0.399756
O15	O	1.108733	-0.311224	-0.519103
O16	O	1.108554	-0.522302	-0.309360
O17	O	1.018179	-0.522272	-0.399746
C18	C	0.872262	-0.356735	-0.354564
C19	C	0.790463	-0.356747	-0.354572
C20	C	0.602270	-0.404175	-0.401573
C21	C	0.525412	-0.404177	-0.401583
C22	C	0.525418	-0.309333	-0.307613
C23	C	0.602276	-0.309328	-0.307608
C24	C	0.640700	-0.356753	-0.354587
C25	C	0.486984	-0.356761	-0.354601
C26	C	0.403650	-0.356763	-0.354611
C27	C	0.724039	-0.356750	-0.354579
C28	C	1.063370	-0.549158	-0.354564
C29	C	1.063395	-0.631472	-0.354579
C30	C	1.063557	-0.930563	-0.354619
C31	C	1.006827	-0.899249	-0.411628
C32	C	1.006557	-0.813632	-0.411450
C33	C	1.063476	-0.782180	-0.354600
C34	C	1.042479	-0.813331	-0.277038
C35	C	1.042113	-0.898976	-0.277380
C36	C	1.141408	-0.898906	-0.374487
C37	C	1.140950	-0.813255	-0.376188
C38	C	1.063432	-0.698321	-0.354584
C39	C	1.063599	-1.014422	-0.354629
C40	C	1.255421	-0.356761	-0.354607
C41	C	1.337220	-0.356766	-0.354616
C42	C	1.063513	-0.356696	-0.546538
C43	C	1.063532	-0.356675	-0.628337
C44	C	1.063587	-0.163585	-0.354623
C45	C	1.063638	-0.081271	-0.354639
C46	C	1.110648	-0.309268	-0.816547
C47	C	1.110656	-0.309246	-0.893406
C48	C	1.016469	-0.403967	-0.893365
C49	C	1.016457	-0.403984	-0.816508
C50	C	1.063551	-0.356636	-0.778101
C51	C	1.063571	-0.356597	-0.931817
C52	C	1.063580	-0.356574	-1.015151
C53	C	1.063541	-0.356657	-0.694762
C54	C	1.063466	-0.356745	-0.163379
C55	C	1.063590	-0.356558	-0.081580
H56	H	0.494124	-0.270723	-0.269363
C57	C	0.644554	-0.257161	-0.255923
H58	H	0.695830	-0.263945	-0.262656
H59	H	0.631937	-0.267934	-0.206458
H60	H	0.631986	-0.207415	-0.266786
C61	C	0.928606	-0.786033	-0.393670
H62	H	0.928173	-0.733551	-0.393507
H63	H	0.914212	-0.803826	-0.346752
H64	H	0.895340	-0.803686	-0.429793
H65	H	1.019695	-0.792568	-0.468960
C66	C	1.162438	-0.257178	-0.774301
H67	H	1.190483	-0.228959	-0.808209
H68	H	1.194486	-0.285508	-0.744316
H69	H	1.134292	-0.224915	-0.744325
C70	C	0.483139	-0.456341	-0.453265
H71	H	0.431862	-0.449548	-0.446547
H72	H	0.495705	-0.506085	-0.442409
H73	H	0.495763	-0.445559	-0.502731
H74	H	0.978100	-0.442556	-0.785204
H75	H	0.985204	-0.919019	-0.260549
H76	H	0.633553	-0.442789	-0.439829
C77	C	1.024326	-0.927099	-0.489556
H78	H	1.066390	-0.958066	-0.488027
H79	H	1.033695	-0.886147	-0.520821
H80	H	0.983668	-0.954309	-0.507889
C81	C	0.929344	-0.928401	-0.394072
H82	H	0.931416	-0.959570	-0.352149
H83	H	0.911263	-0.955646	-0.434799
H84	H	0.897552	-0.887966	-0.384421
H85	H	0.978129	-0.442518	-0.924646
C86	C	1.201075	-0.784333	-0.324187
H87	H	1.247256	-0.803982	-0.338522
H88	H	1.190322	-0.799237	-0.275342
H89	H	1.202746	-0.731933	-0.326625
H90	H	1.149006	-0.270673	-0.924705
H91	H	0.986172	-0.791946	-0.259906
C92	C	1.095495	-0.926966	-0.218033
H93	H	1.117304	-0.885992	-0.193818
H94	H	1.132712	-0.956078	-0.240312
H95	H	1.069389	-0.956086	-0.183341
C96	C	1.096532	-0.785812	-0.218085
H97	H	1.082822	-0.805303	-0.171624
H98	H	1.095370	-0.733380	-0.216255
H99	H	1.144753	-0.801788	-0.230002
C100	C	1.167274	-0.928009	-0.449589
H101	H	1.214351	-0.908245	-0.460532
H102	H	1.133387	-0.913347	-0.486441
H103	H	1.170048	-0.980395	-0.448123
C104	C	1.162346	-0.785758	-0.453301
H105	H	1.209258	-0.804749	-0.466050
H106	H	1.163973	-0.733304	-0.453475
H107	H	1.127006	-0.802272	-0.487956
C108	C	1.198490	-0.926186	-0.318347
H109	H	1.175035	-0.956729	-0.282975
H110	H	1.220183	-0.884954	-0.294476
H111	H	1.235456	-0.953701	-0.342941
