data_functionalizedCrystal
_audit_creation_method	'MofGen! by Chris Wilmer'
_symmetry_space_group_name_H-M	'P1'
_symmetry_Int_Tables_number	1
_symmetry_cell_setting	triclinic
loop_
_symmetry_equiv_pos_as_xyz
  x,y,z
_cell_length_a	8.497374
_cell_length_b	21.395362
_cell_length_c	21.395361
_cell_angle_alpha	89.953415
_cell_angle_beta	89.984309
_cell_angle_gamma	90.022954
loop_
_atom_site_label
_atom_site_type_symbol
_atom_site_fract_x
_atom_site_fract_y
_atom_site_fract_z
Zn1	Zn	0.892770	0.957730	0.249282
Zn2	Zn	0.628940	0.957670	0.354031
Zn3	Zn	0.628900	0.852983	0.249300
Zn4	Zn	0.892573	0.852914	0.354054
O5	O	0.760796	0.905324	0.301667
O6	O	0.857872	1.045400	0.263159
O7	O	0.408172	0.943788	0.340136
O8	O	0.663969	0.866931	0.161620
O9	O	0.664036	1.045356	0.340118
O10	O	0.857833	0.943888	0.161606
O11	O	0.408143	0.866874	0.263191
O12	O	0.663778	0.765296	0.263214
O13	O	1.113362	0.866814	0.340158
O14	O	0.857497	0.765245	0.340176
O15	O	1.113507	0.943821	0.263182
O16	O	0.663845	0.943721	0.441712
O17	O	0.857536	0.866756	0.441729
C18	C	0.760613	0.742537	0.301700
C19	C	0.760572	0.672895	0.301729
C20	C	0.760708	0.905241	0.464454
C21	C	0.760723	0.905263	0.534096
C22	C	0.861291	0.640172	0.341857
C23	C	0.861361	0.574737	0.341841
C24	C	0.760684	0.542027	0.301705
C25	C	0.659959	0.574758	0.261570
C26	C	0.659902	0.640192	0.261582
C27	C	0.618664	0.438323	0.296652
C28	C	0.618717	0.372890	0.296644
C29	C	0.760859	0.340206	0.301664
C30	C	0.902951	0.372964	0.306705
C31	C	0.902895	0.438398	0.306717
C32	C	0.760735	0.471075	0.301687
C33	C	0.861662	0.236531	0.341777
C34	C	0.861735	0.171094	0.341757
C35	C	0.660318	0.171117	0.261489
C36	C	0.660260	0.236552	0.261506
C37	C	0.760929	0.269255	0.301653
C38	C	1.172276	0.905320	0.301668
C39	C	1.350920	0.905321	0.301674
C40	C	0.760981	1.068747	0.301634
C41	C	0.761059	1.138389	0.301620
C42	C	0.760919	0.905424	0.138243
C43	C	0.760971	0.905467	0.068602
C44	C	0.659972	0.945374	0.566779
C45	C	0.660007	0.945403	0.632214
C46	C	0.760777	0.905310	0.664964
C47	C	0.861548	0.865197	0.632273
C48	C	0.861521	0.865173	0.566839
C49	C	0.773092	0.848894	0.768695
C50	C	0.773108	0.848917	0.834128
C51	C	0.760870	0.905383	0.866785
C52	C	0.748583	0.961830	0.834000
C53	C	0.748556	0.961806	0.768566
C54	C	0.760819	0.905332	0.735916
C55	C	0.660152	0.945529	0.970420
C56	C	0.660198	0.945559	1.035857
C57	C	0.861731	0.865347	1.035914
C58	C	0.861693	0.865323	0.970479
C59	C	0.760895	0.905413	0.937736
H60	H	0.943384	0.548088	0.374518
O61	O	0.959661	0.826317	0.664055
C62	C	1.116928	0.839942	0.648012
H63	H	1.125042	0.889987	0.629965
H64	H	1.194865	0.834535	0.691038
H65	H	1.158048	0.806324	0.610063
O66	O	0.959703	0.826489	1.067787
C67	C	1.061754	0.862142	1.105562
H68	H	1.006266	0.909646	1.115320
H69	H	1.082844	0.836632	1.151602
H70	H	1.178670	0.868979	1.080313
O71	O	0.959171	0.826174	0.535018
C72	C	0.869205	0.785712	0.497246
H73	H	0.749714	0.807846	0.487441
H74	H	0.933411	0.777276	0.451231
H75	H	0.851740	0.739296	0.522523
H76	H	0.943727	0.832658	0.943866
O77	O	0.959235	0.268330	0.380836
C78	C	0.869202	0.306121	0.421248
H79	H	0.744952	0.286361	0.425037
H80	H	0.926039	0.306830	0.469501
H81	H	0.863811	0.355731	0.401884
H82	H	0.738556	1.007766	0.741874
H83	H	0.577964	0.978069	0.658830
O84	O	0.785324	0.794080	0.865942
C85	C	0.927825	0.764377	0.849950
H86	H	1.015033	0.800657	0.831908
H87	H	0.978742	0.740343	0.893000
H88	H	0.904932	0.728112	0.812012
H89	H	0.943266	0.666795	0.374547
H90	H	0.577885	0.666835	0.228903
O91	O	0.736617	1.016740	0.865617
C92	C	0.725810	1.066553	0.822650
H93	H	0.680006	1.048286	0.776037
H94	H	0.641537	1.103441	0.841528
H95	H	0.847144	1.088215	0.815640
H96	H	0.578080	0.978175	0.943760
O97	O	0.562314	0.139331	0.222597
C98	C	0.460317	0.101413	0.258209
H99	H	0.450382	0.121079	0.307556
H100	H	0.338995	0.100673	0.235489
H101	H	0.509091	0.051828	0.260379
H102	H	0.578235	0.263195	0.228833
H103	H	0.783064	0.802908	0.742113
O104	O	1.041058	0.470121	0.311584
C105	C	1.166534	0.427250	0.316030
H106	H	1.129330	0.380614	0.294947
H107	H	1.272669	0.446216	0.289486
H108	H	1.199067	0.420252	0.367250
H109	H	1.018697	0.346354	0.310792
H110	H	0.943762	0.144452	0.374433
O111	O	0.562375	0.984467	1.067705
C112	C	0.460364	0.948887	1.105646
H113	H	0.515751	0.901364	1.115469
H114	H	0.439522	0.974439	1.151643
H115	H	0.343333	0.942087	1.080507
H116	H	0.502907	0.464929	0.292561
O117	O	0.480563	0.341169	0.291715
C118	C	0.355092	0.384046	0.287293
H119	H	0.401131	0.430721	0.269173
H120	H	0.262488	0.365145	0.253707
H121	H	0.300196	0.390942	0.335420
O122	O	0.561936	0.543057	0.222613
C123	C	0.404627	0.558979	0.236221
H124	H	0.401211	0.606464	0.260313
H125	H	0.334097	0.561244	0.190959
H126	H	0.351367	0.522106	0.268394
H127	H	0.577900	0.978019	0.540122
