data_functionalizedCrystal
_audit_creation_method	'MofGen! by Chris Wilmer'
_symmetry_space_group_name_H-M	'P1'
_symmetry_Int_Tables_number	1
_symmetry_cell_setting	triclinic
loop_
_symmetry_equiv_pos_as_xyz
  x,y,z
_cell_length_a	12.594516
_cell_length_b	21.395364
_cell_length_c	21.395356
_cell_angle_alpha	90.024334
_cell_angle_beta	89.979423
_cell_angle_gamma	89.967246
loop_
_atom_site_label
_atom_site_type_symbol
_atom_site_fract_x
_atom_site_fract_y
_atom_site_fract_z
Zn1	Zn	-0.423295	-0.957917	-0.354305
Zn2	Zn	0.076705	-0.457917	0.145695
Zn3	Zn	-0.601288	-0.957848	-0.249540
Zn4	Zn	-0.101288	-0.457848	0.250460
Zn5	Zn	-0.423375	-0.853134	-0.249540
Zn6	Zn	0.076625	-0.353134	0.250460
Zn7	Zn	-0.601283	-0.853128	-0.354279
Zn8	Zn	-0.101283	-0.353128	0.145721
O9	O	-0.512310	-0.905507	-0.301916
O10	O	-0.012310	-0.405507	0.198084
O11	O	-0.446874	-1.045586	-0.340418
O12	O	0.053126	-0.545586	0.159582
O13	O	-0.577722	-0.943931	-0.161862
O14	O	-0.077722	-0.443931	0.338138
O15	O	-0.274419	-0.867065	-0.263448
O16	O	0.225581	-0.367065	0.236552
O17	O	-0.577644	-1.045535	-0.263448
O18	O	-0.077644	-0.545535	0.236552
O19	O	-0.274360	-0.944049	-0.340418
O20	O	0.225640	-0.444049	0.159582
O21	O	-0.447011	-0.866998	-0.161862
O22	O	0.052989	-0.366998	0.338138
O23	O	-0.447007	-0.765455	-0.263423
O24	O	0.052993	-0.265455	0.236577
O25	O	-0.577637	-0.867055	-0.441961
O26	O	-0.077637	-0.367055	0.058039
O27	O	-0.577716	-0.765451	-0.340375
O28	O	-0.077716	-0.265451	0.159625
O29	O	-0.446870	-0.944043	-0.441979
O30	O	0.053130	-0.444043	0.058021
O31	O	-0.750233	-0.943926	-0.263424
O32	O	-0.250233	-0.443926	0.236576
O33	O	-0.750230	-0.866988	-0.340375
O34	O	-0.250230	-0.366988	0.159625
C35	C	-0.512371	-0.742719	-0.301896
C36	C	-0.012371	-0.242719	0.198104
C37	C	-0.512422	-0.673078	-0.301903
C38	C	-0.012422	-0.173078	0.198097
C39	C	-0.444443	-0.640414	-0.342043
C40	C	0.055557	-0.140414	0.157957
C41	C	-0.444418	-0.574978	-0.342044
C42	C	0.055582	-0.074978	0.157956
C43	C	-0.512391	-0.542210	-0.301913
C44	C	-0.012391	-0.042210	0.198087
C45	C	-0.580375	-0.574882	-0.261765
C46	C	-0.080375	-0.074882	0.238235
C47	C	-0.580390	-0.640316	-0.261760
C48	C	-0.080390	-0.140316	0.238240
C49	C	-0.608251	-0.438500	-0.296881
C50	C	-0.108251	0.061500	0.203119
C51	C	-0.608238	-0.373067	-0.296890
C52	C	-0.108238	0.126933	0.203110
C53	C	-0.512343	-0.340389	-0.301924
C54	C	-0.012343	0.159611	0.198076
C55	C	-0.416459	-0.373152	-0.306962
C56	C	0.083541	0.126848	0.193038
C57	C	-0.416474	-0.438586	-0.306957
C58	C	0.083526	0.061414	0.193043
C59	C	-0.512381	-0.471257	-0.301913
C60	C	-0.012381	0.028743	0.198087
C61	C	-0.444331	-0.236772	-0.342068
C62	C	0.055669	0.263228	0.157932
C63	C	-0.444304	-0.171335	-0.342065
C64	C	0.055696	0.328665	0.157935
C65	C	-0.580271	-0.171240	-0.261789
C66	C	-0.080271	0.328760	0.238211
C67	C	-0.580288	-0.236676	-0.261788
C68	C	-0.080288	0.263324	0.238212
C69	C	-0.512320	-0.269438	-0.301931
C70	C	-0.012320	0.230562	0.198069
C71	C	-0.788851	-0.905466	-0.301910
C72	C	-0.288851	-0.405466	0.198090
C73	C	-0.907157	-0.905505	-0.301928
C74	C	-0.407157	-0.405505	0.198072
C75	C	-0.976447	-0.863655	-0.343753
C76	C	-0.476447	-0.363655	0.156247
C77	C	-1.047310	-0.848387	-0.286580
C78	C	-0.547310	-0.348387	0.213420
C79	C	-1.047092	-0.920831	-0.359110
C80	C	-0.547092	-0.420831	0.140890
C81	C	-0.976462	-0.890207	-0.244726
C82	C	-0.476462	-0.390207	0.255274
C83	C	-0.976238	-0.962678	-0.317294
C84	C	-0.476238	-0.462678	0.182706
C85	C	-1.047069	-0.947431	-0.260083
C86	C	-0.547069	-0.447431	0.239917
C87	C	-0.234689	-0.905565	-0.301936
C88	C	0.265311	-0.405565	0.198064
C89	C	-0.116384	-0.905590	-0.301945
C90	C	0.383616	-0.405590	0.198055
C91	C	-0.512244	-0.905556	-0.465340
C92	C	-0.012244	-0.405556	0.034660
C93	C	-0.512216	-0.905577	-0.534981
C94	C	-0.012216	-0.405577	-0.034981
C95	C	-0.512264	-0.068930	-0.301933
C96	C	-0.012264	0.431070	0.198067
C97	C	-0.512277	-0.138571	-0.301932
C98	C	-0.012277	0.361429	0.198068
C99	C	-0.444147	-0.865529	-0.567684
C100	C	0.055853	-0.365529	-0.067684
C101	C	-0.444127	-0.865527	-0.633119
C102	C	0.055873	-0.365527	-0.133119
C103	C	-0.512166	-0.905584	-0.665849
C104	C	-0.012166	-0.405584	-0.165849
C105	C	-0.580248	-0.945635	-0.633138
C106	C	-0.080248	-0.445635	-0.133138
C107	C	-0.580273	-0.945632	-0.567704
C108	C	-0.080273	-0.445632	-0.067704
C109	C	-0.520506	-0.962037	-0.769537
C110	C	-0.020506	-0.462037	-0.269537
C111	C	-0.520473	-0.962042	-0.834970
C112	C	-0.020473	-0.462042	-0.334970
C113	C	-0.512094	-0.905594	-0.867670
C114	C	-0.012094	-0.405594	-0.367670
C115	C	-0.503725	-0.849141	-0.834929
C116	C	-0.003725	-0.349141	-0.334929
C117	C	-0.503750	-0.849137	-0.769495
C118	C	-0.003750	-0.349137	-0.269495
C119	C	-0.512146	-0.905592	-0.736802
C120	C	-0.012146	-0.405592	-0.236802
C121	C	-0.444000	-0.865540	-0.971326
C122	C	0.056000	-0.365540	-0.471326
C123	C	-0.443987	-0.865537	-1.036762
C124	C	0.056013	-0.365537	-0.536762
C125	C	-0.580102	-0.945651	-1.036780
C126	C	-0.080102	-0.445651	-0.536780
C127	C	-0.580120	-0.945649	-0.971344
C128	C	-0.080120	-0.445649	-0.471344
C129	C	-0.512063	-0.905594	-0.938621
C130	C	-0.012063	-0.405594	-0.438621
C131	C	-0.512299	-0.905494	-0.139129
C132	C	-0.012299	-0.405494	0.360871
C133	C	-0.512027	-0.905594	-0.069488
C134	C	-0.012027	-0.405594	0.430512
H135	H	-0.338372	-0.346547	-0.311061
H136	H	0.161628	0.153453	0.188939
H137	H	-0.945436	-0.828200	-0.379071
H138	H	-0.445436	-0.328200	0.120929
H139	H	-1.077883	-0.982859	-0.224679
H140	H	-0.577883	-0.482859	0.275321
H141	H	-0.635718	-0.548198	-0.229089
H142	H	-0.135718	-0.048198	0.270911
H143	H	-0.635498	-0.978268	-1.063428
H144	H	-0.135498	-0.478268	-0.563428
H145	H	-1.078551	-0.800077	-0.273597
H146	H	-0.578551	-0.300077	0.226403
H147	H	-0.388980	-0.263448	-0.374750
H148	H	0.111020	0.236552	0.125250
H149	H	-0.945000	-1.010977	-0.330305
H150	H	-0.445000	-0.510977	0.169695
H151	H	-0.388734	-0.832911	-0.541045
H152	H	0.111266	-0.332911	-0.041045
H153	H	-0.496938	-0.803171	-0.742840
H154	H	0.003062	-0.303171	-0.242840
H155	H	-1.078118	-0.933759	-0.407462
H156	H	-0.578118	-0.433759	0.092538
H157	H	-0.388692	-0.832915	-0.659752
H158	H	0.111308	-0.332915	-0.159752
H159	H	-0.527320	-1.008007	-0.742918
H160	H	-0.027320	-0.508007	-0.242918
H161	H	-0.388941	-0.144741	-0.374750
H162	H	0.111059	0.355259	0.125250
H163	H	-0.389056	-0.548378	-0.374730
H164	H	0.110944	-0.048378	0.125270
H165	H	-0.635616	-0.144561	-0.229113
H166	H	-0.135616	0.355439	0.270887
H167	H	-0.388584	-0.832925	-0.944681
H168	H	0.111416	-0.332925	-0.444681
H169	H	-0.945565	-0.877223	-0.196361
H170	H	-0.445565	-0.377223	0.303639
H171	H	-0.635649	-0.263271	-0.229105
H172	H	-0.135649	0.236729	0.270895
H173	H	-0.496894	-0.803176	-0.861552
H174	H	0.003106	-0.303176	-0.361552
H175	H	-0.686312	-0.346396	-0.292791
H176	H	-0.186312	0.153604	0.207209
H177	H	-0.388561	-0.832920	-1.063388
H178	H	0.111439	-0.332920	-0.563388
H179	H	-0.635547	-0.978262	-0.944717
H180	H	-0.135547	-0.478262	-0.444717
H181	H	-0.527282	-1.008010	-0.861622
H182	H	-0.027282	-0.508010	-0.361622
H183	H	-0.635645	-0.978250	-0.659791
H184	H	-0.135645	-0.478250	-0.159791
H185	H	-0.635702	-0.978247	-0.541077
H186	H	-0.135702	-0.478247	-0.041077
H187	H	-0.635749	-0.666911	-0.229073
H188	H	-0.135749	-0.166911	0.270927
H189	H	-0.338403	-0.465259	-0.311057
H190	H	0.161597	0.034741	0.188943
H191	H	-0.686346	-0.465101	-0.292781
H192	H	-0.186346	0.034899	0.207219
H193	H	-0.389097	-0.667084	-0.374730
H194	H	0.110903	-0.167084	0.125270
