data_functionalizedCrystal
_audit_creation_method	'MofGen! by Chris Wilmer'
_symmetry_space_group_name_H-M	'P1'
_symmetry_Int_Tables_number	1
_symmetry_cell_setting	triclinic
loop_
_symmetry_equiv_pos_as_xyz
  x,y,z
_cell_length_a	19.805407
_cell_length_b	12.759394
_cell_length_c	19.805399
_cell_angle_alpha	89.976320
_cell_angle_beta	89.984884
_cell_angle_gamma	90.011172
loop_
_atom_site_label
_atom_site_type_symbol
_atom_site_fract_x
_atom_site_fract_y
_atom_site_fract_z
Zn1	Zn	1.034777	-0.418351	-0.382713
Zn2	Zn	1.534777	0.081649	0.117287
Zn3	Zn	1.034722	-0.594049	-0.269535
Zn4	Zn	1.534722	-0.094049	0.230465
Zn5	Zn	0.921597	-0.418377	-0.269541
Zn6	Zn	1.421597	0.081623	0.230459
Zn7	Zn	0.921580	-0.593981	-0.382685
Zn8	Zn	1.421580	-0.093981	0.117315
O9	O	0.978169	-0.506190	-0.326118
O10	O	1.478169	-0.006190	0.173882
O11	O	1.129486	-0.441676	-0.367708
O12	O	1.629486	0.058324	0.132292
O13	O	1.019700	-0.570785	-0.174819
O14	O	1.519700	-0.070785	0.325181
O15	O	0.936640	-0.271352	-0.284567
O16	O	1.436640	0.228648	0.215433
O17	O	1.129446	-0.570761	-0.284557
O18	O	1.629446	-0.070761	0.215443
O19	O	1.019793	-0.271334	-0.367714
O20	O	1.519793	0.228666	0.132286
O21	O	0.936587	-0.441719	-0.174823
O22	O	1.436587	0.058281	0.325177
O23	O	0.826878	-0.441653	-0.284541
O24	O	1.326878	0.058347	0.215459
O25	O	0.936611	-0.570644	-0.477405
O26	O	1.436611	-0.070644	0.022595
O27	O	0.826865	-0.570668	-0.367667
O28	O	1.326865	-0.070668	0.132333
O29	O	1.019777	-0.441610	-0.477426
O30	O	1.519777	0.058390	0.022574
O31	O	1.019683	-0.741061	-0.284531
O32	O	1.519683	-0.241061	0.215469
O33	O	0.936558	-0.741011	-0.367662
O34	O	1.436558	-0.241011	0.132338
C35	C	0.802313	-0.506157	-0.326102
C36	C	1.302313	-0.006157	0.173898
C37	C	0.727081	-0.506168	-0.326111
C38	C	1.227081	-0.006168	0.173889
C39	C	0.691758	-0.439073	-0.369474
C40	C	1.191758	0.060927	0.130526
C41	C	0.621070	-0.439078	-0.369476
C42	C	1.121070	0.060922	0.130524
C43	C	0.585705	-0.506185	-0.326119
C44	C	1.085705	-0.006185	0.173881
C45	C	0.621033	-0.573283	-0.282752
C46	C	1.121033	-0.073283	0.217248
C47	C	0.691720	-0.573272	-0.282746
C48	C	1.191720	-0.073272	0.217254
C49	C	0.335959	-0.573330	-0.282772
C50	C	0.835959	-0.073330	0.217228
C51	C	0.265267	-0.573339	-0.282783
C52	C	0.765267	-0.073339	0.217217
C53	C	0.265309	-0.439137	-0.369502
C54	C	0.765309	0.060863	0.130498
C55	C	0.335997	-0.439125	-0.369497
C56	C	0.835997	0.060875	0.130503
C57	C	0.371318	-0.506219	-0.326127
C58	C	0.871318	-0.006219	0.173873
C59	C	0.447966	-0.506211	-0.326124
C60	C	0.947966	-0.006211	0.173876
C61	C	0.509058	-0.506199	-0.326125
C62	C	1.009058	-0.006199	0.173875
C63	C	0.978131	-0.779157	-0.326107
C64	C	1.478131	-0.279157	0.173893
C65	C	0.978177	-0.895934	-0.326125
C66	C	1.478177	-0.395934	0.173875
C67	C	1.064699	-0.895756	-0.412771
C68	C	1.564699	-0.395756	0.087229
C69	C	1.107982	-0.950528	-0.456099
C70	C	1.607982	-0.450528	0.043901
C71	C	1.108022	-1.060250	-0.456113
C72	C	1.608022	-0.560250	0.043887
C73	C	1.064774	-1.115202	-0.412797
C74	C	1.564774	-0.615202	0.087203
C75	C	1.021491	-1.060430	-0.369469
C76	C	1.521491	-0.560430	0.130531
C77	C	1.021457	-0.950706	-0.369457
C78	C	1.521457	-0.450706	0.130543
C79	C	0.934966	-1.060607	-0.282827
C80	C	1.434966	-0.560607	0.217173
C81	C	0.934929	-0.950886	-0.282808
C82	C	1.434929	-0.450886	0.217192
C83	C	0.891718	-1.115559	-0.239511
C84	C	1.391718	-0.615559	0.260489
C85	C	0.848438	-1.060787	-0.196178
C86	C	1.348438	-0.560787	0.303822
C87	C	0.848400	-0.951059	-0.196165
C88	C	1.348400	-0.451059	0.303835
C89	C	0.891646	-0.896114	-0.239480
C90	C	1.391646	-0.396114	0.260520
C91	C	1.154711	-0.506223	-0.326135
C92	C	1.654711	-0.006223	0.173865
C93	C	1.229943	-0.506238	-0.326142
C94	C	1.729943	-0.006238	0.173858
C95	C	0.978198	-0.506117	-0.502661
C96	C	1.478198	-0.006117	-0.002661
C97	C	0.978211	-0.506086	-0.577893
C98	C	1.478211	-0.006086	-0.077893
C99	C	0.978225	-0.232156	-0.326144
C100	C	1.478225	0.267844	0.173856
C101	C	0.978249	-0.115379	-0.326155
C102	C	1.478249	0.384621	0.173845
C103	C	0.934947	-0.438875	-0.613239
C104	C	1.434947	0.061125	-0.113239
C105	C	0.934956	-0.438854	-0.683928
C106	C	1.434956	0.061146	-0.183928
C107	C	0.978234	-0.506040	-0.719269
C108	C	1.478234	-0.006040	-0.219269
C109	C	1.021500	-0.573259	-0.683918
C110	C	1.521500	-0.073259	-0.183918
C111	C	1.021487	-0.573284	-0.613231
C112	C	1.521487	-0.073284	-0.113231
C113	C	1.021553	-0.573160	-0.968991
C114	C	1.521553	-0.073160	-0.468991
C115	C	1.021565	-0.573128	-1.039684
C116	C	1.521565	-0.073128	-0.539684
C117	C	0.935023	-0.438731	-1.039688
C118	C	1.435023	0.061269	-0.539688
C119	C	0.935010	-0.438756	-0.969001
C120	C	1.435010	0.061244	-0.469001
C121	C	0.978273	-0.505978	-0.933656
C122	C	1.478273	-0.005978	-0.433656
C123	C	0.978262	-0.506000	-0.857008
C124	C	1.478262	-0.006000	-0.357008
C125	C	0.978249	-0.506013	-0.795916
C126	C	1.478249	-0.006013	-0.295916
C127	C	0.978178	-0.506186	-0.150262
C128	C	1.478178	-0.006186	0.349738
C129	C	0.978297	-0.505921	-0.075031
C130	C	1.478297	-0.005921	0.424969
H131	H	0.364709	-0.627964	-0.247459
H132	H	0.864709	-0.127964	0.252541
H133	H	1.056734	-0.627968	-0.712699
H134	H	1.556734	-0.127968	-0.212699
H135	H	0.236542	-0.384502	-0.404814
H136	H	0.736542	0.115498	0.095186
H137	H	0.720547	-0.384429	-0.404782
H138	H	1.220547	0.115571	0.095218
C139	C	1.155540	-0.890085	-0.503757
C140	C	1.655540	-0.390085	-0.003757
H141	H	1.181315	-0.938421	-0.529570
H142	H	1.681315	-0.438421	-0.029570
H143	H	1.185035	-0.847262	-0.477897
H144	H	1.685035	-0.347262	0.022103
H145	H	1.129602	-0.847297	-0.533221
H146	H	1.629602	-0.347297	-0.033221
H147	H	0.720478	-0.627907	-0.247435
H148	H	1.220478	-0.127907	0.252565
C149	C	1.069169	-0.647041	-1.078558
C150	C	1.569169	-0.147041	-0.578558
H151	H	1.094929	-0.687087	-1.047385
H152	H	1.594929	-0.187087	-0.547385
H153	H	1.098675	-0.606849	-1.106139
H154	H	1.598675	-0.106849	-0.606139
H155	H	1.043265	-0.692800	-1.106126
H156	H	1.543265	-0.192800	-0.606126
H157	H	0.899709	-0.384158	-0.584469
H158	H	1.399709	0.115842	-0.084469
H159	H	0.592233	-0.627918	-0.247446
H160	H	1.092233	-0.127918	0.252554
C161	C	1.064658	-0.775066	-0.412756
C162	C	1.564658	-0.275066	0.087244
H163	H	1.096609	-0.750183	-0.444761
H164	H	1.596609	-0.250183	0.055239
H165	H	1.076374	-0.750269	-0.369084
H166	H	1.576374	-0.250269	0.130916
H167	H	1.020962	-0.750287	-0.424429
H168	H	1.520962	-0.250287	0.075571
C169	C	0.800872	-1.121234	-0.148537
C170	C	1.300872	-0.621234	0.351463
H171	H	0.807095	-1.194424	-0.154751
H172	H	1.307095	-0.694424	0.345249
H173	H	0.755383	-1.103292	-0.158399
H174	H	1.255383	-0.603292	0.341601
H175	H	0.810803	-1.103291	-0.103062
H176	H	1.310803	-0.603291	0.396938
H177	H	0.813152	-0.906469	-0.160885
H178	H	1.313152	-0.406469	0.339115
H179	H	1.056774	-0.627908	-0.940222
H180	H	1.556774	-0.127908	-0.440222
C181	C	0.891603	-0.775423	-0.239472
C182	C	1.391603	-0.275423	0.260528
H183	H	0.923553	-0.750545	-0.271478
H184	H	1.423553	-0.250545	0.228522
H185	H	0.903319	-0.750618	-0.195802
H186	H	1.403319	-0.250618	0.304198
H187	H	0.847906	-0.750648	-0.251146
H188	H	1.347906	-0.250648	0.248854
C189	C	0.887423	-0.364803	-1.078569
C190	C	1.387423	0.135197	-0.578569
H191	H	0.893620	-0.374417	-1.125729
H192	H	1.393620	0.125583	-0.625729
H193	H	0.897338	-0.294217	-1.066996
H194	H	1.397338	0.205783	-0.566996
H195	H	0.841940	-0.380185	-1.066974
H196	H	1.341940	0.119815	-0.566974
H197	H	0.899723	-0.384128	-0.712703
H198	H	1.399723	0.115872	-0.212703
H199	H	0.236475	-0.627988	-0.247473
H200	H	0.736475	-0.127988	0.252527
C201	C	1.069076	-0.647213	-0.574347
C202	C	1.569076	-0.147213	-0.074347
H203	H	1.062865	-0.637614	-0.527187
H204	H	1.562865	-0.137614	-0.027187
H205	H	1.114560	-0.631848	-0.585935
H206	H	1.614560	-0.131848	-0.085935
H207	H	1.059151	-0.717800	-0.585924
H208	H	1.559151	-0.217800	-0.085924
C209	C	0.582218	-0.365275	-0.417177
C210	C	1.082218	0.134725	0.082823
H211	H	0.613404	-0.325317	-0.443003
H212	H	1.113404	0.174683	0.056997
H213	H	0.554638	-0.319447	-0.391339
H214	H	1.054638	0.180553	0.108661
H215	H	0.554650	-0.405535	-0.446627
H216	H	1.054650	0.094465	0.053373
H217	H	0.364787	-0.384483	-0.404805
H218	H	0.864787	0.115517	0.095195
H219	H	1.143259	-1.104845	-0.491402
H220	H	1.643259	-0.604845	0.008598
C221	C	1.064816	-1.235892	-0.412816
C222	C	1.564816	-0.735892	0.087184
H223	H	1.096788	-1.260642	-0.444823
H224	H	1.596788	-0.760642	0.055177
H225	H	1.021139	-1.260753	-0.424485
H226	H	1.521139	-0.760753	0.075515
H227	H	1.076559	-1.260741	-0.369148
H228	H	1.576559	-0.760741	0.130852
C229	C	0.891758	-1.236250	-0.239525
C230	C	1.391758	-0.736250	0.260475
H231	H	0.859800	-1.261130	-0.207527
H232	H	1.359800	-0.761130	0.292473
H233	H	0.935450	-1.261035	-0.227858
H234	H	1.435450	-0.761035	0.272142
H235	H	0.880034	-1.261043	-0.283199
H236	H	1.380034	-0.761043	0.216801
C237	C	0.887402	-0.364856	-0.930129
C238	C	1.387402	0.135144	-0.430129
H239	H	0.861631	-0.324831	-0.961305
H240	H	1.361631	0.175169	-0.461305
H241	H	0.913295	-0.319093	-0.902559
H242	H	1.413295	0.180907	-0.402559
H243	H	0.857896	-0.405062	-0.902550
H244	H	1.357896	0.094938	-0.402550
