data_functionalizedCrystal
_audit_creation_method	'MofGen! by Chris Wilmer'
_symmetry_space_group_name_H-M	'P1'
_symmetry_Int_Tables_number	1
_symmetry_cell_setting	triclinic
loop_
_symmetry_equiv_pos_as_xyz
  x,y,z
_cell_length_a	12.759401
_cell_length_b	12.759394
_cell_length_c	12.759393
_cell_angle_alpha	89.968618
_cell_angle_beta	89.982824
_cell_angle_gamma	90.014998
loop_
_atom_site_label
_atom_site_type_symbol
_atom_site_fract_x
_atom_site_fract_y
_atom_site_fract_z
Zn1	Zn	1.606241	-0.418209	-0.593976
Zn2	Zn	1.606139	-0.593926	-0.418294
Zn3	Zn	1.430547	-0.418262	-0.418315
Zn4	Zn	1.430531	-0.593848	-0.593935
O5	O	1.518364	-0.506061	-0.506130
O6	O	1.753248	-0.441529	-0.570679
O7	O	1.582810	-0.570678	-0.271276
O8	O	1.453902	-0.271234	-0.441643
O9	O	1.753173	-0.570627	-0.441607
O10	O	1.582984	-0.271195	-0.570700
O11	O	1.453803	-0.441618	-0.271291
O12	O	1.283524	-0.441543	-0.441604
O13	O	1.453875	-0.570494	-0.740962
O14	O	1.283512	-0.570545	-0.570631
O15	O	1.582968	-0.441454	-0.740992
O16	O	1.582795	-0.740936	-0.441567
O17	O	1.453776	-0.740879	-0.570610
C18	C	1.245397	-0.506042	-0.506116
C19	C	1.128620	-0.506059	-0.506135
C20	C	1.518301	-0.779029	-0.506105
C21	C	1.518370	-0.895805	-0.506129
C22	C	1.073780	-0.573338	-0.573208
C23	C	0.964056	-0.573351	-0.573219
C24	C	0.964022	-0.438803	-0.439075
C25	C	1.073744	-0.438786	-0.439070
C26	C	1.128655	-0.640611	-0.640273
C27	C	1.073815	-0.707896	-0.707351
C28	C	0.964091	-0.707909	-0.707362
C29	C	0.909207	-0.640637	-0.640296
C30	C	1.652818	-0.895812	-0.371857
C31	C	1.720069	-0.950676	-0.304734
C32	C	1.720131	-1.060397	-0.304762
C33	C	1.652936	-1.115257	-0.371924
C34	C	1.585685	-1.060393	-0.439047
C35	C	1.585628	-0.950669	-0.439009
C36	C	1.451244	-1.060387	-0.573323
C37	C	1.451176	-0.950665	-0.573291
C38	C	1.384050	-1.115247	-0.640484
C39	C	1.316792	-1.060383	-0.707604
C40	C	1.316732	-0.950655	-0.707572
C41	C	1.383925	-0.895801	-0.640414
C42	C	1.792397	-0.506081	-0.506145
C43	C	1.909174	-0.506090	-0.506151
C44	C	1.518431	-0.505959	-0.780164
C45	C	1.518460	-0.505916	-0.896940
C46	C	1.518456	-0.232028	-0.506179
C47	C	1.518495	-0.115251	-0.506199
C48	C	1.451264	-0.573076	-0.951789
C49	C	1.451302	-0.573038	-1.061513
C50	C	1.585736	-0.438671	-1.061531
C51	C	1.585702	-0.438715	-0.951809
C52	C	1.384021	-0.640277	-0.896920
C53	C	1.316819	-0.707441	-0.951769
C54	C	1.316857	-0.707403	-1.061493
C55	C	1.384098	-0.640201	-1.116369
C56	C	1.518358	-0.506087	-0.233163
C57	C	1.518533	-0.505834	-0.116387
H58	H	1.217998	-0.640609	-0.640269
H59	H	1.774781	-0.905999	-0.250053
Cl60	Cl	1.670258	-0.354191	-1.130518
Cl61	Cl	1.232386	-0.791847	-1.130442
H62	H	1.653001	-1.204598	-0.371950
Cl63	Cl	1.653041	-0.757875	-0.372111
Cl64	Cl	1.804680	-1.129372	-0.220383
H65	H	1.383876	-0.806460	-0.640375
H66	H	1.640418	-0.384026	-0.907150
Cl67	Cl	1.383683	-1.253182	-0.640076
H68	H	1.262092	-1.105059	-0.762287
Cl69	Cl	1.232188	-0.881692	-0.791967
Cl70	Cl	1.142809	-0.792455	-0.791664
H71	H	0.919442	-0.762689	-0.761988
H72	H	0.819863	-0.640645	-0.640319
H73	H	1.383981	-0.640314	-0.807577
H74	H	1.384131	-0.640182	-1.205713
Cl75	Cl	1.232301	-0.791928	-0.882784
H76	H	1.118397	-0.383993	-0.384461
Cl77	Cl	0.895025	-0.354242	-0.354766
