data_functionalizedCrystal
_audit_creation_method	'MofGen! by Chris Wilmer'
_symmetry_space_group_name_H-M	'P1'
_symmetry_Int_Tables_number	1
_symmetry_cell_setting	triclinic
loop_
_symmetry_equiv_pos_as_xyz
  x,y,z
_cell_length_a	16.992694
_cell_length_b	15.538191
_cell_length_c	15.455313
_cell_angle_alpha	91.603349
_cell_angle_beta	87.142206
_cell_angle_gamma	68.970158
loop_
_atom_site_label
_atom_site_type_symbol
_atom_site_fract_x
_atom_site_fract_y
_atom_site_fract_z
O1	O	0.989241	0.191780	-0.072014
O2	O	0.761568	0.189633	-0.072040
O3	O	0.919723	0.056913	-0.072026
O4	O	0.831085	0.324499	-0.072028
O5	O	0.910688	0.064469	0.072235
O6	O	0.752533	0.197189	0.072222
O7	O	0.980206	0.199336	0.072247
Cu8	Cu	0.865545	0.198952	0.085407
Cu9	Cu	0.876229	0.190016	-0.085199
O10	O	0.822051	0.332055	0.072233
C11	C	0.728624	0.190651	0.000088
C12	C	0.643924	0.182416	0.000078
C13	C	0.571070	0.261869	0.000078
C14	C	0.491487	0.254127	0.000090
C15	C	0.484758	0.166930	0.000095
C16	C	0.557620	0.087471	0.000098
C17	C	0.637201	0.095214	0.000092
C18	C	0.250294	0.134837	0.000119
C19	C	0.170704	0.127099	0.000122
C20	C	0.104576	0.293756	0.000116
C21	C	0.184162	0.301491	0.000105
C22	C	0.257016	0.222033	0.000112
N23	N	0.403412	0.159014	0.000105
N24	N	0.338360	0.229950	0.000108
C25	C	0.924480	0.026294	0.000103
C26	C	0.952104	-0.076201	0.000097
C27	C	0.677671	-0.384652	0.000085
C28	C	0.703646	-0.480962	0.000090
C29	C	0.849754	-0.492404	0.000106
C30	C	0.823791	-0.396094	0.000097
C31	C	0.737748	-0.342224	0.000087
C32	C	0.883868	-0.353667	0.000099
C33	C	0.857907	-0.257364	0.000095
C34	C	0.771868	-0.203488	0.000088
C35	C	0.711786	-0.245922	0.000083
C36	C	0.969911	-0.407537	0.000115
C37	C	1.029988	-0.365110	0.000117
C38	C	1.004027	-0.268806	0.000106
C39	C	0.917988	-0.214930	0.000099
C40	C	1.064108	-0.226373	0.000111
C41	C	1.038146	-0.130070	0.000107
C42	C	0.892026	-0.118628	0.000095
C43	C	1.013150	0.198318	0.000118
C44	C	1.097851	0.206553	0.000122
C45	C	0.817294	0.362675	0.000103
C46	C	0.789671	0.465169	0.000103
N47	N	0.858036	0.205237	0.205401
N48	N	0.883746	0.183724	-0.205194
C49	C	0.925237	0.148877	0.250801
C50	C	0.919563	0.153639	0.341609
C51	C	0.846689	0.214767	0.387015
C52	C	0.779482	0.271130	0.341608
C53	C	0.785154	0.266362	0.250803
C54	C	0.822212	0.235320	0.658594
C55	C	0.816545	0.240085	0.749406
C56	C	0.956626	0.122592	0.749400
C57	C	0.962294	0.117834	0.658593
C58	C	0.895085	0.174194	0.613194
N59	N	0.840889	0.219638	0.479834
N60	N	0.900884	0.169317	0.520376
H61	H	0.045251	0.358447	0.000112
C62	C	1.042452	0.050588	0.608653
H63	H	1.081660	0.017697	0.648698
H64	H	1.067169	0.084330	0.573219
H65	H	1.027978	0.008237	0.573240
C66	C	1.030544	0.060594	0.799340
H67	H	1.016729	0.072180	0.859924
H68	H	1.079845	0.073716	0.784450
H69	H	1.040650	-0.002373	0.784464
C70	C	0.717343	0.007819	0.000091
H71	H	0.765701	0.024918	0.000096
H72	H	0.721034	-0.030328	-0.050213
H73	H	0.714739	-0.025047	0.050408
C74	C	0.163306	0.031179	0.000130
H75	H	0.218092	-0.015035	0.000140
H76	H	0.136781	0.022059	-0.050177
H77	H	0.130488	0.027336	0.050444
C78	C	0.736354	0.307276	0.799351
H79	H	0.697128	0.340139	0.759309
H80	H	0.750774	0.349644	0.834788
H81	H	0.711674	0.273475	0.834760
H82	H	0.821962	-0.074764	0.000081
C83	C	0.617141	-0.186660	0.000064
H84	H	0.585075	-0.225719	0.000065
H85	H	0.607133	-0.151492	-0.050245
H86	H	0.600824	-0.146218	0.050376
C87	C	1.124630	-0.424366	0.000124
H88	H	1.156691	-0.385303	0.000129
H89	H	1.140943	-0.464811	-0.050180
H90	H	1.134646	-0.459531	0.050441
H91	H	0.767488	0.281212	0.621638
H92	H	0.720144	0.320898	0.378583
C93	C	0.711236	0.328363	0.200863
H94	H	0.667025	0.365458	0.240908
H95	H	0.690945	0.290900	0.165447
H96	H	0.730132	0.366995	0.165432
C97	C	0.330425	0.047437	0.000114
H98	H	0.378787	0.064531	0.000118
H99	H	0.334109	0.009298	-0.050193
H100	H	0.327823	0.014566	0.050427
H101	H	0.552135	0.016474	0.000115
C102	C	0.578464	0.357786	0.000071
H103	H	0.523673	0.403996	0.000081
H104	H	0.611277	0.361638	-0.050238
H105	H	0.604989	0.366906	0.050383
C106	C	0.583025	-0.325390	0.000066
H107	H	0.550959	-0.364449	0.000067
H108	H	0.573017	-0.290221	-0.050242
H109	H	0.566708	-0.284948	0.050378
H110	H	0.432169	0.318826	0.000089
H111	H	0.189632	0.372496	0.000090
H112	H	0.991046	-0.485953	0.000111
H113	H	0.654716	-0.515501	0.000100
C114	C	0.944395	-0.551665	0.000112
H115	H	0.951254	-0.615097	0.000109
H116	H	0.967014	-0.535595	0.050417
H117	H	0.973304	-0.540871	-0.050203
H118	H	1.087068	-0.095525	0.000110
C119	C	1.158749	-0.285630	0.000127
H120	H	1.190812	-0.246569	0.000133
H121	H	1.175067	-0.326080	-0.050173
H122	H	1.168758	-0.320790	0.050447
H123	H	0.750731	-0.125072	0.000089
H124	H	0.974283	0.107745	0.378573
C125	C	1.005398	0.081634	0.200863
H126	H	1.044603	0.048744	0.240910
H127	H	1.030117	0.115374	0.165430
H128	H	0.990925	0.039282	0.165451
