data_functionalizedCrystal
_audit_creation_method	'MofGen! by Chris Wilmer'
_symmetry_space_group_name_H-M	'P1'
_symmetry_Int_Tables_number	1
_symmetry_cell_setting	triclinic
loop_
_symmetry_equiv_pos_as_xyz
  x,y,z
_cell_length_a	15.995350
_cell_length_b	19.188930
_cell_length_c	14.472310
_cell_angle_alpha	89.993787
_cell_angle_beta	89.990621
_cell_angle_gamma	83.318578
loop_
_atom_site_label
_atom_site_type_symbol
_atom_site_fract_x
_atom_site_fract_y
_atom_site_fract_z
O1	O	1.110667	0.089991	-0.076773
O2	O	0.866851	0.101105	-0.076794
O3	O	0.995795	-0.006090	-0.076765
O4	O	0.981723	0.197186	-0.076802
O5	O	0.995762	-0.006083	0.076917
O6	O	0.866818	0.101111	0.076888
O7	O	1.110634	0.089998	0.076909
Cu8	Cu	0.988723	0.095555	0.090931
Cu9	Cu	0.988762	0.095547	-0.090816
O10	O	0.981690	0.197192	0.076880
C11	C	0.835641	0.100648	0.000045
C12	C	0.742696	0.099271	0.000038
C13	C	0.404967	0.094324	0.000058
C14	C	0.452680	0.017982	0.000415
C15	C	0.549365	0.019360	0.000062
C16	C	0.572518	0.096778	0.000049
C17	C	0.531312	0.134429	-0.087714
C18	C	0.434683	0.132511	-0.087781
C19	C	0.434301	0.134095	0.086984
C20	C	0.531246	0.134077	0.088137
C21	C	0.667211	0.098169	0.000040
C22	C	0.310274	0.092936	0.000060
C23	C	0.995323	-0.032099	0.000079
C24	C	0.993955	-0.109607	0.000087
C25	C	1.069615	-0.154338	0.000097
C26	C	1.068330	-0.227165	0.000082
C27	C	0.991380	-0.255258	0.000075
C28	C	0.915710	-0.210517	0.000059
C29	C	0.916997	-0.137691	0.000065
N30	N	0.932550	-0.363410	0.052371
N31	N	0.931332	-0.432592	0.052368
C32	C	0.987497	-0.474676	0.000056
N33	N	1.044938	-0.444967	-0.052240
N34	N	1.046158	-0.375779	-0.052233
C35	C	0.989976	-0.334224	0.000069
C36	C	1.061769	-0.598375	0.000050
C37	C	1.060480	-0.671204	0.000029
C38	C	0.907859	-0.654553	0.000015
C39	C	0.909149	-0.581727	0.000027
C40	C	0.986106	-0.553643	0.000048
C41	C	1.141843	0.090454	0.000068
C42	C	1.234789	0.091831	0.000069
C43	C	0.982162	0.223201	0.000034
C44	C	0.983530	0.300709	0.000020
N45	N	0.988701	0.095560	0.218762
N46	N	0.988790	0.095537	-0.218647
C47	C	0.988761	0.095545	0.592853
C48	C	0.919535	0.152710	0.553672
C49	C	0.919694	0.152918	0.446584
C50	C	0.988731	0.095552	0.407262
C51	C	1.076037	0.111464	0.446103
C52	C	1.075648	0.111870	0.553224
C53	C	0.971460	0.022298	0.553394
C54	C	0.969454	0.022787	0.446266
C55	C	0.988719	0.095555	0.302374
C56	C	0.988778	0.095543	0.697741
H57	H	0.402230	0.188560	-0.091773
H58	H	0.845205	-0.677425	0.000005
H59	H	0.847538	-0.545305	0.000023
C60	C	1.143711	-0.720409	0.000042
H61	H	1.189725	-0.693249	0.000065
H62	H	1.146400	-0.749158	-0.053552
H63	H	1.146362	-0.749169	0.053639
C64	C	0.832011	0.140125	0.411104
H65	H	0.795971	0.134756	0.462161
H66	H	0.836756	0.098755	0.374518
H67	H	0.809200	0.178986	0.374760
H68	H	0.545229	0.191306	-0.090987
C69	C	0.569781	0.099094	-0.175939
H70	H	0.610942	0.061402	-0.159477
H71	H	0.595401	0.132439	-0.211452
H72	H	0.526727	0.081626	-0.211309
H73	H	0.853057	-0.233394	0.000052
H74	H	0.546404	0.190533	0.093428
C75	C	0.427785	-0.023245	0.085432
H76	H	0.457265	-0.069172	0.084355
H77	H	0.368917	-0.026165	0.084265
H78	H	0.441828	0.000164	0.140131
C79	C	0.831569	0.140124	0.588513
H80	H	0.836268	0.099898	0.627272
H81	H	0.796509	0.132827	0.537276
H82	H	0.807663	0.179885	0.622509
C83	C	0.833768	-0.088485	0.000062
H84	H	0.787753	-0.115643	0.000060
H85	H	0.831109	-0.059720	-0.053525
H86	H	0.831088	-0.059740	0.053667
H87	H	1.128770	0.070935	0.420631
H88	H	0.930402	0.206759	0.580572
H89	H	0.930714	0.207273	0.420941
H90	H	0.909193	0.006998	0.580460
C91	C	1.096287	0.184034	0.586958
H92	H	1.104826	0.212827	0.535195
H93	H	1.145936	0.178151	0.623501
H94	H	1.050817	0.205652	0.622976
C95	C	1.147303	0.057763	0.588242
H96	H	1.176526	0.035637	0.536997
H97	H	1.124406	0.023454	0.624728
H98	H	1.185194	0.080827	0.624590
C99	C	0.406666	0.100386	0.176850
H100	H	0.376978	0.061735	0.162194
H101	H	0.371064	0.134077	0.211107
H102	H	0.454913	0.084530	0.212681
H103	H	1.021946	-0.020242	0.578732
C104	C	0.568257	0.096948	0.175850
H105	H	0.608697	0.058875	0.158868
H106	H	0.524419	0.079799	0.210319
H107	H	0.594511	0.129265	0.212469
H108	H	1.091696	0.164273	0.419257
H109	H	0.905232	0.010711	0.420881
H110	H	1.016620	-0.021746	0.419504
H111	H	0.433211	-0.012395	-0.062166
C112	C	0.587908	-0.020627	0.085042
H113	H	0.647185	-0.019836	0.084940
H114	H	0.575588	-0.067846	0.082874
H115	H	0.564736	0.001139	0.139743
C116	C	0.587170	-0.020889	-0.085065
H117	H	0.543427	-0.038141	-0.119571
H118	H	0.626278	-0.059097	-0.065494
H119	H	0.615115	0.009748	-0.122663
C120	C	0.391118	0.210132	0.087783
H121	H	0.409097	0.233898	0.140460
H122	H	0.331803	0.209868	0.090040
H123	H	0.405826	0.233541	0.033335
C124	C	0.410101	0.095408	-0.176388
H125	H	0.459148	0.081643	-0.212002
H126	H	0.372020	0.126599	-0.211479
H127	H	0.383984	0.055077	-0.160344
H128	H	1.132280	-0.131477	0.000112
H129	H	1.124432	-0.575508	0.000063
C130	C	1.151559	-0.276378	0.000101
H131	H	1.197575	-0.249222	0.000120
H132	H	1.154246	-0.305132	-0.053490
H133	H	1.154207	-0.305135	0.053701
