data_functionalizedCrystal
_audit_creation_method	'MofGen! by Chris Wilmer'
_symmetry_space_group_name_H-M	'P1'
_symmetry_Int_Tables_number	1
_symmetry_cell_setting	triclinic
loop_
_symmetry_equiv_pos_as_xyz
  x,y,z
_cell_length_a	17.699083
_cell_length_b	19.188930
_cell_length_c	16.176319
_cell_angle_alpha	89.988074
_cell_angle_beta	89.998611
_cell_angle_gamma	83.213899
loop_
_atom_site_label
_atom_site_type_symbol
_atom_site_fract_x
_atom_site_fract_y
_atom_site_fract_z
O1	O	1.003963	0.088294	-0.068640
O2	O	0.783569	0.099782	-0.068668
O3	O	0.900126	-0.007610	-0.068637
O4	O	0.887406	0.195687	-0.068671
O5	O	0.900110	-0.007617	0.068856
O6	O	0.783553	0.099775	0.068825
O7	O	1.003947	0.088288	0.068853
Cu8	Cu	0.893748	0.094031	0.081393
Cu9	Cu	0.893767	0.094039	-0.081208
O10	O	0.887390	0.195680	0.068822
C11	C	0.755365	0.099367	0.000075
C12	C	0.671348	0.098132	0.000065
C13	C	0.622644	0.161169	0.000055
C14	C	0.543702	0.160004	0.000065
C15	C	0.513466	0.095802	0.000081
C16	C	0.562176	0.032761	0.000093
C17	C	0.641117	0.033926	0.000088
C18	C	0.243819	0.028060	0.000115
C19	C	0.164873	0.026900	0.000117
C20	C	0.146405	0.154139	0.000092
C21	C	0.225345	0.155304	0.000087
C22	C	0.274049	0.092263	0.000104
C23	C	0.359646	0.093526	0.000094
C24	C	0.427870	0.094538	0.000085
C25	C	0.899706	-0.033625	0.000112
C26	C	0.898469	-0.111131	0.000119
C27	C	0.966861	-0.155978	0.000131
C28	C	0.965699	-0.228804	0.000118
C29	C	0.896142	-0.256778	0.000108
C30	C	0.827741	-0.211921	0.000091
C31	C	0.828905	-0.139098	0.000096
N32	N	0.842968	-0.364845	0.046893
N33	N	0.841868	-0.434025	0.046890
C34	C	0.892632	-0.476191	0.000091
N35	N	0.944550	-0.446565	-0.046694
N36	N	0.945653	-0.377379	-0.046687
C37	C	0.894873	-0.335742	0.000102
C38	C	0.959769	-0.600004	0.000088
C39	C	0.958604	-0.672830	0.000070
C40	C	0.820644	-0.655946	0.000051
C41	C	0.821811	-0.583121	0.000061
C42	C	0.891375	-0.555155	0.000084
C43	C	1.032151	0.088703	0.000108
C44	C	1.116167	0.089938	0.000113
C45	C	0.887810	0.221695	0.000071
C46	C	0.889046	0.299201	0.000059
N47	N	0.893741	0.094025	0.195758
N48	N	0.893781	0.094039	-0.195574
C49	C	0.945367	0.046491	0.239036
C50	C	0.945371	0.046490	0.325584
C51	C	0.893751	0.094027	0.368851
C52	C	0.842119	0.141563	0.325567
C53	C	0.842112	0.141560	0.239022
C54	C	0.842145	0.141576	0.674595
C55	C	0.842157	0.141577	0.761147
C56	C	0.945404	0.046506	0.761157
C57	C	0.945397	0.046503	0.674612
C58	C	0.893763	0.094036	0.631335
C59	C	0.893758	0.094036	0.537491
C60	C	0.893759	0.094031	0.462694
H61	H	0.249959	0.207584	0.000070
H62	H	0.647256	0.213450	0.000042
O63	O	0.688538	-0.027244	0.000132
C64	C	0.764696	-0.012450	0.000105
H65	H	0.767539	0.042386	0.026124
H66	H	0.800597	-0.052639	0.040030
H67	H	0.787534	-0.015133	-0.065858
H68	H	0.987405	0.007784	0.203814
O69	O	0.995554	0.000416	0.367719
C70	C	1.042128	0.037763	0.417749
H71	H	1.011795	0.092432	0.430698
H72	H	1.054203	0.008611	0.478617
H73	H	1.098044	0.042445	0.384390
O74	O	0.098986	0.215315	0.000120
C75	C	0.022826	0.200525	0.000110
H76	H	0.019981	0.145690	0.026155
H77	H	-0.013070	0.240716	0.040020
H78	H	-0.000017	0.203211	-0.065852
O79	O	1.027406	-0.572948	0.000059
C80	C	1.087524	-0.628152	0.000076
H81	H	1.066473	-0.677583	-0.025959
H82	H	1.136103	-0.613005	-0.039840
H83	H	1.108609	-0.638508	0.066038
H84	H	0.140258	-0.025384	0.000131
H85	H	1.014299	-0.709345	0.000076
O86	O	0.755304	-0.539652	0.000096
C87	C	0.693660	-0.579956	0.000064
H88	H	0.713049	-0.634348	0.026092
H89	H	0.645750	-0.553020	0.039979
H90	H	0.672334	-0.585090	-0.065901
O91	O	0.995569	0.000258	0.632711
C92	C	1.041150	-0.041688	0.689469
H93	H	1.010130	-0.042438	0.751167
H94	H	1.052880	-0.097462	0.664478
H95	H	1.097297	-0.019083	0.698657
O96	O	0.792038	0.187832	0.197015
C97	C	0.804096	0.256937	0.218154
H98	H	0.864690	0.257211	0.241937
H99	H	0.795266	0.291985	0.161228
H100	H	0.762082	0.277495	0.268389
H101	H	0.800119	0.180289	0.796374
O102	O	0.496499	0.221303	0.000018
C103	C	0.540114	0.278219	0.000019
H104	H	0.599091	0.260397	-0.026015
H105	H	0.510844	0.322379	-0.039906
H106	H	0.545676	0.297903	0.065976
H107	H	0.764009	-0.678722	0.000039
O108	O	0.791964	0.187819	0.632692
C109	C	0.746397	0.229765	0.689443
H110	H	0.777433	0.230518	0.751129
H111	H	0.734659	0.285538	0.664424
H112	H	0.690253	0.207159	0.698665
O113	O	0.291089	-0.033196	-0.000021
C114	C	0.277399	-0.072187	-0.071212
H115	H	0.250300	-0.035277	-0.120990
H116	H	0.333500	-0.100285	-0.095110
H117	H	0.237330	-0.112527	-0.055105
H118	H	0.987446	0.007800	0.796402
H119	H	0.800085	0.180266	0.360800
H120	H	1.021394	-0.265325	0.000125
H121	H	0.537552	-0.019514	0.000118
O122	O	1.034367	-0.128697	0.000178
C123	C	1.020733	-0.054803	0.000155
H124	H	0.961610	-0.037605	0.026180
H125	H	1.065225	-0.032525	0.040076
H126	H	1.024338	-0.034527	-0.065808
O127	O	0.760126	-0.239009	0.000192
C128	C	0.718444	-0.216106	0.071404
H129	H	0.738898	-0.165636	0.095151
H130	H	0.655384	-0.205889	0.055377
H131	H	0.727342	-0.258272	0.121267
O132	O	0.762416	-0.095600	-0.000022
C133	C	0.720186	-0.108228	-0.071250
H134	H	0.738957	-0.163497	-0.094995
H135	H	0.657042	-0.103001	-0.055245
H136	H	0.730411	-0.068400	-0.121106
