data_functionalizedCrystal
_audit_creation_method	'MofGen! by Chris Wilmer'
_symmetry_space_group_name_H-M	'P1'
_symmetry_Int_Tables_number	1
_symmetry_cell_setting	triclinic
loop_
_symmetry_equiv_pos_as_xyz
  x,y,z
_cell_length_a	27.354012
_cell_length_b	27.353283
_cell_length_c	27.349551
_cell_angle_alpha	60.005606
_cell_angle_beta	60.011434
_cell_angle_gamma	59.993282
loop_
_atom_site_label
_atom_site_type_symbol
_atom_site_fract_x
_atom_site_fract_y
_atom_site_fract_z
O1	O	0.067635	-0.714267	0.597330
O2	O	0.567635	-0.214267	1.097330
O3	O	0.025429	-0.556105	0.481282
O4	O	0.525429	-0.056105	0.981282
O5	O	0.125575	-0.656186	0.481214
O6	O	0.625575	-0.156186	0.981214
O7	O	-0.032512	-0.614186	0.597397
O8	O	0.467488	-0.114186	1.097397
O9	O	0.158797	-0.622968	0.514367
O10	O	0.658797	-0.122968	1.014367
O11	O	0.058650	-0.522887	0.514434
O12	O	0.558650	-0.022887	1.014434
O13	O	0.100856	-0.681048	0.630482
O14	O	0.600856	-0.181048	1.130482
Zn15	Zn	0.085028	-0.596693	0.577722
Zn16	Zn	0.585028	-0.096693	1.077722
Zn17	Zn	0.041257	-0.640460	0.534042
Zn18	Zn	0.541257	-0.140460	1.034042
O19	O	0.000709	-0.580967	0.630549
O20	O	0.500709	-0.080967	1.130549
N21	N	0.114901	-0.566828	0.607534
N22	N	0.614901	-0.066828	1.107534
N23	N	0.011389	-0.670331	0.504229
N24	N	0.511389	-0.170331	1.004229
C25	C	0.179404	-0.338196	0.672015
C26	C	0.679404	0.161804	1.172015
C27	C	0.179501	-0.502386	0.836160
C28	C	0.679501	-0.002386	1.336160
C29	C	0.179415	-0.502363	0.671996
C30	C	0.679415	-0.002363	1.171996
C31	C	0.343611	-0.502373	0.671960
C32	C	0.843611	-0.002373	1.171960
C33	C	0.197478	-0.392371	0.690061
C34	C	0.697478	0.107629	1.190061
C35	C	0.197534	-0.484321	0.781984
C36	C	0.697534	0.015679	1.281984
C37	C	0.289434	-0.484312	0.690032
C38	C	0.789434	0.015688	1.190032
C39	C	0.197486	-0.484308	0.690051
C40	C	0.697486	0.015692	1.190051
C41	C	0.156398	-0.269238	0.649045
C42	C	0.656398	0.230762	1.149045
C43	C	0.156418	-0.525342	0.649015
C44	C	0.656418	-0.025342	1.149015
C45	C	0.220484	-0.461329	0.713032
C46	C	0.720484	0.038671	1.213032
C47	C	0.443889	-0.485097	0.619172
C48	C	0.943889	0.014903	1.119172
C49	C	0.506571	-0.505993	0.598266
C50	C	1.006571	-0.005993	1.098266
C51	C	0.506589	-0.607412	0.636940
C52	C	1.006589	-0.107412	1.136940
C53	C	0.443909	-0.586515	0.657848
C54	C	0.943909	-0.086515	1.157848
C55	C	0.171510	-0.237888	0.587422
C56	C	0.671510	0.262112	1.087422
C57	C	0.150593	-0.175201	0.566543
C58	C	0.650593	0.324799	1.066543
C59	C	0.099458	-0.175218	0.668913
C60	C	0.599458	0.324782	1.168913
C61	C	0.120375	-0.237905	0.689792
C62	C	0.620375	0.262095	1.189792
C63	C	0.094789	-0.510201	0.664176
C64	C	0.594789	-0.010201	1.164176
C65	C	0.073888	-0.531091	0.643278
C66	C	0.573888	-0.031091	1.143278
C67	C	0.176239	-0.582263	0.592072
C68	C	0.676239	-0.082263	1.092072
C69	C	0.197142	-0.561373	0.612963
C70	C	0.697142	-0.061373	1.112963
C71	C	0.094933	-0.510244	0.936476
C72	C	0.594933	-0.010244	1.436476
C73	C	0.074073	-0.531151	0.999161
C74	C	0.574073	-0.031151	1.499161
C75	C	0.176453	-0.582335	0.999126
C76	C	0.676453	-0.082335	1.499126
C77	C	0.197312	-0.561429	0.936439
C78	C	0.697312	-0.061429	1.436439
C79	C	0.156551	-0.525382	0.905116
C80	C	0.656551	-0.025382	1.405116
C81	C	0.412561	-0.525357	0.648961
C82	C	0.912561	-0.025357	1.148961
C83	C	-0.098513	-0.688235	0.485867
C84	C	0.401487	-0.188235	0.985867
C85	C	-0.006461	-0.688368	0.394066
C86	C	0.493539	-0.188368	0.894066
C87	C	-0.006645	-0.780264	0.486040
C88	C	0.493355	-0.280264	0.986040
C89	C	-0.006630	-0.688361	0.486097
C90	C	0.493370	-0.188361	0.986097
C91	C	-0.029562	-0.711308	0.463018
C92	C	0.470438	-0.211308	0.963018
N93	N	0.537030	-0.566846	0.607436
N94	N	1.037030	-0.066846	1.107436
O95	O	0.741877	-0.576849	0.459995
O96	O	1.241877	-0.076849	0.959995
O97	O	0.742050	-0.693241	0.618010
O98	O	1.242050	-0.193241	1.118010
O99	O	0.741986	-0.692977	0.517791
O100	O	1.241986	-0.192977	1.017791
O101	O	0.741941	-0.577114	0.560214
O102	O	1.241941	-0.077114	1.060214
O103	O	0.642405	-0.659839	0.551046
O104	O	1.142405	-0.159839	1.051046
O105	O	0.642469	-0.660104	0.651265
O106	O	1.142469	-0.160104	1.151265
O107	O	0.642296	-0.543712	0.493251
O108	O	1.142296	-0.043712	0.993251
Zn109	Zn	0.626572	-0.596646	0.577538
Zn110	Zn	1.126572	-0.096646	1.077538
Zn111	Zn	0.757774	-0.640307	0.533723
Zn112	Zn	1.257774	-0.140307	1.033723
O113	O	0.642360	-0.543976	0.593469
O114	O	1.142360	-0.043976	1.093469
N115	N	0.847316	-0.670107	0.503818
N116	N	1.347316	-0.170107	1.003818
N117	N	0.114877	-0.144758	0.607577
N118	N	0.614877	0.355242	1.107577
O119	O	-0.032498	0.060193	0.597441
O120	O	0.467502	0.560193	1.097441
O121	O	0.125523	0.060193	0.481067
O122	O	0.625523	0.560193	0.981067
O123	O	0.025289	0.060179	0.481345
O124	O	0.525289	0.560179	0.981345
O125	O	0.067736	0.060207	0.597163
O126	O	0.567736	0.560207	1.097163
O127	O	0.058511	-0.039410	0.514543
O128	O	0.558511	0.460590	1.014543
O129	O	0.158745	-0.039397	0.514265
O130	O	0.658745	0.460603	1.014265
O131	O	0.000724	-0.039396	0.630638
O132	O	0.500724	0.460604	1.130638
Zn133	Zn	0.085009	-0.055208	0.577722
Zn134	Zn	0.585009	0.444792	1.077722
Zn135	Zn	0.041238	0.076005	0.533983
Zn136	Zn	0.541238	0.576005	1.033983
O137	O	0.100958	-0.039382	0.630360
O138	O	0.600958	0.460618	1.130360
N139	N	0.011362	0.165555	0.504130
N140	N	0.511362	0.665555	1.004130
N141	N	0.115121	-0.566884	1.029592
N142	N	0.615121	-0.066884	1.529592
O143	O	0.104990	-0.714248	1.234528
O144	O	0.604990	-0.214248	1.734528
O145	O	-0.011371	-0.556177	1.234539
O146	O	0.488629	-0.056177	1.734539
O147	O	-0.011103	-0.656395	1.234497
O148	O	0.488897	-0.156395	1.734497
O149	O	0.104722	-0.614030	1.234569
O150	O	0.604722	-0.114030	1.734569
O151	O	0.022090	-0.623190	1.134913
O152	O	0.522090	-0.123190	1.634913
O153	O	0.021822	-0.522972	1.134954
O154	O	0.521822	-0.022972	1.634954
O155	O	0.138182	-0.681044	1.134943
O156	O	0.638182	-0.181044	1.634943
Zn157	Zn	0.085272	-0.596736	1.119137
Zn158	Zn	0.585272	-0.096736	1.619137
Zn159	Zn	0.041539	-0.640484	1.250344
Zn160	Zn	0.541539	-0.140484	1.750344
O161	O	0.137914	-0.580826	1.134984
O162	O	0.637914	-0.080826	1.634984
N163	N	0.011689	-0.670343	1.339890
N164	N	0.511689	-0.170343	1.839890
C165	C	0.038085	-0.519567	0.481870
C166	C	0.538085	-0.019567	0.981870
C167	C	0.162104	-0.643505	0.481786
C168	C	0.662104	-0.143505	0.981786
C169	C	0.088200	-0.717587	0.629893
C170	C	0.588200	-0.217587	1.129893
C171	C	-0.035819	-0.593649	0.629977
C172	C	0.464181	-0.093649	1.129977
C173	C	0.692280	-0.692701	0.654545
C174	C	1.192280	-0.192701	1.154545
C175	C	0.692203	-0.692374	0.530435
C176	C	1.192203	-0.192374	1.030435
C177	C	0.692063	-0.544251	0.456717
C178	C	1.192063	-0.044251	0.956717
C179	C	0.692144	-0.544580	0.580825
C180	C	1.192144	-0.044580	1.080825
C181	C	0.162000	0.010521	0.481600
C182	C	0.662000	0.510521	0.981600
C183	C	0.037914	0.010381	0.481984
C184	C	0.537914	0.510381	0.981984
C185	C	-0.035795	0.010399	0.630065
C186	C	0.464205	0.510399	1.130065
C187	C	0.088333	0.010415	0.629722
C188	C	0.588333	0.510415	1.129722
C189	C	-0.010799	-0.519660	1.184747
C190	C	0.489201	-0.019660	1.684747
C191	C	-0.010461	-0.643761	1.184677
C192	C	0.489539	-0.143761	1.684677
C193	C	0.137610	-0.717561	1.184734
C194	C	0.637610	-0.217561	1.684734
C195	C	0.137280	-0.593452	1.184783
C196	C	0.637280	-0.093452	1.684783
H197	H	0.023897	-0.518815	1.024687
H198	H	0.523897	-0.018815	1.524687
C199	C	-0.096334	-0.581843	0.678695
C200	C	0.403666	-0.081843	1.178695
C201	C	-0.096338	-0.633013	0.729896
C202	C	0.403662	-0.133013	1.229896
C203	C	-0.152075	-0.622162	0.774784
C204	C	0.347925	-0.122162	1.274784
H205	H	-0.103674	-0.549228	0.688138
H206	H	0.396326	-0.049228	1.188138
H207	H	-0.126801	-0.572396	0.664970
H208	H	0.373199	-0.072396	1.164970
H209	H	-0.065879	-0.642452	0.743619
H210	H	0.434121	-0.142452	1.243619
H211	H	-0.089008	-0.665635	0.720472
H212	H	0.410992	-0.165635	1.220472
H213	H	-0.182543	-0.612716	0.761059
H214	H	0.317457	-0.112716	1.261059
H215	H	-0.159411	-0.589546	0.784223
H216	H	0.340589	-0.089546	1.284223
H217	H	-0.152087	-0.656881	0.809528
H218	H	0.347913	-0.156881	1.309528
C219	C	0.185870	-0.581498	1.184831
C220	C	0.685870	-0.081498	1.684831
C221	C	0.237148	-0.632602	1.184844
C222	C	0.737148	-0.132602	1.684844
C223	C	0.281919	-0.621615	1.184896
C224	C	0.781919	-0.121615	1.684896
H225	H	0.195258	-0.548865	1.150119
H226	H	0.695258	-0.048865	1.650119
H227	H	0.172069	-0.572022	1.219578
H228	H	0.672069	-0.072022	1.719578
H229	H	0.250947	-0.642071	1.150100
H230	H	0.750947	-0.142071	1.650100
H231	H	0.227779	-0.665242	1.219554
H232	H	0.727779	-0.165242	1.719554
H233	H	0.268118	-0.612138	1.219643
H234	H	0.768118	-0.112138	1.719643
H235	H	0.291301	-0.588980	1.150183
H236	H	0.791301	-0.088980	1.650183
H237	H	0.316714	-0.656288	1.184911
H238	H	0.816714	-0.156288	1.684911
H239	H	0.174144	-0.762957	1.184724
H240	H	0.674144	-0.262957	1.684724
C241	C	0.026145	-0.458960	0.433286
C242	C	0.526145	0.041040	0.933286
C243	C	0.066957	-0.432593	0.417325
C244	C	0.566957	0.067407	0.917325
C245	C	0.055971	-0.376759	0.372577
C246	C	0.555971	0.123241	0.872577
H247	H	0.030634	-0.464076	0.399205
H248	H	0.530634	0.035924	0.899205
H249	H	-0.013482	-0.433848	0.447846
H250	H	0.486518	0.066152	0.947846
H251	H	0.106574	-0.457699	0.402763
H252	H	0.606574	0.042301	0.902763
H253	H	0.062475	-0.427462	0.451392
H254	H	0.562475	0.072538	0.951392
H255	H	0.016344	-0.351647	0.387137
H256	H	0.516344	0.148353	0.887137
H257	H	0.060459	-0.381881	0.338500
H258	H	0.560459	0.118119	0.838500
H259	H	0.083656	-0.358860	0.361746
H260	H	0.583656	0.141140	0.861746
C261	C	0.222694	-0.655544	0.433221
C262	C	0.722694	-0.155544	0.933221
C263	C	0.259599	-0.713978	0.454779
C264	C	0.759599	-0.213978	0.954779
C265	C	0.315421	-0.725087	0.410060
C266	C	0.815421	-0.225087	0.910060
H267	H	0.217551	-0.651089	0.399169
H268	H	0.717551	-0.151089	0.899169
H269	H	0.240676	-0.627900	0.422320
H270	H	0.740676	-0.127900	0.922320
H271	H	0.241621	-0.741614	0.465671
H272	H	0.741621	-0.241614	0.965671
H273	H	0.264759	-0.718447	0.488824
H274	H	0.764759	-0.218447	0.988824
H275	H	0.333403	-0.697443	0.399159
H276	H	0.833403	-0.197443	0.899159
H277	H	0.310272	-0.720628	0.376011
H278	H	0.810272	-0.220628	0.876011
H279	H	0.340470	-0.764732	0.424683
H280	H	0.840470	-0.264732	0.924683
C281	C	0.100318	-0.778216	0.678407
C282	C	0.600318	-0.278216	1.178407
C283	C	0.158755	-0.815064	0.656784
C284	C	0.658755	-0.315064	1.156784
C285	C	0.169937	-0.870922	0.701454
C286	C	0.669937	-0.370922	1.201454
H287	H	0.095888	-0.773110	0.712468
H288	H	0.595888	-0.273110	1.212468
H289	H	0.072695	-0.796222	0.689309
H290	H	0.572695	-0.296222	1.189309
H291	H	0.186370	-0.797062	0.645890
H292	H	0.686370	-0.297062	1.145890
H293	H	0.163199	-0.820188	0.622728
H294	H	0.663199	-0.320188	1.122728
H295	H	0.142314	-0.888928	0.712356
H296	H	0.642314	-0.388928	1.212356
H297	H	0.165504	-0.865810	0.735512
H298	H	0.665504	-0.365810	1.235512
H299	H	0.209585	-0.895932	0.686787
H300	H	0.709585	-0.395932	1.186787
H301	H	-0.047330	-0.474261	1.184750
H302	H	0.452670	0.025739	1.684750
C303	C	0.025927	0.010273	0.433439
C304	C	0.525927	0.510273	0.933439
C305	C	0.066727	-0.040962	0.417479
C306	C	0.566727	0.459038	0.917479
C307	C	0.055713	-0.041080	0.372754
C308	C	0.555713	0.458920	0.872754
H309	H	-0.013692	0.010238	0.448001
H310	H	0.486308	0.510238	0.948001
H311	H	0.030410	0.044980	0.399356
H312	H	0.530410	0.544980	0.899356
H313	H	0.062239	-0.075660	0.451555
H314	H	0.562239	0.424340	0.951555
H315	H	0.106350	-0.040938	0.402906
H316	H	0.606350	0.459062	0.902906
H317	H	0.060196	-0.006373	0.338670
H318	H	0.560196	0.493627	0.838670
H319	H	0.016093	-0.041113	0.387321
H320	H	0.516093	0.458887	0.887321
H321	H	0.083397	-0.075839	0.361915
H322	H	0.583397	0.424161	0.861915
C323	C	0.692373	-0.741359	0.715084
C324	C	1.192373	-0.241359	1.215084
C325	C	0.692395	-0.719901	0.752042
C326	C	1.192395	-0.219901	1.252042
C327	C	0.692489	-0.764711	0.807812
C328	C	1.192489	-0.264711	1.307812
H329	H	0.657673	-0.752292	0.733085
H330	H	1.157673	-0.252292	1.233085
H331	H	0.727130	-0.775379	0.709844
H332	H	1.227130	-0.275379	1.209844
H333	H	0.657641	-0.685893	0.757284
H334	H	1.157641	-0.185893	1.257284
H335	H	0.727092	-0.708973	0.734060
H336	H	1.227092	-0.208973	1.234060
H337	H	0.727246	-0.798731	0.802572
H338	H	1.227246	-0.298731	1.302572
H339	H	0.657789	-0.775641	0.825807
H340	H	1.157789	-0.275641	1.325807
H341	H	0.692509	-0.750160	0.832893
H342	H	1.192509	-0.250160	1.332893
H343	H	0.692134	-0.508185	0.589902
H344	H	1.192134	-0.008185	1.089902
H345	H	0.692005	-0.507708	0.411338
H346	H	1.192005	-0.007708	0.911338
C347	C	0.692192	-0.740822	0.518230
C348	C	1.192192	-0.240822	1.018230
C349	C	0.692126	-0.719102	0.459784
C350	C	1.192126	-0.219102	0.959784
C351	C	0.692108	-0.763712	0.448522
C352	C	1.192108	-0.263712	0.948522
H353	H	0.726932	-0.774889	0.522623
H354	H	1.226932	-0.274889	1.022623
H355	H	0.657475	-0.751742	0.545839
H356	H	1.157475	-0.251742	1.045839
H357	H	0.726840	-0.708191	0.432183
H358	H	1.226840	-0.208191	0.932183
H359	H	0.657389	-0.685041	0.455377
H360	H	1.157389	-0.185041	0.955377
H361	H	0.657391	-0.774632	0.476132
H362	H	1.157391	-0.274632	0.976132
H363	H	0.726848	-0.797777	0.452919
H364	H	1.226848	-0.297777	0.952919
H365	H	0.692058	-0.748980	0.408869
H366	H	1.192058	-0.248980	0.908869
C367	C	0.222414	0.010923	0.432824
C368	C	0.722414	0.510923	0.932824
C369	C	0.259342	0.011060	0.454231
C370	C	0.759342	0.511060	0.954231
C371	C	0.314997	0.011439	0.409313
C372	C	0.814997	0.511439	0.909313
H373	H	0.240547	-0.023721	0.421754
H374	H	0.740547	0.476279	0.921754
H375	H	0.216985	0.045741	0.398903
H376	H	0.716985	0.545741	0.898903
H377	H	0.264773	-0.023754	0.488141
H378	H	0.764773	0.476246	0.988141
H379	H	0.241229	0.045702	0.465297
H380	H	0.741229	0.545702	0.965297
H381	H	0.309567	0.046256	0.375393
H382	H	0.809567	0.546256	0.875393
H383	H	0.333123	-0.023205	0.398246
H384	H	0.833123	0.476795	0.898246
H385	H	0.340057	0.011538	0.423830
H386	H	0.840057	0.511538	0.923830
C387	C	-0.096359	0.010444	0.678693
C388	C	0.403641	0.510444	1.178693
C389	C	-0.133336	0.010455	0.657236
C390	C	0.366664	0.510455	1.157236
C391	C	-0.189136	0.010509	0.702011
C392	C	0.310864	0.510509	1.202011
H393	H	-0.091194	-0.024268	0.712753
H394	H	0.408806	0.475732	1.212753
H395	H	-0.114298	0.045195	0.689553
H396	H	0.385702	0.545195	1.189553
H397	H	-0.115401	-0.024293	0.646385
H398	H	0.384599	0.475707	1.146385
H399	H	-0.138518	0.045164	0.623182
H400	H	0.361482	0.545164	1.123182
H401	H	-0.207075	0.045260	0.712871
H402	H	0.292925	0.545260	1.212871
H403	H	-0.183965	-0.024204	0.736068
H404	H	0.316035	0.475796	1.236068
H405	H	-0.214234	0.010522	0.687457
H406	H	0.285766	0.510522	1.187457
H407	H	-0.046832	-0.652809	1.184615
H408	H	0.453168	-0.152809	1.684615
H409	H	0.209648	-0.611676	1.024626
H410	H	0.709648	-0.111676	1.524626
C411	C	0.050580	-0.471136	0.902579
C412	C	0.550580	0.028864	1.402579
C413	C	-0.007847	-0.462366	0.943461
C414	C	0.492153	0.037634	1.443461
C415	C	-0.048719	-0.426352	0.912257
C416	C	0.451281	0.073648	1.412257
H417	H	0.056509	-0.433530	0.878128
H418	H	0.556509	0.066470	1.378128
H419	H	0.056553	-0.490270	0.878136
H420	H	0.556553	0.009730	1.378136
H421	H	-0.013818	-0.443231	0.967894
H422	H	0.486182	0.056769	1.467894
H423	H	-0.013795	-0.499961	0.967914
H424	H	0.486205	0.000039	1.467914
H425	H	-0.042746	-0.445486	0.887815
H426	H	0.457254	0.054514	1.387815
H427	H	-0.042785	-0.388749	0.887807
H428	H	0.457215	0.111251	1.387807
H429	H	-0.088366	-0.420401	0.939991
H430	H	0.411634	0.079599	1.439991
C431	C	0.264232	-0.577988	0.902470
C432	C	0.764232	-0.077988	1.402470
C433	C	0.290048	-0.640344	0.917715
C434	C	0.790048	-0.140344	1.417715
C435	C	0.351693	-0.655620	0.886443
C436	C	0.851693	-0.155620	1.386443
H437	H	0.270904	-0.560439	0.860642
H438	H	0.770904	-0.060439	1.360642
H439	H	0.281868	-0.563607	0.912754
H440	H	0.781868	-0.063607	1.412754
H441	H	0.272418	-0.654719	0.907427
H442	H	0.772418	-0.154719	1.407427
H443	H	0.283393	-0.657908	0.959538
H444	H	0.783393	-0.157908	1.459538
H445	H	0.369329	-0.641239	0.896727
H446	H	0.869329	-0.141239	1.396727
H447	H	0.358359	-0.638068	0.844616
H448	H	0.858359	-0.138068	1.344616
H449	H	0.369218	-0.697930	0.896786
H450	H	0.869218	-0.197930	1.396786
C451	C	0.050478	-0.471059	0.703280
C452	C	0.550478	0.028941	1.203280
C453	C	-0.007966	-0.462254	0.712065
C454	C	0.492034	0.037746	1.212065
C455	C	-0.048801	-0.426193	0.748079
C456	C	0.451199	0.073807	1.248079
H457	H	0.056439	-0.490155	0.740880
H458	H	0.556439	0.009845	1.240880
H459	H	0.056457	-0.433466	0.684144
H460	H	0.556457	0.066534	1.184144
H461	H	-0.013942	-0.499841	0.731202
H462	H	0.486058	0.000159	1.231202
H463	H	-0.013946	-0.443152	0.674476
H464	H	0.486054	0.056848	1.174476
H465	H	-0.042823	-0.388600	0.728943
H466	H	0.457177	0.111400	1.228943
H467	H	-0.042835	-0.445293	0.785676
H468	H	0.457165	0.054707	1.285676
H469	H	-0.088460	-0.420210	0.754039
H470	H	0.411540	0.079790	1.254039
C471	C	0.006983	-0.514572	0.659617
C472	C	0.506983	-0.014572	1.159617
C473	C	-0.008039	-0.483212	0.607295
C474	C	0.491961	0.016788	1.107295
C475	C	-0.069667	-0.467978	0.622324
C476	C	0.430333	0.032022	1.122324
H477	H	-0.003352	-0.549974	0.680855
H478	H	0.496648	-0.049974	1.180855
H479	H	-0.014299	-0.490097	0.684060
H480	H	0.485701	0.009903	1.184060
H481	H	0.013235	-0.507686	0.582861
H482	H	0.513235	-0.007686	1.082861
H483	H	0.002281	-0.447804	0.586050
H484	H	0.502281	0.052196	1.086050
H485	H	-0.090949	-0.443503	0.646767
H486	H	0.409051	0.056497	1.146767
H487	H	-0.079996	-0.503383	0.643562
H488	H	0.420004	-0.003383	1.143562
H489	H	-0.079869	-0.446694	0.586827
H490	H	0.420131	0.053306	1.086827
C491	C	0.210515	-0.271873	0.543153
C492	C	0.710515	0.228127	1.043153
C493	C	0.179006	-0.256633	0.507218
C494	C	0.679006	0.243367	1.007218
C495	C	0.214916	-0.287936	0.466438
C496	C	0.714916	0.212064	0.966438
H497	H	0.245959	-0.261621	0.518631
H498	H	0.745959	0.238379	1.018631
H499	H	0.220797	-0.313703	0.564392
H500	H	0.720797	0.186297	1.064392
H501	H	0.168733	-0.214812	0.485981
H502	H	0.668733	0.285188	0.985981
H503	H	0.143566	-0.266887	0.531723
H504	H	0.643566	0.233113	1.031723
H505	H	0.225198	-0.329766	0.487676
H506	H	0.725198	0.170234	0.987676
H507	H	0.250358	-0.277682	0.441920
H508	H	0.750358	0.222318	0.941920
H509	H	0.193541	-0.277605	0.442055
H510	H	0.693541	0.222395	0.942055
C511	C	0.100574	0.010382	0.678177
C512	C	0.600574	0.510382	1.178177
C513	C	0.159036	0.010366	0.656469
C514	C	0.659036	0.510366	1.156469
C515	C	0.170337	0.010323	0.701093
C516	C	0.670337	0.510323	1.201093
H517	H	0.073008	0.045099	0.689120
H518	H	0.573008	0.545099	1.189120
H519	H	0.096157	-0.024364	0.712230
H520	H	0.596157	0.475636	1.212230
H521	H	0.163448	0.045107	0.622427
H522	H	0.663448	0.545107	1.122427
H523	H	0.186614	-0.024349	0.645531
H524	H	0.686614	0.475651	1.145531
H525	H	0.165921	-0.024423	0.735146
H526	H	0.665921	0.475577	1.235146
H527	H	0.142769	0.045040	0.712033
H528	H	0.642769	0.545040	1.212033
H529	H	0.210007	0.010306	0.686373
H530	H	0.710007	0.510306	1.186373
H531	H	0.209407	-0.611608	0.562721
H532	H	0.709407	-0.111608	1.062721
H533	H	0.247325	-0.573698	0.600612
H534	H	0.747325	-0.073698	1.100612
H535	H	0.532110	-0.657210	0.644171
H536	H	1.032110	-0.157210	1.144171
C537	C	0.410005	-0.630319	0.690150
C538	C	0.910005	-0.130319	1.190150
C539	C	0.450880	-0.688347	0.693438
C540	C	0.950880	-0.188347	1.193438
C541	C	0.419671	-0.728716	0.723184
C542	C	0.919671	-0.228716	1.223184
H543	H	0.385566	-0.628800	0.729446
H544	H	0.885566	-0.128800	1.229446
H545	H	0.385552	-0.619864	0.668793
H546	H	0.885552	-0.119864	1.168793
H547	H	0.475323	-0.698799	0.714796
H548	H	0.975323	-0.198799	1.214796
H549	H	0.475321	-0.689885	0.654152
H550	H	0.975321	-0.189885	1.154152
H551	H	0.395217	-0.718261	0.701827
H552	H	0.895217	-0.218261	1.201827
H553	H	0.395233	-0.727191	0.762477
H554	H	0.895233	-0.227191	1.262477
H555	H	0.447400	-0.768091	0.725414
H556	H	0.947400	-0.268091	1.225414
H557	H	0.418366	-0.435297	0.611936
H558	H	0.918366	0.064703	1.111936
C559	C	0.540483	-0.462185	0.565906
C560	C	1.040483	0.037815	1.065906
C561	C	0.499615	-0.404149	0.562584
C562	C	0.999615	0.095851	1.062584
C563	C	0.530833	-0.363777	0.532768
C564	C	1.030833	0.136223	1.032768
H565	H	0.564954	-0.472593	0.587216
H566	H	1.064954	0.027407	1.087216
H567	H	0.564904	-0.463751	0.526616
H568	H	1.064904	0.036249	1.026616
H569	H	0.475203	-0.402584	0.601867
H570	H	0.975203	0.097416	1.101867
H571	H	0.475142	-0.393722	0.541270
H572	H	0.975142	0.106278	1.041270
H573	H	0.555254	-0.365344	0.493477
H574	H	1.055254	0.134656	0.993477
H575	H	0.555303	-0.374191	0.554081
H576	H	1.055303	0.125809	1.054081
H577	H	0.503109	-0.324395	0.530505
H578	H	1.003109	0.175605	1.030505
H579	H	0.070133	-0.149706	0.702094
H580	H	0.570133	0.350294	1.202094
C581	C	0.103927	-0.271832	0.756721
C582	C	0.603927	0.228168	1.256721
C583	C	0.067913	-0.230972	0.787933
C584	C	0.567913	0.269028	1.287933
C585	C	0.052754	-0.262205	0.849591
C586	C	0.552754	0.237795	1.349591
H587	H	0.082634	-0.296290	0.767080
H588	H	0.582634	0.203710	1.267080
H589	H	0.139371	-0.296274	0.767016
H590	H	0.639371	0.203726	1.267016
H591	H	0.032475	-0.206541	0.777642
H592	H	0.532475	0.293459	1.277642
H593	H	0.089194	-0.206513	0.777591
H594	H	0.589194	0.293487	1.277591
H595	H	0.088198	-0.286646	0.859886
H596	H	0.588198	0.213354	1.359886
H597	H	0.031464	-0.286661	0.859944
H598	H	0.531464	0.213339	1.359944
H599	H	0.028322	-0.234486	0.870776
H600	H	0.528322	0.265514	1.370776
H601	H	0.162897	-0.149674	0.516363
H602	H	0.662897	0.350326	1.016363
