data_functionalizedCrystal
_audit_creation_method	'MofGen! by Chris Wilmer'
_symmetry_space_group_name_H-M	'P1'
_symmetry_Int_Tables_number	1
_symmetry_cell_setting	triclinic
loop_
_symmetry_equiv_pos_as_xyz
  x,y,z
_cell_length_a	14.971486
_cell_length_b	17.699083
_cell_length_c	13.448316
_cell_angle_alpha	89.992503
_cell_angle_beta	89.998199
_cell_angle_gamma	83.448572
loop_
_atom_site_label
_atom_site_type_symbol
_atom_site_fract_x
_atom_site_fract_y
_atom_site_fract_z
O1	O	1.186608	0.098633	-0.082580
O2	O	1.686608	0.598633	0.417420
O3	O	0.926168	0.110445	-0.082607
O4	O	1.426168	0.610445	0.417393
O5	O	1.063746	-0.005632	-0.082584
O6	O	1.563746	0.494368	0.417416
O7	O	1.049030	0.214710	-0.082603
O8	O	1.549030	0.714710	0.417397
O9	O	1.063729	-0.005639	0.082800
O10	O	1.563729	0.494361	0.582800
O11	O	0.926150	0.110438	0.082777
O12	O	1.426150	0.610438	0.582777
O13	O	1.186591	0.098626	0.082804
O14	O	1.686591	0.598626	0.582804
Cu15	Cu	1.056369	0.104531	0.097891
Cu16	Cu	1.556369	0.604531	0.597891
Cu17	Cu	1.056390	0.104540	-0.097694
Cu18	Cu	1.556390	0.604540	0.402306
O19	O	1.049013	0.214703	0.082781
O20	O	1.549013	0.714703	0.582781
C21	C	0.892836	0.109913	0.000082
C22	C	1.392836	0.609913	0.500082
C23	C	0.793544	0.108330	0.000071
C24	C	1.293544	0.608330	0.500071
C25	C	0.736085	0.176522	0.000067
C26	C	1.236085	0.676522	0.500067
C27	C	0.642790	0.175030	0.000082
C28	C	1.142790	0.675030	0.500082
C29	C	0.606958	0.105346	0.000094
C30	C	1.106958	0.605346	0.500094
C31	C	0.664425	0.037148	0.000102
C32	C	1.164425	0.537148	0.500102
C33	C	0.757717	0.038641	0.000094
C34	C	1.257717	0.538641	0.500094
C35	C	0.469973	0.034042	0.000116
C36	C	0.969973	0.534042	0.500116
C37	C	0.376674	0.032549	0.000122
C38	C	0.876674	0.532549	0.500122
C39	C	0.355046	0.170431	0.000104
C40	C	0.855046	0.670431	0.500104
C41	C	0.448339	0.171924	0.000096
C42	C	0.948339	0.671924	0.500096
C43	C	0.505799	0.103726	0.000102
C44	C	1.005799	0.603726	0.500102
C45	C	1.063210	-0.033834	0.000108
C46	C	1.563210	0.466166	0.500108
C47	C	1.061628	-0.117856	0.000109
C48	C	1.561628	0.382144	0.500109
C49	C	1.142384	-0.166278	0.000118
C50	C	1.642384	0.333722	0.500118
C51	C	1.140892	-0.245225	0.000110
C52	C	1.640892	0.254775	0.500110
C53	C	1.058644	-0.275748	0.000098
C54	C	1.558644	0.224252	0.500098
C55	C	0.977882	-0.227320	0.000085
C56	C	1.477882	0.272680	0.500085
C57	C	0.979375	-0.148374	0.000087
C58	C	1.479375	0.351626	0.500087
C59	C	0.971860	-0.545698	0.000076
C60	C	1.471860	-0.045698	0.500076
C61	C	0.970374	-0.624649	0.000077
C62	C	1.470374	-0.124649	0.500077
C63	C	1.133378	-0.642548	0.000099
C64	C	1.633378	-0.142548	0.500099
C65	C	1.134871	-0.563603	0.000101
C66	C	1.634871	-0.063603	0.500101
C67	C	1.054109	-0.515181	0.000083
C68	C	1.554109	-0.015181	0.500083
C69	C	1.055728	-0.429578	0.000090
C70	C	1.555728	0.070422	0.500090
C71	C	1.057024	-0.361350	0.000097
C72	C	1.557024	0.138650	0.500097
C73	C	1.219923	0.099158	0.000114
C74	C	1.719923	0.599158	0.500114
C75	C	1.319214	0.100741	0.000117
C76	C	1.819214	0.600741	0.500117
C77	C	1.049549	0.242905	0.000087
C78	C	1.549549	0.742905	0.500087
C79	C	1.051131	0.326927	0.000080
C80	C	1.551131	0.826927	0.500080
N81	N	1.056361	0.104525	0.235456
N82	N	1.556361	0.604525	0.735456
N83	N	1.056404	0.104540	-0.235258
N84	N	1.556404	0.604540	0.264742
C85	C	1.117300	0.053147	0.287506
C86	C	1.617300	0.553147	0.787506
C87	C	1.117306	0.053147	0.391610
C88	C	1.617306	0.553147	0.891610
C89	C	1.056376	0.104528	0.443660
C90	C	1.556376	0.604528	0.943660
C91	C	0.995431	0.155908	0.391602
C92	C	1.495431	0.655908	0.891602
C93	C	0.995422	0.155904	0.287501
C94	C	1.495422	0.655904	0.787501
C95	C	0.995456	0.155913	0.608582
C96	C	1.495456	0.655913	1.108582
C97	C	0.995466	0.155918	0.712691
C98	C	1.495466	0.655918	1.212691
C99	C	1.117339	0.053155	0.712691
C100	C	1.617339	0.553155	1.212691
C101	C	1.117330	0.053152	0.608590
C102	C	1.617330	0.553152	1.108590
C103	C	1.056386	0.104533	0.556539
C104	C	1.556386	0.604533	1.056539
H105	H	0.804501	-0.016888	0.000097
H106	H	1.304501	0.483112	0.500097
C107	C	0.879897	-0.658223	0.000051
C108	C	1.379897	-0.158223	0.500051
H109	H	0.832011	-0.618079	0.000030
H110	H	1.332011	-0.118079	0.500030
H111	H	0.875914	-0.688654	0.057722
H112	H	1.375914	-0.188654	0.557722
H113	H	0.875945	-0.688642	-0.057631
H114	H	1.375945	-0.188642	0.442369
H115	H	0.596010	0.230559	0.000077
H116	H	1.096010	0.730559	0.500077
H117	H	1.209360	-0.141433	0.000134
H118	H	1.709360	0.358567	0.500134
H119	H	0.906099	-0.506282	0.000062
H120	H	1.406099	-0.006282	0.500062
C121	C	0.887411	-0.260893	0.000075
C122	C	1.387411	0.239107	0.500075
H123	H	0.898086	-0.314846	0.000086
H124	H	1.398086	0.185154	0.500086
H125	H	0.854170	-0.244273	-0.057600
H126	H	1.354170	0.255727	0.442400
H127	H	0.854165	-0.244281	0.057753
H128	H	1.354165	0.255719	0.557753
C129	C	1.222215	-0.695814	0.000103
C130	C	1.722215	-0.195814	0.500103
H131	H	1.209551	-0.747203	0.000088
H132	H	1.709551	-0.247203	0.500088
H133	H	1.255943	-0.686562	0.057780
H134	H	1.755943	-0.186562	0.557780
H135	H	1.255951	-0.686544	-0.057573
H136	H	1.755951	-0.186544	0.442427
C137	C	0.890544	-0.095110	0.000078
C138	C	1.390544	0.404890	0.500078
H139	H	0.841345	-0.124594	0.000080
H140	H	1.341345	0.375406	0.500080
H141	H	0.887745	-0.063936	-0.057595
H142	H	1.387745	0.436064	0.442405
H143	H	0.887731	-0.063947	0.057759
H144	H	1.387731	0.436053	0.557759
H145	H	0.477510	0.228667	0.000076
H146	H	0.977510	0.728667	0.500076
C147	C	1.184322	-0.003374	0.230260
C148	C	1.684322	0.496626	0.730260
H149	H	1.220609	-0.033977	0.276173
H150	H	1.720609	0.466023	0.776173
H151	H	1.221491	0.023900	0.189636
H152	H	1.721491	0.523900	0.689636
H153	H	1.152208	-0.034930	0.189665
H154	H	1.652208	0.465070	0.689665
H155	H	1.166926	0.011311	0.433989
H156	H	1.666926	0.511311	0.933989
H157	H	0.308257	0.225960	0.000104
H158	H	0.808257	0.725960	0.500104
C159	C	0.337259	-0.044102	0.000141
C160	C	0.837259	0.455898	0.500141
H161	H	0.384840	-0.084504	0.000157
H162	H	0.884840	0.415496	0.500157
H163	H	0.301314	-0.047550	-0.057529
H164	H	0.801314	0.452450	0.442471
H165	H	0.301316	-0.047545	0.057824
H166	H	0.801316	0.452455	0.557824
H167	H	0.765252	0.233267	0.000056
H168	H	1.265252	0.733267	0.500056
C169	C	0.533178	-0.040974	0.000110
C170	C	1.033178	0.459026	0.500110
H171	H	0.498477	-0.082690	0.000105
H172	H	0.998477	0.417310	0.500105
H173	H	0.570030	-0.043267	0.057776
H174	H	1.070030	0.456733	0.557776
H175	H	0.570011	-0.043248	-0.057577
H176	H	1.070011	0.456752	0.442423
H177	H	1.166948	0.011317	0.566210
H178	H	1.666948	0.511317	1.066210
H179	H	0.635242	-0.019590	0.000126
H180	H	1.135242	0.480410	0.500126
C181	C	1.229723	-0.298486	0.000131
C182	C	1.729723	0.201514	0.500131
H183	H	1.278921	-0.269001	0.000152
H184	H	1.778921	0.230999	0.500152
H185	H	1.232545	-0.329651	-0.057542
H186	H	1.732545	0.170349	0.442458
H187	H	1.232516	-0.329659	0.057812
H188	H	1.732516	0.170341	0.557812
C189	C	1.184370	-0.003369	0.769942
C190	C	1.684370	0.496631	1.269942
H191	H	1.175643	0.003983	0.839396
H192	H	1.675643	0.503983	1.339396
H193	H	1.244043	0.004933	0.752875
H194	H	1.744043	0.504933	1.252875
H195	H	1.174762	-0.053898	0.752889
H196	H	1.674762	0.446102	1.252889
H197	H	1.201846	-0.538756	0.000115
H198	H	1.701846	-0.038756	0.500115
H199	H	0.945850	0.197757	0.755065
H200	H	1.445850	0.697757	1.255065
H201	H	0.945826	0.197751	0.566206
H202	H	1.445826	0.697751	1.066206
C203	C	0.928382	0.212405	0.448851
C204	C	1.428382	0.712405	0.948851
H205	H	0.892074	0.242992	0.402939
H206	H	1.392074	0.742992	0.902939
H207	H	0.960461	0.243968	0.489464
H208	H	1.460461	0.743968	0.989464
H209	H	0.891223	0.185100	0.489456
H210	H	1.391223	0.685100	0.989456
H211	H	0.945799	0.197740	0.245122
H212	H	1.445799	0.697740	0.745122
