data_functionalizedCrystal
_audit_creation_method	'MofGen! by Chris Wilmer'
_symmetry_space_group_name_H-M	'P1'
_symmetry_Int_Tables_number	1
_symmetry_cell_setting	triclinic
loop_
_symmetry_equiv_pos_as_xyz
  x,y,z
_cell_length_a	18.215407
_cell_length_b	16.120444
_cell_length_c	18.215399
_cell_angle_alpha	92.870532
_cell_angle_beta	89.982632
_cell_angle_gamma	92.923925
loop_
_atom_site_label
_atom_site_type_symbol
_atom_site_fract_x
_atom_site_fract_y
_atom_site_fract_z
Zn1	Zn	1.110204	-0.331974	-0.430919
Zn2	Zn	1.360204	-0.081974	-0.180919
Zn3	Zn	1.610204	0.168026	0.069081
Zn4	Zn	1.860204	0.418026	0.319081
Zn5	Zn	1.103869	-0.471396	-0.314090
Zn6	Zn	1.353869	-0.221396	-0.064090
Zn7	Zn	1.603869	0.028604	0.185910
Zn8	Zn	1.853869	0.278604	0.435910
Zn9	Zn	0.987136	-0.331994	-0.307872
Zn10	Zn	1.237136	-0.081994	-0.057872
Zn11	Zn	1.487136	0.168006	0.192128
Zn12	Zn	1.737136	0.418006	0.442128
Zn13	Zn	0.980861	-0.471342	-0.437118
Zn14	Zn	1.230861	-0.221342	-0.187118
Zn15	Zn	1.480861	0.028658	0.062882
Zn16	Zn	1.730861	0.278658	0.312882
O17	O	1.045517	-0.401676	-0.372500
O18	O	1.295517	-0.151676	-0.122500
O19	O	1.545517	0.098324	0.127500
O20	O	1.795517	0.348324	0.377500
O21	O	1.212347	-0.350483	-0.415429
O22	O	1.462347	-0.100483	-0.165429
O23	O	1.712347	0.149517	0.084571
O24	O	1.962347	0.399517	0.334571
O25	O	1.088358	-0.452934	-0.210282
O26	O	1.338358	-0.202934	0.039718
O27	O	1.588358	0.047066	0.289718
O28	O	1.838358	0.297066	0.539718
O29	O	1.008739	-0.215325	-0.318999
O30	O	1.258739	0.034675	-0.068999
O31	O	1.508739	0.284675	0.181001
O32	O	1.758739	0.534675	0.431001
O33	O	1.207693	-0.452915	-0.329595
O34	O	1.457693	-0.202915	-0.079595
O35	O	1.707693	0.047085	0.170405
O36	O	1.957693	0.297085	0.420405
O37	O	1.099157	-0.215310	-0.409400
O38	O	1.349157	0.034690	-0.159400
O39	O	1.599157	0.284690	0.090600
O40	O	1.849157	0.534690	0.340600
O41	O	1.002595	-0.350517	-0.205714
O42	O	1.252595	-0.100517	0.044286
O43	O	1.502595	0.149483	0.294286
O44	O	1.752595	0.399483	0.544286
O45	O	0.883320	-0.350464	-0.325009
O46	O	1.133320	-0.100464	-0.075009
O47	O	1.383320	0.149536	0.174991
O48	O	1.633320	0.399536	0.424991
O49	O	0.998044	-0.452824	-0.539278
O50	O	1.248044	-0.202824	-0.289278
O51	O	1.498044	0.047176	-0.039278
O52	O	1.748044	0.297176	0.210722
O53	O	0.878710	-0.452843	-0.419965
O54	O	1.128710	-0.202843	-0.169965
O55	O	1.378710	0.047157	0.080035
O56	O	1.628710	0.297157	0.330035
O57	O	1.093072	-0.350430	-0.534724
O58	O	1.343072	-0.100430	-0.284724
O59	O	1.593072	0.149570	-0.034724
O60	O	1.843072	0.399570	0.215276
O61	O	1.082274	-0.588055	-0.335606
O62	O	1.332274	-0.338055	-0.085606
O63	O	1.582274	-0.088055	0.164394
O64	O	1.832274	0.161945	0.414394
O65	O	0.991901	-0.588015	-0.425994
O66	O	1.241901	-0.338015	-0.175994
O67	O	1.491901	-0.088015	0.074006
O68	O	1.741901	0.161985	0.324006
C69	C	0.854312	-0.401651	-0.372486
C70	C	1.104312	-0.151651	-0.122486
C71	C	1.354312	0.098349	0.127514
C72	C	1.604312	0.348349	0.377514
C73	C	0.772513	-0.401660	-0.372498
C74	C	1.022513	-0.151660	-0.122498
C75	C	1.272513	0.098340	0.127502
C76	C	1.522513	0.348340	0.377502
C77	C	0.586737	-0.348433	-0.417271
C78	C	0.836737	-0.098433	-0.167271
C79	C	1.086737	0.151567	0.082729
C80	C	1.336737	0.401567	0.332729
C81	C	0.509878	-0.348440	-0.417274
C82	C	0.759878	-0.098440	-0.167274
C83	C	1.009878	0.151560	0.082726
C84	C	1.259878	0.401560	0.332726
C85	C	0.505049	-0.454943	-0.327742
C86	C	0.755049	-0.204943	-0.077742
C87	C	1.005049	0.045057	0.172258
C88	C	1.255049	0.295057	0.422258
C89	C	0.581907	-0.454931	-0.327736
C90	C	0.831907	-0.204931	-0.077736
C91	C	1.081907	0.045069	0.172264
C92	C	1.331907	0.295069	0.422264
C93	C	0.622749	-0.401677	-0.372505
C94	C	0.872749	-0.151677	-0.122505
C95	C	1.122749	0.098323	0.127495
C96	C	1.372749	0.348323	0.377495
C97	C	0.469032	-0.401696	-0.372514
C98	C	0.719032	-0.151696	-0.122514
C99	C	0.969032	0.098304	0.127486
C100	C	1.219032	0.348304	0.377486
C101	C	0.385698	-0.401704	-0.372516
C102	C	0.635698	-0.151704	-0.122516
C103	C	0.885698	0.098296	0.127484
C104	C	1.135698	0.348296	0.377484
C105	C	0.706088	-0.401668	-0.372501
C106	C	0.956088	-0.151668	-0.122501
C107	C	1.206088	0.098332	0.127499
C108	C	1.456088	0.348332	0.377499
C109	C	1.035739	-0.618285	-0.382163
C110	C	1.285739	-0.368285	-0.132163
C111	C	1.535739	-0.118285	0.117837
C112	C	1.785739	0.131715	0.367837
C113	C	1.031623	-0.710951	-0.386322
C114	C	1.281623	-0.460951	-0.136322
C115	C	1.531623	-0.210951	0.113678
C116	C	1.781623	0.039049	0.363678
C117	C	1.067050	-0.921893	-0.351084
C118	C	1.317050	-0.671893	-0.101084
C119	C	1.567050	-0.421893	0.148916
C120	C	1.817050	-0.171893	0.398916
C121	C	1.024121	-0.880608	-0.393923
C122	C	1.274121	-0.630608	-0.143923
C123	C	1.524121	-0.380608	0.106077
C124	C	1.774121	-0.130608	0.356077
C125	C	1.028296	-0.786202	-0.389692
C126	C	1.278296	-0.536202	-0.139692
C127	C	1.528296	-0.286202	0.110308
C128	C	1.778296	-0.036202	0.360308
C129	C	1.062876	-1.016308	-0.355314
C130	C	1.312876	-0.766308	-0.105314
C131	C	1.562876	-0.516308	0.144686
C132	C	1.812876	-0.266308	0.394686
C133	C	1.237469	-0.401703	-0.372514
C134	C	1.487469	-0.151703	-0.122514
C135	C	1.737469	0.098297	0.127486
C136	C	1.987469	0.348297	0.377486
C137	C	1.319267	-0.401714	-0.372520
C138	C	1.569267	-0.151714	-0.122520
C139	C	1.819267	0.098286	0.127480
C140	C	2.069267	0.348286	0.377480
C141	C	1.045565	-0.401619	-0.564450
C142	C	1.295565	-0.151619	-0.314450
C143	C	1.545565	0.098381	-0.064450
C144	C	1.795565	0.348381	0.185550
C145	C	1.045585	-0.401594	-0.646248
C146	C	1.295585	-0.151594	-0.396248
C147	C	1.545585	0.098406	-0.146248
C148	C	1.795585	0.348406	0.103752
C149	C	1.055354	-0.184222	-0.362814
C150	C	1.305354	0.065778	-0.112814
C151	C	1.555354	0.315778	0.137186
C152	C	1.805354	0.565778	0.387186
C153	C	1.059546	-0.091555	-0.358687
C154	C	1.309546	0.158445	-0.108687
C155	C	1.559546	0.408445	0.141313
C156	C	1.809546	0.658445	0.391313
C157	C	1.095085	-0.348228	-0.832070
C158	C	1.345085	-0.098228	-0.582070
C159	C	1.595085	0.151772	-0.332070
C160	C	1.845085	0.401772	-0.082070
C161	C	1.095095	-0.348204	-0.908927
C162	C	1.345095	-0.098204	-0.658927
C163	C	1.595095	0.151796	-0.408927
C164	C	1.845095	0.401796	-0.158927
C165	C	0.996143	-0.454831	-0.913659
C166	C	1.246143	-0.204831	-0.663659
C167	C	1.496143	0.045169	-0.413659
C168	C	1.746143	0.295169	-0.163659
C169	C	0.996130	-0.454851	-0.836802
C170	C	1.246130	-0.204851	-0.586802
C171	C	1.496130	0.045149	-0.336802
C172	C	1.746130	0.295149	-0.086802
C173	C	1.045605	-0.401551	-0.796010
C174	C	1.295605	-0.151551	-0.546010
C175	C	1.545605	0.098449	-0.296010
C176	C	1.795605	0.348449	-0.046010
C177	C	1.045628	-0.401507	-0.949724
C178	C	1.295628	-0.151507	-0.699724
C179	C	1.545628	0.098493	-0.449724
C180	C	1.795628	0.348493	-0.199724
C181	C	1.045638	-0.401481	-1.033056
C182	C	1.295638	-0.151481	-0.783056
C183	C	1.545638	0.098519	-0.533056
C184	C	1.795638	0.348519	-0.283056
C185	C	1.045594	-0.401575	-0.712672
C186	C	1.295594	-0.151575	-0.462672
C187	C	1.545594	0.098425	-0.212672
C188	C	1.795594	0.348425	0.037328
C189	C	1.045515	-0.401673	-0.181293
C190	C	1.295515	-0.151673	0.068707
C191	C	1.545515	0.098327	0.318707
C192	C	1.795515	0.348327	0.568707
C193	C	1.045648	-0.401463	-0.099485
C194	C	1.295648	-0.151463	0.150515
C195	C	1.545648	0.098537	0.400515
C196	C	1.795648	0.348537	0.650515
H197	H	0.480561	-0.305082	-0.453726
H198	H	0.730561	-0.055082	-0.203726
H199	H	0.980561	0.194918	0.046274
H200	H	1.230561	0.444918	0.296274
Cl201	Cl	1.128628	-0.867001	-0.289557
Cl202	Cl	1.378628	-0.617001	-0.039557
Cl203	Cl	1.628628	-0.367001	0.210443
Cl204	Cl	1.878628	-0.117001	0.460443
H205	H	0.471786	-0.498301	-0.291294
H206	H	0.721786	-0.248301	-0.041294
H207	H	0.971786	0.001699	0.208706
H208	H	1.221786	0.251699	0.458706
H209	H	0.984234	-0.916164	-0.433775
H210	H	1.234234	-0.666164	-0.183775
H211	H	1.484234	-0.416164	0.066225
H212	H	1.734234	-0.166164	0.316225
H213	H	0.955832	-0.498271	-0.807441
H214	H	1.205832	-0.248271	-0.557441
H215	H	1.455832	0.001729	-0.307441
H216	H	1.705832	0.251729	-0.057441
H217	H	1.135369	-0.304826	-0.798858
H218	H	1.385369	-0.054826	-0.548858
H219	H	1.635369	0.195174	-0.298858
H220	H	1.885369	0.445174	-0.048858
H221	H	0.611228	-0.498290	-0.291278
H222	H	0.861228	-0.248290	-0.041278
H223	H	1.111228	0.001710	0.208722
H224	H	1.361228	0.251710	0.458722
H225	H	1.135386	-0.304782	-0.938284
H226	H	1.385386	-0.054782	-0.688284
H227	H	1.635386	0.195218	-0.438284
H228	H	1.885386	0.445218	-0.188284
H229	H	0.619988	-0.305068	-0.453722
H230	H	0.869988	-0.055068	-0.203722
H231	H	1.119988	0.194932	0.046278
H232	H	1.369988	0.444932	0.296278
Cl233	Cl	0.933952	-0.521838	-0.964946
Cl234	Cl	1.183952	-0.271838	-0.714946
Cl235	Cl	1.433952	-0.021838	-0.464946
Cl236	Cl	1.683952	0.228162	-0.214946
