data_functionalizedCrystal
_audit_creation_method	'MofGen! by Chris Wilmer'
_symmetry_space_group_name_H-M	'P1'
_symmetry_Int_Tables_number	1
_symmetry_cell_setting	triclinic
loop_
_symmetry_equiv_pos_as_xyz
  x,y,z
_cell_length_a	19.188930
_cell_length_b	16.109302
_cell_length_c	15.186229
_cell_angle_alpha	89.994701
_cell_angle_beta	89.991143
_cell_angle_gamma	83.303281
loop_
_atom_site_label
_atom_site_type_symbol
_atom_site_fract_x
_atom_site_fract_y
_atom_site_fract_z
O1	O	0.089746	1.102833	-0.073278
O2	O	0.589746	1.602833	0.426722
O3	O	0.100914	0.860734	-0.073273
O4	O	0.600914	1.360734	0.426727
O5	O	-0.006309	0.988770	-0.073258
O6	O	0.493691	1.488770	0.426742
O7	O	0.196970	0.974797	-0.073292
O8	O	0.696970	1.474797	0.426708
O9	O	-0.006310	0.988761	0.073199
O10	O	0.493690	1.488761	0.573199
O11	O	0.100913	0.860725	0.073185
O12	O	0.600913	1.360725	0.573185
O13	O	0.089745	1.102824	0.073179
O14	O	0.589745	1.602824	0.573179
Zn15	Zn	0.095329	0.981774	0.096435
Zn16	Zn	0.595329	1.481774	0.596435
Zn17	Zn	0.095331	0.981785	-0.096529
Zn18	Zn	0.595331	1.481785	0.403471
O19	O	0.196968	0.974788	0.073165
O20	O	0.696968	1.474788	0.573165
C21	C	0.100461	0.829756	-0.000043
C22	C	0.600461	1.329756	0.499957
C23	C	0.099105	0.737466	-0.000040
C24	C	0.599105	1.237466	0.499960
C25	C	-0.032322	0.988313	-0.000027
C26	C	0.467678	1.488313	0.499973
C27	C	-0.109829	0.986955	-0.000020
C28	C	0.390171	1.486955	0.499980
C29	C	0.095967	0.525130	0.079786
C30	C	0.595967	1.025130	0.579786
C31	C	0.094685	0.438415	0.079783
C32	C	0.594685	0.938415	0.579783
C33	C	0.094690	0.438434	-0.079893
C34	C	0.594690	0.938434	0.420107
C35	C	0.095967	0.525149	-0.079889
C36	C	0.595967	1.025149	0.420111
C37	C	0.096609	0.568495	-0.000047
C38	C	0.596609	1.068495	0.499953
C39	C	0.094050	0.395064	-0.000054
C40	C	0.594050	0.895064	0.499946
C41	C	0.092660	0.301043	-0.000058
C42	C	0.592660	0.801043	0.499942
C43	C	0.097998	0.662522	-0.000043
C44	C	0.597998	1.162522	0.499957
C45	C	-0.154578	1.062082	-0.000017
C46	C	0.345422	1.562082	0.499983
C47	C	-0.227404	1.060806	-0.000031
C48	C	0.272596	1.560806	0.499969
C49	C	-0.255480	0.984398	-0.000030
C50	C	0.244520	1.484398	0.499970
C51	C	-0.210722	0.909261	-0.000037
C52	C	0.289278	1.409261	0.499963
C53	C	-0.137897	0.910539	-0.000032
C54	C	0.362103	1.410539	0.499968
N55	N	-0.363622	0.925991	0.049814
N56	N	0.136378	1.425991	0.549814
N57	N	-0.432803	0.924782	0.049810
N58	N	0.067197	1.424782	0.549810
C59	C	-0.474897	0.980542	-0.000048
C60	C	0.025103	1.480542	0.499952
N61	N	-0.445198	1.037571	-0.049892
N62	N	0.054802	1.537571	0.450108
N63	N	-0.376011	1.038782	-0.049885
N64	N	0.123989	1.538782	0.450115
C65	C	-0.334446	0.983004	-0.000036
C66	C	0.165554	1.483004	0.499964
C67	C	-0.598613	1.054291	-0.000062
C68	C	-0.098613	1.554291	0.499938
C69	C	-0.671441	1.053012	-0.000081
C70	C	-0.171441	1.553012	0.499919
C71	C	-0.654757	0.901465	-0.000079
C72	C	-0.154757	1.401465	0.499921
C73	C	-0.581931	0.902746	-0.000068
C74	C	-0.081931	1.402746	0.499932
C75	C	-0.553864	0.979162	-0.000055
C76	C	-0.053864	1.479162	0.499945
C77	C	0.222981	0.975245	-0.000068
C78	C	0.722981	1.475245	0.499932
C79	C	0.300489	0.976604	-0.000082
C80	C	0.800489	1.476604	0.499918
C81	C	0.090198	1.133802	-0.000052
C82	C	0.590198	1.633802	0.499948
C83	C	0.091555	1.226093	-0.000061
C84	C	0.591555	1.726093	0.499939
N85	N	0.095327	0.981772	0.228128
N86	N	0.595327	1.481772	0.728128
N87	N	0.095327	0.981793	-0.228221
N88	N	0.595327	1.481793	0.271779
C89	C	0.047864	1.038485	0.453857
C90	C	0.547864	1.538485	0.953857
C91	C	0.047863	1.038488	0.546047
C92	C	0.547863	1.538488	1.046047
C93	C	0.142792	0.925073	0.546043
C94	C	0.642792	1.425073	1.046043
C95	C	0.142789	0.925068	0.453855
C96	C	0.642789	1.425068	0.953855
C97	C	0.095327	0.981778	0.407764
C98	C	0.595327	1.481778	0.907764
C99	C	0.095327	0.981787	0.592142
C100	C	0.595327	1.481787	1.092142
C101	C	0.095326	0.981789	0.692098
C102	C	0.595326	1.481789	1.192098
C103	C	0.095327	0.981775	0.307802
C104	C	0.595327	1.481775	0.807802
H105	H	0.094162	0.403111	0.144791
H106	H	0.594162	0.903111	0.644791
O107	O	0.188802	0.869959	0.590917
O108	O	0.688802	1.369959	1.090917
C109	C	0.151399	0.818798	0.644246
C110	C	0.651399	1.318798	1.144246
H111	H	0.096772	0.852110	0.658062
H112	H	0.596772	1.352110	1.158062
H113	H	0.180540	0.805547	0.709069
H114	H	0.680540	1.305547	1.209069
H115	H	0.146641	0.757368	0.608732
H116	H	0.646641	1.257368	1.108732
H117	H	0.181439	0.878886	0.416324
H118	H	0.681439	1.378886	0.916324
H119	H	0.094168	0.403132	-0.144897
H120	H	0.594168	0.903132	0.355103
O121	O	0.096621	0.567145	-0.157523
O122	O	0.596621	1.067145	0.342477
C123	C	0.095769	0.510297	-0.227994
C124	C	0.595769	1.010297	0.272006
H125	H	0.116951	0.444957	-0.204599
H126	H	0.616951	0.944957	0.295401
H127	H	0.130017	0.529960	-0.283833
H128	H	0.630017	1.029960	0.216167
H129	H	0.039654	0.510005	-0.252535
H130	H	0.539654	1.010005	0.247465
O131	O	0.001647	1.093484	0.409143
O132	O	0.501647	1.593484	0.909143
C133	C	-0.067461	1.080212	0.431735
C134	C	0.432539	1.580212	0.931735
H135	H	-0.067796	1.013646	0.457075
H136	H	0.432204	1.513646	0.957075
H137	H	-0.102521	1.089903	0.371134
H138	H	0.397479	1.589903	0.871134
H139	H	-0.087948	1.126354	0.485263
H140	H	0.412052	1.626354	0.985263
H141	H	0.096490	0.560420	0.144798
H142	H	0.596490	1.060420	0.644798
O143	O	0.001786	1.093495	0.590957
O144	O	0.501786	1.593495	1.090957
C145	C	0.011972	1.081356	0.682209
C146	C	0.511972	1.581356	1.182209
H147	H	0.038050	1.015163	0.694806
H148	H	0.538050	1.515163	1.194806
H149	H	-0.040901	1.090803	0.717253
H150	H	0.459099	1.590803	1.217253
H151	H	0.047003	1.128283	0.708356
H152	H	0.547003	1.628283	1.208356
H153	H	-0.263845	1.121986	-0.000033
H154	H	0.236155	1.621986	0.499967
O155	O	-0.127350	1.136332	-0.000168
O156	O	0.372650	1.636332	0.499832
C157	C	-0.150226	1.182129	-0.076008
C158	C	0.349774	1.682129	0.423992
H159	H	-0.165355	1.137447	-0.129026
H160	H	0.334645	1.637447	0.370974
H161	H	-0.106116	1.217347	-0.101466
H162	H	0.393884	1.717347	0.398534
H163	H	-0.197704	1.228627	-0.058860
H164	H	0.302296	1.728627	0.441140
O165	O	-0.238074	0.835091	-0.000152
O166	O	0.261926	1.335091	0.499848
C167	C	-0.279676	0.829815	-0.076016
C168	C	0.220324	1.329815	0.423984
H169	H	-0.297823	0.895413	-0.101303
H170	H	0.202177	1.395413	0.398697
H171	H	-0.327359	0.796847	-0.058959
H172	H	0.172641	1.296847	0.441041
H173	H	-0.247487	0.792920	-0.129130
H174	H	0.252513	1.292920	0.370870
O175	O	-0.571227	1.128444	-0.000021
O176	O	-0.071227	1.628444	0.499979
C177	C	-0.497354	1.113463	-0.000032
C178	C	0.002646	1.613463	0.499968
H179	H	-0.480245	1.048519	0.027701
H180	H	0.019755	1.548519	0.527701
H181	H	-0.475012	1.162339	0.042490
H182	H	0.024988	1.662339	0.542490
H183	H	-0.477068	1.117420	-0.070292
H184	H	0.022932	1.617420	0.429708
O185	O	-0.094524	0.837481	0.000009
O186	O	0.405476	1.337481	0.500009
C187	C	-0.134916	0.769764	-0.000020
C188	C	0.365084	1.269764	0.499980
H189	H	-0.189279	0.791062	0.027700
H190	H	0.310721	1.291062	0.527700
H191	H	-0.108048	0.717137	0.042503
H192	H	0.391952	1.217137	0.542503
H193	H	-0.140081	0.746336	-0.070285
H194	H	0.359919	1.246336	0.429715
O195	O	-0.714813	1.126072	-0.000041
O196	O	-0.214813	1.626072	0.499959
C197	C	-0.674419	1.193786	-0.000049
C198	C	-0.174419	1.693786	0.499951
H199	H	-0.620067	1.172480	0.027684
H200	H	-0.120067	1.672480	0.527684
H201	H	-0.701303	1.246404	0.042474
H202	H	-0.201303	1.746404	0.542474
H203	H	-0.669225	1.217231	-0.070309
H204	H	-0.169225	1.717231	0.429691
H205	H	-0.677615	0.839252	-0.000082
H206	H	-0.177615	1.339252	0.499918
H207	H	-0.545495	0.841569	-0.000065
H208	H	-0.045495	1.341569	0.499935
