data_functionalizedCrystal
_audit_creation_method	'MofGen! by Chris Wilmer'
_symmetry_space_group_name_H-M	'P1'
_symmetry_Int_Tables_number	1
_symmetry_cell_setting	triclinic
loop_
_symmetry_equiv_pos_as_xyz
  x,y,z
_cell_length_a	14.853566
_cell_length_b	14.853567
_cell_length_c	13.330367
_cell_angle_alpha	90.001398
_cell_angle_beta	89.995157
_cell_angle_gamma	83.634672
loop_
_atom_site_label
_atom_site_type_symbol
_atom_site_fract_x
_atom_site_fract_y
_atom_site_fract_z
O1	O	-1.196370	-0.117695	0.083349
O2	O	-0.696370	0.382305	0.583349
O3	O	-0.933910	-0.131718	0.083364
O4	O	-0.433910	0.368282	0.583364
O5	O	-1.072151	0.006523	0.083359
O6	O	-0.572151	0.506523	0.583359
O7	O	-1.058129	-0.255936	0.083354
O8	O	-0.558129	0.244064	0.583354
O9	O	-1.072130	0.006520	-0.083488
O10	O	-0.572130	0.506520	0.416512
O11	O	-0.933889	-0.131721	-0.083483
O12	O	-0.433889	0.368279	0.416517
O13	O	-1.196349	-0.117698	-0.083499
O14	O	-0.696349	0.382302	0.416501
Cu15	Cu	-1.065117	-0.124710	-0.098725
Cu16	Cu	-0.565117	0.375290	0.401275
Cu17	Cu	-1.065142	-0.124706	0.098591
Cu18	Cu	-0.565142	0.375294	0.598591
O19	O	-1.058108	-0.255939	-0.083493
O20	O	-0.558108	0.244061	0.416507
C21	C	-1.071505	0.040111	-0.000062
C22	C	-0.571505	0.540111	0.499938
C23	C	-1.069601	0.140194	-0.000053
C24	C	-0.569601	0.640194	0.499947
C25	C	-0.900311	-0.131084	-0.000057
C26	C	-0.400311	0.368916	0.499943
C27	C	-0.800227	-0.129181	-0.000051
C28	C	-0.300227	0.370819	0.499949
C29	C	-1.229948	-0.118332	-0.000075
C30	C	-0.729948	0.381668	0.499925
C31	C	-1.330032	-0.120235	-0.000075
C32	C	-0.830032	0.379765	0.499925
C33	C	-1.058754	-0.289526	-0.000071
C34	C	-0.558754	0.210474	0.499929
C35	C	-1.060658	-0.389610	-0.000073
C36	C	-0.560658	0.110390	0.499927
C37	C	-0.377054	-0.121128	0.090880
C38	C	0.122946	0.378872	0.590880
C39	C	-0.377052	-0.121132	-0.091023
C40	C	0.122948	0.378868	0.408977
C41	C	-0.471086	-0.122920	-0.091020
C42	C	0.028914	0.377080	0.408980
C43	C	-0.518108	-0.123813	-0.000066
C44	C	-0.018108	0.376187	0.499934
C45	C	-0.471096	-0.122919	0.090886
C46	C	0.028904	0.377081	0.590886
C47	C	-0.518104	-0.123823	-0.181970
C48	C	-0.018104	0.376177	0.318030
C49	C	-0.612144	-0.125611	-0.181971
C50	C	-0.112144	0.374389	0.318029
C51	C	-0.659169	-0.126498	-0.091015
C52	C	-0.159169	0.373502	0.408985
C53	C	-0.612151	-0.125603	-0.000060
C54	C	-0.112151	0.374397	0.499940
C55	C	-0.659173	-0.126496	0.090895
C56	C	-0.159173	0.373504	0.590895
C57	C	-0.612158	-0.125595	0.181851
C58	C	-0.112158	0.374405	0.681851
C59	C	-0.518121	-0.123806	0.181841
C60	C	-0.018121	0.376194	0.681841
C61	C	-0.753205	-0.128287	-0.091006
C62	C	-0.253205	0.371713	0.408994
C63	C	-0.753215	-0.128287	0.090900
C64	C	-0.253215	0.371713	0.590900
C65	C	-0.979435	0.552728	-0.000067
C66	C	-0.479435	1.052728	0.499933
C67	C	-1.143668	0.574009	-0.000076
C68	C	-0.643668	1.074009	0.499924
C69	C	-1.145458	0.479976	-0.000070
C70	C	-0.645458	0.979976	0.499930
C71	C	-1.064236	0.422313	-0.000064
C72	C	-0.564236	0.922313	0.499936
C73	C	-0.981223	0.458685	-0.000064
C74	C	-0.481223	0.958685	0.499936
C75	C	-1.228470	0.443597	-0.000081
C76	C	-0.728470	0.943597	0.499919
C77	C	-1.230263	0.349558	-0.000076
C78	C	-0.730263	0.849558	0.499924
C79	C	-1.149040	0.291894	-0.000063
C80	C	-0.649040	0.791894	0.499937
C81	C	-1.066023	0.328271	-0.000061
C82	C	-0.566023	0.828271	0.499939
C83	C	-0.984801	0.270608	-0.000055
C84	C	-0.484801	0.770608	0.499945
C85	C	-0.901784	0.306984	-0.000047
C86	C	-0.401784	0.806984	0.499953
C87	C	-0.899999	0.401021	-0.000050
C88	C	-0.399999	0.901021	0.499950
C89	C	-1.150824	0.197856	-0.000059
C90	C	-0.650824	0.697856	0.499941
C91	C	-0.986588	0.176566	-0.000052
C92	C	-0.486588	0.676566	0.499948
N93	N	-1.065106	-0.124711	-0.237507
N94	N	-0.565106	0.375289	0.262493
C95	C	-1.010366	-0.069932	-0.290027
C96	C	-0.510366	0.430068	0.209973
C97	C	-1.119858	-0.179486	-0.290014
C98	C	-0.619858	0.320514	0.209986
C99	C	-1.119868	-0.179486	-0.395033
C100	C	-0.619868	0.320514	0.104967
C101	C	-1.065128	-0.124707	-0.447553
C102	C	-0.565128	0.375293	0.052447
C103	C	-1.010377	-0.069928	-0.395055
C104	C	-0.510377	0.430072	0.104945
C105	C	-1.174625	-0.234257	-0.447538
C106	C	-0.674625	0.265743	0.052462
C107	C	-1.174639	-0.234257	-0.552563
C108	C	-0.674639	0.265743	-0.052563
C109	C	-1.119893	-0.179482	-0.605086
C110	C	-0.619893	0.320518	-0.105086
C111	C	-1.065139	-0.124702	-0.552581
C112	C	-0.565139	0.375298	-0.052581
C113	C	-1.010398	-0.069923	-0.605102
C114	C	-0.510398	0.430077	-0.105102
C115	C	-0.955639	-0.015147	-0.552599
C116	C	-0.455639	0.484853	-0.052599
C117	C	-0.955631	-0.015153	-0.447578
C118	C	-0.455631	0.484847	0.052422
C119	C	-1.119901	-0.179477	-0.710107
C120	C	-0.619901	0.320523	-0.210107
C121	C	-1.010409	-0.069919	-0.710130
C122	C	-0.510409	0.430081	-0.210130
N123	N	-1.065160	-0.124697	0.237372
N124	N	-0.565160	0.375303	0.737372
H125	H	-0.791494	-0.129011	0.164968
H126	H	-0.291494	0.370989	0.664968
F127	F	-1.318616	0.310853	-0.000073
F128	F	-0.818616	0.810853	0.499927
H129	H	-0.911050	0.029444	-0.404821
H130	H	-0.411050	0.529444	0.095179
F131	F	-0.952086	-0.011642	-0.234151
F132	F	-0.452086	0.488358	0.265849
F133	F	-0.891087	0.591440	-0.000049
F134	F	-0.391087	1.091440	0.499951
H135	H	-0.650416	-0.126344	-0.256033
H136	H	-0.150416	0.373656	0.243967
F137	F	-0.811655	0.439741	-0.000038
F138	F	-0.311655	0.939741	0.499962
F139	F	-0.662212	-0.126551	0.278648
F140	F	-0.162212	0.373449	0.778648
F141	F	-0.468082	-0.122818	0.278634
F142	F	0.031918	0.377182	0.778634
F143	F	-0.327021	-0.120147	0.187677
F144	F	0.172979	0.379853	0.687677
F145	F	-0.327005	-0.120191	-0.187818
F146	F	0.172995	0.379809	0.312182
F147	F	-1.178182	-0.237762	-0.765979
F148	F	-0.678182	0.262238	-0.265979
H149	H	-1.294597	0.490552	-0.000095
H150	H	-0.794597	0.990552	0.499905
F151	F	-0.468055	-0.122882	-0.278763
F152	F	0.031945	0.377118	0.221237
F153	F	-1.232885	-0.292547	-0.391638
F154	F	-0.732885	0.207453	0.108362
F155	F	-1.178118	-0.237777	-0.234116
F156	F	-0.678118	0.262223	0.265884
H157	H	-0.791480	-0.129030	-0.165061
H158	H	-0.291480	0.370970	0.334939
F159	F	-1.232915	-0.292557	-0.608431
F160	F	-0.732915	0.207443	-0.108431
F161	F	-1.239170	0.159147	-0.000084
F162	F	-0.739170	0.659147	0.499916
F163	F	-0.900138	0.115204	-0.000039
F164	F	-0.400138	0.615204	0.499961
H165	H	-0.965828	-0.025314	-0.752885
H166	H	-0.465828	0.474686	-0.252885
H167	H	-1.209796	0.620963	-0.000089
H168	H	-0.709796	1.120963	0.499911
F169	F	-0.815344	0.245605	-0.000048
F170	F	-0.315344	0.745605	0.499952
H171	H	-0.911073	0.029458	-0.595375
H172	H	-0.411073	0.529458	-0.095375
