data_functionalizedCrystal
_audit_creation_method	'MofGen! by Chris Wilmer'
_symmetry_space_group_name_H-M	'P1'
_symmetry_Int_Tables_number	1
_symmetry_cell_setting	triclinic
loop_
_symmetry_equiv_pos_as_xyz
  x,y,z
_cell_length_a	10.654550
_cell_length_b	17.666332
_cell_length_c	10.654550
_cell_angle_alpha	90.006275
_cell_angle_beta	84.484931
_cell_angle_gamma	90.006092
loop_
_atom_site_label
_atom_site_type_symbol
_atom_site_fract_x
_atom_site_fract_y
_atom_site_fract_z
O1	O	1.667850	0.062892	0.176401
O2	O	1.302371	0.062905	0.193207
O3	O	1.493514	0.062893	0.002065
O4	O	1.476708	0.062904	0.367544
O5	O	1.493480	-0.063003	0.002054
O6	O	1.302337	-0.062991	0.193197
O7	O	1.667816	-0.063005	0.176391
Cu8	Cu	1.485074	-0.074494	0.184793
Cu9	Cu	1.485114	0.074394	0.184805
O10	O	1.476674	-0.062993	0.367533
C11	C	1.255556	-0.000041	0.191968
C12	C	1.116113	-0.000036	0.188276
N13	N	1.485055	-0.179213	0.184783
C14	C	1.036628	-0.000035	0.300818
C15	C	0.905607	-0.000048	0.297341
C16	C	0.933570	-0.000060	0.068772
C17	C	1.064588	-0.000052	0.072250
C18	C	1.569720	-0.218828	0.100188
C19	C	1.569728	-0.298076	0.100181
C20	C	1.485081	-0.337705	0.184793
C21	C	1.400399	-0.298081	0.269395
C22	C	1.400386	-0.218834	0.269390
N23	N	1.470062	-0.462120	0.295783
N24	N	1.470082	-0.537401	0.295784
C25	C	1.485114	-0.576469	0.184811
N26	N	1.500150	-0.537413	0.073834
N27	N	1.500136	-0.462126	0.073834
C28	C	1.485086	-0.423634	0.184807
C29	C	1.569793	-0.702014	0.100202
C30	C	1.569791	-0.781263	0.100194
C31	C	1.400469	-0.781266	0.269419
C32	C	1.400465	-0.702018	0.269415
C33	C	1.485133	-0.662397	0.184808
C34	C	1.714631	-0.000057	0.177630
C35	C	1.854074	-0.000057	0.181322
C36	C	1.492263	-0.000054	-0.044738
C37	C	1.488571	-0.000053	-0.184181
N38	N	1.485143	0.179113	0.184805
C39	C	1.601112	-0.000057	-0.263667
C40	C	1.597636	-0.000048	-0.394688
C41	C	1.369066	-0.000034	-0.366725
C42	C	1.372544	-0.000038	-0.235706
C43	C	1.477925	-0.000044	0.414336
C44	C	1.481616	-0.000040	0.553779
H45	H	1.078574	-0.000027	0.395294
O46	O	1.726255	-0.000061	-0.208100
H47	H	1.733307	-0.051379	-0.149098
H48	H	1.331477	-0.330351	0.338285
H49	H	1.274601	-0.000022	-0.408693
O50	O	1.309075	-0.176099	0.360645
H51	H	1.250217	-0.216966	0.419488
H52	H	1.638659	-0.186571	0.031293
O53	O	0.819871	-0.000045	0.418724
H54	H	0.877716	-0.000027	0.499983
O55	O	1.150329	-0.000060	-0.049143
H56	H	1.210704	0.051251	-0.053023
H57	H	0.891602	-0.000078	-0.025693
H58	H	1.638731	-0.669752	0.031306
O59	O	1.661058	-0.340812	0.008938
H60	H	1.646837	-0.402574	0.023154
O61	O	1.661127	-0.823997	0.008961
H62	H	1.720008	-0.783128	-0.049855
O63	O	1.309170	-0.823996	0.360686
H64	H	1.323406	-0.885757	0.346484
O65	O	1.309161	-0.659282	0.360673
H66	H	1.250308	-0.700150	0.419517
O67	O	1.719018	-0.000062	-0.480424
H68	H	1.800277	-0.000081	-0.422579
H69	H	1.280893	-0.000032	-0.170985
