data_functionalizedCrystal
_audit_creation_method	'MofGen! by Chris Wilmer'
_symmetry_space_group_name_H-M	'P1'
_symmetry_Int_Tables_number	1
_symmetry_cell_setting	triclinic
loop_
_symmetry_equiv_pos_as_xyz
  x,y,z
_cell_length_a	25.639243
_cell_length_b	14.908326
_cell_length_c	14.908308
_cell_angle_alpha	90.223626
_cell_angle_beta	93.275293
_cell_angle_gamma	86.675226
loop_
_atom_site_label
_atom_site_type_symbol
_atom_site_fract_x
_atom_site_fract_y
_atom_site_fract_z
Zn1	Zn	0.770029	0.387259	-0.487776
Zn2	Zn	0.770545	0.528969	-0.328733
Zn3	Zn	0.687916	0.378625	-0.337427
Zn4	Zn	0.677835	0.537592	-0.479036
O5	O	0.726581	0.458111	-0.408243
O6	O	0.843262	0.406062	-0.466698
O7	O	0.764019	0.501803	-0.204063
O8	O	0.702812	0.253936	-0.364668
O9	O	0.843641	0.510175	-0.349850
O10	O	0.763140	0.260280	-0.475128
O11	O	0.703312	0.391346	-0.210450
O12	O	0.613414	0.399707	-0.356193
O13	O	0.685630	0.524872	-0.606019
O14	O	0.606008	0.516499	-0.460232
O15	O	0.753365	0.414423	-0.612440
O16	O	0.754244	0.655946	-0.341375
O17	O	0.686130	0.662282	-0.451801
C18	C	0.590740	0.458103	-0.408208
C19	C	0.532625	0.458122	-0.408213
C20	C	0.172053	0.403995	-0.469177
C21	C	0.117448	0.403995	-0.469182
O22	O	0.089035	0.357954	-0.520972
N23	N	0.090341	0.458110	-0.408268
C24	C	0.117843	0.512222	-0.347338
O25	O	0.089772	0.558251	-0.295526
C26	C	0.172446	0.512217	-0.347329
C27	C	0.199550	0.458105	-0.408253
C28	C	0.199156	0.349887	-0.530095
C29	C	0.253757	0.349889	-0.530090
C30	C	0.281254	0.403999	-0.469167
C31	C	0.254150	0.458107	-0.408248
C32	C	0.199947	0.566324	-0.286395
C33	C	0.254554	0.566314	-0.286391
C34	C	0.281658	0.512202	-0.347315
C35	C	0.336248	0.512219	-0.347320
N36	N	0.363355	0.458104	-0.408234
C37	C	0.335858	0.403994	-0.469158
C38	C	0.003171	0.512227	-0.347361
C39	C	-0.051432	0.512238	-0.347373
C40	C	-0.051823	0.404009	-0.469217
C41	C	0.002781	0.404004	-0.469208
C42	C	0.030278	0.458112	-0.408275
C43	C	0.450523	0.404003	-0.469144
C44	C	0.505128	0.404012	-0.469136
C45	C	0.505514	0.512237	-0.347290
C46	C	0.450914	0.512231	-0.347300
C47	C	0.423419	0.458107	-0.408231
O48	O	0.364696	0.558233	-0.295554
O49	O	0.363935	0.357964	-0.520954
C50	C	0.719162	0.691743	-0.394716
C51	C	0.716035	0.791693	-0.388959
C52	C	0.772924	0.985973	-0.493287
C53	C	0.769987	1.079885	-0.487881
C54	C	0.707223	1.073432	-0.372746
C55	C	0.710160	0.979520	-0.378152
C56	C	0.743012	0.935794	-0.438423
C57	C	0.745951	0.841879	-0.443824
C58	C	0.683184	0.835428	-0.328694
C59	C	0.680248	0.929340	-0.323288
C60	C	0.862953	0.458120	-0.408279
C61	C	0.921066	0.458124	-0.408294
C62	C	0.718315	0.471573	-0.642766
C63	C	0.714793	0.477309	-0.742706
C64	C	0.734022	1.223568	-0.421836
C65	C	0.737139	1.123618	-0.427611
C66	C	0.778705	0.373058	-0.937194
C67	C	0.775397	0.378444	-1.031096
C68	C	0.704866	0.493465	-1.024416
C69	C	0.708174	0.488078	-0.930514
C70	C	0.745095	0.427873	-0.886906
C71	C	0.748406	0.422491	-0.793001
C72	C	0.677873	0.537506	-0.786323
C73	C	0.674565	0.542893	-0.880226
C74	C	0.734848	0.444637	-0.174636
C75	C	0.738479	0.438647	-0.074711
H76	H	-0.074221	0.359947	-0.518822
H77	H	0.650507	0.582144	-0.745368
H78	H	0.644504	0.591908	-0.915744
H79	H	0.778469	0.373471	-0.757497
H80	H	0.808770	0.324041	-0.901687
H81	H	0.653499	0.964955	-0.274219
H82	H	0.799677	0.950370	-0.542356
H83	H	0.025555	0.556297	-0.297744
F84	F	0.811168	0.320101	-1.084614
F85	F	0.672252	1.119985	-0.308624
H86	H	0.794342	1.120739	-0.532561
F87	F	-0.080272	0.569840	-0.282538
F88	F	0.665572	0.557527	-1.070843
F89	F	0.780916	0.795344	-0.507967
F90	F	0.169899	0.292290	-0.594944
F91	F	0.533970	0.346419	-0.533985
H92	H	0.428144	0.359926	-0.518756
H93	H	0.275819	0.305824	-0.579700
F94	F	0.651351	0.782016	-0.270295
F95	F	0.031622	0.346410	-0.534050
H96	H	0.177889	0.610387	-0.236783
F97	F	0.422066	0.569847	-0.282480
H98	H	0.527912	0.556294	-0.297689
F99	F	0.283815	0.623906	-0.221537
