data_functionalizedCrystal
_audit_creation_method	'MofGen! by Chris Wilmer'
_symmetry_space_group_name_H-M	'P1'
_symmetry_Int_Tables_number	1
_symmetry_cell_setting	triclinic
loop_
_symmetry_equiv_pos_as_xyz
  x,y,z
_cell_length_a	14.560438
_cell_length_b	19.902436
_cell_length_c	14.560438
_cell_angle_alpha	59.994016
_cell_angle_beta	89.999635
_cell_angle_gamma	60.003235
loop_
_atom_site_label
_atom_site_type_symbol
_atom_site_fract_x
_atom_site_fract_y
_atom_site_fract_z
Zr1	Zr	0.884774	0.735498	-0.120630
O2	O	0.738131	0.875678	-0.267296
O3	O	0.929725	0.595318	-0.075656
O4	O	0.929728	0.735500	-0.267279
O5	O	0.738128	0.735493	0.075468
O6	O	1.080867	0.735502	-0.267280
O7	O	0.738128	0.735495	-0.075673
O8	O	1.080860	0.484741	0.075498
O9	O	0.738134	0.986254	-0.267311
O10	O	1.061692	0.652977	-0.056492
O11	O	0.948899	0.652974	0.056304
O12	O	0.948904	0.818021	-0.169307
O13	O	0.836111	0.818018	-0.056512
Zr14	Zr	1.125822	0.735498	0.120420
Zr15	Zr	1.125822	0.735501	-0.120632
Zr16	Zr	0.884774	0.735495	0.120422
Zr17	Zr	0.884779	0.911854	-0.120653
Zr18	Zr	1.125817	0.559141	0.120444
O19	O	1.080871	0.875678	0.075447
O20	O	1.080871	0.875682	-0.267299
O21	O	0.738132	0.875673	0.075449
O22	O	1.272464	0.595317	0.267087
O23	O	1.272464	0.595322	-0.075659
O24	O	0.929725	0.595313	0.267089
O25	O	1.272468	0.735502	-0.075677
O26	O	1.080867	0.735495	0.267069
O27	O	0.929729	0.735493	0.267071
O28	O	1.272468	0.735500	0.075464
O29	O	0.929736	0.986257	-0.267312
O30	O	1.080860	0.484739	0.267103
O31	O	1.272461	0.484741	0.267101
O32	O	1.272461	0.484743	0.075497
O33	O	0.738135	0.986252	-0.075706
O34	O	0.929736	0.986254	-0.075708
O35	O	1.061692	0.652974	0.169098
O36	O	1.174485	0.652977	0.056302
O37	O	1.061697	0.818021	-0.056513
O38	O	0.948904	0.818018	0.056282
C39	C	1.005292	0.514902	-0.000076
C40	C	1.005289	0.440034	-0.000066
C41	C	0.703783	0.735494	-0.000103
C42	C	0.601452	0.735493	-0.000102
C43	C	0.612248	0.649343	0.058783
C44	C	0.516093	0.649347	0.058783
C45	C	0.398350	0.821659	-0.058994
C46	C	0.494504	0.821654	-0.058987
C47	C	1.005301	0.168024	-0.000118
C48	C	0.934493	0.196261	0.071380
C49	C	0.934109	0.274379	0.071085
C50	C	1.005295	0.302971	-0.000091
C51	C	0.953404	0.338536	-0.122665
C52	C	0.952871	0.260698	-0.122288
C53	C	1.128035	0.133510	0.049975
C54	C	1.127855	0.210562	0.052470
C55	C	1.005293	0.379240	-0.000083
C56	C	1.005299	0.091760	-0.000135
C57	C	1.306812	0.735501	-0.000107
C58	C	1.409143	0.735503	-0.000108
C59	C	1.005297	0.735502	-0.301624
C60	C	1.005297	0.735503	-0.403957
C61	C	1.005304	0.956093	-0.000134
C62	C	1.005306	1.030961	-0.000144
C63	C	1.088560	0.735505	-0.452034
C64	C	1.088564	0.735496	-0.548180
C65	C	0.922031	0.735488	-0.548167
C66	C	0.922033	0.735490	-0.452018
C67	C	1.005298	0.735494	0.301415
C68	C	1.005298	0.735492	0.403748
C69	C	1.306806	0.514906	-0.000078
C70	C	1.409135	0.440039	-0.000069
C71	C	1.005292	0.514898	0.301444
C72	C	1.005290	0.440029	0.403787
C73	C	1.306806	0.514902	0.301442
C74	C	1.409136	0.440034	0.403784
C75	C	0.703789	0.956093	-0.301651
C76	C	0.601460	1.030961	-0.403994
C77	C	0.703790	0.956089	-0.000132
C78	C	0.601461	1.030956	-0.000141
C79	C	1.005304	0.956097	-0.301654
C80	C	1.005306	1.030966	-0.403996
C81	C	1.398313	0.404881	-0.058952
C82	C	1.494453	0.334545	-0.058966
C83	C	1.601414	0.299365	-0.000089
C84	C	1.612233	0.334530	0.058796
C85	C	1.516095	0.404869	0.058802
C86	C	1.064166	0.404870	0.510736
C87	C	1.064160	0.334532	0.606907
C88	C	1.005284	0.299350	0.596127
C89	C	0.946400	0.334516	0.489167
C90	C	0.946401	0.404858	0.392998
C91	C	1.516077	0.404877	0.392967
C92	C	1.612236	0.334540	0.489119
C93	C	1.601450	0.299357	0.596087
C94	C	1.494497	0.334521	0.606902
C95	C	1.398341	0.404862	0.510751
C96	C	0.494519	1.066127	-0.393176
C97	C	0.398360	1.136486	-0.489328
C98	C	0.409146	1.171672	-0.596297
C99	C	0.516099	1.136504	-0.607112
C100	C	0.612255	1.066151	-0.510961
C101	C	0.612283	1.066122	0.058732
C102	C	0.516143	1.136477	0.058719
C103	C	0.409182	1.171660	-0.000160
C104	C	0.398362	1.136492	-0.059041
C105	C	0.494501	1.066143	-0.059034
C106	C	1.064193	1.066126	-0.393181
C107	C	1.064217	1.136464	-0.489333
C108	C	1.005346	1.171647	-0.596301
C109	C	0.946457	1.136480	-0.607115
C110	C	0.946440	1.066138	-0.510963
H111	H	0.699327	0.579185	0.106744
H112	H	1.112170	1.165090	-0.480507
H113	H	1.524922	0.433486	0.106758
Cl114	Cl	0.529673	0.541040	0.132819
H115	H	0.699329	1.037520	-0.519782
Cl116	Cl	1.722264	0.210935	-0.000106
Cl117	Cl	0.817357	0.735476	-0.608594
H118	H	1.485621	0.305923	-0.106916
Cl119	Cl	1.138193	0.449081	0.524317
Cl120	Cl	1.138214	1.021910	-0.258718
H121	H	0.898461	0.433475	0.305919
H122	H	0.311263	0.891808	-0.106938
H123	H	0.898482	1.037519	-0.519785
Cl124	Cl	1.746707	0.290288	0.132812
H125	H	0.699367	1.037481	0.106687
H126	H	1.485732	0.305865	0.694008
H127	H	1.311268	0.433478	0.519574
H128	H	0.969116	0.131754	0.161866
Cl129	Cl	0.480930	1.021907	-0.258714
Cl130	Cl	1.138195	0.290334	0.741357
H131	H	1.005292	0.242073	0.674443
Cl132	Cl	0.872393	0.290275	0.475634
H133	H	1.524880	0.433512	0.305876
Cl134	Cl	0.872440	1.180728	-0.741597
H135	H	1.156360	0.735514	-0.412904
H136	H	0.524974	1.165099	0.106671
Cl137	Cl	0.288332	1.260098	-0.000155
H138	H	1.166622	0.181817	0.142771
Cl139	Cl	0.480930	0.929965	-0.133013
H140	H	1.699312	0.305916	0.480293
Cl141	Cl	0.987994	0.233193	0.210429
H142	H	0.485674	1.037513	-0.106972
H143	H	0.311262	1.165149	-0.106979
Cl144	Cl	1.005374	1.260081	-0.717168
H145	H	0.844495	0.222220	0.036942
Cl146	Cl	0.263919	1.180680	-0.475707
H147	H	0.843578	0.338838	0.036354
H148	H	0.862556	0.290240	-0.162390
H149	H	1.001113	0.244751	-0.178454
H150	H	1.679755	0.242081	0.674370
H151	H	1.002500	0.359430	-0.178243
H152	H	0.330840	1.228958	-0.674580
Cl153	Cl	1.193243	0.735496	-0.608614
H154	H	0.863953	0.405539	-0.163043
Cl155	Cl	1.194948	0.028482	0.187215
H156	H	0.524867	1.165162	-0.694217
H157	H	1.185057	0.226170	0.005809
H158	H	0.854229	0.735485	-0.412869
Cl159	Cl	1.263860	0.449098	-0.132983
Cl160	Cl	1.209870	0.104401	-0.030044
