data_functionalizedCrystal
_audit_creation_method	'MofGen! by Chris Wilmer'
_symmetry_space_group_name_H-M	'P1'
_symmetry_Int_Tables_number	1
_symmetry_cell_setting	triclinic
loop_
_symmetry_equiv_pos_as_xyz
  x,y,z
_cell_length_a	19.805405
_cell_length_b	19.805407
_cell_length_c	19.805382
_cell_angle_alpha	90.073245
_cell_angle_beta	89.897720
_cell_angle_gamma	89.973590
loop_
_atom_site_label
_atom_site_type_symbol
_atom_site_fract_x
_atom_site_fract_y
_atom_site_fract_z
Zn1	Zn	-0.268991	-1.035094	-0.382713
Zn2	Zn	-0.382324	-1.034903	-0.269521
Zn3	Zn	-0.269154	-0.921803	-0.269537
Zn4	Zn	-0.382144	-0.921873	-0.382668
O5	O	-0.325653	-0.978418	-0.326110
O6	O	-0.284032	-1.129786	-0.367710
O7	O	-0.367455	-1.019791	-0.174806
O8	O	-0.174416	-0.936882	-0.284576
O9	O	-0.367297	-1.129645	-0.284548
O10	O	-0.174296	-1.020117	-0.367725
O11	O	-0.284310	-0.936697	-0.174818
O12	O	-0.284135	-0.827096	-0.284532
O13	O	-0.366990	-0.937001	-0.477391
O14	O	-0.367148	-0.827147	-0.367649
O15	O	-0.283858	-1.020184	-0.477424
O16	O	-0.477017	-1.019858	-0.284504
O17	O	-0.476884	-0.936815	-0.367633
C18	C	-0.325640	-0.802562	-0.326088
C19	C	-0.325651	-0.727330	-0.326094
C20	C	-0.501509	-0.978342	-0.326077
C21	C	-0.576741	-0.978371	-0.326085
C22	C	-0.325386	-0.978622	-0.502653
C23	C	-0.325272	-0.978708	-0.577885
C24	C	-0.612132	-1.021654	-0.282846
C25	C	-0.682820	-1.021683	-0.282861
C26	C	-0.718117	-0.978425	-0.326112
C27	C	-0.682721	-0.935140	-0.369357
C28	C	-0.612034	-0.935116	-0.369345
C29	C	-0.967794	-0.935240	-0.369407
C30	C	-1.038487	-0.935267	-0.369414
C31	C	-1.038580	-1.021808	-0.282923
C32	C	-0.967893	-1.021783	-0.282911
C33	C	-0.932504	-0.978501	-0.326158
C34	C	-0.855856	-0.978471	-0.326142
C35	C	-0.794764	-0.978451	-0.326125
C36	C	-0.149110	-0.978513	-0.326157
C37	C	-0.073878	-0.978554	-0.326178
C38	C	-0.325667	-1.154961	-0.326132
C39	C	-0.325672	-1.230193	-0.326141
C40	C	-0.368941	-0.692030	-0.369303
C41	C	-0.368942	-0.621342	-0.369313
C42	C	-0.325656	-0.585955	-0.326110
C43	C	-0.282361	-0.621260	-0.282899
C44	C	-0.282357	-0.691947	-0.282893
C45	C	-0.282376	-0.336186	-0.282921
C46	C	-0.282385	-0.265494	-0.282929
C47	C	-0.368961	-0.265581	-0.369341
C48	C	-0.368957	-0.336269	-0.369335
C49	C	-0.325660	-0.371567	-0.326127
C50	C	-0.325659	-0.448216	-0.326118
C51	C	-0.325661	-0.509308	-0.326115
C52	C	-0.325871	-0.978255	-0.150253
C53	C	-0.325794	-0.978299	-0.075021
C54	C	-0.281715	-1.021674	0.386560
C55	C	-0.281786	-1.021614	0.315872
C56	C	-0.325418	-0.978591	0.280740
C57	C	-0.368977	-0.935620	0.316300
C58	C	-0.368902	-0.935678	0.386987
C59	C	-0.369282	-0.935388	0.031227
C60	C	-0.369355	-0.935336	-0.039465
C61	C	-0.282166	-1.021325	-0.039888
C62	C	-0.282090	-1.021382	0.030799
C63	C	-0.325647	-0.978409	0.066353
C64	C	-0.325568	-0.978474	0.143001
C65	C	-0.325501	-0.978529	0.204093
H66	H	-0.583398	-1.056876	-0.247622
C67	C	-0.234093	-1.068705	0.069441
H68	H	-0.208157	-1.094281	0.038141
H69	H	-0.259739	-1.098392	0.097029
H70	H	-0.204758	-1.042630	0.096984
H71	H	-0.246698	-1.056313	-0.068844
C72	C	-0.233877	-1.068880	0.276764
H73	H	-0.207887	-1.094518	0.307811
H74	H	-0.204598	-1.042772	0.249160
H75	H	-0.259592	-1.098523	0.249201
H76	H	-0.939157	-1.057005	-0.247689
H77	H	-0.404364	-0.900683	0.415935
C78	C	-1.077510	-1.069422	-0.235356
H79	H	-1.124664	-1.063249	-0.241560
H80	H	-1.066022	-1.059494	-0.189868
H81	H	-1.065867	-1.114901	-0.245304
C82	C	-0.416973	-0.888295	0.277660
H83	H	-0.442899	-0.862709	0.308961
H84	H	-0.446308	-0.914361	0.250114
H85	H	-0.391320	-0.858606	0.250073
H86	H	-0.404207	-0.365077	-0.404513
H87	H	-0.246186	-1.056711	0.415159
H88	H	-0.247132	-0.236684	-0.247747
H89	H	-0.247114	-0.592442	-0.247725
H90	H	-0.938986	-0.899998	-0.404619
C91	C	-0.234764	-0.375006	-0.235383
H92	H	-0.208994	-0.343805	-0.209647
H93	H	-0.205267	-0.402631	-0.261317
H94	H	-0.260662	-0.402526	-0.205841
C95	C	-1.077312	-0.887687	-0.416999
H96	H	-1.046112	-0.861911	-0.442759
H97	H	-1.104962	-0.858195	-0.391088
H98	H	-1.104807	-0.913609	-0.446517
C99	C	-0.721546	-0.887556	-0.416932
H100	H	-0.768713	-0.893764	-0.410741
H101	H	-0.709866	-0.897471	-0.462417
H102	H	-0.710015	-0.842070	-0.406975
C103	C	-0.573105	-0.887506	-0.416910
H104	H	-0.604249	-0.861743	-0.442668
H105	H	-0.545452	-0.913401	-0.446419
H106	H	-0.545603	-0.857993	-0.390985
C107	C	-0.416559	-0.226754	-0.416901
H108	H	-0.442335	-0.257955	-0.442631
H109	H	-0.390650	-0.199243	-0.446436
H110	H	-0.446061	-0.199120	-0.390977
H111	H	-0.404887	-0.900298	-0.068067
C112	C	-0.234737	-0.730777	-0.235365
H113	H	-0.208961	-0.699579	-0.209632
H114	H	-0.205247	-0.758397	-0.261311
H115	H	-0.260627	-0.758302	-0.205820
C116	C	-0.417177	-0.888106	0.070328
H117	H	-0.443172	-0.862476	0.039278
H118	H	-0.391453	-0.858468	0.097881
H119	H	-0.446462	-0.914202	0.097941
H120	H	-0.711632	-1.056927	-0.247650
H121	H	-0.404192	-0.720838	-0.404482
C122	C	-0.416603	-0.582515	-0.416801
H123	H	-0.442399	-0.613714	-0.442512
H124	H	-0.390754	-0.554970	-0.446358
H125	H	-0.446082	-0.554913	-0.390815
