data_functionalizedCrystal
_audit_creation_method	'MofGen! by Chris Wilmer'
_symmetry_space_group_name_H-M	'P1'
_symmetry_Int_Tables_number	1
_symmetry_cell_setting	triclinic
loop_
_symmetry_equiv_pos_as_xyz
  x,y,z
_cell_length_a	29.839131
_cell_length_b	18.215407
_cell_length_c	18.215399
_cell_angle_alpha	90.020595
_cell_angle_beta	89.969127
_cell_angle_gamma	89.958659
loop_
_atom_site_label
_atom_site_type_symbol
_atom_site_fract_x
_atom_site_fract_y
_atom_site_fract_z
Zn1	Zn	-0.178859	-1.124987	-0.416116
Zn2	Zn	0.321141	-0.624987	0.083884
Zn3	Zn	-0.253988	-1.124860	-0.293043
Zn4	Zn	0.246012	-0.624860	0.206957
Zn5	Zn	-0.178873	-1.001920	-0.293062
Zn6	Zn	0.321127	-0.501920	0.206938
Zn7	Zn	-0.253962	-1.001850	-0.416067
Zn8	Zn	0.246038	-0.501850	0.083933
O9	O	-0.216421	-1.063404	-0.354572
O10	O	0.283579	-0.563404	0.145428
O11	O	-0.188830	-1.227955	-0.399803
O12	O	0.311170	-0.727955	0.100197
O13	O	-0.244041	-1.108528	-0.190061
O14	O	0.255959	-0.608528	0.309939
O15	O	-0.116004	-1.018327	-0.309413
O16	O	0.383996	-0.518327	0.190587
O17	O	-0.244027	-1.227861	-0.309382
O18	O	0.255973	-0.727861	0.190618
O19	O	-0.115994	-1.108745	-0.399821
O20	O	0.384006	-0.608745	0.100179
O21	O	-0.188854	-1.018204	-0.190075
O22	O	0.311146	-0.518204	0.309925
O23	O	-0.188829	-0.898926	-0.309365
O24	O	0.311171	-0.398926	0.190635
O25	O	-0.243983	-1.018209	-0.519057
O26	O	0.256017	-0.518209	-0.019057
O27	O	-0.243997	-0.898875	-0.399737
O28	O	0.256003	-0.398875	0.100263
O29	O	-0.188805	-1.108677	-0.519094
O30	O	0.311195	-0.608677	-0.019094
O31	O	-0.316852	-1.108460	-0.309334
O32	O	0.183148	-0.608460	0.190666
O33	O	-0.316833	-1.018086	-0.399719
O34	O	0.183167	-0.518086	0.100281
C35	C	-0.216412	-0.872198	-0.354548
C36	C	0.283588	-0.372198	0.145452
C37	C	-0.216419	-0.790399	-0.354555
C38	C	0.283581	-0.290399	0.145445
C39	C	-0.333143	-1.063272	-0.354535
C40	C	0.166857	-0.563272	0.145465
C41	C	-0.383078	-1.063282	-0.354544
C42	C	0.116922	-0.563282	0.145456
C43	C	-0.245189	-0.602198	-0.401550
C44	C	0.254811	-0.102198	0.098450
C45	C	-0.245190	-0.525339	-0.401558
C46	C	0.254810	-0.025339	0.098442
C47	C	-0.187655	-0.525363	-0.307596
C48	C	0.312345	-0.025363	0.192404
C49	C	-0.187652	-0.602220	-0.307592
C50	C	0.312348	-0.102220	0.192408
C51	C	-0.216422	-0.640636	-0.354568
C52	C	0.283578	-0.140636	0.145432
C53	C	-0.216425	-0.486920	-0.354580
C54	C	0.283575	0.013080	0.145420
C55	C	-0.216426	-0.403586	-0.354589
C56	C	0.283574	0.096414	0.145411
C57	C	-0.216420	-0.723975	-0.354561
C58	C	0.283580	-0.223975	0.145439
C59	C	-0.692718	-1.110548	-0.307577
C60	C	-0.192718	-0.610548	0.192423
C61	C	-0.880391	-1.110639	-0.307606
C62	C	-0.380391	-0.610639	0.192394
O63	O	-0.904654	-1.150721	-0.267645
O64	O	-0.404654	-0.650721	0.232355
N65	N	-0.903863	-1.063557	-0.354627
N66	N	-0.403863	-0.563557	0.145373
C67	C	-0.880413	-1.016452	-0.401648
C68	C	-0.380413	-0.516452	0.098352
O69	O	-0.904683	-0.976414	-0.441649
O70	O	-0.404683	-0.476414	0.058351
C71	C	-0.692741	-1.016366	-0.401623
C72	C	-0.192741	-0.516366	0.098377
C73	C	-0.669272	-1.063446	-0.354593
C74	C	-0.169272	-0.563446	0.145407
C75	C	-0.669249	-1.157625	-0.260552
C76	C	-0.169249	-0.657625	0.239448
C77	C	-0.622334	-1.157599	-0.260542
C78	C	-0.122334	-0.657599	0.239458
C79	C	-0.598887	-1.110496	-0.307558
C80	C	-0.098887	-0.610496	0.192442
C81	C	-0.622356	-1.063420	-0.354584
C82	C	-0.122356	-0.563420	0.145416
C83	C	-0.669292	-0.969265	-0.448647
C84	C	-0.169292	-0.469265	0.051353
C85	C	-0.622371	-0.969249	-0.448638
C86	C	-0.122371	-0.469249	0.051362
C87	C	-0.598902	-1.016329	-0.401608
C88	C	-0.098902	-0.516329	0.098392
C89	C	-0.551994	-1.016291	-0.401590
C90	C	-0.051994	-0.516291	0.098410
N91	N	-0.528523	-1.063373	-0.354569
N92	N	-0.028523	-0.563373	0.145431
C93	C	-0.551969	-1.110476	-0.307553
C94	C	-0.051969	-0.610476	0.192447
C95	C	-0.978944	-1.016500	-0.401657
C96	C	-0.478944	-0.516500	0.098343
C97	C	-1.025861	-1.016521	-0.401663
C98	C	-0.525861	-0.516521	0.098337
C99	C	-1.025836	-1.110709	-0.307621
C100	C	-0.525836	-0.610709	0.192379
C101	C	-0.978918	-1.110684	-0.307612
C102	C	-0.478918	-0.610684	0.192388
C103	C	-0.955472	-1.063582	-0.354636
C104	C	-0.455472	-0.563582	0.145364
C105	C	-0.453444	-1.110417	-0.307536
C106	C	0.046556	-0.610417	0.192464
C107	C	-0.406524	-1.110385	-0.307528
C108	C	0.093476	-0.610385	0.192472
C109	C	-0.406553	-1.016200	-0.401573
C110	C	0.093447	-0.516200	0.098427
C111	C	-0.453469	-1.016229	-0.401578
C112	C	0.046531	-0.516229	0.098422
C113	C	-0.476913	-1.063344	-0.354557
C114	C	0.023087	-0.563344	0.145443
O115	O	-0.527703	-0.976236	-0.441536
O116	O	-0.027703	-0.476236	0.058464
O117	O	-0.527691	-1.150520	-0.267570
O118	O	-0.027691	-0.650520	0.232430
C119	C	-0.739634	-1.110574	-0.307587
C120	C	-0.239634	-0.610574	0.192413
C121	C	-0.763103	-1.063498	-0.354612
C122	C	-0.263103	-0.563498	0.145388
C123	C	-0.739656	-1.016395	-0.401628
C124	C	-0.239656	-0.516395	0.098372
C125	C	-0.810020	-1.063518	-0.354618
C126	C	-0.310020	-0.563518	0.145382
C127	C	-0.833467	-1.110621	-0.307602
C128	C	-0.333467	-0.610621	0.192398
C129	C	-0.809995	-1.157703	-0.260580
C130	C	-0.309995	-0.657703	0.239420
C131	C	-0.763080	-1.157677	-0.260571
C132	C	-0.263080	-0.657677	0.239429
C133	C	-0.763128	-0.969313	-0.448650
C134	C	-0.263128	-0.469313	0.051350
C135	C	-0.810043	-0.969342	-0.448655
C136	C	-0.310043	-0.469342	0.051345
C137	C	-0.833490	-1.016445	-0.401639
C138	C	-0.333490	-0.516445	0.098361
C139	C	-0.099242	-1.063558	-0.354625
C140	C	0.400758	-0.563558	0.145375
C141	C	-0.049308	-1.063623	-0.354647
C142	C	0.450692	-0.563623	0.145353
C143	C	-0.216390	-1.063449	-0.546525
C144	C	0.283610	-0.563449	-0.046525
C145	C	-0.216376	-1.063468	-0.628324
C146	C	0.283624	-0.563468	-0.128324
C147	C	-0.216428	-0.255357	-0.354593
C148	C	0.283572	0.244643	0.145407
C149	C	-0.216428	-0.337156	-0.354593
C150	C	0.283572	0.162844	0.145407
C151	C	-0.187618	-1.110592	-0.816538
C152	C	0.312382	-0.610592	-0.316538
C153	C	-0.187605	-1.110601	-0.893397
C154	C	0.312395	-0.610601	-0.393397
C155	C	-0.245065	-1.016397	-0.893348
C156	C	0.254935	-0.516397	-0.393348
C157	C	-0.245076	-1.016385	-0.816490
C158	C	0.254924	-0.516385	-0.316490
C159	C	-0.216353	-1.063487	-0.778087
C160	C	0.283647	-0.563487	-0.278087
C161	C	-0.216329	-1.063507	-0.931804
C162	C	0.283671	-0.563507	-0.431804
C163	C	-0.216315	-1.063517	-1.015137
C164	C	0.283685	-0.563517	-0.515137
C165	C	-0.216366	-1.063477	-0.694748
C166	C	0.283634	-0.563477	-0.194748
C167	C	-0.216419	-1.063402	-0.163366
C168	C	0.283581	-0.563402	0.336634
C169	C	-0.216306	-1.063526	-0.081567
C170	C	0.283694	-0.563526	0.418433
H171	H	-0.268614	-0.633474	-0.439803
H172	H	0.231386	-0.133474	0.060197
F173	F	-0.275808	-0.484434	-0.451565
F174	F	0.224192	0.015566	0.048435
H175	H	-0.164229	-1.148944	-0.785272
H176	H	0.335771	-0.648944	-0.285272
H177	H	-0.603228	-1.195937	-0.222249
H178	H	-0.103228	-0.695937	0.277751
F179	F	-0.694196	-1.207764	-0.210508
F180	F	-0.194196	-0.707764	0.289492
H181	H	-0.387456	-0.977847	-0.439850
H182	H	0.112544	-0.477847	0.060150
H183	H	-0.472526	-1.148784	-0.269249
H184	H	0.027474	-0.648784	0.230751
F185	F	-0.157038	-0.484472	-0.257603
F186	F	0.342962	0.015528	0.242397
F187	F	-0.157025	-1.160742	-0.934315
F188	F	0.342975	-0.660742	-0.434315
F189	F	-0.953944	-1.160792	-0.257558
F190	F	-0.453944	-0.660792	0.242442
H191	H	-0.164223	-0.633517	-0.269334
H192	H	0.335777	-0.133517	0.230666
H193	H	-1.044966	-0.978177	-0.439952
H194	H	-0.544966	-0.478177	0.060048
F195	F	-0.275634	-0.966273	-0.934225
F196	F	0.224366	-0.466273	-0.434225
F197	F	-0.381549	-1.160495	-0.257470
F198	F	0.118451	-0.660495	0.242530
H199	H	-1.044934	-1.149062	-0.269339
H200	H	-0.544934	-0.649062	0.230661
F201	F	-0.478447	-0.966108	-0.451618
F202	F	0.021553	-0.466108	0.048382
F203	F	-0.953997	-0.966364	-0.451709
F204	F	-0.453997	-0.466364	0.048291
F205	F	-0.275659	-0.966242	-0.775566
F206	F	0.224341	-0.466242	-0.275566
H207	H	-0.688392	-0.930924	-0.486941
H208	H	-0.188392	-0.430924	0.013059
H209	H	-0.603284	-0.930894	-0.486933
H210	H	-0.103284	-0.430894	0.013067
F211	F	-0.738108	-1.207788	-0.210517
F212	F	-0.238108	-0.707788	0.289483
H213	H	-0.829094	-1.196053	-0.222296
H214	H	-0.329094	-0.696053	0.277704
F215	F	-0.835016	-0.919228	-0.498712
F216	F	-0.335016	-0.419228	0.001288
F217	F	-0.738180	-0.919178	-0.498694
F218	F	-0.238180	-0.419178	0.001306
