data_functionalizedCrystal
_audit_creation_method	'MofGen! by Chris Wilmer'
_symmetry_space_group_name_H-M	'P1'
_symmetry_Int_Tables_number	1
_symmetry_cell_setting	triclinic
loop_
_symmetry_equiv_pos_as_xyz
  x,y,z
_cell_length_a	10.723023
_cell_length_b	10.723023
_cell_length_c	9.198806
_cell_angle_alpha	89.998167
_cell_angle_beta	89.995851
_cell_angle_gamma	84.467548
loop_
_atom_site_label
_atom_site_type_symbol
_atom_site_fract_x
_atom_site_fract_y
_atom_site_fract_z
O1	O	1.657189	0.175019	-0.120885
O2	O	1.294036	0.191774	-0.120888
O3	O	1.483989	0.001820	-0.120881
O4	O	1.467235	0.364973	-0.120893
O5	O	1.483973	0.001821	0.120904
O6	O	1.294019	0.191774	0.120897
O7	O	1.657172	0.175020	0.120900
Cu8	Cu	1.475594	0.183397	0.142975
Cu9	Cu	1.475614	0.183396	-0.142964
O10	O	1.467219	0.364973	0.120892
C11	C	1.247528	0.190555	0.000004
C12	C	1.108974	0.186908	0.000002
C13	C	1.047211	0.185281	-0.125250
C14	C	0.904008	0.181511	-0.125254
C15	C	1.482762	-0.044679	0.000010
C16	C	1.479115	-0.183233	0.000006
C17	C	1.477497	-0.245000	-0.125248
C18	C	1.473728	-0.388203	-0.125256
C19	C	1.703680	0.176239	0.000005
C20	C	1.842234	0.179886	-0.000003
C21	C	1.468446	0.411473	-0.000002
C22	C	1.472093	0.550027	-0.000007
N23	N	1.475590	0.183397	0.344089
C24	C	1.555540	0.103471	0.583693
C25	C	1.555525	0.103470	0.416281
N26	N	1.475618	0.183396	0.655922
H27	H	1.055833	0.185516	0.107232
C28	C	1.471848	-0.459958	-0.270131
N29	N	1.470431	-0.514007	-0.379255
C30	C	1.473969	-0.378225	0.144874
N31	N	1.475380	-0.324175	0.253998
H32	H	1.407188	0.251829	0.593822
H33	H	1.477701	-0.236370	0.107234
H34	H	1.623945	0.035038	0.354167
H35	H	1.100350	0.186686	-0.232480
C36	C	0.832256	0.179621	-0.270127
N37	N	0.778209	0.178198	-0.379250
H38	H	0.895342	0.181279	0.107235
H39	H	1.623981	0.035047	0.645792
H40	H	1.478898	-0.191862	-0.232477
H41	H	1.407157	0.251824	0.406194
