data_functionalizedCrystal
_audit_creation_method	'MofGen! by Chris Wilmer'
_symmetry_space_group_name_H-M	'P1'
_symmetry_Int_Tables_number	1
_symmetry_cell_setting	triclinic
loop_
_symmetry_equiv_pos_as_xyz
  x,y,z
_cell_length_a	16.109318
_cell_length_b	16.109301
_cell_length_c	13.448316
_cell_angle_alpha	89.991973
_cell_angle_beta	89.996821
_cell_angle_gamma	83.465022
loop_
_atom_site_label
_atom_site_type_symbol
_atom_site_fract_x
_atom_site_fract_y
_atom_site_fract_z
O1	O	1.103125	0.106938	-0.082612
O2	O	1.436459	0.440271	0.250721
O3	O	1.769792	0.773604	0.584054
O4	O	0.861065	0.120222	-0.082633
O5	O	1.194399	0.453555	0.250701
O6	O	1.527732	0.786889	0.584034
O7	O	0.988745	-0.007451	-0.082612
O8	O	1.322078	0.325883	0.250721
O9	O	1.655412	0.659216	0.584055
O10	O	0.975446	0.234610	-0.082633
O11	O	1.308779	0.567944	0.250700
O12	O	1.642112	0.901277	0.584033
O13	O	0.988729	-0.007459	0.082772
O14	O	1.322062	0.325875	0.416105
O15	O	1.655396	0.659208	0.749439
O16	O	0.861049	0.120214	0.082751
O17	O	1.194383	0.453547	0.416084
O18	O	1.527716	0.786881	0.749418
O19	O	1.103109	0.106930	0.082772
O20	O	1.436443	0.440263	0.416105
O21	O	1.769776	0.773597	0.749438
Cu22	Cu	0.982078	0.113571	0.097862
Cu23	Cu	1.315411	0.446905	0.431195
Cu24	Cu	1.648745	0.780238	0.764529
Cu25	Cu	0.982097	0.113581	-0.097723
Cu26	Cu	1.315430	0.446914	0.235610
Cu27	Cu	1.648764	0.780247	0.568943
O28	O	0.975430	0.234603	0.082751
O29	O	1.308763	0.567936	0.416084
O30	O	1.642096	0.901269	0.749417
C31	C	0.830083	0.119677	0.000057
C32	C	1.163416	0.453011	0.333390
C33	C	1.496749	0.786344	0.666723
C34	C	0.737788	0.118057	0.000049
C35	C	1.071122	0.451390	0.333382
C36	C	1.404455	0.784723	0.666716
C37	C	0.438723	0.112826	-0.090084
C38	C	0.772057	0.446159	0.243250
C39	C	1.105390	0.779493	0.576583
C40	C	0.525444	0.114343	-0.090090
C41	C	0.858778	0.447677	0.243243
C42	C	1.192111	0.781010	0.576577
C43	C	0.525446	0.114323	0.090221
C44	C	0.858779	0.447657	0.423554
C45	C	1.192112	0.780990	0.756887
C46	C	0.438727	0.112800	0.090226
C47	C	0.772060	0.446133	0.423559
C48	C	1.105394	0.779467	0.756892
C49	C	0.395367	0.112056	0.000071
C50	C	0.728701	0.445389	0.333404
C51	C	1.062034	0.778722	0.666737
C52	C	0.568807	0.115096	0.000059
C53	C	0.902141	0.448430	0.333393
C54	C	1.235474	0.781763	0.666726
C55	C	0.662835	0.116742	0.000053
C56	C	0.996168	0.450075	0.333387
C57	C	1.329501	0.783408	0.666720
C58	C	0.301334	0.110409	0.000076
C59	C	0.634668	0.443742	0.333410
C60	C	0.968001	0.777075	0.666743
C61	C	0.988198	-0.038430	0.000080
C62	C	1.321532	0.294904	0.333414
C63	C	1.654865	0.628237	0.666747
C64	C	0.986583	-0.130725	0.000082
C65	C	1.319916	0.202608	0.333415
C66	C	1.653250	0.535942	0.666748
C67	C	1.058590	-0.352993	0.000072
C68	C	1.391924	-0.019660	0.333405
C69	C	1.725257	0.313674	0.666739
C70	C	1.057066	-0.439713	0.000064
C71	C	1.390400	-0.106380	0.333397
C72	C	1.723733	0.226953	0.666730
C73	C	0.905579	-0.419848	0.000055
C74	C	1.238912	-0.086515	0.333388
C75	C	1.572245	0.246818	0.666722
C76	C	0.907104	-0.333130	0.000056
C77	C	1.240437	0.000204	0.333389
C78	C	1.573770	0.333537	0.666723
C79	C	0.983612	-0.299704	0.000070
C80	C	1.316945	0.033629	0.333403
C81	C	1.650279	0.366962	0.666736
C82	C	0.980563	-0.473144	0.000060
C83	C	1.313896	-0.139810	0.333394
C84	C	1.647230	0.193523	0.666727
C85	C	0.978910	-0.567170	0.000051
C86	C	1.312243	-0.233837	0.333385
C87	C	1.645577	0.099497	0.666718
C88	C	0.985265	-0.205672	0.000077
C89	C	1.318599	0.127661	0.333410
C90	C	1.651932	0.460994	0.666744
C91	C	1.134092	0.107474	0.000080
C92	C	1.467425	0.440808	0.333413
C93	C	1.800759	0.774141	0.666747
C94	C	1.226387	0.109095	0.000081
C95	C	1.559720	0.442429	0.333414
C96	C	1.893053	0.775762	0.666748
C97	C	0.975976	0.265581	0.000056
C98	C	1.309310	0.598915	0.333389
C99	C	1.642643	0.932248	0.666723
C100	C	0.977592	0.357877	0.000048
C101	C	1.310925	0.691210	0.333382
C102	C	1.644258	1.024543	0.666715
N103	N	0.982071	0.113564	0.235426
N104	N	1.315404	0.446898	0.568760
N105	N	1.648737	0.780231	0.902093
N106	N	0.982111	0.113581	-0.235288
N107	N	1.315444	0.446914	0.098046
N108	N	1.648777	0.780248	0.431379
C109	C	1.038625	0.057054	0.287476
C110	C	1.371958	0.390387	0.620809
C111	C	1.705291	0.723721	0.954143
C112	C	1.038630	0.057053	0.391579
C113	C	1.371963	0.390387	0.724913
C114	C	1.705297	0.723720	1.058246
C115	C	0.982084	0.113567	0.443631
C116	C	1.315418	0.446901	0.776964
C117	C	1.648751	0.780234	1.110298
C118	C	0.925524	0.170080	0.391574
C119	C	1.258858	0.503414	0.724907
C120	C	1.592191	0.836747	1.058241
C121	C	0.925516	0.170076	0.287473
C122	C	1.258849	0.503410	0.620806
C123	C	1.592182	0.836743	0.954139
C124	C	0.925547	0.170086	0.608554
C125	C	1.258881	0.503419	0.941887
C126	C	1.592214	0.836753	1.275221
C127	C	0.925557	0.170091	0.712663
C128	C	1.258890	0.503425	1.045996
C129	C	1.592223	0.836758	1.379329
C130	C	1.038661	0.057063	0.712661
C131	C	1.371995	0.390396	1.045994
C132	C	1.705328	0.723729	1.379327
C133	C	1.038653	0.057059	0.608559
C134	C	1.371986	0.390392	0.941893
C135	C	1.705320	0.723726	1.275226
C136	C	0.982094	0.113573	0.556510
C137	C	1.315427	0.446906	0.889843
C138	C	1.648760	0.780240	1.223176
H139	H	1.120888	-0.325781	0.000081
H140	H	1.454221	0.007552	0.333414
H141	H	1.787555	0.340885	0.666748
H142	H	0.846043	-0.289740	0.000051
H143	H	1.179377	0.043594	0.333384
H144	H	1.512710	0.376927	0.666718
H145	H	0.560760	0.114931	0.163622
H146	H	0.894093	0.448265	0.496955
H147	H	1.227426	0.781598	0.830288
H148	H	1.084680	0.011038	0.433958
H149	H	1.418013	0.344371	0.767291
H150	H	1.751346	0.677705	1.100624
C151	C	0.863337	0.232254	0.551301
C152	C	1.196670	0.565587	0.884635
C153	C	1.530004	0.898921	1.217968
H154	H	0.829668	0.265919	0.597209
H155	H	1.163001	0.599253	0.930542
H156	H	1.496335	0.932586	1.263876
H157	H	0.828735	0.202336	0.510701
H158	H	1.162068	0.535669	0.844035
H159	H	1.495402	0.869003	1.177368
H160	H	0.893238	0.266875	0.510682
H161	H	1.226571	0.600208	0.844015
H162	H	1.559905	0.933541	1.177349
H163	H	1.118121	-0.483098	0.000064
H164	H	1.451455	-0.149765	0.333397
H165	H	1.784788	0.183569	0.666730
C166	C	1.100825	-0.005114	0.230228
C167	C	1.434158	0.328219	0.563561
C168	C	1.767491	0.661553	0.896895
H169	H	1.134501	-0.038774	0.276141
H170	H	1.467834	0.294559	0.609474
H171	H	1.801167	0.627892	0.942808
H172	H	1.135420	0.024803	0.189603
H173	H	1.468753	0.358136	0.522936
H174	H	1.802086	0.691469	0.856270
H175	H	1.070920	-0.039739	0.189635
H176	H	1.404253	0.293594	0.522968
H177	H	1.737587	0.626927	0.856302
H178	H	0.843288	-0.447074	0.000046
H179	H	1.176622	-0.113741	0.333379
H180	H	1.509955	0.219592	0.666712
H181	H	0.403423	0.112219	-0.163494
H182	H	0.736756	0.445552	0.169840
H183	H	1.070089	0.778885	0.503173
C184	C	1.100851	-0.005106	0.551304
C185	C	1.434184	0.328228	0.884637
C186	C	1.767517	0.661561	1.217971
H187	H	1.134531	-0.038768	0.597210
H188	H	1.467864	0.294565	0.930544
H189	H	1.801198	0.627898	1.263877
H190	H	1.135442	0.024814	0.510678
H191	H	1.468775	0.358148	0.844011
H192	H	1.802109	0.691481	1.177344
H193	H	1.070944	-0.039729	0.510711
H194	H	1.404277	0.293604	0.844044
H195	H	1.737610	0.626938	1.177377
C196	C	0.391032	0.111955	0.189400
C197	C	0.724365	0.445289	0.522734
C198	C	1.057698	0.778622	0.856067
H199	H	0.429272	0.112629	0.243093
H200	H	0.762605	0.445963	0.576426
H201	H	1.095939	0.779296	0.909759
H202	H	0.363555	0.062907	0.193150
H203	H	0.696888	0.396241	0.526484
H204	H	1.030221	0.729574	0.859817
H205	H	0.350850	0.159821	0.193145
H206	H	0.684183	0.493155	0.526479
H207	H	1.017517	0.826488	0.859812
H208	H	1.084714	0.011047	0.755046
H209	H	1.418047	0.344380	1.088379
H210	H	1.751380	0.677714	1.421712
C211	C	0.863310	0.232241	0.230218
C212	C	1.196643	0.565574	0.563551
C213	C	1.529976	0.898908	0.896885
H214	H	0.829639	0.265905	0.276126
H215	H	1.162973	0.599239	0.609459
H216	H	1.496306	0.932572	0.942793
H217	H	0.828710	0.202319	0.189621
H218	H	1.162043	0.535652	0.522954
H219	H	1.495376	0.868985	0.856288
H220	H	0.893207	0.266863	0.189596
H221	H	1.226540	0.600197	0.522929
H222	H	1.559873	0.933530	0.856263
H223	H	0.879511	0.216110	0.755038
H224	H	1.212844	0.549443	1.088371
H225	H	1.546177	0.882777	1.421705
H226	H	0.560741	0.114969	-0.163503
H227	H	0.894074	0.448303	0.169831
H228	H	1.227408	0.781636	0.503164
H229	H	0.879480	0.216093	0.433961
H230	H	1.212813	0.549426	0.767294
H231	H	1.546146	0.882759	1.100627
