data_functionalizedCrystal
_audit_creation_method	'MofGen! by Chris Wilmer'
_symmetry_space_group_name_H-M	'P1'
_symmetry_Int_Tables_number	1
_symmetry_cell_setting	triclinic
loop_
_symmetry_equiv_pos_as_xyz
  x,y,z
_cell_length_a	10.489741
_cell_length_b	22.010155
_cell_length_c	10.489741
_cell_angle_alpha	89.995900
_cell_angle_beta	95.460826
_cell_angle_gamma	90.013022
loop_
_atom_site_label
_atom_site_type_symbol
_atom_site_fract_x
_atom_site_fract_y
_atom_site_fract_z
O1	O	1.694075	0.050487	-0.179965
O2	O	1.322879	0.050497	-0.196858
O3	O	1.516923	0.050488	-0.002814
O4	O	1.500030	0.050496	-0.374010
O5	O	1.516864	-0.050562	-0.002813
O6	O	1.322820	-0.050554	-0.196857
O7	O	1.694016	-0.050563	-0.179964
Cu8	Cu	1.508412	-0.059785	-0.188411
Cu9	Cu	1.508482	0.059719	-0.188412
O10	O	1.499971	-0.050555	-0.374009
C11	C	1.275318	-0.000027	-0.195582
C12	C	1.133688	-0.000024	-0.191765
N13	N	1.508373	-0.143838	-0.188409
C14	C	1.065548	-0.000032	-0.068300
C15	C	0.973451	0.049791	-0.126624
C16	C	0.973426	-0.049837	-0.126652
C17	C	1.043456	0.049840	-0.250139
C18	C	1.043441	-0.049832	-0.250151
C19	C	0.951371	0.000003	-0.308564
C20	C	1.586557	-0.563617	-0.266520
C21	C	1.586572	-0.627225	-0.266517
O22	O	1.653002	-0.660117	-0.332920
N23	N	1.508507	-0.659045	-0.188397
C24	C	1.430431	-0.627253	-0.110266
O25	O	1.364033	-0.660159	-0.043818
C26	C	1.430424	-0.563647	-0.110263
C27	C	1.508485	-0.531831	-0.188398
C28	C	1.664613	-0.531801	-0.344647
C29	C	1.664596	-0.468198	-0.344651
C30	C	1.586523	-0.436411	-0.266529
C31	C	1.508468	-0.468227	-0.188402
C32	C	1.352356	-0.531857	-0.032126
C33	C	1.352356	-0.468246	-0.032130
C34	C	1.430417	-0.436430	-0.110264
C35	C	1.430378	-0.372837	-0.110284
N36	N	1.508443	-0.341018	-0.188404
C37	C	1.586516	-0.372805	-0.266526
C38	C	1.430454	-0.760831	-0.110277
C39	C	1.430454	-0.824437	-0.110285
C40	C	1.586597	-0.824404	-0.266534
C41	C	1.586590	-0.760797	-0.266532
C42	C	1.508520	-0.729012	-0.188396
C43	C	1.586473	-0.239233	-0.266530
C44	C	1.586445	-0.175624	-0.266532
C45	C	1.430308	-0.175663	-0.110278
C46	C	1.430330	-0.239266	-0.110281
C47	C	1.508423	-0.271050	-0.188411
O48	O	1.363986	-0.339905	-0.043911
O49	O	1.652916	-0.339891	-0.332950
C50	C	1.741577	-0.000038	-0.181241
C51	C	1.883206	-0.000037	-0.185058
C52	C	1.515618	-0.000037	0.044718
C53	C	1.511801	-0.000036	0.186348
N54	N	1.508532	0.143771	-0.188403
C55	C	1.501277	-0.000028	-0.421541
C56	C	1.505094	-0.000026	-0.563170
C57	C	1.388336	-0.000028	0.254488
C58	C	1.446631	-0.049852	0.346611
C59	C	1.446718	0.049775	0.346585
C60	C	1.570146	-0.049901	0.276605
C61	C	1.570216	0.049771	0.276570
C62	C	1.628600	-0.000065	0.368665
H63	H	0.942461	0.091911	-0.074384
H64	H	1.730204	-0.000096	0.418089
H65	H	1.650065	-0.265104	-0.330150
H66	H	1.394365	-0.091973	0.377623
C67	C	1.085367	-0.106735	-0.320666
C68	C	1.154491	-0.099949	-0.442984
C69	C	1.196421	-0.156857	-0.513487
C70	C	1.169227	-0.220551	-0.461672
C71	C	1.100098	-0.227340	-0.339347
C72	C	1.058168	-0.170431	-0.268844
H73	H	1.174626	-0.052796	-0.481346
H74	H	1.247595	-0.151831	-0.604040
H75	H	1.200266	-0.262678	-0.513863
H76	H	1.079964	-0.274492	-0.300985
H77	H	1.006995	-0.175457	-0.178291
H78	H	1.728166	-0.442299	-0.408270
C79	C	1.132635	0.000030	0.068830
C80	C	1.110196	0.052811	0.160421
C81	C	1.177285	0.052876	0.297546
C82	C	1.266812	0.000160	0.343080
C83	C	1.289255	-0.052625	0.251487
C84	C	1.222166	-0.052690	0.114362
H85	H	1.043919	0.091838	0.126715
H86	H	1.160671	0.091951	0.365348
H87	H	1.316475	0.000208	0.444588
H88	H	1.355532	-0.091652	0.285193
H89	H	1.238781	-0.091765	0.046560
H90	H	1.366739	-0.149770	-0.046676
H91	H	1.650011	-0.149722	-0.330164
C92	C	1.640764	0.106674	0.234614
C93	C	1.588986	0.170368	0.261776
C94	C	1.659522	0.227277	0.219816
C95	C	1.781836	0.220491	0.150694
C96	C	1.833620	0.156795	0.123529
C97	C	1.763085	0.099886	0.165489
H98	H	1.498436	0.175393	0.312948
H99	H	1.621187	0.274429	0.239926
H100	H	1.834051	0.262619	0.119633
H101	H	1.924170	0.151770	0.072357
H102	H	1.801420	0.052734	0.145379
C103	C	1.640621	-0.106873	0.234966
C104	C	1.657206	-0.117420	0.092363
C105	C	1.727673	-0.174392	0.050720
C106	C	1.781556	-0.220818	0.151681
C107	C	1.764973	-0.210273	0.294293
C108	C	1.694505	-0.153300	0.335936
H109	H	1.617317	-0.083052	0.017617
H110	H	1.739949	-0.182198	-0.054852
H111	H	1.833721	-0.262992	0.120854
H112	H	1.804861	-0.244641	0.369039
H113	H	1.682229	-0.145494	0.441508
H114	H	1.286824	-0.000076	0.204837
H115	H	1.650167	-0.850296	-0.330148
C116	C	1.344456	-0.274274	-0.024354
C117	C	1.361908	-0.265533	0.121920
C118	C	1.276043	-0.300539	0.207853
C119	C	1.172725	-0.344287	0.147513
C120	C	1.155268	-0.353029	0.001231
C121	C	1.241134	-0.318023	-0.084702
H122	H	1.438394	-0.233147	0.166594
H123	H	1.288966	-0.294067	0.316140
H124	H	1.109162	-0.370200	0.211126
H125	H	1.078782	-0.385415	-0.043443
H126	H	1.228210	-0.324496	-0.192989
H127	H	1.394486	0.091902	0.377548
H128	H	0.901947	0.000032	-0.410168
C129	C	1.085125	0.106815	-0.320642
C130	C	1.227734	0.117364	-0.337229
C131	C	1.269407	0.174339	-0.407722
C132	C	1.168470	0.220764	-0.461628
C133	C	1.025851	0.210216	-0.445042
C134	C	0.984179	0.153241	-0.374549
H135	H	1.302462	0.082996	-0.297323
H136	H	1.374983	0.182148	-0.419999
H137	H	1.199318	0.262941	-0.513811
H138	H	0.951124	0.244584	-0.484948
H139	H	0.878603	0.145433	-0.362272
H140	H	1.728196	-0.557675	-0.408263
C141	C	1.672466	-0.725802	-0.352470
C142	C	1.818741	-0.734535	-0.335098
C143	C	1.904624	-0.699544	-0.421037
C144	C	1.844233	-0.655819	-0.524349
C145	C	1.697950	-0.647084	-0.541726
C146	C	1.612067	-0.682076	-0.455787
H147	H	1.863453	-0.766904	-0.258616
H148	H	2.012912	-0.706010	-0.408173
H149	H	1.907808	-0.629917	-0.587967
H150	H	1.653238	-0.614715	-0.618208
H151	H	1.503779	-0.675609	-0.468651
H152	H	0.942424	-0.091958	-0.074389
H153	H	1.366874	-0.850336	-0.046676
C154	C	1.344552	-0.725870	-0.024337
C155	C	1.362005	-0.734626	0.121934
C156	C	1.276105	-0.699669	0.207873
C157	C	1.172752	-0.655956	0.147540
C158	C	1.155294	-0.647198	0.001261
C159	C	1.241195	-0.682155	-0.084678
H160	H	1.438517	-0.766987	0.166602
H161	H	1.289028	-0.706153	0.316158
H162	H	1.109163	-0.630079	0.211157
H163	H	1.078782	-0.614837	-0.043407
H164	H	1.228271	-0.675672	-0.192963
H165	H	1.288792	-0.557751	0.031501
H166	H	1.288781	-0.442370	0.031500
