data_functionalizedCrystal
_audit_creation_method	'MofGen! by Chris Wilmer'
_symmetry_space_group_name_H-M	'P1'
_symmetry_Int_Tables_number	1
_symmetry_cell_setting	triclinic
loop_
_symmetry_equiv_pos_as_xyz
  x,y,z
_cell_length_a	14.908993
_cell_length_b	13.897447
_cell_length_c	14.908308
_cell_angle_alpha	93.268353
_cell_angle_beta	96.370715
_cell_angle_gamma	93.321013
loop_
_atom_site_label
_atom_site_type_symbol
_atom_site_fract_x
_atom_site_fract_y
_atom_site_fract_z
Zn1	Zn	1.354243	-0.327029	-0.432054
Zn2	Zn	1.362882	-0.478474	-0.280706
Zn3	Zn	1.211616	-0.327074	-0.289433
Zn4	Zn	1.202853	-0.498168	-0.440737
O5	O	1.282899	-0.407686	-0.360732
O6	O	1.482051	-0.338857	-0.404692
O7	O	1.350099	-0.450168	-0.155202
O8	O	1.230588	-0.192085	-0.308371
O9	O	1.488399	-0.450124	-0.293496
O10	O	1.335375	-0.192051	-0.413154
O11	O	1.238965	-0.338935	-0.161614
O12	O	1.083792	-0.358031	-0.316790
O13	O	1.215653	-0.483688	-0.566246
O14	O	1.077354	-0.483733	-0.427952
O15	O	1.326878	-0.357953	-0.559867
O16	O	1.341602	-0.616070	-0.301915
O17	O	1.224030	-0.630539	-0.419489
C18	C	1.047730	-0.423025	-0.374260
C19	C	0.947123	-0.429611	-0.380069
C20	C	0.764714	-0.310920	-0.275393
C21	C	0.670185	-0.317105	-0.280848
C22	C	0.663534	-0.448171	-0.396429
C23	C	0.758063	-0.441985	-0.390974
C24	C	0.808650	-0.373357	-0.330455
C25	C	0.903181	-0.367168	-0.325005
C26	C	0.896528	-0.498237	-0.440581
C27	C	0.801999	-0.504422	-0.446036
C28	C	1.282826	-0.658304	-0.360716
C29	C	1.282876	-0.765516	-0.360734
C30	C	1.282919	-0.852584	-0.360752
C31	C	1.282981	-0.961814	-0.360772
C32	C	1.518985	-0.392289	-0.347152
C33	C	1.619591	-0.385727	-0.341365
C34	C	1.269324	-0.423012	-0.596817
C35	C	1.263539	-0.429543	-0.697422
C36	C	1.282995	-0.156089	-0.360768
C37	C	1.283036	-0.048874	-0.360783
C38	C	1.368485	-0.310865	-0.879830
C39	C	1.363053	-0.316998	-0.974357
C40	C	1.247238	-0.447937	-0.981006
C41	C	1.252671	-0.441804	-0.886479
C42	C	1.313297	-0.373267	-0.835894
C43	C	1.318734	-0.367139	-0.741364
C44	C	1.202915	-0.498072	-0.748016
C45	C	1.197483	-0.504205	-0.842543
C46	C	1.296473	-0.392347	-0.125563
C47	C	1.302433	-0.385533	-0.024948
H48	H	0.805902	-0.255029	-0.226127
H49	H	0.932310	-0.549073	-0.485421
H50	H	0.760798	-0.560300	-0.495306
H51	H	1.368100	-0.311334	-0.700179
O52	O	1.416532	-0.256290	-1.017083
C53	C	1.422616	-0.132224	-1.123158
C54	C	1.361945	-0.200915	-1.074818
H55	H	1.378508	-0.087450	-1.169862
H56	H	1.466858	-0.082121	-1.070803
H57	H	1.467409	-0.176304	-1.164644
H58	H	1.317098	-0.156913	-1.033335
H59	H	1.317764	-0.251021	-1.127219
H60	H	1.417855	-0.255064	-0.838642
H61	H	0.944367	-0.311281	-0.275733
H62	H	1.197879	-0.503736	-1.022209
H63	H	1.148121	-0.560004	-0.883742
H64	H	0.622330	-0.504053	-0.445692
O65	O	0.627646	-0.256350	-0.227327
C66	C	0.644225	-0.125737	-0.112071
C67	C	0.692513	-0.194469	-0.172650
H68	H	0.696649	-0.075703	-0.067837
H69	H	0.597621	-0.080894	-0.156213
H70	H	0.602648	-0.169787	-0.067270
H71	H	0.734138	-0.150494	-0.217462
H72	H	0.739063	-0.239316	-0.128456
O73	O	1.149338	-0.558593	-0.705194
C74	C	1.106426	-0.607226	-0.562515
C75	C	1.167132	-0.538611	-0.610895
H76	H	1.120804	-0.591109	-0.486266
H77	H	1.032361	-0.596256	-0.585233
H78	H	1.121217	-0.685165	-0.580237
H79	H	1.152421	-0.460645	-0.593197
H80	H	1.241179	-0.549665	-0.588174
