data_functionalizedCrystal
_audit_creation_method	'MofGen! by Chris Wilmer'
_symmetry_space_group_name_H-M	'P1'
_symmetry_Int_Tables_number	1
_symmetry_cell_setting	triclinic
loop_
_symmetry_equiv_pos_as_xyz
  x,y,z
_cell_length_a	14.519731
_cell_length_b	11.792241
_cell_length_c	10.268362
_cell_angle_alpha	90.005428
_cell_angle_beta	89.995325
_cell_angle_gamma	96.058866
loop_
_atom_site_label
_atom_site_type_symbol
_atom_site_fract_x
_atom_site_fract_y
_atom_site_fract_z
O1	O	1.224400	-0.148896	-0.108304
O2	O	0.955990	-0.166392	-0.108306
O3	O	1.096709	0.007562	-0.108295
O4	O	1.083682	-0.322850	-0.108314
O5	O	1.096697	0.007569	0.108305
O6	O	0.955978	-0.166385	0.108295
O7	O	1.224388	-0.148889	0.108297
Cu8	Cu	1.090182	-0.157636	0.128073
Cu9	Cu	1.090196	-0.157645	-0.128082
O10	O	1.083669	-0.322843	0.108287
C11	C	0.921622	-0.165569	-0.000005
C12	C	0.819232	-0.163112	-0.000006
C13	C	0.736081	-0.161116	-0.000011
C14	C	0.631763	-0.158622	-0.000012
C15	C	0.548617	-0.156642	-0.000011
C16	C	0.444292	-0.154149	-0.000014
C17	C	1.095884	0.049852	0.000004
C18	C	1.093435	0.175852	0.000003
C19	C	1.258757	-0.149713	-0.000006
C20	C	1.361146	-0.152169	-0.000014
C21	C	1.084494	-0.365133	-0.000016
C22	C	1.086943	-0.491133	-0.000023
N23	N	1.090178	-0.157630	0.308239
C24	C	1.088931	0.406540	-0.000019
C25	C	1.091434	0.278168	-0.000007
N26	N	1.090207	-0.157642	-0.308248
C27	C	1.090192	-0.157642	0.573910
C28	C	1.090181	-0.157639	0.426072
