data_functionalizedCrystal
_audit_creation_method	'MofGen! by Chris Wilmer'
_symmetry_space_group_name_H-M	'P1'
_symmetry_Int_Tables_number	1
_symmetry_cell_setting	triclinic
loop_
_symmetry_equiv_pos_as_xyz
  x,y,z
_cell_length_a	13.339070
_cell_length_b	14.853567
_cell_length_c	12.376457
_cell_angle_alpha	101.296114
_cell_angle_beta	75.589755
_cell_angle_gamma	99.632112
loop_
_atom_site_label
_atom_site_type_symbol
_atom_site_fract_x
_atom_site_fract_y
_atom_site_fract_z
O1	O	1.362302	0.439693	-0.094010
O2	O	1.067691	0.380349	-0.094008
O3	O	1.222867	0.280750	-0.094013
O4	O	1.207126	0.539291	-0.094006
O5	O	1.184087	0.305606	0.094001
O6	O	1.028911	0.405205	0.094005
O7	O	1.323522	0.464549	0.094003
Zn8	Zn	1.170059	0.438823	0.123855
Zn9	Zn	1.221154	0.406074	-0.123860
O10	O	1.168346	0.564147	0.094007
C11	C	1.010598	0.382752	-0.000002
C12	C	0.898254	0.352872	-0.000001
C13	C	1.202764	0.259412	-0.000009
C14	C	1.200629	0.158794	-0.000019
C15	C	0.533790	0.585204	-0.000013
C16	C	0.639343	0.613280	-0.000017
C17	C	0.704076	0.548181	-0.000013
C18	C	0.663245	0.455000	-0.000005
C19	C	0.557684	0.426920	-0.000010
C20	C	0.727970	0.389896	-0.000010
C21	C	0.687140	0.296715	-0.000003
C22	C	0.581588	0.268640	-0.000007
C23	C	0.516855	0.333740	-0.000011
C24	C	0.833531	0.417977	-0.000005
C25	C	0.857425	0.259692	-0.000002
C26	C	0.751872	0.231616	0.000002
C27	C	1.099414	-0.278941	0.000003
C28	C	1.283765	-0.254314	0.000002
C29	C	1.285776	-0.159780	-0.000005
C30	C	1.194604	-0.124823	-0.000006
C31	C	1.101421	-0.184399	-0.000000
C32	C	1.378955	-0.100196	0.000001
C33	C	1.380969	-0.005657	-0.000004
C34	C	1.289798	0.029301	-0.000014
C35	C	1.196611	-0.030281	-0.000009
C36	C	1.105439	0.004677	-0.000010
C37	C	1.012253	-0.054905	-0.000014
C38	C	1.010250	-0.149441	-0.000009
C39	C	1.291801	0.123837	-0.000018
C40	C	1.107446	0.099219	-0.000014
C41	C	1.380616	0.462145	-0.000006
C42	C	1.492961	0.492024	-0.000014
C43	C	1.188449	0.585486	0.000002
C44	C	1.190586	0.686102	0.000004
N45	N	1.135196	0.461175	0.292914
N46	N	1.256025	0.383718	-0.292920
C47	C	1.336954	0.331815	0.647894
C48	C	1.361349	0.316170	0.529553
C49	C	1.304813	0.352419	0.470388
C50	C	1.223877	0.404318	0.529574
C51	C	1.199485	0.419971	0.647926
C52	C	1.167344	0.440575	0.470420
C53	C	1.086409	0.492473	0.529607
C54	C	1.062020	0.508123	0.647948
C55	C	1.118556	0.471873	0.707113
C56	C	1.191736	0.424922	0.352068
C57	C	1.054267	0.513077	0.352101
C58	C	1.029872	0.528723	0.470442
H59	H	0.790021	0.571046	-0.000018
H60	H	1.324679	0.339678	0.374029
H61	H	0.996125	0.550390	0.696137
H62	H	1.456847	0.042847	-0.000003
H63	H	1.427246	0.273916	0.481368
H64	H	1.382984	0.302311	0.696074
C65	C	0.683461	0.714492	0.000040
C66	C	0.604176	0.765499	0.000067
C67	C	0.644776	0.858745	0.000137
H68	H	0.737649	0.720195	-0.065506
H69	H	0.710582	0.737448	0.065632
H70	H	0.577071	0.742550	-0.065518
H71	H	0.549983	0.759824	0.065608
H72	H	0.671897	0.881702	0.065729
H73	H	0.698964	0.864438	-0.065409
H74	H	0.590986	0.893366	0.000166
H75	H	0.910132	0.206682	-0.000004
H76	H	1.033203	0.127672	-0.000019
H77	H	0.963973	0.570980	0.518646
C78	C	0.913349	-0.016924	-0.000247
C79	C	0.929069	0.023827	-0.096987
C80	C	0.837981	0.058818	-0.097247
H81	H	0.896698	0.028162	0.065242
H82	H	0.857546	-0.065926	-0.000312
H83	H	0.984854	0.072824	-0.096912
H84	H	0.945706	-0.021240	-0.162492
H85	H	0.782178	0.009816	-0.097312
H86	H	0.821337	0.103901	-0.031754
H87	H	0.848631	0.086464	-0.162889
H88	H	1.008232	0.542597	0.303929
H89	H	1.098691	0.484608	0.803476
C90	C	1.279459	0.368380	0.287923
C91	C	1.256931	0.279465	0.316753
C92	C	1.337710	0.227332	0.257695
H93	H	1.343063	0.397543	0.307271
H94	H	1.285919	0.364155	0.208947
H95	H	1.250483	0.283693	0.395711
H96	H	1.193342	0.250276	0.297403
H97	H	1.344170	0.223107	0.178720
H98	H	1.401309	0.256503	0.277048
H99	H	1.322432	0.166995	0.277241
H100	H	1.367670	0.172345	-0.000008
H101	H	0.866763	0.493845	-0.000006
H102	H	0.481078	0.638196	-0.000026
H103	H	0.430904	0.310884	-0.000008
H104	H	0.548351	0.192765	-0.000014
H105	H	1.023545	-0.327457	-0.000004
H106	H	0.718615	0.155745	-0.000002
H107	H	0.934382	-0.197960	-0.000011
H108	H	1.357991	-0.282781	0.000012
H109	H	1.453180	-0.128665	0.000012
