data_functionalizedCrystal
_audit_creation_method	'MofGen! by Chris Wilmer'
_symmetry_space_group_name_H-M	'P1'
_symmetry_Int_Tables_number	1
_symmetry_cell_setting	triclinic
loop_
_symmetry_equiv_pos_as_xyz
  x,y,z
_cell_length_a	19.121063
_cell_length_b	16.625547
_cell_length_c	19.121249
_cell_angle_alpha	87.549433
_cell_angle_beta	89.910748
_cell_angle_gamma	87.531546
loop_
_atom_site_label
_atom_site_type_symbol
_atom_site_fract_x
_atom_site_fract_y
_atom_site_fract_z
Zn1	Zn	-0.262324	-1.239677	0.408422
Zn2	Zn	0.237676	-0.739677	0.908422
Zn3	Zn	-0.384537	-1.228121	0.296176
Zn4	Zn	0.115463	-0.728121	0.796176
Zn5	Zn	-0.267314	-1.098890	0.291183
Zn6	Zn	0.232686	-0.598890	0.791183
Zn7	Zn	-0.379527	-1.099298	0.413361
Zn8	Zn	0.120473	-0.599298	0.913361
O9	O	-0.323425	-1.166496	0.352285
O10	O	0.176575	-0.666496	0.852285
O11	O	-0.278543	-1.350977	0.393554
O12	O	0.221457	-0.850977	0.893554
O13	O	-0.373171	-1.205972	0.197406
O14	O	0.126829	-0.705972	0.697406
O15	O	-0.168543	-1.122231	0.302578
O16	O	0.331457	-0.622231	0.802578
O17	O	-0.368333	-1.342487	0.311088
O18	O	0.131667	-0.842487	0.811088
O19	O	-0.164877	-1.225667	0.388713
O20	O	0.335123	-0.725667	0.888713
O21	O	-0.287048	-1.111026	0.193738
O22	O	0.212952	-0.611026	0.693738
O23	O	-0.282191	-0.986111	0.307368
O24	O	0.217809	-0.486111	0.807368
O25	O	-0.359795	-1.122926	0.510813
O26	O	0.140205	-0.622926	1.010813
O27	O	-0.364634	-0.986410	0.397132
O28	O	0.135366	-0.486410	0.897132
O29	O	-0.273686	-1.226062	0.507184
O30	O	0.226314	-0.726062	1.007184
O31	O	-0.481980	-1.206367	0.315877
O32	O	0.018020	-0.706367	0.815877
O33	O	-0.478300	-1.111721	0.401973
O34	O	0.021700	-0.611721	0.901973
C35	C	-0.323411	-0.957004	0.352244
C36	C	0.176589	-0.457004	0.852244
C37	C	-0.323421	-0.867383	0.352244
C38	C	0.176579	-0.367383	0.852244
C39	C	-0.323421	-0.794601	0.352251
C40	C	0.176579	-0.294601	0.852251
C41	C	-0.323423	-0.703293	0.352265
C42	C	0.176577	-0.203293	0.852265
C43	C	-0.323428	-0.630517	0.352281
C44	C	0.176572	-0.130517	0.852281
C45	C	-0.323432	-0.539203	0.352295
C46	C	0.176568	-0.039203	0.852295
C47	C	-0.505578	-1.157857	0.360018
C48	C	-0.005578	-0.657857	0.860018
C49	C	-0.583503	-1.154236	0.363350
C50	C	-0.083503	-0.654236	0.863350
C51	C	-0.622003	-1.201854	0.320127
C52	C	-0.122003	-0.701854	0.820127
C53	C	-0.695222	-1.198453	0.323264
C54	C	-0.195222	-0.698453	0.823264
C55	C	-0.729938	-1.147430	0.369622
C56	C	-0.229938	-0.647430	0.869622
C57	C	-0.691433	-1.099810	0.412849
C58	C	-0.191433	-0.599810	0.912849
C59	C	-0.618215	-1.103215	0.409715
C60	C	-0.118215	-0.603215	0.909715
C61	C	-0.950912	-1.134684	0.381330
C62	C	-0.450912	-0.634684	0.881330
C63	C	-1.024134	-1.131280	0.384459
C64	C	-0.524134	-0.631280	0.884459
C65	C	-1.027918	-1.229925	0.294874
C66	C	-0.527918	-0.729925	0.794874
C67	C	-0.954700	-1.233322	0.291741
C68	C	-0.454700	-0.733322	0.791741
C69	C	-0.916200	-1.185706	0.334972
C70	C	-0.416200	-0.685706	0.834972
C71	C	-0.804779	-1.143951	0.372828
C72	C	-0.304779	-0.643951	0.872828
C73	C	-0.841360	-1.189190	0.331768
C74	C	-0.341360	-0.689190	0.831768
C75	C	-0.140561	-1.175193	0.344538
C76	C	0.359439	-0.675193	0.844538
C77	C	-0.062635	-1.178898	0.341236
C78	C	0.437365	-0.678898	0.841236
C79	C	-0.315626	-1.175828	0.535148
C80	C	0.184374	-0.675828	1.035148
C81	C	-0.312302	-1.179805	0.613073
C82	C	0.187698	-0.679805	1.113073
C83	C	-0.323438	-0.376806	0.352318
C84	C	0.176562	0.123194	0.852318
C85	C	-0.323437	-0.466427	0.352310
C86	C	0.176563	0.033573	0.852310
C87	C	-0.291257	-1.205030	1.053708
C88	C	0.208743	-0.705030	1.553708
C89	C	-0.294383	-1.201289	0.980489
C90	C	0.205617	-0.701289	1.480489
C91	C	-0.340775	-1.145717	0.945772
C92	C	0.159225	-0.645717	1.445772
C93	C	-0.384048	-1.093888	0.984279
C94	C	0.115952	-0.593888	1.484279
C95	C	-0.380925	-1.097635	1.057496
C96	C	0.119075	-0.597635	1.557496
C97	C	-0.352451	-1.131723	0.724797
C98	C	0.147549	-0.631723	1.224797
C99	C	-0.355570	-1.127979	0.651574
C100	C	0.144430	-0.627979	1.151574
C101	C	-0.265906	-1.235381	0.647790
C102	C	0.234094	-0.735381	1.147790
C103	C	-0.262784	-1.239119	0.721009
C104	C	0.237216	-0.739119	1.221009
C105	C	-0.306059	-1.187293	0.759509
C106	C	0.193941	-0.687293	1.259509
C107	C	-0.343970	-1.141889	0.870931
C108	C	0.156030	-0.641889	1.370931
C109	C	-0.302867	-1.191126	0.834349
C110	C	0.197133	-0.691126	1.334349
C111	C	-0.331208	-1.157191	1.170134
C112	C	0.168792	-0.657191	1.670134
C113	C	-0.334525	-1.153204	1.092209
C114	C	0.165475	-0.653204	1.592209
H115	H	-0.726566	-1.237228	0.288067
H116	H	-0.226566	-0.737228	0.788067
H117	H	-1.059272	-1.268693	0.259680
H118	H	-0.559272	-0.768693	0.759680
C119	C	-0.211756	-1.300252	0.759192
C120	C	0.288244	-0.800252	1.259192
H121	H	-0.186438	-1.330587	0.725775
H122	H	0.313562	-0.830587	1.225775
H123	H	-0.179987	-1.272325	0.786458
H124	H	0.320013	-0.772325	1.286458
H125	H	-0.237367	-1.335570	0.788893
H126	H	0.262633	-0.835570	1.288893
C127	C	-0.435076	-1.032759	0.946092
C128	C	0.064924	-0.532759	1.446092
H129	H	-0.430735	-1.037944	0.896972
H130	H	0.069265	-0.537944	1.396972
H131	H	-0.481673	-1.042927	0.960087
H132	H	0.018327	-0.542927	1.460087
H133	H	-0.424291	-0.979685	0.957653
H134	H	0.075709	-0.479685	1.457653
H135	H	-0.381741	-1.096641	0.842656
H136	H	0.118259	-0.596641	1.342656
C137	C	-0.240227	-1.266162	1.091890
C138	C	0.259773	-0.766162	1.591890
H139	H	-0.214912	-1.296497	1.058471
H140	H	0.285088	-0.796497	1.558471
H141	H	-0.208456	-1.238239	1.119156
H142	H	0.291544	-0.738239	1.619156
H143	H	-0.265838	-1.301480	1.121590
H144	H	0.234162	-0.801480	1.621590
C145	C	-0.218308	-1.292387	0.605442
C146	C	0.281692	-0.792387	1.105442
H147	H	-0.190228	-1.326015	0.636605
H148	H	0.309772	-0.826015	1.136605
H149	H	-0.246346	-1.324781	0.578017
H150	H	0.253654	-0.824781	1.078017
H151	H	-0.188971	-1.261530	0.575585
H152	H	0.311029	-0.761530	1.075585
H153	H	-0.259152	-1.243493	0.949145
H154	H	0.240848	-0.743493	1.449145
H155	H	-0.393334	-1.082707	0.623310
H156	H	0.106666	-0.582707	1.123310
H157	H	-0.387689	-1.089522	0.756135
H158	H	0.112311	-0.589522	1.256135
H159	H	-0.926435	-1.274870	0.253993
H160	H	-0.426435	-0.774870	0.753993
C161	C	-0.428518	-1.040624	1.099847
C162	C	0.071482	-0.540624	1.599847
H163	H	-0.456590	-1.006986	1.068686
H164	H	0.043410	-0.506986	1.568686
H165	H	-0.457850	-1.071475	1.129707
H166	H	0.042150	-0.571475	1.629707
H167	H	-0.400472	-1.008228	1.127269
H168	H	0.099528	-0.508228	1.627269
H169	H	-0.265098	-1.236375	0.862619
H170	H	0.234902	-0.736375	1.362619
H171	H	-1.052398	-1.089741	0.422221
H172	H	-0.552398	-0.589741	0.922221
C173	C	-0.583821	-1.257981	0.269134
C174	C	-0.083821	-0.757981	0.769134
H175	H	-0.617240	-1.285859	0.243847
H176	H	-0.117240	-0.785859	0.743847
H177	H	-0.556597	-1.226936	0.237337
H178	H	-0.056597	-0.726936	0.737337
H179	H	-0.554080	-1.295791	0.294766
H180	H	-0.054080	-0.795791	0.794766
C181	C	-0.908572	-1.082293	0.428869
C182	C	-0.408572	-0.582293	0.928869
H183	H	-0.939737	-1.051410	0.456917
H184	H	-0.439737	-0.551410	0.956917
H185	H	-0.878668	-1.115988	0.458224
H186	H	-0.378668	-0.615988	0.958224
H187	H	-0.881196	-1.047141	0.400787
H188	H	-0.381196	-0.547141	0.900787
H189	H	-0.719705	-1.058269	0.450598
H190	H	-0.219705	-0.558269	0.950598
H191	H	-0.586869	-1.064441	0.444913
H192	H	-0.086869	-0.564441	0.944913
H193	H	-0.813092	-1.230736	0.294026
H194	H	-0.313092	-0.730736	0.794026
H195	H	-0.833054	-1.102405	0.410571
H196	H	-0.333054	-0.602405	0.910571
