data_functionalizedCrystal
_audit_creation_method	'MofGen! by Chris Wilmer'
_symmetry_space_group_name_H-M	'P1'
_symmetry_Int_Tables_number	1
_symmetry_cell_setting	triclinic
loop_
_symmetry_equiv_pos_as_xyz
  x,y,z
_cell_length_a	19.288864
_cell_length_b	18.366186
_cell_length_c	19.288865
_cell_angle_alpha	89.989632
_cell_angle_beta	96.863755
_cell_angle_gamma	90.022929
loop_
_atom_site_label
_atom_site_type_symbol
_atom_site_fract_x
_atom_site_fract_y
_atom_site_fract_z
O1	O	0.921353	0.060791	-0.086648
O2	O	0.719092	0.060743	-0.098336
O3	O	0.826067	0.060754	0.008638
O4	O	0.814378	0.060780	-0.193622
O5	O	0.826049	-0.060345	0.008641
O6	O	0.719074	-0.060357	-0.098333
O7	O	0.921334	-0.060308	-0.086645
Zn8	Zn	0.820201	-0.079559	-0.092488
Zn9	Zn	0.820226	0.079994	-0.092492
O10	O	0.814360	-0.060319	-0.193619
C11	C	0.693207	0.000187	-0.097959
C12	C	0.616103	0.000167	-0.096830
C13	C	0.571407	0.000187	-0.159598
C14	C	0.498960	0.000195	-0.158537
C15	C	0.471212	0.000198	-0.094705
C16	C	0.515918	0.000174	-0.031929
C17	C	0.588364	0.000159	-0.032991
C18	C	0.362957	0.042642	-0.044527
C19	C	0.290512	0.042662	-0.043467
C20	C	0.247767	0.000241	-0.091425
C21	C	0.277473	-0.042189	-0.140455
C22	C	0.349918	-0.042205	-0.141518
C23	C	0.392658	0.000214	-0.093546
C24	C	0.124514	0.000269	-0.153047
C25	C	0.052066	0.000272	-0.151984
C26	C	0.069026	0.000259	-0.025374
C27	C	0.141473	0.000248	-0.026439
C28	C	0.169212	0.000256	-0.090278
N29	N	0.820190	-0.188451	-0.092485
C30	C	0.862177	-0.226528	-0.134509
C31	C	0.862189	-0.302756	-0.134507
C32	C	0.820199	-0.340903	-0.092490
C33	C	0.778209	-0.302816	-0.050457
C34	C	0.778204	-0.226590	-0.050455
C35	C	0.757588	-0.461700	-0.090733
C36	C	0.757591	-0.537925	-0.090740
C37	C	0.820215	-0.576011	-0.092492
C38	C	0.882837	-0.537862	-0.094252
C39	C	0.882832	-0.461636	-0.094249
C40	C	0.820200	-0.423558	-0.092487
C41	C	0.862219	-0.696744	-0.134516
C42	C	0.862231	-0.772973	-0.134509
C43	C	0.778245	-0.773031	-0.050463
C44	C	0.778239	-0.696804	-0.050466
C45	C	0.820225	-0.658664	-0.092496
C46	C	0.947220	0.000250	-0.087022
C47	C	1.024324	0.000274	-0.088151
C48	C	0.825682	0.000202	0.034516
C49	C	0.824553	0.000195	0.111620
N50	N	0.820243	0.188885	-0.092490
C51	C	0.814745	0.000234	-0.219497
C52	C	0.815874	0.000246	-0.296601
C53	C	0.887321	0.000207	0.156316
C54	C	0.886260	0.000218	0.228763
C55	C	0.822428	0.000203	0.256511
C56	C	0.759652	0.000196	0.211805
C57	C	0.760714	0.000192	0.139359
C58	C	0.772242	-0.042227	0.364799
C59	C	0.771182	-0.042228	0.437244
C60	C	0.819148	0.000219	0.479956
C61	C	0.868186	0.042657	0.450217
C62	C	0.869248	0.042653	0.377772
C63	C	0.821269	0.000208	0.335065
C64	C	0.880770	0.000244	0.603209
C65	C	0.879707	0.000259	0.675657
C66	C	0.753097	0.000230	0.658697
C67	C	0.754162	0.000221	0.586250
C68	C	0.818001	0.000225	0.558511
H69	H	0.462561	0.000209	-0.209652
H70	H	0.933831	-0.568870	-0.095682
C71	C	0.920948	0.089355	0.497191
H72	H	0.913288	0.083289	0.544595
H73	H	0.967076	0.074452	0.491481
H74	H	0.915018	0.139140	0.484484
C75	C	0.257842	0.089330	0.010465
H76	H	0.293675	0.114581	0.038884
H77	H	0.226384	0.123458	-0.013128
H78	H	0.233321	0.058736	0.038924
C79	C	0.908404	-0.654784	-0.180739
H80	H	0.902380	-0.603932	-0.174727
H81	H	0.955968	-0.667252	-0.167713
H82	H	0.895344	-0.667275	-0.228300
H83	H	0.937375	0.000231	0.265162
H84	H	0.147101	0.000265	-0.205028
C85	C	0.485399	0.000182	0.038285
H86	H	0.435851	0.000202	0.029928
H87	H	0.500729	-0.042053	0.064124
H88	H	0.500782	0.042412	0.064117
C89	C	0.409970	0.089315	0.008226
H90	H	0.381903	0.114596	0.037569
H91	H	0.441974	0.058726	0.035861
H92	H	0.435028	0.123428	-0.016214
H93	H	0.909175	0.077208	0.353561
C94	C	0.732044	-0.654916	-0.004248
H95	H	0.707033	-0.688550	0.020773
H96	H	0.760603	-0.625171	0.027793
H97	H	0.699983	-0.625192	-0.032799
H98	H	0.703049	0.000208	0.549857
H99	H	0.896428	-0.803975	-0.168728
C100	C	0.688696	-0.419813	-0.088809
H101	H	0.651402	-0.453448	-0.087773
H102	H	0.692039	-0.390082	-0.048253
H103	H	0.680142	-0.390075	-0.129227
C104	C	0.382594	-0.088881	-0.195440
H105	H	0.346766	-0.114149	-0.223849
H106	H	0.407119	-0.058299	-0.223900
H107	H	0.414051	-0.123006	-0.171830
H108	H	0.242670	-0.076733	-0.179507
C109	C	0.688713	-0.579885	-0.088807
H110	H	0.697683	-0.630737	-0.089069
H111	H	0.668937	-0.567414	-0.047599
H112	H	0.657028	-0.567397	-0.128573
H113	H	0.932751	0.000250	0.580622
C114	C	0.190644	0.000237	0.042605
H115	H	0.237763	0.000223	0.032830
H116	H	0.182278	0.042467	0.068788
H117	H	0.182232	-0.041999	0.068790
H118	H	0.744058	-0.804090	-0.016250
C119	C	0.732020	-0.344775	-0.004241
H120	H	0.738030	-0.395626	-0.010267
H121	H	0.745074	-0.332289	0.043318
H122	H	0.684454	-0.332301	-0.017273
C123	C	0.002900	0.000294	-0.221032
H124	H	0.029799	0.000303	-0.259201
H125	H	-0.025738	-0.041931	-0.223254
H126	H	-0.025690	0.042535	-0.223245
H127	H	0.624756	0.000144	0.018124
H128	H	0.709599	0.000182	0.102967
H129	H	0.930822	0.000273	0.712049
C130	C	0.732011	-0.184703	-0.004232
H131	H	0.707001	-0.218336	0.020791
H132	H	0.760570	-0.154955	0.027806
H133	H	0.699949	-0.154981	-0.032785
C134	C	0.682883	0.000216	0.689210
H135	H	0.691238	0.000217	0.738758
H136	H	0.657053	0.042439	0.673843
H137	H	0.657041	-0.042027	0.673864
H138	H	0.939303	0.000212	0.133736
H139	H	0.896368	-0.195480	-0.168731
H140	H	0.731249	-0.076779	0.461451
H141	H	0.733180	-0.076796	0.330028
H142	H	0.707679	0.000185	0.234401
H143	H	0.896380	-0.333765	-0.168730
C144	C	0.601920	0.000192	-0.229815
H145	H	0.651468	0.000187	-0.221460
H146	H	0.586539	-0.042029	-0.255654
H147	H	0.586587	0.042436	-0.255647
C148	C	0.038516	0.000258	0.044842
H149	H	0.075515	0.000242	0.082074
H150	H	0.010629	0.042492	0.047890
H151	H	0.010587	-0.041974	0.047887
C152	C	0.951710	-0.419675	-0.096174
H153	H	0.989011	-0.453270	-0.097213
H154	H	0.948361	-0.389928	-0.136729
H155	H	0.960259	-0.389948	-0.055754
