data_functionalizedCrystal
_audit_creation_method	'MofGen! by Chris Wilmer'
_symmetry_space_group_name_H-M	'P1'
_symmetry_Int_Tables_number	1
_symmetry_cell_setting	triclinic
loop_
_symmetry_equiv_pos_as_xyz
  x,y,z
_cell_length_a	18.760487
_cell_length_b	21.606444
_cell_length_c	21.606444
_cell_angle_alpha	60.001331
_cell_angle_beta	90.036891
_cell_angle_gamma	60.019231
loop_
_atom_site_label
_atom_site_type_symbol
_atom_site_fract_x
_atom_site_fract_y
_atom_site_fract_z
Zr1	Zr	0.686670	0.677450	-0.080834
O2	O	0.572846	0.806573	-0.179717
O3	O	0.721564	0.548331	-0.050524
O4	O	0.721555	0.677454	-0.179642
O5	O	0.572861	0.677445	0.051255
O6	O	0.838858	0.677454	-0.179579
O7	O	0.572855	0.677449	-0.050599
O8	O	0.838874	0.446475	0.051390
O9	O	0.572845	0.908424	-0.179714
O10	O	0.823987	0.601438	-0.037547
O11	O	0.736449	0.601435	0.038419
O12	O	0.736439	0.753462	-0.113601
O13	O	0.648901	0.753459	-0.037635
Zr14	Zr	0.873764	0.677443	0.081712
Zr15	Zr	0.873755	0.677450	-0.080734
Zr16	Zr	0.686680	0.677443	0.081612
Zr17	Zr	0.686668	0.839891	-0.080829
Zr18	Zr	0.873766	0.515003	0.081706
O19	O	0.838870	0.806563	0.051401
O20	O	0.838856	0.806573	-0.179575
O21	O	0.572860	0.806563	0.051259
O22	O	0.987588	0.548320	0.180595
O23	O	0.987574	0.548330	-0.050382
O24	O	0.721578	0.548321	0.180453
O25	O	0.987573	0.677449	-0.050377
O26	O	0.838879	0.677439	0.180520
O27	O	0.721576	0.677439	0.180457
O28	O	0.987579	0.677444	0.051477
O29	O	0.721552	0.908424	-0.179635
O30	O	0.838882	0.446470	0.180512
O31	O	0.987589	0.446470	0.180592
O32	O	0.987582	0.446475	0.051469
O33	O	0.572853	0.908418	-0.050592
O34	O	0.721560	0.908418	-0.050512
O35	O	0.823996	0.601432	0.114479
O36	O	0.911533	0.601435	0.038513
O37	O	0.823985	0.753458	-0.037542
O38	O	0.736447	0.753455	0.038424
C39	C	0.780220	0.474259	0.000432
C40	C	0.780220	0.405298	0.000430
C41	C	0.825912	0.372903	-0.039224
C42	C	0.825915	0.308103	-0.039219
C43	C	0.780221	0.275704	0.000436
C44	C	0.734528	0.308103	0.040096
C45	C	0.734530	0.372897	0.040094
C46	C	0.734518	0.046793	0.040102
C47	C	0.734516	-0.018004	0.040098
C48	C	0.825902	-0.018001	-0.039212
C49	C	0.825905	0.046793	-0.039213
C50	C	0.780216	0.079183	0.000449
C51	C	0.780214	0.149445	0.000444
C52	C	0.780217	0.205447	0.000437
C53	C	0.546203	0.677447	0.000314
C54	C	0.466780	0.677447	0.000271
C55	C	0.085264	0.756805	-0.039129
C56	C	0.176671	0.598089	0.040273
C57	C	0.251293	0.598088	0.040208
C58	C	0.242903	0.677446	0.000473
C59	C	0.159892	0.756806	-0.039197
C60	C	0.334309	0.518730	0.079871
C61	C	0.408937	0.518725	0.079807
C62	C	0.400549	0.598084	0.040076
C63	C	0.317531	0.677447	0.000405
C64	C	0.309141	0.756805	-0.039330
C65	C	0.226124	0.836169	-0.078997
C66	C	0.151503	0.836165	-0.078928
C67	C	0.475170	0.598089	0.040006
C68	C	0.383769	0.756807	-0.039399
C69	C	1.014231	0.677446	0.000564
C70	C	1.093654	0.677446	0.000606
C71	C	0.780205	0.677455	-0.202756
C72	C	0.780201	0.677458	-0.271718
C73	C	0.780215	0.880635	0.000445
C74	C	0.780214	0.949595	0.000448
C75	C	0.734501	0.756812	-0.343817
C76	C	0.734509	0.756810	-0.408611
C77	C	0.780212	0.677453	-0.401306
C78	C	0.825917	0.598092	-0.329200
C79	C	0.825914	0.598096	-0.264407
C80	C	0.825931	0.598077	-0.590503
C81	C	0.825928	0.598080	-0.655304
C82	C	0.734526	0.756792	-0.734708
C83	C	0.734523	0.756795	-0.669914
C84	C	0.780232	0.677435	-0.597814
C85	C	0.780224	0.677439	-0.527557
C86	C	0.780214	0.677448	-0.471562
C87	C	0.780229	0.677438	0.203633
C88	C	0.780233	0.677435	0.272596
C89	C	1.014234	0.474258	0.000557
C90	C	1.093657	0.405298	0.000597
C91	C	0.780231	0.474250	0.203627
C92	C	0.780236	0.405287	0.272587
C93	C	1.014246	0.474250	0.203752
C94	C	1.093673	0.405286	0.272754
C95	C	0.546188	0.880644	-0.202874
C96	C	0.466761	0.949607	-0.271877
C97	C	0.546200	0.880635	0.000320
C98	C	0.466777	0.949595	0.000280
C99	C	0.780203	0.880643	-0.202749
C100	C	0.780198	0.949607	-0.271709
C101	C	1.085257	0.372915	-0.039093
C102	C	1.159876	0.308129	-0.039070
C103	C	1.242895	0.275722	0.000647
C104	C	1.251293	0.308111	0.040339
C105	C	1.176675	0.372901	0.040311
C106	C	0.825937	0.372899	0.344680
C107	C	0.825938	0.308110	0.409482
C108	C	0.780243	0.275705	0.402189
C109	C	0.734537	0.308099	0.330088
C110	C	0.734531	0.372892	0.265288
C111	C	1.176674	0.372902	0.265505
C112	C	1.251312	0.308113	0.330334
C113	C	1.242946	0.275705	0.402412
C114	C	1.159936	0.308095	0.409659
C115	C	1.085300	0.372888	0.344831
C116	C	0.383760	0.981999	-0.264628
C117	C	0.309122	1.046808	-0.329457
C118	C	0.317488	1.079220	-0.401534
C119	C	0.400498	1.046825	-0.408782
C120	C	0.475134	0.982021	-0.343953
C121	C	0.475177	0.981985	0.039964
C122	C	0.400558	1.046789	0.039923
C123	C	0.317539	1.079198	0.000203
C124	C	0.309141	1.046806	-0.039485
C125	C	0.383759	0.982007	-0.039449
C126	C	0.825901	0.981991	-0.264392
C127	C	0.825914	1.046780	-0.329181
C128	C	0.780217	1.079189	-0.401287
C129	C	0.734512	1.046798	-0.408603
C130	C	0.734505	0.982005	-0.343815
H131	H	0.863121	0.281725	-0.071508
O132	O	0.236980	1.149125	-0.471451
H133	H	0.197573	1.124258	-0.471428
H134	H	0.697310	0.821410	-0.793421
O135	O	0.995722	0.407864	-0.081942
H136	H	0.959538	0.479343	-0.125806
H137	H	0.863131	1.073146	-0.323209
H138	H	1.017720	0.399247	0.350744
O139	O	0.685244	1.081728	-0.486372
H140	H	0.615007	1.111247	-0.493013
H141	H	0.780255	0.222947	0.454959
O142	O	0.564658	0.947074	-0.351776
H143	H	0.557926	0.980496	-0.412788
H144	H	0.376927	0.821431	-0.071748
H145	H	0.376907	0.955638	-0.071761
O146	O	0.875183	-0.052939	-0.081991
H147	H	0.945418	-0.082451	-0.059036
H148	H	0.542769	0.955602	0.072313
H149	H	1.183527	0.399258	0.072636
H150	H	0.083907	0.900778	-0.111222
O151	O	0.685211	-0.052935	0.082855
H152	H	0.653439	-0.019526	0.110433
H153	H	1.153021	0.281766	-0.071391
H154	H	0.219304	0.900783	-0.111354
O155	O	0.685196	0.947089	-0.351711
H156	H	0.653416	0.980523	-0.412737
H157	H	1.318895	0.281747	0.324420
O158	O	0.685223	0.842389	-0.677796
H159	H	0.731353	0.846185	-0.650142
O160	O	0.219596	1.081726	-0.321632
H161	H	0.226326	1.048282	-0.260620
H162	H	1.303647	0.222965	0.000664
H163	H	0.697321	0.399275	0.072383
O164	O	0.374726	0.947052	-0.186891
H165	H	0.304466	0.980481	-0.192754
O166	O	0.875252	0.512484	-0.647428
H167	H	0.907052	0.457300	-0.586407
H168	H	0.863113	0.955614	-0.205685
H169	H	0.697319	0.399253	0.206588
H170	H	1.318897	0.281716	0.072675
H171	H	0.863147	0.399276	0.350633
H172	H	0.863134	0.533478	-0.323257
O173	O	0.685272	0.273123	0.322242
H174	H	0.615028	0.327494	0.290753
O175	O	1.185708	0.407860	0.187769
H176	H	1.255969	0.374458	0.193632
O177	O	0.498472	0.433131	0.122588
H178	H	0.506148	0.395078	0.183596
H179	H	0.863150	0.533458	-0.531805
O180	O	0.875185	0.081743	-0.081988
H181	H	0.945421	0.027352	-0.059018
H182	H	0.863161	0.281743	0.468183
H183	H	0.407413	1.073152	0.072245
O184	O	0.780215	1.149084	-0.471165
H185	H	0.819666	1.166161	-0.453955
H186	H	0.697318	0.073154	0.072401
H187	H	0.697328	0.281714	0.072388
H188	H	0.863127	0.533477	-0.205701
H189	H	1.303726	0.222946	0.455193
H190	H	0.697298	0.821428	-0.467315
O191	O	0.875197	0.407846	-0.081996
H192	H	0.906977	0.374424	-0.109563
H193	H	1.153137	0.281699	0.468353
O194	O	-0.004267	0.842403	-0.081921
H195	H	-0.054752	0.829076	-0.075206
O196	O	0.185724	0.512498	0.083125
H197	H	0.119887	0.525829	0.076510
O198	O	0.409517	1.081780	-0.486524
H199	H	0.343669	1.132275	-0.530378
H200	H	0.256787	1.131962	0.000180
H201	H	0.241537	1.073204	-0.071824
H202	H	0.341131	0.454121	0.112221
H203	H	0.542758	0.533472	0.072309
H204	H	0.697279	0.821435	-0.349774
