data_functionalizedCrystal
_audit_creation_method	'MofGen! by Chris Wilmer'
_symmetry_space_group_name_H-M	'P1'
_symmetry_Int_Tables_number	1
_symmetry_cell_setting	triclinic
loop_
_symmetry_equiv_pos_as_xyz
  x,y,z
_cell_length_a	18.215407
_cell_length_b	18.101397
_cell_length_c	18.215399
_cell_angle_alpha	90.030634
_cell_angle_beta	90.019833
_cell_angle_gamma	90.020914
loop_
_atom_site_label
_atom_site_type_symbol
_atom_site_fract_x
_atom_site_fract_y
_atom_site_fract_z
Zn1	Zn	1.125095	-0.294828	0.416102
Zn2	Zn	1.125012	-0.418675	0.293030
Zn3	Zn	1.002027	-0.294853	0.293050
Zn4	Zn	1.002002	-0.418633	0.416055
O5	O	1.063534	-0.356747	0.354559
O6	O	1.228068	-0.311264	0.399788
O7	O	1.108674	-0.402277	0.190048
O8	O	1.018397	-0.191216	0.309401
O9	O	1.228008	-0.402253	0.309367
O10	O	1.108814	-0.191199	0.399807
O11	O	1.018317	-0.311305	0.190063
O12	O	0.899040	-0.311265	0.309355
O13	O	1.018355	-0.402183	0.519046
O14	O	0.899021	-0.402207	0.399726
O15	O	1.108790	-0.311224	0.519080
O16	O	1.108650	-0.522302	0.309322
O17	O	1.018275	-0.522272	0.399708
C18	C	0.872328	-0.356735	0.354538
C19	C	0.790529	-0.356747	0.354546
C20	C	0.602345	-0.404175	0.401544
C21	C	0.525486	-0.404177	0.401553
C22	C	0.525475	-0.309333	0.307591
C23	C	0.602333	-0.309328	0.307586
C24	C	0.640765	-0.356753	0.354561
C25	C	0.487049	-0.356761	0.354575
C26	C	0.403716	-0.356763	0.354585
C27	C	0.724104	-0.356750	0.354553
C28	C	1.063471	-0.549158	0.354524
C29	C	1.063512	-0.631472	0.354533
C30	C	1.063606	-0.930563	0.354600
C31	C	1.120308	-0.899226	0.297579
C32	C	1.120505	-0.813607	0.297727
C33	C	1.063559	-0.782180	0.354566
C34	C	1.084583	-0.813187	0.432138
C35	C	1.085022	-0.898832	0.431828
C36	C	0.985727	-0.899072	0.334720
C37	C	0.986112	-0.813423	0.332988
C38	C	1.063531	-0.698321	0.354552
C39	C	1.063635	-1.014422	0.354620
C40	C	1.255487	-0.356761	0.354581
C41	C	1.337286	-0.356766	0.354590
C42	C	1.063579	-0.356696	0.546512
C43	C	1.063598	-0.356674	0.628311
C44	C	1.063617	-0.163585	0.354611
C45	C	1.063653	-0.081271	0.354633
C46	C	1.063532	-0.356745	0.163353
C47	C	1.063655	-0.356558	0.081554
C48	C	1.110705	-0.309268	0.816524
C49	C	1.110713	-0.309246	0.893383
C50	C	1.016544	-0.403967	0.893336
C51	C	1.016532	-0.403984	0.816478
C52	C	1.063616	-0.356636	0.778075
C53	C	1.063637	-0.356597	0.931791
C54	C	1.063646	-0.356574	1.015125
C55	C	1.063606	-0.356657	0.694736
H56	H	0.633616	-0.270707	0.269327
H57	H	0.978181	-0.442556	0.785172
H58	H	0.494174	-0.270723	0.269344
N59	N	1.103999	-0.787318	0.225569
N60	N	1.092256	-0.832224	0.174747
H61	H	1.080601	-0.813661	0.123782
H62	H	0.494207	-0.442792	0.439812
N63	N	1.158802	-0.260899	0.777307
N64	N	1.200841	-0.218609	0.811650
H65	H	1.234810	-0.184446	0.783955
N66	N	0.930257	-0.786589	0.381265
N67	N	0.918730	-0.718720	0.386478
H68	H	0.879284	-0.699769	0.420579
H69	H	1.149056	-0.270673	0.924686
H70	H	1.107314	-0.919869	0.239888
N71	N	1.192279	-0.926161	0.313894
N72	N	1.201992	-0.968335	0.367334
H73	H	1.252821	-0.987360	0.378859
H74	H	1.178193	-0.793063	0.310881
H75	H	0.978211	-0.442518	0.924614
H76	H	1.045531	-0.919559	0.475777
N77	N	0.641604	-0.452622	0.449520
N78	N	0.632997	-0.520951	0.444517
H79	H	0.660722	-0.555169	0.478402
N80	N	1.156436	-0.923814	0.452954
N81	N	1.205607	-0.877996	0.467824
H82	H	1.256045	-0.895635	0.482744
H83	H	1.044547	-0.792828	0.475766
N84	N	1.155195	-0.786200	0.453617
N85	N	1.190156	-0.744140	0.411929
H86	H	1.240027	-0.725080	0.427094
N87	N	0.961740	-0.926249	0.264989
N88	N	1.001757	-0.969162	0.229095
H89	H	0.984824	-0.988357	0.179844
H90	H	0.970259	-0.793165	0.275902
H91	H	0.943479	-0.919338	0.376251
