data_functionalizedCrystal
_audit_creation_method	'MofGen! by Chris Wilmer'
_symmetry_space_group_name_H-M	'P1'
_symmetry_Int_Tables_number	1
_symmetry_cell_setting	triclinic
loop_
_symmetry_equiv_pos_as_xyz
  x,y,z
_cell_length_a	16.120444
_cell_length_b	18.215407
_cell_length_c	16.120704
_cell_angle_alpha	92.889152
_cell_angle_beta	84.364089
_cell_angle_gamma	87.072949
loop_
_atom_site_label
_atom_site_type_symbol
_atom_site_fract_x
_atom_site_fract_y
_atom_site_fract_z
Zn1	Zn	-0.356925	-1.087093	0.489474
Zn2	Zn	-0.489565	-1.087023	0.356783
Zn3	Zn	-0.349809	-0.970624	0.349716
Zn4	Zn	-0.496660	-0.957417	0.496508
O5	O	-0.423240	-1.025540	0.423121
O6	O	-0.374529	-1.190067	0.471886
O7	O	-0.465079	-1.077081	0.238881
O8	O	-0.233785	-0.991630	0.362354
O9	O	-0.471979	-1.190016	0.374399
O10	O	-0.239013	-1.077200	0.465033
O11	O	-0.362401	-0.991563	0.233689
O12	O	-0.369280	-0.865889	0.369175
O13	O	-0.484071	-0.969121	0.612540
O14	O	-0.477171	-0.856186	0.477023
O15	O	-0.381408	-1.064394	0.607372
O16	O	-0.607474	-1.064275	0.381220
O17	O	-0.612687	-0.969054	0.483875
C18	C	-0.423224	-0.834335	0.423096
C19	C	-0.423239	-0.752535	0.423106
C20	C	-0.640410	-1.015243	0.434096
C21	C	-0.733318	-1.010904	0.438819
C22	C	-0.434325	-1.015292	0.641131
C23	C	-0.439049	-1.010925	0.734035
C24	C	-0.942212	-1.048220	0.398799
C25	C	-0.903416	-1.002995	0.447451
C26	C	-0.808765	-1.007396	0.442647
C27	C	-1.036873	-1.043820	0.403602
C28	C	-0.205222	-1.035896	0.412121
C29	C	-0.112316	-1.040309	0.407433
C30	C	-0.423256	-1.217491	0.423146
C31	C	-0.423263	-1.299289	0.423157
C32	C	-0.479498	-0.559307	0.479200
C33	C	-0.479501	-0.482448	0.479210
C34	C	-0.366998	-0.492522	0.367061
C35	C	-0.366991	-0.569380	0.367055
C36	C	-0.423246	-0.602771	0.423123
C37	C	-0.423256	-0.449053	0.423140
C38	C	-0.423259	-0.365719	0.423151
C39	C	-0.423242	-0.686110	0.423113
C40	C	-0.398932	-1.048124	0.942964
C41	C	-0.447638	-1.002929	0.904123
C42	C	-0.442858	-1.007380	0.809477
C43	C	-0.403712	-1.043674	1.037618
C44	C	-0.412224	-1.035745	1.205959
C45	C	-0.407524	-1.040125	1.113057
H46	H	-0.941287	-0.960969	0.492712
N47	N	-0.892054	-1.103875	0.338838
H48	H	-0.931130	-1.133446	0.307032
H49	H	-0.857508	-1.137962	0.371087
N50	N	-0.540169	-0.595323	0.539671
H51	H	-0.575804	-0.556124	0.575197
H52	H	-0.508171	-0.627008	0.576686
H53	H	-0.525306	-0.447063	0.524874
N54	N	-0.306346	-0.456508	0.306568
H55	H	-0.314893	-0.401223	0.315072
H56	H	-0.316250	-0.472138	0.247514
N57	N	-0.306306	-0.616265	0.306580
H58	H	-0.270672	-0.583452	0.271060
H59	H	-0.338292	-0.648365	0.269558
H60	H	-0.492923	-0.960891	0.941951
H61	H	-0.353647	-1.090155	0.905138
