data_functionalizedCrystal
_audit_creation_method	'MofGen! by Chris Wilmer'
_symmetry_space_group_name_H-M	'P1'
_symmetry_Int_Tables_number	1
_symmetry_cell_setting	triclinic
loop_
_symmetry_equiv_pos_as_xyz
  x,y,z
_cell_length_a	17.699083
_cell_length_b	16.992695
_cell_length_c	16.176319
_cell_angle_alpha	89.993125
_cell_angle_beta	89.998611
_cell_angle_gamma	86.975619
loop_
_atom_site_label
_atom_site_type_symbol
_atom_site_fract_x
_atom_site_fract_y
_atom_site_fract_z
O1	O	1.010252	0.099146	-0.068631
O2	O	0.790676	0.112045	-0.068658
O3	O	0.899584	-0.008546	-0.068638
O4	O	0.901344	0.219736	-0.068651
O5	O	0.899567	-0.008553	0.068855
O6	O	0.790660	0.112037	0.068835
O7	O	1.010235	0.099138	0.068862
Cu8	Cu	0.900446	0.105587	0.081403
Cu9	Cu	0.900465	0.105596	-0.081199
O10	O	0.901328	0.219729	0.068842
C11	C	0.762442	0.111579	0.000085
C12	C	0.678338	0.110192	0.000075
C13	C	0.897311	-0.037758	0.000108
C14	C	0.890554	-0.124789	0.000107
C15	C	0.634124	0.180976	0.000071
C16	C	0.555099	0.179669	0.000082
C17	C	0.520290	0.107576	0.000091
C18	C	0.564510	0.036787	0.000097
C19	C	0.643533	0.038095	0.000092
C20	C	0.245818	0.031509	0.000118
C21	C	0.166789	0.030206	0.000120
C22	C	0.157384	0.173082	0.000108
C23	C	0.236408	0.174391	0.000103
C24	C	0.280621	0.103602	0.000113
C25	C	0.366308	0.105020	0.000103
C26	C	0.434604	0.106157	0.000095
C27	C	0.955751	-0.175154	0.000116
C28	C	0.949398	-0.256928	0.000107
C29	C	0.877846	-0.288336	0.000096
C30	C	0.812643	-0.237965	0.000084
C31	C	0.818998	-0.156192	0.000087
C32	C	0.851510	-0.531884	0.000081
C33	C	0.845160	-0.613663	0.000081
C34	C	0.981915	-0.632621	0.000102
C35	C	0.988263	-0.550845	0.000110
C36	C	0.923061	-0.500481	0.000094
N37	N	0.871350	-0.371923	0.000090
N38	N	0.929558	-0.416897	0.000095
C39	C	1.038469	0.099604	0.000117
C40	C	1.122574	0.100991	0.000122
C41	C	0.903601	0.248941	0.000094
C42	C	0.910358	0.335972	0.000090
N43	N	0.900438	0.105580	0.195768
N44	N	0.900479	0.105597	-0.195564
C45	C	0.948679	0.052204	0.239041
C46	C	0.948683	0.052203	0.325588
C47	C	0.900449	0.105583	0.368861
C48	C	0.852202	0.158961	0.325582
C49	C	0.852195	0.158957	0.239036
C50	C	0.852229	0.158976	0.674610
C51	C	0.852242	0.158977	0.761161
C52	C	0.948717	0.052222	0.761162
C53	C	0.948709	0.052218	0.674617
C54	C	0.900461	0.105593	0.631345
C55	C	0.900456	0.105593	0.537501
C56	C	0.900457	0.105588	0.462703
H57	H	0.662460	0.239682	0.000064
H58	H	0.264745	0.233096	0.000092
O59	O	0.109699	0.249439	0.000114
H60	H	0.048901	0.236422	0.000131
O61	O	0.800216	0.216551	0.807842
H62	H	0.834388	0.254616	0.847251
O63	O	1.000687	-0.005383	0.192367
H64	H	1.039466	0.027557	0.152922
H65	H	1.046528	-0.525279	0.000120
O66	O	0.507408	0.256014	0.000078
H67	H	0.544890	0.306363	0.000062
O68	O	0.129240	-0.047554	0.000143
H69	H	0.173259	-0.096559	0.000161
O70	O	1.000724	-0.005361	0.627941
H71	H	1.060326	0.004540	0.644540
O72	O	0.691221	-0.038253	0.000101
H73	H	0.752018	-0.025233	0.000107
O74	O	0.526965	-0.040970	0.000111
H75	H	0.570988	-0.089971	0.000123
O76	O	0.293501	-0.044838	0.000129
H77	H	0.256017	-0.095186	0.000128
O78	O	0.800200	0.216548	0.627942
H79	H	0.766670	0.253672	0.672575
H80	H	0.988001	0.008758	0.796403
O81	O	1.052239	-0.686940	0.000118
H82	H	1.052629	-0.724639	-0.055925
O83	O	1.032927	-0.141280	0.000131
H84	H	1.039095	-0.104466	-0.055905
O85	O	0.800179	0.216540	0.372248
H86	H	0.808295	0.207583	0.439699
O87	O	0.800168	0.216530	0.192356
H88	H	0.766635	0.253655	0.236984
H89	H	0.798417	-0.490887	0.000069
O90	O	1.019722	-0.311247	0.000130
H91	H	1.053745	-0.300084	-0.055896
O92	O	0.767983	-0.647544	0.000059
H93	H	0.723710	-0.598786	0.000039
O94	O	0.735466	-0.271835	0.000081
H95	H	0.741999	-0.337158	0.000092
H96	H	0.765906	-0.115186	0.000080
O97	O	1.000728	-0.005351	0.372265
H98	H	1.034278	-0.042458	0.327635
