data_functionalizedCrystal
_audit_creation_method	'MofGen! by Chris Wilmer'
_symmetry_space_group_name_H-M	'P1'
_symmetry_Int_Tables_number	1
_symmetry_cell_setting	triclinic
loop_
_symmetry_equiv_pos_as_xyz
  x,y,z
_cell_length_a	19.077105
_cell_length_b	14.908520
_cell_length_c	19.076919
_cell_angle_alpha	84.570994
_cell_angle_beta	89.923776
_cell_angle_gamma	91.150228
loop_
_atom_site_label
_atom_site_type_symbol
_atom_site_fract_x
_atom_site_fract_y
_atom_site_fract_z
Zn1	Zn	1.037881	-0.436364	0.459234
Zn2	Zn	1.537881	0.063636	0.959234
Zn3	Zn	1.035744	-0.581390	0.347980
Zn4	Zn	1.535744	-0.081390	0.847980
Zn5	Zn	0.925663	-0.424281	0.336506
Zn6	Zn	1.425663	0.075719	0.836506
Zn7	Zn	0.913591	-0.580846	0.460710
Zn8	Zn	1.413591	-0.080846	0.960710
O9	O	0.978220	-0.505720	0.401107
O10	O	1.478220	-0.005720	0.901107
O11	O	1.135682	-0.460886	0.448660
O12	O	1.635682	0.039114	0.948660
O13	O	1.025299	-0.555720	0.247919
O14	O	1.525299	-0.055720	0.747919
O15	O	0.946495	-0.299666	0.347366
O16	O	1.446495	0.200334	0.847366
O17	O	1.134112	-0.567437	0.366923
O18	O	1.634112	-0.067437	0.866923
O19	O	1.028941	-0.308543	0.437534
O20	O	1.528941	0.191457	0.937534
O21	O	0.944423	-0.440292	0.239489
O22	O	1.444423	0.059708	0.739489
O23	O	0.825977	-0.439765	0.348797
O24	O	1.325977	0.060235	0.848797
O25	O	0.925920	-0.566510	0.559053
O26	O	1.425920	-0.066510	1.059053
O27	O	0.817107	-0.554793	0.440049
O28	O	1.317107	-0.054793	0.940049
O29	O	1.017235	-0.460359	0.557969
O30	O	1.517235	0.039641	1.057969
O31	O	1.013594	-0.707536	0.368354
O32	O	1.513594	-0.207536	0.868354
O33	O	0.923848	-0.707136	0.451175
O34	O	1.423848	-0.207136	0.951175
C35	C	0.796110	-0.495910	0.393339
C36	C	1.296110	0.004090	0.893339
C37	C	0.718201	-0.491735	0.390033
C38	C	1.218201	0.008265	0.890033
C39	C	0.676998	-0.549746	0.435923
C40	C	1.176998	-0.049746	0.935923
C41	C	0.603795	-0.545812	0.432820
C42	C	1.103795	-0.045812	0.932820
C43	C	0.571795	-0.483870	0.383823
C44	C	1.071795	0.016130	0.883823
C45	C	0.613003	-0.425853	0.337931
C46	C	1.113003	0.074147	0.837931
C47	C	0.686205	-0.429783	0.341038
C48	C	1.186205	0.070217	0.841038
C49	C	0.353358	-0.465680	0.369446
C50	C	0.853358	0.034320	0.869446
C51	C	0.280150	-0.461756	0.366341
C52	C	0.780150	0.038244	0.866341
C53	C	0.270947	-0.581715	0.461231
C54	C	0.770947	-0.081715	0.961231
C55	C	0.344151	-0.585643	0.464331
C56	C	0.844151	-0.085643	0.964331
C57	C	0.385353	-0.527623	0.418441
C58	C	0.885353	-0.027623	0.918441
N59	N	0.496969	-0.479850	0.380648
N60	N	0.996969	0.020150	0.880648
N61	N	0.460177	-0.531640	0.421620
N62	N	0.960177	-0.031640	0.921620
C63	C	0.967198	-0.740065	0.411186
C64	C	1.467198	-0.240065	0.911186
C65	C	0.962545	-0.840323	0.415524
C66	C	1.462545	-0.340323	0.915524
C67	C	1.047344	-1.029082	0.337510
C68	C	1.547344	-0.529082	0.837510
C69	C	1.042976	-1.123283	0.341584
C70	C	1.542976	-0.623283	0.841584
C71	C	0.949443	-1.122929	0.427749
C72	C	1.449443	-0.622929	0.927749
C73	C	0.953812	-1.028727	0.423675
C74	C	1.453812	-0.528727	0.923675
C75	C	1.002763	-0.981807	0.378553
C76	C	1.502763	-0.481807	0.878553
C77	C	1.007128	-0.887604	0.374476
C78	C	1.507128	-0.387604	0.874476
C79	C	0.913600	-0.887251	0.460644
C80	C	1.413600	-0.387251	0.960644
C81	C	0.909231	-0.981453	0.464718
C82	C	1.409231	-0.481453	0.964718
C83	C	1.161040	-0.515570	0.408907
C84	C	1.661040	-0.015570	0.908907
C85	C	1.238948	-0.519767	0.412230
C86	C	1.738948	-0.019767	0.912230
C87	C	0.970470	-0.514721	0.584776
C88	C	1.470470	-0.014721	1.084776
C89	C	0.967167	-0.518557	0.663044
C90	C	1.467167	-0.018557	1.163044
C91	C	0.989303	-0.270463	0.391006
C92	C	1.489303	0.229537	0.891006
C93	C	0.994026	-0.170210	0.386701
C94	C	1.494026	0.329790	0.886701
C95	C	0.985983	-0.496691	0.218153
C96	C	1.485983	0.003309	0.718153
C97	C	0.989433	-0.492609	0.139879
C98	C	1.489433	0.007391	0.639879
C99	C	1.013156	-0.465095	0.699251
C100	C	1.513156	0.034905	1.199251
C101	C	1.010044	-0.468695	0.772793
C102	C	1.510044	0.031305	1.272793
C103	C	0.960947	-0.525763	0.810125
C104	C	1.460947	-0.025763	1.310125
C105	C	0.914953	-0.579227	0.773913
C106	C	1.414953	-0.079227	1.273913
C107	C	0.918062	-0.575622	0.700373
C108	C	1.418062	-0.075622	1.200373
C109	C	0.946548	-0.542468	1.030127
C110	C	1.446548	-0.042468	1.530127
C111	C	0.943444	-0.546071	1.103672
C112	C	1.443444	-0.046071	1.603672
C113	C	1.038535	-0.435537	1.102547
C114	C	1.538535	0.064463	1.602547
C115	C	1.041642	-0.431941	1.029006
C116	C	1.541642	0.068059	1.529006
C117	C	0.995646	-0.485402	0.992799
C118	C	1.495646	0.014598	1.492799
N119	N	0.957767	-0.529446	0.885296
N120	N	1.457767	-0.029446	1.385296
N121	N	0.998824	-0.481713	0.917629
N122	N	1.498824	0.018287	1.417629
H123	H	0.719751	-0.382540	0.303673
H124	H	1.219751	0.117460	0.803673
H125	H	0.570251	-0.593052	0.470187
H126	H	1.070251	-0.093052	0.970187
C127	C	0.379349	-0.653810	0.518201
C128	C	0.879349	-0.153810	1.018201
H129	H	0.428846	-0.647858	0.513466
H130	H	0.928846	-0.147858	1.013466
H131	H	0.365995	-0.642418	0.564471
H132	H	0.865995	-0.142418	1.064471
H133	H	0.364927	-0.713227	0.509881
H134	H	0.864927	-0.213227	1.009881
H135	H	0.237393	-0.628951	0.498592
H136	H	0.737393	-0.128951	0.998592
C137	C	0.577808	-0.357715	0.284035
C138	C	1.077808	0.142285	0.784035
H139	H	0.612833	-0.323722	0.257155
H140	H	1.112833	0.176278	0.757155
H141	H	0.548923	-0.389115	0.253578
H142	H	1.048923	0.110885	0.753578
H143	H	0.549965	-0.318256	0.308128
H144	H	1.049965	0.181744	0.808128
C145	C	0.398673	-0.401866	0.318968
C146	C	0.898673	0.098134	0.818968
H147	H	0.446853	-0.413066	0.327838
H148	H	0.946853	0.086934	0.827838
H149	H	0.388048	-0.412006	0.271693
H150	H	0.888048	0.087994	0.771693
H151	H	0.389084	-0.341147	0.326243
H152	H	0.889084	0.158853	0.826243
C153	C	0.895602	-1.174551	0.477375
C154	C	1.395602	-0.674551	0.977375
H155	H	0.899385	-1.237424	0.473918
H156	H	1.399385	-0.737424	0.973918
H157	H	0.904534	-1.161950	0.524464
H158	H	1.404534	-0.661950	1.024464
H159	H	0.849663	-1.156136	0.464347
H160	H	1.349663	-0.656136	0.964347
H161	H	0.869378	-1.019668	0.501457
H162	H	1.369378	-0.519668	1.001457
H163	H	0.874974	-0.625690	0.804315
H164	H	1.374974	-0.125690	1.304315
H165	H	1.047495	-0.425162	0.802269
H166	H	1.547495	0.074838	1.302269
H167	H	0.877297	-0.848750	0.494062
H168	H	1.377297	-0.348750	0.994062
C169	C	1.067161	-0.402315	0.658191
C170	C	1.567161	0.097685	1.158191
H171	H	1.094098	-0.370983	0.690290
H172	H	1.594098	0.129017	1.190290
H173	H	1.097290	-0.437050	0.632287
H174	H	1.597290	0.062950	1.132287
H175	H	1.043405	-0.360162	0.626673
H176	H	1.543405	0.139838	1.126673
C177	C	0.889433	-0.608846	1.144737
C178	C	1.389433	-0.108846	1.644737
H179	H	0.862480	-0.640164	1.112641
H180	H	1.362480	-0.140164	1.612641
H181	H	0.913181	-0.650998	1.176256
H182	H	1.413181	-0.150998	1.676256
H183	H	0.859308	-0.574096	1.170640
H184	H	1.359308	-0.074096	1.670640
H185	H	0.909104	-0.586013	1.000657
H186	H	1.409104	-0.086013	1.500657
C187	C	1.095650	-0.369166	0.987945
C188	C	1.595650	0.130834	1.487945
H189	H	1.122591	-0.337836	1.020041
H190	H	1.622591	0.162164	1.520041
H191	H	1.125775	-0.403911	0.962044
H192	H	1.625775	0.096089	1.462044
H193	H	1.071900	-0.327011	0.956423
H194	H	1.571900	0.172989	1.456423
C195	C	0.867490	-0.634454	0.660546
C196	C	1.367490	-0.134454	1.160546
H197	H	0.837813	-0.668970	0.693313
H198	H	1.337813	-0.168970	1.193313
H199	H	0.839784	-0.596917	0.629065
H200	H	1.339784	-0.096917	1.129065
H201	H	0.893682	-0.673790	0.634701
H202	H	1.393682	-0.173790	1.134701
H203	H	1.046985	-0.849402	0.337734
H204	H	1.546985	-0.349402	0.837734
H205	H	0.254099	-0.411305	0.326445
H206	H	0.754099	0.088695	0.826445
C207	C	1.089124	-0.376728	1.142371
C208	C	1.589124	0.123272	1.642371
H209	H	1.118812	-0.342229	1.109605
H210	H	1.618812	0.157771	1.609605
H211	H	1.062952	-0.337391	1.168228
H212	H	1.562952	0.162609	1.668228
H213	H	1.116829	-0.414288	1.173844
H214	H	1.616829	0.085712	1.673844
C215	C	0.712192	-0.617882	0.489821
C216	C	1.212192	-0.117882	0.989821
H217	H	0.677166	-0.651861	0.516711
H218	H	1.177166	-0.151861	1.016711
H219	H	0.740037	-0.657340	0.465737
H220	H	1.240037	-0.157340	0.965737
H221	H	0.741075	-0.586472	0.520280
H222	H	1.241075	-0.086472	1.020280
H223	H	1.087198	-0.990878	0.300765
H224	H	1.587198	-0.490878	0.800765
H225	H	1.079279	-1.161771	0.308163
H226	H	1.579279	-0.661771	0.808163
