data_functionalizedCrystal
_audit_creation_method	'MofGen! by Chris Wilmer'
_symmetry_space_group_name_H-M	'P1'
_symmetry_Int_Tables_number	1
_symmetry_cell_setting	triclinic
loop_
_symmetry_equiv_pos_as_xyz
  x,y,z
_cell_length_a	15.995350
_cell_length_b	15.995292
_cell_length_c	16.176319
_cell_angle_alpha	89.996390
_cell_angle_beta	89.996232
_cell_angle_gamma	83.480495
loop_
_atom_site_label
_atom_site_type_symbol
_atom_site_fract_x
_atom_site_fract_y
_atom_site_fract_z
O1	O	1.110966	0.107932	-0.068671
O2	O	0.867188	0.121260	-0.068687
O3	O	0.995766	-0.007295	-0.068680
O4	O	0.982388	0.236487	-0.068678
O5	O	0.995749	-0.007304	0.068814
O6	O	0.867171	0.121251	0.068806
O7	O	1.110949	0.107923	0.068823
Cu8	Cu	0.989058	0.114587	0.081369
Cu9	Cu	0.989079	0.114596	-0.081233
O10	O	0.982370	0.236478	0.068815
C11	C	0.995213	-0.038495	0.000065
C12	C	0.993581	-0.131448	0.000059
C13	C	0.835985	0.120704	0.000058
C14	C	0.743035	0.119053	0.000051
C15	C	0.987580	-0.469186	0.000066
C16	C	1.080384	-0.445874	0.000379
C17	C	1.082148	-0.349199	0.000066
C18	C	0.990557	-0.301631	0.000063
C19	C	0.944170	-0.330727	-0.078453
C20	C	0.943052	-0.427517	-0.078516
C21	C	0.941137	-0.427384	0.077839
C22	C	0.944576	-0.330891	0.078874
C23	C	0.992235	-0.206934	0.000058
C24	C	0.985899	-0.563882	0.000065
C25	C	0.405288	0.113120	0.000068
C26	C	0.452742	0.021566	0.000374
C27	C	0.549431	0.023218	0.000059
C28	C	0.572848	0.116063	0.000060
C29	C	0.531762	0.161225	-0.078452
C30	C	0.435127	0.158925	-0.078512
C31	C	0.434767	0.160808	0.077844
C32	C	0.531713	0.160786	0.078876
C33	C	0.667546	0.117731	0.000053
C34	C	0.310591	0.111455	0.000070
C35	C	1.142152	0.108479	0.000076
C36	C	1.235102	0.110130	0.000077
C37	C	0.982924	0.267678	0.000069
C38	C	0.984556	0.360631	0.000070
N39	N	0.989049	0.114579	0.195734
N40	N	0.989094	0.114597	-0.195598
C41	C	1.046001	0.057678	0.239001
C42	C	1.046005	0.057678	0.325548
C43	C	0.989061	0.114582	0.368827
C44	C	0.932104	0.171486	0.325553
C45	C	0.932096	0.171482	0.239008
C46	C	0.932132	0.171501	0.674581
C47	C	0.932146	0.171503	0.761133
C48	C	1.046041	0.057697	0.761122
C49	C	1.046034	0.057693	0.674577
C50	C	0.989074	0.114593	0.631311
C51	C	0.989069	0.114593	0.537467
C52	C	0.989070	0.114588	0.462669
H53	H	1.118478	-0.330177	0.056349
F54	F	0.428529	-0.026273	0.073968
H55	H	0.547063	0.228491	0.083619
F56	F	0.411213	0.115886	-0.155223
H57	H	0.402865	0.226143	-0.082074
H58	H	0.545873	0.229436	-0.081370
H59	H	0.975193	-0.454330	-0.137205
F60	F	0.585842	-0.023298	-0.073750
F61	F	0.407928	0.121679	0.155629
F62	F	0.427147	-0.026049	-0.072809
F63	F	0.851851	-0.445671	0.078529
H64	H	1.092375	0.011344	0.203770
F65	F	0.568865	0.120235	-0.154827
F66	F	0.871495	0.232045	0.371613
H67	H	0.402992	0.228310	0.078376
H68	H	1.116148	-0.473875	0.056686
F69	F	0.567333	0.117626	0.154794
F70	F	0.871478	0.232042	0.192960
F71	F	1.106618	-0.002883	0.371597
F72	F	1.106644	-0.002869	0.628520
H73	H	1.115963	-0.474889	-0.055607
F74	F	1.106662	-0.002865	0.807175
H75	H	0.970356	-0.455476	0.137354
F76	F	0.871514	0.232060	0.628541
F77	F	1.129931	-0.325134	-0.073624
F78	F	0.854116	-0.446538	-0.083182
F79	F	0.871535	0.232071	0.807191
F80	F	0.856076	-0.289071	-0.082278
H81	H	0.976397	-0.310663	-0.136881
F82	F	0.988720	-0.306624	0.154798
H83	H	0.577861	-0.012282	0.056339
F84	F	0.857193	-0.287801	0.085070
