data_functionalizedCrystal
_audit_creation_method	'MofGen! by Chris Wilmer'
_symmetry_space_group_name_H-M	'P1'
_symmetry_Int_Tables_number	1
_symmetry_cell_setting	triclinic
loop_
_symmetry_equiv_pos_as_xyz
  x,y,z
_cell_length_a	21.395364
_cell_length_b	19.805405
_cell_length_c	21.395356
_cell_angle_alpha	89.970920
_cell_angle_beta	89.976411
_cell_angle_gamma	90.041362
loop_
_atom_site_label
_atom_site_type_symbol
_atom_site_fract_x
_atom_site_fract_y
_atom_site_fract_z
Zn1	Zn	0.957872	-0.269210	-0.354255
Zn2	Zn	1.207872	-0.019210	-0.104255
Zn3	Zn	1.457872	0.230790	0.145745
Zn4	Zn	1.707872	0.480790	0.395745
Zn5	Zn	0.957784	-0.382398	-0.249475
Zn6	Zn	1.207784	-0.132398	0.000525
Zn7	Zn	1.457784	0.117602	0.250525
Zn8	Zn	1.707784	0.367602	0.500525
Zn9	Zn	0.853089	-0.269258	-0.249492
Zn10	Zn	1.103089	-0.019258	0.000508
Zn11	Zn	1.353089	0.230742	0.250508
Zn12	Zn	1.603089	0.480742	0.500508
Zn13	Zn	0.853064	-0.382392	-0.354216
Zn14	Zn	1.103064	-0.132392	-0.104216
Zn15	Zn	1.353064	0.117608	0.145784
Zn16	Zn	1.603064	0.367608	0.395784
O17	O	0.905452	-0.325815	-0.301860
O18	O	1.155452	-0.075815	-0.051860
O19	O	1.405452	0.174185	0.198140
O20	O	1.655452	0.424185	0.448140
O21	O	1.045538	-0.284207	-0.340366
O22	O	1.295538	-0.034207	-0.090366
O23	O	1.545538	0.215793	0.159634
O24	O	1.795538	0.465793	0.409634
O25	O	0.943870	-0.367413	-0.161800
O26	O	1.193870	-0.117413	0.088200
O27	O	1.443870	0.132587	0.338200
O28	O	1.693870	0.382587	0.588200
O29	O	0.867036	-0.174535	-0.263413
O30	O	1.117036	0.075465	-0.013413
O31	O	1.367036	0.325465	0.236587
O32	O	1.617036	0.575465	0.486587
O33	O	1.045474	-0.367366	-0.263384
O34	O	1.295474	-0.117366	-0.013384
O35	O	1.545474	0.132634	0.236616
O36	O	1.795474	0.382634	0.486616
O37	O	0.944019	-0.174500	-0.340382
O38	O	1.194019	0.075500	-0.090382
O39	O	1.444019	0.325500	0.159618
O40	O	1.694019	0.575500	0.409618
O41	O	0.866950	-0.284289	-0.161812
O42	O	1.116950	-0.034289	0.088188
O43	O	1.366950	0.215711	0.338188
O44	O	1.616950	0.465711	0.588188
O45	O	0.765408	-0.284283	-0.263374
O46	O	1.015408	-0.034283	-0.013374
O47	O	1.265408	0.215717	0.236626
O48	O	1.515408	0.465717	0.486626
O49	O	0.866993	-0.367356	-0.441899
O50	O	1.116993	-0.117356	-0.191899
O51	O	1.366993	0.132644	0.058101
O52	O	1.616993	0.382644	0.308101
O53	O	0.765389	-0.367402	-0.340314
O54	O	1.015389	-0.117402	-0.090314
O55	O	1.265389	0.132598	0.159686
O56	O	1.515389	0.382598	0.409686
O57	O	0.943995	-0.284202	-0.441928
O58	O	1.193995	-0.034202	-0.191928
O59	O	1.443995	0.215798	0.058072
O60	O	1.693995	0.465798	0.308072
O61	O	0.943846	-0.477114	-0.263346
O62	O	1.193846	-0.227114	-0.013346
O63	O	1.443846	0.022886	0.236654
O64	O	1.693846	0.272886	0.486654
O65	O	0.866908	-0.477110	-0.340298
O66	O	1.116908	-0.227110	-0.090298
O67	O	1.366908	0.022890	0.159702
O68	O	1.616908	0.272890	0.409702
C69	C	0.742665	-0.325848	-0.301842
C70	C	0.992665	-0.075848	-0.051842
C71	C	1.242665	0.174152	0.198158
C72	C	1.492665	0.424152	0.448158
C73	C	0.673023	-0.325878	-0.301849
C74	C	0.923023	-0.075878	-0.051849
C75	C	1.173023	0.174122	0.198151
C76	C	1.423023	0.424122	0.448151
C77	C	0.640366	-0.282648	-0.341996
C78	C	0.890366	-0.032648	-0.091996
C79	C	1.140366	0.217352	0.158004
C80	C	1.390366	0.467352	0.408004
C81	C	0.574931	-0.282630	-0.341998
C82	C	0.824931	-0.032630	-0.091998
C83	C	1.074931	0.217370	0.158002
C84	C	1.324931	0.467370	0.408002
C85	C	0.542155	-0.325854	-0.301861
C86	C	0.792155	-0.075854	-0.051861
C87	C	1.042155	0.174146	0.198139
C88	C	1.292155	0.424146	0.448139
C89	C	0.574820	-0.369087	-0.261707
C90	C	0.824820	-0.119087	-0.011707
C91	C	1.074820	0.130913	0.238293
C92	C	1.324820	0.380913	0.488293
C93	C	0.640254	-0.369099	-0.261701
C94	C	0.890254	-0.119099	-0.011701
C95	C	1.140254	0.130901	0.238299
C96	C	1.390254	0.380901	0.488299
C97	C	0.438435	-0.386809	-0.296822
C98	C	0.688435	-0.136809	-0.046822
C99	C	0.938435	0.113191	0.203178
C100	C	1.188435	0.363191	0.453178
C101	C	0.373002	-0.386799	-0.296832
C102	C	0.623002	-0.136799	-0.046832
C103	C	0.873002	0.113201	0.203168
C104	C	1.123002	0.363201	0.453168
C105	C	0.340334	-0.325817	-0.301875
C106	C	0.590334	-0.075817	-0.051875
C107	C	0.840334	0.174183	0.198125
C108	C	1.090334	0.424183	0.448125
C109	C	0.373108	-0.264844	-0.306921
C110	C	0.623108	-0.014844	-0.056921
C111	C	0.873108	0.235156	0.193079
C112	C	1.123108	0.485156	0.443079
C113	C	0.438542	-0.264856	-0.306915
C114	C	0.688542	-0.014856	-0.056915
C115	C	0.938542	0.235144	0.193085
C116	C	1.188542	0.485144	0.443085
C117	C	0.471203	-0.325846	-0.301862
C118	C	0.721203	-0.075846	-0.051862
C119	C	0.971203	0.174154	0.198138
C120	C	1.221203	0.424154	0.448138
C121	C	0.236725	-0.282564	-0.342026
C122	C	0.486725	-0.032564	-0.092026
C123	C	0.736725	0.217436	0.157974
C124	C	0.986725	0.467436	0.407974
C125	C	0.171288	-0.282545	-0.342024
C126	C	0.421288	-0.032545	-0.092024
C127	C	0.671288	0.217455	0.157976
C128	C	0.921288	0.467455	0.407976
C129	C	0.171179	-0.369008	-0.261736
C130	C	0.421179	-0.119008	-0.011736
C131	C	0.671179	0.130992	0.238264
C132	C	0.921179	0.380992	0.488264
C133	C	0.236614	-0.369021	-0.261735
C134	C	0.486614	-0.119021	-0.011735
C135	C	0.736614	0.130979	0.238265
C136	C	0.986614	0.380979	0.488265
C137	C	0.269383	-0.325800	-0.301883
C138	C	0.519383	-0.075800	-0.051883
C139	C	0.769383	0.174200	0.198117
C140	C	1.019383	0.424200	0.448117
C141	C	0.905382	-0.501671	-0.301829
C142	C	1.155382	-0.251671	-0.051829
C143	C	1.405382	-0.001671	0.198171
C144	C	1.655382	0.248329	0.448171
C145	C	0.905409	-0.576903	-0.301837
C146	C	1.155409	-0.326903	-0.051837
C147	C	1.405409	-0.076903	0.198163
C148	C	1.655409	0.173097	0.448163
C149	C	0.945509	-0.612227	-0.261810
C150	C	1.195509	-0.362227	-0.011810
C151	C	1.445509	-0.112227	0.238190
C152	C	1.695509	0.137773	0.488190
C153	C	0.945536	-0.682915	-0.261824
C154	C	1.195536	-0.432915	-0.011824
C155	C	1.445536	-0.182915	0.238176
C156	C	1.695536	0.067085	0.488176
C157	C	0.905458	-0.718278	-0.301862
C158	C	1.155458	-0.468278	-0.051862
C159	C	1.405458	-0.218278	0.198138
C160	C	1.655458	0.031722	0.448138
C161	C	0.865356	-0.682949	-0.341894
C162	C	1.115356	-0.432949	-0.091894
C163	C	1.365356	-0.182949	0.158106
C164	C	1.615356	0.067051	0.408106
C165	C	0.865333	-0.612262	-0.341883
C166	C	1.115333	-0.362262	-0.091883
C167	C	1.365333	-0.112262	0.158117
C168	C	1.615333	0.137738	0.408117
C169	C	0.865449	-0.968023	-0.341940
C170	C	1.115449	-0.718023	-0.091940
C171	C	1.365449	-0.468023	0.158060
C172	C	1.615449	-0.218023	0.408060
C173	C	0.865474	-1.038715	-0.341947
C174	C	1.115474	-0.788715	-0.091947
C175	C	1.365474	-0.538715	0.158053
C176	C	1.615474	-0.288715	0.408053
C177	C	0.945651	-1.038675	-0.261882
C178	C	1.195651	-0.788675	-0.011882
C179	C	1.445651	-0.538675	0.238118
C180	C	1.695651	-0.288675	0.488118
C181	C	0.945628	-0.967988	-0.261871
C182	C	1.195628	-0.717988	-0.011871
C183	C	1.445628	-0.467988	0.238129
C184	C	1.695628	-0.217988	0.488129
C185	C	0.905529	-0.932666	-0.301904
C186	C	1.155529	-0.682666	-0.051904
C187	C	1.405529	-0.432666	0.198096
C188	C	1.655529	-0.182666	0.448096
C189	C	0.905501	-0.856017	-0.301889
C190	C	1.155501	-0.606017	-0.051889
C191	C	1.405501	-0.356017	0.198111
C192	C	1.655501	-0.106017	0.448111
C193	C	0.905482	-0.794925	-0.301874
C194	C	1.155482	-0.544925	-0.051874
C195	C	1.405482	-0.294925	0.198126
C196	C	1.655482	-0.044925	0.448126
C197	C	1.068875	-0.325782	-0.301878
C198	C	1.318875	-0.075782	-0.051878
C199	C	1.568875	0.174218	0.198122
C200	C	1.818875	0.424218	0.448122
C201	C	1.138517	-0.325768	-0.301885
C202	C	1.388517	-0.075768	-0.051885
C203	C	1.638517	0.174232	0.198115
C204	C	1.888517	0.424232	0.448115
C205	C	0.905501	-0.325773	-0.465283
C206	C	1.155501	-0.075773	-0.215283
C207	C	1.405501	0.174227	0.034717
C208	C	1.655501	0.424227	0.284717
C209	C	0.905522	-0.325755	-0.534924
C210	C	1.155522	-0.075755	-0.284924
C211	C	1.405522	0.174245	-0.034924
C212	C	1.655522	0.424245	0.215076
C213	C	0.905540	-0.149272	-0.301904
C214	C	1.155540	0.100728	-0.051904
C215	C	1.405540	0.350728	0.198096
C216	C	1.655540	0.600728	0.448096
C217	C	0.905577	-0.074040	-0.301923
C218	C	1.155577	0.175960	-0.051923
C219	C	1.405577	0.425960	0.198077
C220	C	1.655577	0.675960	0.448077
C221	C	0.865481	-0.282468	-0.567634
C222	C	1.115481	-0.032468	-0.317634
C223	C	1.365481	0.217532	-0.067634
C224	C	1.615481	0.467532	0.182366
C225	C	0.865479	-0.282455	-0.633069
C226	C	1.115479	-0.032455	-0.383069
C227	C	1.365479	0.217545	-0.133069
C228	C	1.615479	0.467545	0.116931
C229	C	0.905529	-0.325723	-0.665793
C230	C	1.155529	-0.075723	-0.415793
C231	C	1.405529	0.174277	-0.165793
C232	C	1.655529	0.424277	0.084207
C233	C	0.945573	-0.369018	-0.633075
C234	C	1.195573	-0.119018	-0.383075
C235	C	1.445573	0.130982	-0.133075
C236	C	1.695573	0.380982	0.116925
C237	C	0.945570	-0.369035	-0.567641
C238	C	1.195570	-0.119035	-0.317641
C239	C	1.445570	0.130965	-0.067641
C240	C	1.695570	0.380965	0.182359
C241	C	0.961982	-0.331028	-0.769479
C242	C	1.211982	-0.081028	-0.519479
C243	C	1.461982	0.168972	-0.269479
C244	C	1.711982	0.418972	-0.019479
C245	C	0.961986	-0.331007	-0.834912
C246	C	1.211986	-0.081007	-0.584912
C247	C	1.461986	0.168993	-0.334912
C248	C	1.711986	0.418993	-0.084912
C249	C	0.905540	-0.325677	-0.867614
C250	C	1.155540	-0.075677	-0.617614
C251	C	1.405540	0.174323	-0.367614
C252	C	1.655540	0.424323	-0.117614
C253	C	0.849087	-0.320353	-0.834874
C254	C	1.099087	-0.070353	-0.584874
C255	C	1.349087	0.179647	-0.334874
C256	C	1.599087	0.429647	-0.084874
C257	C	0.849083	-0.320369	-0.769440
C258	C	1.099083	-0.070369	-0.519440
C259	C	1.349083	0.179631	-0.269440
C260	C	1.599083	0.429631	-0.019440
C261	C	0.905537	-0.325710	-0.736745
C262	C	1.155537	-0.075710	-0.486745
C263	C	1.405537	0.174290	-0.236745
C264	C	1.655537	0.424290	0.013255
C265	C	0.865493	-0.282374	-0.971276
C266	C	1.115493	-0.032374	-0.721276
C267	C	1.365493	0.217626	-0.471276
C268	C	1.615493	0.467626	-0.221276
C269	C	0.865490	-0.282366	-1.036712
C270	C	1.115490	-0.032366	-0.786712
C271	C	1.365490	0.217634	-0.536712
C272	C	1.615490	0.467634	-0.286712
C273	C	0.945589	-0.368926	-1.036717
C274	C	1.195589	-0.118926	-0.786717
C275	C	1.445589	0.131074	-0.536717
C276	C	1.695589	0.381074	-0.286717
C277	C	0.945587	-0.368937	-0.971281
C278	C	1.195587	-0.118937	-0.721281
C279	C	1.445587	0.131063	-0.471281
C280	C	1.695587	0.381063	-0.221281
C281	C	0.905540	-0.325658	-0.938565
C282	C	1.155540	-0.075658	-0.688565
C283	C	1.405540	0.174342	-0.438565
C284	C	1.655540	0.424342	-0.188565
C285	C	0.905439	-0.325808	-0.139072
C286	C	1.155439	-0.075808	0.110928
C287	C	1.405439	0.174192	0.360928
C288	C	1.655439	0.424192	0.610928
C289	C	0.905540	-0.325635	-0.069431
C290	C	1.155540	-0.075635	0.180569
C291	C	1.405540	0.174365	0.430569
C292	C	1.655540	0.424365	0.680569
H293	H	0.548336	-0.247424	-0.374689
H294	H	0.798336	0.002576	-0.124689
H295	H	1.048336	0.252576	0.125311
H296	H	1.298336	0.502576	0.375311
N297	N	0.988735	-0.574084	-0.218627
N298	N	1.238735	-0.324084	0.031373
N299	N	1.488735	-0.074084	0.281373
N300	N	1.738735	0.175916	0.531373
H301	H	0.979033	-0.586430	-0.173853
H302	H	1.229033	-0.336430	0.076147
H303	H	1.479033	-0.086430	0.326147
H304	H	1.729033	0.163570	0.576147
H305	H	1.033483	-0.586342	-0.228457
H306	H	1.283483	-0.336342	0.021543
H307	H	1.533483	-0.086342	0.271543
H308	H	1.783483	0.163658	0.521543
H309	H	0.978260	-0.939198	-0.229266
H310	H	1.228260	-0.689198	0.020734
H311	H	1.478260	-0.439198	0.270734
H312	H	1.728260	-0.189198	0.520734
H313	H	0.978194	-0.404185	-0.944649
H314	H	1.228194	-0.154185	-0.694649
H315	H	1.478194	0.095815	-0.444649
H316	H	1.728194	0.345815	-0.194649
H317	H	0.803118	-0.316036	-0.742786
H318	H	1.053118	-0.066036	-0.492786
H319	H	1.303118	0.183964	-0.242786
H320	H	1.553118	0.433964	0.007214
H321	H	0.978179	-0.404284	-0.541009
H322	H	1.228179	-0.154284	-0.291009
H323	H	1.478179	0.095716	-0.041009
H324	H	1.728179	0.345716	0.208991
H325	H	0.667043	-0.247454	-0.374687
H326	H	0.917043	0.002546	-0.124687
H327	H	1.167043	0.252546	0.125313
H328	H	1.417043	0.502546	0.375313
N329	N	0.473664	-0.452588	-0.291382
N330	N	0.723664	-0.202588	-0.041382
N331	N	0.973664	0.047412	0.208618
N332	N	1.223664	0.297412	0.458618
H333	H	0.520089	-0.443345	-0.292140
H334	H	0.770089	-0.193345	-0.042140
H335	H	1.020089	0.056655	0.207860
H336	H	1.270089	0.306655	0.457860
H337	H	0.462186	-0.475527	-0.250796
H338	H	0.712186	-0.225527	-0.000796
H339	H	0.962186	0.024473	0.249204
H340	H	1.212186	0.274473	0.499204
H341	H	0.548130	-0.404280	-0.229026
H342	H	0.798130	-0.154280	0.020974
H343	H	1.048130	0.095720	0.270974
H344	H	1.298130	0.345720	0.520974
H345	H	0.832883	-0.247133	-0.944636
H346	H	1.082883	0.002867	-0.694636
H347	H	1.332883	0.252867	-0.444636
H348	H	1.582883	0.502867	-0.194636
H349	H	0.666843	-0.404303	-0.229008
H350	H	0.916843	-0.154303	0.020992
H351	H	1.166843	0.095697	0.270992
H352	H	1.416843	0.345697	0.520992
N353	N	1.022871	-0.336748	-0.870221
N354	N	1.272871	-0.086748	-0.620221
N355	N	1.522871	0.163252	-0.370221
N356	N	1.772871	0.413252	-0.120221
H357	H	1.058628	-0.340138	-0.839577
H358	H	1.308628	-0.090138	-0.589577
H359	H	1.558628	0.159862	-0.339577
H360	H	1.808628	0.409862	-0.089577
H361	H	1.021944	-0.378447	-0.897359
H362	H	1.271944	-0.128447	-0.647359
H363	H	1.521944	0.121553	-0.397359
H364	H	1.771944	0.371553	-0.147359
H365	H	0.465223	-0.215210	-0.311021
H366	H	0.715223	0.034790	-0.061021
H367	H	0.965223	0.284790	0.188979
H368	H	1.215223	0.534790	0.438979
H369	H	0.803123	-0.316008	-0.861498
H370	H	1.053123	-0.066008	-0.611498
H371	H	1.303123	0.183992	-0.361498
H372	H	1.553123	0.433992	-0.111498
N373	N	0.988901	-1.076773	-0.218699
N374	N	1.238901	-0.826773	0.031301
N375	N	1.488901	-0.576773	0.281301
N376	N	1.738901	-0.326773	0.531301
H377	H	0.982838	-1.126920	-0.224780
H378	H	1.232838	-0.876920	0.025220
H379	H	1.482838	-0.626920	0.275220
H380	H	1.732838	-0.376920	0.525220
H381	H	1.033641	-1.064358	-0.228484
H382	H	1.283641	-0.814358	0.021516
H383	H	1.533641	-0.564358	0.271516
H384	H	1.783641	-0.314358	0.521516
H385	H	0.832681	-0.583502	-0.374477
H386	H	1.082681	-0.333502	-0.124477
H387	H	1.332681	-0.083502	0.125523
H388	H	1.582681	0.166498	0.375523
H389	H	0.346511	-0.215187	-0.311027
H390	H	0.596511	0.034813	-0.061027
H391	H	0.846511	0.284813	0.188973
H392	H	1.096511	0.534813	0.438973
N393	N	0.272072	-0.235956	-0.385333
N394	N	0.522072	0.014044	-0.135333
N395	N	0.772072	0.264044	0.114667
N396	N	1.022072	0.514044	0.364667
H397	H	0.318480	-0.242532	-0.379246
H398	H	0.568480	0.007468	-0.129246
H399	H	0.818480	0.257468	0.120754
H400	H	1.068480	0.507468	0.370754
H401	H	0.260637	-0.246568	-0.430058
H402	H	0.510637	0.003432	-0.180058
H403	H	0.760637	0.253432	0.069942
H404	H	1.010637	0.503432	0.319942
H405	H	0.144700	-0.247338	-0.374715
H406	H	0.394700	0.002662	-0.124715
H407	H	0.644700	0.252662	0.125285
H408	H	0.894700	0.502662	0.375285
N409	N	0.271842	-0.415648	-0.218434
N410	N	0.521842	-0.165648	0.031566
N411	N	0.771842	0.084352	0.281566
N412	N	1.021842	0.334352	0.531566
H413	H	0.241152	-0.443028	-0.193007
H414	H	0.491152	-0.193028	0.056993
H415	H	0.741152	0.056972	0.306993
H416	H	0.991152	0.306972	0.556993
H417	H	0.298979	-0.447013	-0.243882
H418	H	0.548979	-0.197013	0.006118
H419	H	0.798979	0.052987	0.256118
H420	H	1.048979	0.302987	0.506118
H421	H	0.978189	-0.711673	-0.229230
H422	H	1.228189	-0.461673	0.020770
H423	H	1.478189	-0.211673	0.270770
H424	H	1.728189	0.038327	0.520770
H425	H	0.144493	-0.404201	-0.229055
H426	H	0.394493	-0.154201	0.020945
H427	H	0.644493	0.095799	0.270945
H428	H	0.894493	0.345799	0.520945
N429	N	0.337655	-0.452557	-0.291388
N430	N	0.587655	-0.202557	-0.041388
N431	N	0.837655	0.047443	0.208612
N432	N	1.087655	0.297443	0.458612
H433	H	0.349037	-0.482907	-0.327559
H434	H	0.599037	-0.232907	-0.077559
H435	H	0.849037	0.017093	0.172441
H436	H	1.099037	0.267093	0.422441
H437	H	0.349018	-0.475469	-0.250774
H438	H	0.599018	-0.225469	-0.000774
H439	H	0.849018	0.024531	0.249226
H440	H	1.099018	0.274531	0.499226
N441	N	0.822244	-1.076859	-0.385131
N442	N	1.072244	-0.826859	-0.135131
N443	N	1.322244	-0.576859	0.114869
N444	N	1.572244	-0.326859	0.364869
H445	H	0.796838	-1.043757	-0.410492
H446	H	1.046838	-0.793757	-0.160492
H447	H	1.296838	-0.543757	0.089508
H448	H	1.546838	-0.293757	0.339508
H449	H	0.847745	-1.106140	-0.414150
H450	H	1.097745	-0.856140	-0.164150
H451	H	1.347745	-0.606140	0.085850
H452	H	1.597745	-0.356140	0.335850
H453	H	0.832797	-0.939268	-0.374536
H454	H	1.082797	-0.689268	-0.124536
H455	H	1.332797	-0.439268	0.125464
H456	H	1.582797	-0.189268	0.375464
H457	H	0.832728	-0.711748	-0.374496
H458	H	1.082728	-0.461748	-0.124496
H459	H	1.332728	-0.211748	0.125504
H460	H	1.582728	0.038252	0.375504
H461	H	0.832879	-0.247118	-1.063344
H462	H	1.082879	0.002882	-0.813344
H463	H	1.332879	0.252882	-0.563344
H464	H	1.582879	0.502882	-0.313344
H465	H	0.832869	-0.247228	-0.541000
H466	H	1.082869	0.002772	-0.291000
H467	H	1.332869	0.252772	-0.041000
H468	H	1.582869	0.502772	0.209000
N469	N	0.822290	-0.235766	-0.668360
N470	N	1.072290	0.014234	-0.418360
N471	N	1.322290	0.264234	-0.168360
N472	N	1.572290	0.514234	0.081640
H473	H	0.796919	-0.208352	-0.637705
H474	H	1.046919	0.041648	-0.387705
H475	H	1.296919	0.291648	-0.137705
H476	H	1.546919	0.541648	0.112295
H477	H	0.847816	-0.204435	-0.695525
H478	H	1.097816	0.045565	-0.445525
H479	H	1.347816	0.295565	-0.195525
H480	H	1.597816	0.545565	0.054475
H481	H	0.978200	-0.404154	-1.063360
H482	H	1.228200	-0.154154	-0.813360
H483	H	1.478200	0.095846	-0.563360
H484	H	1.728200	0.345846	-0.313360
N485	N	1.022866	-0.336790	-0.734210
N486	N	1.272866	-0.086790	-0.484210
N487	N	1.522866	0.163210	-0.234210
N488	N	1.772866	0.413210	0.015790
H489	H	1.058628	-0.340157	-0.764878
H490	H	1.308628	-0.090157	-0.514878
H491	H	1.558628	0.159843	-0.264878
H492	H	1.808628	0.409843	-0.014878
H493	H	1.028708	-0.295559	-0.707071
H494	H	1.278708	-0.045559	-0.457071
H495	H	1.528708	0.204441	-0.207071
H496	H	1.778708	0.454441	0.042929
N497	N	0.988766	-0.415692	-0.668365
N498	N	1.238766	-0.165692	-0.418365
N499	N	1.488766	0.084308	-0.168365
N500	N	1.738766	0.334308	0.081635
H501	H	0.982693	-0.409114	-0.714781
H502	H	1.232693	-0.159114	-0.464781
H503	H	1.482693	0.090886	-0.214781
H504	H	1.732693	0.340886	0.035219
H505	H	1.033519	-0.405157	-0.656946
H506	H	1.283519	-0.155157	-0.406946
H507	H	1.533519	0.094843	-0.156946
H508	H	1.783519	0.344843	0.093054
