data_functionalizedCrystal
_audit_creation_method	'MofGen! by Chris Wilmer'
_symmetry_space_group_name_H-M	'P1'
_symmetry_Int_Tables_number	1
_symmetry_cell_setting	triclinic
loop_
_symmetry_equiv_pos_as_xyz
  x,y,z
_cell_length_a	19.805407
_cell_length_b	16.625546
_cell_length_c	19.805399
_cell_angle_alpha	89.972133
_cell_angle_beta	89.980427
_cell_angle_gamma	90.022468
loop_
_atom_site_label
_atom_site_type_symbol
_atom_site_fract_x
_atom_site_fract_y
_atom_site_fract_z
Zn1	Zn	1.034754	-0.321020	-0.382718
Zn2	Zn	1.368088	0.012313	-0.049385
Zn3	Zn	1.701421	0.345646	0.283948
Zn4	Zn	1.034677	-0.455857	-0.269529
Zn5	Zn	1.368010	-0.122524	0.063804
Zn6	Zn	1.701344	0.210809	0.397137
Zn7	Zn	0.921569	-0.321043	-0.269543
Zn8	Zn	1.254902	0.012291	0.063790
Zn9	Zn	1.588236	0.345624	0.397124
Zn10	Zn	0.921540	-0.455815	-0.382676
Zn11	Zn	1.254873	-0.122481	-0.049343
Zn12	Zn	1.588207	0.210852	0.283990
O13	O	0.978135	-0.388434	-0.326117
O14	O	1.311468	-0.055100	0.007217
O15	O	1.644802	0.278233	0.340550
O16	O	1.129461	-0.338915	-0.367716
O17	O	1.462794	-0.005582	-0.034382
O18	O	1.796127	0.327751	0.298951
O19	O	1.019652	-0.438001	-0.174815
O20	O	1.352986	-0.104668	0.158519
O21	O	1.686319	0.228665	0.491852
O22	O	0.936628	-0.208207	-0.284579
O23	O	1.269961	0.125126	0.048754
O24	O	1.603294	0.458459	0.382088
O25	O	1.129404	-0.437980	-0.284556
O26	O	1.462737	-0.104646	0.048777
O27	O	1.796070	0.228687	0.382110
O28	O	1.019784	-0.208191	-0.367729
O29	O	1.353118	0.125142	-0.034395
O30	O	1.686451	0.458476	0.298938
O31	O	0.936553	-0.338953	-0.174825
O32	O	1.269886	-0.005620	0.158509
O33	O	1.603219	0.327713	0.491842
O34	O	0.826848	-0.338912	-0.284538
O35	O	1.160182	-0.005578	0.048795
O36	O	1.493515	0.327755	0.382128
O37	O	0.936579	-0.437907	-0.477398
O38	O	1.269912	-0.104573	-0.144065
O39	O	1.603245	0.228760	0.189268
O40	O	0.826827	-0.437928	-0.367657
O41	O	1.160161	-0.104595	-0.034324
O42	O	1.493494	0.228738	0.299010
O43	O	1.019756	-0.338874	-0.477429
O44	O	1.353090	-0.005540	-0.144096
O45	O	1.686423	0.327793	0.189237
O46	O	1.019625	-0.568684	-0.284515
O47	O	1.352958	-0.235351	0.048818
O48	O	1.686291	0.097982	0.382151
O49	O	0.936504	-0.568653	-0.367644
O50	O	1.269837	-0.235319	-0.034311
O51	O	1.603170	0.098014	0.299023
C52	C	0.802279	-0.388418	-0.326095
C53	C	1.135612	-0.055085	0.007238
C54	C	1.468946	0.278248	0.340572
C55	C	0.727047	-0.388431	-0.326102
C56	C	1.060380	-0.055098	0.007232
C57	C	1.393714	0.278236	0.340565
C58	C	0.978071	-0.597925	-0.326088
C59	C	1.311404	-0.264591	0.007245
C60	C	1.644738	0.068742	0.340578
C61	C	0.978105	-0.687546	-0.326099
C62	C	1.311439	-0.354212	0.007234
C63	C	1.644772	-0.020879	0.340568
C64	C	0.691710	-0.440067	-0.369311
C65	C	1.025043	-0.106733	-0.035978
C66	C	1.358376	0.226600	0.297355
C67	C	0.621021	-0.440068	-0.369321
C68	C	0.954354	-0.106735	-0.035988
C69	C	1.287688	0.226599	0.297346
C70	C	0.585671	-0.388437	-0.326117
C71	C	0.919005	-0.055104	0.007217
C72	C	1.252338	0.278229	0.340550
C73	C	0.621014	-0.336796	-0.282905
C74	C	0.954347	-0.003463	0.050428
C75	C	1.287680	0.329870	0.383762
C76	C	0.691701	-0.336791	-0.282899
C77	C	1.025034	-0.003458	0.050434
C78	C	1.358368	0.329875	0.383767
C79	C	0.335941	-0.336814	-0.282927
C80	C	0.669274	-0.003481	0.050406
C81	C	1.002607	0.329853	0.383739
C82	C	0.265248	-0.336825	-0.282935
C83	C	0.598582	-0.003491	0.050398
C84	C	0.931915	0.329842	0.383732
C85	C	0.265261	-0.440091	-0.369349
C86	C	0.598594	-0.106757	-0.036016
C87	C	0.931927	0.226576	0.297318
C88	C	0.335948	-0.440086	-0.369343
C89	C	0.669281	-0.106753	-0.036010
C90	C	1.002615	0.226581	0.297323
C91	C	0.371284	-0.388442	-0.326134
C92	C	0.704617	-0.055109	0.007199
C93	C	1.037951	0.278225	0.340532
C94	C	0.447932	-0.388440	-0.326125
C95	C	0.781266	-0.055107	0.007208
C96	C	1.114599	0.278227	0.340541
C97	C	0.509024	-0.388443	-0.326122
C98	C	0.842358	-0.055110	0.007212
C99	C	1.175691	0.278224	0.340545
C100	C	0.978224	-1.015721	-0.326169
C101	C	1.311557	-0.682388	0.007164
C102	C	1.644890	-0.349055	0.340497
C103	C	0.978189	-0.924413	-0.326152
C104	C	1.311522	-0.591079	0.007182
C105	C	1.644855	-0.257746	0.340515
C106	C	0.978164	-0.851636	-0.326134
C107	C	1.311497	-0.518303	0.007200
C108	C	1.644831	-0.184970	0.340533
C109	C	0.978130	-0.760322	-0.326117
C110	C	1.311463	-0.426989	0.007217
C111	C	1.644797	-0.093655	0.340550
C112	C	1.154678	-0.388450	-0.326139
C113	C	1.488011	-0.055116	0.007194
C114	C	1.821344	0.278217	0.340528
C115	C	1.229910	-0.388457	-0.326149
C116	C	1.563243	-0.055123	0.007185
C117	C	1.896576	0.278210	0.340518
C118	C	0.978173	-0.388383	-0.502660
C119	C	1.311506	-0.055050	-0.169326
C120	C	1.644840	0.278284	0.164007
C121	C	0.978189	-0.388361	-0.577892
C122	C	1.311522	-0.055028	-0.244558
C123	C	1.644856	0.278305	0.088775
C124	C	0.978218	-0.178125	-0.326160
C125	C	1.311551	0.155209	0.007173
C126	C	1.644884	0.488542	0.340507
C127	C	0.978253	-0.088504	-0.326178
C128	C	1.311586	0.244830	0.007155
C129	C	1.644920	0.578163	0.340488
C130	C	1.021501	-0.336792	-0.613253
C131	C	1.354834	-0.003459	-0.279920
C132	C	1.688168	0.329874	0.053414
C133	C	1.021508	-0.336769	-0.683941
C134	C	1.354841	-0.003436	-0.350608
C135	C	1.688174	0.329898	-0.017275
C136	C	0.978206	-0.388319	-0.719267
C137	C	1.311539	-0.054986	-0.385934
C138	C	1.644873	0.278347	-0.052601
C139	C	0.934889	-0.439890	-0.683901
C140	C	1.268223	-0.106557	-0.350568
C141	C	1.601556	0.226776	-0.017234
C142	C	0.934880	-0.439909	-0.613214
C143	C	1.268213	-0.106576	-0.279880
C144	C	1.601546	0.226758	0.053453
C145	C	0.934928	-0.439815	-0.968974
C146	C	1.268261	-0.106482	-0.635641
C147	C	1.601594	0.226851	-0.302308
C148	C	0.934942	-0.439794	-1.039667
C149	C	1.268276	-0.106461	-0.706333
C150	C	1.601609	0.226872	-0.373000
C151	C	1.021556	-0.336675	-1.039702
C152	C	1.354889	-0.003342	-0.706369
C153	C	1.688223	0.329992	-0.373035
C154	C	1.021546	-0.336694	-0.969015
C155	C	1.354879	-0.003360	-0.635681
C156	C	1.688213	0.329973	-0.302348
C157	C	0.978227	-0.388262	-0.933655
C158	C	1.311561	-0.054928	-0.600321
C159	C	1.644894	0.278405	-0.266988
C160	C	0.978219	-0.388285	-0.857006
C161	C	1.311553	-0.054952	-0.523673
C162	C	1.644886	0.278381	-0.190340
C163	C	0.978217	-0.388300	-0.795914
C164	C	1.311550	-0.054967	-0.462581
C165	C	1.644883	0.278366	-0.129248
C166	C	0.978136	-0.388426	-0.150261
C167	C	1.311469	-0.055093	0.183073
C168	C	1.644803	0.278241	0.516406
C169	C	0.978251	-0.388221	-0.075029
C170	C	1.311584	-0.054887	0.258304
C171	C	1.644918	0.278446	0.591638
H172	H	0.720486	-0.482113	-0.404491
H173	H	1.053820	-0.148780	-0.071158
H174	H	1.387153	0.184554	0.262176
H175	H	0.899678	-0.481774	-1.068427
H176	H	1.233011	-0.148441	-0.735094
H177	H	1.566345	0.184892	-0.401760
H178	H	1.056826	-0.294683	-1.068501
H179	H	1.390159	0.038650	-0.735167
H180	H	1.723492	0.371983	-0.401834
C181	C	1.069175	-0.279989	-0.930157
C182	C	1.402509	0.053344	-0.596823
C183	C	1.735842	0.386678	-0.263490
H184	H	1.062969	-0.287391	-0.882994
H185	H	1.396303	0.045943	-0.549660
H186	H	1.729636	0.379276	-0.216327
H187	H	1.059293	-0.225810	-0.941751
H188	H	1.392626	0.107523	-0.608418
H189	H	1.725959	0.440856	-0.275085
H190	H	1.114653	-0.291794	-0.941746
H191	H	1.447986	0.041539	-0.608413
H192	H	1.781319	0.374872	-0.275080
H193	H	0.899630	-0.481861	-0.712669
H194	H	1.232963	-0.148527	-0.379336
H195	H	1.566297	0.184806	-0.046002
C196	C	0.374802	-0.280022	-0.235388
C197	C	0.708135	0.053311	0.097945
C198	C	1.041468	0.386644	0.431279
H199	H	0.343623	-0.249285	-0.209652
H200	H	0.676956	0.084049	0.123681
H201	H	1.010289	0.417382	0.457015
H202	H	0.402401	-0.244924	-0.261321
H203	H	0.735734	0.088410	0.072012
H204	H	1.069067	0.421743	0.405345
H205	H	0.402351	-0.310830	-0.205847
H206	H	0.735685	0.022504	0.127486
H207	H	1.069018	0.355837	0.460819
C208	C	0.582153	-0.496916	-0.416810
C209	C	0.915486	-0.163583	-0.083477
C210	C	1.248819	0.169750	0.249857
H211	H	0.613330	-0.527686	-0.442522
H212	H	0.946663	-0.194353	-0.109188
H213	H	1.279996	0.138981	0.224145
H214	H	0.554579	-0.466168	-0.446366
H215	H	0.887912	-0.132835	-0.113033
H216	H	1.221246	0.200498	0.220301
H217	H	0.554577	-0.531994	-0.390825
H218	H	0.887911	-0.198661	-0.057492
H219	H	1.221244	0.134672	0.275842
H220	H	0.236481	-0.482139	-0.404534
H221	H	0.569815	-0.148805	-0.071201
H222	H	0.903148	0.184528	0.262132
H223	H	0.899665	-0.481817	-0.940193
H224	H	1.232998	-0.148483	-0.606859
H225	H	1.566332	0.184850	-0.273526
H226	H	0.236469	-0.294776	-0.247753
H227	H	0.569802	0.038558	0.085581
H228	H	0.903135	0.371891	0.418914
C229	C	0.582131	-0.280006	-0.235379
C230	C	0.915464	0.053327	0.097954
C231	C	1.248798	0.386660	0.431287
H232	H	0.534971	-0.287410	-0.241565
H233	H	0.868304	0.045923	0.091769
H234	H	1.201638	0.379257	0.425102
H235	H	0.593733	-0.225845	-0.245363
H236	H	0.927066	0.107489	0.087971
H237	H	1.260399	0.440822	0.421304
H238	H	0.593696	-0.291743	-0.189882
H239	H	0.927029	0.041591	0.143451
H240	H	1.260363	0.374924	0.476785
C241	C	0.374829	-0.496877	-0.416870
C242	C	0.708162	-0.163543	-0.083536
C243	C	1.041496	0.169790	0.249797
H244	H	0.343659	-0.527624	-0.442611
H245	H	0.676992	-0.194291	-0.109277
H246	H	1.010325	0.139042	0.224056
H247	H	0.402386	-0.531966	-0.390926
H248	H	0.735719	-0.198633	-0.057592
H249	H	1.069052	0.134701	0.275741
H250	H	0.402422	-0.466068	-0.446406
H251	H	0.735756	-0.132734	-0.113073
H252	H	1.069089	0.200599	0.220260
H253	H	1.056778	-0.294778	-0.712729
H254	H	1.390111	0.038555	-0.379396
H255	H	1.723445	0.371888	-0.046063
C256	C	0.887254	-0.496655	-0.574316
C257	C	1.220587	-0.163321	-0.240983
C258	C	1.553920	0.170012	0.092350
H259	H	0.861475	-0.527364	-0.605478
H260	H	1.194808	-0.194031	-0.272144
H261	H	1.528141	0.139302	0.061189
H262	H	0.857766	-0.465832	-0.546734
H263	H	1.191100	-0.132499	-0.213401
H264	H	1.524433	0.200834	0.119933
H265	H	0.913145	-0.531794	-0.546747
H266	H	1.246479	-0.198460	-0.213414
H267	H	1.579812	0.134873	0.119920
H268	H	0.720472	-0.294740	-0.247717
H269	H	1.053805	0.038593	0.085616
H270	H	1.387138	0.371926	0.418950
H271	H	1.056764	-0.294817	-0.584496
H272	H	1.390098	0.038517	-0.251162
H273	H	1.723431	0.371850	0.082171
