data_functionalizedCrystal
_audit_creation_method	'MofGen! by Chris Wilmer'
_symmetry_space_group_name_H-M	'P1'
_symmetry_Int_Tables_number	1
_symmetry_cell_setting	triclinic
loop_
_symmetry_equiv_pos_as_xyz
  x,y,z
_cell_length_a	13.032831
_cell_length_b	18.215405
_cell_length_c	18.215399
_cell_angle_alpha	90.030551
_cell_angle_beta	82.809197
_cell_angle_gamma	97.170997
loop_
_atom_site_label
_atom_site_type_symbol
_atom_site_fract_x
_atom_site_fract_y
_atom_site_fract_z
Zn1	Zn	1.597611	0.436094	-0.558719
Zn2	Zn	1.930944	0.769428	-0.225386
Zn3	Zn	2.264278	1.102761	0.107948
Zn4	Zn	1.597481	0.559154	-0.435635
Zn5	Zn	1.930814	0.892487	-0.102302
Zn6	Zn	2.264148	1.225821	0.231031
Zn7	Zn	1.422854	0.420464	-0.420066
Zn8	Zn	1.756188	0.753797	-0.086733
Zn9	Zn	2.089521	1.087131	0.246601
Zn10	Zn	1.422806	0.543466	-0.543067
Zn11	Zn	1.756139	0.876799	-0.209734
Zn12	Zn	2.089473	1.210133	0.123599
O13	O	1.510188	0.489795	-0.489372
O14	O	1.843521	0.823128	-0.156039
O15	O	2.176855	1.156461	0.177295
O16	O	1.743832	0.465525	-0.555458
O17	O	2.077166	0.798859	-0.222124
O18	O	2.410499	1.132192	0.111209
O19	O	1.574282	0.540781	-0.330583
O20	O	1.907616	0.874114	0.002751
O21	O	2.240949	1.207447	0.336084
O22	O	1.446111	0.319560	-0.438493
O23	O	1.779444	0.652893	-0.105160
O24	O	2.112778	0.986227	0.228174
O25	O	1.743737	0.555937	-0.465029
O26	O	2.077070	0.889270	-0.131695
O27	O	2.410403	1.222603	0.201638
O28	O	1.574504	0.331043	-0.540361
O29	O	1.907837	0.664377	-0.207027
O30	O	2.241171	0.997710	0.126306
O31	O	1.445985	0.438886	-0.319144
O32	O	1.779318	0.772219	0.014189
O33	O	2.112651	1.105552	0.347523
O34	O	1.276609	0.423674	-0.423316
O35	O	1.609943	0.757007	-0.089983
O36	O	1.943276	1.090340	0.243350
O37	O	1.446028	0.529199	-0.648131
O38	O	1.779362	0.862532	-0.314798
O39	O	2.112695	1.195865	0.018536
O40	O	1.276574	0.514043	-0.513685
O41	O	1.609907	0.847376	-0.180352
O42	O	1.943240	1.180709	0.152982
O43	O	1.574457	0.450313	-0.659630
O44	O	1.907790	0.783647	-0.326297
O45	O	2.241124	1.116980	0.007037
O46	O	1.574235	0.660051	-0.449852
O47	O	1.907569	0.993384	-0.116519
O48	O	2.240902	1.326717	0.216815
O49	O	1.445902	0.648525	-0.528782
O50	O	1.779235	0.981858	-0.195449
O51	O	2.112569	1.315191	0.137885
C52	C	1.238674	0.465460	-0.465113
C53	C	1.572007	0.798794	-0.131780
C54	C	1.905340	1.132127	0.201554
C55	C	1.122519	0.455068	-0.454753
C56	C	1.455852	0.788401	-0.121419
C57	C	1.789185	1.121734	0.211914
C58	C	1.510252	0.489750	-0.681331
C59	C	1.843585	0.823083	-0.347997
C60	C	2.176918	1.156416	-0.014664
C61	C	1.510279	0.489730	-0.763132
C62	C	1.843612	0.823064	-0.429799
C63	C	2.176945	1.156397	-0.096465
C64	C	1.510078	0.680991	-0.489327
C65	C	1.843411	1.014324	-0.155993
C66	C	2.176744	1.347658	0.177340
C67	C	1.510126	0.762794	-0.489340
C68	C	1.843459	1.096128	-0.156007
C69	C	2.176793	1.429461	0.177326
C70	C	1.070743	0.495219	-0.494779
C71	C	1.404076	0.828552	-0.161446
C72	C	1.737410	1.161885	0.171888
C73	C	0.950691	0.484478	-0.484072
C74	C	1.284024	0.817812	-0.150739
C75	C	1.617357	1.151145	0.182595
C76	C	1.782763	0.514225	-0.513726
C77	C	2.116096	0.847558	-0.180393
C78	C	2.449429	1.180891	0.152941
C79	C	1.898918	0.524635	-0.524104
C80	C	2.232251	0.857968	-0.190771
C81	C	2.565584	1.191302	0.142563
C82	C	1.510327	0.297854	-0.489436
C83	C	1.843661	0.631187	-0.156103
C84	C	2.176994	0.964521	0.177231
C85	C	1.510387	0.216061	-0.489463
C86	C	1.843720	0.549394	-0.156130
C87	C	2.177053	0.882727	0.177203
C88	C	1.577106	0.956979	-0.448342
C89	C	1.910439	1.290313	-0.115009
C90	C	2.243773	1.623646	0.218324
C91	C	1.577153	1.033842	-0.448364
C92	C	1.910486	1.367176	-0.115031
C93	C	2.243819	1.700509	0.218302
C94	C	1.443404	1.021870	-0.530466
C95	C	1.776737	1.355203	-0.197133
C96	C	2.110070	1.688536	0.136200
C97	C	1.443363	0.945009	-0.530448
C98	C	1.776696	1.278342	-0.197115
C99	C	2.110030	1.611676	0.136219
C100	C	1.510213	0.912565	-0.489382
C101	C	1.843546	1.245899	-0.156048
C102	C	2.176879	1.579232	0.177285
C103	C	1.510300	1.066289	-0.489422
C104	C	1.843633	1.399623	-0.156089
C105	C	2.176967	1.732956	0.177245
C106	C	1.510350	1.149627	-0.489446
C107	C	1.843684	1.482961	-0.156113
C108	C	2.177017	1.816294	0.177221
C109	C	1.510164	0.829222	-0.489358
C110	C	1.843497	1.162555	-0.156025
C111	C	2.176831	1.495889	0.177308
C112	C	1.577176	0.448613	-0.957317
C113	C	1.910509	0.781946	-0.623984
C114	C	2.243842	1.115280	-0.290650
C115	C	1.577188	0.448593	-1.034177
C116	C	1.910521	0.781926	-0.700843
C117	C	2.243855	1.115259	-0.367510
C118	C	1.443456	0.530741	-1.022192
C119	C	1.776789	0.864074	-0.688858
C120	C	2.110123	1.197407	-0.355525
C121	C	1.443439	0.530756	-0.945333
C122	C	1.776772	0.864090	-0.611999
C123	C	2.110106	1.197423	-0.278666
C124	C	1.510305	0.489694	-0.912898
C125	C	1.843638	0.823027	-0.579565
C126	C	2.176971	1.156361	-0.246231
C127	C	1.510334	0.489658	-1.066617
C128	C	1.843668	0.822991	-0.733283
C129	C	2.177001	1.156325	-0.399950
C130	C	1.510347	0.489636	-1.149952
C131	C	1.843681	0.822970	-0.816618
C132	C	2.177014	1.156303	-0.483285
C133	C	1.510291	0.489715	-0.829558
C134	C	1.843624	0.823048	-0.496224
C135	C	2.176957	1.156381	-0.162891
C136	C	1.510185	0.489792	-0.298165
C137	C	1.843518	0.823125	0.035168
C138	C	2.176851	1.156458	0.368501
C139	C	1.510360	0.489622	-0.216383
C140	C	1.843693	0.822955	0.116951
C141	C	2.177027	1.156288	0.450284
H142	H	0.906143	0.442146	-0.441877
H143	H	1.239477	0.775480	-0.108544
H144	H	1.572810	1.108813	0.224790
H145	H	1.115294	0.537542	-0.536977
H146	H	1.448627	0.870876	-0.203643
H147	H	1.781961	1.204209	0.129690
H148	H	1.631639	0.415139	-1.070340
H149	H	1.964973	0.748472	-0.737007
H150	H	2.298306	1.081805	-0.403673
H151	H	0.943464	0.566960	-0.566307
H152	H	1.276797	0.900294	-0.232973
H153	H	1.610130	1.233627	0.100360
H154	H	1.077967	0.412738	-0.412561
H155	H	1.411301	0.746072	-0.079227
H156	H	1.744634	1.079405	0.254106
H157	H	1.631540	0.930566	-0.414905
H158	H	1.964874	1.263900	-0.081572
H159	H	2.298207	1.597233	0.251762
H160	H	1.388976	1.048295	-0.563900
H161	H	1.722309	1.381628	-0.230566
H162	H	2.055642	1.714961	0.102767
O163	O	1.378280	0.901965	-0.570331
O164	O	1.711613	1.235298	-0.236997
O165	O	2.044947	1.568632	0.096336
C166	C	1.319298	0.947081	-0.606591
C167	C	1.652631	1.280414	-0.273257
C168	C	1.985965	1.613748	0.060076
H169	H	1.315729	1.001572	-0.576138
H170	H	1.649062	1.334906	-0.242805
H171	H	1.982395	1.668239	0.090529
H172	H	1.236945	0.917535	-0.607031
H173	H	1.570278	1.250868	-0.273698
H174	H	1.903612	1.584202	0.059636
H175	H	1.357524	0.958617	-0.665923
H176	H	1.690857	1.291951	-0.332589
H177	H	2.024191	1.625284	0.000744
H178	H	1.631625	1.070001	-0.414947
H179	H	1.964959	1.403335	-0.081614
H180	H	2.298292	1.736668	0.251720
O181	O	1.378416	0.570648	-1.053579
O182	O	1.711749	0.903981	-0.720245
O183	O	2.045082	1.237314	-0.386912
C184	C	1.319408	0.606925	-0.997890
C185	C	1.652741	0.940258	-0.664557
C186	C	1.986074	1.273592	-0.331224
H187	H	1.315793	0.576468	-0.942791
H188	H	1.649127	0.909802	-0.609458
H189	H	1.982460	1.243135	-0.276124
H190	H	1.237072	0.607397	-1.012735
H191	H	1.570405	0.940730	-0.679402
H192	H	1.903739	1.274063	-0.346068
H193	H	1.357641	0.666244	-0.993115
H194	H	1.690974	0.999577	-0.659781
H195	H	2.024307	1.332910	-0.326448
H196	H	1.388977	0.564208	-0.909164
H197	H	1.722311	0.897542	-0.575831
H198	H	2.055644	1.230875	-0.242498
O199	O	1.642153	0.408655	-0.925925
O200	O	1.975486	0.741988	-0.592592
O201	O	2.308819	1.075322	-0.259258
C202	C	1.701193	0.372405	-0.981617
C203	C	2.034527	0.705739	-0.648284
C204	C	2.367860	1.039072	-0.314951
H205	H	1.658402	0.366013	-1.032579
H206	H	1.991735	0.699346	-0.699245
H207	H	2.325068	1.032680	-0.365912
H208	H	1.712372	0.315428	-0.960429
H209	H	2.045706	0.648761	-0.627096
H210	H	2.379039	0.982094	-0.293763
H211	H	1.780547	0.406461	-0.996878
H212	H	2.113880	0.739794	-0.663545
H213	H	2.447213	1.073128	-0.330211
