data_functionalizedCrystal
_audit_creation_method	'MofGen! by Chris Wilmer'
_symmetry_space_group_name_H-M	'P1'
_symmetry_Int_Tables_number	1
_symmetry_cell_setting	triclinic
loop_
_symmetry_equiv_pos_as_xyz
  x,y,z
_cell_length_a	23.532355
_cell_length_b	27.732048
_cell_length_c	22.610064
_cell_angle_alpha	89.999096
_cell_angle_beta	89.997644
_cell_angle_gamma	82.735077
loop_
_atom_site_label
_atom_site_type_symbol
_atom_site_fract_x
_atom_site_fract_y
_atom_site_fract_z
O1	O	0.755158	0.058553	-0.049110
O2	O	0.589272	0.067069	-0.049130
O3	O	0.677367	-0.007579	-0.049108
O4	O	0.667063	0.133201	-0.049132
O5	O	0.677351	-0.007568	0.049261
O6	O	0.589256	0.067080	0.049239
O7	O	0.755142	0.058564	0.049259
Zn8	Zn	0.672197	0.062824	0.064867
Zn9	Zn	0.672217	0.062809	-0.064739
O10	O	0.667047	0.133211	0.049237
C11	C	0.568048	0.066862	0.000052
C12	C	0.504831	0.066222	0.000045
C13	C	0.112817	0.062206	0.053692
C14	C	0.053419	0.061597	0.053694
O15	O	0.022694	0.061271	0.099296
N16	N	0.023720	0.061289	0.000073
C17	C	0.053422	0.061585	-0.053554
O18	O	0.022706	0.061267	-0.099162
C19	C	0.112820	0.062191	-0.053555
C20	C	0.142515	0.062504	0.000069
C21	C	0.142513	0.062518	0.107311
C22	C	0.201906	0.063128	0.107309
C23	C	0.231605	0.063426	0.053686
C24	C	0.201909	0.063114	0.000066
C25	C	0.142522	0.062484	-0.107181
C26	C	0.201924	0.063089	-0.107179
C27	C	0.231619	0.063402	-0.053554
C28	C	0.291001	0.064021	-0.053559
N29	N	0.320701	0.064329	0.000062
C30	C	0.291002	0.064031	0.053685
C31	C	-0.071317	0.060313	-0.053546
C32	C	-0.130714	0.059711	-0.053545
C33	C	-0.130713	0.059722	0.053703
C34	C	-0.071315	0.060327	0.053701
C35	C	-0.041617	0.060621	0.000075
C36	C	0.415734	0.065312	0.053675
C37	C	0.475132	0.065924	0.053668
C38	C	0.475127	0.065911	-0.053580
C39	C	0.415733	0.065301	-0.053573
C40	C	0.386038	0.065001	0.000059
O41	O	0.321764	0.064346	-0.099138
O42	O	0.321726	0.064343	0.099285
C43	C	0.677143	-0.025580	0.000078
C44	C	0.676491	-0.079236	0.000083
C45	C	0.724449	-0.417985	0.000058
C46	C	0.722033	-0.619648	0.000049
O47	O	0.765887	-0.650843	0.000029
N48	N	0.669796	-0.638844	0.000044
C49	C	0.618160	-0.607621	0.000036
O50	O	0.573674	-0.628575	0.000025
C51	C	0.620577	-0.405959	0.000041
C52	C	0.672817	-0.386766	0.000052
C53	C	0.776685	-0.398792	0.000069
C54	C	0.777289	-0.348379	0.000074
C55	C	0.725657	-0.317160	0.000069
C56	C	0.673421	-0.336353	0.000058
C57	C	0.568942	-0.374736	0.000029
C58	C	0.569551	-0.324318	0.000029
C59	C	0.621791	-0.305125	0.000040
C60	C	0.622392	-0.254721	0.000057
N61	N	0.674629	-0.235525	0.000063
C62	C	0.726261	-0.266744	0.000069
C63	C	0.616895	-0.713496	0.000035
C64	C	0.616290	-0.763912	0.000035
C65	C	0.720163	-0.775936	0.000047
C66	C	0.720767	-0.725520	0.000051
C67	C	0.669131	-0.694301	0.000041
C68	C	0.727525	-0.160873	0.000080
C69	C	0.728124	-0.110456	0.000088
C70	C	0.624251	-0.098436	0.000073
C71	C	0.623652	-0.148849	0.000068
C72	C	0.675293	-0.180067	0.000070
O73	O	0.578561	-0.223497	0.000071
O74	O	0.770740	-0.245780	0.000067
C75	C	0.723846	-0.468398	0.000053
C76	C	0.671610	-0.487591	0.000042
C77	C	0.619978	-0.456372	0.000036
C78	C	0.671006	-0.538007	0.000042
C79	C	0.722638	-0.569226	0.000047
C80	C	0.774875	-0.550030	0.000053
C81	C	0.775478	-0.499617	0.000058
C82	C	0.567741	-0.475568	0.000030
C83	C	0.567142	-0.525981	0.000026
C84	C	0.618774	-0.557200	0.000031
C85	C	0.776366	0.058771	0.000075
C86	C	0.839583	0.059411	0.000078
C87	C	0.667271	0.151213	0.000050
C88	C	0.667923	0.204869	0.000041
N89	N	0.672187	0.062833	0.153320
N90	N	0.672232	0.062796	-0.153191
C91	C	0.711227	0.029760	0.561971
C92	C	0.711230	0.029757	0.623891
O93	O	0.744400	0.001644	0.655917
N94	N	0.672217	0.062799	0.654857
C95	C	0.633194	0.095844	0.623900
O96	O	0.600010	0.123949	0.655925
C97	C	0.633189	0.095845	0.561981
C98	C	0.672209	0.062803	0.531018
C99	C	0.750244	-0.003279	0.531008
C100	C	0.750241	-0.003275	0.469092
C101	C	0.711223	0.029769	0.438139
C102	C	0.672206	0.062808	0.469102
C103	C	0.594164	0.128887	0.531025
C104	C	0.594162	0.128885	0.469102
C105	C	0.633182	0.095843	0.438139
C106	C	0.633185	0.095855	0.376234
N107	N	0.672199	0.062813	0.345268
C108	C	0.711217	0.029769	0.376221
C109	C	0.633207	0.095839	0.753933
C110	C	0.633215	0.095841	0.815851
C111	C	0.711250	0.029753	0.815837
C112	C	0.711245	0.029754	0.753919
C113	C	0.672221	0.062797	0.722967
C114	C	0.711210	0.029781	0.246193
C115	C	0.711206	0.029790	0.184272
C116	C	0.633168	0.095876	0.184291
C117	C	0.633174	0.095869	0.246207
C118	C	0.672197	0.062818	0.277156
O119	O	0.600031	0.123952	0.344168
O120	O	0.744391	0.001665	0.344188
H121	H	0.499317	0.066155	-0.097238
C122	C	0.213436	0.104825	-0.198600
C123	C	0.234568	0.063416	-0.166127
H124	H	0.233592	0.105029	-0.234990
H125	H	0.173817	0.104413	-0.206270
H126	H	0.218577	0.133116	-0.176567
H127	H	0.229423	0.035125	-0.188158
H128	H	0.274197	0.063824	-0.158458
H129	H	0.391562	0.065072	0.097347
C130	C	0.556079	0.161171	0.760176
C131	C	0.590315	0.132170	0.719914
H132	H	0.529603	0.183601	0.739175
H133	H	0.535775	0.141139	0.784326
H134	H	0.579644	0.178447	0.784326
H135	H	0.566751	0.114892	0.695767
H136	H	0.610621	0.152205	0.695754
H137	H	0.782013	-0.030181	0.443885
C138	C	0.559496	0.158237	0.374193
C139	C	0.551265	0.165208	0.435081
H140	H	0.533012	0.180660	0.353191
H141	H	0.597452	0.163322	0.364044
H142	H	0.553598	0.126002	0.364048
H143	H	0.557168	0.197442	0.445226
H144	H	0.513300	0.160128	0.445233
C145	C	0.620270	0.161688	0.885481
C146	C	0.590327	0.132165	0.849881
H147	H	0.593789	0.184114	0.906484
H148	H	0.643499	0.142010	0.912779
H149	H	0.643821	0.178969	0.861319
H150	H	0.566779	0.114882	0.874043
H151	H	0.567088	0.151846	0.822579
C152	C	0.836264	-0.462460	0.050644
C153	C	0.833445	-0.433105	0.000076
H154	H	0.871306	-0.483643	0.050649
H155	H	0.834331	-0.442541	0.084940
H156	H	0.805069	-0.481110	0.050633
H157	H	0.864637	-0.414453	0.000090
H158	H	0.835383	-0.453027	-0.034229
C159	C	0.562723	-0.198568	-0.050512
C160	C	0.566232	-0.169953	0.000061
H161	H	0.527276	-0.211596	-0.050517
H162	H	0.565120	-0.179145	-0.084805
H163	H	0.593391	-0.224375	-0.050506
H164	H	0.535566	-0.144143	0.000053
H165	H	0.563829	-0.189377	0.034363
H166	H	0.743021	0.002846	0.841050
H167	H	0.562390	0.155792	0.556227
C168	C	0.827381	-0.068595	0.524758
C169	C	0.793141	-0.039602	0.565024
H170	H	0.853871	-0.091017	0.545756
H171	H	0.803825	-0.085877	0.500615
H172	H	0.847676	-0.048555	0.500602
H173	H	0.772843	-0.059643	0.589177
H174	H	0.816700	-0.022319	0.589177
C175	C	0.724054	-0.036109	0.114732
C176	C	0.754058	-0.006597	0.150282
H177	H	0.750497	-0.058590	0.093760
H178	H	0.700463	-0.053324	0.138919
H179	H	0.700859	-0.016428	0.087399
H180	H	0.777250	-0.026278	0.177617
H181	H	0.777659	0.010618	0.126093
H182	H	-0.154904	0.059479	0.097366
C183	C	0.830740	-0.127413	0.000095
C184	C	0.785550	-0.089360	0.000096
H185	H	0.866190	-0.114390	0.000095
H186	H	0.828339	-0.146827	0.034395
H187	H	0.828341	-0.146825	-0.034213
H188	H	0.787946	-0.069950	0.034406
H189	H	0.787952	-0.069938	-0.034207
C190	C	0.556033	0.161189	0.239997
C191	C	0.590281	0.132186	0.280245
H192	H	0.529546	0.183604	0.261009
H193	H	0.579583	0.178478	0.215854
H194	H	0.535734	0.141154	0.215840
H195	H	0.610583	0.152222	0.304400
H196	H	0.566728	0.114897	0.304398
H197	H	0.525695	-0.450153	0.000024
H198	H	-0.154888	0.059464	-0.097211
H199	H	0.391552	0.065055	-0.097238
C200	C	0.823378	-0.742480	0.000059
C201	C	0.778190	-0.704425	0.000055
H202	H	0.858830	-0.729458	0.000056
H203	H	0.820976	-0.761890	0.034362
H204	H	0.820978	-0.761896	-0.034245
H205	H	0.780588	-0.685012	0.034362
H206	H	0.780594	-0.685008	-0.034252
C207	C	0.579067	-0.015811	0.000065
C208	C	0.567498	-0.064113	0.000063
H209	H	0.544029	0.005379	0.000052
H210	H	0.600492	-0.010024	0.034372
H211	H	0.600517	-0.010027	-0.034236
H212	H	0.546052	-0.069897	0.034366
H213	H	0.546064	-0.069902	-0.034247
H214	H	0.769576	-0.186286	0.000079
C215	C	0.879899	-0.365344	0.000080
C216	C	0.834713	-0.327287	0.000079
H217	H	0.915351	-0.352324	0.000078
H218	H	0.877496	-0.384755	0.034381
H219	H	0.877497	-0.384757	-0.034226
H220	H	0.837112	-0.307876	0.034388
H221	H	0.837117	-0.307867	-0.034226
C222	C	0.620220	0.161714	0.114649
C223	C	0.590278	0.132193	0.150258
H224	H	0.593738	0.184130	0.093635
H225	H	0.643761	0.179001	0.138802
H226	H	0.643459	0.142029	0.087354
H227	H	0.567042	0.151877	0.177555
H228	H	0.566727	0.114905	0.126103
C229	C	0.765350	-0.858561	0.000039
C230	C	0.776919	-0.810259	0.000045
H231	H	0.800387	-0.879751	0.000029
H232	H	0.743916	-0.864350	0.034341
H233	H	0.743908	-0.864341	-0.034266
H234	H	0.798358	-0.804477	0.034352
H235	H	0.798362	-0.804467	-0.034262
H236	H	0.573751	-0.779534	0.000036
C237	C	0.834455	-0.613701	-0.050517
C238	C	0.831631	-0.584352	0.000055
H239	H	0.869493	-0.634889	-0.050519
H240	H	0.803258	-0.632342	-0.050516
H241	H	0.832537	-0.593776	-0.084814
H242	H	0.833544	-0.604278	0.034352
H243	H	0.862836	-0.565710	0.000060
C244	C	0.469159	0.065870	0.159680
C245	C	0.507773	0.066264	0.112616
H246	H	0.489310	0.066076	0.196070
H247	H	0.441398	0.093823	0.157446
H248	H	0.450587	0.037438	0.157448
H249	H	0.526343	0.094698	0.114846
H250	H	0.535544	0.038308	0.114851
H251	H	0.743018	0.002848	0.728712
H252	H	0.526402	-0.390354	0.000016
C253	C	0.195924	0.063071	0.213315
C254	C	0.234544	0.063465	0.166255
H255	H	0.216072	0.063275	0.249707
H256	H	0.168166	0.091026	0.211080
H257	H	0.177349	0.034641	0.211078
H258	H	0.253116	0.091897	0.168489
H259	H	0.262312	0.035507	0.168492
H260	H	0.574844	-0.688082	0.000027
C261	C	-0.077295	0.060251	-0.159556
C262	C	-0.038677	0.060647	-0.112497
H263	H	-0.057146	0.060460	-0.195949
H264	H	-0.095865	0.031824	-0.157320
H265	H	-0.105059	0.088208	-0.157318
H266	H	-0.010916	0.032688	-0.114733
H267	H	-0.020098	0.089077	-0.114735
H268	H	0.527501	-0.298901	0.000019
C269	C	0.724168	-0.036076	0.315809
C270	C	0.754105	-0.006548	0.280208
H271	H	0.750651	-0.058504	0.336805
H272	H	0.700940	-0.016402	0.343114
H273	H	0.700615	-0.053355	0.291649
H274	H	0.777654	0.010734	0.304369
H275	H	0.777343	-0.026224	0.252900
H276	H	0.118339	0.062275	0.150980
C277	C	0.068969	0.103345	-0.169429
C278	C	0.109894	0.062137	-0.166130
H279	H	0.048831	0.103131	-0.205826
H280	H	0.042774	0.103080	-0.137504
H281	H	0.087550	0.131772	-0.167203
H282	H	0.091312	0.033710	-0.168351
H283	H	0.136092	0.062398	-0.198063
H284	H	0.818017	-0.483996	0.000067
H285	H	0.524599	-0.541602	0.000021
H286	H	-0.047141	0.060583	0.097367
