data_functionalizedCrystal
_audit_creation_method	'MofGen! by Chris Wilmer'
_symmetry_space_group_name_H-M	'P1'
_symmetry_Int_Tables_number	1
_symmetry_cell_setting	triclinic
loop_
_symmetry_equiv_pos_as_xyz
  x,y,z
_cell_length_a	12.837943
_cell_length_b	15.944551
_cell_length_c	11.892095
_cell_angle_alpha	93.888509
_cell_angle_beta	85.689438
_cell_angle_gamma	89.163839
loop_
_atom_site_label
_atom_site_type_symbol
_atom_site_fract_x
_atom_site_fract_y
_atom_site_fract_z
O1	O	1.382096	0.213524	-0.093988
O2	O	1.882096	0.713524	0.406012
O3	O	1.080290	0.202737	-0.093995
O4	O	1.580290	0.702737	0.406005
O5	O	1.239434	0.086515	-0.093981
O6	O	1.739434	0.586515	0.406019
O7	O	1.222952	0.329745	-0.094002
O8	O	1.722952	0.829745	0.405998
O9	O	1.226164	0.096189	0.094025
O10	O	1.726164	0.596189	0.594025
O11	O	1.067021	0.212411	0.094012
O12	O	1.567021	0.712411	0.594012
O13	O	1.368826	0.223198	0.094018
O14	O	1.868826	0.723198	0.594018
Zn15	Zn	1.215817	0.219340	0.123865
Zn16	Zn	1.715817	0.719340	0.623865
Zn17	Zn	1.233299	0.206594	-0.123842
Zn18	Zn	1.733299	0.706594	0.376158
O19	O	1.209683	0.339419	0.094005
O20	O	1.709683	0.839419	0.594005
C21	C	1.035034	0.203930	0.000008
C22	C	1.535034	0.703930	0.500008
C23	C	0.919957	0.193062	0.000006
C24	C	1.419957	0.693062	0.500006
C25	C	0.679007	0.323714	0.000011
C26	C	1.179007	0.823714	0.500011
C27	C	0.570881	0.313507	0.000010
C28	C	1.070881	0.813507	0.500010
C29	C	0.595575	0.162440	0.000010
C30	C	1.095575	0.662440	0.500010
C31	C	0.703701	0.172648	0.000012
C32	C	1.203701	0.672648	0.500012
C33	C	0.745413	0.253287	0.000010
C34	C	1.245413	0.753287	0.500010
C35	C	0.853542	0.263494	0.000003
C36	C	1.353542	0.763494	0.500003
C37	C	0.878234	0.112428	0.000012
C38	C	1.378234	0.612428	0.500012
C39	C	0.770107	0.102221	0.000011
C40	C	1.270107	0.602221	0.500011
C41	C	1.232115	0.060004	0.000022
C42	C	1.732115	0.560004	0.500022
C43	C	1.230063	-0.033407	0.000023
C44	C	1.730063	0.466593	0.500023
C45	C	1.126515	-0.256548	0.000005
C46	C	1.626515	0.243452	0.500005
C47	C	1.168058	-0.308949	0.092705
C48	C	1.668058	0.191051	0.592705
C49	C	1.226352	-0.204430	0.000014
C50	C	1.726352	0.295570	0.500014
C51	C	1.181163	-0.318468	-0.092655
C52	C	1.681163	0.181532	0.407345
C53	C	1.222761	-0.369631	0.000001
C54	C	1.722761	0.130369	0.500001
C55	C	1.267917	-0.255596	0.092790
C56	C	1.767917	0.244404	0.592790
C57	C	1.281014	-0.265115	-0.092653
C58	C	1.781014	0.234885	0.407347
C59	C	1.322628	-0.317491	0.000069
C60	C	1.822628	0.182509	0.500069
C61	C	1.228418	-0.109262	0.000023
C62	C	1.728418	0.390738	0.500023
C63	C	1.220702	-0.464796	0.000000
C64	C	1.720702	0.035204	0.500000
C65	C	1.414082	0.222005	0.000013
C66	C	1.914082	0.722005	0.500013
C67	C	1.529160	0.232872	0.000008
C68	C	2.029160	0.732872	0.500008
C69	C	1.217002	0.365931	-0.000001
C70	C	1.717002	0.865931	0.499999
C71	C	1.219054	0.459340	-0.000009
C72	C	1.719054	0.959340	0.499991
N73	N	1.203893	0.228039	0.292918
N74	N	1.703893	0.728039	0.792918
N75	N	1.245231	0.197890	-0.292895
N76	N	1.745231	0.697890	0.207105
C77	C	1.328203	0.137313	0.529576
C78	C	1.828203	0.637313	1.029576
C79	C	1.319876	0.143400	0.647918
C80	C	1.819876	0.643400	1.147918
C81	C	1.178907	0.246295	0.647944
C82	C	1.678907	0.746295	1.147944
C83	C	1.187234	0.240208	0.529603
C84	C	1.687234	0.740208	1.029603
C85	C	1.261886	0.185716	0.470423
C86	C	1.761886	0.685716	0.970423
C87	C	1.270217	0.179634	0.352080
C88	C	1.770217	0.679634	0.852080
C89	C	1.129244	0.282524	0.352108
C90	C	1.629244	0.782524	0.852108
C91	C	1.120917	0.288611	0.470449
C92	C	1.620917	0.788611	0.970449
H93	H	0.516815	0.370856	0.000013
H94	H	1.016815	0.870856	0.500013
H95	H	1.144455	-0.345956	-0.171031
H96	H	1.644455	0.154044	0.328969
H97	H	0.887502	0.329155	0.000004
H98	H	1.387502	0.829155	0.500004
O99	O	1.391408	0.091192	0.711715
O100	O	1.891408	0.591192	1.211715
H101	H	1.373074	0.104573	0.803948
H102	H	1.873074	0.604573	1.303948
H103	H	1.120299	-0.328402	0.171073
H104	H	1.620299	0.171598	0.671073
O105	O	1.040409	0.347388	0.534279
O106	O	1.540409	0.847388	1.034279
H107	H	1.045763	0.343495	0.626507
H108	H	1.545763	0.843495	1.126507
H109	H	1.304571	-0.228194	0.171246
H110	H	1.804571	0.271806	0.671246
O111	O	1.408694	0.078521	0.465744
O112	O	1.908694	0.578521	0.965744
H113	H	1.403336	0.082415	0.373516
H114	H	1.903336	0.582415	0.873516
O115	O	1.432482	-0.352636	0.000134
O116	O	1.932482	0.147364	0.500134
H117	H	1.468226	-0.327225	0.077156
H118	H	1.968226	0.172775	0.577156
O119	O	1.344235	-0.239365	-0.196488
O120	O	1.844235	0.260635	0.303512
H121	H	1.425201	-0.264883	-0.197175
H122	H	1.925201	0.235117	0.302825
O123	O	1.098395	0.305065	0.711780
O124	O	1.598395	0.805065	1.211780
H125	H	1.103753	0.301165	0.804007
H126	H	1.603753	0.801165	1.304007
O127	O	1.350706	0.120845	0.288239
O128	O	1.850706	0.620845	0.788239
H129	H	1.404897	0.157469	0.234303
H130	H	1.904897	0.657469	0.734303
O131	O	0.724009	0.410683	0.000011
O132	O	1.224009	0.910683	0.500011
H133	H	0.659665	0.457943	0.000016
H134	H	1.159665	0.957943	0.500016
O135	O	0.550577	0.075470	0.000030
O136	O	1.050577	0.575470	0.500030
H137	H	0.464233	0.080209	0.000031
H138	H	0.964233	0.580209	0.500031
O139	O	1.016745	-0.221190	0.000117
O140	O	1.516745	0.278810	0.500117
H141	H	0.970110	-0.238568	0.077184
H142	H	1.470110	0.261432	0.577184
O143	O	1.057704	0.334728	0.288303
O144	O	1.557704	0.834728	0.788303
H145	H	1.105138	0.376286	0.234369
H146	H	1.605138	0.876286	0.734369
O147	O	0.725116	0.015248	0.000019
O148	O	1.225116	0.515248	0.500019
H149	H	0.681855	0.003041	-0.076612
H150	H	1.181855	0.503041	0.423388
O151	O	0.949855	0.036459	0.000017
O152	O	1.449855	0.536459	0.500017
H153	H	1.032051	0.057101	0.000024
H154	H	1.532051	0.557101	0.500024
