data_functionalizedCrystal
_audit_creation_method	'MofGen! by Chris Wilmer'
_symmetry_space_group_name_H-M	'P1'
_symmetry_Int_Tables_number	1
_symmetry_cell_setting	triclinic
loop_
_symmetry_equiv_pos_as_xyz
  x,y,z
_cell_length_a	15.995350
_cell_length_b	15.995350
_cell_length_c	15.072220
_cell_angle_alpha	90.001101
_cell_angle_beta	89.991149
_cell_angle_gamma	83.492375
loop_
_atom_site_label
_atom_site_type_symbol
_atom_site_fract_x
_atom_site_fract_y
_atom_site_fract_z
O1	O	1.110996	0.107921	-0.073703
O2	O	1.610996	0.607921	0.426297
O3	O	0.867221	0.121249	-0.073721
O4	O	1.367221	0.621249	0.426279
O5	O	0.995772	-0.007303	-0.073710
O6	O	1.495772	0.492697	0.426290
O7	O	0.982444	0.236472	-0.073713
O8	O	1.482444	0.736472	0.426287
O9	O	0.995740	-0.007296	0.073855
O10	O	1.495740	0.492704	0.573855
O11	O	0.867189	0.121256	0.073844
O12	O	1.367189	0.621256	0.573844
O13	O	1.110964	0.107928	0.073862
O14	O	1.610964	0.607928	0.573862
Zn15	Zn	0.989071	0.114593	0.097283
Zn16	Zn	1.489071	0.614593	0.597283
Zn17	Zn	0.989113	0.114584	-0.097141
Zn18	Zn	1.489113	0.614584	0.402859
O19	O	0.982413	0.236480	0.073852
O20	O	1.482413	0.736480	0.573852
C21	C	0.995205	-0.038494	0.000070
C22	C	1.495205	0.461506	0.500070
C23	C	0.993553	-0.131444	0.000065
C24	C	1.493553	0.368556	0.500065
C25	C	0.836010	0.120701	0.000060
C26	C	1.336010	0.620701	0.500060
C27	C	0.743060	0.119049	0.000053
C28	C	1.243060	0.619049	0.500053
C29	C	0.987621	-0.469192	0.000068
C30	C	1.487621	0.030808	0.500068
C31	C	0.896069	-0.421758	-0.000270
C32	C	1.396069	0.078242	0.499730
C33	C	0.897721	-0.325068	0.000063
C34	C	1.397721	0.174932	0.500063
C35	C	0.990564	-0.301631	0.000066
C36	C	1.490564	0.198369	0.500066
C37	C	1.035702	-0.342705	0.084335
C38	C	1.535702	0.157295	0.584335
C39	C	1.033402	-0.439341	0.084405
C40	C	1.533402	0.060659	0.584405
C41	C	1.035330	-0.439707	-0.083404
C42	C	1.535330	0.060293	0.416596
C43	C	1.035308	-0.342761	-0.084518
C44	C	1.535308	0.157239	0.415482
C45	C	0.992231	-0.206934	0.000068
C46	C	1.492231	0.293066	0.500068
C47	C	0.985956	-0.563890	0.000072
C48	C	1.485956	-0.063890	0.500072
C49	C	0.405312	0.113117	0.000071
C50	C	0.905312	0.613117	0.500071
C51	C	0.452746	0.021565	0.000401
C52	C	0.952746	0.521565	0.500401
C53	C	0.549436	0.023217	0.000063
C54	C	1.049436	0.523217	0.500063
C55	C	0.572873	0.116060	0.000063
C56	C	1.072873	0.616060	0.500063
C57	C	0.531804	0.161212	-0.084201
C58	C	1.031804	0.661212	0.415799
C59	C	0.435168	0.158912	-0.084266
C60	C	0.935168	0.658912	0.415734
C61	C	0.434793	0.160812	0.083543
C62	C	0.934793	0.660812	0.583543
C63	C	0.531738	0.160790	0.084651
C64	C	1.031738	0.660790	0.584651
C65	C	0.667570	0.117727	0.000055
C66	C	1.167570	0.617727	0.500055
C67	C	0.310614	0.111452	0.000073
C68	C	0.810614	0.611452	0.500073
C69	C	1.142175	0.108476	0.000080
C70	C	1.642175	0.608476	0.500080
C71	C	1.235125	0.110127	0.000081
C72	C	1.735125	0.610127	0.500081
C73	C	0.982980	0.267671	0.000069
C74	C	1.482980	0.767671	0.500069
C75	C	0.984631	0.360621	0.000069
C76	C	1.484631	0.860621	0.500069
N77	N	0.989049	0.114599	0.229971
N78	N	1.489049	0.614599	0.729971
N79	N	0.989142	0.114571	-0.229830
N80	N	1.489142	0.614571	0.270170
C81	C	0.989112	0.114580	0.589173
C82	C	1.489112	0.614580	1.089173
C83	C	0.920095	0.183135	0.551560
C84	C	1.420095	0.683135	1.051560
C85	C	0.920254	0.183385	0.448735
C86	C	1.420254	0.683385	0.948735
C87	C	0.989080	0.114590	0.410969
C88	C	1.489080	0.614590	0.910969
C89	C	1.076445	0.133671	0.448266
C90	C	1.576445	0.633671	0.948266
C91	C	1.076058	0.134159	0.551124
C92	C	1.576058	0.634159	1.051124
C93	C	0.971542	0.026741	0.551272
C94	C	1.471542	0.526741	1.051272
C95	C	0.969537	0.027327	0.448409
C96	C	1.469537	0.527327	0.948409
C97	C	0.989067	0.114593	0.310255
C98	C	1.489067	0.614593	0.810255
C99	C	0.989130	0.114579	0.689886
C100	C	1.489130	0.614579	1.189886
H101	H	0.862238	-0.296649	-0.060344
H102	H	1.362238	0.203351	0.439656
F103	F	0.411253	0.115866	-0.166596
F104	F	0.911253	0.615866	0.333404
F105	F	0.848312	-0.447646	0.078055
F106	F	1.348312	0.052354	0.578055
H107	H	0.577307	-0.012521	-0.060446
H108	H	1.077307	0.487479	0.439554
H109	H	0.931473	0.248570	0.424121
H110	H	1.431473	0.748570	0.924121
H111	H	1.103910	-0.328579	0.087471
H112	H	1.603910	0.171421	0.587471
H113	H	0.414244	0.130885	0.147414
H114	H	0.914244	0.630885	0.647414
H115	H	1.102831	-0.471468	-0.083968
H116	H	1.602831	0.028532	0.416032
H117	H	0.859490	-0.440293	-0.060701
H118	H	1.359490	0.059707	0.439299
H119	H	1.004325	-0.314320	0.147042
H120	H	1.504325	0.185680	0.647042
H121	H	0.931160	0.247952	0.577399
H122	H	1.431160	0.747952	1.077399
F123	F	0.567342	0.117640	0.166131
F124	F	1.067342	0.617640	0.666131
F125	F	0.885536	0.008397	0.416549
F126	F	1.385536	0.508397	0.916549
H127	H	0.861974	-0.297200	0.060568
H128	H	1.361974	0.202800	0.560568
H129	H	0.577852	-0.012275	0.060467
H130	H	1.077852	0.487725	0.560467
H131	H	0.855314	0.172016	0.423519
H132	H	1.355314	0.672016	0.923519
H133	H	0.547102	0.228494	0.089741
H134	H	1.047102	0.728494	0.589741
H135	H	1.005411	-0.460250	-0.147274
H136	H	1.505411	0.039750	0.352726
F137	F	0.393280	0.249040	0.084289
F138	F	0.893280	0.749040	0.584289
H139	H	1.016540	-0.026078	0.422704
H140	H	1.516540	0.473922	0.922704
H141	H	1.091540	0.198219	0.575106
H142	H	1.591540	0.698219	1.075106
H143	H	0.854945	0.171953	0.576317
H144	H	1.354945	0.671953	1.076317
H145	H	0.434211	-0.015027	0.060830
H146	H	0.934211	0.484973	0.560830
F147	F	1.123804	-0.322679	-0.091171
F148	F	1.623804	0.177321	0.408829
H149	H	1.129019	0.086195	0.576003
H150	H	1.629019	0.586195	1.076003
H151	H	1.129029	0.085068	0.423801
H152	H	1.629029	0.585068	0.923801
H153	H	0.402920	0.226128	-0.088090
H154	H	0.902920	0.726128	0.411910
H155	H	1.092297	0.197002	0.422498
H156	H	1.592297	0.697002	0.922498
F157	F	1.037326	-0.039941	0.583063
F158	F	1.537326	0.460059	1.083063
F159	F	0.427149	-0.026057	-0.078142
F160	F	0.927149	0.473943	0.421858
H161	H	0.909219	0.008392	0.577258
H162	H	1.409219	0.508392	1.077258
H163	H	0.545929	0.229421	-0.087335
H164	H	1.045929	0.729421	0.412665
H165	H	0.560191	0.129845	-0.146912
H166	H	1.060191	0.629845	0.353088
F167	F	0.990342	-0.463260	0.166735
F168	F	1.490342	0.036740	0.666735
H169	H	1.100617	-0.471588	0.088231
H170	H	1.600617	0.028412	0.588231
H171	H	1.002306	-0.315516	-0.146857
H172	H	1.502306	0.184484	0.353143
