data_functionalizedCrystal
_audit_creation_method	'MofGen! by Chris Wilmer'
_symmetry_space_group_name_H-M	'P1'
_symmetry_Int_Tables_number	1
_symmetry_cell_setting	triclinic
loop_
_symmetry_equiv_pos_as_xyz
  x,y,z
_cell_length_a	18.101398
_cell_length_b	18.050589
_cell_length_c	18.101398
_cell_angle_alpha	90.004632
_cell_angle_beta	90.012704
_cell_angle_gamma	89.970035
loop_
_atom_site_label
_atom_site_type_symbol
_atom_site_fract_x
_atom_site_fract_y
_atom_site_fract_z
Zn1	Zn	1.132017	0.295966	0.418862
Zn2	Zn	1.465351	0.629300	0.752195
Zn3	Zn	1.798684	0.962633	1.085529
Zn4	Zn	1.131931	0.420101	0.295031
Zn5	Zn	1.465264	0.753434	0.628364
Zn6	Zn	1.798597	1.086767	0.961697
Zn7	Zn	1.008202	0.295919	0.295023
Zn8	Zn	1.341535	0.629252	0.628357
Zn9	Zn	1.674868	0.962585	0.961690
Zn10	Zn	1.008119	0.420109	0.418819
Zn11	Zn	1.341453	0.753442	0.752152
Zn12	Zn	1.674786	1.086775	1.085486
O13	O	1.070067	0.358024	0.356934
O14	O	1.403401	0.691357	0.690267
O15	O	1.736734	1.024690	1.023601
O16	O	1.235639	0.312450	0.402457
O17	O	1.568972	0.645783	0.735790
O18	O	1.902305	0.979116	1.069123
O19	O	1.115516	0.403604	0.191397
O20	O	1.448849	0.736938	0.524730
O21	O	1.782183	1.070271	0.858063
O22	O	1.024697	0.192000	0.311466
O23	O	1.358030	0.525334	0.644799
O24	O	1.691363	0.858667	0.978132
O25	O	1.235575	0.403650	0.311478
O26	O	1.568908	0.736984	0.644812
O27	O	1.902242	1.070317	0.978145
O28	O	1.115664	0.192035	0.402450
O29	O	1.448997	0.525369	0.735783
O30	O	1.782330	0.858702	1.069116
O31	O	1.024613	0.312368	0.191391
O32	O	1.357946	0.645702	0.524725
O33	O	1.691279	0.979035	0.858058
O34	O	0.904558	0.312376	0.311424
O35	O	1.237891	0.645710	0.644757
O36	O	1.571224	0.979043	0.978091
O37	O	1.024557	0.403664	0.522458
O38	O	1.357890	0.736998	0.855791
O39	O	1.691223	1.070331	1.189124
O40	O	0.904497	0.403618	0.402376
O41	O	1.237831	0.736952	0.735710
O42	O	1.571164	1.070285	1.069043
O43	O	1.115584	0.312458	0.522489
O44	O	1.448917	0.645791	0.855823
O45	O	1.782251	0.979124	1.189156
O46	O	1.115436	0.524026	0.311436
O47	O	1.448770	0.857360	0.644770
O48	O	1.782103	1.190693	0.978103
O49	O	1.024473	0.524032	0.402383
O50	O	1.357806	0.857366	0.735717
O51	O	1.691139	1.190699	1.069050
C52	C	0.877657	0.357993	0.356895
C53	C	1.210990	0.691327	0.690229
C54	C	1.544323	1.024660	1.023562
C55	C	0.795343	0.357998	0.356896
C56	C	1.128676	0.691332	0.690230
C57	C	1.462009	1.024665	1.023563
C58	C	1.069956	0.550976	0.356922
C59	C	1.403289	0.884309	0.690256
C60	C	1.736623	1.217642	1.023589
C61	C	1.069976	0.633522	0.356942
C62	C	1.403310	0.966855	0.690275
C63	C	1.736643	1.300188	1.023609
C64	C	0.496252	0.358045	0.356958
C65	C	0.829585	0.691378	0.690292
C66	C	1.162918	1.024712	1.023625
C67	C	0.527590	0.300351	0.300013
C68	C	0.860923	0.633685	0.633346
C69	C	1.194257	0.967018	0.966680
C70	C	0.613208	0.300506	0.299770
C71	C	0.946542	0.633839	0.633103
C72	C	1.279875	0.967172	0.966437
C73	C	0.644634	0.358021	0.356928
C74	C	0.977968	0.691355	0.690261
C75	C	1.311301	1.024688	1.023594
C76	C	0.613516	0.436242	0.335609
C77	C	0.946849	0.769575	0.668943
C78	C	1.280182	1.102908	1.002276
C79	C	0.527870	0.435921	0.335213
C80	C	0.861204	0.769255	0.668547
C81	C	1.194537	1.102588	1.001880
C82	C	0.527852	0.338198	0.435356
C83	C	0.861185	0.671531	0.768690
C84	C	1.194518	1.004865	1.102023
C85	C	0.613503	0.336456	0.434928
C86	C	0.946836	0.669789	0.768262
C87	C	1.280169	1.003122	1.101595
C88	C	0.728494	0.358013	0.356911
C89	C	1.061827	0.691346	0.690245
C90	C	1.395160	1.024679	1.023578
C91	C	0.412392	0.358059	0.356973
C92	C	0.745726	0.691392	0.690306
C93	C	1.079059	1.024725	1.023639
C94	C	1.020536	0.833002	0.406382
C95	C	1.353870	1.166336	0.739716
C96	C	1.687203	1.499669	1.073049
C97	C	1.002493	0.882408	0.338804
C98	C	1.335826	1.215741	0.672137
C99	C	1.669159	1.549075	1.005470
C100	C	1.070032	0.784652	0.356952
C101	C	1.403365	1.117985	0.690286
C102	C	1.736699	1.451319	1.023619
C103	C	1.088096	0.882328	0.424539
C104	C	1.421429	1.215661	0.757872
C105	C	1.754762	1.548995	1.091206
C106	C	1.070084	0.930637	0.356968
C107	C	1.403418	1.263970	0.690301
C108	C	1.736751	1.597304	1.023635
C109	C	1.051953	0.832970	0.289338
C110	C	1.385286	1.166304	0.622671
C111	C	1.718620	1.499637	0.956004
C112	C	1.137587	0.832886	0.375119
C113	C	1.470921	1.166219	0.708452
C114	C	1.804254	1.499552	1.041785
C115	C	1.119569	0.882269	0.307494
C116	C	1.452902	1.215603	0.640827
C117	C	1.786236	1.548936	0.974160
C118	C	1.070000	0.700554	0.356944
C119	C	1.403333	1.033887	0.690277
C120	C	1.736667	1.367220	1.023611
C121	C	1.070117	1.014734	0.356968
C122	C	1.403450	1.348067	0.690302
C123	C	1.736783	1.681400	1.023635
C124	C	1.263229	0.358054	0.356973
C125	C	1.596562	0.691388	0.690306
C126	C	1.929896	1.024721	1.023640
C127	C	1.345543	0.358068	0.356990
C128	C	1.678877	0.691401	0.690323
C129	C	2.012210	1.024734	1.023656
C130	C	1.070071	0.358067	0.550096
C131	C	1.403404	0.691401	0.883429
C132	C	1.736738	1.024734	1.216762
C133	C	1.070072	0.358086	0.632410
C134	C	1.403406	0.691419	0.965743
C135	C	1.736739	1.024752	1.299076
C136	C	1.070171	1.164318	0.356963
C137	C	1.403504	1.497651	0.690296
C138	C	1.736837	1.830985	1.023629
C139	C	1.070142	1.081772	0.356977
C140	C	1.403476	1.415106	0.690310
C141	C	1.736809	1.748439	1.023644
C142	C	1.070055	0.358043	0.931501
C143	C	1.403388	0.691377	1.264834
C144	C	1.736721	1.024710	1.598167
C145	C	1.012592	0.415235	0.900156
C146	C	1.345925	0.748569	1.233489
C147	C	1.679259	1.081902	1.566822
C148	C	1.012765	0.415473	0.814537
C149	C	1.346098	0.748807	1.147871
C150	C	1.679431	1.082140	1.481204
C151	C	1.070063	0.358064	0.783118
C152	C	1.403396	0.691398	1.116452
C153	C	1.736730	1.024731	1.449785
C154	C	1.148081	0.379325	0.814226
C155	C	1.481414	0.712658	1.147559
C156	C	1.814747	1.045991	1.480892
C157	C	1.147743	0.379728	0.899871
C158	C	1.481076	0.713061	1.233204
C159	C	1.814410	1.046394	1.566537
C160	C	1.050185	0.279453	0.899919
C161	C	1.383518	0.612787	1.233252
C162	C	1.716851	0.946120	1.566585
C163	C	1.048466	0.279879	0.814268
C164	C	1.381799	0.613213	1.147601
C165	C	1.715133	0.946546	1.480935
C166	C	1.070072	0.358075	0.699259
C167	C	1.403406	0.691408	1.032592
C168	C	1.736739	1.024742	1.365925
C169	C	1.070051	0.358034	1.015360
C170	C	1.403384	0.691368	1.348694
C171	C	1.736717	1.024701	1.682027
C172	C	1.070055	0.358008	1.164523
C173	C	1.403389	0.691341	1.497857
C174	C	1.736722	1.024674	1.831190
C175	C	1.070045	0.358022	1.082209
C176	C	1.403379	0.691355	1.415543
C177	C	1.736712	1.024688	1.748876
H178	H	0.507021	0.242169	0.313228
H179	H	0.840354	0.575502	0.646561
H180	H	1.173687	0.908836	0.979894
H181	H	0.634250	0.242501	0.313132
H182	H	0.967583	0.575834	0.646465
H183	H	1.300916	0.909167	0.979799
H184	H	1.036629	0.811380	0.232171
H185	H	1.369963	1.144713	0.565504
H186	H	1.703296	1.478047	0.898838
N187	N	1.108308	0.911053	0.500237
N188	N	1.441642	1.244387	0.833570
N189	N	1.774975	1.577720	1.166904
H190	H	1.070864	0.893133	0.537525
H191	H	1.404197	1.226467	0.870858
H192	H	1.737530	1.559800	1.204192
H193	H	1.158965	0.892261	0.514273
H194	H	1.492298	1.225594	0.847606
H195	H	1.825632	1.558928	1.180940
N196	N	0.926852	0.911232	0.318456
N197	N	1.260185	1.244565	0.651790
N198	N	1.593519	1.577898	0.985123
H199	H	0.930440	0.942018	0.272007
H200	H	1.263773	1.275351	0.605341
H201	H	1.597107	1.608684	0.938674
H202	H	0.892399	0.868118	0.309722
H203	H	1.225732	1.201452	0.643055
H204	H	1.559065	1.534785	0.976389
H205	H	0.978625	0.811369	0.448124
H206	H	1.311958	1.144702	0.781458
H207	H	1.645292	1.478035	1.114791
H208	H	0.633673	0.313623	0.241678
H209	H	0.967006	0.646956	0.575011
H210	H	1.300339	0.980290	0.908344
N211	N	0.498784	0.317486	0.223606
N212	N	0.832118	0.650820	0.556939
N213	N	1.165451	0.984153	0.890272
H214	H	0.514873	0.368902	0.208619
H215	H	0.848207	0.702235	0.541952
H216	H	1.181540	1.035568	0.875286
H217	H	0.519049	0.280144	0.187323
H218	H	0.852382	0.613477	0.520657
H219	H	1.185715	0.946811	0.853990
H220	H	1.161448	0.903766	0.265651
H221	H	1.494782	1.237099	0.598984
H222	H	1.828115	1.570432	0.932317
N223	N	0.499277	0.263965	0.461040
N224	N	0.832611	0.597299	0.794373
N225	N	1.165944	0.930632	1.127706
H226	H	0.465553	0.242448	0.422110
H227	H	0.798886	0.575781	0.755443
H228	H	1.132220	0.909115	1.088777
H229	H	0.542251	0.229295	0.469566
H230	H	0.875584	0.562629	0.802899
H231	H	1.208918	0.895962	1.136233
N232	N	1.213209	0.804048	0.395497
N233	N	1.546542	1.137381	0.728831
N234	N	1.879875	1.470714	1.062164
H235	H	1.212741	0.748100	0.394862
H236	H	1.546074	1.081433	0.728196
H237	H	1.879407	1.414767	1.061529
H238	H	1.250721	0.822803	0.358692
H239	H	1.584054	1.156137	0.692025
H240	H	1.917387	1.489470	1.025359
H241	H	0.954911	0.402168	0.793504
H242	H	1.288244	0.735501	1.126837
H243	H	1.621577	1.068835	1.460170
H244	H	0.507869	0.452757	0.277901
H245	H	0.841203	0.786090	0.611234
H246	H	1.174536	1.119424	0.944568
H247	H	0.994274	0.260101	0.921503
H248	H	1.327608	0.593434	1.254836
H249	H	1.660941	0.926768	1.588170
H250	H	1.165227	0.436150	0.792788
H251	H	1.498560	0.769483	1.126121
H252	H	1.831894	1.102817	1.459455
N253	N	0.640438	0.260206	0.456224
N254	N	0.973772	0.593539	0.789557
N255	N	1.307105	0.926872	1.122891
H256	H	0.672675	0.239712	0.415522
H257	H	1.006008	0.573045	0.748855
H258	H	1.339341	0.906378	1.082189
H259	H	0.669953	0.263512	0.503463
H260	H	1.003287	0.596845	0.836797
H261	H	1.336620	0.930178	1.170130
N262	N	0.641833	0.388064	0.494146
N263	N	0.975166	0.721397	0.827479
N264	N	1.308499	1.054730	1.160813
H265	H	0.675398	0.426327	0.471147
H266	H	1.008731	0.759661	0.804481
H267	H	1.342064	1.092994	1.137814
H268	H	0.598737	0.413664	0.518740
H269	H	0.932071	0.746997	0.852074
H270	H	1.265404	1.080331	1.185407
H271	H	1.164590	0.437177	0.919859
H272	H	1.497923	0.770510	1.253192
H273	H	1.831256	1.103844	1.586525
N274	N	0.935709	0.397803	0.927400
N275	N	1.269042	0.731136	1.260733
N276	N	1.602376	1.064470	1.594067
H277	H	0.937378	0.352665	0.960330
H278	H	1.270712	0.685999	1.293663
H279	H	1.604045	1.019332	1.626996
H280	H	0.915945	0.441402	0.956262
H281	H	1.249278	0.774735	1.289595
H282	H	1.582611	1.108069	1.622929
H283	H	1.025579	0.473133	0.921686
H284	H	1.358913	0.806466	1.255019
H285	H	1.692246	1.139799	1.588352
N286	N	1.030147	0.492616	0.787403
N287	N	1.363481	0.825949	1.120737
N288	N	1.696814	1.159282	1.454070
H289	H	1.037736	0.526597	0.831078
H290	H	1.371069	0.859931	1.164412
H291	H	1.704402	1.193264	1.497745
H292	H	1.076594	0.491338	0.756524
H293	H	1.409927	0.824671	1.089857
H294	H	1.743260	1.158004	1.423190
H295	H	1.192009	0.339880	0.920608
H296	H	1.525342	0.673213	1.253941
H297	H	1.858675	1.006546	1.587274
H298	H	0.634941	0.453370	0.278916
H299	H	0.968274	0.786704	0.612249
H300	H	1.301607	1.120037	0.945583
H301	H	0.507138	0.480361	0.374882
H302	H	0.840471	0.813694	0.708215
H303	H	1.173804	1.147027	1.041548
N304	N	0.640446	0.494706	0.388844
N305	N	0.973779	0.828039	0.722177
N306	N	1.307112	1.161373	1.055510
H307	H	0.673160	0.470993	0.427381
H308	H	1.006493	0.804327	0.760714
H309	H	1.339826	1.137660	1.094048
H310	H	0.669457	0.533440	0.360956
H311	H	1.002791	0.866773	0.694289
H312	H	1.336124	1.200107	1.027623
N313	N	1.206331	0.325860	0.787286
N314	N	1.539665	0.659193	1.120620
N315	N	1.872998	0.992526	1.453953
H316	H	1.182651	0.287252	0.754577
H317	H	1.515984	0.620585	1.087911
H318	H	1.849318	0.953919	1.421244
H319	H	1.244983	0.353778	0.758265
H320	H	1.578317	0.687112	1.091599
H321	H	1.911650	1.020445	1.424932
H322	H	0.507584	0.380220	0.477786
H323	H	0.840917	0.713554	0.811119
H324	H	1.174250	1.046887	1.144453
N325	N	0.972417	0.258634	0.787335
N326	N	1.305750	0.591968	1.120668
N327	N	1.639084	0.925301	1.454001
H328	H	0.952033	0.299479	0.755088
H329	H	1.285367	0.632812	1.088422
H330	H	1.618700	0.966145	1.421755
H331	H	0.975678	0.211256	0.757829
H332	H	1.309011	0.544589	1.091162
H333	H	1.642345	0.877922	1.424495
N334	N	1.099869	0.220413	0.785943
N335	N	1.433202	0.553747	1.119277
N336	N	1.766536	0.887080	1.452610
H337	H	1.138057	0.243416	0.752370
H338	H	1.471390	0.576749	1.085703
H339	H	1.804724	0.910082	1.419036
H340	H	1.125362	0.195712	0.829040
H341	H	1.458695	0.529045	1.162373
H342	H	1.792029	0.862378	1.495707
H343	H	1.092039	0.236841	0.920191
H344	H	1.425372	0.570174	1.253525
H345	H	1.758705	0.903508	1.586858
