data_functionalizedCrystal
_audit_creation_method	'MofGen! by Chris Wilmer'
_symmetry_space_group_name_H-M	'P1'
_symmetry_Int_Tables_number	1
_symmetry_cell_setting	triclinic
loop_
_symmetry_equiv_pos_as_xyz
  x,y,z
_cell_length_a	25.639239
_cell_length_b	16.120530
_cell_length_c	16.120297
_cell_angle_alpha	89.871860
_cell_angle_beta	92.868703
_cell_angle_gamma	92.865946
loop_
_atom_site_label
_atom_site_type_symbol
_atom_site_fract_x
_atom_site_fract_y
_atom_site_fract_z
Zn1	Zn	-0.264883	-1.247330	-0.534536
Zn2	Zn	0.235117	-0.747330	-0.034536
Zn3	Zn	-0.348114	-1.254246	-0.395469
Zn4	Zn	0.151886	-0.754246	0.104531
Zn5	Zn	-0.256048	-1.115324	-0.388455
Zn6	Zn	0.243952	-0.615324	0.111545
Zn7	Zn	-0.347633	-1.108202	-0.527439
Zn8	Zn	0.152367	-0.608202	-0.027439
O9	O	-0.304170	-1.181275	-0.461475
O10	O	0.195830	-0.681275	0.038525
O11	O	-0.279823	-1.364612	-0.521994
O12	O	0.220177	-0.864612	-0.021994
O13	O	-0.332406	-1.241692	-0.278174
O14	O	0.167594	-0.741692	0.221826
O15	O	-0.184058	-1.132921	-0.407868
O16	O	0.315942	-0.632921	0.092132
O17	O	-0.340973	-1.369693	-0.419823
O18	O	0.159027	-0.869693	0.080177
O19	O	-0.190549	-1.229905	-0.515193
O20	O	0.309451	-0.729905	-0.015193
O21	O	-0.264765	-1.139627	-0.273020
O22	O	0.235235	-0.639627	0.226980
O23	O	-0.264298	-0.998015	-0.400986
O24	O	0.235702	-0.498015	0.099014
O25	O	-0.340152	-1.120783	-0.644745
O26	O	0.159848	-0.620783	-0.144745
O27	O	-0.331585	-0.992782	-0.503096
O28	O	0.168415	-0.492782	-0.003096
O29	O	-0.279356	-1.223000	-0.649960
O30	O	0.220644	-0.723000	-0.149960
O31	O	-0.421212	-1.234787	-0.412941
O32	O	0.078788	-0.734787	0.087059
O33	O	-0.420858	-1.127489	-0.509898
O34	O	0.079142	-0.627489	-0.009898
C35	C	-0.440006	-1.181138	-0.461430
C36	C	0.059994	-0.681138	0.038570
C37	C	-0.498121	-1.181153	-0.461442
C38	C	0.001879	-0.681153	0.038558
C39	C	-0.296931	-0.965226	-0.450510
C40	C	0.203069	-0.465226	0.049490
C41	C	-0.293847	-0.872799	-0.445839
C42	C	0.206153	-0.372799	0.054161
C43	C	-0.310686	-1.170326	-0.678368
C44	C	0.189314	-0.670326	-0.178368
C45	C	-0.313462	-1.165659	-0.770795
C46	C	0.186538	-0.665659	-0.270795
C47	C	-0.858668	-1.237279	-0.411087
C48	C	-0.358668	-0.737279	0.088913
C49	C	-0.913274	-1.237311	-0.411099
C50	C	-0.413274	-0.737311	0.088901
O51	O	-0.941661	-1.284889	-0.368236
O52	O	-0.441661	-0.784889	0.131764
N53	N	-0.940415	-1.181419	-0.461537
N54	N	-0.440415	-0.681419	0.038463
C55	C	-0.912948	-1.125497	-0.511972
C56	C	-0.412948	-0.625497	-0.011972
O57	O	-0.941048	-1.077960	-0.554875
O58	O	-0.441048	-0.577960	-0.054875
C59	C	-0.858344	-1.125470	-0.511963
C60	C	-0.358344	-0.625470	-0.011963
C61	C	-0.831205	-1.181360	-0.461515
C62	C	-0.331205	-0.681360	0.038485
C63	C	-0.831529	-1.293166	-0.360644
C64	C	-0.331529	-0.793166	0.139356
C65	C	-0.776927	-1.293133	-0.360630
C66	C	-0.276927	-0.793133	0.139370
C67	C	-0.749464	-1.237214	-0.411059
C68	C	-0.249464	-0.737214	0.088941
C69	C	-0.776603	-1.181327	-0.461502
C70	C	-0.276603	-0.681327	0.038498
C71	C	-0.830878	-1.069553	-0.562401
C72	C	-0.330878	-0.569553	-0.062401
C73	C	-0.776270	-1.069531	-0.562388
C74	C	-0.276270	-0.569531	-0.062388
C75	C	-0.749131	-1.125421	-0.511941
C76	C	-0.249131	-0.625421	-0.011941
C77	C	-0.694538	-1.125375	-0.511917
C78	C	-0.194538	-0.625375	-0.011917
N79	N	-0.667396	-1.181267	-0.461479
N80	N	-0.167396	-0.681267	0.038521
C81	C	-0.694860	-1.237187	-0.411050
C82	C	-0.194860	-0.737187	0.088950
C83	C	-1.027621	-1.125559	-0.511988
C84	C	-0.527621	-0.625559	-0.011988
C85	C	-1.082224	-1.125581	-0.511993
C86	C	-0.582224	-0.625581	-0.011993
C87	C	-1.082546	-1.237397	-0.411121
C88	C	-0.582546	-0.737397	0.088879
C89	C	-1.027942	-1.237370	-0.411113
C90	C	-0.527942	-0.737370	0.088887
C91	C	-1.000480	-1.181451	-0.461550
C92	C	-0.500480	-0.681451	0.038450
C93	C	-0.580191	-1.237113	-0.411025
C94	C	-0.080191	-0.737113	0.088975
C95	C	-0.525584	-1.237072	-0.411013
C96	C	-0.025584	-0.737072	0.088987
C97	C	-0.525267	-1.125260	-0.511887
C98	C	-0.025267	-0.625260	-0.011887
C99	C	-0.579869	-1.125297	-0.511896
C100	C	-0.079869	-0.625297	-0.011896
C101	C	-0.607330	-1.181230	-0.461463
C102	C	-0.107330	-0.681230	0.038537
O103	O	-0.666116	-1.077824	-0.554760
O104	O	-0.166116	-0.577824	-0.054760
O105	O	-0.666754	-1.284723	-0.368163
O106	O	-0.166754	-0.784723	0.131837
C107	C	-0.167804	-1.181436	-0.461539
C108	C	0.332196	-0.681436	0.038461
C109	C	-0.109693	-1.181504	-0.461567
C110	C	0.390307	-0.681504	0.038433
C111	C	-0.311437	-1.398168	-0.472483
C112	C	0.188563	-0.898168	0.027517
C113	C	-0.314534	-1.490595	-0.477173
C114	C	0.185466	-0.990595	0.022827
C115	C	-0.288206	-0.703571	-0.437318
C116	C	0.211794	-0.203571	0.062682
C117	C	-0.320174	-0.659817	-0.485692
C118	C	0.179826	-0.159817	0.014308
C119	C	-0.317035	-0.565653	-0.480951
C120	C	0.182965	-0.065653	0.019049
C121	C	-0.291344	-0.797744	-0.442058
C122	C	0.208656	-0.297744	0.057942
C123	C	-0.318520	-1.157110	-0.940019
C124	C	0.181480	-0.657110	-0.440019
C125	C	-0.289668	-1.205605	-0.983790
C126	C	0.210332	-0.705605	-0.483790
C127	C	-0.292482	-1.200848	-1.077952
C128	C	0.207518	-0.700848	-0.577952
C129	C	-0.315706	-1.161866	-0.845849
C130	C	0.184294	-0.661866	-0.345849
C131	C	-0.297643	-1.192231	-0.245427
C132	C	0.202357	-0.692231	0.254573
C133	C	-0.294724	-1.197058	-0.153009
C134	C	0.205276	-0.697058	0.346991
H135	H	-0.754834	-1.338646	-0.319555
H136	H	-0.254834	-0.838646	0.180445
N137	N	-0.497871	-1.294167	-0.359470
N138	N	0.002129	-0.794167	0.140530
N139	N	-0.522403	-1.344090	-0.314450
N140	N	-0.022403	-0.844090	0.185550
H141	H	-0.502833	-1.384413	-0.278048
H142	H	-0.002833	-0.884413	0.221952
N143	N	-0.608229	-1.294250	-0.359502
N144	N	-0.108229	-0.794250	0.140498
N145	N	-0.583982	-1.344138	-0.314469
N146	N	-0.083982	-0.844138	0.185531
H147	H	-0.603782	-1.384487	-0.278076
H148	H	-0.103782	-0.884487	0.221924
H149	H	-0.601967	-1.079789	-0.552977
H150	H	-0.101967	-0.579789	-0.052977
H151	H	-0.258482	-0.670314	-0.392347
H152	H	0.241518	-0.170314	0.107653
H153	H	-0.262854	-1.250696	-0.950546
H154	H	0.237146	-0.750696	-0.450546
N155	N	-0.352161	-1.100549	-0.981709
N156	N	0.147839	-0.600549	-0.481709
N157	N	-0.400307	-1.106479	-0.972360
N158	N	0.099693	-0.606479	-0.472360
H159	H	-0.424066	-1.066531	-1.001809
H160	H	0.075934	-0.566531	-0.501809
H161	H	-0.853884	-1.338706	-0.319579
H162	H	-0.353884	-0.838706	0.180421
H163	H	-1.104917	-1.282932	-0.370062
H164	H	-0.604917	-0.782932	0.129938
N165	N	-1.000231	-1.294463	-0.359575
N166	N	-0.500231	-0.794463	0.140425
N167	N	-1.024764	-1.344380	-0.314552
N168	N	-0.524764	-0.844380	0.185448
H169	H	-1.005196	-1.384706	-0.278151
H170	H	-0.505196	-0.884706	0.221849
N171	N	-1.109934	-1.068472	-0.563514
N172	N	-0.609934	-0.568472	-0.063514
N173	N	-1.085400	-1.018548	-0.608530
N174	N	-0.585400	-0.518548	-0.108530
H175	H	-1.104967	-0.978214	-0.644922
H176	H	-0.604967	-0.478214	-0.144922
N177	N	-0.748228	-1.012409	-0.613921
N178	N	-0.248228	-0.512409	-0.113921
N179	N	-0.772470	-0.962518	-0.658957
N180	N	-0.272470	-0.462518	-0.158957
H181	H	-0.752666	-0.922174	-0.695352
H182	H	-0.252666	-0.422174	-0.195352
H183	H	-0.852965	-1.024037	-0.603477
H184	H	-0.352965	-0.524037	-0.103477
N185	N	-0.999573	-1.068438	-0.563517
N186	N	-0.499573	-0.568438	-0.063517
N187	N	-1.008144	-1.070022	-0.640529
N188	N	-0.508144	-0.570022	-0.140529
H189	H	-0.988337	-1.029682	-0.676924
H190	H	-0.488337	-0.529682	-0.176924
N191	N	-0.497200	-1.068142	-0.563384
N192	N	0.002800	-0.568142	-0.063384
N193	N	-0.448446	-1.068128	-0.563359
N194	N	0.051554	-0.568128	-0.063359
H195	H	-0.428622	-1.027790	-0.599731
H196	H	0.071378	-0.527790	-0.099731
N197	N	-0.357466	-0.701547	-0.542105
N198	N	0.142534	-0.201547	-0.042105
N199	N	-0.359998	-0.779091	-0.545921
N200	N	0.140002	-0.279091	-0.045921
H201	H	-0.386336	-0.808568	-0.585757
H202	H	0.113664	-0.308568	-0.085757
