data_functionalizedCrystal
_audit_creation_method	'MofGen! by Chris Wilmer'
_symmetry_space_group_name_H-M	'P1'
_symmetry_Int_Tables_number	1
_symmetry_cell_setting	triclinic
loop_
_symmetry_equiv_pos_as_xyz
  x,y,z
_cell_length_a	19.188930
_cell_length_b	17.666332
_cell_length_c	14.519709
_cell_angle_alpha	89.993850
_cell_angle_beta	96.587538
_cell_angle_gamma	90.023133
loop_
_atom_site_label
_atom_site_type_symbol
_atom_site_fract_x
_atom_site_fract_y
_atom_site_fract_z
O1	O	0.926560	0.063193	-0.115135
O2	O	1.426560	0.563193	0.384865
O3	O	0.723303	0.063142	-0.130634
O4	O	1.223303	0.563142	0.369366
O5	O	0.830321	0.063162	0.011387
O6	O	1.330321	0.563162	0.511387
O7	O	0.819543	0.063173	-0.257157
O8	O	1.319543	0.563173	0.242843
O9	O	0.830302	-0.062735	0.011391
O10	O	1.330302	0.437265	0.511391
O11	O	0.723285	-0.062755	-0.130630
O12	O	1.223285	0.437245	0.369370
O13	O	0.926541	-0.062703	-0.115131
O14	O	1.426541	0.437297	0.384869
Cu15	Cu	0.824911	-0.074225	-0.122880
Cu16	Cu	1.324911	0.425775	0.377120
Cu17	Cu	0.824933	0.074663	-0.122885
Cu18	Cu	1.324933	0.574663	0.377115
O19	O	0.819524	-0.062724	-0.257153
O20	O	1.319524	0.437276	0.242847
C21	C	0.697281	0.000187	-0.130130
C22	C	1.197281	0.500187	0.369870
C23	C	0.619771	0.000167	-0.128624
C24	C	1.119771	0.500167	0.371376
C25	C	0.575144	0.000182	-0.211957
C26	C	1.075144	0.500182	0.288043
C27	C	0.502315	0.000190	-0.210542
C28	C	1.002315	0.500190	0.289458
C29	C	0.474117	0.000198	-0.125788
C30	C	0.974117	0.500198	0.374212
C31	C	0.518754	0.000179	-0.042444
C32	C	1.018754	0.500179	0.457556
C33	C	0.591581	0.000163	-0.043861
C34	C	1.091581	0.500163	0.456139
N35	N	0.365913	0.043074	-0.061006
N36	N	0.865913	0.543074	0.438994
N37	N	0.296729	0.043091	-0.059665
N38	N	0.796729	0.543091	0.440335
C39	C	0.254693	0.000245	-0.121511
C40	C	0.754693	0.500245	0.378489
N41	N	0.284453	-0.042610	-0.184763
N42	N	0.784453	0.457390	0.315237
N43	N	0.353642	-0.042623	-0.186107
N44	N	0.853642	0.457377	0.313893
C45	C	0.395149	0.000215	-0.124241
C46	C	0.895149	0.500215	0.375759
C47	C	0.131096	0.000268	-0.203315
C48	C	0.631096	0.500268	0.296685
C49	C	0.058266	0.000271	-0.201896
C50	C	0.558266	0.500271	0.298104
C51	C	0.074706	0.000268	-0.033796
C52	C	0.574706	0.500268	0.466204
C53	C	0.147535	0.000256	-0.035217
C54	C	0.647535	0.500256	0.464783
C55	C	0.175725	0.000260	-0.119980
C56	C	0.675725	0.500260	0.380020
N57	N	0.824900	-0.178944	-0.122876
N58	N	1.324900	0.321056	0.377124
C59	C	0.867308	-0.218534	-0.178676
C60	C	1.367308	0.281466	0.321324
C61	C	0.867319	-0.297781	-0.178674
C62	C	1.367319	0.202219	0.321326
C63	C	0.824910	-0.337436	-0.122882
C64	C	1.324910	0.162564	0.377118
C65	C	0.782499	-0.297837	-0.067071
C66	C	1.282499	0.202163	0.432929
C67	C	0.782495	-0.218591	-0.067068
C68	C	1.282495	0.281409	0.432932
N69	N	0.763753	-0.461891	-0.120610
N70	N	1.263753	0.038109	0.379390
N71	N	0.763759	-0.537172	-0.120618
N72	N	1.263759	-0.037172	0.379382
C73	C	0.824922	-0.576200	-0.122885
C74	C	1.324922	-0.076200	0.377115
N75	N	0.886079	-0.537104	-0.125162
N76	N	1.386079	-0.037104	0.374838
N77	N	0.886072	-0.461817	-0.125159
N78	N	1.386072	0.038183	0.374841
C79	C	0.824910	-0.423365	-0.122878
C80	C	1.324910	0.076635	0.377122
C81	C	0.867346	-0.701719	-0.178685
C82	C	1.367346	-0.201719	0.321315
C83	C	0.867358	-0.780968	-0.178676
C84	C	1.367358	-0.280968	0.321324
C85	C	0.782532	-0.781022	-0.067078
C86	C	1.282532	-0.281022	0.432922
C87	C	0.782526	-0.701775	-0.067082
C88	C	1.282526	-0.201775	0.432918
C89	C	0.824932	-0.662128	-0.122890
C90	C	1.324932	-0.162128	0.377110
C91	C	0.952563	0.000253	-0.115635
C92	C	1.452563	0.500253	0.384365
C93	C	1.030073	0.000278	-0.117142
C94	C	1.530073	0.500278	0.382858
C95	C	0.829809	0.000213	0.045746
C96	C	1.329809	0.500213	0.545746
C97	C	0.828304	0.000213	0.148118
C98	C	1.328304	0.500213	0.648118
N99	N	0.824949	0.179382	-0.122882
N100	N	1.324949	0.679382	0.377118
C101	C	0.820035	0.000227	-0.291511
C102	C	1.320035	0.500227	0.208489
C103	C	0.821541	0.000232	-0.393883
C104	C	1.321541	0.500232	0.106117
C105	C	0.822762	0.000231	0.522979
C106	C	1.322762	0.500231	1.022979
C107	C	0.824301	0.000226	0.418681
C108	C	1.324301	0.500226	0.918681
C109	C	0.825533	0.000221	0.335552
C110	C	1.325533	0.500221	0.835552
C111	C	0.827072	0.000217	0.231247
C112	C	1.327072	0.500217	0.731247
H113	H	0.021931	0.000279	-0.269760
H114	H	0.521931	0.500279	0.230240
F115	F	0.912500	-0.823102	-0.238064
F116	F	1.412500	-0.323102	0.261936
H117	H	0.627917	0.000151	0.024001
H118	H	1.127917	0.500151	0.524001
H119	H	0.495790	0.000196	0.026564
H120	H	0.995790	0.500196	0.526564
H121	H	0.747970	-0.330129	-0.021643
H122	H	1.247970	0.169871	0.478357
H123	H	0.154049	0.000260	-0.272334
H124	H	0.654049	0.500260	0.227666
F125	F	0.912489	-0.659521	-0.238064
F126	F	1.412489	-0.159521	0.261936
H127	H	0.051748	0.000321	0.035213
H128	H	0.551748	0.500321	0.535213
F129	F	0.737403	-0.823221	-0.007690
F130	F	1.237403	-0.323221	0.492310
H131	H	0.598091	0.000186	-0.280978
H132	H	1.098091	0.500186	0.219022
F133	F	0.454811	0.000204	-0.299240
F134	F	0.954811	0.500204	0.200760
H135	H	0.183871	0.000248	0.032642
H136	H	0.683871	0.500248	0.532642
H137	H	0.901841	-0.186258	-0.224116
H138	H	1.401841	0.313742	0.275884
H139	H	0.901853	-0.330021	-0.224115
H140	H	1.401853	0.169979	0.275885
H141	H	0.747990	-0.669541	-0.021647
H142	H	1.247990	-0.169541	0.478353
H143	H	0.747960	-0.186357	-0.021628
H144	H	1.247960	0.313643	0.478372
