data_functionalizedCrystal
_audit_creation_method	'MofGen! by Chris Wilmer'
_symmetry_space_group_name_H-M	'P1'
_symmetry_Int_Tables_number	1
_symmetry_cell_setting	triclinic
loop_
_symmetry_equiv_pos_as_xyz
  x,y,z
_cell_length_a	15.944551
_cell_length_b	27.732048
_cell_length_c	15.021413
_cell_angle_alpha	89.999048
_cell_angle_beta	89.997174
_cell_angle_gamma	83.070697
loop_
_atom_site_label
_atom_site_type_symbol
_atom_site_fract_x
_atom_site_fract_y
_atom_site_fract_z
O1	O	1.113714	0.062334	-0.073949
O2	O	0.869064	0.070020	-0.073973
O3	O	0.998987	-0.004187	-0.073943
O4	O	0.983790	0.136541	-0.073979
O5	O	0.998966	-0.004176	0.074121
O6	O	0.869043	0.070030	0.074092
O7	O	1.113693	0.062345	0.074115
Zn8	Zn	0.991365	0.066189	0.097612
Zn9	Zn	0.991392	0.066175	-0.097469
O10	O	0.983770	0.136551	0.074086
C11	C	0.837763	0.069706	0.000057
C12	C	0.744530	0.068749	0.000049
C13	C	0.530305	0.020466	0.000078
C14	C	0.469001	0.042882	-0.072931
C15	C	0.573827	0.067019	0.000060
C16	C	0.469003	0.042904	0.073049
C17	C	0.408936	0.065344	0.000074
C18	C	0.513752	0.089448	-0.073010
C19	C	0.513760	0.089463	0.073036
C20	C	0.452474	0.111912	0.000009
C21	C	0.668816	0.067983	0.000051
C22	C	0.313947	0.064384	0.000077
C23	C	0.998658	-0.022190	0.000091
C24	C	0.997697	-0.075849	0.000099
C25	C	1.068426	-0.414358	0.000060
C26	C	1.064862	-0.616033	0.000047
O27	O	1.129539	-0.647008	0.000014
N28	N	0.987823	-0.635490	0.000040
C29	C	0.911669	-0.604525	0.000031
O30	O	0.846061	-0.625703	0.000016
C31	C	0.915234	-0.402851	0.000038
C32	C	0.992278	-0.383397	0.000053
C33	C	1.145464	-0.394903	0.000074
C34	C	1.146354	-0.344487	0.000082
C35	C	1.070206	-0.313526	0.000076
C36	C	0.993168	-0.332981	0.000061
C37	C	0.839081	-0.371887	0.000022
C38	C	0.839979	-0.321466	0.000021
C39	C	0.917024	-0.302012	0.000037
C40	C	0.917911	-0.251604	0.000063
N41	N	0.994950	-0.232147	0.000069
C42	C	1.071098	-0.263108	0.000076
C43	C	0.909803	-0.710408	0.000030
C44	C	0.908912	-0.760826	0.000030
C45	C	1.062105	-0.772330	0.000044
C46	C	1.062995	-0.721911	0.000050
C47	C	0.986842	-0.690950	0.000036
C48	C	1.072961	-0.157231	0.000093
C49	C	1.073845	-0.106810	0.000105
C50	C	0.920652	-0.095310	0.000086
C51	C	0.919768	-0.145727	0.000079
C52	C	0.995930	-0.176686	0.000080
O53	O	0.853269	-0.220600	0.000085
O54	O	1.136697	-0.241921	0.000071
C55	C	1.067536	-0.464774	0.000052
C56	C	0.990498	-0.484228	0.000037
C57	C	0.914350	-0.453268	0.000031
C58	C	0.989607	-0.534647	0.000037
C59	C	1.065754	-0.565608	0.000044
C60	C	1.142794	-0.546150	0.000050
C61	C	1.143684	-0.495734	0.000058
C62	C	0.837311	-0.472725	0.000024
C63	C	0.836427	-0.523141	0.000017
C64	C	0.912575	-0.554102	0.000023
C65	C	1.144993	0.062658	0.000084
C66	C	1.238227	0.063615	0.000086
C67	C	0.984099	0.154554	0.000049
C68	C	0.985059	0.208213	0.000036
N69	N	0.991352	0.066198	0.230749
N70	N	0.991411	0.066162	-0.230607
C71	C	0.931267	0.100495	0.470419
C72	C	1.007044	0.109879	0.529758
C73	C	0.991374	0.066186	0.412356
C74	C	0.915617	0.056813	0.529759
C75	C	0.991388	0.066176	0.587780
C76	C	1.067190	0.075592	0.470389
C77	C	0.975712	0.022507	0.470385
C78	C	1.051545	0.031872	0.529697
C79	C	0.991365	0.066194	0.311299
C80	C	0.991406	0.066168	0.688836
H81	H	0.449157	0.023188	-0.134645
H82	H	0.775301	-0.447521	0.000017
H83	H	0.773684	-0.538976	0.000012
H84	H	0.418809	0.150587	-0.000042
N85	N	1.023668	0.156209	0.562499
N86	N	1.026949	0.163501	0.644473
H87	H	1.038682	0.196222	0.667595
H88	H	1.124107	-0.797547	0.000049
N89	N	0.538704	0.114152	0.150446
N90	N	0.574570	0.151581	0.142356
H91	H	0.592190	0.169015	0.197033
H92	H	0.564143	-0.018169	-0.000003
N93	N	1.147584	0.085583	0.437804
N94	N	1.160543	0.087216	0.355852
H95	H	1.217320	0.094273	0.332836
N96	N	0.835246	0.046874	0.562495
N97	N	0.792567	0.077089	0.611180
H98	H	0.735804	0.070073	0.634301
H99	H	0.777965	-0.296260	0.000009
N100	N	1.115392	-0.004533	0.562136
N101	N	1.191178	-0.002559	0.542918
H102	H	1.236273	-0.028268	0.565829
N103	N	0.444102	0.018207	0.150481
N104	N	0.367914	0.013836	0.163210
H105	H	0.350328	-0.003608	0.217893
H106	H	1.206421	-0.479900	0.000071
H107	H	1.136586	-0.090973	0.000120
N108	N	0.538517	0.114134	-0.150512
N109	N	0.614605	0.118842	-0.163035
H110	H	0.632098	0.136279	-0.217766
N111	N	1.150765	-0.188843	0.000091
N112	N	1.219538	-0.171458	0.000105
H113	H	1.274487	-0.193783	0.000108
H114	H	0.846175	-0.776661	0.000032
N115	N	1.225061	-0.324627	0.000095
N116	N	1.293038	-0.352284	0.000097
H117	H	1.348630	-0.338261	0.000103
N118	N	1.223262	-0.426517	0.000075
N119	N	1.292033	-0.409130	0.000085
H120	H	1.346984	-0.431454	0.000090
N121	N	0.959042	-0.023813	0.437650
N122	N	0.891099	-0.039644	0.456639
H123	H	0.879317	-0.072358	0.433519
H124	H	0.847786	-0.685203	0.000018
N125	N	1.141701	-0.702049	0.000070
N126	N	1.209680	-0.729704	0.000083
H127	H	1.265270	-0.715679	0.000097
N128	N	0.760374	-0.391743	0.000004
N129	N	0.692398	-0.364085	-0.000012
H130	H	0.636805	-0.378106	-0.000027
H131	H	0.857033	-0.161567	0.000091
N132	N	0.842880	-0.063673	0.000087
N133	N	0.843696	-0.018658	0.000091
H134	H	0.788769	0.003688	0.000088
H135	H	0.880487	0.129533	0.444392
N136	N	1.220570	-0.577788	0.000066
N137	N	1.219752	-0.622802	0.000062
H138	H	1.274677	-0.645149	0.000071
