data_functionalizedCrystal
_audit_creation_method	'MofGen! by Chris Wilmer'
_symmetry_space_group_name_H-M	'P1'
_symmetry_Int_Tables_number	1
_symmetry_cell_setting	triclinic
loop_
_symmetry_equiv_pos_as_xyz
  x,y,z
_cell_length_a	19.805407
_cell_length_b	19.121063
_cell_length_c	19.805407
_cell_angle_alpha	87.576166
_cell_angle_beta	90.002724
_cell_angle_gamma	92.469032
loop_
_atom_site_label
_atom_site_type_symbol
_atom_site_fract_x
_atom_site_fract_y
_atom_site_fract_z
Zn1	Zn	1.023114	-0.279727	0.394207
Zn2	Zn	1.018230	-0.397153	0.285841
Zn3	Zn	0.909962	-0.279719	0.281031
Zn4	Zn	0.905061	-0.397143	0.398987
O5	O	0.964092	-0.338435	0.340016
O6	O	1.117182	-0.295311	0.379844
O7	O	1.003876	-0.381575	0.190486
O8	O	0.929067	-0.181434	0.292030
O9	O	1.113595	-0.381583	0.300228
O10	O	1.012199	-0.181440	0.375180
O11	O	0.924332	-0.295297	0.186952
O12	O	0.814596	-0.295288	0.296666
O13	O	0.920713	-0.381567	0.493069
O14	O	0.810995	-0.381559	0.383327
O15	O	1.007446	-0.295302	0.489557
O16	O	0.999123	-0.495437	0.304863
O17	O	0.915978	-0.495430	0.387991
C18	C	0.788236	-0.338422	0.339994
C19	C	0.713004	-0.338433	0.340001
C20	C	0.675800	-0.383422	0.385058
C21	C	0.605111	-0.383423	0.385068
C22	C	0.571628	-0.338438	0.340016
C23	C	0.608837	-0.293445	0.294957
C24	C	0.679525	-0.293440	0.294951
C25	C	0.323763	-0.293460	0.294980
C26	C	0.253071	-0.293469	0.294988
C27	C	0.249350	-0.383443	0.385097
C28	C	0.320037	-0.383439	0.385091
C29	C	0.357241	-0.338443	0.340034
C30	C	0.433889	-0.338441	0.340025
C31	C	0.494981	-0.338443	0.340021
C32	C	0.956507	-0.520918	0.347482
C33	C	0.953325	-0.598985	0.350699
C34	C	0.995152	-0.635641	0.308966
C35	C	0.992163	-0.708993	0.311995
C36	C	0.947342	-0.745688	0.356755
C37	C	0.905513	-0.709026	0.398493
C38	C	0.908506	-0.635675	0.395466
C39	C	0.936141	-0.967161	0.368059
C40	C	0.933149	-1.040517	0.371081
C41	C	1.019801	-1.040479	0.284584
C42	C	1.022787	-0.967127	0.281559
C43	C	0.980960	-0.930471	0.323299
C44	C	0.944284	-0.820665	0.359851
C45	C	0.984022	-0.855495	0.320206
C46	C	1.140634	-0.338449	0.340039
C47	C	1.215866	-0.338455	0.340049
C48	C	0.964078	-0.338434	0.516559
C49	C	0.964072	-0.338434	0.591791
C50	C	0.971724	-0.155240	0.332536
C51	C	0.974977	-0.077173	0.329348
C52	C	1.005513	-0.383368	1.055420
C53	C	1.005507	-0.383369	0.984731
C54	C	0.964091	-0.338448	0.947553
C55	C	0.922673	-0.293528	0.981067
C56	C	0.922675	-0.293532	1.051754
C57	C	0.922660	-0.293514	0.695993
C58	C	0.922661	-0.293512	0.625301
C59	C	1.005491	-0.383351	0.628970
C60	C	1.005494	-0.383354	0.699657
C61	C	0.964074	-0.338438	0.733165
C62	C	0.964080	-0.338439	0.809814
C63	C	0.964088	-0.338443	0.870906
C64	C	0.964098	-0.338452	1.164161
C65	C	0.964100	-0.338451	1.088929
H66	H	0.709816	-0.256802	0.258264
C67	C	1.069371	-0.862824	0.235007
C68	C	1.033287	-0.815164	0.271005
H69	H	1.099786	-0.837919	0.204634
H70	H	1.038735	-0.891469	0.210273
H71	H	1.094074	-0.891400	0.265703
H72	H	1.008581	-0.786591	0.240310
H73	H	1.063928	-0.786507	0.295741
H74	H	0.703056	-0.420056	0.421743
H75	H	1.026223	-0.738836	0.278011
H76	H	0.225811	-0.256833	0.258301
H77	H	1.039222	-0.419954	0.957452
H78	H	0.581570	-0.256814	0.258278
H79	H	1.039216	-0.419926	0.601680
H80	H	0.888953	-0.256955	1.079036
C81	C	1.107499	-1.122881	0.278674
C82	C	1.065787	-1.080767	0.238714
H83	H	1.135896	-1.147748	0.250354
H84	H	1.080377	-1.155233	0.305752
H85	H	1.134523	-1.094220	0.307008
H86	H	1.038760	-1.109429	0.210383
H87	H	1.092912	-1.048412	0.211624
H88	H	0.888933	-0.256930	0.595032
H89	H	1.031647	-0.605770	0.272515
C90	C	0.395610	-0.477925	0.398209
C91	C	0.356842	-0.432886	0.434614
H92	H	0.418327	-0.508452	0.428786
H93	H	0.427881	-0.451131	0.371378
H94	H	0.366910	-0.504747	0.369781
H95	H	0.385542	-0.406060	0.463039
H96	H	0.324567	-0.459683	0.461457
H97	H	0.888947	-0.256956	0.950791
C98	C	1.010971	-0.477823	0.783016
C99	C	1.051023	-0.432726	0.740528
H100	H	1.039080	-0.508299	0.808251
H101	H	0.980371	-0.504690	0.756537
H102	H	0.986307	-0.451062	0.813083
H103	H	1.075683	-0.459487	0.710458
H104	H	1.081635	-0.405856	0.767010
H105	H	0.574823	-0.420059	0.421758
H106	H	0.219051	-0.420079	0.421787
C107	C	0.320331	-0.204523	0.205911
C108	C	0.364651	-0.244002	0.245453
H109	H	0.345577	-0.173990	0.175332
H110	H	0.293877	-0.177713	0.234350
H111	H	0.291490	-0.235093	0.181225
H112	H	0.393489	-0.213432	0.270143
H113	H	0.391117	-0.270814	0.217010
H114	H	0.902082	-0.937322	0.402045
H115	H	1.059283	-0.937251	0.245112
H116	H	1.039243	-0.419945	1.085685
C117	C	0.847808	-1.033190	0.456294
C118	C	0.883885	-1.080853	0.420291
H119	H	0.817400	-1.058094	0.486675
H120	H	0.823104	-1.004618	0.425607
H121	H	0.878454	-1.004543	0.481025
H122	H	0.853239	-1.109498	0.395556
H123	H	0.908590	-1.109437	0.450983
C124	C	0.862443	-0.821483	0.441533
C125	C	0.856243	-0.749359	0.447692
H126	H	0.832021	-0.846380	0.471903
H127	H	0.907417	-0.833459	0.451978
H128	H	0.852087	-0.833524	0.396540
H129	H	0.866604	-0.737317	0.492684
H130	H	0.811259	-0.737378	0.437251
H131	H	0.907790	-0.850550	0.396293
C132	C	0.822555	-0.643076	0.481268
C133	C	0.862529	-0.595380	0.441342
H134	H	0.794170	-0.618198	0.509589
H135	H	0.850857	-0.671649	0.508359
H136	H	0.795519	-0.671719	0.452929
H137	H	0.889569	-0.566739	0.469681
H138	H	0.834224	-0.566794	0.414248
H139	H	0.888931	-0.256941	0.723267
