data_functionalizedCrystal
_audit_creation_method	'MofGen! by Chris Wilmer'
_symmetry_space_group_name_H-M	'P1'
_symmetry_Int_Tables_number	1
_symmetry_cell_setting	triclinic
loop_
_symmetry_equiv_pos_as_xyz
  x,y,z
_cell_length_a	16.120484
_cell_length_b	16.625548
_cell_length_c	16.625539
_cell_angle_alpha	89.979432
_cell_angle_beta	92.868615
_cell_angle_gamma	92.926626
loop_
_atom_site_label
_atom_site_type_symbol
_atom_site_fract_x
_atom_site_fract_y
_atom_site_fract_z
Zn1	Zn	-0.331882	1.216388	-0.472167
Zn2	Zn	-0.081882	1.466388	-0.222167
Zn3	Zn	0.168118	1.716388	0.027833
Zn4	Zn	0.418118	1.966388	0.277833
Zn5	Zn	-0.471307	1.209447	-0.344164
Zn6	Zn	-0.221307	1.459447	-0.094164
Zn7	Zn	0.028693	1.709447	0.155836
Zn8	Zn	0.278693	1.959447	0.405836
Zn9	Zn	-0.331914	1.081548	-0.337349
Zn10	Zn	-0.081914	1.331548	-0.087349
Zn11	Zn	0.168086	1.581548	0.162651
Zn12	Zn	0.418086	1.831548	0.412651
Zn13	Zn	-0.471259	1.074678	-0.478951
Zn14	Zn	-0.221259	1.324678	-0.228951
Zn15	Zn	0.028741	1.574678	0.021049
Zn16	Zn	0.278741	1.824678	0.271049
O17	O	-0.401591	1.145515	-0.408158
O18	O	-0.151591	1.395515	-0.158158
O19	O	0.098409	1.645515	0.091842
O20	O	0.348409	1.895515	0.341842
O21	O	-0.350384	1.328299	-0.455200
O22	O	-0.100384	1.578299	-0.205200
O23	O	0.149616	1.828299	0.044800
O24	O	0.399616	2.078299	0.294800
O25	O	-0.452849	1.192451	-0.230429
O26	O	-0.202849	1.442451	0.019571
O27	O	0.047151	1.692451	0.269571
O28	O	0.297151	1.942451	0.519571
O29	O	-0.215244	1.105215	-0.349541
O30	O	0.034756	1.355215	-0.099541
O31	O	0.284756	1.605215	0.150459
O32	O	0.534756	1.855215	0.400459
O33	O	-0.452819	1.323200	-0.361156
O34	O	-0.202819	1.573200	-0.111156
O35	O	0.047181	1.823200	0.138844
O36	O	0.297181	2.073200	0.388844
O37	O	-0.215221	1.204281	-0.448592
O38	O	0.034779	1.454281	-0.198592
O39	O	0.284779	1.704281	0.051408
O40	O	0.534779	1.954281	0.301408
O41	O	-0.350438	1.098484	-0.225422
O42	O	-0.100438	1.348484	0.024578
O43	O	0.149562	1.598484	0.274578
O44	O	0.399562	1.848484	0.524578
O45	O	-0.350392	0.967805	-0.356120
O46	O	-0.100392	1.217805	-0.106120
O47	O	0.149608	1.467805	0.143880
O48	O	0.399608	1.717805	0.393880
O49	O	-0.452737	1.093506	-0.590882
O50	O	-0.202737	1.343506	-0.340882
O51	O	0.047263	1.593506	-0.090882
O52	O	0.297263	1.843506	0.159118
O53	O	-0.452768	0.962757	-0.460155
O54	O	-0.202768	1.212757	-0.210155
O55	O	0.047232	1.462757	0.039845
O56	O	0.297232	1.712757	0.289845
O57	O	-0.350338	1.197620	-0.585898
O58	O	-0.100338	1.447620	-0.335898
O59	O	0.149662	1.697620	-0.085898
O60	O	0.399662	1.947620	0.164102
O61	O	-0.587966	1.185789	-0.367735
O62	O	-0.337966	1.435789	-0.117735
O63	O	-0.087966	1.685789	0.132265
O64	O	0.162034	1.935789	0.382265
O65	O	-0.587931	1.086775	-0.466763
O66	O	-0.337931	1.336775	-0.216763
O67	O	-0.087931	1.586775	0.033237
O68	O	0.162069	1.836775	0.283237
C69	C	-0.401579	0.936025	-0.408135
C70	C	-0.151579	1.186025	-0.158135
C71	C	0.098421	1.436025	0.091865
C72	C	0.348421	1.686025	0.341865
C73	C	-0.401594	0.846403	-0.408145
C74	C	-0.151594	1.096403	-0.158145
C75	C	0.098406	1.346403	0.091855
C76	C	0.348406	1.596403	0.341855
C77	C	-0.618199	1.134805	-0.418742
C78	C	-0.368199	1.384805	-0.168742
C79	C	-0.118199	1.634805	0.081258
C80	C	0.131801	1.884805	0.331258
C81	C	-0.710865	1.130297	-0.423297
C82	C	-0.460865	1.380297	-0.173297
C83	C	-0.210865	1.630297	0.076703
C84	C	0.039135	1.880297	0.326703
C85	C	-0.880527	1.122072	-0.431630
C86	C	-0.630527	1.372072	-0.181630
C87	C	-0.380527	1.622072	0.068370
C88	C	-0.130527	1.872072	0.318370
C89	C	-0.921814	1.169103	-0.384698
C90	C	-0.671814	1.419103	-0.134698
C91	C	-0.421814	1.669103	0.115302
C92	C	-0.171814	1.919103	0.365302
C93	C	-1.016220	1.164526	-0.389335
C94	C	-0.766220	1.414526	-0.139335
C95	C	-0.516220	1.664526	0.110665
C96	C	-0.266220	1.914526	0.360665
C97	C	-0.786113	1.126648	-0.426995
C98	C	-0.536113	1.376648	-0.176995
C99	C	-0.286113	1.626648	0.073005
C100	C	-0.036113	1.876648	0.323005
C101	C	-0.401599	0.518227	-0.408180
C102	C	-0.151599	0.768227	-0.158180
C103	C	0.098401	1.018227	0.091820
C104	C	0.348401	1.268227	0.341820
C105	C	-0.401595	0.609536	-0.408167
C106	C	-0.151595	0.859536	-0.158167
C107	C	0.098405	1.109536	0.091833
C108	C	0.348405	1.359536	0.341833
C109	C	-0.401597	0.682312	-0.408162
C110	C	-0.151597	0.932312	-0.158162
C111	C	0.098403	1.182312	0.091838
C112	C	0.348403	1.432312	0.341838
C113	C	-0.401592	0.773627	-0.408150
C114	C	-0.151592	1.023627	-0.158150
C115	C	0.098408	1.273627	0.091850
C116	C	0.348408	1.523627	0.341850
C117	C	-0.184136	1.156289	-0.397549
C118	C	0.065864	1.406289	-0.147549
C119	C	0.315864	1.656289	0.102451
C120	C	0.565864	1.906289	0.352451
C121	C	-0.091470	1.160880	-0.393029
C122	C	0.158530	1.410880	-0.143029
C123	C	0.408530	1.660880	0.106971
C124	C	0.658530	1.910880	0.356971
C125	C	-0.401529	1.145571	-0.618464
C126	C	-0.151529	1.395571	-0.368464
C127	C	0.098471	1.645571	-0.118464
C128	C	0.348471	1.895571	0.131536
C129	C	-0.401502	1.145594	-0.708084
C130	C	-0.151502	1.395594	-0.458084
C131	C	0.098498	1.645594	-0.208084
C132	C	0.348498	1.895594	0.041916
C133	C	-0.401603	1.355823	-0.408181
C134	C	-0.151603	1.605823	-0.158181
C135	C	0.098397	1.855823	0.091819
C136	C	0.348397	2.105823	0.341819
C137	C	-0.401609	1.445444	-0.408192
C138	C	-0.151609	1.695444	-0.158192
C139	C	0.098391	1.945444	0.091808
C140	C	0.348391	2.195444	0.341808
C141	C	-0.401409	1.145636	-1.036255
C142	C	-0.151409	1.395636	-0.786255
C143	C	0.098591	1.645636	-0.536255
C144	C	0.348591	1.895636	-0.286255
C145	C	-0.401437	1.145622	-0.944948
C146	C	-0.151437	1.395622	-0.694948
C147	C	0.098563	1.645622	-0.444948
C148	C	0.348563	1.895622	-0.194948
C149	C	-0.401456	1.145616	-0.872172
C150	C	-0.151456	1.395616	-0.622172
C151	C	0.098544	1.645616	-0.372172
C152	C	0.348544	1.895616	-0.122172
C153	C	-0.401483	1.145601	-0.780859
C154	C	-0.151483	1.395601	-0.530859
C155	C	0.098517	1.645601	-0.280859
C156	C	0.348517	1.895601	-0.030859
C157	C	-0.401592	1.145509	-0.198667
C158	C	-0.151592	1.395509	0.051333
C159	C	0.098408	1.645509	0.301333
C160	C	0.348408	1.895509	0.551333
C161	C	-0.401384	1.145653	-0.109036
C162	C	-0.151384	1.395653	0.140964
C163	C	0.098616	1.645653	0.390964
C164	C	0.348616	1.895653	0.640964
H165	H	-0.886260	1.212805	-0.341036
H166	H	-0.636260	1.462805	-0.091036
H167	H	-0.386260	1.712805	0.158964
H168	H	-0.136260	1.962805	0.408964
O169	O	-0.922842	1.069826	-0.483669
O170	O	-0.672842	1.319826	-0.233669
O171	O	-0.422842	1.569826	0.016331
O172	O	-0.172842	1.819826	0.266331
C173	C	-0.949832	0.931362	-0.523935
C174	C	-0.699832	1.181362	-0.273935
C175	C	-0.449832	1.431362	-0.023935
C176	C	-0.199832	1.681362	0.226065
C177	C	-0.901832	0.990443	-0.464964
C178	C	-0.651832	1.240443	-0.214964
C179	C	-0.401832	1.490443	0.035036
C180	C	-0.151832	1.740443	0.285036
H181	H	-0.932877	0.867167	-0.508822
H182	H	-0.682877	1.117167	-0.258822
H183	H	-0.432877	1.367167	-0.008822
H184	H	-0.182877	1.617167	0.241178
H185	H	-0.932696	0.946225	-0.588154
H186	H	-0.682696	1.196225	-0.338154
H187	H	-0.432696	1.446225	-0.088154
H188	H	-0.182696	1.696225	0.161846
H189	H	-1.019512	0.936956	-0.518451
H190	H	-0.769512	1.186956	-0.268451
H191	H	-0.519512	1.436956	-0.018451
H192	H	-0.269512	1.686956	0.231549
H193	H	-0.832141	0.984881	-0.470376
H194	H	-0.582141	1.234881	-0.220376
H195	H	-0.332141	1.484881	0.029624
H196	H	-0.082141	1.734881	0.279624
H197	H	-0.919037	0.975562	-0.400768
H198	H	-0.669037	1.225562	-0.150768
H199	H	-0.419037	1.475562	0.099232
H200	H	-0.169037	1.725562	0.349232
