data_functionalizedCrystal
_audit_creation_method	'MofGen! by Chris Wilmer'
_symmetry_space_group_name_H-M	'P1'
_symmetry_Int_Tables_number	1
_symmetry_cell_setting	triclinic
loop_
_symmetry_equiv_pos_as_xyz
  x,y,z
_cell_length_a	19.288864
_cell_length_b	10.540539
_cell_length_c	18.366186
_cell_angle_alpha	89.995944
_cell_angle_beta	89.977106
_cell_angle_gamma	83.830869
loop_
_atom_site_label
_atom_site_type_symbol
_atom_site_fract_x
_atom_site_fract_y
_atom_site_fract_z
O1	O	0.922409	0.158345	-0.060780
O2	O	0.720291	0.179705	-0.060730
O3	O	0.825961	-0.015784	-0.060755
O4	O	0.816739	0.353834	-0.060755
O5	O	0.825943	-0.015794	0.060344
O6	O	0.720273	0.179696	0.060370
O7	O	0.922391	0.158335	0.060319
Zn8	Zn	0.821329	0.169014	0.079572
Zn9	Zn	0.821353	0.169027	-0.079982
O10	O	0.816721	0.353825	0.060345
C11	C	0.694401	0.179013	-0.000174
C12	C	0.617284	0.176950	-0.000155
C13	C	0.573353	0.291654	-0.000166
C14	C	0.500893	0.289716	-0.000174
C15	C	0.472367	0.173067	-0.000185
C16	C	0.516308	0.058347	-0.000170
C17	C	0.588766	0.060289	-0.000155
C18	C	0.363499	0.081371	-0.042637
C19	C	0.291042	0.079434	-0.042656
C20	C	0.248881	0.167074	-0.000230
C21	C	0.279186	0.256671	0.042208
C22	C	0.351644	0.258613	0.042223
C23	C	0.393799	0.170949	-0.000202
C24	C	0.126381	0.279684	-0.000249
C25	C	0.053919	0.277741	-0.000252
C26	C	0.069336	0.046369	-0.000255
C27	C	0.141795	0.048315	-0.000244
C28	C	0.170313	0.164976	-0.000245
C29	C	0.825261	-0.063076	-0.000207
C30	C	0.823192	-0.203978	-0.000210
C31	C	0.743903	-0.385638	-0.000462
C32	C	0.746000	-0.239067	-0.000190
C33	C	0.860329	-0.266469	0.068934
C34	C	0.857695	-0.412955	0.068993
C35	C	0.859285	-0.413498	-0.068720
C36	C	0.859996	-0.266531	-0.069634
C37	C	0.948281	0.159027	-0.000238
C38	C	1.025399	0.161091	-0.000262
C39	C	0.817422	0.401117	-0.000206
C40	C	0.819491	0.542019	-0.000207
N41	N	0.821318	0.169005	0.188463
N42	N	0.821370	0.169026	-0.188873
C43	C	0.868124	0.082484	0.226552
C44	C	0.868129	0.082479	0.302780
C45	C	0.821333	0.169015	0.340915
C46	C	0.774518	0.255542	0.302817
C47	C	0.774510	0.255537	0.226591
C48	C	0.812807	0.284670	0.461677
C49	C	0.812820	0.284677	0.537902
C50	C	0.821353	0.169031	0.576023
C51	C	0.829889	0.053374	0.537909
C52	C	0.829881	0.053368	0.461683
C53	C	0.821336	0.169030	0.423570
C54	C	0.868167	0.082497	0.696767
C55	C	0.868167	0.082490	0.772996
C56	C	0.774559	0.255565	0.773032
C57	C	0.774556	0.255561	0.696804
C58	C	0.821364	0.169029	0.658676
H59	H	0.244859	0.328035	0.076756
H60	H	0.397822	0.010002	-0.077190
Br61	Br	0.477596	-0.099964	-0.000178
H62	H	0.917016	-0.245379	0.071492
Br63	Br	0.249921	-0.042145	-0.100259
H64	H	0.465117	0.383125	-0.000181
H65	H	0.376315	0.331563	0.076779
Br66	Br	0.841458	-0.103586	0.409959
H67	H	0.913209	-0.462161	0.072117
Br68	Br	0.801294	0.441635	0.409950
Br69	Br	0.815093	-0.196599	-0.154905
Br70	Br	0.030630	-0.111944	-0.000259
H71	H	0.596567	0.386649	-0.000167
H72	H	0.149601	0.374676	-0.000238
Br73	Br	0.931656	-0.034954	0.354482
H74	H	0.836838	-0.040796	0.568945
H75	H	0.906279	0.012034	0.665722
H76	H	0.736394	0.325993	0.195578
H77	H	0.736455	0.326019	0.804082
Br78	Br	0.201420	-0.107364	-0.000231
Br79	Br	0.817652	-0.465133	-0.156071
H80	H	0.713527	-0.415173	0.048859
Br81	Br	0.711004	0.372977	0.354570
Br82	Br	0.693087	-0.432160	-0.083107
H83	H	0.716778	-0.195808	-0.049755
H84	H	0.906280	0.012028	0.804009
H85	H	0.736445	0.326019	0.665790
Br86	Br	0.801243	0.441637	0.589620
Br87	Br	0.817309	-0.194522	0.154721
Br88	Br	0.696923	-0.168371	0.082581
Br89	Br	0.811921	-0.458950	0.155162
H90	H	0.018151	0.371151	-0.000257
H91	H	0.915040	-0.461966	-0.069199
Br92	Br	0.648391	-0.095394	-0.000138
H93	H	0.916275	-0.243564	-0.073824
H94	H	0.906236	0.012022	0.195510
