data_functionalizedCrystal
_audit_creation_method	'MofGen! by Chris Wilmer'
_symmetry_space_group_name_H-M	'P1'
_symmetry_Int_Tables_number	1
_symmetry_cell_setting	triclinic
loop_
_symmetry_equiv_pos_as_xyz
  x,y,z
_cell_length_a	15.712078
_cell_length_b	9.065218
_cell_length_c	8.140239
_cell_angle_alpha	90.001686
_cell_angle_beta	89.988243
_cell_angle_gamma	77.701483
loop_
_atom_site_label
_atom_site_type_symbol
_atom_site_fract_x
_atom_site_fract_y
_atom_site_fract_z
O1	O	1.153258	-0.812440	-0.136980
O2	O	1.653258	-0.312440	0.363020
O3	O	0.900719	-0.699656	-0.136901
O4	O	1.400719	-0.199656	0.363099
O5	O	1.032208	-0.544104	-0.136939
O6	O	1.532208	-0.044104	0.363061
O7	O	1.021768	-0.967993	-0.136942
O8	O	1.521768	-0.467993	0.363058
O9	O	1.032201	-0.544097	0.136288
O10	O	1.532201	-0.044097	0.636288
O11	O	0.900712	-0.699650	0.136326
O12	O	1.400712	-0.199650	0.636326
O13	O	1.153250	-0.812433	0.136247
O14	O	1.653250	-0.312433	0.636247
Zn15	Zn	1.026980	-0.756041	0.179667
Zn16	Zn	1.526980	-0.256041	0.679667
Zn17	Zn	1.026990	-0.756049	-0.180321
Zn18	Zn	1.526990	-0.256049	0.319679
O19	O	1.021761	-0.967986	0.136285
O20	O	1.521761	-0.467986	0.636285
C21	C	0.868368	-0.681228	-0.000277
C22	C	1.368368	-0.181228	0.499723
C23	C	0.771983	-0.626310	-0.000247
C24	C	1.271983	-0.126310	0.499753
C25	C	0.408537	-1.092580	-0.000364
C26	C	0.908537	-0.592580	0.499636
C27	C	0.317971	-1.040941	-0.000404
C28	C	0.817971	-0.540941	0.499596
C29	C	0.336561	-0.782195	-0.000406
C30	C	0.836561	-0.282195	0.499594
C31	C	0.427131	-0.833812	-0.000374
C32	C	0.927131	-0.333812	0.499626
C33	C	0.463111	-0.989006	-0.000351
C34	C	0.963111	-0.489006	0.499649
C35	C	0.481705	-0.730238	-0.000360
C36	C	0.981705	-0.230238	0.499640
C37	C	0.572266	-0.781851	-0.000319
C38	C	1.072266	-0.281851	0.499681
C39	C	0.608254	-0.937038	-0.000292
C40	C	1.108254	-0.437038	0.499708
C41	C	0.553673	-1.040619	-0.000310
C42	C	1.053673	-0.540619	0.499690
C43	C	0.445723	-0.575045	-0.000371
C44	C	0.945723	-0.075045	0.499629
C45	C	0.500297	-0.471471	-0.000358
C46	C	1.000297	0.028529	0.499642
C47	C	0.590860	-0.523084	-0.000329
C48	C	1.090860	-0.023084	0.499671
C49	C	0.626847	-0.678271	-0.000301
C50	C	1.126847	-0.178271	0.499699
C51	C	0.645441	-0.419503	-0.000311
C52	C	1.145441	0.080497	0.499689
C53	C	0.736003	-0.471116	-0.000270
C54	C	1.236003	0.028884	0.499730
C55	C	0.717409	-0.729884	-0.000260
C56	C	1.217409	-0.229884	0.499740
C57	C	1.031201	-0.488595	-0.000327
C58	C	1.531201	0.011405	0.499673
C59	C	1.028201	-0.323202	-0.000334
C60	C	1.528201	0.176798	0.499666
C61	C	1.185601	-0.830861	-0.000380
C62	C	1.685601	-0.330861	0.499620
C63	C	1.281986	-0.885780	-0.000421
C64	C	1.781986	-0.385780	0.499579
C65	C	1.022768	-1.023494	-0.000330
C66	C	1.522768	-0.523494	0.499670
C67	C	1.025768	-1.188888	-0.000334
C68	C	1.525768	-0.688888	0.499666
N69	N	1.026980	-0.756037	0.425350
N70	N	1.526980	-0.256037	0.925350
N71	N	1.026997	-0.756044	-0.426004
N72	N	1.526997	-0.256044	0.073996
H73	H	0.437834	-1.218954	-0.000343
H74	H	0.937834	-0.718954	0.499657
H75	H	0.681995	-0.979059	-0.000251
H76	H	1.181995	-0.479059	0.499749
Br77	Br	0.243906	-1.181524	-0.000399
Br78	Br	0.743906	-0.681524	0.499601
H79	H	0.582969	-1.166993	-0.000288
H80	H	1.082969	-0.666993	0.499712
H81	H	0.371981	-0.533026	-0.000385
H82	H	0.871981	-0.033026	0.499615
H83	H	0.470989	-0.345111	-0.000358
H84	H	0.970989	0.154889	0.499642
Br85	Br	0.810074	-0.330552	-0.000242
Br86	Br	1.310074	0.169448	0.499758
Br87	Br	0.766248	-0.940507	-0.000258
Br88	Br	1.266248	-0.440507	0.499742
H89	H	0.307253	-0.655835	-0.000406
H90	H	0.807253	-0.155835	0.499594
H91	H	0.616132	-0.293144	-0.000308
H92	H	1.116132	0.206856	0.499692
