data_functionalizedCrystal
_audit_creation_method	'MofGen! by Chris Wilmer'
_symmetry_space_group_name_H-M	'P1'
_symmetry_Int_Tables_number	1
_symmetry_cell_setting	triclinic
loop_
_symmetry_equiv_pos_as_xyz
  x,y,z
_cell_length_a	11.792241
_cell_length_b	12.503572
_cell_length_c	11.792241
_cell_angle_alpha	93.547243
_cell_angle_beta	95.806584
_cell_angle_gamma	93.538276
loop_
_atom_site_label
_atom_site_type_symbol
_atom_site_fract_x
_atom_site_fract_y
_atom_site_fract_z
O1	O	1.513406	0.089216	-0.149050
O2	O	2.013406	0.589216	0.350950
O3	O	1.183067	0.089241	-0.165081
O4	O	1.683067	0.589241	0.334919
O5	O	1.356252	0.089221	0.008105
O6	O	1.856252	0.589221	0.508105
O7	O	1.340220	0.089237	-0.322235
O8	O	1.840220	0.589237	0.177765
O9	O	1.343228	-0.089420	-0.004941
O10	O	1.843228	0.410580	0.495059
O11	O	1.170042	-0.089399	-0.178127
O12	O	1.670042	0.410601	0.321873
O13	O	1.500381	-0.089424	-0.162096
O14	O	2.000381	0.410576	0.337904
Cu15	Cu	1.334023	-0.105723	-0.171303
Cu16	Cu	1.834023	0.394277	0.328697
Cu17	Cu	1.349425	0.105540	-0.155874
Cu18	Cu	1.849425	0.605540	0.344126
O19	O	1.327196	-0.089403	-0.335281
O20	O	1.827196	0.410597	0.164719
C21	C	1.134264	-0.000076	-0.170596
C22	C	1.634264	0.499924	0.329404
C23	C	1.008251	-0.000066	-0.167581
C24	C	1.508251	0.499934	0.332419
N25	N	1.323197	-0.254314	-0.182154
N26	N	1.823197	0.245686	0.317846
C27	C	0.777536	-0.000097	-0.162041
C28	C	1.277536	0.499903	0.337959
C29	C	0.905923	-0.000080	-0.165119
C30	C	1.405923	0.499920	0.334881
C31	C	1.307273	-0.473427	-0.198126
C32	C	1.807273	0.026573	0.301874
C33	C	1.376180	-0.526763	-0.129046
C34	C	1.876180	-0.026763	0.370954
C35	C	1.367320	-0.648685	-0.137933
C36	C	1.867320	-0.148685	0.362067
C37	C	1.316132	-0.351494	-0.189240
C38	C	1.816132	0.148506	0.310760
C39	C	1.549185	-0.000105	-0.156580
C40	C	2.049185	0.499895	0.343420
C41	C	1.675198	-0.000107	-0.159594
C42	C	2.175198	0.499893	0.340406
C43	C	1.348733	-0.000099	0.043873
C44	C	1.848733	0.499901	0.543873
C45	C	1.345718	-0.000098	0.169886
C46	C	1.845718	0.499902	0.669886
N47	N	1.360260	0.254131	-0.145014
N48	N	1.860260	0.754131	0.354986
C49	C	1.334715	-0.000081	-0.371049
C50	C	1.834715	0.499919	0.128951
C51	C	1.337730	-0.000076	-0.497062
C52	C	1.837730	0.499924	0.002938
C53	C	1.340177	-0.000079	0.400600
C54	C	1.840177	0.499921	0.900600
C55	C	1.343256	-0.000089	0.272214
C56	C	1.843256	0.499911	0.772214
H57	H	1.441829	-0.480857	-0.063231
H58	H	1.941829	0.019143	0.436769
O59	O	1.229062	-0.528347	-0.276616
O60	O	1.729062	-0.028347	0.223384
C61	C	1.237510	-0.639616	-0.268115
C62	C	1.737510	-0.139616	0.231885
H63	H	1.326337	-0.654833	-0.227234
H64	H	1.826337	-0.154833	0.272766
H65	H	1.170523	-0.671541	-0.213175
H66	H	1.670523	-0.171541	0.286825
C67	C	1.108138	-0.678789	-0.438479
C68	C	1.608138	-0.178789	0.061521
C69	C	1.217240	-0.697480	-0.388277
C70	C	1.717240	-0.197480	0.111723
H71	H	1.095629	-0.714484	-0.512600
H72	H	1.595629	-0.214484	-0.012600
H73	H	1.102442	-0.603825	-0.444205
H74	H	1.602442	-0.103825	0.055795
H75	H	1.052328	-0.705394	-0.392684
H76	H	1.552328	-0.205394	0.107316
H77	H	1.273048	-0.670863	-0.434065
H78	H	1.773048	-0.170863	0.065935
H79	H	1.222945	-0.772441	-0.382562
H80	H	1.722945	-0.272441	0.117438
