data_functionalizedCrystal
_audit_creation_method	'MofGen! by Chris Wilmer'
_symmetry_space_group_name_H-M	'P1'
_symmetry_Int_Tables_number	1
_symmetry_cell_setting	triclinic
loop_
_symmetry_equiv_pos_as_xyz
  x,y,z
_cell_length_a	15.944545
_cell_length_b	16.109304
_cell_length_c	14.421503
_cell_angle_alpha	90.005757
_cell_angle_beta	90.008315
_cell_angle_gamma	96.520602
loop_
_atom_site_label
_atom_site_type_symbol
_atom_site_fract_x
_atom_site_fract_y
_atom_site_fract_z
O1	O	1.114480	-0.107210	-0.077044
O2	O	1.614480	0.392790	0.422956
O3	O	0.869925	-0.120436	-0.077058
O4	O	1.369925	0.379564	0.422942
O5	O	0.998920	0.007206	-0.077053
O6	O	1.498920	0.507206	0.422947
O7	O	0.985486	-0.234852	-0.077050
O8	O	1.485486	0.265148	0.422950
O9	O	0.998935	0.007224	0.077170
O10	O	1.498935	0.507224	0.577170
O11	O	0.869940	-0.120418	0.077165
O12	O	1.369940	0.379582	0.577165
O13	O	1.114495	-0.107192	0.077179
O14	O	1.614495	0.392808	0.577179
Cu15	Cu	0.992219	-0.113803	0.091254
Cu16	Cu	1.492219	0.386197	0.591254
Cu17	Cu	0.992201	-0.113824	-0.091133
Cu18	Cu	1.492201	0.386176	0.408867
O19	O	0.985501	-0.234834	0.077174
O20	O	1.485501	0.265166	0.577174
C21	C	0.838639	-0.119879	0.000051
C22	C	1.338639	0.380121	0.500051
C23	C	0.745393	-0.118235	0.000046
C24	C	1.245393	0.381765	0.500046
C25	C	0.474787	-0.034207	0.000054
C26	C	0.974787	0.465793	0.500054
C27	C	0.525363	-0.074710	0.076097
C28	C	1.025363	0.425290	0.576097
C29	C	0.409751	-0.112375	0.000061
C30	C	0.909751	0.387625	0.500061
C31	C	0.525329	-0.074748	-0.075955
C32	C	1.025329	0.425252	0.424045
C33	C	0.574664	-0.115250	0.000052
C34	C	1.074664	0.384750	0.500052
C35	C	0.459099	-0.152857	0.076167
C36	C	0.959099	0.347143	0.576167
C37	C	0.459062	-0.152884	-0.075953
C38	C	0.959062	0.347116	0.424047
C39	C	0.509605	-0.193444	0.000108
C40	C	1.009605	0.306556	0.500108
C41	C	0.314750	-0.110716	0.000068
C42	C	0.814750	0.389284	0.500068
C43	C	0.669663	-0.116915	0.000053
C44	C	1.169663	0.383085	0.500053
C45	C	0.998383	0.038190	0.000056
C46	C	1.498383	0.538190	0.500056
C47	C	0.996750	0.130486	0.000048
C48	C	1.496750	0.630486	0.500048
C49	C	0.992970	0.342814	-0.084019
C50	C	1.492970	0.842814	0.415981
C51	C	0.991428	0.429535	-0.084019
C52	C	1.491428	0.929535	0.415981
C53	C	0.991448	0.429551	0.084124
C54	C	1.491448	0.929551	0.584124
C55	C	0.992984	0.342832	0.084123
C56	C	1.492984	0.842832	0.584123
C57	C	0.993749	0.299466	0.000049
C58	C	1.493749	0.799466	0.500049
C59	C	0.990671	0.472906	0.000050
C60	C	1.490671	0.972906	0.500050
C61	C	0.989000	0.566933	0.000050
C62	C	1.489000	1.066933	0.500050
C63	C	0.995419	0.205433	0.000049
C64	C	1.495419	0.705433	0.500049
C65	C	1.145781	-0.107749	0.000067
C66	C	1.645781	0.392251	0.500067
C67	C	1.239027	-0.109393	0.000067
C68	C	1.739027	0.390607	0.500067
C69	C	0.986038	0.734182	0.000059
C70	C	1.486038	1.234182	0.500059
C71	C	0.987671	0.641887	0.000051
C72	C	1.487671	1.141887	0.500051
N73	N	0.992190	-0.113833	-0.219414
N74	N	1.492190	0.386167	0.280586
C75	C	0.932430	-0.172736	-0.469065
C76	C	1.432430	0.327264	0.030935
C77	C	0.916343	-0.097549	-0.530872
C78	C	1.416343	0.402451	-0.030872
C79	C	0.992206	-0.113816	-0.408576
C80	C	1.492206	0.386184	0.091424
C81	C	1.008269	-0.188987	-0.530863
C82	C	1.508269	0.311013	-0.030863
C83	C	0.992219	-0.113807	-0.591297
C84	C	1.492219	0.386193	-0.091297
C85	C	0.976081	-0.038591	-0.469022
C86	C	1.476081	0.461409	0.030978
C87	C	1.068040	-0.130079	-0.469007
C88	C	1.568040	0.369921	0.030993
C89	C	1.051985	-0.054837	-0.530787
C90	C	1.551985	0.445163	-0.030787
C91	C	0.992196	-0.113823	-0.303315
C92	C	1.492196	0.386177	0.196685
C93	C	0.992230	-0.113791	-0.696556
C94	C	1.492230	0.386209	-0.196556
N95	N	0.992238	-0.113788	0.219535
N96	N	1.492238	0.386212	0.719535
H97	H	0.430098	-0.185875	-0.140243
H98	H	0.930098	0.314125	0.359757
H99	H	0.430285	-0.185837	0.140525
H100	H	0.930285	0.314163	0.640525
H101	H	0.525075	-0.260816	0.000154
H102	H	1.025075	0.239184	0.500154
O103	O	0.872021	-0.232131	-0.436881
O104	O	1.372021	0.267869	0.063119
C105	C	0.829224	-0.273285	-0.512392
C106	C	1.329224	0.226715	-0.012392
H107	H	0.836068	-0.231114	-0.576050
H108	H	1.336068	0.268886	-0.076050
H109	H	0.759501	-0.288279	-0.494541
H110	H	1.259501	0.211721	0.005459
H111	H	0.857494	-0.333740	-0.527643
H112	H	1.357494	0.166260	-0.027643
H113	H	1.132144	-0.143868	-0.441811
H114	H	1.632144	0.356132	0.058189
H115	H	1.021861	-0.252565	-0.558009
H116	H	1.521861	0.247435	-0.058009
H117	H	0.554251	-0.041730	-0.140239
H118	H	1.054251	0.458270	0.359761
O119	O	0.456172	0.046114	0.000301
O120	O	0.956172	0.546114	0.500301
C121	C	0.490120	0.087046	0.080615
C122	C	0.990120	0.587046	0.580615
H123	H	0.499432	0.038780	0.136375
H124	H	0.999432	0.538780	0.636375
H125	H	0.444872	0.131597	0.107150
H126	H	0.944872	0.631597	0.607150
H127	H	0.553505	0.123861	0.063264
H128	H	1.053505	0.623861	0.563264
O129	O	0.990785	0.471749	-0.165624
O130	O	1.490785	0.971749	0.334376
C131	C	1.062607	0.531314	-0.170664
C132	C	1.562607	1.031314	0.329336
H133	H	1.086623	0.547455	-0.097670
H134	H	1.586623	1.047455	0.402330
H135	H	1.045169	0.590172	-0.206248
H136	H	1.545169	1.090172	0.293752
H137	H	1.114106	0.504482	-0.212147
H138	H	1.614106	1.004482	0.287853
O139	O	0.990566	0.471625	0.165812
O140	O	1.490566	0.971625	0.665812
C141	C	0.918256	0.441015	0.216969
C142	C	1.418256	0.941015	0.716969
H143	H	0.867853	0.410592	0.167781
H144	H	1.367853	0.910592	0.667781
H145	H	0.892851	0.494892	0.255103
H146	H	1.392851	0.994892	0.755103
H147	H	0.935591	0.392813	0.269390
H148	H	1.435591	0.892813	0.769390
H149	H	1.102545	-0.004952	-0.557717
H150	H	1.602545	0.495048	-0.057717
O151	O	0.560012	-0.035246	0.152694
O152	O	1.060012	0.464754	0.652694
C153	C	0.618813	0.032348	0.125402
C154	C	1.118813	0.532348	0.625402
H155	H	0.641828	0.021031	0.052137
H156	H	1.141828	0.521031	0.552137
H157	H	0.674748	0.038188	0.175145
H158	H	1.174748	0.538188	0.675145
H159	H	0.587413	0.092483	0.126857
H160	H	1.087413	0.592483	0.626857
H161	H	0.993614	0.307536	0.152586
H162	H	1.493614	0.807536	0.652586
O163	O	0.993550	0.300711	-0.165712
O164	O	1.493550	0.800711	0.334288
C165	C	0.920471	0.312509	-0.216855
C166	C	1.420471	0.812509	0.283145
H167	H	0.869245	0.329768	-0.167655
H168	H	1.369245	0.829768	0.332345
H169	H	0.897066	0.252321	-0.254998
H170	H	1.397066	0.752321	0.245002
H171	H	0.936006	0.364976	-0.269267
H172	H	1.436006	0.864976	0.230733
O173	O	0.839847	-0.081009	-0.563190
O174	O	1.339847	0.418991	-0.063190
C175	C	0.822453	-0.002318	-0.530351
C176	C	1.322453	0.497682	-0.030351
H177	H	0.860702	0.014164	-0.464783
H178	H	1.360702	0.514164	0.035217
H179	H	0.752275	-0.004566	-0.514037
H180	H	1.252275	0.495434	-0.014037
H181	H	0.840317	0.047080	-0.585677
H182	H	1.340317	0.547080	-0.085677
O183	O	0.959758	0.037211	-0.436605
O184	O	1.459758	0.537211	0.063395
C185	C	0.959934	0.036287	-0.338845
C186	C	1.459934	0.536287	0.161155
H187	H	0.946544	-0.030867	-0.313270
H188	H	1.446544	0.469133	0.186730
H189	H	0.909106	0.074456	-0.311855
H190	H	1.409106	0.574456	0.188145
H191	H	1.024293	0.064524	-0.312358
H192	H	1.524293	0.564524	0.187642
