data_functionalizedCrystal
_audit_creation_method	'MofGen! by Chris Wilmer'
_symmetry_space_group_name_H-M	'P1'
_symmetry_Int_Tables_number	1
_symmetry_cell_setting	triclinic
loop_
_symmetry_equiv_pos_as_xyz
  x,y,z
_cell_length_a	15.995343
_cell_length_b	14.421503
_cell_length_c	15.995292
_cell_angle_alpha	89.992517
_cell_angle_beta	83.478900
_cell_angle_gamma	90.003311
loop_
_atom_site_label
_atom_site_type_symbol
_atom_site_fract_x
_atom_site_fract_y
_atom_site_fract_z
O1	O	1.110972	0.077012	0.107887
O2	O	1.444306	0.410345	0.441220
O3	O	1.777639	0.743679	0.774554
O4	O	0.867193	0.077033	0.121222
O5	O	1.200527	0.410367	0.454555
O6	O	1.533860	0.743700	0.787888
O7	O	0.995772	0.077024	-0.007337
O8	O	1.329105	0.410357	0.325996
O9	O	1.662439	0.743690	0.659330
O10	O	0.982394	0.077022	0.236445
O11	O	1.315727	0.410355	0.569779
O12	O	1.649060	0.743689	0.903112
O13	O	0.995751	-0.077200	-0.007318
O14	O	1.329084	0.256133	0.326016
O15	O	1.662417	0.589467	0.659349
O16	O	0.867172	-0.077190	0.121241
O17	O	1.200505	0.256143	0.454574
O18	O	1.533839	0.589477	0.787907
O19	O	1.110951	-0.077211	0.107906
O20	O	1.444284	0.256122	0.441239
O21	O	1.777618	0.589455	0.774573
Cu22	Cu	0.989059	-0.091283	0.114575
Cu23	Cu	1.322393	0.242051	0.447908
Cu24	Cu	1.655726	0.575384	0.781242
Cu25	Cu	0.989085	0.091105	0.114552
Cu26	Cu	1.322418	0.424438	0.447886
Cu27	Cu	1.655751	0.757771	0.781219
O28	O	0.982372	-0.077202	0.236464
O29	O	1.315706	0.256132	0.569798
O30	O	1.649039	0.589465	0.903131
C31	C	0.835988	-0.000075	0.120681
C32	C	1.169321	0.333258	0.454014
C33	C	1.502655	0.666591	0.787348
C34	C	0.743037	-0.000067	0.119032
C35	C	1.076371	0.333266	0.452365
C36	C	1.409704	0.666600	0.785698
C37	C	0.572852	-0.000079	0.116038
C38	C	0.906185	0.333254	0.449371
C39	C	1.239518	0.666587	0.782705
C40	C	0.549525	-0.000079	0.023238
C41	C	0.882859	0.333255	0.356572
C42	C	1.216192	0.666588	0.689905
C43	C	0.452848	-0.000434	0.021493
C44	C	0.786181	0.332899	0.354826
C45	C	1.119514	0.666233	0.688159
C46	C	0.405292	-0.000091	0.113089
C47	C	0.738626	0.333243	0.446423
C48	C	1.071959	0.666576	0.779756
C49	C	0.434362	-0.087985	0.159761
C50	C	0.767695	0.245348	0.493095
C51	C	1.101029	0.578682	0.826428
C52	C	0.531154	-0.088053	0.160862
C53	C	0.864488	0.245280	0.494195
C54	C	1.197821	0.578613	0.827529
C55	C	0.531089	0.087334	0.162199
C56	C	0.864422	0.420667	0.495532
C57	C	1.197756	0.754000	0.828866
C58	C	0.434595	0.088484	0.158773
C59	C	0.767928	0.421817	0.492107
C60	C	1.101261	0.755150	0.825440
C61	C	0.310595	-0.000100	0.111428
C62	C	0.643928	0.333233	0.444761
C63	C	0.977261	0.666567	0.778095
C64	C	0.667549	-0.000076	0.117702
C65	C	1.000883	0.333257	0.451036
C66	C	1.334216	0.666590	0.784369
N67	N	0.989048	-0.219564	0.114590
N68	N	1.322381	0.113770	0.447924
N69	N	1.655715	0.447103	0.781257
C70	C	0.929583	-0.469213	0.174009
C71	C	1.262916	-0.135880	0.507343
C72	C	1.596249	0.197454	0.840676
C73	C	1.005238	-0.531023	0.190259
C74	C	1.338571	-0.197689	0.523592
C75	C	1.671905	0.135644	0.856926
C76	C	0.989068	-0.408725	0.114570
C77	C	1.322402	-0.075392	0.447904
C78	C	1.655735	0.257941	0.781237
C79	C	0.913432	-0.531009	0.098340
C80	C	1.246766	-0.197676	0.431674
C81	C	1.580099	0.135657	0.765007
C82	C	0.989081	-0.591447	0.114553
C83	C	1.322414	-0.258113	0.447886
C84	C	1.655748	0.075220	0.781220
C85	C	1.064762	-0.469174	0.130858
C86	C	1.398095	-0.135841	0.464191
C87	C	1.731429	0.197493	0.797525
C88	C	0.972906	-0.469156	0.038906
C89	C	1.306240	-0.135822	0.372240
C90	C	1.639573	0.197511	0.705573
C91	C	1.048616	-0.530937	0.055124
C92	C	1.381950	-0.197604	0.388457
C93	C	1.715283	0.135729	0.721791
C94	C	0.989060	-0.303464	0.114583
C95	C	1.322393	0.029869	0.447916
C96	C	1.655726	0.363203	0.781249
C97	C	0.989098	-0.696706	0.114540
C98	C	1.322432	-0.363372	0.447874
C99	C	1.655765	-0.030039	0.781207
C100	C	1.142156	-0.000101	0.108447
C101	C	1.475490	0.333233	0.441780
C102	C	1.808823	0.666566	0.775113
C103	C	1.235107	-0.000103	0.110096
C104	C	1.568440	0.333230	0.443429
C105	C	1.901773	0.666564	0.776762
N106	N	0.989103	0.219386	0.114530
N107	N	1.322436	0.552719	0.447864
N108	N	1.655770	0.886052	0.781197
C109	C	0.995217	-0.000086	-0.038523
C110	C	1.328550	0.333248	0.294810
C111	C	1.661883	0.666581	0.628144
C112	C	0.993584	-0.000079	-0.131476
C113	C	1.326918	0.333255	0.201857
C114	C	1.660251	0.666588	0.535191
C115	C	0.987583	-0.000087	-0.469214
C116	C	1.320916	0.333247	-0.135881
C117	C	1.654250	0.666580	0.197453
C118	C	1.080388	-0.000439	-0.445904
C119	C	1.413721	0.332894	-0.112571
C120	C	1.747054	0.666227	0.220762
C121	C	1.082152	-0.000089	-0.349229
C122	C	1.415485	0.333245	-0.015896
C123	C	1.748818	0.666578	0.317438
C124	C	0.990561	-0.000083	-0.301658
C125	C	1.323894	0.333250	0.031675
C126	C	1.657228	0.666583	0.365008
C127	C	0.944175	0.087987	-0.330769
C128	C	1.277509	0.421320	0.002564
C129	C	1.610842	0.754654	0.335898
C130	C	0.943058	0.088058	-0.427559
C131	C	1.276391	0.421391	-0.094226
C132	C	1.609725	0.754724	0.239107
C133	C	0.941139	-0.087323	-0.427395
C134	C	1.274472	0.246010	-0.094061
C135	C	1.607805	0.579343	0.239272
C136	C	0.944578	-0.088484	-0.330902
C137	C	1.277911	0.244849	0.002431
C138	C	1.611244	0.578183	0.335765
C139	C	0.992239	-0.000078	-0.206962
C140	C	1.325572	0.333255	0.126371
C141	C	1.658906	0.666588	0.459704
C142	C	0.985902	-0.000085	-0.563910
C143	C	1.319236	0.333248	-0.230577
C144	C	1.652569	0.666581	0.102757
C145	C	0.982927	-0.000090	0.267650
C146	C	1.316261	0.333243	0.600984
C147	C	1.649594	0.666576	0.934317
C148	C	0.984560	-0.000091	0.360603
C149	C	1.317893	0.333242	0.693937
C150	C	1.651226	0.666575	1.027270
H151	H	0.577549	0.062942	-0.012739
H152	H	0.910882	0.396275	0.320594
H153	H	1.244216	0.729608	0.653928
Br154	Br	0.403726	0.196867	0.102104
Br155	Br	0.737060	0.530201	0.435438
Br156	Br	1.070393	0.863534	0.768771
H157	H	1.118712	0.063148	-0.330833
H158	H	1.452046	0.396481	0.002500
H159	H	1.785379	0.729815	0.335834
H160	H	0.401625	0.094063	0.225607
H161	H	0.734958	0.427396	0.558940
H162	H	1.068291	0.760729	0.892274
Br163	Br	0.806815	-0.576287	0.075472
Br164	Br	1.140148	-0.242953	0.408805
Br165	Br	1.473481	0.090380	0.742138
H166	H	0.559374	0.153976	0.132913
H167	H	0.892707	0.487309	0.466246
H168	H	1.226041	0.820642	0.799579
Br169	Br	0.597829	-0.104974	-0.035730
Br170	Br	0.931163	0.228359	0.297604
Br171	Br	1.264496	0.561693	0.630937
Br172	Br	1.139698	0.104227	-0.494282
Br173	Br	1.473032	0.437560	-0.160949
Br174	Br	1.806365	0.770893	0.172384
H175	H	0.545088	0.088181	0.230505
H176	H	0.878421	0.421514	0.563838
H177	H	1.211755	0.754847	0.897172
H178	H	0.976404	0.153524	-0.310717
H179	H	1.309738	0.486858	0.022616
H180	H	1.643071	0.820191	0.355949
Br181	Br	0.400874	-0.197425	0.106417
Br182	Br	0.734207	0.135909	0.439750
Br183	Br	1.067541	0.469242	0.773084
Br184	Br	0.845822	-0.424036	0.257850
Br185	Br	1.179156	-0.090702	0.591183
Br186	Br	1.512489	0.242631	0.924517
H187	H	1.018920	-0.558197	0.254239
H188	H	1.352253	-0.224863	0.587572
H189	H	1.685587	0.108470	0.920905
H190	H	1.128745	-0.442126	0.144654
H191	H	1.462079	-0.108793	0.477988
H192	H	1.795412	0.224540	0.811321
Br193	Br	0.827283	-0.088307	-0.450709
Br194	Br	1.160616	0.245026	-0.117375
Br195	Br	1.493949	0.578359	0.215958
Br196	Br	0.831840	0.093460	-0.277651
Br197	Br	1.165174	0.426794	0.055682
Br198	Br	1.498507	0.760127	0.389015
H199	H	1.098982	-0.557869	0.004848
H200	H	1.432315	-0.224536	0.338181
H201	H	1.765649	0.108798	0.671515
Br202	Br	0.950064	-0.423824	-0.067699
Br203	Br	1.283397	-0.090491	0.265634
Br204	Br	1.616731	0.242843	0.598968
H205	H	0.970356	-0.154080	-0.455476
H206	H	1.303689	0.179254	-0.122143
H207	H	1.637022	0.512587	0.211191
Br208	Br	1.142677	-0.105329	-0.317499
Br209	Br	1.476011	0.228005	0.015834
Br210	Br	1.809344	0.561338	0.349167
H211	H	0.978354	-0.153638	-0.312330
H212	H	1.311687	0.179696	0.021004
H213	H	1.645020	0.513029	0.354337
Br214	Br	0.422106	-0.106075	-0.039070
Br215	Br	0.755440	0.227258	0.294263
Br216	Br	1.088773	0.560592	0.627596
H217	H	0.975200	0.153888	-0.454385
H218	H	1.308534	0.487221	-0.121051
H219	H	1.641867	0.820555	0.212282
H220	H	0.877725	-0.093799	-0.297930
H221	H	1.211058	0.239535	0.035403
H222	H	1.544391	0.572868	0.368736
Br223	Br	0.555426	-0.094306	0.274285
Br224	Br	0.888759	0.239027	0.607618
Br225	Br	1.222093	0.572361	0.940951
H226	H	1.116150	-0.063599	-0.473895
H227	H	1.449484	0.269735	-0.140561
H228	H	1.782817	0.603068	0.192772
H229	H	0.875013	0.092052	-0.442108
H230	H	1.208347	0.425385	-0.108775
H231	H	1.541680	0.758718	0.224558
H232	H	0.557938	-0.154005	0.128933
H233	H	0.891271	0.179328	0.462267
H234	H	1.224604	0.512662	0.795600
Br235	Br	0.381264	-0.093027	0.272123
Br236	Br	0.714597	0.240306	0.605456
Br237	Br	1.047931	0.573639	0.938790
Br238	Br	0.421169	0.104561	-0.039397
Br239	Br	0.754503	0.437894	0.293936
Br240	Br	1.087836	0.771228	0.627269
