data_functionalizedCrystal
_audit_creation_method	'MofGen! by Chris Wilmer'
_symmetry_space_group_name_H-M	'P1'
_symmetry_Int_Tables_number	1
_symmetry_cell_setting	triclinic
loop_
_symmetry_equiv_pos_as_xyz
  x,y,z
_cell_length_a	23.532407
_cell_length_b	16.992695
_cell_length_c	15.455301
_cell_angle_alpha	92.826871
_cell_angle_beta	93.009886
_cell_angle_gamma	86.758450
loop_
_atom_site_label
_atom_site_type_symbol
_atom_site_fract_x
_atom_site_fract_y
_atom_site_fract_z
O1	O	-0.762341	-0.098189	-0.072023
O2	O	-0.262341	0.401811	0.427977
O3	O	-0.597162	-0.111958	-0.072049
O4	O	-0.097162	0.388042	0.427951
O5	O	-0.679089	0.009064	-0.072029
O6	O	-0.179089	0.509064	0.427971
O7	O	-0.680414	-0.219211	-0.072043
O8	O	-0.180414	0.280789	0.427957
O9	O	-0.674354	0.015157	0.072233
O10	O	-0.174354	0.515157	0.572233
O11	O	-0.592427	-0.105864	0.072213
O12	O	-0.092427	0.394136	0.572213
O13	O	-0.757606	-0.092096	0.072239
O14	O	-0.257606	0.407904	0.572239
Cu15	Cu	-0.674584	-0.098424	0.085399
Cu16	Cu	-0.174584	0.401576	0.585399
Cu17	Cu	-0.680184	-0.105630	-0.085208
Cu18	Cu	-0.180184	0.394370	0.414792
O19	O	-0.675679	-0.213118	0.072219
O20	O	-0.175679	0.286882	0.572219
C21	C	-0.573561	-0.108561	0.000079
C22	C	-0.073561	0.391439	0.500079
C23	C	-0.510292	-0.107507	0.000070
C24	C	-0.010292	0.392493	0.500070
C25	C	-0.675018	0.041310	0.000102
C26	C	-0.175018	0.541310	0.500102
C27	C	-0.669935	0.128315	0.000100
C28	C	-0.169935	0.628315	0.500100
C29	C	-0.781207	-0.095493	0.000109
C30	C	-0.281207	0.404507	0.500109
C31	C	-0.844476	-0.096547	0.000113
C32	C	-0.344476	0.403453	0.500113
C33	C	-0.114413	-0.172512	0.000105
C34	C	0.385587	0.327488	0.500105
C35	C	-0.054964	-0.171533	0.000110
C36	C	0.445036	0.328467	0.500110
O37	O	-0.021209	-0.231793	0.000138
O38	O	0.478791	0.268207	0.500138
N39	N	-0.028768	-0.099585	0.000113
N40	N	0.471232	0.400415	0.500113
C41	C	-0.062024	-0.028613	0.000119
C42	C	0.437976	0.471387	0.500119
O43	O	-0.034283	0.032674	0.000123
O44	O	0.465717	0.532674	0.500123
C45	C	-0.121471	-0.029593	0.000120
C46	C	0.378529	0.470407	0.500120
C47	C	-0.147665	-0.101545	0.000109
C48	C	0.352335	0.398455	0.500109
C49	C	-0.140607	-0.244458	0.000094
C50	C	0.359393	0.255542	0.500094
C51	C	-0.200052	-0.245437	0.000087
C52	C	0.299948	0.254563	0.500087
C53	C	-0.233303	-0.174470	0.000091
C54	C	0.266697	0.325530	0.500091
C55	C	-0.207110	-0.102524	0.000102
C56	C	0.292890	0.397476	0.500102
C57	C	-0.154725	0.041379	0.000133
C58	C	0.345275	0.541379	0.500133
C59	C	-0.214177	0.040393	0.000134
C60	C	0.285823	0.540393	0.500134
C61	C	-0.240370	-0.031559	0.000123
C62	C	0.259630	0.468441	0.500123
C63	C	-0.299806	-0.032536	0.000098
C64	C	0.200194	0.467464	0.500098
N65	N	-0.326002	-0.104483	0.000096
N66	N	0.173998	0.395517	0.500096
C67	C	-0.292751	-0.175450	0.000092
C68	C	0.207249	0.324550	0.500092
C69	C	0.062821	-0.026560	0.000119
C70	C	0.562821	0.473440	0.500119
C71	C	0.122267	-0.025580	0.000112
C72	C	0.622267	0.474420	0.500112
C73	C	0.129322	-0.168500	0.000105
C74	C	0.629322	0.331500	0.500105
C75	C	0.069875	-0.169480	0.000105
C76	C	0.569875	0.330520	0.500105
C77	C	0.036624	-0.098507	0.000116
C78	C	0.536624	0.401493	0.500116
C79	C	-0.417590	-0.177501	0.000076
C80	C	0.082410	0.322499	0.500076
C81	C	-0.477041	-0.178474	0.000066
C82	C	0.022959	0.321526	0.500066
C83	C	-0.484090	-0.035554	0.000078
C84	C	0.015910	0.464446	0.500078
C85	C	-0.424645	-0.034581	0.000084
C86	C	0.075355	0.465419	0.500084
C87	C	-0.391396	-0.105561	0.000086
C88	C	0.108604	0.394439	0.500086
O89	O	-0.333597	0.027693	0.000074
O90	O	0.166403	0.527693	0.500074
O91	O	-0.320499	-0.236726	0.000100
O92	O	0.179501	0.263274	0.500100
C93	C	-0.679750	-0.245364	0.000087
C94	C	-0.179750	0.254636	0.500087
C95	C	-0.684833	-0.332369	0.000082
C96	C	-0.184833	0.167631	0.500082
N97	N	-0.670649	-0.093355	0.205394
N98	N	-0.170649	0.406645	0.705394
C99	C	-0.718981	0.178938	0.000109
C100	C	-0.218981	0.678938	0.500109
C101	C	-0.714201	0.260687	0.000100
C102	C	-0.214201	0.760687	0.500100
C103	C	-0.660375	0.291811	0.000089
C104	C	-0.160375	0.791811	0.500089
C105	C	-0.611326	0.241182	0.000078
C106	C	-0.111326	0.741182	0.500078
C107	C	-0.616106	0.159434	0.000080
C108	C	-0.116106	0.659434	0.500080
C109	C	-0.640564	0.535254	0.000074
C110	C	-0.140564	1.035254	0.500074
C111	C	-0.635787	0.617008	0.000074
C112	C	-0.135787	1.117008	0.500074
C113	C	-0.738664	0.636507	0.000094
C114	C	-0.238664	1.136507	0.500094
C115	C	-0.743439	0.554757	0.000102
C116	C	-0.243439	1.054757	0.500102
C117	C	-0.694389	0.504135	0.000087
C118	C	-0.194389	1.004135	0.500087
N119	N	-0.655489	0.375372	0.000082
N120	N	-0.155489	0.875372	0.500082
N121	N	-0.699277	0.420576	0.000087
N122	N	-0.199277	0.920576	0.500087
N123	N	-0.684123	-0.110692	-0.205204
N124	N	-0.184123	0.389308	0.294796
C125	C	-0.705852	-0.138738	0.250787
C126	C	-0.205852	0.361262	0.750787
C127	C	-0.702884	-0.134900	0.341595
C128	C	-0.202884	0.365100	0.841595
C129	C	-0.664709	-0.085683	0.387008
C130	C	-0.164709	0.414317	0.887008
C131	C	-0.629505	-0.040294	0.341609
C132	C	-0.129505	0.459706	0.841609
C133	C	-0.632477	-0.044129	0.250803
C134	C	-0.132477	0.455871	0.750803
C135	C	-0.651890	-0.069139	0.658590
C136	C	-0.151890	0.430861	1.158590
C137	C	-0.648920	-0.065309	0.749403
C138	C	-0.148920	0.434691	1.249403
C139	C	-0.722300	-0.159914	0.749383
C140	C	-0.222300	0.340086	1.249383
C141	C	-0.725266	-0.163748	0.658575
C142	C	-0.225266	0.336252	1.158575
C143	C	-0.690064	-0.118357	0.613183
C144	C	-0.190064	0.381643	1.113183
N145	N	-0.661673	-0.081760	0.479829
N146	N	-0.161673	0.418240	0.979829
N147	N	-0.693103	-0.122275	0.520365
N148	N	-0.193103	0.377725	1.020365
H149	H	-0.498364	-0.237069	0.000056
H150	H	0.001636	0.262931	0.500056
H151	H	-0.576167	0.118217	0.000073
H152	H	-0.076167	0.618217	0.500073
H153	H	-0.731551	-0.171854	0.378550
H154	H	-0.231551	0.328146	0.878550
H155	H	0.156407	-0.226285	0.000106
H156	H	0.656407	0.273715	0.500106
H157	H	-0.598425	-0.000216	0.378592
H158	H	-0.098425	0.499784	0.878592
H159	H	-0.750960	-0.196868	0.786350
H160	H	-0.250960	0.303132	1.286350
N161	N	-0.801496	0.521190	0.000085
N162	N	-0.301496	1.021190	0.500085
H163	H	-0.797082	0.461722	0.000081
H164	H	-0.297082	0.961722	0.500081
H165	H	-0.821376	0.541994	0.053561
H166	H	-0.321376	1.041994	0.553561
H167	H	-0.603810	-0.007173	0.213845
H168	H	-0.103810	0.492827	0.713845
H169	H	-0.591953	0.642347	0.000078
H170	H	-0.091953	1.142347	0.500078
N171	N	-0.553268	0.274743	0.000065
N172	N	-0.053268	0.774743	0.500065
H173	H	-0.550746	0.305966	-0.053413
H174	H	-0.050746	0.805966	0.446587
H175	H	-0.547270	0.310448	0.053579
H176	H	-0.047270	0.810448	0.553579
H177	H	-0.736934	-0.178821	0.213818
H178	H	-0.236934	0.321179	0.713818
N179	N	-0.767101	0.315288	0.000114
N180	N	-0.267101	0.815288	0.500114
H181	H	-0.801924	0.283166	0.000129
H182	H	-0.301924	0.783166	0.500129
H183	H	-0.765597	0.351892	0.053594
H184	H	-0.265597	0.851892	0.553594
H185	H	-0.133409	0.099971	0.000143
H186	H	0.366591	0.599971	0.500143
H187	H	-0.756353	-0.203824	0.621605
H188	H	-0.256353	0.296176	1.121605
N189	N	-0.228297	-0.323044	0.000096
N190	N	0.271703	0.176956	0.500096
H191	H	-0.271003	-0.312908	0.000097
H192	H	0.228997	0.187092	0.500097
H193	H	-0.218114	-0.356340	-0.053382
H194	H	0.281886	0.143660	0.446618
N195	N	-0.250041	0.116942	0.000139
N196	N	0.249959	0.616942	0.500139
H197	H	-0.273113	0.121980	0.053616
H198	H	0.226887	0.621980	0.553616
H199	H	-0.224388	0.162622	0.000114
H200	H	0.275612	0.662622	0.500114
N201	N	-0.607737	-0.012233	0.798388
N202	N	-0.107737	0.487767	1.298388
H203	H	-0.585886	0.015938	0.755854
H204	H	-0.085886	0.515938	1.255854
H205	H	-0.629579	0.027847	0.836075
H206	H	-0.129579	0.527847	1.336075
N207	N	0.041623	-0.247081	0.000105
N208	N	0.541623	0.252919	0.500105
H209	H	0.015362	-0.252935	-0.053372
H210	H	0.515362	0.247065	0.446628
H211	H	0.071746	-0.291841	0.000133
H212	H	0.571746	0.208159	0.500133
H213	H	-0.390525	-0.235300	0.000081
H214	H	0.109475	0.264700	0.500081
H215	H	0.035751	0.031238	0.000120
H216	H	0.535751	0.531238	0.500120
N217	N	-0.613924	-0.020183	0.609639
N218	N	-0.113924	0.479817	1.109639
H219	H	-0.589290	0.011574	0.652190
H220	H	-0.089290	0.511574	1.152190
H221	H	-0.588880	-0.056141	0.571960
H222	H	-0.088880	0.443859	1.071960
H223	H	-0.762812	0.153603	0.000123
H224	H	-0.262812	0.653603	0.500123
N225	N	-0.104747	-0.321006	0.000140
N226	N	0.395253	0.178994	0.500140
H227	H	-0.130370	-0.366724	0.000149
H228	H	0.369630	0.133276	0.500149
H229	H	-0.081668	-0.326004	-0.053327
H230	H	0.418332	0.173996	0.446673
N231	N	0.150519	0.052022	0.000114
N232	N	0.650519	0.552022	0.500114
H233	H	0.136878	0.080833	-0.053362
H234	H	0.636878	0.580833	0.446638
H235	H	0.140370	0.085288	0.053630
H236	H	0.640370	0.585288	0.553630
N237	N	-0.396390	0.043021	0.000080
N238	N	0.103610	0.543021	0.500080
H239	H	-0.426478	0.087829	0.000077
H240	H	0.073522	0.587829	0.500077
H241	H	-0.370131	0.048802	0.053565
H242	H	0.129869	0.548802	0.553565
H243	H	-0.511174	0.022225	0.000078
H244	H	-0.011174	0.522225	0.500078
N245	N	-0.791565	0.691106	0.000113
N246	N	-0.291565	1.191106	0.500113
H247	H	-0.780371	0.747616	0.000110
H248	H	-0.280371	1.247616	0.500110
H249	H	-0.816618	0.678813	-0.053363
H250	H	-0.316618	1.178813	0.446637
H251	H	-0.600624	0.494047	0.000061
H252	H	-0.100624	0.994047	0.500061
