data_functionalizedCrystal
_audit_creation_method	'MofGen! by Chris Wilmer'
_symmetry_space_group_name_H-M	'P1'
_symmetry_Int_Tables_number	1
_symmetry_cell_setting	triclinic
loop_
_symmetry_equiv_pos_as_xyz
  x,y,z
_cell_length_a	8.559649
_cell_length_b	7.681481
_cell_length_c	8.597304
_cell_angle_alpha	103.491353
_cell_angle_beta	102.375399
_cell_angle_gamma	94.912555
loop_
_atom_site_label
_atom_site_type_symbol
_atom_site_fract_x
_atom_site_fract_y
_atom_site_fract_z
O1	O	-2.105021	0.140796	-0.037135
O2	O	-1.639815	0.153286	0.045186
O3	O	-1.885141	0.111598	-0.229572
O4	O	-1.859695	0.182484	0.237623
O5	O	-1.915337	-0.186401	-0.263458
O6	O	-1.670010	-0.144713	0.011299
O7	O	-2.135217	-0.157203	-0.071021
Zn8	Zn	-1.907408	-0.198272	-0.035241
Zn9	Zn	-1.867624	0.194355	0.009406
O10	O	-1.889890	-0.115515	0.203737
C11	C	-1.595383	0.005233	0.034481
C12	C	-1.418002	0.008051	0.053051
N13	N	-1.934571	-0.466230	-0.065713
C14	C	-1.179649	-0.009150	-0.060316
C15	C	-1.357029	-0.011966	-0.078886
C16	C	-1.899189	-0.046388	-0.305772
C17	C	-1.896040	-0.073167	-0.482337
N18	N	-1.840473	0.462310	0.039864
C19	C	-1.875842	0.042475	0.279937
C20	C	-1.878990	0.069265	0.456504
H21	H	-1.440529	-0.031250	-0.206048
H22	H	-1.334492	0.027355	0.180223
H23	H	-1.744418	-0.446142	0.147628
H24	H	-2.030644	-0.557785	-0.173474
H25	H	-1.866795	0.211705	-0.460778
Br26	Br	-1.916327	-0.310595	-0.620198
