data_functionalizedCrystal
_audit_creation_method	'MofGen! by Chris Wilmer'
_symmetry_space_group_name_H-M	'P1'
_symmetry_Int_Tables_number	1
_symmetry_cell_setting	triclinic
loop_
_symmetry_equiv_pos_as_xyz
  x,y,z
_cell_length_a	17.077404
_cell_length_b	12.759394
_cell_length_c	17.077396
_cell_angle_alpha	90.026316
_cell_angle_beta	90.018362
_cell_angle_gamma	90.012807
loop_
_atom_site_label
_atom_site_type_symbol
_atom_site_fract_x
_atom_site_fract_y
_atom_site_fract_z
Zn1	Zn	1.200099	-0.418323	0.443831
Zn2	Zn	1.700099	0.081677	0.943831
Zn3	Zn	1.200024	-0.594024	0.312570
Zn4	Zn	1.700024	-0.094024	0.812570
Zn5	Zn	1.068830	-0.418353	0.312581
Zn6	Zn	1.568830	0.081647	0.812581
Zn7	Zn	1.068817	-0.593955	0.443796
Zn8	Zn	1.568817	-0.093955	0.943796
O9	O	1.134442	-0.506164	0.378194
O10	O	1.634442	-0.006164	0.878194
O11	O	1.309936	-0.441647	0.426428
O12	O	1.809936	0.058353	0.926428
O13	O	1.182595	-0.570762	0.202724
O14	O	1.682595	-0.070762	0.702724
O15	O	1.086280	-0.271328	0.330011
O16	O	1.586280	0.228672	0.830011
O17	O	1.309881	-0.570733	0.329991
O18	O	1.809881	-0.070733	0.829991
O19	O	1.182722	-0.271306	0.426440
O20	O	1.682722	0.228694	0.926440
O21	O	1.086208	-0.441698	0.202733
O22	O	1.586208	0.058302	0.702733
O23	O	0.958982	-0.441631	0.329977
O24	O	1.458982	0.058369	0.829977
O25	O	1.086257	-0.570615	0.553647
O26	O	1.586257	-0.070615	1.053647
O27	O	0.958972	-0.570644	0.426380
O28	O	1.458972	-0.070644	0.926380
O29	O	1.182709	-0.441580	0.553673
O30	O	1.682709	0.058420	1.053673
O31	O	1.182582	-0.741036	0.329958
O32	O	1.682582	-0.241036	0.829958
O33	O	1.086185	-0.740985	0.426369
O34	O	1.586185	-0.240985	0.926369
C35	C	0.930495	-0.506134	0.378177
C36	C	1.430495	-0.006134	0.878177
C37	C	0.843245	-0.506147	0.378188
C38	C	1.343245	-0.006147	0.878188
C39	C	0.802284	-0.439051	0.428479
C40	C	1.302284	0.060949	0.928479
C41	C	0.720303	-0.439058	0.428483
C42	C	1.220303	0.060942	0.928483
C43	C	0.679285	-0.506166	0.378198
C44	C	1.179285	-0.006166	0.878198
C45	C	0.720252	-0.573265	0.327902
C46	C	1.220252	-0.073265	0.827902
C47	C	0.802231	-0.573252	0.327895
C48	C	1.302231	-0.073252	0.827895
C49	C	0.549382	-0.573289	0.327921
C50	C	1.049382	-0.073289	0.827921
C51	C	0.467397	-0.573303	0.327929
C52	C	0.967397	-0.073303	0.827929
C53	C	0.467454	-0.439094	0.428509
C54	C	0.967454	0.060906	0.928509
C55	C	0.549433	-0.439081	0.428502
C56	C	1.049433	0.060919	0.928502
C57	C	0.590394	-0.506182	0.378206
C58	C	1.090394	-0.006182	0.878206
C59	C	1.134395	-0.779131	0.378175
C60	C	1.634395	-0.279131	0.878175
C61	C	1.134447	-0.895908	0.378193
C62	C	1.634447	-0.395908	0.878193
C63	C	1.234901	-0.895908	0.277876
C64	C	1.734901	-0.395908	0.777876
C65	C	1.285148	-0.950768	0.227726
C66	C	1.785148	-0.450768	0.727726
C67	C	1.285194	-1.060490	0.227747
C68	C	1.785194	-0.560490	0.727747
C69	C	1.234989	-1.115353	0.277925
C70	C	1.734989	-0.615353	0.777925
C71	C	1.184742	-1.060493	0.328075
C72	C	1.684742	-0.560493	0.828075
C73	C	1.184700	-0.950769	0.328047
C74	C	1.684700	-0.450769	0.828047
C75	C	1.084293	-1.060493	0.428396
C76	C	1.584293	-0.560493	0.928396
C77	C	1.084242	-0.950772	0.428372
C78	C	1.584242	-0.450772	0.928372
C79	C	1.034088	-1.115357	0.478574
C80	C	1.534088	-0.615357	0.978574
C81	C	0.983835	-1.060496	0.528721
C82	C	1.483835	-0.560496	1.028721
C83	C	0.983791	-0.950768	0.528697
C84	C	1.483791	-0.450768	1.028697
C85	C	1.033994	-0.895911	0.478521
C86	C	1.533994	-0.395911	0.978521
C87	C	1.339187	-0.506195	0.378212
C88	C	1.839187	-0.006195	0.878212
C89	C	1.426436	-0.506208	0.378220
C90	C	1.926436	-0.006208	0.878220
C91	C	1.134490	-0.506086	0.582939
C92	C	1.634490	-0.006086	1.082939
C93	C	1.134510	-0.506054	0.670189
C94	C	1.634510	-0.006054	1.170189
C95	C	1.134511	-0.232130	0.378231
C96	C	1.634511	0.267870	0.878231
C97	C	1.134540	-0.115354	0.378246
C98	C	1.634540	0.384646	0.878246
C99	C	1.134440	-0.506165	0.174246
C100	C	1.634440	-0.006165	0.674246
C101	C	1.134572	-0.505902	0.086997
C102	C	1.634572	-0.005902	0.586997
C103	C	1.184735	-0.438859	0.711193
C104	C	1.684735	0.061141	1.211193
C105	C	1.184744	-0.438824	0.793174
C106	C	1.684744	0.061176	1.293174
C107	C	1.134532	-0.505990	0.834148
C108	C	1.634532	-0.005990	1.334148
C109	C	1.084302	-0.573187	0.793138
C110	C	1.584302	-0.073187	1.293138
C111	C	1.084290	-0.573216	0.711159
C112	C	1.584290	-0.073216	1.211159
C113	C	1.084334	-0.573124	0.964008
C114	C	1.584334	-0.073124	1.464008
C115	C	1.084348	-0.573097	1.045992
C116	C	1.584348	-0.073097	1.545992
C117	C	1.184788	-0.438732	1.046023
C118	C	1.684788	0.061268	1.546023
C119	C	1.184776	-0.438761	0.964044
C120	C	1.684776	0.061239	1.464044
C121	C	1.134546	-0.505960	0.923039
C122	C	1.634546	-0.005960	1.423039
H123	H	0.434003	-0.627950	0.286983
H124	H	0.934003	-0.127950	0.786983
H125	H	1.043459	-0.627786	1.079351
H126	H	1.543459	-0.127786	1.579351
H127	H	1.225625	-0.384168	0.677838
H128	H	1.725625	0.115832	1.177838
H129	H	1.225644	-0.384110	0.826556
H130	H	1.725644	0.115890	1.326556
C131	C	0.675250	-0.365250	0.483810
C132	C	1.175250	0.134750	0.983810
N133	N	0.641317	-0.309655	0.525485
N134	N	1.141317	0.190345	1.025485
C135	C	1.235047	-1.236050	0.277950
C136	C	1.735047	-0.736050	0.777950
N137	N	1.235089	-1.326960	0.277968
N138	N	1.735089	-0.826960	0.777968
H139	H	1.225667	-0.384075	0.930685
H140	H	1.725667	0.115925	1.430685
C141	C	1.234848	-0.775211	0.277840
C142	C	1.734848	-0.275211	0.777840
N143	N	1.234809	-0.684301	0.277812
N144	N	1.734809	-0.184301	0.777812
C145	C	1.340369	-0.890411	0.172530
C146	C	1.840369	-0.390411	0.672530
N147	N	1.381962	-0.844952	0.130957
N148	N	1.881962	-0.344952	0.630957
H149	H	0.582828	-0.384442	0.469453
H150	H	1.082828	0.115558	0.969453
C151	C	1.034138	-1.236053	0.478594
C152	C	1.534138	-0.736053	0.978594
N153	N	1.034172	-1.326964	0.478607
N154	N	1.534172	-0.826964	0.978607
C155	C	0.847396	-0.365224	0.483796
C156	C	1.347396	0.134776	0.983796
N157	N	0.881373	-0.309611	0.525460
N158	N	1.381373	0.190389	1.025460
H159	H	1.225686	-0.384014	1.079413
H160	H	1.725686	0.115986	1.579413
C161	C	1.029082	-0.647050	0.918904
C162	C	1.529082	-0.147050	1.418904
N163	N	0.987470	-0.702736	0.884932
N164	N	1.487470	-0.202736	1.384932
C165	C	1.029040	-0.647137	0.666054
C166	C	1.529040	-0.147137	1.166054
N167	N	0.987423	-0.702815	0.632082
N168	N	1.487423	-0.202815	1.132082
H169	H	0.434100	-0.384457	0.469461
H170	H	0.934100	0.115543	0.969461
C171	C	1.033954	-0.775214	0.478494
C172	C	1.533954	-0.275214	0.978494
N173	N	1.033929	-0.684304	0.478475
N174	N	1.533929	-0.184304	0.978475
H175	H	0.582730	-0.627927	0.286963
H176	H	1.082730	-0.127927	0.786963
C177	C	0.675129	-0.647084	0.272587
C178	C	1.175129	-0.147084	0.772587
N179	N	0.641143	-0.702689	0.230925
N180	N	1.141143	-0.202689	0.730925
H181	H	0.835580	-0.627888	0.286942
H182	H	1.335580	-0.127888	0.786942
H183	H	1.326114	-1.105157	0.186915
H184	H	1.826114	-0.605157	0.686915
C185	C	0.928614	-1.120852	0.583909
C186	C	1.428614	-0.620852	1.083909
N187	N	0.887019	-1.166317	0.625476
N188	N	1.387019	-0.666317	1.125476
H189	H	0.942876	-0.906106	0.569538
H190	H	1.442876	-0.406106	1.069538
H191	H	1.043416	-0.627871	0.826505
H192	H	1.543416	-0.127871	1.326505
