data_functionalizedCrystal
_audit_creation_method	'MofGen! by Chris Wilmer'
_symmetry_space_group_name_H-M	'P1'
_symmetry_Int_Tables_number	1
_symmetry_cell_setting	triclinic
loop_
_symmetry_equiv_pos_as_xyz
  x,y,z
_cell_length_a	18.215407
_cell_length_b	15.297327
_cell_length_c	18.215399
_cell_angle_alpha	99.647813
_cell_angle_beta	89.980650
_cell_angle_gamma	99.707397
loop_
_atom_site_label
_atom_site_type_symbol
_atom_site_fract_x
_atom_site_fract_y
_atom_site_fract_z
Zn1	Zn	1.074356	-0.359162	-0.466794
Zn2	Zn	1.052963	-0.510035	-0.365015
Zn3	Zn	0.951285	-0.359192	-0.343745
Zn4	Zn	0.929959	-0.509984	-0.488033
O5	O	1.002141	-0.434593	-0.415897
O6	O	1.174501	-0.379184	-0.453305
O7	O	1.039447	-0.490060	-0.259214
O8	O	0.985489	-0.232941	-0.342277
O9	O	1.158784	-0.490030	-0.378529
O10	O	1.075909	-0.232918	-0.432680
O11	O	0.964745	-0.379236	-0.243587
O12	O	0.845473	-0.379186	-0.362872
O13	O	0.949142	-0.489942	-0.588195
O14	O	0.829805	-0.489972	-0.468880
O15	O	1.055230	-0.379134	-0.572590
O16	O	1.018768	-0.636276	-0.399124
O17	O	0.928398	-0.636238	-0.489505
C18	C	0.810937	-0.434578	-0.415874
C19	C	0.729136	-0.434593	-0.415884
C20	C	0.532790	-0.492370	-0.471036
C21	C	0.455931	-0.492372	-0.471046
C22	C	0.472242	-0.376833	-0.360776
C23	C	0.549100	-0.376826	-0.360770
C24	C	0.579371	-0.434600	-0.415900
C25	C	0.425654	-0.434609	-0.415915
C26	C	0.342320	-0.434612	-0.415925
C27	C	0.662711	-0.434596	-0.415891
C28	C	0.968967	-0.668991	-0.448944
C29	C	0.954843	-0.769268	-0.463106
C30	C	1.103395	-1.051884	-0.314929
C31	C	1.116665	-0.957669	-0.301619
C32	C	1.076211	-0.910564	-0.341989
C33	C	1.022484	-0.957683	-0.395672
C34	C	1.009208	-1.051907	-0.408979
C35	C	0.982024	-0.910588	-0.436040
C36	C	0.928296	-0.957707	-0.489723
C37	C	0.915023	-1.051921	-0.503028
C38	C	0.955478	-1.099026	-0.462657
C39	C	0.995300	-0.816364	-0.422733
C40	C	0.901112	-0.816387	-0.516784
C41	C	0.887842	-0.910602	-0.530093
C42	C	1.194092	-0.434609	-0.415921
C43	C	1.275889	-0.434616	-0.415931
C44	C	1.002193	-0.434529	-0.607841
C45	C	1.002215	-0.434502	-0.689636
C46	C	1.035464	-0.199280	-0.382737
C47	C	1.049665	-0.099003	-0.368606
C48	C	1.057494	-0.376726	-0.946559
C49	C	1.057481	-0.376751	-0.869703
C50	C	0.947016	-0.492147	-0.885944
C51	C	0.947031	-0.492126	-0.962798
C52	C	1.002270	-0.434411	-0.993103
C53	C	1.002242	-0.434456	-0.839393
C54	C	1.002228	-0.434483	-0.756063
C55	C	1.002285	-0.434385	-1.076438
C56	C	1.002140	-0.434592	-0.224690
C57	C	1.002297	-0.434365	-0.142860
H58	H	0.418007	-0.539413	-0.515944
H59	H	1.102472	-0.329730	-0.971230
O60	O	0.562216	-0.548577	-0.524499
C61	C	0.598437	-0.606768	-0.490731
H62	H	0.574477	-0.612259	-0.433537
H63	H	0.660634	-0.578867	-0.484295
C64	C	0.615781	-0.693863	-0.610044
C65	C	0.586348	-0.700613	-0.539800
H66	H	0.608327	-0.751749	-0.640313
H67	H	0.591381	-0.654656	-0.632795
H68	H	0.667609	-0.670608	-0.604671
H69	H	0.534519	-0.723856	-0.545174
H70	H	0.610739	-0.739825	-0.517051
O71	O	0.442708	-0.320801	-0.307260
C72	C	0.364884	-0.333177	-0.319098
H73	H	0.344539	-0.402840	-0.352928
H74	H	0.350654	-0.279729	-0.350828
C75	C	0.351569	-0.239231	-0.201918
C76	C	0.326580	-0.324795	-0.243463
H77	H	0.327941	-0.234057	-0.155264
H78	H	0.404001	-0.230890	-0.193944
H79	H	0.339709	-0.194700	-0.228368
H80	H	0.338449	-0.369324	-0.217018
H81	H	0.274149	-0.333144	-0.251432
O82	O	0.893457	-0.548247	-0.856422
C83	C	0.927105	-0.606536	-0.820196
H84	H	0.987379	-0.574716	-0.804218
H85	H	0.925731	-0.673388	-0.859231
C86	C	0.810266	-0.661965	-0.769105
C87	C	0.884294	-0.622880	-0.749474
H88	H	0.783857	-0.672051	-0.725482
H89	H	0.787596	-0.622698	-0.793513
H90	H	0.809132	-0.717671	-0.801635
H91	H	0.885428	-0.567170	-0.716953
H92	H	0.906964	-0.662138	-0.725059
O93	O	1.089102	-0.819045	-0.329200
C94	C	1.112429	-0.787491	-0.395287
H95	H	1.092190	-0.841767	-0.445331
H96	H	1.175855	-0.770707	-0.394527
C97	C	1.104429	-0.635714	-0.339436
C98	C	1.079565	-0.702374	-0.400901
H99	H	1.084160	-0.583208	-0.342898
H100	H	1.088716	-0.656971	-0.294910
H101	H	1.157283	-0.621739	-0.338809
H102	H	1.026713	-0.716356	-0.401521
H103	H	1.095269	-0.681117	-0.445427
H104	H	1.102451	-0.329779	-0.831809
O105	O	1.047390	-0.770558	-0.370508
C106	C	1.013190	-0.716120	-0.315261
H107	H	0.951221	-0.744572	-0.314682
H108	H	1.020708	-0.644697	-0.327925
C109	C	1.125498	-0.679757	-0.239300
C110	C	1.049387	-0.714707	-0.238584
H111	H	1.147827	-0.678881	-0.192002
H112	H	1.148540	-0.716430	-0.276521
H113	H	1.131752	-0.620241	-0.249856
H114	H	1.043134	-0.774225	-0.228038
H115	H	1.026344	-0.678044	-0.201358
H116	H	0.868170	-0.778035	-0.549656
O117	O	0.893369	-0.548042	-1.008083
C118	C	0.853106	-0.496670	-1.045287
H119	H	0.888738	-0.428293	-1.047167
H120	H	0.799959	-0.486774	-1.014271
C121	C	0.789021	-0.630269	-1.122975
C122	C	0.832787	-0.546290	-1.125290
H123	H	0.776484	-0.660878	-1.172324
H124	H	0.816145	-0.664880	-1.097908
H125	H	0.744737	-0.622011	-1.097125
H126	H	0.877074	-0.554550	-1.151131
H127	H	0.805670	-0.511681	-1.150363
H128	H	0.587029	-0.329777	-0.315871
O129	O	1.168906	-0.912040	-0.249477
C130	C	1.201755	-0.973816	-0.216687
H131	H	1.194825	-1.040952	-0.256314
H132	H	1.173417	-0.983907	-0.162194
C133	C	1.293788	-0.854517	-0.152282
C134	C	1.285283	-0.936973	-0.200955
H135	H	1.345311	-0.831790	-0.142574
H136	H	1.271656	-0.812896	-0.174370
H137	H	1.270169	-0.862937	-0.106876
H138	H	1.308893	-0.928550	-0.246362
H139	H	1.307421	-0.978591	-0.178873
H140	H	1.136322	-1.090245	-0.282060
H141	H	0.944678	-1.175744	-0.473493
O142	O	0.862914	-1.097652	-0.555270
C143	C	0.882201	-1.074536	-0.625367
H144	H	0.944649	-1.048576	-0.625469
H145	H	0.850438	-1.019869	-0.636847
C146	C	0.785120	-1.190088	-0.686166
C147	C	0.861822	-1.158209	-0.686293
H148	H	0.772547	-1.241699	-0.723749
H149	H	0.772124	-1.205659	-0.638941
H150	H	0.758660	-1.144524	-0.695731
H151	H	0.888280	-1.203769	-0.676719
H152	H	0.874822	-1.142647	-0.733519
O153	O	0.835734	-0.956338	-0.582336
C154	C	0.855020	-0.933226	-0.652434
H155	H	0.917467	-0.907257	-0.652535
H156	H	0.823251	-0.878566	-0.663918
C157	C	0.757949	-1.048792	-0.713230
C158	C	0.834648	-1.016904	-0.713357
H159	H	0.745379	-1.100406	-0.750811
H160	H	0.744953	-1.064361	-0.666004
H161	H	0.731483	-1.003234	-0.722798
H162	H	0.861112	-1.062457	-0.703780
H163	H	0.847648	-1.001344	-0.760583
