data_functionalizedCrystal
_audit_creation_method	'MofGen! by Chris Wilmer'
_symmetry_space_group_name_H-M	'P1'
_symmetry_Int_Tables_number	1
_symmetry_cell_setting	triclinic
loop_
_symmetry_equiv_pos_as_xyz
  x,y,z
_cell_length_a	12.759401
_cell_length_b	21.295417
_cell_length_c	12.759393
_cell_angle_alpha	89.961877
_cell_angle_beta	89.981433
_cell_angle_gamma	90.028746
loop_
_atom_site_label
_atom_site_type_symbol
_atom_site_fract_x
_atom_site_fract_y
_atom_site_fract_z
Zn1	Zn	1.606146	-0.250588	-0.593935
Zn2	Zn	2.106146	0.249412	-0.093935
Zn3	Zn	1.605994	-0.355872	-0.418235
Zn4	Zn	2.105994	0.144128	0.081765
Zn5	Zn	1.430448	-0.250619	-0.418275
Zn6	Zn	1.930448	0.249381	0.081725
Zn7	Zn	1.430390	-0.355822	-0.593877
Zn8	Zn	1.930390	0.144178	-0.093877
O9	O	1.518245	-0.303225	-0.506081
O10	O	2.018245	0.196775	-0.006081
O11	O	1.753147	-0.264563	-0.570637
O12	O	2.253147	0.235437	-0.070637
O13	O	1.582668	-0.341944	-0.271219
O14	O	2.082668	0.158056	0.228781
O15	O	1.453842	-0.162526	-0.441617
O16	O	1.953842	0.337474	0.058383
O17	O	1.753035	-0.341914	-0.441551
O18	O	2.253035	0.158086	0.058449
O19	O	1.582927	-0.162503	-0.570675
O20	O	2.082927	0.337497	-0.070675
O21	O	1.453695	-0.264615	-0.271248
O22	O	1.953695	0.235385	0.228752
O23	O	1.283419	-0.264566	-0.441560
O24	O	1.783419	0.235434	0.058440
O25	O	1.453744	-0.341828	-0.740906
O26	O	1.953744	0.158172	-0.240906
O27	O	1.283377	-0.341858	-0.570574
O28	O	1.783377	0.158142	-0.070574
O29	O	1.582871	-0.264514	-0.740949
O30	O	2.082871	0.235486	-0.240949
O31	O	1.582612	-0.443955	-0.441494
O32	O	2.082612	0.056045	0.058506
O33	O	1.453597	-0.443918	-0.570536
O34	O	1.953597	0.056082	-0.070536
C35	C	1.245277	-0.303210	-0.506066
C36	C	1.745277	0.196790	-0.006066
C37	C	1.128501	-0.303219	-0.506085
C38	C	1.628501	0.196781	-0.006085
C39	C	1.073690	-0.263018	-0.573404
C40	C	1.573690	0.236982	-0.073404
C41	C	0.963966	-0.263030	-0.573410
C42	C	1.463966	0.236970	-0.073410
C43	C	0.963873	-0.343450	-0.438776
C44	C	1.463873	0.156550	0.061224
C45	C	1.073595	-0.343434	-0.438765
C46	C	1.573595	0.156566	0.061235
C47	C	1.128595	-0.222803	-0.640724
C48	C	1.628595	0.277197	-0.140724
C49	C	1.073784	-0.182600	-0.708049
C50	C	1.573784	0.317400	-0.208049
C51	C	0.964060	-0.182612	-0.708056
C52	C	1.464060	0.317388	-0.208056
C53	C	0.909147	-0.222828	-0.640737
C54	C	1.409147	0.277172	-0.140737
C55	C	1.518111	-0.466777	-0.506027
C56	C	2.018111	0.033223	-0.006027
C57	C	1.518150	-0.536745	-0.506040
C58	C	2.018150	-0.036745	-0.006040
C59	C	1.585325	-0.569543	-0.573288
C60	C	2.085325	-0.069543	-0.073288
C61	C	1.585362	-0.635285	-0.573314
C62	C	2.085362	-0.135285	-0.073314
C63	C	1.518235	-0.668227	-0.506073
C64	C	2.018235	-0.168227	-0.006073
C65	C	1.451046	-0.635422	-0.438820
C66	C	1.951046	-0.135422	0.061180
C67	C	1.451003	-0.569681	-0.438803
C68	C	1.951003	-0.069681	0.061197
N69	N	1.510296	-0.771497	-0.414126
N70	N	2.010296	-0.271497	0.085874
N71	N	1.510342	-0.833948	-0.414145
N72	N	2.010342	-0.333948	0.085855
C73	C	1.518357	-0.866302	-0.506120
C74	C	2.018357	-0.366302	-0.006120
N75	N	1.526345	-0.833846	-0.598078
N76	N	2.026345	-0.333846	-0.098078
N77	N	1.526303	-0.771388	-0.598058
N78	N	2.026303	-0.271388	-0.098058
C79	C	1.518273	-0.739513	-0.506084
C80	C	2.018273	-0.239513	-0.006084
C81	C	1.585577	-0.970385	-0.573402
C82	C	2.085577	-0.470385	-0.073402
C83	C	1.585607	-1.036129	-0.573430
C84	C	2.085607	-0.536129	-0.073430
C85	C	1.451296	-1.036265	-0.438927
C86	C	1.951296	-0.536265	0.061073
C87	C	1.451260	-0.970522	-0.438908
C88	C	1.951260	-0.470522	0.061092
C89	C	1.518407	-0.937586	-0.506145
C90	C	2.018407	-0.437586	-0.006145
C91	C	1.792278	-0.303241	-0.506096
C92	C	2.292278	0.196759	-0.006096
C93	C	1.909054	-0.303247	-0.506102
C94	C	2.409054	0.196753	-0.006102
C95	C	1.518318	-0.303162	-0.780114
C96	C	2.018318	0.196838	-0.280114
C97	C	1.518350	-0.303135	-0.896891
C98	C	2.018350	0.196865	-0.396891
C99	C	1.518408	-0.139035	-0.506157
C100	C	2.018408	0.360965	-0.006157
C101	C	1.518477	-0.069067	-0.506189
C102	C	2.018477	0.430933	-0.006189
C103	C	1.585595	-0.262873	-0.951777
C104	C	2.085595	0.237127	-0.451777
C105	C	1.585620	-0.262850	-1.061501
C106	C	2.085620	0.237150	-0.561501
C107	C	1.451151	-0.343356	-1.061443
C108	C	1.951151	0.156644	-0.561443
C109	C	1.451122	-0.343375	-0.951721
C110	C	1.951122	0.156625	-0.451721
C111	C	1.652823	-0.222633	-0.896947
C112	C	2.152823	0.277367	-0.396947
C113	C	1.720075	-0.182368	-0.951833
C114	C	2.220075	0.317632	-0.451833
C115	C	1.720100	-0.182345	-1.061557
C116	C	2.220100	0.317655	-0.561557
C117	C	1.652873	-0.222587	-1.116395
C118	C	2.152873	0.277413	-0.616395
C119	C	1.518232	-0.303243	-0.233113
C120	C	2.018232	0.196757	0.266887
C121	C	1.518404	-0.303093	-0.116337
C122	C	2.018404	0.196907	0.383663
H123	H	0.819802	-0.222821	-0.640725
H124	H	1.319802	0.277179	-0.140725
H125	H	1.396632	-1.063086	-0.384184
H126	H	1.896632	-0.563086	0.115816
F127	F	1.657035	-0.935331	-0.644963
F128	F	2.157035	-0.435331	-0.144963
F129	F	1.379550	-0.386226	-0.893304
F130	F	1.879550	0.113774	-0.393304
H131	H	1.396564	-0.943816	-0.384144
H132	H	1.896564	-0.443816	0.115856
F133	F	1.379611	-0.386183	-1.119809
F134	F	1.879611	0.113817	-0.619809
F135	F	1.379501	-0.534774	-0.367227
F136	F	1.879501	-0.034774	0.132773
H137	H	1.396388	-0.662248	-0.384074
H138	H	1.896388	-0.162248	0.115926
F139	F	1.656784	-0.534494	-0.644852
F140	F	2.156784	-0.034494	-0.144852
F141	F	1.245372	-0.222790	-0.640726
F142	F	1.745372	0.277210	-0.140726
H143	H	1.118501	-0.149854	-0.762851
H144	H	1.618501	0.350146	-0.262851
H145	H	1.118223	-0.376169	-0.383947
H146	H	1.618223	0.123831	0.116053
H147	H	1.774802	-0.149601	-0.907177
H148	H	2.274802	0.350399	-0.407177
H149	H	1.652813	-0.222648	-0.807604
H150	H	2.152813	0.277352	-0.307604
F151	F	0.905729	-0.139820	-0.779701
F152	F	1.405729	0.360180	-0.279701
F153	F	1.656868	-0.670198	-0.644887
F154	F	2.156868	-0.170198	-0.144887
H155	H	0.919154	-0.376193	-0.383970
H156	H	1.419154	0.123807	0.116030
F157	F	1.657098	-1.071035	-0.645020
F158	F	2.157098	-0.571035	-0.145020
F159	F	1.791674	-0.139494	-1.119968
F160	F	2.291674	0.360506	-0.619968
F161	F	1.652890	-0.222553	-1.233175
F162	F	2.152890	0.277447	-0.733175
