data_functionalizedCrystal
_audit_creation_method	'MofGen! by Chris Wilmer'
_symmetry_space_group_name_H-M	'P1'
_symmetry_Int_Tables_number	1
_symmetry_cell_setting	triclinic
loop_
_symmetry_equiv_pos_as_xyz
  x,y,z
_cell_length_a	21.395362
_cell_length_b	18.050589
_cell_length_c	21.395356
_cell_angle_alpha	89.977426
_cell_angle_beta	89.964122
_cell_angle_gamma	90.044101
loop_
_atom_site_label
_atom_site_type_symbol
_atom_site_fract_x
_atom_site_fract_y
_atom_site_fract_z
Zn1	Zn	0.957820	-0.295360	-0.354610
Zn2	Zn	1.207820	-0.045360	-0.104610
Zn3	Zn	1.457820	0.204640	0.145390
Zn4	Zn	1.707820	0.454640	0.395390
Zn5	Zn	0.957742	-0.419553	-0.249843
Zn6	Zn	1.207742	-0.169553	0.000157
Zn7	Zn	1.457742	0.080447	0.250157
Zn8	Zn	1.707742	0.330447	0.500157
Zn9	Zn	0.853050	-0.295415	-0.249811
Zn10	Zn	1.103050	-0.045415	0.000189
Zn11	Zn	1.353050	0.204585	0.250189
Zn12	Zn	1.603050	0.454585	0.500189
Zn13	Zn	0.853009	-0.419547	-0.354547
Zn14	Zn	1.103009	-0.169547	-0.104547
Zn15	Zn	1.353009	0.080453	0.145453
Zn16	Zn	1.603009	0.330453	0.395453
O17	O	0.905406	-0.357469	-0.302203
O18	O	1.155406	-0.107469	-0.052203
O19	O	1.405406	0.142531	0.197797
O20	O	1.655406	0.392531	0.447797
O21	O	1.045488	-0.311813	-0.340752
O22	O	1.295488	-0.061813	-0.090752
O23	O	1.545488	0.188187	0.159248
O24	O	1.795488	0.438187	0.409248
O25	O	0.943839	-0.403111	-0.162161
O26	O	1.193839	-0.153111	0.087839
O27	O	1.443839	0.096889	0.337839
O28	O	1.693839	0.346889	0.587839
O29	O	0.866998	-0.191483	-0.263726
O30	O	1.116998	0.058517	-0.013726
O31	O	1.366998	0.308517	0.236274
O32	O	1.616998	0.558517	0.486274
O33	O	1.045431	-0.403057	-0.263780
O34	O	1.295431	-0.153057	-0.013780
O35	O	1.545431	0.096943	0.236220
O36	O	1.795431	0.346943	0.486220
O37	O	0.943972	-0.191443	-0.340721
O38	O	1.193972	0.058557	-0.090721
O39	O	1.443972	0.308557	0.159279
O40	O	1.693972	0.558557	0.409279
O41	O	0.866922	-0.311908	-0.162138
O42	O	1.116922	-0.061908	0.087862
O43	O	1.366922	0.188092	0.337862
O44	O	1.616922	0.438092	0.587862
O45	O	0.765367	-0.311903	-0.263665
O46	O	1.015367	-0.061903	-0.013665
O47	O	1.265367	0.188097	0.236335
O48	O	1.515367	0.438097	0.486335
O49	O	0.866928	-0.403048	-0.442234
O50	O	1.116928	-0.153048	-0.192234
O51	O	1.366928	0.096952	0.057766
O52	O	1.616928	0.346952	0.307766
O53	O	0.765337	-0.403101	-0.340615
O54	O	1.015337	-0.153101	-0.090615
O55	O	1.265337	0.096899	0.159385
O56	O	1.515337	0.346899	0.409385
O57	O	0.943933	-0.311808	-0.442280
O58	O	1.193933	-0.061808	-0.192280
O59	O	1.443933	0.188192	0.057720
O60	O	1.693933	0.438192	0.307720
O61	O	0.943799	-0.523476	-0.263719
O62	O	1.193799	-0.273476	-0.013719
O63	O	1.443799	-0.023476	0.236281
O64	O	1.693799	0.226524	0.486281
O65	O	0.866852	-0.523472	-0.340645
O66	O	1.116852	-0.273472	-0.090645
O67	O	1.366852	-0.023472	0.159355
O68	O	1.616852	0.226528	0.409355
C69	C	0.742618	-0.357508	-0.302130
C70	C	0.992618	-0.107508	-0.052130
C71	C	1.242618	0.142492	0.197870
C72	C	1.492618	0.392492	0.447870
C73	C	0.672977	-0.357543	-0.302114
C74	C	0.922977	-0.107543	-0.052114
C75	C	1.172977	0.142457	0.197886
C76	C	1.422977	0.392457	0.447886
C77	C	0.640264	-0.405093	-0.342121
C78	C	0.890264	-0.155093	-0.092121
C79	C	1.140264	0.094907	0.157879
C80	C	1.390264	0.344907	0.407879
C81	C	0.574829	-0.405075	-0.342149
C82	C	0.824829	-0.155075	-0.092149
C83	C	1.074829	0.094925	0.157851
C84	C	1.324829	0.344925	0.407851
C85	C	0.542108	-0.357514	-0.302159
C86	C	0.792108	-0.107514	-0.052159
C87	C	1.042108	0.142486	0.197841
C88	C	1.292108	0.392486	0.447841
C89	C	0.574829	-0.309955	-0.262148
C90	C	0.824829	-0.059955	-0.012148
C91	C	1.074829	0.190045	0.237852
C92	C	1.324829	0.440045	0.487852
C93	C	0.640263	-0.309969	-0.262126
C94	C	0.890263	-0.059969	-0.012126
C95	C	1.140263	0.190031	0.237874
C96	C	1.390263	0.440031	0.487874
C97	C	0.438391	-0.351543	-0.245753
C98	C	0.688391	-0.101543	0.004247
C99	C	0.938391	0.148457	0.254247
C100	C	1.188391	0.398457	0.504247
C101	C	0.372958	-0.351533	-0.245774
C102	C	0.622958	-0.101533	0.004226
C103	C	0.872958	0.148467	0.254226
C104	C	1.122958	0.398467	0.504226
C105	C	0.340288	-0.357466	-0.302228
C106	C	0.590288	-0.107466	-0.052228
C107	C	0.840288	0.142534	0.197772
C108	C	1.090288	0.392534	0.447772
C109	C	0.373058	-0.363422	-0.358662
C110	C	0.623058	-0.113422	-0.108662
C111	C	0.873058	0.136578	0.141338
C112	C	1.123058	0.386578	0.391338
C113	C	0.438492	-0.363437	-0.358640
C114	C	0.688492	-0.113437	-0.108640
C115	C	0.938492	0.136563	0.141360
C116	C	1.188492	0.386563	0.391360
C117	C	0.471156	-0.357493	-0.302179
C118	C	0.721156	-0.107493	-0.052179
C119	C	0.971156	0.142507	0.197821
C120	C	1.221156	0.392507	0.447821
C121	C	0.236623	-0.404999	-0.342269
C122	C	0.486623	-0.154999	-0.092269
C123	C	0.736623	0.095001	0.157731
C124	C	0.986623	0.345001	0.407731
C125	C	0.171186	-0.404975	-0.342298
C126	C	0.421186	-0.154975	-0.092298
C127	C	0.671186	0.095025	0.157702
C128	C	0.921186	0.345025	0.407702
C129	C	0.171187	-0.309859	-0.262291
C130	C	0.421187	-0.059859	-0.012291
C131	C	0.671187	0.190141	0.237709
C132	C	0.921187	0.440141	0.487709
C133	C	0.236622	-0.309878	-0.262268
C134	C	0.486622	-0.059878	-0.012268
C135	C	0.736622	0.190122	0.237732
C136	C	0.986622	0.440122	0.487732
C137	C	0.269336	-0.357452	-0.302256
C138	C	0.519336	-0.107452	-0.052256
C139	C	0.769336	0.142548	0.197744
C140	C	1.019336	0.392548	0.447744
C141	C	0.905330	-0.550421	-0.302192
C142	C	1.155330	-0.300421	-0.052192
C143	C	1.405330	-0.050421	0.197808
C144	C	1.655330	0.199579	0.447808
C145	C	0.905355	-0.632967	-0.302209
C146	C	1.155355	-0.382967	-0.052209
C147	C	1.405355	-0.132967	0.197791
C148	C	1.655355	0.117033	0.447791
C149	C	0.863552	-0.832442	-0.344027
C150	C	1.113552	-0.582442	-0.094027
C151	C	1.363552	-0.332442	0.155973
C152	C	1.613552	-0.082442	0.405973
C153	C	0.848282	-0.881886	-0.286848
C154	C	1.098282	-0.631886	-0.036848
C155	C	1.348282	-0.381886	0.213152
C156	C	1.598282	-0.131886	0.463152
C157	C	0.905416	-0.784097	-0.302217
C158	C	1.155416	-0.534097	-0.052217
C159	C	1.405416	-0.284097	0.197783
C160	C	1.655416	-0.034097	0.447783
C161	C	0.920717	-0.881734	-0.359402
C162	C	1.170717	-0.631734	-0.109402
C163	C	1.420717	-0.381734	0.140598
C164	C	1.670717	-0.131734	0.390598
C165	C	0.905475	-0.930082	-0.302230
C166	C	1.155475	-0.680082	-0.052230
C167	C	1.405475	-0.430082	0.197770
C168	C	1.655475	-0.180082	0.447770
C169	C	0.890116	-0.832454	-0.245009
C170	C	1.140116	-0.582454	0.004991
C171	C	1.390116	-0.332454	0.254991
C172	C	1.640116	-0.082454	0.504991
C173	C	0.962578	-0.832298	-0.317601
C174	C	1.212578	-0.582298	-0.067601
C175	C	1.462578	-0.332298	0.182399
C176	C	1.712578	-0.082298	0.432399
C177	C	0.947330	-0.881720	-0.260383
C178	C	1.197330	-0.631720	-0.010383
C179	C	1.447330	-0.381720	0.239617
C180	C	1.697330	-0.131720	0.489617
C181	C	0.905381	-0.699999	-0.302211
C182	C	1.155381	-0.449999	-0.052211
C183	C	1.405381	-0.199999	0.197789
C184	C	1.655381	0.050001	0.447789
C185	C	0.905510	-1.014178	-0.302230
C186	C	1.155510	-0.764178	-0.052230
C187	C	1.405510	-0.514178	0.197770
C188	C	1.655510	-0.264178	0.447770
C189	C	1.068829	-0.357430	-0.302276
C190	C	1.318829	-0.107430	-0.052276
C191	C	1.568829	0.142570	0.197724
C192	C	1.818829	0.392570	0.447724
C193	C	1.138470	-0.357413	-0.302307
C194	C	1.388470	-0.107413	-0.052307
C195	C	1.638470	0.142587	0.197693
C196	C	1.888470	0.392587	0.447693
C197	C	0.905435	-0.357421	-0.465626
C198	C	1.155435	-0.107421	-0.215626
C199	C	1.405435	0.142579	0.034374
C200	C	1.655435	0.392579	0.284374
C201	C	0.905447	-0.357401	-0.535268
C202	C	1.155447	-0.107401	-0.285268
C203	C	1.405447	0.142599	-0.035268
C204	C	1.655447	0.392599	0.214732
C205	C	0.905499	-0.163763	-0.302227
C206	C	1.155499	0.086237	-0.052227
C207	C	1.405499	0.336237	0.197773
C208	C	1.655499	0.586237	0.447773
C209	C	0.905538	-0.081217	-0.302237
C210	C	1.155538	0.168783	-0.052237
C211	C	1.405538	0.418783	0.197763
C212	C	1.655538	0.668783	0.447763
C213	C	0.945602	-0.309774	-1.037089
C214	C	1.195602	-0.059774	-0.787089
C215	C	1.445602	0.190226	-0.537089
C216	C	1.695602	0.440226	-0.287089
C217	C	0.945597	-0.309792	-0.971653
C218	C	1.195597	-0.059792	-0.721653
C219	C	1.445597	0.190208	-0.471653
C220	C	1.695597	0.440208	-0.221653
C221	C	0.905501	-0.357302	-0.938906
C222	C	1.155501	-0.107302	-0.688906
C223	C	1.405501	0.142698	-0.438906
C224	C	1.655501	0.392698	-0.188906
C225	C	0.865417	-0.404811	-0.971600
C226	C	1.115417	-0.154811	-0.721600
C227	C	1.365417	0.095189	-0.471600
C228	C	1.615417	0.345189	-0.221600
C229	C	0.865428	-0.404797	-1.037034
C230	C	1.115428	-0.154797	-0.787034
C231	C	1.365428	0.095203	-0.537034
C232	C	1.615428	0.345203	-0.287034
C233	C	0.849032	-0.363202	-0.835211
C234	C	1.099032	-0.113202	-0.585211
C235	C	1.349032	0.136798	-0.335211
C236	C	1.599032	0.386798	-0.085211
C237	C	0.849020	-0.363210	-0.769778
C238	C	1.099020	-0.113210	-0.519778
C239	C	1.349020	0.136790	-0.269778
C240	C	1.599020	0.386790	-0.019778
C241	C	0.905469	-0.357349	-0.737085
C242	C	1.155469	-0.107349	-0.487085
C243	C	1.405469	0.142651	-0.237085
C244	C	1.655469	0.392651	0.012915
C245	C	0.961930	-0.351464	-0.769833
C246	C	1.211930	-0.101464	-0.519833
C247	C	1.461930	0.148536	-0.269833
C248	C	1.711930	0.398536	-0.019833
C249	C	0.961941	-0.351450	-0.835267
C250	C	1.211941	-0.101450	-0.585267
C251	C	1.461941	0.148550	-0.335267
C252	C	1.711941	0.398550	-0.085267
C253	C	0.905485	-0.357323	-0.867954
C254	C	1.155485	-0.107323	-0.617954
C255	C	1.405485	0.142677	-0.367954
C256	C	1.655485	0.392677	-0.117954
C257	C	0.945547	-0.309866	-0.633447
C258	C	1.195547	-0.059866	-0.383447
C259	C	1.445547	0.190134	-0.133447
C260	C	1.695547	0.440134	0.116553
C261	C	0.945543	-0.309889	-0.568010
C262	C	1.195543	-0.059889	-0.318010
C263	C	1.445543	0.190111	-0.068010
C264	C	1.695543	0.440111	0.181990
C265	C	0.865358	-0.404905	-0.567958
C266	C	1.115358	-0.154905	-0.317958
C267	C	1.365358	0.095095	-0.067958
C268	C	1.615358	0.345095	0.182042
C269	C	0.865367	-0.404885	-0.633393
C270	C	1.115367	-0.154885	-0.383393
C271	C	1.365367	0.095115	-0.133393
C272	C	1.615367	0.345115	0.116607
C273	C	0.905461	-0.357362	-0.666134
C274	C	1.155461	-0.107362	-0.416134
C275	C	1.405461	0.142638	-0.166134
C276	C	1.655461	0.392638	0.083866
C277	C	0.905413	-0.357463	-0.139415
C278	C	1.155413	-0.107463	0.110585
C279	C	1.405413	0.142537	0.360585
C280	C	1.655413	0.392537	0.610585
C281	C	0.905522	-0.357274	-0.069774
C282	C	1.155522	-0.107274	0.180226
C283	C	1.405522	0.142726	0.430226
C284	C	1.655522	0.392726	0.680226
H285	H	0.346459	-0.368252	-0.404632
H286	H	0.596459	-0.118252	-0.154632
H287	H	0.846459	0.131748	0.095368
H288	H	1.096459	0.381748	0.345368
H289	H	0.263260	-0.443732	-0.374833
H290	H	0.513260	-0.193732	-0.124833
H291	H	0.763260	0.056268	0.125167
H292	H	1.013260	0.306268	0.375167
Cl293	Cl	0.130061	-0.464754	-0.392601
Cl294	Cl	0.380061	-0.214754	-0.142601
Cl295	Cl	0.630061	0.035246	0.107399
Cl296	Cl	0.880061	0.285246	0.357399
H297	H	0.548183	-0.271229	-0.229589
H298	H	0.798183	-0.021229	0.020411
H299	H	1.048183	0.228771	0.270411
H300	H	1.298183	0.478771	0.520411
Cl301	Cl	0.130059	-0.250063	-0.212020
Cl302	Cl	0.380059	-0.000063	0.037980
Cl303	Cl	0.630059	0.249937	0.287980
Cl304	Cl	0.880059	0.499937	0.537980
H305	H	0.799970	-0.903683	-0.273849
H306	H	1.049970	-0.653683	-0.023849
H307	H	1.299970	-0.403683	0.226151
H308	H	1.549970	-0.153683	0.476151
H309	H	0.978252	-0.271080	-1.063742
H310	H	1.228252	-0.021080	-0.813742
H311	H	1.478252	0.228920	-0.563742
H312	H	1.728252	0.478920	-0.313742
H313	H	0.832713	-0.443591	-0.541296
H314	H	1.082713	-0.193591	-0.291296
H315	H	1.332713	0.056409	-0.041296
H316	H	1.582713	0.306409	0.208704
H317	H	0.828097	-0.810803	-0.379334
H318	H	1.078097	-0.560803	-0.129334
H319	H	1.328097	-0.310803	0.120666
H320	H	1.578097	-0.060803	0.370666
H321	H	0.877142	-0.810896	-0.196640
H322	H	1.127142	-0.560896	0.053360
H323	H	1.377142	-0.310896	0.303360
H324	H	1.627142	-0.060896	0.553360
Cl325	Cl	1.002030	-0.914918	-0.205743
Cl326	Cl	1.252030	-0.664918	0.044257
Cl327	Cl	1.502030	-0.414918	0.294257
Cl328	Cl	1.752030	-0.164918	0.544257
Cl329	Cl	0.681387	-0.464896	-0.392395
Cl330	Cl	0.931387	-0.214896	-0.142395
Cl331	Cl	1.181387	0.035104	0.107605
Cl332	Cl	1.431387	0.285104	0.357605
H333	H	0.263257	-0.271162	-0.229686
H334	H	0.513257	-0.021162	0.020314
H335	H	0.763257	0.228838	0.270314
H336	H	1.013257	0.478838	0.520314
H337	H	0.548189	-0.443795	-0.374731
H338	H	0.798189	-0.193795	-0.124731
H339	H	1.048189	0.056205	0.125269
H340	H	1.298189	0.306205	0.375269
H341	H	0.832727	-0.443562	-0.660006
H342	H	1.082727	-0.193562	-0.410006
H343	H	1.332727	0.056438	-0.160006
H344	H	1.582727	0.306438	0.089994
H345	H	0.346282	-0.346688	-0.199822
H346	H	0.596282	-0.096688	0.050178
H347	H	0.846282	0.153312	0.300178
H348	H	1.096282	0.403312	0.550178
H349	H	1.010880	-0.810503	-0.330628
H350	H	1.260880	-0.560503	-0.080628
H351	H	1.510880	-0.310503	0.169372
H352	H	1.760880	-0.060503	0.419372
Cl353	Cl	0.940662	-0.915160	-0.434057
Cl354	Cl	1.190662	-0.665160	-0.184057
Cl355	Cl	1.440662	-0.415160	0.065943
Cl356	Cl	1.690662	-0.165160	0.315943
Cl357	Cl	0.815037	-0.464516	-1.078126
Cl358	Cl	1.065037	-0.214516	-0.828126
Cl359	Cl	1.315037	0.035484	-0.578126
Cl360	Cl	1.565037	0.285484	-0.328126
H361	H	0.465171	-0.368285	-0.404590
H362	H	0.715171	-0.118285	-0.154590
H363	H	0.965171	0.131715	0.095410
H364	H	1.215171	0.381715	0.345410
H365	H	1.007896	-0.346688	-0.743216
H366	H	1.257896	-0.096688	-0.493216
H367	H	1.507896	0.153312	-0.243216
H368	H	1.757896	0.403312	0.006784
H369	H	0.978235	-0.271109	-0.945036
H370	H	1.228235	-0.021109	-0.695036
H371	H	1.478235	0.228891	-0.445036
H372	H	1.728235	0.478891	-0.195036
Cl373	Cl	0.778041	-0.370602	-0.728616
Cl374	Cl	1.028041	-0.120602	-0.478616
Cl375	Cl	1.278041	0.129398	-0.228616
Cl376	Cl	1.528041	0.379398	0.021384
H377	H	1.007914	-0.346659	-0.861928
H378	H	1.257914	-0.096659	-0.611928
H379	H	1.507914	0.153341	-0.361928
H380	H	1.757914	0.403341	-0.111928
Cl381	Cl	0.995938	-0.250111	-0.674610
Cl382	Cl	1.245938	-0.000111	-0.424610
Cl383	Cl	1.495938	0.249889	-0.174610
Cl384	Cl	1.745938	0.499889	0.075390
Cl385	Cl	0.995938	-0.250174	-0.526919
Cl386	Cl	1.245938	-0.000174	-0.276919
Cl387	Cl	1.495938	0.249826	-0.026919
Cl388	Cl	1.745938	0.499826	0.223081
Cl389	Cl	0.815012	-0.464540	-0.930432
Cl390	Cl	1.065012	-0.214540	-0.680432
Cl391	Cl	1.315012	0.035460	-0.430432
Cl392	Cl	1.565012	0.285460	-0.180432
H393	H	0.464986	-0.346709	-0.199778
H394	H	0.714986	-0.096709	0.050222
H395	H	0.964986	0.153291	0.300222
H396	H	1.214986	0.403291	0.550222
Cl397	Cl	0.681389	-0.250187	-0.211826
Cl398	Cl	0.931389	-0.000187	0.038174
Cl399	Cl	1.181389	0.249813	0.288174
Cl400	Cl	1.431389	0.499813	0.538174
H401	H	0.803062	-0.367975	-0.861825
H402	H	1.053062	-0.117975	-0.611825
H403	H	1.303062	0.132025	-0.361825
H404	H	1.553062	0.382025	-0.111825
