data_functionalizedCrystal
_audit_creation_method	'MofGen! by Chris Wilmer'
_symmetry_space_group_name_H-M	'P1'
_symmetry_Int_Tables_number	1
_symmetry_cell_setting	triclinic
loop_
_symmetry_equiv_pos_as_xyz
  x,y,z
_cell_length_a	15.538191
_cell_length_b	13.930277
_cell_length_c	14.853559
_cell_angle_alpha	89.999495
_cell_angle_beta	65.451774
_cell_angle_gamma	90.005347
loop_
_atom_site_label
_atom_site_type_symbol
_atom_site_fract_x
_atom_site_fract_y
_atom_site_fract_z
O1	O	1.249539	0.079853	-0.292691
O2	O	0.975413	0.079848	-0.188637
O3	O	1.119803	0.079850	-0.374301
O4	O	1.105150	0.079852	-0.107028
O5	O	1.119788	-0.079812	-0.374292
O6	O	0.975399	-0.079813	-0.188629
O7	O	1.249525	-0.079809	-0.292683
Zn8	Zn	1.112460	-0.105161	-0.240654
Zn9	Zn	1.112478	0.105201	-0.240666
O10	O	1.105135	-0.079810	-0.107019
C11	C	0.940324	0.000017	-0.177746
C12	C	0.835792	0.000015	-0.145318
N13	N	1.112454	-0.248727	-0.240649
C14	C	1.048509	-0.298991	-0.158454
C15	C	1.176404	-0.298968	-0.322851
C16	C	1.176414	-0.399464	-0.322858
C17	C	1.112470	-0.449728	-0.240662
C18	C	1.048515	-0.399496	-0.158459
C19	C	1.240361	-0.449703	-0.405063
C20	C	1.240373	-0.550205	-0.405074
C21	C	1.176432	-0.600471	-0.322874
C22	C	1.112476	-0.550233	-0.240668
C23	C	1.048532	-0.600497	-0.158472
C24	C	0.984579	-0.550260	-0.076261
C25	C	0.984575	-0.449762	-0.076259
C26	C	1.176436	-0.700970	-0.322876
C27	C	1.048538	-0.701002	-0.158477
C28	C	0.547590	0.000028	-0.467483
C29	C	0.449363	0.000029	-0.436989
C30	C	0.427139	0.000030	-0.265468
C31	C	0.525366	0.000024	-0.295948
C32	C	0.585585	0.000025	-0.396956
C33	C	0.563361	0.000021	-0.225421
C34	C	0.661579	0.000020	-0.255898
C35	C	0.721803	0.000023	-0.356903
C36	C	0.683803	0.000024	-0.427434
C37	C	0.503141	0.000028	-0.124413
C38	C	0.541135	0.000024	-0.053886
C39	C	0.639355	0.000017	-0.084363
C40	C	0.699579	0.000020	-0.185367
C41	C	0.677356	0.000016	-0.013832
C42	C	0.775574	0.000015	-0.044310
C43	C	0.797798	0.000019	-0.215845
C44	C	1.284614	0.000025	-0.303574
C45	C	1.389146	0.000033	-0.336002
C46	C	1.119133	0.000021	-0.407668
C47	C	1.117148	0.000026	-0.507100
N48	N	1.112492	0.248767	-0.240680
C49	C	1.108733	0.087058	-0.927513
C50	C	1.108718	-0.087012	-0.927499
C51	C	1.110591	-0.087013	-0.834081
C52	C	1.111534	0.000023	-0.787374
C53	C	1.110604	0.087060	-0.834085
C54	C	1.111511	-0.174047	-0.787358
C55	C	1.113384	-0.174052	-0.693934
C56	C	1.114333	-0.087015	-0.647228
C57	C	1.113404	0.000025	-0.693946
C58	C	1.114347	0.087061	-0.647239
C59	C	1.113425	0.174102	-0.693958
C60	C	1.111554	0.174096	-0.787380
C61	C	1.116205	-0.087010	-0.553807
C62	C	1.116218	0.087063	-0.553811
C63	C	1.105805	0.000021	-0.073652
C64	C	1.107790	0.000022	0.025780
H65	H	0.996469	-0.741920	-0.091541
C66	C	0.750053	0.000015	-0.538541
H67	H	0.813989	0.000007	-0.546587
H68	H	0.738533	0.055688	-0.568799
H69	H	0.738517	-0.055674	-0.568777
H70	H	1.107944	-0.157872	-0.965530
C71	C	0.474896	0.000027	0.057217
H72	H	0.511593	0.000031	0.094854
H73	H	0.436108	-0.055647	0.072677
H74	H	0.436130	0.055716	0.072666
C75	C	0.978165	-0.243738	-0.068031
H76	H	0.987312	-0.176684	-0.079797
H77	H	0.988466	-0.260213	-0.011228
H78	H	0.915311	-0.260218	-0.057295
H79	H	1.114138	-0.244926	-0.655905
H80	H	1.110739	-0.244907	-0.825391
H81	H	1.116990	0.157939	-0.515791
C82	C	1.107715	0.182795	-0.978896
H83	H	1.106461	0.170334	-1.041224
H84	H	1.162889	0.218559	-0.988415
H85	H	1.053149	0.218551	-0.938753
H86	H	1.228461	-0.258040	-0.389775
C87	C	0.914245	-0.605557	0.014149
H88	H	0.923415	-0.672604	0.002366
H89	H	0.851390	-0.589098	0.024902
H90	H	0.924556	-0.589096	0.070954
H91	H	1.114186	0.244966	-0.655914
H92	H	0.423166	0.000031	-0.099602
C93	C	0.914224	-0.394501	0.014154
H94	H	0.923371	-0.327449	0.002377
H95	H	0.924518	-0.410963	0.070963
H96	H	0.851373	-0.410986	0.024885
C97	C	1.310672	-0.394414	-0.495482
H98	H	1.301510	-0.327366	-0.483702
H99	H	1.300351	-0.410888	-0.552273
H100	H	1.373538	-0.410864	-0.506247
H101	H	1.110802	0.244960	-0.825427
H102	H	1.116934	-0.157877	-0.515762
C103	C	0.864048	0.000009	-0.326952
H104	H	0.927983	0.000002	-0.334998
H105	H	0.852528	0.055683	-0.357210
H106	H	0.852512	-0.055679	-0.357188
C107	C	1.310724	-0.605456	-0.495494
H108	H	1.348810	-0.561126	-0.544441
H109	H	1.276816	-0.644672	-0.521946
H110	H	1.349967	-0.644648	-0.475875
H111	H	0.801779	0.000036	-0.381716
C112	C	0.611114	0.000028	0.097270
H113	H	0.647810	0.000034	0.134910
H114	H	0.572321	-0.055642	0.112736
H115	H	0.572354	0.055720	0.112712
H116	H	0.418434	0.000034	-0.494428
H117	H	1.228501	-0.741867	-0.389813
C118	C	0.613836	0.000033	-0.578591
H119	H	0.577143	0.000041	-0.616234
H120	H	0.652613	-0.055640	-0.594046
H121	H	0.652612	0.055722	-0.594039
H122	H	0.806509	0.000003	0.013120
C123	C	0.360896	0.000024	-0.154366
H124	H	0.296958	0.000018	-0.146314
H125	H	0.372432	0.055696	-0.124117
H126	H	0.372422	-0.055666	-0.124127
