data_functionalizedCrystal
_audit_creation_method	'MofGen! by Chris Wilmer'
_symmetry_space_group_name_H-M	'P1'
_symmetry_Int_Tables_number	1
_symmetry_cell_setting	triclinic
loop_
_symmetry_equiv_pos_as_xyz
  x,y,z
_cell_length_a	16.992694
_cell_length_b	15.538191
_cell_length_c	16.053802
_cell_angle_alpha	91.543625
_cell_angle_beta	87.249047
_cell_angle_gamma	68.970158
loop_
_atom_site_label
_atom_site_type_symbol
_atom_site_fract_x
_atom_site_fract_y
_atom_site_fract_z
O1	O	0.989072	0.191921	-0.069317
O2	O	0.761399	0.189774	-0.069342
O3	O	0.919554	0.057054	-0.069328
O4	O	0.830917	0.324641	-0.069330
O5	O	0.910858	0.064328	0.069530
O6	O	0.752703	0.197047	0.069517
O7	O	0.980376	0.199194	0.069541
Zn8	Zn	0.865158	0.199275	0.091576
Zn9	Zn	0.876616	0.189693	-0.091376
O10	O	0.822220	0.331914	0.069528
C11	C	0.728624	0.190651	0.000084
C12	C	0.643924	0.182415	0.000075
C13	C	0.924480	0.026294	0.000099
C14	C	0.952104	-0.076201	0.000094
C15	C	0.571070	0.261869	0.000075
C16	C	0.491487	0.254127	0.000086
C17	C	0.484759	0.166930	0.000092
C18	C	0.557620	0.087471	0.000094
C19	C	0.637202	0.095214	0.000089
C20	C	0.250294	0.134837	0.000114
C21	C	0.170704	0.127099	0.000117
C22	C	0.104576	0.293756	0.000111
C23	C	0.184163	0.301491	0.000101
C24	C	0.257017	0.222032	0.000107
N25	N	0.403412	0.159014	0.000101
N26	N	0.338361	0.229949	0.000104
C27	C	0.677671	-0.384652	0.000082
C28	C	0.703646	-0.480962	0.000086
C29	C	0.849754	-0.492405	0.000102
C30	C	0.823791	-0.396094	0.000093
C31	C	0.737748	-0.342225	0.000084
C32	C	0.883869	-0.353667	0.000095
C33	C	0.857907	-0.257364	0.000091
C34	C	0.771868	-0.203488	0.000084
C35	C	0.711787	-0.245922	0.000080
C36	C	0.969911	-0.407537	0.000110
C37	C	1.029988	-0.365110	0.000113
C38	C	1.004027	-0.268806	0.000102
C39	C	0.917988	-0.214931	0.000096
C40	C	1.064108	-0.226373	0.000107
C41	C	1.038147	-0.130070	0.000103
C42	C	0.892026	-0.118628	0.000091
C43	C	1.013151	0.198317	0.000114
C44	C	1.097851	0.206552	0.000118
C45	C	0.817295	0.362675	0.000099
C46	C	0.789671	0.465169	0.000099
N47	N	0.857345	0.205815	0.216435
N48	N	0.884438	0.183146	-0.216236
C49	C	0.924652	0.149366	0.260135
C50	C	0.919191	0.153950	0.347541
C51	C	0.846424	0.214988	0.391246
C52	C	0.779111	0.271440	0.347541
C53	C	0.784570	0.266851	0.260136
C54	C	0.822584	0.235009	0.652654
C55	C	0.817130	0.239596	0.740065
C56	C	0.957211	0.122103	0.740059
C57	C	0.962666	0.117523	0.652653
C58	C	0.895351	0.173972	0.608955
N59	N	0.840841	0.219677	0.480590
N60	N	0.900932	0.169277	0.519613
H61	H	0.576539	0.332874	0.000070
H62	H	0.696521	0.030514	0.000088
H63	H	0.607606	-0.340788	0.000068
H64	H	1.134164	-0.270247	0.000123
H65	H	0.991046	-0.485953	0.000106
H66	H	0.165234	0.056089	0.000121
H67	H	1.087068	-0.095525	0.000106
O68	O	0.708423	0.330608	0.390087
C69	C	0.671968	0.280271	0.440644
H70	H	0.722261	0.211114	0.453741
H71	H	0.645034	0.321069	0.502106
H72	H	0.619134	0.267925	0.406970
O73	O	0.746739	-0.109941	0.000191
C74	C	0.773615	-0.077128	0.072119
H75	H	0.829737	-0.134705	0.096103
H76	H	0.793171	-0.016358	0.055945
H77	H	0.719671	-0.053787	0.122472
H78	H	0.309604	0.070135	0.000121
O79	O	0.995386	0.089992	0.217813
C80	C	1.053628	0.041167	0.275131
H81	H	1.018566	0.041007	0.337440
H82	H	1.087879	-0.032921	0.249885
H83	H	1.101536	0.075933	0.284416
H84	H	0.552136	0.016474	0.000111
H85	H	0.821962	-0.074765	0.000078
H86	H	0.973998	0.107983	0.383121
H87	H	1.021919	0.067821	0.617070
O88	O	1.022502	0.067303	0.782637
C89	C	1.002093	0.084455	0.869155
H90	H	0.930519	0.114916	0.881099
H91	H	1.028436	0.017004	0.902378
H92	H	1.030819	0.135311	0.893948
O93	O	0.420666	0.331237	-0.000033
C94	C	0.377161	0.327982	-0.071957
H95	H	0.395441	0.253216	-0.095922
H96	H	0.306194	0.358660	-0.055784
H97	H	0.394668	0.369437	-0.122323
O98	O	0.190542	0.386268	0.000137
C99	C	0.109174	0.454736	0.000119
H100	H	0.060495	0.426168	0.026412
H101	H	0.106524	0.517363	0.040431
H102	H	0.094706	0.476044	-0.066498
H103	H	0.045252	0.358446	0.000107
H104	H	1.100044	-0.408983	0.000123
O105	O	0.628187	-0.193687	-0.000048
C106	C	0.594598	-0.217488	-0.071982
H107	H	0.635718	-0.290297	-0.095950
H108	H	0.527633	-0.214691	-0.055821
H109	H	0.593280	-0.166724	-0.122341
O110	O	0.746359	0.298904	0.782392
C111	C	0.688120	0.347756	0.725082
H112	H	0.701911	0.306612	0.662778
H113	H	0.621253	0.358476	0.750346
H114	H	0.694102	0.417681	0.715779
O115	O	0.645174	-0.522030	0.000040
C116	C	0.563666	-0.453827	0.000051
H117	H	0.568225	-0.388234	-0.026235
H118	H	0.522596	-0.479763	-0.040270
H119	H	0.534267	-0.438336	0.066666
O120	O	0.933301	-0.544875	0.000073
C121	C	0.943334	-0.638972	0.000100
H122	H	0.885737	-0.648588	-0.026189
H123	H	1.002383	-0.681341	-0.040210
H124	H	0.949996	-0.663077	0.066720
H125	H	0.767774	0.280973	0.617082
O126	O	0.719127	0.321782	0.217813
C127	C	0.653721	0.376626	0.275128
H128	H	0.680998	0.383333	0.337429
H129	H	0.622624	0.448061	0.249866
H130	H	0.604654	0.342834	0.284436
