data_functionalizedCrystal
_audit_creation_method	'MofGen! by Chris Wilmer'
_symmetry_space_group_name_H-M	'P1'
_symmetry_Int_Tables_number	1
_symmetry_cell_setting	triclinic
loop_
_symmetry_equiv_pos_as_xyz
  x,y,z
_cell_length_a	16.625547
_cell_length_b	18.101396
_cell_length_c	16.625539
_cell_angle_alpha	90.027016
_cell_angle_beta	89.975178
_cell_angle_gamma	89.963039
loop_
_atom_site_label
_atom_site_type_symbol
_atom_site_fract_x
_atom_site_fract_y
_atom_site_fract_z
Zn1	Zn	1.232599	0.294829	-0.456008
Zn2	Zn	1.232468	0.418679	-0.321178
Zn3	Zn	1.097761	0.294855	-0.321179
Zn4	Zn	1.097697	0.418634	-0.455958
O5	O	1.165131	0.356749	-0.388581
O6	O	1.345414	0.311266	-0.438143
O7	O	1.214571	0.402283	-0.208346
O8	O	1.115729	0.191219	-0.339085
O9	O	1.345318	0.402258	-0.339085
O10	O	1.214794	0.191200	-0.438144
O11	O	1.115602	0.311310	-0.208346
O12	O	0.984920	0.311267	-0.339037
O13	O	1.115620	0.402181	-0.568797
O14	O	0.984873	0.402206	-0.438059
O15	O	1.214732	0.311223	-0.568834
O16	O	1.214509	0.522306	-0.339036
O17	O	1.115493	0.522272	-0.438058
C18	C	0.955640	0.356735	-0.388543
C19	C	0.866019	0.356747	-0.388545
C20	C	1.165002	0.549160	-0.388559
C21	C	1.165020	0.631474	-0.388577
C22	C	0.793237	0.356748	-0.388555
C23	C	0.701928	0.356752	-0.388576
C24	C	0.629152	0.356759	-0.388596
C25	C	0.537838	0.356764	-0.388615
C26	C	1.165163	0.930565	-0.388624
C27	C	1.103013	0.899250	-0.451081
C28	C	1.102728	0.813632	-0.450884
C29	C	1.165092	0.782182	-0.388602
C30	C	1.142081	0.813334	-0.303622
C31	C	1.141671	0.898979	-0.303997
C32	C	1.250464	0.898908	-0.410399
C33	C	1.249972	0.813257	-0.412261
C34	C	1.165053	0.698323	-0.388584
C35	C	1.165200	1.014424	-0.388636
C36	C	1.375440	0.356764	-0.388619
C37	C	1.465061	0.356771	-0.388636
C38	C	1.165184	0.356694	-0.598890
C39	C	1.165206	0.356671	-0.688511
C40	C	1.165255	1.163587	-0.388623
C41	C	1.165235	1.081273	-0.388649
C42	C	1.165243	0.356588	-1.016687
C43	C	1.165231	0.356613	-0.925378
C44	C	1.165225	0.356630	-0.852602
C45	C	1.165212	0.356654	-0.761287
C46	C	1.165125	0.356751	-0.179090
C47	C	1.165259	0.356566	-0.089469
H48	H	1.117125	0.792567	-0.513895
C49	C	1.058738	0.784453	-0.278259
N50	N	0.995962	0.762701	-0.259161
C51	C	1.315846	0.784334	-0.355284
N52	N	1.365460	0.762550	-0.312360
C53	C	1.057432	0.926058	-0.279085
N54	N	0.993981	0.946451	-0.260323
C55	C	1.278795	0.928013	-0.492691
N56	N	1.300124	0.949935	-0.554677
H57	H	1.296768	0.919159	-0.364909
C58	C	1.122257	0.927014	-0.536484
N59	N	1.136751	0.947933	-0.600811
C60	C	1.017304	0.786038	-0.431456
N61	N	0.952954	0.765254	-0.416843
C62	C	1.018113	0.928402	-0.431834
N63	N	0.954166	0.950357	-0.417333
H64	H	1.184975	0.919697	-0.255875
H65	H	1.267324	0.792894	-0.474801
C66	C	1.201312	0.785811	-0.239037
N67	N	1.245924	0.765077	-0.190392
