data_functionalizedCrystal
_audit_creation_method	'MofGen! by Chris Wilmer'
_symmetry_space_group_name_H-M	'P1'
_symmetry_Int_Tables_number	1
_symmetry_cell_setting	triclinic
loop_
_symmetry_equiv_pos_as_xyz
  x,y,z
_cell_length_a	12.759401
_cell_length_b	19.076808
_cell_length_c	12.759393
_cell_angle_alpha	87.665862
_cell_angle_beta	89.980198
_cell_angle_gamma	92.322627
loop_
_atom_site_label
_atom_site_type_symbol
_atom_site_fract_x
_atom_site_fract_y
_atom_site_fract_z
Zn1	Zn	1.589383	-0.280201	-0.577143
Zn2	Zn	1.582181	-0.397922	-0.394386
Zn3	Zn	1.413680	-0.280233	-0.401480
Zn4	Zn	1.406584	-0.397867	-0.570030
O5	O	1.497957	-0.339056	-0.485760
O6	O	1.735448	-0.295826	-0.552908
O7	O	1.559785	-0.382346	-0.248304
O8	O	1.442971	-0.181732	-0.430727
O9	O	1.730157	-0.382315	-0.418637
O10	O	1.572060	-0.181708	-0.559787
O11	O	1.435988	-0.295881	-0.253515
O12	O	1.265718	-0.295829	-0.423830
O13	O	1.430877	-0.382222	-0.717997
O14	O	1.260505	-0.382254	-0.547663
O15	O	1.565179	-0.295773	-0.723223
O16	O	1.552904	-0.496411	-0.411740
O17	O	1.423894	-0.496371	-0.540785
C18	C	1.224991	-0.339039	-0.485745
C19	C	1.108214	-0.339049	-0.485763
C20	C	0.946364	-0.294112	-0.555783
C21	C	1.056089	-0.294098	-0.555777
C22	C	1.050607	-0.384022	-0.415758
C23	C	0.940884	-0.384039	-0.415770
C24	C	1.486876	-0.521930	-0.474744
C25	C	1.482231	-0.600165	-0.470066
C26	C	1.547209	-0.636847	-0.535117
C27	C	1.542840	-0.710356	-0.530724
C28	C	1.473500	-0.747183	-0.461274
C29	C	1.408515	-0.710496	-0.396220
C30	C	1.412879	-0.636988	-0.400619
C31	C	1.453243	-0.967037	-0.440910
C32	C	1.448886	-1.040551	-0.436513
C33	C	1.583210	-1.040406	-0.571019
C34	C	1.587572	-0.966896	-0.575408
C35	C	1.522584	-0.930216	-0.510358
N36	N	1.469035	-0.822322	-0.456779
N37	N	1.527044	-0.855078	-0.514859
C38	C	1.771989	-0.339073	-0.485775
C39	C	1.888766	-0.339080	-0.485781
C40	C	1.498040	-0.338988	-0.759797
C41	C	1.498075	-0.338959	-0.876576
C42	C	1.509110	-0.155467	-0.496842
C43	C	1.513863	-0.077232	-0.501564
C44	C	1.568011	-0.293938	-0.934161
C45	C	1.568031	-0.293908	-1.043887
C46	C	1.428175	-0.383926	-1.038432
C47	C	1.428151	-0.383952	-0.928709
C48	C	1.497938	-0.339072	-0.212791
C49	C	1.498119	-0.338903	-0.096025
H50	H	1.102982	-0.257482	-0.612780
O51	O	1.635780	-0.250192	-0.883407
C52	C	1.578709	-0.204731	-0.822698
H53	H	1.497581	-0.229558	-0.804746
H54	H	1.570337	-0.152561	-0.868137
C55	C	1.736911	-0.161516	-0.741301
C56	C	1.637271	-0.192011	-0.719245
H57	H	1.773035	-0.153666	-0.677488
H58	H	1.775362	-0.192141	-0.782205
H59	H	1.729920	-0.118044	-0.779170
H60	H	1.644263	-0.235485	-0.681389
H61	H	1.598822	-0.161392	-0.678333
H62	H	1.624979	-0.257246	-1.090768
H63	H	1.359966	-0.607122	-0.347649
H64	H	1.093055	-0.420625	-0.358756
H65	H	0.893985	-0.420661	-0.358765
O66	O	1.381671	-1.076354	-0.368930
C67	C	1.439001	-1.118881	-0.298593
H68	H	1.523066	-1.096680	-0.293505
H69	H	1.439304	-1.174575	-0.327743
C70	C	1.284408	-1.147357	-0.195506
C71	C	1.387656	-1.120086	-0.189251
H72	H	1.252734	-1.148104	-0.128060
H73	H	1.245782	-1.118708	-0.242896
H74	H	1.284674	-1.193766	-0.219802
H75	H	1.387387	-1.073675	-0.164968
H76	H	1.426281	-1.148727	-0.141855
O77	O	1.360161	-0.427658	-1.088912
C78	C	1.298446	-0.467413	-1.014552
H79	H	1.296539	-0.438600	-0.938079
H80	H	1.333670	-0.520874	-0.999657
C81	C	1.188364	-0.512932	-1.150675
C82	C	1.186016	-0.477540	-1.056752
H83	H	1.119013	-0.519182	-1.176707
H84	H	1.229945	-0.486150	-1.200774
H85	H	1.217723	-0.557479	-1.138249
H86	H	1.156670	-0.432990	-1.069182
H87	H	1.144427	-0.504314	-1.006656
O88	O	1.614592	-0.601185	-0.602677
C89	C	1.671020	-0.649329	-0.659134
H90	H	1.624873	-0.701751	-0.659591
H91	H	1.750373	-0.657119	-0.620269
C92	C	1.744481	-0.556195	-0.772127
C93	C	1.687798	-0.620579	-0.772696
H94	H	1.754835	-0.538461	-0.842176
H95	H	1.706467	-0.523760	-0.734089
H96	H	1.810602	-0.562696	-0.739735
H97	H	1.621673	-0.614076	-0.805076
H98	H	1.725801	-0.653013	-0.810742
O99	O	1.360356	-0.427724	-0.872645
C100	C	1.417396	-0.473215	-0.806457
H101	H	1.498521	-0.448400	-0.791534
H102	H	1.425775	-0.525369	-0.845591
C103	C	1.259157	-0.516452	-0.719778
C104	C	1.358794	-0.485972	-0.701443
H105	H	1.223008	-0.524324	-0.655002
H106	H	1.220727	-0.485806	-0.764372
H107	H	1.266154	-0.559910	-0.752393
H108	H	1.351796	-0.442511	-0.668841
H109	H	1.397222	-0.516611	-0.656840
H110	H	0.903933	-0.257504	-0.612790
O111	O	1.605817	-0.746015	-0.594021
C112	C	1.543460	-0.788549	-0.659279
H113	H	1.462019	-0.766446	-0.667028
H114	H	1.536554	-0.844280	-0.623467
C115	C	1.694711	-0.816732	-0.758958
C116	C	1.594687	-0.789581	-0.768481
H117	H	1.726312	-0.817372	-0.826317
H118	H	1.736724	-0.788079	-0.714990
H119	H	1.688943	-0.863172	-0.729110
H120	H	1.600457	-0.743139	-0.798316
H121	H	1.552676	-0.818227	-0.812457
O122	O	1.341064	-0.746158	-0.328729
C123	C	1.284666	-0.698016	-0.272239
H124	H	1.284116	-0.645599	-0.318408
H125	H	1.323644	-0.690213	-0.192947
C126	C	1.171825	-0.791156	-0.198573
C127	C	1.171142	-0.726778	-0.255282
H128	H	1.101800	-0.808897	-0.188108
H129	H	1.209823	-0.823591	-0.236627
H130	H	1.204312	-0.784645	-0.132502
H131	H	1.138668	-0.733291	-0.321356
H132	H	1.133136	-0.694344	-0.217238
O133	O	1.655038	-0.931090	-0.642726
C134	C	1.725430	-0.888547	-0.585512
H135	H	1.730649	-0.910740	-0.501446
H136	H	1.696246	-0.832858	-0.585190
C137	C	1.828284	-0.860065	-0.740261
C138	C	1.834701	-0.887326	-0.637011
H139	H	1.895686	-0.859308	-0.772029
H140	H	1.780858	-0.888725	-0.778809
H141	H	1.803960	-0.813660	-0.739978
H142	H	1.859011	-0.933732	-0.637296
H143	H	1.882134	-0.858673	-0.598464
H144	H	1.636119	-1.070279	-0.623980
H145	H	1.400329	-0.937178	-0.387942
