data_functionalizedCrystal
_audit_creation_method	'MofGen! by Chris Wilmer'
_symmetry_space_group_name_H-M	'P1'
_symmetry_Int_Tables_number	1
_symmetry_cell_setting	triclinic
loop_
_symmetry_equiv_pos_as_xyz
  x,y,z
_cell_length_a	15.995300
_cell_length_b	15.072220
_cell_length_c	15.995350
_cell_angle_alpha	89.992853
_cell_angle_beta	96.517909
_cell_angle_gamma	90.005543
loop_
_atom_site_label
_atom_site_type_symbol
_atom_site_fract_x
_atom_site_fract_y
_atom_site_fract_z
O1	O	1.111010	0.073811	-0.107732
O2	O	1.611010	0.573811	0.392268
O3	O	0.867229	0.073805	-0.121103
O4	O	1.367229	0.573805	0.378897
O5	O	0.995784	0.073807	0.007471
O6	O	1.495784	0.573807	0.507471
O7	O	0.982456	0.073808	-0.236306
O8	O	1.482456	0.573808	0.263694
O9	O	0.995775	-0.073758	0.007487
O10	O	1.495775	0.426242	0.507487
O11	O	0.867221	-0.073760	-0.121088
O12	O	1.367221	0.426240	0.378912
O13	O	1.111002	-0.073755	-0.107716
O14	O	1.611002	0.426245	0.392284
Zn15	Zn	0.989110	-0.097187	-0.114399
Zn16	Zn	1.489110	0.402813	0.385601
Zn17	Zn	0.989121	0.097237	-0.114420
Zn18	Zn	1.489121	0.597237	0.385580
O19	O	0.982448	-0.073757	-0.236291
O20	O	1.482448	0.426243	0.263709
C21	C	0.836030	0.000021	-0.120550
C22	C	1.336030	0.500021	0.379450
C23	C	0.743077	0.000019	-0.118915
C24	C	1.243077	0.500019	0.381085
N25	N	0.989109	-0.229875	-0.114385
N26	N	1.489109	0.270125	0.385615
C27	C	0.572894	0.000026	-0.115896
C28	C	1.072894	0.500026	0.384104
C29	C	0.525428	0.000025	-0.207443
C30	C	1.025428	0.500025	0.292557
C31	C	0.428740	0.000362	-0.205773
C32	C	0.928740	0.500362	0.294227
C33	C	0.405337	0.000032	-0.112924
C34	C	0.905337	0.500032	0.387076
C35	C	0.446475	0.084132	-0.067512
C36	C	0.946475	0.584132	0.432488
C37	C	0.543108	0.084201	-0.069829
C38	C	1.043108	0.584201	0.430171
C39	C	0.543378	-0.083614	-0.068456
C40	C	1.043378	0.416386	0.431544
C41	C	0.446434	-0.084717	-0.068464
C42	C	0.946434	0.415283	0.431536
C43	C	0.310642	0.000038	-0.111239
C44	C	0.810642	0.500038	0.388761
C45	C	0.667590	0.000026	-0.117577
C46	C	1.167590	0.500026	0.382423
C47	C	0.989122	-0.589077	-0.114413
C48	C	1.489122	-0.089077	0.385587
C49	C	1.058132	-0.551441	-0.045845
C50	C	1.558132	-0.051441	0.454155
C51	C	1.057952	-0.448616	-0.045592
C52	C	1.557952	0.051384	0.454408
C53	C	0.989116	-0.410873	-0.114399
C54	C	1.489116	0.089127	0.385601
C55	C	0.901757	-0.448218	-0.095334
C56	C	1.401757	0.051782	0.404666
C57	C	0.902166	-0.551076	-0.094850
C58	C	1.402166	-0.051076	0.405150
C59	C	1.006684	-0.551153	-0.202249
C60	C	1.506684	-0.051153	0.297751
C61	C	1.008667	-0.448288	-0.201660
C62	C	1.508667	0.051712	0.298340
C63	C	0.989107	-0.310160	-0.114393
C64	C	1.489107	0.189840	0.385607
C65	C	0.989125	-0.689790	-0.114418
C66	C	1.489125	-0.189790	0.385582
C67	C	1.142202	0.000031	-0.108269
C68	C	1.642202	0.500031	0.391731
C69	C	1.235154	0.000039	-0.109904
C70	C	1.735154	0.500039	0.390096
C71	C	0.995229	0.000026	0.038674
C72	C	1.495229	0.500026	0.538674
C73	C	0.993577	0.000031	0.131624
C74	C	1.493577	0.500031	0.631624
N75	N	0.989129	0.229926	-0.114428
N76	N	1.489129	0.729926	0.385572
C77	C	0.983003	0.000026	-0.267493
C78	C	1.483003	0.500026	0.232507
C79	C	0.984655	0.000027	-0.360443
C80	C	1.484655	0.500027	0.139557
C81	C	0.987644	0.000028	0.469370
C82	C	1.487644	0.500028	0.969370
C83	C	0.896090	0.000357	0.421920
C84	C	1.396090	0.500357	0.921920
C85	C	0.897743	0.000024	0.325230
C86	C	1.397743	0.500024	0.825230
C87	C	0.990587	0.000030	0.301810
C88	C	1.490587	0.500030	0.801810
C89	C	1.035740	-0.084234	0.342905
C90	C	1.535740	0.415766	0.842905
C91	C	1.033440	-0.084305	0.439540
C92	C	1.533440	0.415695	0.939540
C93	C	1.035341	0.083504	0.439881
C94	C	1.535341	0.583504	0.939881
C95	C	1.035319	0.084618	0.342936
C96	C	1.535319	0.584618	0.842936
C97	C	0.992255	0.000028	0.207113
C98	C	1.492255	0.500028	0.707113
C99	C	0.985979	0.000024	0.564068
C100	C	1.485979	0.500024	1.064068
H101	H	0.400274	-0.059911	-0.241456
H102	H	0.900274	0.440089	0.258544
F103	F	1.123571	0.084252	0.481411
F104	F	1.623571	0.584252	0.981411
F105	F	1.121296	-0.089306	0.481710
F106	F	1.621296	0.410694	0.981710
H107	H	0.862249	0.060428	0.296795
H108	H	1.362249	0.560428	0.796795
F109	F	0.994741	-0.166203	0.305812
F110	F	1.494741	0.333797	0.805812
F111	F	0.584930	-0.084683	0.019762
F112	F	1.084930	0.415317	0.519762
F113	F	0.551059	0.078735	-0.254825
F114	F	1.051059	0.578735	0.245175
H115	H	0.859501	0.060784	0.440439
H116	H	1.359501	0.560784	0.940439
F117	F	0.550005	-0.078485	-0.255703
F118	F	1.050005	0.421515	0.244297
F119	F	0.585294	0.088892	0.018036
F120	F	1.085294	0.588892	0.518036
F121	F	0.392342	0.079622	-0.252227
F122	F	0.892342	0.579622	0.247773
F123	F	0.570168	-0.166959	-0.107842
F124	F	1.070168	0.333041	0.392158
F125	F	0.410694	-0.166044	-0.111807
F126	F	0.910694	0.333956	0.388193
H127	H	1.005411	0.147372	0.460409
H128	H	1.505411	0.647372	0.960409
H129	H	0.561431	0.147305	-0.102570
H130	H	1.061431	0.647305	0.397430
H131	H	1.103026	0.089710	0.327585
H132	H	1.603026	0.589710	0.827585
F133	F	0.848345	-0.077973	0.447811
F134	F	1.348345	0.422027	0.947811
H135	H	0.431095	-0.090045	-0.000770
H136	H	0.931095	0.409955	0.499230
H137	H	1.002307	0.146954	0.315674
H138	H	1.502307	0.646954	0.815674
H139	H	0.862004	-0.060485	0.297365
H140	H	1.362004	0.439515	0.797365
F141	F	0.428047	0.087915	0.021661
F142	F	0.928047	0.587915	0.521661
H143	H	0.961660	-0.422594	-0.255073
H144	H	1.461660	0.077406	0.244927
H145	H	1.123288	-0.576169	-0.057012
H146	H	1.623288	-0.076169	0.442988
H147	H	0.956360	-0.575496	-0.253275
H148	H	1.456360	-0.075496	0.246725
H149	H	0.418093	0.146956	-0.098658
H150	H	0.918093	0.646956	0.401342
H151	H	1.122890	-0.423365	-0.056942
H152	H	1.622890	0.076635	0.443058
F153	F	0.881027	-0.414563	-0.012560
F154	F	1.381027	0.085437	0.487440
H155	H	1.047075	-0.577300	0.018969
H156	H	1.547075	-0.077300	0.518969
H157	H	0.849167	-0.423772	-0.143947
H158	H	1.349167	0.076228	0.356053
H159	H	1.046731	-0.424019	0.019592
H160	H	1.546731	0.075981	0.519592
H161	H	1.000507	-0.147298	0.457842
H162	H	1.500507	0.352702	0.957842
H163	H	1.103950	-0.087364	0.328792
H164	H	1.603950	0.412636	0.828792
F165	F	0.881935	-0.582449	-0.011123
F166	F	1.381935	-0.082449	0.488877
H167	H	0.849271	-0.575974	-0.142894
H168	H	1.349271	-0.075974	0.357106
F169	F	1.088172	-0.585040	-0.226201
F170	F	1.588172	-0.085040	0.273799
H171	H	1.072931	-0.423880	-0.216127
H172	H	1.572931	0.076120	0.283873
