data_functionalizedCrystal
_audit_creation_method	'MofGen! by Chris Wilmer'
_symmetry_space_group_name_H-M	'P1'
_symmetry_Int_Tables_number	1
_symmetry_cell_setting	triclinic
loop_
_symmetry_equiv_pos_as_xyz
  x,y,z
_cell_length_a	6.817900
_cell_length_b	16.417825
_cell_length_c	17.078481
_cell_angle_alpha	96.278205
_cell_angle_beta	99.306161
_cell_angle_gamma	103.385495
loop_
_atom_site_label
_atom_site_type_symbol
_atom_site_fract_x
_atom_site_fract_y
_atom_site_fract_z
V1	V	-3.979103	-0.115690	-0.247639
O2	O	-3.968072	0.005761	-0.242639
O3	O	-3.930419	-0.229587	-0.246221
O4	O	-3.910158	-0.113822	-0.355518
O5	O	-3.988474	-0.110806	-0.132585
V6	V	-4.465430	-0.101173	-0.233844
O7	O	-4.234211	-0.147533	-0.277899
O8	O	-4.660520	-0.069330	-0.203584
O9	O	-4.290908	0.012724	-0.235263
O10	O	-4.593858	-0.222623	-0.238844
O11	O	-4.573457	-0.106057	-0.348898
O12	O	-4.311169	-0.103041	-0.125966
C13	C	-3.776016	-0.257355	-0.242385
C14	C	-3.817360	-0.350467	-0.241944
C15	C	-3.886178	-0.552789	-0.168264
C16	C	-3.925047	-0.640279	-0.167857
C17	C	-3.977734	-0.664074	-0.313228
C18	C	-3.938879	-0.576586	-0.313635
C19	C	-3.893091	-0.520945	-0.241151
C20	C	-3.970815	-0.695923	-0.240336
C21	C	-4.012959	-0.790783	-0.239894
C22	C	-3.850948	-0.426079	-0.241592
C23	C	-3.750169	-0.109684	-0.381803
C24	C	-3.775080	-0.108911	-0.469996
C25	C	-3.968105	-0.112729	-0.515481
C26	C	-3.991499	-0.112001	-0.598347
C27	C	-3.821869	-0.107462	-0.635728
C28	C	-3.628828	-0.103642	-0.590237
C29	C	-3.605433	-0.104363	-0.507371
C30	C	-3.872392	-0.104851	-0.883125
C31	C	-3.895803	-0.104133	-0.965998
C32	C	-4.258473	-0.112491	-0.974102
C33	C	-4.235064	-0.113217	-0.891235
C34	C	-4.042023	-0.109392	-0.845750
N35	N	-3.845779	-0.106721	-0.720431
N36	N	-4.018113	-0.110127	-0.761048
C37	C	-4.108654	0.040488	-0.239096
C38	C	-4.046546	0.133599	-0.239542
C39	C	-4.134501	-0.107181	-0.099676
C40	C	-4.088828	-0.107950	-0.011482
H41	H	-4.148675	-0.115105	-0.635377
H42	H	-3.848895	-0.507488	-0.109243
O43	O	-4.418039	-0.118105	-0.850929
H44	H	-4.444260	-0.175984	-0.821982
O45	O	-3.446032	-0.098874	-0.630633
H46	H	-3.382972	-0.154403	-0.621380
H47	H	-3.919417	-0.666201	-0.108505
O48	O	-4.027121	-0.724087	-0.391404
H49	H	-3.910487	-0.761327	-0.391733
O50	O	-4.466668	-0.116601	-1.023156
H51	H	-4.454444	-0.115328	-1.087057
H52	H	-3.757658	-0.100434	-0.996430
H53	H	-3.715224	-0.101766	-0.846106
O54	O	-3.946478	-0.542272	-0.392274
H55	H	-4.065693	-0.506199	-0.398888
H56	H	-4.106243	-0.116430	-0.485053
H57	H	-3.448243	-0.101234	-0.470335
