data_functionalizedCrystal
_audit_creation_method	'MofGen! by Chris Wilmer'
_symmetry_space_group_name_H-M	'P1'
_symmetry_Int_Tables_number	1
_symmetry_cell_setting	triclinic
loop_
_symmetry_equiv_pos_as_xyz
  x,y,z
_cell_length_a	16.959455
_cell_length_b	17.640280
_cell_length_c	16.959447
_cell_angle_alpha	78.773258
_cell_angle_beta	89.985678
_cell_angle_gamma	78.797529
loop_
_atom_site_label
_atom_site_type_symbol
_atom_site_fract_x
_atom_site_fract_y
_atom_site_fract_z
Zn1	Zn	1.272058	-0.314718	-0.383358
Zn2	Zn	1.298725	-0.446906	-0.224487
Zn3	Zn	1.139892	-0.314743	-0.251191
Zn4	Zn	1.166584	-0.446847	-0.356638
O5	O	1.219315	-0.380803	-0.303918
O6	O	1.386210	-0.332268	-0.362291
O7	O	1.277645	-0.429409	-0.117412
O8	O	1.135093	-0.204133	-0.291081
O9	O	1.405802	-0.429385	-0.245569
O10	O	1.232195	-0.204115	-0.388184
O11	O	1.160951	-0.332310	-0.137030
O12	O	1.032819	-0.332252	-0.265171
O13	O	1.180586	-0.429284	-0.470800
O14	O	1.052429	-0.429308	-0.342643
O15	O	1.258077	-0.332210	-0.490432
O16	O	1.303527	-0.557504	-0.219659
O17	O	1.206444	-0.557461	-0.316750
C18	C	1.013943	-0.380777	-0.303906
C19	C	0.926088	-0.380785	-0.303915
C20	C	0.544372	-0.330225	-0.263693
C21	C	0.564874	-0.431447	-0.344176
C22	C	0.647417	-0.431435	-0.344174
C23	C	0.678442	-0.380819	-0.303929
C24	C	0.626924	-0.330214	-0.263687
C25	C	0.698943	-0.482045	-0.384408
C26	C	0.781492	-0.482037	-0.384406
C27	C	0.812518	-0.431416	-0.344166
C28	C	0.760993	-0.380808	-0.303923
C29	C	0.792018	-0.330191	-0.263679
C30	C	0.740495	-0.279579	-0.223440
C31	C	0.657949	-0.279593	-0.223447
C32	C	0.895063	-0.431402	-0.344159
C33	C	0.874570	-0.330180	-0.263673
C34	C	1.260797	-0.586162	-0.262425
C35	C	1.278616	-0.674015	-0.244700
C36	C	1.084273	-0.962977	-0.438860
C37	C	1.101018	-1.045529	-0.422179
C38	C	1.202174	-1.045509	-0.321181
C39	C	1.185440	-0.962956	-0.337856
C40	C	1.126488	-0.921696	-0.396695
C41	C	1.227655	-0.921675	-0.295692
C42	C	1.210920	-0.839129	-0.312362
C43	C	1.151969	-0.797864	-0.371197
C44	C	1.109753	-0.839151	-0.413366
C45	C	1.286603	-0.962935	-0.236849
C46	C	1.328818	-0.921654	-0.194684
C47	C	1.312087	-0.839107	-0.211358
C48	C	1.253136	-0.797842	-0.270193
C49	C	1.354303	-0.797820	-0.169190
C50	C	1.337568	-0.715274	-0.185860
C51	C	1.236401	-0.715296	-0.286864
C52	C	1.425488	-0.380830	-0.303932
C53	C	1.513347	-0.380841	-0.303937
C54	C	1.219334	-0.380738	-0.510100
C55	C	1.219343	-0.380710	-0.597962
C56	C	1.177692	-0.174643	-0.345592
C57	C	1.159955	-0.086790	-0.363350
C58	C	1.179074	-0.431169	-0.959236
C59	C	1.259767	-0.330085	-0.979674
C60	C	1.259749	-0.330101	-0.897124
C61	C	1.219394	-0.380653	-0.845627
C62	C	1.179057	-0.431189	-0.876679
C63	C	1.300092	-0.279573	-0.866065
C64	C	1.300077	-0.279588	-0.783511
C65	C	1.259717	-0.330137	-0.732013
C66	C	1.219377	-0.380673	-0.763069
C67	C	1.179023	-0.431225	-0.711572
C68	C	1.138678	-0.481759	-0.742628
C69	C	1.138697	-0.481737	-0.825180
C70	C	1.259698	-0.330158	-0.649460
C71	C	1.179006	-0.431245	-0.629014
C72	C	1.219329	-0.380811	-0.098551
C73	C	1.219429	-0.380617	-0.010734
H74	H	0.615992	-0.238388	-0.190686
H75	H	1.250170	-1.079113	-0.273272
H76	H	1.061754	-0.805556	-0.461285
H77	H	0.539609	-0.472661	-0.376936
H78	H	1.036274	-0.929383	-0.486779
H79	H	0.823436	-0.523248	-0.417171
H80	H	1.292548	-0.289017	-0.624177
C81	C	1.344447	-0.223993	-0.749359
N82	N	1.377862	-0.182114	-0.723636
H83	H	1.402296	-0.831426	-0.121277
C84	C	0.908689	-0.274496	-0.219400
N85	N	0.934388	-0.232556	-0.186052
H86	H	0.765767	-0.238370	-0.190669
C87	C	0.664810	-0.537722	-0.428671
N88	N	0.639098	-0.579658	-0.462013
C89	C	1.054576	-1.090935	-0.468573
N90	N	1.019598	-1.125135	-0.503516
C91	C	1.305014	-1.053739	-0.218515
N92	N	1.318882	-1.122132	-0.204708
C93	C	1.344469	-0.223961	-0.922718
N94	N	1.377890	-0.182067	-0.965394
H95	H	0.502418	-0.289015	-0.230934
C96	C	1.393660	-0.967049	-0.129959
N97	N	1.442501	-1.001239	-0.081208
H98	H	0.937010	-0.472612	-0.376918
C99	C	1.384013	-0.669862	-0.139484
N100	N	1.418998	-0.635658	-0.104552
C101	C	1.134609	-0.486856	-0.572373
N102	N	1.101170	-0.528743	-0.529711
C103	C	1.094317	-0.537315	-0.859350
N104	N	1.060889	-0.579174	-0.885089
C105	C	1.171540	-0.669906	-0.351580
N106	N	1.122682	-0.635719	-0.400316
C107	C	1.094289	-0.537364	-0.685970
N108	N	1.060855	-0.579244	-0.643293
C109	C	1.134690	-0.486747	-0.993399
N110	N	1.101258	-0.528608	-1.019132
C111	C	1.304148	-0.274476	-1.036324
N112	N	1.337573	-0.232584	-1.078998
H113	H	1.138338	-0.730650	-0.384764
