data_functionalizedCrystal
_audit_creation_method	'MofGen! by Chris Wilmer'
_symmetry_space_group_name_H-M	'P1'
_symmetry_Int_Tables_number	1
_symmetry_cell_setting	triclinic
loop_
_symmetry_equiv_pos_as_xyz
  x,y,z
_cell_length_a	6.817900
_cell_length_b	16.418049
_cell_length_c	15.185463
_cell_angle_alpha	95.149529
_cell_angle_beta	104.264314
_cell_angle_gamma	103.389670
loop_
_atom_site_label
_atom_site_type_symbol
_atom_site_fract_x
_atom_site_fract_y
_atom_site_fract_z
V1	V	-4.034931	-0.116440	-0.283714
O2	O	-4.022750	0.005026	-0.277984
O3	O	-3.985949	-0.230334	-0.282091
O4	O	-3.990296	-0.114899	-0.407308
O5	O	-4.018373	-0.111208	-0.151901
V6	V	-4.518147	-0.101882	-0.267910
O7	O	-4.296864	-0.148375	-0.318383
O8	O	-4.706411	-0.069947	-0.233242
O9	O	-4.343922	0.012011	-0.269534
O10	O	-4.647725	-0.223348	-0.273640
O11	O	-4.652102	-0.107114	-0.399724
O12	O	-4.339575	-0.103423	-0.144317
C13	C	-3.830686	-0.258090	-0.277697
C14	C	-3.871949	-0.351201	-0.277193
C15	C	-4.149085	-0.569697	-0.280598
C16	C	-4.187845	-0.657186	-0.280133
C17	C	-3.823351	-0.648624	-0.271032
C18	C	-3.784597	-0.561138	-0.271504
C19	C	-3.947469	-0.521677	-0.276283
C20	C	-4.024982	-0.696651	-0.275345
C21	C	-4.067006	-0.791510	-0.274841
C22	C	-3.905444	-0.426812	-0.276789
C23	C	-3.836230	-0.110841	-0.437422
C24	C	-3.881015	-0.110335	-0.538462
C25	C	-3.888150	-0.104032	-0.961048
C26	C	-4.252635	-0.112411	-0.970323
C27	C	-4.210556	-0.112879	-0.875389
C28	C	-4.007270	-0.108925	-0.823281
C29	C	-3.846062	-0.104503	-0.866106
C30	C	-4.371761	-0.117310	-0.832558
C31	C	-4.329687	-0.117779	-0.737618
C32	C	-4.126394	-0.113819	-0.685507
C33	C	-3.965182	-0.109396	-0.728338
C34	C	-3.761896	-0.105442	-0.676230
C35	C	-3.600677	-0.101012	-0.719058
C36	C	-3.642770	-0.100543	-0.813995
C37	C	-4.084302	-0.114289	-0.590571
C38	C	-3.719808	-0.105913	-0.581288
C39	C	-4.162527	0.039764	-0.273925
C40	C	-4.100502	0.132874	-0.274435
C41	C	-4.156983	-0.107484	-0.114198
C42	C	-4.091436	-0.107986	-0.013157
H43	H	-3.690750	-0.680764	-0.267140
Br44	Br	-4.647643	-0.122691	-0.903281
Br45	Br	-4.461480	-0.722355	-0.285995
Br46	Br	-3.669362	-0.098018	-1.019167
Br47	Br	-4.528519	-0.117790	-1.041043
Br48	Br	-4.303083	-0.120310	-0.532451
H49	H	-4.281708	-0.537571	-0.284488
H50	H	-4.460965	-0.121385	-0.702756
H51	H	-3.620411	-0.522038	-0.267993
Br52	Br	-3.324800	-0.095659	-0.648331
Br53	Br	-3.443904	-0.100536	-0.510574
H54	H	-3.511521	-0.096938	-0.848875
