data_functionalizedCrystal
_audit_creation_method	'MofGen! by Chris Wilmer'
_symmetry_space_group_name_H-M	'P1'
_symmetry_Int_Tables_number	1
_symmetry_cell_setting	triclinic
loop_
_symmetry_equiv_pos_as_xyz
  x,y,z
_cell_length_a	12.759401
_cell_length_b	13.897448
_cell_length_c	12.759393
_cell_angle_alpha	89.966654
_cell_angle_beta	89.981504
_cell_angle_gamma	90.017853
loop_
_atom_site_label
_atom_site_type_symbol
_atom_site_fract_x
_atom_site_fract_y
_atom_site_fract_z
Zn1	Zn	1.606234	-0.383954	-0.593968
Zn2	Zn	1.606119	-0.545283	-0.418283
Zn3	Zn	1.430536	-0.384004	-0.418308
Zn4	Zn	1.430515	-0.545209	-0.593924
O5	O	1.518351	-0.464613	-0.506121
O6	O	1.753239	-0.405365	-0.570671
O7	O	1.582788	-0.523942	-0.271265
O8	O	1.453899	-0.249016	-0.441638
O9	O	1.753155	-0.523893	-0.441596
O10	O	1.582983	-0.248979	-0.570695
O11	O	1.453788	-0.405451	-0.271283
O12	O	1.283512	-0.405379	-0.441596
O13	O	1.453864	-0.523766	-0.740951
O14	O	1.283497	-0.523815	-0.570621
O15	O	1.582964	-0.405293	-0.740984
O16	O	1.582768	-0.680255	-0.441554
O17	O	1.453753	-0.680201	-0.570597
C18	C	1.245383	-0.464595	-0.506107
C19	C	1.128607	-0.464611	-0.506125
C20	C	1.073764	-0.526379	-0.573198
C21	C	0.964040	-0.526391	-0.573209
C22	C	0.964011	-0.402864	-0.439067
C23	C	1.073733	-0.402847	-0.439062
C24	C	1.073780	-0.597700	-0.650640
C25	C	0.964056	-0.597712	-0.650652
C26	C	1.518274	-0.715227	-0.506090
C27	C	1.518337	-0.822441	-0.506113
C28	C	1.518448	-1.018736	-0.506178
C29	C	1.518383	-0.909503	-0.506145
C30	C	1.792384	-0.464631	-0.506136
C31	C	1.909161	-0.464639	-0.506142
C32	C	1.518424	-0.464515	-0.780154
C33	C	1.518456	-0.464474	-0.896931
C34	C	1.518456	-0.213020	-0.506174
C35	C	1.518501	-0.105806	-0.506197
C36	C	1.585687	-0.402779	-0.951812
C37	C	1.585712	-0.402744	-1.061536
C38	C	1.451271	-0.526107	-1.061489
C39	C	1.451242	-0.526137	-0.951767
C40	C	1.663309	-0.331559	-0.951839
C41	C	1.663334	-0.331524	-1.061564
C42	C	1.518338	-0.464640	-0.233154
C43	C	1.518510	-0.464410	-0.116377
H44	H	1.107791	-0.668626	-0.621353
H45	H	1.634224	-0.260546	-1.095614
H46	H	1.118381	-0.352543	-0.384452
O47	O	0.910541	-0.342969	-0.373950
C48	C	0.801937	-0.356209	-0.388355
H49	H	0.786951	-0.430686	-0.422627
H50	H	0.770830	-0.299056	-0.444410
C51	C	0.763972	-0.255795	-0.239977
C52	C	0.745566	-0.347273	-0.282063
H53	H	0.729198	-0.250279	-0.174414
H54	H	0.837141	-0.246872	-0.230274
H55	H	0.738050	-0.208178	-0.286700
H56	H	0.771500	-0.394888	-0.235347
H57	H	0.672400	-0.356204	-0.291756
H58	H	1.740579	-0.358339	-0.917803
H59	H	0.930060	-0.571046	-0.728004
O60	O	1.109224	-0.574044	-0.747833
C61	C	1.072336	-0.641867	-0.821225
H62	H	0.998930	-0.678302	-0.789226
H63	H	1.135451	-0.698335	-0.835859
C64	C	1.136104	-0.545709	-0.964153
C65	C	1.045940	-0.590453	-0.924855
H66	H	1.119826	-0.513996	-1.028078
H67	H	1.160960	-0.500016	-0.914708
H68	H	1.188691	-0.592774	-0.976339
H69	H	0.993360	-0.543387	-0.912656
H70	H	1.021074	-0.636136	-0.974300
H71	H	0.934257	-0.672400	-0.628717
H72	H	1.396492	-0.576371	-0.907087
O73	O	1.386088	-0.585978	-1.114921
C74	C	1.400507	-0.572705	-1.223534
H75	H	1.481604	-0.541115	-1.238536
H76	H	1.338218	-0.521324	-1.254681
C77	C	1.291247	-0.709084	-1.261412
C78	C	1.390855	-0.670292	-1.279838
H79	H	1.285288	-0.769279	-1.296144
H80	H	1.281528	-0.718025	-1.188238
H81	H	1.239350	-0.666257	-1.287368
H82	H	1.442748	-0.713113	-1.253870
H83	H	1.400581	-0.661361	-1.353009
O84	O	1.637153	-0.242475	-0.916385
C85	C	1.536541	-0.217836	-0.953327
H86	H	1.491136	-0.286181	-0.972800
H87	H	1.544232	-0.171625	-1.026782
C88	C	1.533350	-0.077078	-0.844229
C89	C	1.477580	-0.161021	-0.868138
H90	H	1.496981	-0.042029	-0.791684
H91	H	1.601136	-0.093675	-0.819343
H92	H	1.539755	-0.038581	-0.905449
H93	H	1.471187	-0.199522	-0.806922
H94	H	1.409791	-0.144429	-0.893012
O95	O	1.760368	-0.355565	-1.097054
C96	C	1.787136	-0.447973	-1.060100
H97	H	1.712663	-0.489637	-1.040580
H98	H	1.837441	-0.440981	-0.986670
C99	C	1.940494	-0.450909	-1.169269
C100	C	1.849025	-0.502083	-1.145303
H101	H	1.978674	-0.484286	-1.221823
H102	H	1.922463	-0.388650	-1.194163
H103	H	1.982402	-0.445085	-1.108070
H104	H	1.807113	-0.507895	-1.206498
H105	H	1.867051	-0.564345	-1.120422
