data_functionalizedCrystal
_audit_creation_method	'MofGen! by Chris Wilmer'
_symmetry_space_group_name_H-M	'P1'
_symmetry_Int_Tables_number	1
_symmetry_cell_setting	triclinic
loop_
_symmetry_equiv_pos_as_xyz
  x,y,z
_cell_length_a	6.817900
_cell_length_b	14.858572
_cell_length_c	11.168129
_cell_angle_alpha	93.498200
_cell_angle_beta	108.508637
_cell_angle_gamma	104.524003
loop_
_atom_site_label
_atom_site_type_symbol
_atom_site_fract_x
_atom_site_fract_y
_atom_site_fract_z
V1	V	-4.064039	-0.289968	-0.175499
V2	V	-3.564039	0.210032	0.324501
O3	O	-4.024496	-0.284440	0.007616
O4	O	-3.524496	0.215560	0.507616
O5	O	-4.040640	-0.287993	-0.347199
O6	O	-3.540640	0.212007	0.152801
O7	O	-4.020336	-0.416430	-0.173159
O8	O	-3.520336	0.083570	0.326841
O9	O	-4.044941	-0.155114	-0.167630
O10	O	-3.544941	0.344886	0.332370
V11	V	-4.543819	-0.273838	-0.153554
V12	V	-4.043819	0.226162	0.346446
O13	O	-4.333508	-0.325352	-0.223638
O14	O	-3.833508	0.174648	0.276362
O15	O	-4.724546	-0.238454	-0.105416
O16	O	-4.224546	0.261546	0.394584
O17	O	-4.344011	-0.275813	0.018146
O18	O	-3.844011	0.224187	0.518146
O19	O	-4.700758	-0.279366	-0.336669
O20	O	-4.200758	0.220634	0.163331
O21	O	-4.680314	-0.408692	-0.161424
O22	O	-4.180314	0.091308	0.338576
O23	O	-4.364315	-0.147376	-0.155895
O24	O	-3.864315	0.352624	0.344105
C25	C	-3.891571	-0.283421	-0.389045
C26	C	-3.391571	0.216579	0.110955
C27	C	-3.953757	-0.282649	-0.529414
C28	C	-3.453757	0.217351	-0.029414
C29	C	-3.937465	-0.201368	-0.574637
C30	C	-3.437465	0.298632	-0.074637
C31	C	-4.001737	-0.200568	-0.719716
C32	C	-3.501737	0.299432	-0.219716
C33	C	-3.865670	-0.447253	-0.167037
C34	C	-3.365670	0.052747	0.332963
C35	C	-3.911387	-0.550636	-0.166259
C36	C	-3.411387	-0.050636	0.333741
C37	C	-4.078712	-0.929204	-0.163417
C38	C	-3.578712	-0.429204	0.336583
C39	C	-4.032149	-0.823875	-0.164208
C40	C	-3.532149	-0.323875	0.335792
C41	C	-3.995051	-0.739924	-0.164839
C42	C	-3.495051	-0.239924	0.335161
C43	C	-3.948484	-0.634588	-0.165628
C44	C	-3.448484	-0.134588	0.334372
C45	C	-4.156423	-0.280383	0.059985
C46	C	-3.656423	0.219617	0.559985
C47	C	-4.073475	-0.281161	0.200353
C48	C	-3.573475	0.218839	0.700353
C49	C	-4.182324	-0.116548	-0.162021
C50	C	-3.682324	0.383452	0.337979
C51	C	-4.115845	-0.013164	-0.162792
C52	C	-3.615845	0.486836	0.337208
H53	H	-3.875945	-0.132373	-0.505949
H54	H	-3.375945	0.367627	-0.005949
H55	H	-4.015295	-0.351644	-0.598103
H56	H	-3.515295	0.148356	-0.098103
H57	H	-4.087313	-0.350753	-0.760699
H58	H	-3.587313	0.149247	-0.260699
H59	H	-3.987881	-0.130979	-0.758673
H60	H	-3.487881	0.369021	-0.258673
