data_functionalizedCrystal
_audit_creation_method	'MofGen! by Chris Wilmer'
_symmetry_space_group_name_H-M	'P1'
_symmetry_Int_Tables_number	1
_symmetry_cell_setting	triclinic
loop_
_symmetry_equiv_pos_as_xyz
  x,y,z
_cell_length_a	14.395555
_cell_length_b	14.395555
_cell_length_c	14.395555
_cell_angle_alpha	120.004795
_cell_angle_beta	90.001202
_cell_angle_gamma	59.996404
loop_
_atom_site_label
_atom_site_type_symbol
_atom_site_fract_x
_atom_site_fract_y
_atom_site_fract_z
Zr1	Zr	0.894850	1.016805	0.121863
O2	O	0.746505	1.210634	0.270207
O3	O	0.940333	0.822994	0.076388
O4	O	0.940319	1.016822	0.270198
O5	O	0.746522	1.016786	-0.076482
O6	O	1.093193	1.016815	0.270189
O7	O	0.746520	1.016806	0.076398
O8	O	1.093219	0.670092	-0.076500
O9	O	0.746496	1.363509	0.270207
O10	O	1.073810	0.902700	0.056987
O11	O	0.959723	0.902690	-0.057100
O12	O	0.959706	1.130897	0.171086
O13	O	0.845619	1.130888	0.056999
Zr14	Zr	1.138669	1.016763	-0.121976
Zr15	Zr	1.138666	1.016794	0.121850
Zr16	Zr	0.894853	1.016774	-0.121963
Zr17	Zr	0.894835	1.260623	0.121863
Zr18	Zr	1.138684	0.772945	-0.121976
O19	O	1.093185	1.210574	-0.076501
O20	O	1.093181	1.210618	0.270189
O21	O	0.746510	1.210589	-0.076483
O22	O	1.287013	0.822934	-0.270320
O23	O	1.287009	0.822978	0.076370
O24	O	0.940338	0.822950	-0.270302
O25	O	1.286997	1.016782	0.076369
O26	O	1.093200	1.016746	-0.270310
O27	O	0.940326	1.016753	-0.270302
O28	O	1.286999	1.016762	-0.076511
O29	O	0.940298	1.363500	0.270197
O30	O	1.093221	0.670068	-0.270310
O31	O	1.287023	0.670059	-0.270320
O32	O	1.287021	0.670084	-0.076510
O33	O	0.746498	1.363484	0.076397
O34	O	0.940300	1.363475	0.076387
O35	O	1.073813	0.902670	-0.171199
O36	O	1.187900	0.902680	-0.057112
O37	O	1.073796	1.130878	0.056987
O38	O	0.959709	1.130868	-0.057100
C39	C	1.016778	0.711804	-0.000056
C40	C	1.016785	0.608297	-0.000055
C41	C	1.078965	0.485817	0.062152
C42	C	0.971702	0.623955	0.107254
C43	C	1.124027	0.471570	-0.045105
C44	C	0.909408	0.562108	0.045107
C45	C	1.061811	0.409650	-0.107312
C46	C	0.954484	0.547778	-0.062237
C47	C	0.711782	1.016798	-0.000040
C48	C	0.608276	1.016802	-0.000035
C49	C	0.485472	1.141226	0.062167
C50	C	0.454640	1.079036	0.107246
C51	C	0.454685	1.078987	-0.045105
C52	C	0.578807	0.954612	0.045107
C53	C	0.578848	0.954581	-0.107303
C54	C	0.548089	0.892300	-0.062252
C55	C	1.321737	1.016770	-0.000073
C56	C	1.425243	1.016766	-0.000078
C57	C	1.016756	1.016823	0.304934
C58	C	1.016754	1.016836	0.408444
C59	C	1.016741	1.321764	-0.000057
C60	C	1.016734	1.425271	-0.000057
C61	C	0.954526	1.141265	0.531247
C62	C	1.061798	1.079067	0.562082
C63	C	0.909483	1.079044	0.562040
C64	C	1.124090	0.954637	0.437916
C65	C	0.971697	0.954633	0.437877
C66	C	1.079033	0.892344	0.468639
C67	C	1.016756	1.016766	0.694964
C68	C	1.016735	1.016814	0.591484
C69	C	1.321756	0.711791	-0.000072
C70	C	1.425269	0.608279	-0.000077
C71	C	1.016782	0.711765	-0.305046
C72	C	1.016790	0.608245	-0.408556
C73	C	1.321759	0.711752	-0.305062
C74	C	1.425274	0.608227	-0.408578
C75	C	0.711759	1.321816	0.304949
C76	C	0.608245	1.425341	0.408465
C77	C	0.711763	1.321777	-0.000041
C78	C	0.608250	1.425289	-0.000036
C79	C	1.016737	1.321803	0.304933
C80	C	1.016729	1.425323	0.408443
C81	C	1.548068	0.547707	-0.062259
C82	C	1.578938	0.409587	-0.107316
C83	C	1.578833	0.562016	0.045034
C84	C	1.454775	0.471458	-0.045198
C85	C	1.454673	0.623962	0.107212
C86	C	1.485470	0.485851	0.062182
C87	C	0.954585	0.547661	-0.406938
C88	C	1.061875	0.409538	-0.499969
C89	C	0.909551	0.561883	-0.499969
C90	C	1.124143	0.471423	-0.500224
C91	C	0.971741	0.623841	-0.500209
C92	C	1.079095	0.485728	-0.593258
C93	C	1.423665	0.547600	-0.531378
C94	C	1.516665	0.409491	-0.562178
C95	C	1.516724	0.561768	-0.562218
C96	C	1.516911	0.471419	-0.438015
C97	C	1.516955	0.623770	-0.438058
C98	C	1.609973	0.485671	-0.468785
H99	H	0.901806	0.574835	-0.114831
O100	O	1.642615	0.606515	0.090385
C101	C	1.676700	0.637676	0.024479
H102	H	1.615461	0.658240	-0.024087
H103	H	1.675864	0.728476	0.082676
H104	H	1.766337	0.551511	-0.038443
H105	H	1.573508	0.574771	-0.114951
H106	H	1.343902	0.574696	-0.556815
O107	O	1.517619	0.606217	-0.626029
C108	C	1.420531	0.637447	-0.660088
H109	H	1.351380	0.658058	-0.598831
H110	H	1.387963	0.728238	-0.659251
H111	H	1.443740	0.551301	-0.749721
H112	H	0.460022	1.246438	0.114849
O113	O	1.232443	0.426836	-0.499403
C114	C	1.298025	0.394360	-0.597072
H115	H	1.239515	0.450615	-0.630311
H116	H	1.360481	0.421915	-0.574343
H117	H	1.347111	0.284292	-0.665537
O118	O	1.704948	0.453284	-0.438137
C119	C	1.705712	0.404682	-0.373798
H120	H	1.650666	0.366106	-0.394241
H121	H	1.796648	0.321571	-0.395855
H122	H	1.670443	0.487063	-0.279273
O123	O	1.390626	0.733425	0.215312
C124	C	1.292637	0.829793	0.213798
H125	H	1.273598	0.780427	0.133066
H126	H	1.217302	0.885705	0.291396
H127	H	1.307772	0.901172	0.215710
O128	O	0.801098	0.606962	0.090849
C129	C	0.753665	0.719382	0.203617
H130	H	0.800411	0.767010	0.214857
H131	H	0.659796	0.792303	0.222254
H132	H	0.762432	0.689742	0.264925
O133	O	0.801341	0.606404	-0.501099
C134	C	0.753363	0.719548	-0.500372
H135	H	0.824232	0.720009	-0.535009
H136	H	0.696991	0.719145	-0.555988
H137	H	0.700070	0.810979	-0.409535
H138	H	1.516002	0.715411	-0.384575
O139	O	0.642566	0.892077	-0.215481
C140	C	0.578083	0.957999	-0.262684
H141	H	0.507586	1.064175	-0.191348
H142	H	0.635671	0.956207	-0.318858
H143	H	0.538851	0.906924	-0.316017
H144	H	1.099902	1.131654	0.615607
H145	H	1.131785	0.458684	-0.672896
H146	H	0.933589	0.715501	-0.499222
O147	O	0.390963	1.141654	0.215482
C148	C	0.456111	1.077152	0.263421
H149	H	0.550451	1.019829	0.217005
H150	H	0.434590	1.152907	0.357294
H151	H	0.435972	1.006566	0.254731
H152	H	1.517575	0.317874	-0.615664
O153	O	1.515752	0.426844	-0.374388
C154	C	1.417393	0.428673	-0.363696
H155	H	1.385327	0.425313	-0.436977
H156	H	1.438744	0.339706	-0.366001
H157	H	1.348573	0.522473	-0.279465
H158	H	1.401440	0.434037	-0.083409
O159	O	1.141615	0.453665	0.125064
C160	C	1.184773	0.530137	0.169930
H161	H	1.129416	0.623568	0.173840
H162	H	1.184125	0.557207	0.259223
H163	H	1.275673	0.471477	0.113012
O164	O	0.926408	0.733159	0.215499
C165	C	0.992224	0.701345	0.280807
H166	H	1.081746	0.609807	0.222053
H167	H	0.996862	0.786786	0.342997
H168	H	0.951286	0.681717	0.330180
H169	H	0.632168	0.902071	0.083310
H170	H	1.459814	0.458841	0.114799
H171	H	0.902058	0.574759	-0.327171
H172	H	1.632484	0.317930	-0.198005
H173	H	1.214744	0.434344	-0.083206
O174	O	1.107492	0.300254	-0.215497
C175	C	1.220636	0.251571	-0.262700
H176	H	1.255470	0.287207	-0.191364
H177	H	1.275012	0.139588	-0.318887
H178	H	1.222918	0.288548	-0.316019
H179	H	0.573754	0.787003	-0.114860
O180	O	1.107191	0.300209	-0.501139
C181	C	1.026017	0.272329	-0.502544
H182	H	0.961179	0.318580	-0.538255
H183	H	1.070517	0.161402	-0.558301
H184	H	0.980718	0.314457	-0.412216
O185	O	0.390875	1.141911	-0.090448
C186	C	0.356782	1.273080	-0.024555
H187	H	0.418031	1.280980	0.023993
H188	H	0.357593	1.304835	-0.082760
H189	H	0.267154	1.339490	0.038383
H190	H	0.901997	1.246474	0.556693
O191	O	1.232390	0.892065	0.374426
C192	C	1.279834	0.957375	0.439402
H193	H	1.233112	1.015340	0.533785
H194	H	1.373709	0.882116	0.418405
H195	H	1.271047	1.027479	0.418557
H196	H	0.818772	1.131660	0.615548
O197	O	1.141801	0.766813	0.438234
C198	C	1.140372	0.768173	0.536849
H199	H	1.061997	0.865553	0.611036
H200	H	1.137634	0.683922	0.521361
H201	H	1.220328	0.756144	0.557892
O202	O	0.926019	0.892143	0.374158
C203	C	0.812882	0.958083	0.438641
H204	H	0.778043	1.064256	0.509139
H205	H	0.758500	0.956300	0.381052
H206	H	0.810616	0.907016	0.477874
