data_functionalizedCrystal
_audit_creation_method	'MofGen! by Chris Wilmer'
_symmetry_space_group_name_H-M	'P1'
_symmetry_Int_Tables_number	1
_symmetry_cell_setting	triclinic
loop_
_symmetry_equiv_pos_as_xyz
  x,y,z
_cell_length_a	14.044220
_cell_length_b	17.038272
_cell_length_c	13.101039
_cell_angle_alpha	93.604737
_cell_angle_beta	86.340132
_cell_angle_gamma	92.150217
loop_
_atom_site_label
_atom_site_type_symbol
_atom_site_fract_x
_atom_site_fract_y
_atom_site_fract_z
O1	O	1.277881	0.185592	-0.085106
O2	O	1.001361	0.178751	-0.085132
O3	O	1.137977	0.068241	-0.085111
O4	O	1.141265	0.296101	-0.085127
O5	O	1.128176	0.076185	0.085317
O6	O	0.991560	0.186694	0.085296
O7	O	1.268080	0.193535	0.085322
Zn8	Zn	1.128264	0.191376	0.112368
Zn9	Zn	1.141177	0.180910	-0.112178
O10	O	1.131464	0.304045	0.085301
C11	C	0.960905	0.179728	0.000079
C12	C	0.854960	0.170796	0.000069
C13	C	0.660980	0.154468	0.000091
C14	C	0.608455	0.217813	0.000090
C15	C	0.500518	0.208729	0.000102
C16	C	0.768927	0.163552	0.000079
C17	C	1.130087	0.042876	0.000103
C18	C	1.121168	-0.044541	0.000101
C19	C	1.203056	-0.088926	0.000110
C20	C	1.194670	-0.171064	0.000100
C21	C	1.104396	-0.208815	0.000088
C22	C	1.022502	-0.164424	0.000076
C23	C	1.030889	-0.082288	0.000079
C24	C	1.074767	-0.456646	0.000071
C25	C	1.066386	-0.538788	0.000071
C26	C	1.238555	-0.545423	0.000093
C27	C	1.246934	-0.463285	0.000102
C28	C	1.165040	-0.418901	0.000085
C29	C	1.095822	-0.292773	0.000080
C30	C	1.173615	-0.334945	0.000085
C31	C	1.308536	0.192558	0.000109
C32	C	1.414482	0.201490	0.000112
C33	C	1.139354	0.329410	0.000085
C34	C	1.148273	0.416827	0.000080
N35	N	1.119458	0.198518	0.265616
N36	N	1.149990	0.173762	-0.265426
C37	C	1.107478	0.208243	0.474656
C38	C	1.161967	0.164040	0.525540
C39	C	1.155301	0.169451	0.641858
C40	C	1.114143	0.202833	0.358328
H41	H	0.624887	0.093419	0.000100
O42	O	0.978618	-0.575338	0.000003
C43	C	0.908133	-0.518552	0.000009
H44	H	0.941202	-0.462476	-0.032248
H45	H	0.877841	-0.504991	0.081765
C46	C	0.786772	-0.619463	-0.027231
C47	C	0.827386	-0.550591	-0.066858
H48	H	0.736960	-0.639227	-0.068473
H49	H	0.834258	-0.657722	-0.027231
H50	H	0.761536	-0.608152	0.040899
H51	H	0.852631	-0.561904	-0.134981
H52	H	0.779902	-0.512335	-0.066870
O53	O	1.045941	0.258225	0.527051
C54	C	1.052897	0.252559	0.633205
H55	H	1.125438	0.229045	0.647723
H56	H	0.993958	0.210811	0.663662
C57	C	0.953025	0.363411	0.670577
C58	C	1.042124	0.334536	0.688408
H59	H	0.946375	0.413976	0.704630
H60	H	0.948335	0.367226	0.599059
H61	H	0.903919	0.328613	0.695958
H62	H	1.091228	0.369328	0.663016
H63	H	1.046822	0.330728	0.759924
H64	H	1.213624	0.122133	0.481746
O65	O	1.290825	-0.052386	0.000074
C66	C	1.361300	-0.109178	0.000101
H67	H	1.331938	-0.168255	-0.032166
H68	H	1.382179	-0.115127	0.081865
C69	C	1.485808	-0.010813	-0.027100
C70	C	1.449747	-0.083372	-0.066739
H71	H	1.540369	0.005106	-0.068326
H72	H	1.438329	0.027450	-0.027115
H73	H	1.503199	-0.015780	0.041036
H74	H	1.432346	-0.078401	-0.134869
H75	H	1.497226	-0.121633	-0.066738
H76	H	0.644550	0.278868	0.000081
O77	O	1.274137	-0.214260	0.000244
C78	C	1.269368	-0.257852	0.088516
H79	H	1.191679	-0.265903	0.117935
H80	H	1.311527	-0.224964	0.150333
C81	C	1.407575	-0.329131	0.025566
C82	C	1.312155	-0.339025	0.061693
H83	H	1.433971	-0.379201	0.009023
H84	H	1.410791	-0.299760	-0.033904
H85	H	1.442696	-0.301721	0.077086
H86	H	1.277034	-0.366425	0.010169
H87	H	1.308934	-0.368402	0.121153
O88	O	1.318007	-0.588658	0.000055
C89	C	1.291251	-0.669247	0.000075
H90	H	1.217979	-0.679116	-0.032196
H91	H	1.288253	-0.688908	0.081837
C92	C	1.455046	-0.705268	-0.027124
C93	C	1.365056	-0.717390	-0.066767
H94	H	1.500574	-0.734966	-0.068351
H95	H	1.473073	-0.650974	-0.027133
H96	H	1.452534	-0.721652	0.041011
H97	H	1.367566	-0.700997	-0.134895
H98	H	1.347031	-0.771683	-0.066770
O99	O	0.995282	-0.413446	0.000197
C100	C	0.989891	-0.361638	0.088474
H101	H	1.064194	-0.350844	0.117910
H102	H	0.940622	-0.388775	0.150277
C103	C	0.858922	-0.296226	0.025500
C104	C	0.950185	-0.282964	0.061649
H105	H	0.834426	-0.247697	0.008956
H106	H	0.862551	-0.331132	-0.033972
H107	H	0.817877	-0.318843	0.077009
H108	H	0.991231	-0.260357	0.010136
H109	H	0.946562	-0.248053	0.121112
O110	O	0.934748	-0.200996	0.000198
C111	C	0.879358	-0.174810	0.088470
H112	H	0.908233	-0.114748	0.117902
H113	H	0.883012	-0.218620	0.150278
C114	C	0.739446	-0.241926	0.025493
C115	C	0.774906	-0.168154	0.061637
H116	H	0.675014	-0.237823	0.008944
H117	H	0.776764	-0.259571	-0.033976
H118	H	0.742500	-0.278426	0.077006
H119	H	0.771863	-0.131658	0.010120
H120	H	0.737585	-0.150503	0.121097
O121	O	0.951382	-0.039144	-0.000108
C122	C	0.956173	0.004470	-0.088362
H123	H	1.006045	-0.025040	-0.150049
H124	H	0.984510	0.066756	-0.068403
C125	C	0.794508	0.044081	-0.052635
C126	C	0.855755	0.007832	-0.128403
H127	H	0.732565	0.046158	-0.077332
H128	H	0.791280	0.014700	0.006826
H129	H	0.818133	0.095982	-0.036009
H130	H	0.832135	-0.044072	-0.145018
H131	H	0.858976	0.037204	-0.187867
O132	O	1.261336	-0.298322	-0.000086
C133	C	1.316749	-0.324531	-0.088331
H134	H	1.267631	-0.348047	-0.150033
H135	H	1.364416	-0.373342	-0.068366
C136	C	1.439568	-0.226577	-0.052562
C137	C	1.379240	-0.255453	-0.128348
H138	H	1.478119	-0.183968	-0.077244
H139	H	1.402237	-0.208920	0.006893
H140	H	1.479281	-0.267259	-0.035931
H141	H	1.339520	-0.214774	-0.144968
H142	H	1.416565	-0.273101	-0.187807
O143	O	1.008121	-0.329419	-0.000107
C144	C	0.962861	-0.311426	-0.088362
H145	H	1.019077	-0.293652	-0.150049
H146	H	0.912896	-0.260758	-0.068404
C147	C	0.835932	-0.406055	-0.052629
C148	C	0.904978	-0.384231	-0.128398
H149	H	0.800223	-0.450963	-0.077324
H150	H	0.866422	-0.418176	0.006832
H151	H	0.794304	-0.363826	-0.036005
H152	H	0.946611	-0.426456	-0.145012
H153	H	0.874494	-0.372118	-0.187864
H154	H	1.320445	-0.432554	0.000112
