data_functionalizedCrystal
_audit_creation_method	'MofGen! by Chris Wilmer'
_symmetry_space_group_name_H-M	'P1'
_symmetry_Int_Tables_number	1
_symmetry_cell_setting	triclinic
loop_
_symmetry_equiv_pos_as_xyz
  x,y,z
_cell_length_a	12.759395
_cell_length_b	12.594516
_cell_length_c	12.594509
_cell_angle_alpha	89.973801
_cell_angle_beta	89.981373
_cell_angle_gamma	90.017589
loop_
_atom_site_label
_atom_site_type_symbol
_atom_site_fract_x
_atom_site_fract_y
_atom_site_fract_z
Zn1	Zn	1.606239	-0.423666	-0.601798
Zn2	Zn	1.606132	-0.601677	-0.423826
Zn3	Zn	1.430543	-0.423717	-0.423836
Zn4	Zn	1.430526	-0.601608	-0.601765
O5	O	1.518360	-0.512667	-0.512806
O6	O	1.753246	-0.447287	-0.578200
O7	O	1.582802	-0.578120	-0.274882
O8	O	1.453902	-0.274765	-0.447461
O9	O	1.753167	-0.578071	-0.447445
O10	O	1.582985	-0.274727	-0.578209
O11	O	1.453798	-0.447374	-0.274889
O12	O	1.283520	-0.447308	-0.447428
O13	O	1.453872	-0.577954	-0.750715
O14	O	1.283507	-0.578003	-0.578152
O15	O	1.582968	-0.447221	-0.750740
O16	O	1.582785	-0.750613	-0.447412
O17	O	1.453768	-0.750563	-0.578143
C18	C	1.245392	-0.512654	-0.512788
C19	C	1.128616	-0.512674	-0.512805
C20	C	1.128641	-0.648988	-0.648708
C21	C	1.073793	-0.717153	-0.716662
C22	C	0.964071	-0.717166	-0.716675
C23	C	0.909195	-0.649004	-0.648729
C24	C	0.964043	-0.580839	-0.580774
C25	C	1.073768	-0.580836	-0.580767
C26	C	0.964018	-0.444522	-0.444879
C27	C	1.073740	-0.444512	-0.444859
C28	C	0.909142	-0.376360	-0.376933
C29	C	0.963991	-0.308199	-0.308972
C30	C	1.073719	-0.308189	-0.308961
C31	C	1.128588	-0.376347	-0.376905
C32	C	1.518291	-0.789208	-0.512796
C33	C	1.518358	-0.907514	-0.512827
C34	C	1.448179	-0.976778	-0.583881
C35	C	1.422580	-1.047644	-0.486759
C36	C	1.544052	-1.047446	-0.609965
C37	C	1.492709	-0.976821	-0.415654
C38	C	1.614225	-0.976618	-0.538925
C39	C	1.588663	-1.047452	-0.441736
C40	C	1.792393	-0.512681	-0.512825
C41	C	1.909170	-0.512687	-0.512833
C42	C	1.518430	-0.512574	-0.790427
C43	C	1.518460	-0.512534	-0.908733
C44	C	1.518458	-0.235046	-0.512840
C45	C	1.518499	-0.116741	-0.512854
C46	C	1.448267	-0.583599	-0.977972
C47	C	1.544133	-0.609603	-1.048759
C48	C	1.422670	-0.486466	-1.048745
C49	C	1.614376	-0.538589	-0.977961
C50	C	1.492848	-0.415407	-0.977941
C51	C	1.588780	-0.441374	-1.048696
C52	C	1.518350	-0.512683	-0.236265
C53	C	1.518524	-0.512423	-0.117960
H54	H	0.819854	-0.649011	-0.648755
Br55	Br	0.889629	-0.809666	-0.808907
H56	H	0.819801	-0.376371	-0.376953
H57	H	0.919302	-0.252702	-0.253660
Br58	Br	1.687687	-1.098849	-0.341496
H59	H	1.695213	-0.945399	-0.561023
H60	H	1.388724	-0.945745	-0.643882
Br61	Br	1.580176	-1.099163	-0.746864
Br62	Br	1.277497	-0.376347	-0.376888
H63	H	1.341573	-1.078865	-0.464708
Br64	Br	1.456431	-0.925336	-0.278710
Br65	Br	1.349405	-0.683915	-0.926211
Br66	Br	1.580301	-0.746424	-1.100606
Br67	Br	1.287608	-0.449794	-1.100573
Br68	Br	1.148147	-0.215665	-0.216740
H69	H	1.118485	-0.772647	-0.771984
H70	H	1.695435	-0.560684	-0.946999
Br71	Br	1.687871	-0.341127	-1.100135
H72	H	1.217982	-0.648992	-0.648696
Br73	Br	1.456639	-0.278620	-0.926052
