data_functionalizedCrystal
_audit_creation_method	'MofGen! by Chris Wilmer'
_symmetry_space_group_name_H-M	'P1'
_symmetry_Int_Tables_number	1
_symmetry_cell_setting	triclinic
loop_
_symmetry_equiv_pos_as_xyz
  x,y,z
_cell_length_a	10.540558
_cell_length_b	17.699077
_cell_length_c	9.616153
_cell_angle_alpha	89.993699
_cell_angle_beta	89.995423
_cell_angle_gamma	96.093155
loop_
_atom_site_label
_atom_site_type_symbol
_atom_site_fract_x
_atom_site_fract_y
_atom_site_fract_z
O1	O	-0.160475	1.005131	-0.115606
O2	O	-0.181366	0.784889	-0.115610
O3	O	0.013876	0.900028	-0.115623
O4	O	-0.355718	0.889993	-0.115594
O5	O	0.013872	0.900012	0.115668
O6	O	-0.181371	0.784873	0.115681
O7	O	-0.160479	1.005115	0.115685
Zn8	Zn	-0.170926	0.894992	0.152405
Zn9	Zn	-0.170920	0.895013	-0.152331
O10	O	-0.355722	0.889977	0.115698
C11	C	-0.180621	0.756679	0.000034
C12	C	-0.178379	0.672646	0.000032
C13	C	-0.177325	0.633163	0.126110
C14	C	-0.175198	0.554207	0.126111
C15	C	-0.174135	0.514734	0.000033
C16	C	-0.175185	0.554223	-0.126055
C17	C	-0.177303	0.633178	-0.126055
C18	C	-0.166643	0.235804	-0.126059
C19	C	-0.164529	0.156842	-0.126049
C20	C	-0.164539	0.156832	0.126108
C21	C	-0.166656	0.235788	0.126108
C22	C	-0.167700	0.275270	0.000021
C23	C	-0.170004	0.360884	0.000021
C24	C	-0.171840	0.429121	0.000031
C25	C	0.061163	0.899264	0.000016
C26	C	0.202068	0.897004	-0.000004
C27	C	0.383910	0.810597	-0.000542
C28	C	0.237335	0.812889	-0.000008
C29	C	0.264465	0.937471	0.132070
C30	C	0.410956	0.934595	0.132168
C31	C	0.411510	0.936324	-0.130853
C32	C	0.264544	0.937104	-0.132587
C33	C	0.596989	0.890730	0.000033
C34	C	0.456077	0.892961	-0.000023
C35	C	-0.161224	1.033325	0.000037
C36	C	-0.163466	1.117358	0.000031
N37	N	-0.170929	0.894983	0.360380
N38	N	-0.170907	0.895027	-0.360305
C39	C	-0.275027	0.833203	0.580757
C40	C	-0.275411	0.833339	0.419589
C41	C	-0.199612	0.974114	0.418834
C42	C	-0.200347	0.973777	0.580052
C43	C	-0.037795	0.878420	0.580280
C44	C	-0.038693	0.876604	0.419054
H45	H	0.194151	0.781046	-0.094684
H46	H	0.442566	0.909106	-0.230964
Br47	Br	-0.438759	0.850772	0.648237
Br48	Br	-0.163120	0.103245	0.297230
Br49	Br	0.192608	0.890599	0.295902
Br50	Br	0.096469	0.946688	0.351906
H51	H	-0.174319	0.522065	0.228777
Br52	Br	-0.362136	0.997985	0.642723
Br53	Br	0.091345	0.953550	0.643797
Br54	Br	0.226040	1.039320	-0.145889
Br55	Br	-0.178782	0.686725	0.297226
H56	H	-0.125785	1.021243	0.380477
H57	H	-0.258357	0.774544	0.380071
H58	H	-0.167529	0.267922	0.228774
Br59	Br	-0.078597	1.052741	0.645037
Br60	Br	0.166744	0.759416	0.158060
Br61	Br	-0.440081	0.851097	0.355287
Br62	Br	-0.002396	0.779577	0.355385
Br63	Br	0.457046	0.884717	0.296718
H64	H	-0.174310	0.522078	-0.228711
Br65	Br	-0.359558	0.998866	0.351531
Br66	Br	-0.163088	0.103272	-0.297167
H67	H	-0.167489	0.267941	-0.228727
H68	H	-0.178164	0.665324	-0.228721
H69	H	0.459849	0.997077	-0.131744
Br70	Br	0.430559	0.755221	-0.158418
Br71	Br	0.433847	0.755267	0.155953
H72	H	0.460032	0.995086	0.138157
Br73	Br	0.229102	1.040429	0.140269
H74	H	0.223145	0.907494	-0.230292
Br75	Br	-0.247054	0.734892	0.645397
H76	H	-0.010150	0.821937	0.621014
