data_functionalizedCrystal
_audit_creation_method	'MofGen! by Chris Wilmer'
_symmetry_space_group_name_H-M	'P1'
_symmetry_Int_Tables_number	1
_symmetry_cell_setting	triclinic
loop_
_symmetry_equiv_pos_as_xyz
  x,y,z
_cell_length_a	12.837943
_cell_length_b	12.784890
_cell_length_c	11.892110
_cell_angle_alpha	86.521686
_cell_angle_beta	94.311069
_cell_angle_gamma	83.967749
loop_
_atom_site_label
_atom_site_type_symbol
_atom_site_fract_x
_atom_site_fract_y
_atom_site_fract_z
O1	O	-1.357945	-0.267748	-0.093981
O2	O	-1.057359	-0.254222	-0.093988
O3	O	-1.229649	-0.108485	-0.093978
O4	O	-1.185655	-0.413484	-0.093991
O5	O	-1.215284	-0.120617	0.094028
O6	O	-1.042994	-0.266354	0.094019
O7	O	-1.343580	-0.279880	0.094026
Zn8	Zn	-1.191006	-0.275043	0.123872
Zn9	Zn	-1.209933	-0.259059	-0.123835
O10	O	-1.171290	-0.425616	0.094016
C11	C	-1.011968	-0.255718	0.000015
C12	C	-0.898120	-0.242090	0.000012
C13	C	-1.225328	-0.075242	0.000024
C14	C	-1.233842	0.041890	0.000022
C15	C	-1.388971	-0.278383	0.000021
C16	C	-1.502820	-0.292011	0.000016
C17	C	-0.642392	-0.405923	0.000022
C18	C	-0.535420	-0.393123	0.000020
C19	C	-0.577201	-0.203692	0.000016
C20	C	-0.684173	-0.216492	0.000017
C21	C	-0.716764	-0.317610	0.000019
C22	C	-0.823739	-0.330409	0.000012
C23	C	-0.865517	-0.140980	0.000016
C24	C	-0.758545	-0.128180	0.000014
C25	C	-1.175612	-0.458860	0.000011
C26	C	-1.167098	-0.575991	0.000006
C27	C	-1.340542	0.210060	0.000022
C28	C	-1.332549	0.100004	0.000024
C29	C	-1.143120	0.093839	0.000020
C30	C	-1.151113	0.203895	0.000018
C31	C	-1.249827	0.262002	0.000018
C32	C	-1.257820	0.372060	0.000008
C33	C	-1.068391	0.365892	0.000012
C34	C	-1.060398	0.255837	0.000014
N35	N	-1.178097	-0.285952	0.292926
C36	C	-1.312667	-0.172187	0.529581
C37	C	-1.303650	-0.179821	0.647922
C38	C	-1.151043	-0.308847	0.647952
C39	C	-1.160060	-0.301213	0.529611
C40	C	-1.240875	-0.232882	0.470429
C41	C	-1.249896	-0.225255	0.352086
C42	C	-1.097285	-0.354274	0.352118
C43	C	-1.088268	-0.361908	0.470459
N44	N	-1.222842	-0.248150	0.707112
H45	H	-0.668928	-0.488257	0.000021
O46	O	-0.953932	0.193159	0.000022
H47	H	-0.915901	0.217748	-0.076605
H48	H	-1.062751	0.046510	0.000028
H49	H	-0.731993	-0.045853	0.000026
H50	H	-1.022467	-0.417539	0.518658
O51	O	-1.381096	-0.114368	0.711719
H52	H	-1.377153	-0.029459	0.689004
H53	H	-1.338199	0.419369	0.000000
O54	O	-0.970537	0.421911	0.000013
H55	H	-0.992674	0.508202	0.000018
O56	O	-1.337050	-0.151553	0.288246
H57	H	-1.385448	-0.110621	0.349265
O58	O	-1.447009	0.272734	0.000021
H59	H	-1.437326	0.357990	0.000014
O60	O	-1.399826	-0.098494	0.465737
H61	H	-1.448232	-0.057567	0.526752
O62	O	-1.063883	-0.382542	0.711790
H63	H	-1.069681	-0.377653	0.804017
O64	O	-0.945731	-0.045717	0.000019
H65	H	-1.025592	-0.071602	0.000026
H66	H	-1.038830	-0.403699	0.303943
H67	H	-1.406419	0.057717	0.000030
H68	H	-0.474868	-0.465036	0.000026
O69	O	-0.858891	-0.439470	0.000030
H70	H	-0.834186	-0.477501	-0.076588
O71	O	-0.542040	-0.094636	0.000032
H72	H	-0.455161	-0.100578	0.000033
