data_functionalizedCrystal
_audit_creation_method	'MofGen! by Chris Wilmer'
_symmetry_space_group_name_H-M	'P1'
_symmetry_Int_Tables_number	1
_symmetry_cell_setting	triclinic
loop_
_symmetry_equiv_pos_as_xyz
  x,y,z
_cell_length_a	10.654550
_cell_length_b	15.995350
_cell_length_c	9.730223
_cell_angle_alpha	89.997832
_cell_angle_beta	89.999957
_cell_angle_gamma	83.988653
loop_
_atom_site_label
_atom_site_type_symbol
_atom_site_fract_x
_atom_site_fract_y
_atom_site_fract_z
O1	O	1.666303	0.117602	-0.114180
O2	O	1.300678	0.128807	-0.114204
O3	O	1.493485	0.001375	-0.114190
O4	O	1.473496	0.245034	-0.114194
O5	O	1.493473	0.001371	0.114390
O6	O	1.300666	0.128803	0.114375
O7	O	1.666290	0.117599	0.114400
Zn8	Zn	1.483476	0.123201	0.150680
Zn9	Zn	1.483492	0.123205	-0.150484
O10	O	1.473483	0.245031	0.114386
C11	C	1.253884	0.127982	0.000082
C12	C	1.114473	0.125521	0.000073
C13	C	1.034008	0.200551	0.000075
C14	C	0.903017	0.198233	0.000099
C15	C	0.932971	0.045849	0.000112
C16	C	1.063959	0.048168	0.000098
C17	C	1.492652	-0.029826	0.000097
C18	C	1.490175	-0.122791	0.000089
C19	C	1.481277	-0.460590	0.000093
C20	C	1.343964	-0.413954	-0.000429
C21	C	1.346442	-0.317249	0.000087
C22	C	1.485691	-0.293004	0.000090
C23	C	1.553412	-0.333690	0.130623
C24	C	1.549962	-0.430346	0.130732
C25	C	1.552813	-0.430684	-0.129206
C26	C	1.552780	-0.333739	-0.130931
C27	C	1.488192	-0.198292	0.000093
C28	C	1.478780	-0.555303	0.000099
C29	C	1.713084	0.118423	0.000110
C30	C	1.852495	0.120885	0.000111
C31	C	1.474316	0.276232	0.000095
C32	C	1.476793	0.369197	0.000094
N33	N	1.483474	0.123197	0.356216
N34	N	1.483504	0.123202	-0.356021
C35	C	1.568878	0.066794	0.428148
C36	C	1.568890	0.066794	0.572031
C37	C	1.398091	0.179608	0.572037
C38	C	1.398074	0.179603	0.428157
H39	H	0.837506	0.259330	0.000104
H40	H	1.289320	-0.433866	0.092650
H41	H	1.654054	-0.461857	-0.130081
O42	O	0.878489	-0.037580	0.000130
H43	H	0.773886	-0.026589	0.000127
H44	H	1.075132	0.263537	0.000065
O45	O	1.493398	-0.458228	-0.260288
H46	H	1.393456	-0.430664	-0.264934
O47	O	1.487298	-0.297957	-0.258857
H48	H	1.407306	-0.251352	-0.229262
O49	O	1.306005	0.240453	0.649639
H50	H	1.246611	0.279670	0.575443
O51	O	1.150762	-0.032761	0.000105
H52	H	1.132812	-0.069743	-0.093058
H53	H	1.293208	-0.289135	-0.093484
H54	H	1.654327	-0.317787	-0.138810
H55	H	1.638414	0.020864	0.369578
O56	O	1.271244	-0.438932	-0.124399
H57	H	1.332186	-0.484856	-0.186968
O58	O	1.484532	-0.454983	0.259968
H59	H	1.386911	-0.423047	0.262244
H60	H	1.292840	-0.289697	0.093810
O61	O	1.491109	-0.296465	0.259300
H62	H	1.411922	-0.249000	0.230615
O63	O	1.683491	-0.472298	0.138614
H64	H	1.750240	-0.423523	0.142342
H65	H	1.655714	-0.318971	0.135480
H66	H	1.638432	0.020865	0.630595
H67	H	1.328522	0.225533	0.369586
