data_functionalizedCrystal
_audit_creation_method	'MofGen! by Chris Wilmer'
_symmetry_space_group_name_H-M	'P1'
_symmetry_Int_Tables_number	1
_symmetry_cell_setting	triclinic
loop_
_symmetry_equiv_pos_as_xyz
  x,y,z
_cell_length_a	16.992695
_cell_length_b	16.992694
_cell_length_c	15.455313
_cell_angle_alpha	92.857794
_cell_angle_beta	87.152573
_cell_angle_gamma	90.668223
loop_
_atom_site_label
_atom_site_type_symbol
_atom_site_fract_x
_atom_site_fract_y
_atom_site_fract_z
O1	O	-0.163694	-1.054080	-0.072023
O2	O	-0.161862	-0.825681	-0.072048
O3	O	-0.048579	-0.938965	-0.072029
O4	O	-0.276978	-0.940797	-0.072042
O5	O	-0.055028	-0.932485	0.072232
O6	O	-0.168312	-0.819202	0.072213
O7	O	-0.170144	-1.047601	0.072238
Cu8	Cu	-0.169817	-0.932809	0.085398
Cu9	Cu	-0.162189	-0.940473	-0.085207
O10	O	-0.283428	-0.934317	0.072219
C11	C	-0.022443	-0.933369	0.000102
C12	C	0.065041	-0.926341	0.000101
C13	C	-0.162731	-0.793081	0.000079
C14	C	-0.155702	-0.705597	0.000070
C15	C	-0.169275	-1.080201	0.000109
C16	C	-0.176304	-1.167685	0.000113
C17	C	-0.309563	-0.939913	0.000087
C18	C	-0.397047	-0.946942	0.000082
C19	C	0.111032	-0.994158	0.000109
C20	C	0.193233	-0.987550	0.000100
C21	C	0.229442	-0.913123	0.000089
C22	C	0.183445	-0.845300	0.000078
C23	C	0.101246	-0.851910	0.000081
C24	C	0.474757	-0.885729	0.000074
C25	C	0.556962	-0.879124	0.000074
C26	C	0.566744	-1.021375	0.000094
C27	C	0.484543	-1.027977	0.000102
C28	C	0.438554	-0.960155	0.000087
N29	N	0.313464	-0.906366	0.000082
N30	N	0.354533	-0.966913	0.000087
C31	C	-0.223520	-0.659607	0.000066
C32	C	-0.216911	-0.577405	0.000079
C33	C	-0.142484	-0.541197	0.000088
C34	C	-0.074661	-0.587193	0.000094
C35	C	-0.081271	-0.669393	0.000088
C36	C	-0.115091	-0.295881	0.000113
C37	C	-0.108486	-0.213676	0.000116
C38	C	-0.250737	-0.203893	0.000103
C39	C	-0.257340	-0.286095	0.000091
C40	C	-0.189517	-0.332084	0.000102
N41	N	-0.135727	-0.457174	0.000098
N42	N	-0.196275	-0.416105	0.000098
N43	N	-0.175181	-0.927425	0.205392
N44	N	-0.156819	-0.945863	-0.205202
C45	C	-0.127074	-0.975571	0.250795
C46	C	-0.131139	-0.971507	0.341602
C47	C	-0.183315	-0.919301	0.387005
C48	C	-0.231424	-0.871149	0.341596
C49	C	-0.227355	-0.875210	0.250791
C50	C	-0.200858	-0.901772	0.658584
C51	C	-0.204926	-0.897717	0.749395
C52	C	-0.104639	-0.998074	0.749395
C53	C	-0.100578	-1.002133	0.658588
C54	C	-0.148684	-0.953979	0.613187
N55	N	-0.187473	-0.915147	0.479825
N56	N	-0.144522	-0.958129	0.520369
H57	H	0.081557	-1.054764	0.000124
Cl58	Cl	-0.335994	-0.146074	0.000093
H59	H	0.604197	-1.076591	0.000106
Cl60	Cl	0.251047	-1.072811	0.000113
Cl61	Cl	0.439031	-1.121548	0.000088
Cl62	Cl	0.043429	-0.766649	0.000067
H63	H	0.586440	-0.818513	0.000079
Cl64	Cl	0.416953	-0.800465	0.000052
H65	H	-0.240030	-0.862564	0.621625
Cl66	Cl	0.228966	-0.751734	0.000053
Cl67	Cl	0.018905	-0.541673	0.000111
H68	H	-0.273904	-0.828638	0.378569
Cl69	Cl	-0.317090	-0.705118	0.000049
Cl70	Cl	-0.061482	-1.041210	0.193726
H71	H	-0.091966	-1.010711	0.378568
Cl72	Cl	-0.287832	-0.814678	0.193714
H73	H	-0.047876	-0.184198	0.000123
Cl74	Cl	-0.034986	-1.067766	0.601509
H75	H	-0.026046	-0.706838	0.000090
H76	H	-0.247417	-0.855202	0.786359
Cl77	Cl	-0.302172	-0.519592	0.000069
H78	H	-0.317946	-0.315570	0.000074
Cl79	Cl	-0.029827	-0.353686	0.000125
H80	H	-0.065473	-1.037278	0.786369
