data_functionalizedCrystal
_audit_creation_method	'MofGen! by Chris Wilmer'
_symmetry_space_group_name_H-M	'P1'
_symmetry_Int_Tables_number	1
_symmetry_cell_setting	triclinic
loop_
_symmetry_equiv_pos_as_xyz
  x,y,z
_cell_length_a	11.792241
_cell_length_b	17.019294
_cell_length_c	10.868271
_cell_angle_alpha	93.884533
_cell_angle_beta	89.996464
_cell_angle_gamma	83.793186
loop_
_atom_site_label
_atom_site_type_symbol
_atom_site_fract_x
_atom_site_fract_y
_atom_site_fract_z
O1	O	1.505769	0.108121	0.113657
O2	O	1.175311	0.119264	0.114866
O3	O	1.349760	-0.001101	0.102092
O4	O	1.331321	0.228486	0.126431
O5	O	1.349758	-0.001108	-0.102554
O6	O	1.175309	0.119257	-0.089780
O7	O	1.505767	0.108114	-0.090989
Zn8	Zn	1.340538	0.113685	-0.122876
Zn9	Zn	1.340541	0.113694	0.146753
O10	O	1.331319	0.228479	-0.078214
C11	C	1.133027	0.118561	0.012473
C12	C	1.007035	0.116466	0.012261
C13	C	0.776363	0.112613	0.011818
C14	C	0.904726	0.114754	0.012064
C15	C	1.349060	-0.030497	-0.003344
C16	C	1.346963	-0.118076	-0.012620
C17	C	1.345982	-0.159213	0.094573
C18	C	1.344004	-0.241503	0.085854
C19	C	1.343016	-0.282655	-0.030061
C20	C	1.343994	-0.241512	-0.137262
C21	C	1.345964	-0.159223	-0.128541
C22	C	1.337063	-0.531114	-0.061973
C23	C	1.335097	-0.613409	-0.070685
C24	C	1.335105	-0.613394	0.152432
C25	C	1.337081	-0.531104	0.161142
C26	C	1.338053	-0.489968	0.053941
C27	C	1.340999	-0.366768	-0.038976
C28	C	1.340062	-0.405855	0.062858
C29	C	1.548052	0.108818	0.011407
C30	C	1.674044	0.110913	0.011627
C31	C	1.332019	0.257875	0.027224
C32	C	1.334116	0.345455	0.036508
N33	N	1.340545	0.113678	-0.306891
N34	N	1.340543	0.113694	0.330767
C35	C	1.340540	0.113689	0.581773
C36	C	1.340538	0.113694	0.442096
H37	H	1.346792	-0.125714	0.188963
H38	H	1.343210	-0.274993	0.173142
H39	H	1.346747	-0.125729	-0.215830
C40	C	1.244740	-0.304867	0.202992
C41	C	1.341132	-0.360626	0.190273
H42	H	1.245404	-0.276940	0.281652
H43	H	1.177837	-0.331245	0.195565
H44	H	1.245619	-0.268594	0.140392
H45	H	1.340248	-0.396904	0.252868
H46	H	1.408052	-0.334248	0.197712
H47	H	1.334311	-0.646896	0.239709
H48	H	1.334287	-0.646912	-0.165081
C49	C	1.436800	-0.447028	-0.182480
C50	C	1.338150	-0.485894	-0.179797
H51	H	1.437469	-0.419104	-0.255218
H52	H	1.502171	-0.484862	-0.181862
H53	H	1.437651	-0.410750	-0.112187
H54	H	1.337304	-0.522177	-0.250086
H55	H	1.272762	-0.448056	-0.180426
H56	H	1.337887	-0.497604	0.255532
H57	H	1.340198	-0.400284	-0.133354
C58	C	1.244271	-0.325620	-0.275600
C59	C	1.342914	-0.286748	-0.264676
H60	H	1.243614	-0.353550	-0.354260
H61	H	1.178895	-0.287790	-0.266960
H62	H	1.243416	-0.361895	-0.212999
H63	H	1.343764	-0.250469	-0.327273
H64	H	1.408307	-0.324583	-0.273329
