data_functionalizedCrystal
_audit_creation_method	'MofGen! by Chris Wilmer'
_symmetry_space_group_name_H-M	'P1'
_symmetry_Int_Tables_number	1
_symmetry_cell_setting	triclinic
loop_
_symmetry_equiv_pos_as_xyz
  x,y,z
_cell_length_a	27.731994
_cell_length_b	27.732048
_cell_length_c	26.210047
_cell_angle_alpha	90.009625
_cell_angle_beta	90.010334
_cell_angle_gamma	82.631595
loop_
_atom_site_label
_atom_site_type_symbol
_atom_site_fract_x
_atom_site_fract_y
_atom_site_fract_z
O1	O	0.640953	0.057391	0.042362
O2	O	1.140953	0.557391	0.542362
O3	O	0.500156	0.066164	0.042379
O4	O	1.000156	0.566164	0.542379
O5	O	0.574927	-0.008620	0.042360
O6	O	1.074927	0.491380	0.542360
O7	O	0.566181	0.132175	0.042381
O8	O	1.066181	0.632175	0.542381
O9	O	0.574904	-0.008620	-0.042498
O10	O	1.074904	0.491380	0.457502
O11	O	0.500132	0.066164	-0.042479
O12	O	1.000132	0.566164	0.457521
O13	O	0.640929	0.057391	-0.042496
O14	O	1.140929	0.557391	0.457504
Cu15	Cu	0.570529	0.061778	-0.050236
Cu16	Cu	1.070529	0.561778	0.449764
Cu17	Cu	0.570556	0.061778	0.050119
Cu18	Cu	1.070556	0.561778	0.550119
O19	O	0.566158	0.132175	-0.042477
O20	O	1.066158	0.632175	0.457523
C21	C	0.482137	0.065984	-0.000047
C22	C	0.982137	0.565984	0.499953
C23	C	0.428480	0.065442	-0.000041
C24	C	0.928480	0.565442	0.499959
C25	C	0.095749	0.062026	-0.046317
C26	C	0.595749	0.562026	0.453683
C27	C	-0.105909	0.059964	-0.046324
C28	C	0.394091	0.559964	0.453676
O29	O	-0.131993	0.059677	-0.085663
O30	O	0.368007	0.559677	0.414337
N31	N	-0.131111	0.059708	-0.000067
N32	N	0.368889	0.559708	0.499933
C33	C	-0.105895	0.059964	0.046193
C34	C	0.394105	0.559964	0.546193
O35	O	-0.131958	0.059694	0.085537
O36	O	0.368042	0.559694	0.585537
C37	C	0.095762	0.062023	0.046199
C38	C	0.595762	0.562023	0.546199
C39	C	0.120961	0.062283	-0.000060
C40	C	0.620961	0.562283	0.499940
C41	C	0.120948	0.062286	-0.092573
C42	C	0.620948	0.562286	0.407427
C43	C	0.171359	0.062804	-0.092571
C44	C	0.671359	0.562804	0.407429
C45	C	0.196571	0.063062	-0.046313
C46	C	0.696571	0.563062	0.453687
C47	C	0.171372	0.062801	-0.000058
C48	C	0.671372	0.562801	0.499942
C49	C	0.120978	0.062275	0.092459
C50	C	0.620978	0.562275	0.592459
C51	C	0.171396	0.062789	0.092457
C52	C	0.671396	0.562789	0.592457
C53	C	0.196595	0.063050	0.046197
C54	C	0.696595	0.563050	0.546197
C55	C	0.246996	0.063577	0.046201
C56	C	0.746996	0.563577	0.546201
N57	N	0.272198	0.063833	-0.000055
N58	N	0.772198	0.563833	0.499945
C59	C	0.246986	0.063576	-0.046312
C60	C	0.746986	0.563576	0.453688
C61	C	-0.211769	0.058885	0.046187
C62	C	0.288231	0.558885	0.546187
C63	C	-0.262183	0.058371	0.046186
C64	C	0.237817	0.558371	0.546186
C65	C	-0.262193	0.058370	-0.046331
C66	C	0.237807	0.558370	0.453669
C67	C	-0.211778	0.058887	-0.046329
C68	C	0.288222	0.558887	0.453671
C69	C	-0.186566	0.059141	-0.000069
C70	C	0.313434	0.559141	0.499931
C71	C	0.352853	0.064664	-0.046305
C72	C	0.852853	0.564664	0.453695
C73	C	0.403268	0.065184	-0.046298
C74	C	0.903268	0.565184	0.453702
C75	C	0.403274	0.065182	0.046218
C76	C	0.903274	0.565182	0.546218
C77	C	0.352863	0.064665	0.046213
C78	C	0.852863	0.564665	0.546213
C79	C	0.327654	0.064404	-0.000053
C80	C	0.827654	0.564404	0.499947
O81	O	0.273111	0.063859	0.085520
O82	O	0.773111	0.563859	0.585520
O83	O	0.273058	0.063835	-0.085650
O84	O	0.773058	0.563835	0.414350
C85	C	0.045338	0.061508	-0.046319
C86	C	0.545338	0.561508	0.453681
C87	C	0.020139	0.061247	-0.000064
C88	C	0.520139	0.561247	0.499936
C89	C	0.045351	0.061505	0.046193
C90	C	0.545351	0.561505	0.546193
C91	C	-0.030275	0.060734	-0.000065
C92	C	0.469725	0.560734	0.499935
C93	C	-0.055488	0.060476	-0.046323
C94	C	0.444512	0.560476	0.453677
C95	C	-0.030286	0.060732	-0.092579
C96	C	0.469714	0.560732	0.407421
C97	C	0.020126	0.061250	-0.092577
C98	C	0.520126	0.561250	0.407423
C99	C	0.020149	0.061249	0.092449
C100	C	0.520149	0.561249	0.592449
C101	C	-0.030262	0.060732	0.092443
C102	C	0.469738	0.560732	0.592443
C103	C	-0.055474	0.060474	0.046186
C104	C	0.444526	0.560474	0.546186
C105	C	0.574732	-0.026627	-0.000070
C106	C	1.074732	0.473373	0.499930
C107	C	0.574179	-0.080282	-0.000074
C108	C	1.074179	0.419718	0.499926
C109	C	0.614884	-0.419105	-0.000053
C110	C	1.114884	0.080895	0.499947
C111	C	0.612833	-0.620764	-0.000046
C112	C	1.112833	-0.120764	0.499954
O113	O	0.650055	-0.652027	-0.000028
O114	O	1.150055	-0.152027	0.499972
N115	N	0.568496	-0.639879	-0.000041
N116	N	1.068496	-0.139879	0.499959
C117	C	0.524670	-0.608576	-0.000034
C118	C	1.024670	-0.108576	0.499966
O119	O	0.486912	-0.629462	-0.000024
O120	O	0.986912	-0.129462	0.499976
C121	C	0.526721	-0.406918	-0.000038
C122	C	1.026721	0.093082	0.499962
C123	C	0.571060	-0.387805	-0.000048
C124	C	1.071060	0.112195	0.499952
C125	C	0.659220	-0.399992	-0.000063
C126	C	1.159220	0.100008	0.499937
C127	C	0.659732	-0.349580	-0.000068
C128	C	1.159732	0.150420	0.499932
C129	C	0.615908	-0.318281	-0.000062
C130	C	1.115908	0.181719	0.499938
C131	C	0.571573	-0.337394	-0.000053
C132	C	1.071573	0.162606	0.499947
C133	C	0.482895	-0.375615	-0.000028
C134	C	0.982895	0.124385	0.499972
C135	C	0.483412	-0.325198	-0.000027
C136	C	0.983412	0.174802	0.499973
C137	C	0.527751	-0.306086	-0.000037
C138	C	1.027751	0.193914	0.499963
C139	C	0.528262	-0.255683	-0.000052
C140	C	1.028262	0.244317	0.499948
N141	N	0.572598	-0.236567	-0.000057
N142	N	1.072598	0.263433	0.499943
C143	C	0.616421	-0.267867	-0.000062
C144	C	1.116421	0.232133	0.499938
C145	C	0.523596	-0.714450	-0.000033
C146	C	1.023596	-0.214450	0.499967
C147	C	0.523083	-0.764864	-0.000033
C148	C	1.023083	-0.264864	0.499967
C149	C	0.611246	-0.777049	-0.000044
C150	C	1.111246	-0.277049	0.499956
C151	C	0.611759	-0.726633	-0.000048
C152	C	1.111759	-0.226633	0.499952
C153	C	0.567932	-0.695335	-0.000038
C154	C	1.067932	-0.195335	0.499962
C155	C	0.617494	-0.161998	-0.000073
C156	C	1.117494	0.338002	0.499927
C157	C	0.618002	-0.111581	-0.000079
C158	C	1.118002	0.388419	0.499921
C159	C	0.529839	-0.099401	-0.000066
C160	C	1.029839	0.400599	0.499934
C161	C	0.529331	-0.149813	-0.000062
C162	C	1.029331	0.350187	0.499938
C163	C	0.573162	-0.181111	-0.000063
C164	C	1.073162	0.318889	0.499937
O165	O	0.491060	-0.224391	-0.000064
O166	O	0.991060	0.275609	0.499936
O167	O	0.654174	-0.246971	-0.000061
O168	O	1.154174	0.253029	0.499939
C169	C	0.614372	-0.469517	-0.000049
C170	C	1.114372	0.030483	0.499951
C171	C	0.570036	-0.488629	-0.000039
C172	C	1.070036	0.011371	0.499961
C173	C	0.526213	-0.457330	-0.000034
C174	C	1.026213	0.042670	0.499966
C175	C	0.569523	-0.539043	-0.000039
C176	C	1.069523	-0.039043	0.499961
C177	C	0.613346	-0.570343	-0.000044
C178	C	1.113346	-0.070343	0.499956
C179	C	0.657683	-0.551228	-0.000049
C180	C	1.157683	-0.051228	0.499951
C181	C	0.658195	-0.500816	-0.000054
C182	C	1.158195	-0.000816	0.499946
C183	C	0.481876	-0.476445	-0.000029
C184	C	0.981876	0.023555	0.499971
C185	C	0.481367	-0.526857	-0.000025
C186	C	0.981367	-0.026857	0.499975
C187	C	0.525191	-0.558157	-0.000030
C188	C	1.025191	-0.058157	0.499970
C189	C	0.658949	0.057571	-0.000068
C190	C	1.158949	0.557571	0.499932
C191	C	0.712605	0.058114	-0.000071
C192	C	1.212605	0.558114	0.499929
C193	C	0.566353	0.150182	-0.000046
C194	C	1.066353	0.650182	0.499954
C195	C	0.566906	0.203837	-0.000038
C196	C	1.066906	0.703837	0.499962
N197	N	0.570513	0.061777	-0.120820
N198	N	1.070513	0.561777	0.379180
C199	C	0.599649	0.090883	-0.473333
C200	C	1.099649	0.590883	0.026667
C201	C	0.599663	0.090882	-0.686992
C202	C	1.099663	0.590882	-0.186992
O203	O	0.624425	0.115623	-0.714613
O204	O	1.124425	0.615623	-0.214613
N205	N	0.570568	0.061773	-0.713714
N206	N	1.070568	0.561773	-0.213714
C207	C	0.541469	0.032659	-0.687017
C208	C	1.041469	0.532659	-0.187017
O209	O	0.516726	0.007895	-0.714649
O210	O	1.016726	0.507895	-0.214649
C211	C	0.541458	0.032657	-0.473360
C212	C	1.041458	0.532657	0.026640
C213	C	0.570551	0.061772	-0.446641
C214	C	1.070551	0.561772	0.053359
C215	C	0.628741	0.119995	-0.446614
C216	C	1.128741	0.619995	0.053386
C217	C	0.628735	0.119997	-0.393203
C218	C	1.128735	0.619997	0.106797
C219	C	0.599637	0.090886	-0.366510
C220	C	1.099637	0.590886	0.133490
C221	C	0.570546	0.061774	-0.393229
C222	C	1.070546	0.561774	0.106771
C223	C	0.512362	0.003540	-0.446665
C224	C	1.012362	0.503540	0.053335
C225	C	0.512363	0.003542	-0.393247
C226	C	1.012363	0.503542	0.106753
C227	C	0.541456	0.032657	-0.366528
C228	C	1.041456	0.532657	0.133472
C229	C	0.541442	0.032665	-0.313126
C230	C	1.041442	0.532665	0.186874
N231	N	0.570538	0.061775	-0.286404
N232	N	1.070538	0.561775	0.213596
C233	C	0.599635	0.090885	-0.313096
C234	C	1.099635	0.590885	0.186904
C235	C	0.541476	0.032662	-0.799191
C236	C	1.041476	0.532662	-0.299191
C237	C	0.541478	0.032663	-0.852605
C238	C	1.041478	0.532663	-0.352605
C239	C	0.599674	0.090886	-0.852576
C240	C	1.099674	0.590886	-0.352576
C241	C	0.599669	0.090888	-0.799160
C242	C	1.099669	0.590888	-0.299160
C243	C	0.570572	0.061772	-0.772469
C244	C	1.070572	0.561772	-0.272469
C245	C	0.599620	0.090887	-0.200928
C246	C	1.099620	0.590887	0.299072
C247	C	0.599610	0.090888	-0.147512
C248	C	1.099610	0.590888	0.352488
C249	C	0.541417	0.032663	-0.147546
C250	C	1.041417	0.532663	0.352454
C251	C	0.541425	0.032664	-0.200958
C252	C	1.041425	0.532664	0.299042
C253	C	0.570531	0.061777	-0.227647
C254	C	1.070531	0.561777	0.272353
O255	O	0.516698	0.007933	-0.285471
O256	O	1.016698	0.507933	0.214529
O257	O	0.624383	0.115637	-0.285456
O258	O	1.124383	0.615637	0.214544
C259	C	0.599655	0.090881	-0.526745
C260	C	1.099655	0.590881	-0.026745
C261	C	0.570563	0.061768	-0.553464
C262	C	1.070563	0.561768	-0.053464
C263	C	0.541466	0.032658	-0.526771
C264	C	1.041466	0.532658	-0.026771
C265	C	0.570565	0.061769	-0.606878
C266	C	1.070565	0.561769	-0.106878
C267	C	0.599663	0.090880	-0.633570
C268	C	1.099663	0.590880	-0.133570
C269	C	0.628758	0.119990	-0.606848
C270	C	1.128758	0.619990	-0.106848
C271	C	0.628753	0.119991	-0.553437
C272	C	1.128753	0.619991	-0.053437
C273	C	0.512370	0.003548	-0.553493
C274	C	1.012370	0.503548	-0.053493
C275	C	0.512378	0.003549	-0.606905
C276	C	1.012378	0.503549	-0.106905
C277	C	0.541475	0.032660	-0.633597
C278	C	1.041475	0.532660	-0.133597
N279	N	0.570576	0.061774	0.120703
N280	N	1.070576	0.561774	0.620703
H281	H	-0.191265	0.059100	-0.083998
H282	H	0.308735	0.559100	0.416002
C283	C	0.631675	0.122911	-0.769772
C284	C	1.131675	0.622911	-0.269772
C285	C	0.608134	0.162454	-0.733049
C286	C	1.108134	0.662454	-0.233049
C287	C	0.640143	0.194478	-0.703664
C288	C	1.140143	0.694478	-0.203664
C289	C	0.695694	0.186960	-0.711002
C290	C	1.195694	0.686960	-0.211002
C291	C	0.719238	0.147415	-0.747727
C292	C	1.219238	0.647415	-0.247727
C293	C	0.687229	0.115391	-0.777112
C294	C	1.187229	0.615391	-0.277112
H295	H	0.567010	0.168021	-0.727616
H296	H	1.067010	0.668021	-0.227616
H297	H	0.622714	0.223751	-0.676478
H298	H	1.122714	0.723751	-0.176478
H299	H	0.719389	0.210666	-0.689250
H300	H	1.219389	0.710666	-0.189250
H301	H	0.760362	0.141848	-0.753161
H302	H	1.260362	0.641848	-0.253161
H303	H	0.704658	0.086118	-0.804298
H304	H	1.204658	0.586118	-0.304298
C305	C	0.481635	-0.064967	-0.000056
C306	C	0.981635	0.435033	0.499944
C307	C	0.445179	-0.066871	-0.044110
C308	C	0.945179	0.433129	0.455890
C309	C	0.396973	-0.032436	-0.044095
C310	C	0.896973	0.467564	0.455905
C311	C	0.385224	0.003903	-0.000026
C312	C	0.885224	0.503903	0.499974
C313	C	0.421681	0.005808	0.044031
C314	C	0.921681	0.505808	0.544031
C315	C	0.469886	-0.028627	0.044016
C316	C	0.969886	0.471373	0.544016
H317	H	0.453875	-0.093772	-0.076736
H318	H	0.953875	0.406228	0.423264
H319	H	0.369986	-0.033846	-0.076710
H320	H	0.869986	0.466154	0.423290
H321	H	0.349539	0.029394	-0.000015
H322	H	0.849539	0.529394	0.499985
H323	H	0.412984	0.032710	0.076656
H324	H	0.912984	0.532710	0.576656
H325	H	0.496874	-0.027216	0.076630
H326	H	0.996874	0.472784	0.576630
C327	C	0.199128	0.063070	0.143345
C328	C	0.699128	0.563070	0.643345
C329	C	0.198008	0.021007	0.181499
C330	C	0.698008	0.521007	0.681499
C331	C	0.225740	0.021290	0.232387
C332	C	0.725740	0.521290	0.732387
C333	C	0.254591	0.063635	0.245120
C334	C	0.754591	0.563635	0.745120
C335	C	0.255712	0.105701	0.206965
C336	C	0.755712	0.605701	0.706965
C337	C	0.227981	0.105419	0.156078
C338	C	0.727981	0.605419	0.656078
H339	H	0.176650	-0.010343	0.172074
H340	H	0.676650	0.489657	0.672074
H341	H	0.224910	-0.009851	0.260631
H342	H	0.724910	0.490149	0.760631
H343	H	0.275120	0.063845	0.282790
H344	H	0.775120	0.563845	0.782790
H345	H	0.277071	0.137051	0.216391
H346	H	0.777071	0.637051	0.716391
H347	H	0.228811	0.136559	0.127833
H348	H	0.728811	0.636559	0.627833
C349	C	0.480370	-0.028496	-0.476052
C350	C	0.980370	0.471504	0.023948
C351	C	0.440819	-0.004990	-0.512786
C352	C	0.940819	0.495010	-0.012786
C353	C	0.408831	-0.037033	-0.542174
C354	C	0.908831	0.462967	-0.042174
C355	C	0.416394	-0.092582	-0.534828
C356	C	0.916394	0.407418	-0.034828
C357	C	0.455947	-0.116091	-0.498093
C358	C	0.955947	0.383909	0.001907
C359	C	0.487935	-0.084049	-0.468704
C360	C	0.987935	0.415951	0.031296
H361	H	0.435219	0.036134	-0.518225
H362	H	0.935219	0.536134	-0.018225
H363	H	0.379552	-0.019629	-0.569368
H364	H	0.879552	0.480371	-0.069368
H365	H	0.392715	-0.116302	-0.556583
H366	H	0.892715	0.383698	-0.056583
H367	H	0.461547	-0.157215	-0.492653
H368	H	0.961547	0.342785	0.007347
H369	H	0.517214	-0.101452	-0.441510
H370	H	1.017214	0.398548	0.058490
C371	C	0.706970	-0.479798	-0.000060
C372	C	1.206970	0.020202	0.499940
C373	C	0.743255	-0.491770	-0.044127
C374	C	1.243255	0.008230	0.455873
C375	C	0.792032	-0.470757	-0.044131
C376	C	1.292032	0.029243	0.455869
C377	C	0.804525	-0.437770	-0.000069
C378	C	1.304525	0.062230	0.499931
C379	C	0.768240	-0.425796	0.044001
C380	C	1.268240	0.074204	0.544001
C381	C	0.719462	-0.446809	0.044006
C382	C	1.219462	0.053191	0.544006
H383	H	0.734007	-0.516190	-0.076747
H384	H	1.234007	-0.016190	0.423253
H385	H	0.818893	-0.479621	-0.076755
H386	H	1.318893	0.020379	0.423245
H387	H	0.840633	-0.422215	-0.000072
H388	H	1.340633	0.077785	0.499928
H389	H	0.777487	-0.401376	0.076622
H390	H	1.277487	0.098624	0.576622
H391	H	0.692601	-0.437945	0.076630
H392	H	1.192601	0.062055	0.576630
H393	H	0.652448	0.143695	-0.628591
H394	H	1.152448	0.643695	-0.128591
H395	H	0.488681	-0.020159	-0.628655
H396	H	0.988681	0.479841	-0.128655
C397	C	0.705889	-0.585663	-0.000053
C398	C	1.205889	-0.085663	0.499947
C399	C	0.717645	-0.622009	-0.044115
C400	C	1.217645	-0.122009	0.455885
C401	C	0.765848	-0.656447	-0.044115
C402	C	1.265848	-0.156447	0.455885
C403	C	0.802296	-0.654539	-0.000055
C404	C	1.302296	-0.154539	0.499945
C405	C	0.790541	-0.618192	0.044010
C406	C	1.290541	-0.118192	0.544010
C407	C	0.742338	-0.583754	0.044011
C408	C	1.242338	-0.083754	0.544011
H409	H	0.690663	-0.623423	-0.076734
H410	H	1.190663	-0.123423	0.423266
H411	H	0.774549	-0.683354	-0.076735
H412	H	1.274549	-0.183354	0.423265
H413	H	0.837979	-0.680032	-0.000055
H414	H	1.337979	-0.180032	0.499945
H415	H	0.817523	-0.616778	0.076630
H416	H	1.317523	-0.116778	0.576630
H417	H	0.733637	-0.556847	0.076631
H418	H	1.233637	-0.056847	0.576631
H419	H	0.623364	0.114591	-0.874318
H420	H	1.123364	0.614591	-0.374318
H421	H	0.623302	0.114599	-0.125760
H422	H	1.123302	0.614599	0.374240
C423	C	0.665708	-0.196420	-0.000078
C424	C	1.165708	0.303580	0.499922
C425	C	0.677503	-0.232746	0.043986
C426	C	1.177503	0.267254	0.543986
C427	C	0.725716	-0.267168	0.043976
C428	C	1.225716	0.232832	0.543976
C429	C	0.762136	-0.265264	-0.000097
C430	C	1.262136	0.234736	0.499903
C431	C	0.750342	-0.228937	-0.044165
C432	C	1.250342	0.271063	0.455835
C433	C	0.702129	-0.194515	-0.044155
C434	C	1.202129	0.305485	0.455845
H435	H	0.650542	-0.234156	0.076615
H436	H	1.150542	0.265844	0.576615
H437	H	0.734446	-0.294060	0.076598
H438	H	1.234446	0.205940	0.576598
H439	H	0.797826	-0.290745	-0.000104
H440	H	1.297826	0.209255	0.499896
H441	H	0.777303	-0.227526	-0.076793
H442	H	1.277303	0.272474	0.423207
H443	H	0.693399	-0.167623	-0.076777
H444	H	1.193399	0.332377	0.423223
C445	C	0.432589	-0.547876	-0.000014
C446	C	0.932589	-0.047876	0.499986
C447	C	0.396277	-0.535921	-0.044070
C448	C	0.896277	-0.035921	0.455930
C449	C	0.347501	-0.556937	-0.044054
C450	C	0.847501	-0.056937	0.455946
C451	C	0.335036	-0.589907	0.000019
C452	C	0.835036	-0.089907	0.500019
C453	C	0.371349	-0.601863	0.044078
C454	C	0.871349	-0.101863	0.544078
C455	C	0.420125	-0.580847	0.044062
C456	C	0.920125	-0.080847	0.544062
H457	H	0.405504	-0.511513	-0.076697
H458	H	0.905504	-0.011513	0.423303
H459	H	0.320620	-0.548086	-0.076669
H460	H	0.820620	-0.048086	0.423331
H461	H	0.298929	-0.605464	0.000030
H462	H	0.798929	-0.105464	0.500030
H463	H	0.362122	-0.626271	0.076706
H464	H	0.862122	-0.126271	0.576706
H465	H	0.447006	-0.589698	0.076678
H466	H	0.947006	-0.089698	0.576678
H467	H	0.423782	0.065398	-0.083970
H468	H	0.923782	0.565398	0.416030
H469	H	0.517782	0.008961	-0.874355
H470	H	1.017782	0.508961	-0.374355
C471	C	0.659453	-0.811483	-0.000045
C472	C	1.159453	-0.311483	0.499955
C473	C	0.695885	-0.809593	-0.044109
C474	C	1.195885	-0.309593	0.455891
C475	C	0.744090	-0.844030	-0.044106
C476	C	1.244090	-0.344030	0.455894
C477	C	0.755862	-0.880356	-0.000039
C478	C	1.255862	-0.380356	0.499961
C479	C	0.719429	-0.882248	0.044029
C480	C	1.219429	-0.382248	0.544029
C481	C	0.671224	-0.847811	0.044025
C482	C	1.171224	-0.347811	0.544025
H483	H	0.687172	-0.782701	-0.076734
H484	H	1.187172	-0.282701	0.423266
H485	H	0.771060	-0.842630	-0.076728
H486	H	1.271060	-0.342630	0.423272
H487	H	0.791545	-0.905848	-0.000036
H488	H	1.291545	-0.405848	0.499964
H489	H	0.728142	-0.909140	0.076653
H490	H	1.228142	-0.409140	0.576653
H491	H	0.644254	-0.849211	0.076647
H492	H	1.144254	-0.349211	0.576647
C493	C	0.660745	0.152020	-0.363818
C494	C	1.160745	0.652020	0.136182
C495	C	0.700296	0.128493	-0.327095
C496	C	1.200296	0.628493	0.172905
C497	C	0.732310	0.160516	-0.297715
C498	C	1.232310	0.660516	0.202285
C499	C	0.724774	0.216066	-0.305059
C500	C	1.224774	0.716066	0.194941
C501	C	0.685221	0.239595	-0.341783
C502	C	1.185221	0.739595	0.158217
C503	C	0.653207	0.207572	-0.371163
C504	C	1.153207	0.707572	0.128837
H505	H	0.705876	0.087369	-0.321658
H506	H	1.205876	0.587369	0.178342
H507	H	0.761589	0.143097	-0.270530
H508	H	1.261589	0.643097	0.229470
H509	H	0.748473	0.239771	-0.283310
H510	H	1.248473	0.739771	0.216690
H511	H	0.679641	0.280719	-0.347220
H512	H	1.179641	0.780719	0.152780
H513	H	0.623928	0.224991	-0.398349
H514	H	1.123928	0.724991	0.101651
C515	C	-0.057978	0.060444	0.143333
C516	C	0.442022	0.560444	0.643333
C517	C	-0.098444	0.102076	0.156070
C518	C	0.401556	0.602076	0.656070
C519	C	-0.126157	0.101783	0.206957
C520	C	0.373843	0.601783	0.706957
C521	C	-0.113405	0.059860	0.245107
C522	C	0.386595	0.559860	0.745107
C523	C	-0.072937	0.018225	0.232370
C524	C	0.427063	0.518225	0.732370
C525	C	-0.045224	0.018517	0.181483
C526	C	0.454776	0.518517	0.681483
H527	H	-0.107886	0.133113	0.127829
H528	H	0.392114	0.633113	0.627829
H529	H	-0.156114	0.132604	0.216385
H530	H	0.343886	0.632604	0.716385
H531	H	-0.133920	0.059643	0.282776
H532	H	0.366080	0.559643	0.782776
H533	H	-0.063495	-0.012812	0.260612
H534	H	0.436505	0.487188	0.760612
H535	H	-0.015267	-0.012303	0.172055
H536	H	0.484733	0.487697	0.672055
H537	H	0.040672	0.061457	0.130118
H538	H	0.540672	0.561457	0.630118
C539	C	0.660759	0.152017	-0.524051
C540	C	1.160759	0.652017	-0.024051
C541	C	0.716310	0.144497	-0.531388
C542	C	1.216310	0.644497	-0.031388
C543	C	0.748319	0.176524	-0.502007
C544	C	1.248319	0.676524	-0.002007
C545	C	0.724778	0.216070	-0.465288
C546	C	1.224778	0.716070	0.034712
C547	C	0.669225	0.223591	-0.457949
C548	C	1.169225	0.723591	0.042051
C549	C	0.637215	0.191565	-0.487331
C550	C	1.137215	0.691565	0.012669
H551	H	0.733739	0.115221	-0.558571
H552	H	1.233739	0.615221	-0.058571
H553	H	0.789444	0.170956	-0.507440
H554	H	1.289444	0.670956	-0.007440
H555	H	0.748473	0.239778	-0.443538
H556	H	1.248473	0.739778	0.056462
H557	H	0.651795	0.252867	-0.430766
H558	H	1.151795	0.752867	0.069234
H559	H	0.596091	0.197133	-0.481898
H560	H	1.096091	0.697133	0.018102
H561	H	0.647863	-0.711076	-0.000056
H562	H	1.147863	-0.211076	0.499944
H563	H	0.652438	0.143701	-0.468341
H564	H	1.152438	0.643701	0.031659
H565	H	0.486977	-0.780420	-0.000034
H566	H	0.986977	-0.280420	0.499966
C567	C	0.509462	0.000637	-0.769836
C568	C	1.009462	0.500637	-0.269836
C569	C	0.516998	-0.054913	-0.777197
C570	C	1.016998	0.445087	-0.277197
C571	C	0.484981	-0.086936	-0.747845
C572	C	0.984981	0.413064	-0.247845
C573	C	0.445427	-0.063409	-0.711133
C574	C	0.945427	0.436591	-0.211133
C575	C	0.437889	-0.007857	-0.703770
C576	C	0.937889	0.492143	-0.203770
C577	C	0.469906	0.024166	-0.733122
C578	C	0.969906	0.524166	-0.233122
H579	H	0.546280	-0.072331	-0.804375
H580	H	1.046280	0.427669	-0.304375
H581	H	0.490561	-0.128060	-0.753296
H582	H	0.990561	0.371940	-0.253296
H583	H	0.421726	-0.087114	-0.689405
H584	H	0.921726	0.412886	-0.189405
H585	H	0.408607	0.009562	-0.676592
H586	H	0.908607	0.509562	-0.176592
H587	H	0.464326	0.065290	-0.727671
H588	H	0.964326	0.565290	-0.227671
H589	H	-0.282697	0.058166	0.083855
H590	H	0.217303	0.558166	0.583855
C591	C	0.093270	0.061986	0.143347
C592	C	0.593270	0.561986	0.643347
C593	C	0.106025	0.020062	0.181496
C594	C	0.606025	0.520062	0.681496
C595	C	0.078319	0.019773	0.232388
C596	C	0.578319	0.519773	0.732388
C597	C	0.037859	0.061407	0.245131
C598	C	0.537859	0.561407	0.745131
C599	C	0.025102	0.103334	0.206982
C600	C	0.525102	0.603334	0.706982
C601	C	0.052808	0.103624	0.156090
C602	C	0.552808	0.603624	0.656090
H603	H	0.135978	-0.010761	0.172063
H604	H	0.635978	0.489239	0.672063
H605	H	0.087763	-0.011265	0.260629
H606	H	0.587763	0.488735	0.760629
H607	H	0.017350	0.061193	0.282805
H608	H	0.517350	0.561193	0.782805
H609	H	-0.004851	0.134158	0.216414
H610	H	0.495149	0.634158	0.716414
H611	H	0.043364	0.134661	0.127849
H612	H	0.543364	0.634661	0.627849
C613	C	0.434118	-0.396626	-0.000013
C614	C	0.934118	0.103374	0.499987
C615	C	0.397807	-0.384663	-0.044068
C616	C	0.897807	0.115337	0.455932
C617	C	0.349026	-0.405671	-0.044052
C618	C	0.849026	0.094329	0.455948
C619	C	0.336556	-0.438641	0.000018
C620	C	0.836556	0.061359	0.500018
C621	C	0.372869	-0.450606	0.044076
C622	C	0.872869	0.049394	0.544076
C623	C	0.421650	-0.429598	0.044060
C624	C	0.921650	0.070402	0.544060
H625	H	0.407036	-0.360255	-0.076694
H626	H	0.907036	0.139745	0.423306
H627	H	0.322145	-0.396814	-0.076667
H628	H	0.822145	0.103186	0.423333
H629	H	0.300446	-0.454192	0.000029
H630	H	0.800446	0.045808	0.500029
H631	H	0.363639	-0.475014	0.076702
H632	H	0.863639	0.024986	0.576702
H633	H	0.448531	-0.438455	0.076675
H634	H	0.948531	0.061545	0.576675
C635	C	0.431016	0.065464	0.097099
C636	C	0.931016	0.565464	0.597099
C637	C	0.429902	0.023399	0.135251
C638	C	0.929902	0.523399	0.635251
C639	C	0.457647	0.023677	0.186131
C640	C	0.957647	0.523677	0.686131
C641	C	0.486504	0.066019	0.198859
C642	C	0.986504	0.566019	0.698859
C643	C	0.487619	0.108088	0.160706
C644	C	0.987619	0.608088	0.660706
C645	C	0.459874	0.107810	0.109825
C646	C	0.959874	0.607810	0.609825
H647	H	0.408539	-0.007948	0.125830
H648	H	0.908539	0.492052	0.625830
H649	H	0.456822	-0.007465	0.214375
H650	H	0.956822	0.492535	0.714375
H651	H	0.507042	0.066225	0.236524
H652	H	1.007042	0.566225	0.736524
H653	H	0.508982	0.139435	0.170126
H654	H	1.008982	0.639435	0.670126
H655	H	0.460699	0.138952	0.081582
H656	H	0.960699	0.638952	0.581582
H657	H	0.332344	0.064460	0.083880
H658	H	0.832344	0.564460	0.583880
C659	C	0.666779	-0.090559	-0.000088
C660	C	1.166779	0.409441	0.499912
C661	C	0.679247	-0.057587	-0.044158
C662	C	1.179247	0.442413	0.455842
C663	C	0.728021	-0.036568	-0.044166
C664	C	1.228021	0.463432	0.455834
C665	C	0.764328	-0.048519	-0.000104
C666	C	1.264328	0.451481	0.499896
C667	C	0.751860	-0.081493	0.043969
C668	C	1.251860	0.418507	0.543969
C669	C	0.703086	-0.102513	0.043976
C670	C	1.203086	0.397487	0.543976
H671	H	0.652370	-0.048738	-0.076778
H672	H	1.152370	0.451262	0.423222
H673	H	0.737250	-0.012159	-0.076791
H674	H	1.237250	0.487841	0.423209
H675	H	0.800433	-0.032959	-0.000110
H676	H	1.300433	0.467041	0.499890
H677	H	0.778737	-0.090342	0.076588
H678	H	1.278737	0.409658	0.576588
H679	H	0.693857	-0.126922	0.076602
H680	H	1.193857	0.373078	0.576602
H681	H	0.332333	0.064456	-0.083978
H682	H	0.832333	0.564456	0.416022
C683	C	0.480354	-0.028486	-0.363887
C684	C	0.980354	0.471514	0.136113
C685	C	0.487899	-0.084036	-0.371241
C686	C	0.987899	0.415964	0.128759
C687	C	0.455890	-0.116062	-0.341882
C688	C	0.955890	0.383938	0.158118
C689	C	0.416336	-0.092538	-0.305168
C690	C	0.916336	0.407462	0.194832
C691	C	0.408789	-0.036984	-0.297813
C692	C	0.908789	0.463016	0.202187
C693	C	0.440798	-0.004958	-0.327172
C694	C	0.940798	0.495042	0.172828
H695	H	0.517181	-0.101453	-0.398420
H696	H	1.017181	0.398547	0.101580
H697	H	0.461477	-0.157186	-0.347327
H698	H	0.961477	0.342814	0.152673
H699	H	0.392641	-0.116245	-0.283435
H700	H	0.892641	0.383755	0.216565
H701	H	0.379507	-0.019567	-0.270634
H702	H	0.879507	0.480433	0.229366
H703	H	0.435211	0.036166	-0.321726
H704	H	0.935211	0.536166	0.178274
H705	H	0.487905	-0.688970	-0.000026
H706	H	0.987905	-0.188970	0.499974
H707	H	0.191872	0.063014	-0.130240
H708	H	0.691872	0.563014	0.369760
H709	H	0.040638	0.061463	-0.130246
H710	H	0.540638	0.561463	0.369754
C711	C	0.435201	-0.290770	-0.000019
C712	C	0.935201	0.209230	0.499981
C713	C	0.423441	-0.254428	0.044045
C714	C	0.923441	0.245572	0.544045
C715	C	0.375230	-0.220000	0.044052
C716	C	0.875230	0.280000	0.544052
C717	C	0.338780	-0.221915	-0.000006
C718	C	0.838780	0.278085	0.499994
C719	C	0.350540	-0.258258	-0.044074
C720	C	0.850540	0.241742	0.455926
C721	C	0.398750	-0.292685	-0.044080
C722	C	0.898750	0.207315	0.455920
H723	H	0.450424	-0.253009	0.076662
H724	H	0.950424	0.246991	0.576662
H725	H	0.366526	-0.193097	0.076674
H726	H	0.866526	0.306903	0.576674
H727	H	0.303092	-0.196430	-0.000001
H728	H	0.803092	0.303570	0.499999
H729	H	0.323556	-0.259676	-0.076691
H730	H	0.823556	0.240324	0.423309
H731	H	0.407455	-0.319589	-0.076702
H732	H	0.907455	0.180411	0.423298
C733	C	0.093221	0.062005	-0.143462
C734	C	0.593221	0.562005	0.356538
C735	C	0.094350	0.104069	-0.181611
C736	C	0.594350	0.604069	0.318389
C737	C	0.066627	0.103792	-0.232504
C738	C	0.566627	0.603792	0.267496
C739	C	0.037774	0.061450	-0.245248
C740	C	0.537774	0.561450	0.254752
C741	C	0.036643	0.019382	-0.207097
C742	C	0.536643	0.519382	0.292903
C743	C	0.064366	0.019659	-0.156204
C744	C	0.564366	0.519659	0.343796
H745	H	0.115710	0.135416	-0.172179
H746	H	0.615710	0.635416	0.327821
H747	H	0.067464	0.134934	-0.260746
H748	H	0.567464	0.634934	0.239254
H749	H	0.017252	0.061245	-0.282922
H750	H	0.517252	0.561245	0.217078
H751	H	0.015283	-0.011965	-0.216530
H752	H	0.515283	0.488035	0.283470
H753	H	0.063529	-0.011482	-0.127963
H754	H	0.563529	0.488518	0.372037
H755	H	-0.050822	0.060525	-0.130243
H756	H	0.449178	0.560525	0.369757
H757	H	-0.282730	0.058161	-0.083996
H758	H	0.217270	0.558161	0.416004
H759	H	-0.191246	0.059091	0.083860
H760	H	0.308754	0.559091	0.583860
H761	H	0.695837	-0.334024	-0.000074
H762	H	1.195837	0.165976	0.499926
H763	H	0.694908	-0.425472	-0.000065
H764	H	1.194908	0.074528	0.499935
H765	H	0.517729	0.008962	-0.222713
H766	H	1.017729	0.508962	0.277287
H767	H	0.493226	-0.165375	-0.000068
H768	H	0.993226	0.334625	0.499932
H769	H	0.623321	0.114594	-0.222653
H770	H	1.123321	0.614594	0.277347
H771	H	0.446189	-0.450966	-0.000023
H772	H	0.946189	0.049034	0.499977
H773	H	0.517726	0.008963	-0.125804
H774	H	1.017726	0.508963	0.374196
H775	H	0.488676	-0.020159	-0.531766
H776	H	0.988676	0.479841	-0.031766
