data_functionalizedCrystal
_audit_creation_method	'MofGen! by Chris Wilmer'
_symmetry_space_group_name_H-M	'P1'
_symmetry_Int_Tables_number	1
_symmetry_cell_setting	triclinic
loop_
_symmetry_equiv_pos_as_xyz
  x,y,z
_cell_length_a	18.215407
_cell_length_b	12.594516
_cell_length_c	18.215399
_cell_angle_alpha	90.022106
_cell_angle_beta	90.019833
_cell_angle_gamma	90.016501
loop_
_atom_site_label
_atom_site_type_symbol
_atom_site_fract_x
_atom_site_fract_y
_atom_site_fract_z
Zn1	Zn	1.125117	-0.423740	0.416146
Zn2	Zn	1.125045	-0.601738	0.293092
Zn3	Zn	1.002050	-0.423775	0.293093
Zn4	Zn	1.002035	-0.601679	0.416117
O5	O	1.063561	-0.512733	0.354612
O6	O	1.228092	-0.447362	0.399834
O7	O	1.108705	-0.578170	0.190108
O8	O	1.018412	-0.274825	0.309429
O9	O	1.228038	-0.578136	0.309427
O10	O	1.108829	-0.274799	0.399835
O11	O	1.018341	-0.447422	0.190109
O12	O	0.899063	-0.447364	0.309401
O13	O	1.018386	-0.578035	0.519105
O14	O	0.899052	-0.578069	0.399786
O15	O	1.108814	-0.447305	0.519126
O16	O	1.108690	-0.750676	0.309399
O17	O	1.018315	-0.750632	0.399785
C18	C	0.872355	-0.512715	0.354591
C19	C	0.790556	-0.512733	0.354599
C20	C	1.063513	-0.789274	0.354605
C21	C	1.063560	-0.907579	0.354626
C22	C	0.602376	-0.580898	0.401604
C23	C	0.525517	-0.580901	0.401613
C24	C	0.525499	-0.444588	0.307636
C25	C	0.602356	-0.444580	0.307631
C26	C	0.640793	-0.512741	0.354614
C27	C	0.487077	-0.512752	0.354628
C28	C	0.403743	-0.512755	0.354638
C29	C	0.724132	-0.512737	0.354606
C30	C	1.014400	-0.976847	0.403753
C31	C	0.996471	-1.047706	0.336600
C32	C	1.081556	-1.047520	0.421791
C33	C	1.045595	-0.976880	0.287438
C34	C	1.130712	-0.976687	0.372674
C35	C	1.112808	-1.047514	0.305475
C36	C	1.255514	-0.512752	0.354634
C37	C	1.337313	-0.512760	0.354643
C38	C	1.063606	-0.512660	0.546565
C39	C	1.063625	-0.512628	0.628364
C40	C	1.063630	-0.235112	0.354635
C41	C	1.063659	-0.116807	0.354645
C42	C	1.063559	-0.512729	0.163406
C43	C	1.063683	-0.512461	0.081607
C44	C	1.110728	-0.444493	0.816570
C45	C	1.110737	-0.444462	0.893429
C46	C	1.016575	-0.580599	0.893396
C47	C	1.016563	-0.580624	0.816538
C48	C	1.063644	-0.512572	0.778127
C49	C	1.063664	-0.512517	0.931844
C50	C	1.063674	-0.512483	1.015177
C51	C	1.063634	-0.512604	0.694788
H52	H	0.494241	-0.636400	0.439878
C53	C	1.102071	-1.089438	0.498512
C54	C	1.176525	-1.059795	0.532959
C55	C	1.197032	-1.101709	0.609682
C56	C	1.143085	-1.173266	0.651956
C57	C	1.068625	-1.202912	0.617509
C58	C	1.048118	-1.160999	0.540787
H59	H	1.216465	-1.006821	0.501665
H60	H	1.252152	-1.079762	0.635182
H61	H	1.158265	-1.204293	0.708751
H62	H	1.028685	-1.255886	0.648804
H63	H	0.992998	-1.182946	0.515287
C64	C	1.162533	-0.369578	0.935717
C65	C	1.130672	-0.285988	0.988554
C66	C	1.182470	-0.211099	1.030842
C67	C	1.266128	-0.219799	1.020293
C68	C	1.297993	-0.303392	0.967453
C69	C	1.246196	-0.378281	0.925166
H70	H	1.068740	-0.279545	0.996365
H71	H	1.158881	-0.149218	1.069957
H72	H	1.304472	-0.164362	1.051597
H73	H	1.359926	-0.309836	0.959642
H74	H	1.269785	-0.440162	0.886050
H75	H	1.030348	-0.945979	0.230630
C76	C	0.919814	-1.089856	0.315981
C77	C	0.852977	-1.062006	0.364009
C78	C	0.776319	-1.104151	0.343396
C79	C	0.766498	-1.174147	0.274754
C80	C	0.833338	-1.202001	0.226721
C81	C	0.909996	-1.159855	0.247335
H82	H	0.860244	-1.010187	0.414825
H83	H	0.726840	-1.083532	0.378953
H84	H	0.709752	-1.205346	0.259495
H85	H	0.826070	-1.253819	0.175905
H86	H	0.959475	-1.180475	0.211777
C87	C	0.644619	-0.369605	0.255935
C88	C	0.634073	-0.248617	0.262074
C89	C	0.676336	-0.173644	0.210382
C90	C	0.729144	-0.219660	0.152551
C91	C	0.739692	-0.340655	0.146410
C92	C	0.697430	-0.415627	0.198102
H93	H	0.594979	-0.214548	0.304886
H94	H	0.668527	-0.084076	0.214928
H95	H	0.760429	-0.164161	0.114285
H96	H	0.778786	-0.374724	0.103598
H97	H	0.705239	-0.505196	0.193556
C98	C	0.958143	-0.934916	0.459794
C99	C	0.965529	-0.964356	0.541508
C100	C	0.909270	-0.922423	0.597545
C101	C	0.845625	-0.851050	0.571868
C102	C	0.838236	-0.821606	0.490150
C103	C	0.894494	-0.863539	0.434113
H104	H	1.012646	-1.017194	0.560520
H105	H	0.914741	-0.944219	0.658038
H106	H	0.803979	-0.820008	0.613349
H107	H	0.791119	-0.768768	0.471138
H108	H	0.889024	-0.841743	0.373620
C109	C	1.162510	-0.369630	0.774317
C110	C	1.214298	-0.294740	0.816607
C111	C	1.266079	-0.219871	0.774357
C112	C	1.266072	-0.219894	0.689817
C113	C	1.214281	-0.294788	0.647522
C114	C	1.162500	-0.369656	0.689773
H115	H	1.214306	-0.294720	0.879193
H116	H	1.304418	-0.164430	0.805667
H117	H	1.304403	-0.164472	0.658541
H118	H	1.214274	-0.294807	0.584937
H119	H	1.124161	-0.425097	0.658463
C120	C	1.207349	-0.934506	0.393317
C121	C	1.269854	-1.012796	0.410865
C122	C	1.346491	-0.970612	0.431519
C123	C	1.360623	-0.850138	0.434624
C124	C	1.298115	-0.771840	0.417076
C125	C	1.221478	-0.814024	0.396422
H126	H	1.259395	-1.101984	0.408567
H127	H	1.392764	-1.028574	0.444509
H128	H	1.417354	-0.818911	0.449913
H129	H	1.308575	-0.682652	0.419374
H130	H	1.175206	-0.756063	0.383432
C131	C	0.964793	-0.655460	0.935649
C132	C	0.964806	-0.655442	1.020189
C133	C	0.913026	-0.730308	1.062441
C134	C	0.861231	-0.805193	1.020153
C135	C	0.861216	-0.805214	0.935608
C136	C	0.912997	-0.730348	0.893356
H137	H	1.003149	-0.600006	1.051498
H138	H	0.913037	-0.730292	1.125027
H139	H	0.822900	-0.860614	1.051430
H140	H	0.822873	-0.860651	0.904300
H141	H	0.912985	-0.730364	0.830770
H142	H	1.154423	-1.078347	0.263891
C143	C	0.964764	-0.655516	0.774249
C144	C	0.881106	-0.646820	0.784805
C145	C	0.829306	-0.721705	0.742517
C146	C	0.861164	-0.805287	0.689672
C147	C	0.944826	-0.813987	0.679113
C148	C	0.996626	-0.739101	0.721401
H149	H	0.857519	-0.584945	0.823926
H150	H	0.767374	-0.715265	0.750333
H151	H	0.822819	-0.860721	0.658367
H152	H	0.968413	-0.875862	0.639992
H153	H	1.058558	-0.745542	0.713585
H154	H	0.633668	-0.636396	0.439862
H155	H	0.494195	-0.389095	0.269384
