data_functionalizedCrystal
_audit_creation_method	'MofGen! by Chris Wilmer'
_symmetry_space_group_name_H-M	'P1'
_symmetry_Int_Tables_number	1
_symmetry_cell_setting	triclinic
loop_
_symmetry_equiv_pos_as_xyz
  x,y,z
_cell_length_a	11.792241
_cell_length_b	15.944493
_cell_length_c	10.868271
_cell_angle_alpha	90.000739
_cell_angle_beta	89.999893
_cell_angle_gamma	83.834229
loop_
_atom_site_label
_atom_site_type_symbol
_atom_site_fract_x
_atom_site_fract_y
_atom_site_fract_z
O1	O	1.505927	0.115131	-0.102186
O2	O	2.005927	0.615131	0.397814
O3	O	1.175485	0.126997	-0.102212
O4	O	1.675485	0.626997	0.397788
O5	O	1.349764	-0.001173	-0.102208
O6	O	1.849764	0.498827	0.397792
O7	O	1.331648	0.243301	-0.102189
O8	O	1.831648	0.743301	0.397811
O9	O	1.349750	-0.001178	0.102436
O10	O	1.849750	0.498822	0.602436
O11	O	1.175471	0.126992	0.102432
O12	O	1.675471	0.626992	0.602432
O13	O	1.505913	0.115126	0.102459
O14	O	2.005913	0.615126	0.602459
Zn15	Zn	1.340690	0.121058	0.134937
Zn16	Zn	1.840690	0.621058	0.634937
Zn17	Zn	1.340709	0.121065	-0.134691
Zn18	Zn	1.840709	0.621065	0.365309
O19	O	1.331634	0.243296	0.102455
O20	O	1.831634	0.743296	0.602455
C21	C	1.133194	0.126249	0.000106
C22	C	1.633194	0.626249	0.500106
C23	C	1.007199	0.124018	0.000095
C24	C	1.507199	0.624018	0.500095
C25	C	0.776522	0.119916	0.000130
C26	C	1.276522	0.619916	0.500130
C27	C	0.904887	0.122195	0.000111
C28	C	1.404887	0.622195	0.500111
C29	C	1.349017	-0.032474	0.000109
C30	C	1.849017	0.467526	0.500109
C31	C	1.346797	-0.125733	0.000093
C32	C	1.846797	0.374267	0.500093
C33	C	1.449381	-0.361030	0.000124
C34	C	1.949381	0.138970	0.500124
C35	C	1.394068	-0.411845	-0.100780
C36	C	1.894068	0.088155	0.399220
C37	C	1.342684	-0.296472	0.000107
C38	C	1.842684	0.203528	0.500107
C39	C	1.394030	-0.411826	0.100984
C40	C	1.894030	0.088174	0.600984
C41	C	1.338719	-0.461400	0.000127
C42	C	1.838719	0.038600	0.500127
C43	C	1.287399	-0.346059	-0.100880
C44	C	1.787399	0.153941	0.399120
C45	C	1.287376	-0.346037	0.100974
C46	C	1.787376	0.153963	0.600974
C47	C	1.231985	-0.396820	0.000045
C48	C	1.731985	0.103180	0.500045
C49	C	1.344971	-0.201462	0.000095
C50	C	1.844971	0.298538	0.500095
C51	C	1.336423	-0.556407	0.000131
C52	C	1.836423	-0.056407	0.500131
C53	C	1.548205	0.115874	0.000138
C54	C	2.048205	0.615874	0.500138
C55	C	1.674200	0.118105	0.000141
C56	C	2.174200	0.618105	0.500141
C57	C	1.332382	0.274597	0.000135
C58	C	1.832382	0.774597	0.500135
C59	C	1.334602	0.367855	0.000143
C60	C	1.834602	0.867855	0.500143
N61	N	1.340685	0.121053	0.318952
N62	N	1.840685	0.621053	0.818952
N63	N	1.340722	0.121063	-0.318705
N64	N	1.840722	0.621063	0.181295
C65	C	1.340703	0.121063	0.569958
C66	C	1.840703	0.621063	1.069958
C67	C	1.340689	0.121060	0.430280
C68	C	1.840689	0.621060	0.930280
H69	H	1.439134	-0.440585	-0.186081
H70	H	1.939134	0.059415	0.313919
C71	C	1.229355	-0.219857	-0.215181
C72	C	1.729355	0.280143	0.284819
C73	C	1.226640	-0.307435	-0.216185
C74	C	1.726640	0.192565	0.283815
H75	H	1.191858	-0.196015	-0.286372
H76	H	1.691858	0.303985	0.213628
H77	H	1.191709	-0.196760	-0.143637
H78	H	1.691709	0.303240	0.356363
H79	H	1.306345	-0.207404	-0.214872
H80	H	1.806345	0.292596	0.285128
H81	H	1.149650	-0.319889	-0.216484
H82	H	1.649650	0.180111	0.283516
H83	H	1.264283	-0.330541	-0.287747
H84	H	1.764283	0.169459	0.212253
C85	C	1.574240	-0.251592	0.001113
C86	C	2.074240	0.248408	0.501113
C87	C	1.573438	-0.339343	0.000024
C88	C	2.073438	0.160657	0.500024
H89	H	1.650823	-0.238199	0.001059
H90	H	2.150823	0.261801	0.501059
H91	H	1.535990	-0.228104	-0.069846
H92	H	2.035990	0.271896	0.430154
H93	H	1.536465	-0.228964	0.072877
H94	H	2.036465	0.271036	0.572877
H95	H	1.611205	-0.361970	-0.071746
H96	H	2.111205	0.138030	0.428254
H97	H	1.611703	-0.362841	0.070989
H98	H	2.111703	0.137159	0.570989
H99	H	1.140007	-0.412701	-0.000018
H100	H	1.640007	0.087299	0.499982
H101	H	1.242349	-0.317281	0.186278
H102	H	1.742349	0.182719	0.686278
H103	H	1.439106	-0.440556	0.186285
H104	H	1.939106	0.059444	0.686285
