data_functionalizedCrystal
_audit_creation_method	'MofGen! by Chris Wilmer'
_symmetry_space_group_name_H-M	'P1'
_symmetry_Int_Tables_number	1
_symmetry_cell_setting	triclinic
loop_
_symmetry_equiv_pos_as_xyz
  x,y,z
_cell_length_a	12.759401
_cell_length_b	19.805405
_cell_length_c	12.759393
_cell_angle_alpha	89.962372
_cell_angle_beta	89.981504
_cell_angle_gamma	90.026572
loop_
_atom_site_label
_atom_site_type_symbol
_atom_site_fract_x
_atom_site_fract_y
_atom_site_fract_z
Zn1	Zn	1.606170	-0.269420	-0.593937
Zn2	Zn	1.606028	-0.382625	-0.418239
Zn3	Zn	1.430472	-0.269456	-0.418276
Zn4	Zn	1.430425	-0.382573	-0.593880
O5	O	1.518274	-0.326019	-0.506083
O6	O	1.753172	-0.284444	-0.570638
O7	O	1.582701	-0.367650	-0.271222
O8	O	1.453858	-0.174735	-0.441618
O9	O	1.753068	-0.367615	-0.441553
O10	O	1.582942	-0.174708	-0.570675
O11	O	1.453720	-0.284505	-0.271250
O12	O	1.283445	-0.284454	-0.441563
O13	O	1.453777	-0.367527	-0.740909
O14	O	1.283410	-0.367561	-0.570578
O15	O	1.582896	-0.284394	-0.740951
O16	O	1.582655	-0.477335	-0.441498
O17	O	1.453640	-0.477297	-0.570541
C18	C	1.245306	-0.326006	-0.506069
C19	C	1.128530	-0.326017	-0.506088
C20	C	1.518155	-0.501875	-0.506032
C21	C	1.518201	-0.577107	-0.506046
C22	C	1.073677	-0.369360	-0.573155
C23	C	0.963953	-0.369369	-0.573166
C24	C	0.963944	-0.282689	-0.439034
C25	C	1.073666	-0.282678	-0.439029
C26	C	1.073681	-0.419406	-0.650592
C27	C	0.963957	-0.419414	-0.650603
C28	C	1.585444	-0.612448	-0.438923
C29	C	1.585489	-0.683137	-0.438946
C30	C	1.518284	-0.718482	-0.506088
C31	C	1.451038	-0.683136	-0.573217
C32	C	1.450999	-0.612449	-0.573199
C33	C	1.451193	-0.968209	-0.573295
C34	C	1.451234	-1.038901	-0.573306
C35	C	1.585683	-1.038897	-0.439043
C36	C	1.585644	-0.968210	-0.439024
C37	C	1.518402	-0.932870	-0.506157
C38	C	1.518356	-0.856221	-0.506133
C39	C	1.518324	-0.795129	-0.506108
C40	C	1.792307	-0.326032	-0.506098
C41	C	1.909084	-0.326037	-0.506104
C42	C	1.518347	-0.325950	-0.780117
C43	C	1.518379	-0.325921	-0.896893
C44	C	1.518421	-0.149476	-0.506157
C45	C	1.518484	-0.074244	-0.506189
C46	C	1.585620	-0.282630	-0.951779
C47	C	1.585645	-0.282605	-1.061503
C48	C	1.451184	-0.369170	-1.061446
C49	C	1.451154	-0.369190	-0.951724
C50	C	1.663254	-0.232655	-0.951812
C51	C	1.663279	-0.232630	-1.061537
C52	C	1.518261	-0.326038	-0.233116
C53	C	1.518433	-0.325876	-0.116340
H54	H	1.118323	-0.247379	-0.384423
H55	H	1.740520	-0.251446	-0.917773
H56	H	0.919260	-0.247404	-0.384438
C57	C	1.773195	-0.251604	-1.101767
N58	N	1.855980	-0.265896	-1.132069
C59	C	1.119617	-0.486641	-0.611022
N60	N	1.154216	-0.537283	-0.581216
H61	H	1.640365	-0.939434	-0.384348
H62	H	1.641502	-0.180237	-0.922065
H63	H	1.640245	-0.711909	-0.384288
H64	H	1.640438	-1.067680	-0.384384
C65	C	1.624019	-0.165335	-1.107550
N66	N	1.594460	-0.114646	-1.142209
H67	H	1.103494	-0.405426	-0.732001
C68	C	0.923677	-0.490213	-0.620954
N69	N	0.893339	-0.543535	-0.598620
C70	C	0.918030	-0.394128	-0.755098
N71	N	0.883437	-0.375077	-0.833800
C72	C	1.377305	-1.077780	-0.647176
N73	N	1.321625	-1.107063	-0.702812
H74	H	1.640166	-0.583675	-0.384245
H75	H	1.396396	-0.404440	-0.907040
H76	H	1.396440	-0.939440	-0.627955
H77	H	1.396450	-0.404396	-1.106103
C78	C	1.377108	-0.722018	-0.647070
N79	N	1.321418	-0.751304	-0.702693
H80	H	1.396244	-0.583674	-0.627858
