data_functionalizedCrystal
_audit_creation_method	'MofGen! by Chris Wilmer'
_symmetry_space_group_name_H-M	'P1'
_symmetry_Int_Tables_number	1
_symmetry_cell_setting	triclinic
loop_
_symmetry_equiv_pos_as_xyz
  x,y,z
_cell_length_a	15.995350
_cell_length_b	15.072220
_cell_length_c	17.699083
_cell_angle_alpha	89.997965
_cell_angle_beta	96.612305
_cell_angle_gamma	90.008851
loop_
_atom_site_label
_atom_site_type_symbol
_atom_site_fract_x
_atom_site_fract_y
_atom_site_fract_z
O1	O	1.110797	0.073709	-0.097553
O2	O	0.866998	0.073728	-0.109600
O3	O	0.995785	0.073710	0.006601
O4	O	0.982010	0.073727	-0.213754
O5	O	0.995754	-0.073855	0.006595
O6	O	0.866966	-0.073837	-0.109607
O7	O	1.110766	-0.073856	-0.097559
Zn8	Zn	0.988861	-0.097276	-0.103584
Zn9	Zn	0.988903	0.097148	-0.103575
O10	O	0.981978	-0.073838	-0.213761
C11	C	0.835788	-0.000053	-0.109105
C12	C	0.742841	-0.000046	-0.107612
N13	N	0.988838	-0.229965	-0.103589
C14	C	0.405104	-0.000065	-0.102250
C15	C	0.452706	-0.000400	-0.019493
C16	C	0.549394	-0.000061	-0.020987
C17	C	0.572659	-0.000056	-0.104910
C18	C	0.531507	0.084211	-0.145724
C19	C	0.434876	0.084275	-0.143645
C20	C	0.434497	-0.083534	-0.145362
C21	C	0.531442	-0.084642	-0.145343
C22	C	0.667354	-0.000048	-0.106417
C23	C	0.310409	-0.000067	-0.100745
C24	C	0.988901	-0.589166	-0.103573
C25	C	0.919758	-0.551550	-0.165541
C26	C	0.919916	-0.448724	-0.165767
C27	C	0.988869	-0.410962	-0.103581
C28	C	1.076199	-0.448259	-0.120829
C29	C	1.075811	-0.551116	-0.121270
C30	C	0.971493	-0.551271	-0.024172
C31	C	0.969487	-0.448407	-0.024701
C32	C	0.988857	-0.310249	-0.103584
C33	C	0.988919	-0.689880	-0.103571
C34	C	1.141975	-0.000074	-0.098054
C35	C	1.234923	-0.000075	-0.099547
C36	C	0.995276	-0.000073	0.034796
C37	C	0.993795	-0.000073	0.118816
N38	N	0.988932	0.229836	-0.103564
C39	C	0.982487	-0.000054	-0.241955
C40	C	0.983968	-0.000048	-0.325976
C41	C	1.069391	-0.000080	0.167312
C42	C	1.067994	-0.000072	0.246257
C43	C	0.991001	-0.000063	0.276706
C44	C	0.915400	-0.000054	0.228205
C45	C	0.916797	-0.000055	0.149261
C46	C	0.909763	-0.000046	0.546577
C47	C	0.908372	-0.000047	0.625527
C48	C	1.060960	-0.000063	0.643574
C49	C	1.062358	-0.000064	0.564630
C50	C	0.986757	-0.000050	0.516135
C51	C	0.988272	-0.000057	0.430533
C52	C	0.989485	-0.000063	0.362306
H53	H	0.577875	-0.060467	0.011096
N54	N	0.893334	-0.583821	-0.003367
N55	N	0.868854	-0.560727	0.058255
H56	H	0.813650	-0.583715	0.072941
N57	N	1.138180	-0.000078	0.693122
N58	N	1.136928	-0.000077	0.763607
H59	H	1.191462	-0.000091	0.798600
H60	H	0.852711	-0.000041	0.253002
H61	H	0.546682	-0.089727	-0.206542
N62	N	0.839576	-0.000069	0.099723
N63	N	0.823316	-0.062271	0.053659
H64	H	0.768776	-0.062279	0.018674
H65	H	0.845671	-0.000042	0.650315
H66	H	1.129552	-0.000080	0.285740
N67	N	0.933823	-0.417800	-0.239677
N68	N	0.879911	-0.370277	-0.277021
H69	H	0.889730	-0.348429	-0.329221
N70	N	0.412008	0.163295	-0.106301
N71	N	0.467388	0.218011	-0.081952
H72	H	0.451243	0.273822	-0.055576
H73	H	0.930704	-0.577385	-0.224131
N74	N	0.394242	0.089084	-0.219855
N75	N	0.345605	0.028482	-0.245376
H76	H	0.316908	0.031885	-0.299197
H77	H	0.402611	-0.084100	-0.206378
N78	N	1.034751	-0.581793	0.033673
N79	N	1.092435	-0.631237	0.016601
H80	H	1.137113	-0.652799	0.057449
H81	H	1.125053	-0.000076	0.539843
N82	N	0.549071	0.088139	-0.223071
N83	N	0.592218	0.028735	-0.249037
H84	H	0.604624	0.031506	-0.303663
N85	N	0.832534	-0.000038	0.497059
N86	N	0.763798	-0.000037	0.524258
H87	H	0.709250	-0.000034	0.489284
H88	H	0.559953	0.146920	-0.117371
N89	N	0.888896	-0.417828	-0.008288
N90	N	0.845850	-0.368638	-0.054472
H91	H	0.788932	-0.347035	-0.042883
N92	N	1.095932	-0.415953	-0.192654
N93	N	1.106950	-0.469295	-0.244668
H94	H	1.120881	-0.446482	-0.295398
N95	N	0.408813	-0.163673	-0.111429
N96	N	0.426664	-0.237137	-0.138147
H97	H	0.408526	-0.293733	-0.114174
N98	N	0.429586	-0.076255	0.021972
N99	N	0.377750	-0.130953	-0.008980
H100	H	0.361436	-0.184544	0.020297
H101	H	0.433193	0.059693	0.013437
N102	N	0.838358	-0.417101	-0.153245
N103	N	0.780926	-0.470997	-0.144267
H104	H	0.723278	-0.448669	-0.135564
N105	N	0.838056	-0.582610	-0.152855
N106	N	0.829829	-0.632837	-0.097998
H107	H	0.772125	-0.654778	-0.089036
N108	N	0.584434	0.075846	0.019540
N109	N	0.537471	0.128742	0.049011
H110	H	0.562217	0.182357	0.077634
N111	N	1.028579	-0.416197	0.035870
N112	N	1.022606	-0.439368	0.102848
H113	H	1.064349	-0.416626	0.145626
H114	H	1.091176	-0.575095	-0.179176
N115	N	0.565747	-0.162840	-0.107939
N116	N	0.558138	-0.175410	-0.039258
H117	H	0.582371	-0.230633	-0.012834
N118	N	1.142282	-0.582323	-0.066799
N119	N	1.188815	-0.528135	-0.028584
H120	H	1.235763	-0.550170	0.009883
N121	N	1.142272	-0.417571	-0.065710
N122	N	1.125695	-0.367750	-0.012975
H123	H	1.172358	-0.346076	0.025955
H124	H	1.132087	-0.000092	0.142527
