data_functionalizedCrystal
_audit_creation_method	'MofGen! by Chris Wilmer'
_symmetry_space_group_name_H-M	'P1'
_symmetry_Int_Tables_number	1
_symmetry_cell_setting	triclinic
loop_
_symmetry_equiv_pos_as_xyz
  x,y,z
_cell_length_a	16.625546
_cell_length_b	12.759401
_cell_length_c	12.759393
_cell_angle_alpha	90.022497
_cell_angle_beta	89.964881
_cell_angle_gamma	89.976710
loop_
_atom_site_label
_atom_site_type_symbol
_atom_site_fract_x
_atom_site_fract_y
_atom_site_fract_z
Zn1	Zn	-0.320945	-1.606210	-0.594030
Zn2	Zn	-0.455799	-1.606077	-0.418336
Zn3	Zn	-0.320986	-1.430508	-0.418360
Zn4	Zn	-0.455741	-1.430476	-0.593968
O5	O	-0.388368	-1.518318	-0.506174
O6	O	-0.338841	-1.753213	-0.570739
O7	O	-0.437957	-1.582745	-0.271318
O8	O	-0.208148	-1.453884	-0.441699
O9	O	-0.437917	-1.753116	-0.441658
O10	O	-0.208118	-1.582971	-0.570763
O11	O	-0.338911	-1.453756	-0.271336
O12	O	-0.338855	-1.283483	-0.441640
O13	O	-0.437819	-1.453830	-0.740998
O14	O	-0.437859	-1.283460	-0.570658
O15	O	-0.338784	-1.582940	-0.741043
O16	O	-0.568624	-1.582714	-0.441598
O17	O	-0.568581	-1.453701	-0.570634
C18	C	-0.388355	-1.245350	-0.506145
C19	C	-0.388370	-1.128574	-0.506158
C20	C	-0.439999	-1.073727	-0.573231
C21	C	-0.440001	-0.964003	-0.573249
C22	C	-0.336742	-0.963982	-0.439112
C23	C	-0.336737	-1.073704	-0.439101
C24	C	-0.597859	-1.518218	-0.506130
C25	C	-0.687480	-1.518272	-0.506146
C26	C	-1.015655	-1.518455	-0.506255
C27	C	-0.924347	-1.518401	-0.506228
C28	C	-0.851571	-1.518363	-0.506200
C29	C	-0.760256	-1.518310	-0.506174
C30	C	-0.178059	-1.518446	-0.506241
C31	C	-0.088438	-1.518501	-0.506269
C32	C	-0.388290	-1.518396	-0.780207
C33	C	-0.388257	-1.518430	-0.896984
C34	C	-0.388379	-0.792351	-0.506196
C35	C	-0.388377	-0.909128	-0.506188
C36	C	-0.336682	-1.585663	-0.951871
C37	C	-0.336647	-1.585681	-1.061595
C38	C	-0.439770	-1.451230	-1.061535
C39	C	-0.439800	-1.451208	-0.951813
C40	C	-0.388387	-1.518300	-0.233206
C41	C	-0.388193	-1.518470	-0.116430
H42	H	-0.294710	-1.640397	-0.907232
N43	N	-0.281018	-1.658204	-1.120782
H44	H	-0.313773	-1.706880	-1.166308
H45	H	-0.243641	-1.615471	-1.166245
H46	H	-0.481736	-1.396502	-1.106191
H47	H	-0.294706	-0.919294	-0.384515
N48	N	-0.495414	-1.378668	-0.892604
H49	H	-0.528062	-1.336086	-0.943985
H50	H	-0.532747	-1.421383	-0.847063
H51	H	-0.482040	-1.118399	-0.627836
H52	H	-0.294689	-1.118362	-0.384482
N53	N	-0.495690	-0.904846	-0.645586
H54	H	-0.528397	-0.956258	-0.688060
H55	H	-0.532963	-0.859284	-0.602730
