data_functionalizedCrystal
_audit_creation_method	'MofGen! by Chris Wilmer'
_symmetry_space_group_name_H-M	'P1'
_symmetry_Int_Tables_number	1
_symmetry_cell_setting	triclinic
loop_
_symmetry_equiv_pos_as_xyz
  x,y,z
_cell_length_a	10.654550
_cell_length_b	14.044220
_cell_length_c	9.730223
_cell_angle_alpha	89.997406
_cell_angle_beta	89.996251
_cell_angle_gamma	88.836890
loop_
_atom_site_label
_atom_site_type_symbol
_atom_site_fract_x
_atom_site_fract_y
_atom_site_fract_z
O1	O	1.681222	0.133227	-0.114408
O2	O	1.317019	0.145921	-0.114387
O3	O	1.493654	0.001554	-0.114384
O4	O	1.504587	0.277595	-0.114411
O5	O	1.493652	0.001557	0.114196
O6	O	1.317017	0.145925	0.114193
O7	O	1.681220	0.133231	0.114172
Zn8	Zn	1.499118	0.139578	0.150474
Zn9	Zn	1.499121	0.139574	-0.150689
O10	O	1.504585	0.277598	0.114169
C11	C	1.270127	0.144991	-0.000094
C12	C	1.130403	0.142202	-0.000085
C13	C	1.059459	0.227203	-0.000114
C14	C	0.928175	0.224578	-0.000137
C15	C	0.938790	0.051942	-0.000109
C16	C	1.070072	0.054569	-0.000076
C17	C	1.119790	0.314837	-0.000123
C18	C	1.048846	0.399845	-0.000153
C19	C	0.917561	0.397219	-0.000177
C20	C	0.857221	0.309585	-0.000170
C21	C	1.488867	-0.033790	-0.000093
C22	C	1.474592	-0.139110	-0.000090
C23	C	1.448493	-0.331943	-0.000108
C24	C	1.549741	-0.388911	-0.000119
C25	C	1.535219	-0.496210	-0.000129
C26	C	1.463013	-0.224634	-0.000098
C27	C	1.728113	0.134161	-0.000124
C28	C	1.867836	0.136950	-0.000142
C29	C	1.509372	0.312942	-0.000125
C30	C	1.523648	0.418262	-0.000137
N31	N	1.499126	0.139581	0.356011
N32	N	1.499123	0.139563	-0.356226
C33	C	1.577364	0.075677	0.427938
C34	C	1.577359	0.075666	0.571821
C35	C	1.420876	0.203470	0.571837
C36	C	1.420875	0.203477	0.427956
C37	C	1.655615	0.011782	0.355993
C38	C	1.733861	-0.052127	0.427920
C39	C	1.733856	-0.052138	0.571803
C40	C	1.655606	0.011759	0.643759
H41	H	1.226688	0.316985	-0.000110
C42	C	0.873048	-0.043103	-0.000187
C43	C	0.742892	-0.027209	-0.000262
C44	C	0.682293	-0.114743	-0.000357
H45	H	0.896571	-0.078213	0.079511
H46	H	0.896695	-0.078148	-0.079921
H47	H	0.719255	0.007820	0.079465
H48	H	0.719333	0.007886	-0.079953
H49	H	0.705940	-0.149788	-0.080092
H50	H	0.705825	-0.149847	0.079341
H51	H	0.593976	-0.103972	-0.000421
C52	C	1.318484	-0.374536	-0.000024
C53	C	1.329749	-0.474037	0.000005
C54	C	1.210014	-0.513318	0.000109
H55	H	1.274001	-0.354139	-0.079703
H56	H	1.274108	-0.354095	0.079729
H57	H	1.374105	-0.494470	-0.079739
H58	H	1.374210	-0.494461	0.079679
H59	H	1.165638	-0.492877	0.079861
H60	H	1.165540	-0.492914	-0.079572
H61	H	1.217641	-0.580833	0.000141
H62	H	1.655629	0.011787	0.238836
C63	C	1.679942	-0.346629	0.000109
C64	C	1.745044	-0.377022	0.117692
C65	C	1.864988	-0.338096	0.117945
H66	H	1.672715	-0.279104	0.000190
H67	H	1.724383	-0.367149	-0.079560
H68	H	1.700614	-0.356496	0.197340
H69	H	1.752305	-0.444541	0.117635
H70	H	1.909429	-0.358616	0.038276
H71	H	1.857748	-0.270573	0.118022
H72	H	1.909178	-0.358719	0.197716
H73	H	0.859801	0.466437	-0.000187
C74	C	1.335771	0.272706	0.349783
C75	C	1.253164	0.221634	0.267216
C76	C	1.174730	0.285373	0.195199
H77	H	1.385250	0.312538	0.293537
H78	H	1.289100	0.310749	0.413194
H79	H	1.299830	0.183608	0.203812
H80	H	1.203656	0.181805	0.323428
H81	H	1.128060	0.323416	0.258610
H82	H	1.224220	0.325202	0.138961
H83	H	1.118665	0.250730	0.139178
H84	H	0.750320	0.307454	-0.000168
C85	C	1.146886	-0.037821	-0.000128
C86	C	1.065955	-0.115129	-0.000179
C87	C	1.136671	-0.200254	-0.000243
H88	H	1.198314	-0.040519	0.079573
H89	H	1.198316	-0.040433	-0.079859
H90	H	1.014547	-0.112518	0.079544
H91	H	1.014527	-0.112463	-0.079874
H92	H	1.188101	-0.202867	-0.079974
H93	H	1.188096	-0.202942	0.079459
H94	H	1.081771	-0.252718	-0.000291
H95	H	1.797562	-0.104155	0.369327
C96	C	1.818935	-0.121565	0.649650
C97	C	1.887481	-0.177501	0.555842
C98	C	1.965887	-0.241458	0.627500
H99	H	1.769447	-0.161467	0.705783
H100	H	1.875134	-0.087099	0.705748
H101	H	1.831290	-0.211965	0.499768
H102	H	1.936993	-0.137626	0.499706
H103	H	2.022085	-0.206991	0.683598
H104	H	1.916389	-0.281353	0.683630
H105	H	2.012413	-0.279412	0.563863
H106	H	1.655600	0.011737	0.760918
C107	C	1.335855	0.272693	0.650134
C108	C	1.253293	0.221618	0.732771
C109	C	1.174967	0.285357	0.804930
H110	H	1.289136	0.310782	0.586849
H111	H	1.385453	0.312481	0.706337
H112	H	1.203700	0.181847	0.676573
H113	H	1.299976	0.183533	0.796082
H114	H	1.224565	0.325145	0.861133
H115	H	1.128257	0.323442	0.741635
H116	H	1.118947	0.250712	0.861017
H117	H	1.097984	0.471193	-0.000147
