data_functionalizedCrystal
_audit_creation_method	'MofGen! by Chris Wilmer'
_symmetry_space_group_name_H-M	'P1'
_symmetry_Int_Tables_number	1
_symmetry_cell_setting	triclinic
loop_
_symmetry_equiv_pos_as_xyz
  x,y,z
_cell_length_a	19.902436
_cell_length_b	23.196402
_cell_length_c	23.196402
_cell_angle_alpha	90.002971
_cell_angle_beta	120.007430
_cell_angle_gamma	60.000661
loop_
_atom_site_label
_atom_site_type_symbol
_atom_site_fract_x
_atom_site_fract_y
_atom_site_fract_z
Zr1	Zr	0.735473	0.555386	0.075729
O2	O	0.875662	0.463336	0.167792
O3	O	0.595291	0.583602	0.047499
O4	O	0.735478	0.583604	0.167783
O5	O	0.735469	0.463335	-0.047365
O6	O	0.735475	0.678476	0.167785
O7	O	0.735474	0.463334	0.047508
O8	O	0.484706	0.678473	-0.047382
O9	O	0.986238	0.463338	0.167801
O10	O	0.652945	0.666440	0.035470
O11	O	0.652943	0.595639	-0.035334
O12	O	0.817996	0.595641	0.106285
O13	O	0.817994	0.524840	0.035481
Zr14	Zr	0.735460	0.706697	-0.075580
Zr15	Zr	0.735469	0.706696	0.075732
Zr16	Zr	0.735464	0.555387	-0.075583
Zr17	Zr	0.911830	0.555389	0.075743
Zr18	Zr	0.559103	0.706694	-0.075594
O19	O	0.875642	0.678480	-0.047349
O20	O	0.875655	0.678478	0.167796
O21	O	0.875649	0.463337	-0.047354
O22	O	0.595271	0.798747	-0.167642
O23	O	0.595284	0.798745	0.047503
O24	O	0.595278	0.583604	-0.167647
O25	O	0.735464	0.798748	0.047515
O26	O	0.735455	0.678479	-0.167633
O27	O	0.735458	0.583607	-0.167635
O28	O	0.735459	0.798749	-0.047358
O29	O	0.986234	0.583609	0.167804
O30	O	0.484698	0.678474	-0.167654
O31	O	0.484695	0.798745	-0.167652
O32	O	0.484702	0.798744	-0.047379
O33	O	0.986231	0.463339	0.047528
O34	O	0.986227	0.583610	0.047531
O35	O	0.652937	0.666442	-0.106136
O36	O	0.652939	0.737243	-0.035331
O37	O	0.817989	0.666443	0.035484
O38	O	0.817987	0.595642	-0.035321
C39	C	0.514871	0.631037	0.000056
C40	C	0.440003	0.631036	0.000050
C41	C	0.167993	0.631043	0.000083
C42	C	0.196230	0.586596	-0.044798
C43	C	0.274349	0.586355	-0.044613
C44	C	0.302940	0.631040	0.000066
C45	C	0.338509	0.598466	0.077007
C46	C	0.260671	0.598132	0.076770
C47	C	0.133474	0.708086	-0.031360
C48	C	0.210526	0.707973	-0.032926
C49	C	0.379208	0.631038	0.000061
C50	C	0.091729	0.631042	0.000094
C51	C	0.735472	0.441776	0.000071
C52	C	0.735474	0.377541	0.000069
C53	C	0.735484	0.347368	0.052339
C54	C	0.735476	0.287017	0.052339
C55	C	0.735476	0.256833	0.000074
C56	C	0.735461	0.287015	-0.052205
C57	C	0.735460	0.347369	-0.052207
C58	C	0.790847	0.137459	-0.016207
C59	C	0.790854	0.077104	-0.016200
C60	C	0.735475	0.070683	0.000078
C61	C	0.680101	0.124619	0.016364
C62	C	0.680100	0.184973	0.016361
C63	C	0.735477	0.191389	0.000071
C64	C	0.735474	-0.024929	0.052351
C65	C	0.735460	-0.085279	0.052346
C66	C	0.735455	-0.085284	-0.052195
C67	C	0.735459	-0.024931	-0.052193
C68	C	0.735474	0.005241	0.000084
C69	C	0.956062	0.631045	0.000093
C70	C	1.030930	0.631047	0.000099
C71	C	0.735478	0.631040	0.189342
C72	C	0.735482	0.631039	0.253578
C73	C	0.735461	0.820307	0.000079
C74	C	0.735459	0.884542	0.000080
C75	C	0.821616	0.594101	0.753371
C76	C	0.821621	0.594095	0.693018
C77	C	0.735467	0.631052	0.625871
C78	C	0.649302	0.668003	0.619079
C79	C	0.649300	0.668002	0.679431
C80	C	0.669462	0.692957	0.501933
C81	C	0.669468	0.692959	0.441583
C82	C	0.735471	0.631052	0.439721
C83	C	0.801483	0.569142	0.498224
C84	C	0.801481	0.569142	0.558577
C85	C	0.735460	0.631056	0.560424
C86	C	0.821635	0.594092	0.381077
C87	C	0.821636	0.594083	0.320721
C88	C	0.649315	0.667998	0.246782
C89	C	0.649316	0.668000	0.307138
C90	C	0.735479	0.631048	0.374283
C91	C	0.735458	0.631045	0.810808
C92	C	0.735463	0.631051	0.746576
C93	C	0.514865	0.820303	0.000060
C94	C	0.439995	0.884536	0.000056
C95	C	0.514860	0.631039	-0.189211
C96	C	0.439988	0.631038	-0.253453
C97	C	0.514854	0.820304	-0.189207
C98	C	0.439980	0.884538	-0.253448
C99	C	0.956079	0.441778	0.189357
C100	C	1.030953	0.377544	0.253597
C101	C	0.956067	0.441780	0.000089
C102	C	1.030937	0.377546	0.000094
C103	C	0.956073	0.631044	0.189361
C104	C	1.030945	0.631045	0.253603
C105	C	0.404839	0.877743	0.037017
C106	C	0.334500	0.938091	0.037027
C107	C	0.299315	1.005233	0.000070
C108	C	0.334478	1.012025	-0.036893
C109	C	0.404820	0.951677	-0.036898
C110	C	0.404824	0.667996	-0.320586
C111	C	0.334484	0.667992	-0.380954
C112	C	0.299304	0.631035	-0.374188
C113	C	0.334475	0.594073	-0.307048
C114	C	0.404818	0.594072	-0.246682
C115	C	0.404820	0.951667	-0.246657
C116	C	0.334478	1.012028	-0.307012
C117	C	0.299293	1.005258	-0.374157
C118	C	0.334460	0.938122	-0.380947
C119	C	0.404806	0.877763	-0.320593
C120	C	1.066122	0.310415	0.246806
C121	C	1.136485	0.250055	0.307161
C122	C	1.171674	0.256825	0.374307
C123	C	1.136502	0.323961	0.381096
C124	C	1.066145	0.384320	0.320742
C125	C	1.066101	0.384340	-0.036861
C126	C	1.136459	0.323991	-0.036854
C127	C	1.171647	0.256850	0.000104
C128	C	1.136481	0.250058	0.037064
C129	C	1.066129	0.310406	0.037061
C130	C	1.066103	0.668009	0.246814
C131	C	1.136443	0.668024	0.307170
C132	C	1.171630	0.631069	0.374315
C133	C	1.136466	0.594103	0.381102
C134	C	1.066121	0.594093	0.320747
H135	H	0.131720	0.608330	-0.101597
O136	O	0.227202	0.519223	-0.018914
C137	C	0.223409	0.512085	0.039561
H138	H	0.225576	0.554594	0.063442
H139	H	0.286834	0.457740	0.080858
H140	H	0.154753	0.518150	0.021670
H141	H	0.433436	0.957218	-0.067000
O142	O	0.052293	0.740658	-0.097922
C143	C	0.023333	0.809512	-0.124537
H144	H	0.054682	0.827770	-0.078707
H145	H	-0.057528	0.846901	-0.157929
H146	H	0.049424	0.809543	-0.158496
H147	H	1.165142	0.195384	0.067155
H148	H	0.735482	-0.000361	0.094916
O149	O	0.300416	1.077195	-0.072812
C150	C	0.346499	1.070261	-0.105462
H151	H	0.417818	1.016415	-0.076473
H152	H	0.358587	1.113565	-0.103486
H153	H	0.300356	1.075198	-0.162827
H154	H	1.037511	0.438977	0.326280
O155	O	0.300277	0.558230	-0.300387
C156	C	0.259556	0.585426	-0.263182
H157	H	0.291345	0.612483	-0.229858
H158	H	0.274961	0.540454	-0.227313
H159	H	0.179435	0.625331	-0.302287
H160	H	1.165125	0.564016	0.435779
O161	O	0.905374	0.558252	0.818554
C162	C	0.957772	0.585443	0.826303
H163	H	0.933268	0.612513	0.771971
H164	H	1.036592	0.540466	0.858053
H165	H	0.945829	0.625337	0.855151
H166	H	0.579141	0.698092	0.673894
O167	O	0.565539	0.703909	0.181615
C168	C	0.489494	0.736541	0.188563
H169	H	0.514753	0.707555	0.242423
H170	H	0.429239	0.734549	0.145270
H171	H	0.462997	0.793906	0.183615
H172	H	1.165080	0.329535	-0.066954
H173	H	1.165067	0.698125	0.301630
H174	H	1.037475	0.304890	0.192139
O175	O	0.241506	0.634251	0.118788
C176	C	0.170771	0.634275	0.118994
H177	H	0.127749	0.625276	0.069223
H178	H	0.121685	0.687306	0.120432
H179	H	0.205680	0.590262	0.167494
O180	O	0.300412	0.931426	-0.446121
C181	C	0.346507	0.859234	-0.439185
H182	H	0.417817	0.827031	-0.385324
H183	H	0.358615	0.850836	-0.482477
H184	H	0.300363	0.841457	-0.444143
O185	O	0.438947	0.558280	-0.181433
C186	C	0.421722	0.605733	-0.144322
H187	H	0.412979	0.654373	-0.167359
H188	H	0.484194	0.578923	-0.086228
H189	H	0.354066	0.622275	-0.149370
H190	H	0.433460	0.698091	-0.326109
O191	O	0.439083	0.812502	-0.327069
C192	C	0.508699	0.760671	-0.259407
H193	H	0.539487	0.784173	-0.219385
H194	H	0.567867	0.714129	-0.260081
H195	H	0.475037	0.741797	-0.244041
H196	H	0.855229	0.518733	0.606207
H197	H	0.835885	0.142704	-0.029522
H198	H	0.635010	0.119393	0.029623
O199	O	1.170759	0.330405	0.446376
C200	C	1.240411	0.262731	0.498182
H201	H	1.228853	0.222734	0.474643
H202	H	1.234711	0.263378	0.544727
H203	H	1.313990	0.247358	0.517068
O204	O	0.363445	0.635166	0.118723
C205	C	0.395038	0.604517	0.187368
H206	H	0.364137	0.573672	0.185014
H207	H	0.370579	0.647838	0.210302
H208	H	0.475942	0.567258	0.222295
H209	H	0.305879	0.932547	0.067126
H210	H	0.405516	0.542316	0.102352
H211	H	0.305856	0.698094	-0.435616
O212	O	1.032060	0.449503	-0.072778
C213	C	1.078180	0.442544	-0.105403
H214	H	1.149487	0.388687	-0.076405
H215	H	1.090298	0.485832	-0.103413
H216	H	1.032049	0.447485	-0.162772
H217	H	0.242026	0.631041	-0.423348
H218	H	0.735462	-0.109843	0.094909
H219	H	0.181777	0.732307	-0.089609
H220	H	0.615721	0.743370	0.393955
O221	O	0.438804	0.958311	-0.181461
C222	C	0.363703	0.995512	-0.173760
H223	H	0.293352	1.028854	-0.228106
H224	H	0.374310	1.031357	-0.141965
H225	H	0.362719	0.956409	-0.144981
O226	O	0.300491	1.077197	-0.300311
C227	C	0.375574	1.084921	-0.263070
H228	H	0.445940	1.030584	-0.229767
H229	H	0.364980	1.116648	-0.227177
H230	H	0.376516	1.113776	-0.302148
H231	H	1.037504	0.563989	0.326284
H232	H	0.242013	1.054412	-0.423296
O233	O	1.170503	0.184898	0.300431
C234	C	1.124359	0.191874	0.228223
H235	H	1.053056	0.245734	0.196046
H236	H	1.112229	0.148592	0.219804
H237	H	1.170477	0.186936	0.210431
H238	H	0.579155	0.698091	0.564403
O239	O	1.031877	0.303764	0.072862
C240	C	0.991226	0.266506	0.045684
H241	H	0.970108	0.271552	-0.010653
H242	H	0.925536	0.289415	0.045773
H243	H	1.045158	0.208427	0.079954
H244	H	0.433486	0.823079	0.067120
H245	H	1.228932	0.207717	0.000101
H246	H	1.228964	0.207671	0.423445
H247	H	0.891780	0.564003	0.698550
H248	H	1.037464	0.698102	0.192147
H249	H	0.242037	1.054366	0.000079
H250	H	1.228909	0.631083	0.423455
H251	H	0.247699	0.608205	-0.101269
H252	H	0.735457	-0.000365	-0.094753
O253	O	0.351328	0.518602	-0.018636
C254	C	0.422619	0.518117	-0.018349
H255	H	0.388867	0.568942	-0.058809
H256	H	0.460810	0.470880	-0.032404
H257	H	0.475829	0.514135	0.036395
O258	O	0.295920	0.530526	0.106899
C259	C	0.294258	0.525486	0.166686
H260	H	0.293770	0.570272	0.187169
H261	H	0.359966	0.472644	0.209659
H262	H	0.227694	0.529466	0.151579
H263	H	0.226133	0.743879	-0.003636
H264	H	0.114618	0.741357	0.001174
H265	H	0.735484	0.262446	0.094904
O266	O	0.735447	0.376609	0.103148
C267	C	0.735478	0.337021	0.149293
H268	H	0.705556	0.306832	0.121133
H269	H	0.689593	0.374143	0.166163
H270	H	0.811306	0.298077	0.197897
O271	O	0.905269	0.558288	0.327230
C272	C	0.910427	0.605738	0.294541
H273	H	0.835619	0.654379	0.253402
H274	H	0.946890	0.578926	0.267745
H275	H	0.952942	0.622277	0.336041
O276	O	0.626221	0.237316	0.032159
C277	C	0.577357	0.218707	0.046547
H278	H	0.570669	0.178549	0.020276
H279	H	0.503473	0.267841	0.024953
H280	H	0.618415	0.194682	0.106043
H281	H	0.835947	0.033190	-0.029457
O282	O	0.735625	-0.114695	-0.102879
C283	C	0.817469	-0.184726	-0.070884
H284	H	0.874684	-0.191080	-0.016675
H285	H	0.844944	-0.197199	-0.105323
H286	H	0.798962	-0.222527	-0.064783
H287	H	0.735451	0.371937	-0.094772
O288	O	0.735423	0.257802	-0.103042
C289	C	0.735441	0.297368	-0.149168
H290	H	0.705514	0.353228	-0.146688
H291	H	0.689554	0.299609	-0.205411
H292	H	0.811265	0.271262	-0.132707
O293	O	0.865715	0.509001	0.496510
C294	C	0.958494	0.486779	0.551073
H295	H	0.956680	0.533811	0.566867
H296	H	1.006095	0.463859	0.531809
H297	H	0.987729	0.444698	0.598663
O298	O	0.905414	0.558132	0.446250
C299	C	0.981460	0.525526	0.439303
H300	H	0.956205	0.518203	0.385445
H301	H	1.041720	0.471843	0.482599
H302	H	1.007946	0.560165	0.444250
O303	O	0.565651	0.703788	0.300578
C304	C	0.560507	0.656344	0.333290
H305	H	0.609399	0.600662	0.336079
H306	H	0.484305	0.672363	0.301279
H307	H	0.583654	0.657642	0.388964
O308	O	0.605279	0.753160	0.503620
C309	C	0.546995	0.807792	0.439036
H310	H	0.585590	0.795320	0.412581
H311	H	0.530277	0.859775	0.449313
H312	H	0.477989	0.812461	0.402991
