data_functionalizedCrystal
_audit_creation_method	'MofGen! by Chris Wilmer'
_symmetry_space_group_name_H-M	'P1'
_symmetry_Int_Tables_number	1
_symmetry_cell_setting	triclinic
loop_
_symmetry_equiv_pos_as_xyz
  x,y,z
_cell_length_a	14.853558
_cell_length_b	14.971486
_cell_length_c	13.448316
_cell_angle_alpha	90.006811
_cell_angle_beta	89.993768
_cell_angle_gamma	96.377369
loop_
_atom_site_label
_atom_site_type_symbol
_atom_site_fract_x
_atom_site_fract_y
_atom_site_fract_z
O1	O	1.196351	-0.116742	-0.082680
O2	O	1.696351	0.383258	0.417320
O3	O	0.933888	-0.130662	-0.082685
O4	O	1.433888	0.369338	0.417315
O5	O	1.072154	0.006497	-0.082675
O6	O	1.572154	0.506497	0.417325
O7	O	1.058085	-0.253901	-0.082690
O8	O	1.558085	0.246099	0.417310
O9	O	1.072137	0.006506	0.082708
O10	O	1.572137	0.506506	0.582708
O11	O	0.933871	-0.130653	0.082699
O12	O	1.433871	0.369347	0.582699
O13	O	1.196334	-0.116734	0.082704
O14	O	1.696334	0.383266	0.582704
Cu15	Cu	1.065101	-0.123693	0.097802
Cu16	Cu	1.565101	0.376307	0.597802
Cu17	Cu	1.065121	-0.123703	-0.097783
Cu18	Cu	1.565121	0.376297	0.402217
O19	O	1.058067	-0.253893	0.082694
O20	O	1.558067	0.246107	0.582694
C21	C	0.900291	-0.130028	0.000006
C22	C	1.400291	0.369972	0.500006
C23	C	0.800207	-0.128143	0.000005
C24	C	1.300207	0.371857	0.500005
C25	C	0.753196	-0.127263	-0.090150
C26	C	1.253196	0.372737	0.409850
C27	C	0.753176	-0.127243	0.090158
C28	C	1.253176	0.372757	0.590158
C29	C	0.659142	-0.125467	0.090160
C30	C	1.159142	0.374533	0.590160
C31	C	0.612132	-0.124587	0.000006
C32	C	1.112132	0.375413	0.500006
C33	C	0.659154	-0.125484	-0.090151
C34	C	1.159154	0.374516	0.409849
C35	C	0.612114	-0.124561	0.180314
C36	C	1.112114	0.375439	0.680314
C37	C	0.518075	-0.122784	0.180320
C38	C	1.018075	0.377216	0.680320
C39	C	0.471062	-0.121910	0.090164
C40	C	0.971062	0.378090	0.590164
C41	C	0.518090	-0.122808	0.000004
C42	C	1.018090	0.377192	0.500004
C43	C	0.471079	-0.121928	-0.090150
C44	C	0.971079	0.378072	0.409850
C45	C	0.518105	-0.122833	-0.180311
C46	C	1.018105	0.377167	0.319689
C47	C	0.612141	-0.124611	-0.180306
C48	C	1.112141	0.375389	0.319694
C49	C	0.377026	-0.120132	0.090160
C50	C	0.877026	0.379868	0.590160
C51	C	0.377038	-0.120149	-0.090151
C52	C	0.877038	0.379851	0.409849
C53	C	1.071516	0.039826	0.000016
C54	C	1.571516	0.539826	0.500016
C55	C	1.069631	0.139123	0.000015
C56	C	1.569631	0.639123	0.500015
C57	C	1.229931	-0.117367	0.000010
C58	C	1.729931	0.382633	0.500010
C59	C	1.330015	-0.119253	0.000005
C60	C	1.830015	0.380747	0.500005
C61	C	1.058705	-0.287222	0.000000
C62	C	1.558705	0.212778	0.500000
C63	C	1.060591	-0.386519	-0.000005
C64	C	1.560591	0.113481	0.499995
N65	N	1.065093	-0.123685	0.235366
N66	N	1.565093	0.376315	0.735366
C67	C	1.150859	0.196337	0.000018
C68	C	1.650859	0.696337	0.500018
C69	C	1.149081	0.289636	0.000007
C70	C	1.649081	0.789636	0.500007
C71	C	1.066076	0.325721	0.000002
C72	C	1.566076	0.825721	0.500002
C73	C	0.984842	0.268500	-0.000003
C74	C	1.484842	0.768500	0.499997
C75	C	0.986620	0.175203	0.000000
C76	C	1.486620	0.675203	0.500000
C77	C	0.981142	0.462963	-0.000006
C78	C	1.481142	0.962963	0.499994
C79	C	0.979363	0.556268	-0.000008
C80	C	1.479363	1.056268	0.499992
C81	C	1.143603	0.577397	0.000001
C82	C	1.643603	1.077397	0.500001
C83	C	1.145381	0.484099	0.000004
C84	C	1.645381	0.984099	0.500004
C85	C	1.064147	0.426885	0.000001
C86	C	1.564147	0.926885	0.500001
N87	N	1.065136	-0.123703	-0.235348
N88	N	1.565136	0.376297	0.264652
C89	C	1.126336	-0.062976	0.287411
C90	C	1.626336	0.437024	0.787411
C91	C	1.126342	-0.062975	0.391514
C92	C	1.626342	0.437025	0.891514
C93	C	1.065108	-0.123689	0.443571
C94	C	1.565108	0.376311	0.943571
C95	C	1.003858	-0.184401	0.391519
C96	C	1.503858	0.315599	0.891519
C97	C	1.003848	-0.184396	0.287418
C98	C	1.503848	0.315604	0.787418
C99	C	1.003883	-0.184407	0.608499
C100	C	1.503883	0.315593	1.108499
C101	C	1.003893	-0.184412	0.712608
C102	C	1.503893	0.315588	1.212608
C103	C	1.126376	-0.062986	0.712596
C104	C	1.626376	0.437014	1.212596
C105	C	1.126367	-0.062981	0.608494
C106	C	1.626367	0.437019	1.108494
C107	C	1.065118	-0.123695	0.556450
C108	C	1.565118	0.376305	1.056450
H109	H	0.791458	-0.127953	0.163558
H110	H	1.291458	0.372047	0.663558
C111	C	0.936485	-0.251180	0.230169
C112	C	1.436485	0.248820	0.730169
H113	H	0.900022	-0.287345	0.276080
H114	H	1.400022	0.212655	0.776080
H115	H	0.898922	-0.218935	0.189573
H116	H	1.398922	0.281065	0.689573
H117	H	0.968954	-0.288474	0.189546
H118	H	1.468954	0.211526	0.689546
C119	C	1.193750	0.003799	0.769835
C120	C	1.693750	0.503799	1.269835
H121	H	1.230226	0.039950	0.723923
H122	H	1.730226	0.539950	1.223923
H123	H	1.161293	0.041096	0.810461
H124	H	1.661293	0.541096	1.310461
H125	H	1.231313	-0.028456	0.810429
H126	H	1.731313	0.471544	1.310429
C127	C	0.466388	-0.121866	-0.279474
C128	C	0.966388	0.378134	0.220526
H129	H	0.403649	-0.120679	-0.266556
H130	H	0.903649	0.379321	0.233444
H131	H	0.488623	-0.070046	-0.316525
H132	H	0.988623	0.429954	0.183475
H133	H	0.474970	-0.174290	-0.316513
H134	H	0.974970	0.325710	0.183487
C135	C	0.936535	-0.251189	0.769873
C136	C	1.436535	0.248811	1.269873
H137	H	0.945322	-0.242501	0.839326
H138	H	1.445322	0.257499	1.339326
H139	H	0.876358	-0.241362	0.752834
H140	H	1.376358	0.258638	1.252834
H141	H	0.946383	-0.310908	0.752800
H142	H	1.446383	0.189092	1.252800
H143	H	0.650438	-0.125345	-0.253710
H144	H	1.150438	0.374655	0.246290
H145	H	0.791488	-0.128003	-0.163556
H146	H	1.291488	0.371997	0.336444
C147	C	1.193699	0.003801	0.230153
C148	C	1.693699	0.503801	0.730153
H149	H	1.184932	-0.004896	0.160699
H150	H	1.684932	0.495104	0.660699
H151	H	1.183857	0.063517	0.247224
H152	H	1.683857	0.563517	0.747224
H153	H	1.253876	-0.006034	0.247203
H154	H	1.753876	0.493966	0.747203
C155	C	1.232959	0.640329	-0.000013
C156	C	1.732959	1.140329	0.499987
H157	H	1.220015	0.701062	-0.000031
H158	H	1.720015	1.201062	0.499969
H159	H	1.266990	0.629394	0.057659
H160	H	1.766990	1.129394	0.557659
H161	H	1.266991	0.629365	-0.057694
H162	H	1.766991	1.129365	0.442306
H163	H	0.914992	0.416381	-0.000012
H164	H	1.414992	0.916381	0.499988
H165	H	0.338740	-0.119404	0.163567
H166	H	0.838740	0.380596	0.663567
C167	C	0.936473	-0.251159	0.448774
C168	C	1.436473	0.248841	0.948774
H169	H	0.899984	-0.287301	0.402866
H170	H	1.399984	0.212699	0.902866
H171	H	0.968915	-0.288465	0.489385
H172	H	1.468915	0.211535	0.989385
H173	H	0.898925	-0.218884	0.489382
H174	H	1.398925	0.281116	0.989382
H175	H	0.479794	-0.122046	0.253734
H176	H	0.979794	0.377954	0.753734
C177	C	0.325329	-0.119184	-0.189320
C178	C	0.825329	0.380816	0.310680
H179	H	0.262588	-0.118000	-0.176412
H180	H	0.762588	0.382000	0.323588
H181	H	0.347568	-0.067365	-0.226368
H182	H	0.847568	0.432635	0.273632
H183	H	0.333918	-0.171608	-0.226355
H184	H	0.833918	0.328392	0.273645
C185	C	0.897270	0.112268	0.000000
C186	C	1.397270	0.612268	0.500000
H187	H	0.847579	0.147119	0.000005
H188	H	1.347579	0.647119	0.500005
H189	H	0.894557	0.075427	-0.057672
H190	H	1.394557	0.575427	0.442328
H191	H	0.894543	0.075440	0.057681
H192	H	1.394543	0.575440	0.557681
H193	H	0.917257	0.297888	-0.000013
H194	H	1.417257	0.797888	0.499987
C195	C	1.193718	0.003796	0.448759
C196	C	1.693718	0.503796	0.948759
H197	H	1.230194	0.039945	0.402847
H198	H	1.730194	0.539945	0.902847
H199	H	1.161264	0.041093	0.489386
H200	H	1.661264	0.541093	0.989386
H201	H	1.231279	-0.028463	0.489351
H202	H	1.731279	0.471537	0.989351
H203	H	1.176232	-0.013549	0.566110
H204	H	1.676232	0.486451	1.066110
H205	H	0.911773	0.585644	0.000004
H206	H	1.411773	1.085644	0.500004
H207	H	1.218451	0.166965	0.000028
H208	H	1.718451	0.666965	0.500028
H209	H	0.650398	-0.125269	0.253713
H210	H	1.150398	0.374731	0.753713
H211	H	1.215225	0.336216	0.000011
H212	H	1.715225	0.836216	0.500011
H213	H	1.212972	0.454723	0.000015
H214	H	1.712972	0.954723	0.500015
H215	H	0.954004	-0.233843	0.566128
H216	H	1.454004	0.266157	1.066128
