data_functionalizedCrystal
_audit_creation_method	'MofGen! by Chris Wilmer'
_symmetry_space_group_name_H-M	'P1'
_symmetry_Int_Tables_number	1
_symmetry_cell_setting	triclinic
loop_
_symmetry_equiv_pos_as_xyz
  x,y,z
_cell_length_a	18.101395
_cell_length_b	13.897449
_cell_length_c	13.897441
_cell_angle_alpha	90.026069
_cell_angle_beta	89.969302
_cell_angle_gamma	89.968968
loop_
_atom_site_label
_atom_site_type_symbol
_atom_site_fract_x
_atom_site_fract_y
_atom_site_fract_z
Zn1	Zn	-0.294807	-1.474613	-0.545518
Zn2	Zn	-0.044807	-1.224613	-0.295518
Zn3	Zn	0.205193	-0.974613	-0.045518
Zn4	Zn	0.455193	-0.724613	0.204482
Zn5	Zn	-0.418663	-1.474469	-0.384219
Zn6	Zn	-0.168663	-1.224469	-0.134219
Zn7	Zn	0.081337	-0.974469	0.115781
Zn8	Zn	0.331337	-0.724469	0.365781
Zn9	Zn	-0.294840	-1.313302	-0.384221
Zn10	Zn	-0.044840	-1.063302	-0.134221
Zn11	Zn	0.205160	-0.813302	0.115779
Zn12	Zn	0.455160	-0.563302	0.365779
Zn13	Zn	-0.418611	-1.313246	-0.545456
Zn14	Zn	-0.168611	-1.063246	-0.295456
Zn15	Zn	0.081389	-0.813246	-0.045456
Zn16	Zn	0.331389	-0.563246	0.204544
O17	O	-0.356730	-1.393907	-0.464854
O18	O	-0.106730	-1.143907	-0.214854
O19	O	0.143270	-0.893907	0.035146
O20	O	0.393270	-0.643907	0.285146
O21	O	-0.311245	-1.609575	-0.524146
O22	O	-0.061245	-1.359575	-0.274146
O23	O	0.188755	-1.109575	-0.024146
O24	O	0.438755	-0.859575	0.225854
O25	O	-0.402273	-1.453053	-0.249237
O26	O	-0.152273	-1.203053	0.000763
O27	O	0.097727	-0.953053	0.250763
O28	O	0.347727	-0.703053	0.500763
O29	O	-0.191203	-1.334784	-0.405644
O30	O	0.058797	-1.084784	-0.155644
O31	O	0.308797	-0.834784	0.094356
O32	O	0.558797	-0.584784	0.344356
O33	O	-0.402241	-1.609470	-0.405640
O34	O	-0.152241	-1.359470	-0.155640
O35	O	0.097759	-1.109470	0.094360
O36	O	0.347759	-0.859470	0.344360
O37	O	-0.191179	-1.453298	-0.524148
O38	O	0.058821	-1.203298	-0.274148
O39	O	0.308821	-0.953298	-0.024148
O40	O	0.558821	-0.703298	0.225852
O41	O	-0.311300	-1.334644	-0.249239
O42	O	-0.061300	-1.084644	0.000761
O43	O	0.188700	-0.834644	0.250761
O44	O	0.438700	-0.584644	0.500761
O45	O	-0.311250	-1.178313	-0.405585
O46	O	-0.061250	-0.928313	-0.155585
O47	O	0.188750	-0.678313	0.094415
O48	O	0.438750	-0.428313	0.344415
O49	O	-0.402153	-1.334688	-0.680446
O50	O	-0.152153	-1.084688	-0.430446
O51	O	0.097847	-0.834688	-0.180446
O52	O	0.347847	-0.584688	0.069554
O53	O	-0.402185	-1.178272	-0.524044
O54	O	-0.152185	-0.928272	-0.274044
O55	O	0.097815	-0.678272	-0.024044
O56	O	0.347815	-0.428272	0.225956
O57	O	-0.311195	-1.453244	-0.680491
O58	O	-0.061195	-1.203244	-0.430491
O59	O	0.188805	-0.953244	-0.180491
O60	O	0.438805	-0.703244	0.069509
O61	O	-0.522289	-1.452999	-0.405581
O62	O	-0.272289	-1.202999	-0.155581
O63	O	-0.022289	-0.952999	0.094419
O64	O	0.227711	-0.702999	0.344419
O65	O	-0.522251	-1.334549	-0.524041
O66	O	-0.272251	-1.084549	-0.274041
O67	O	-0.022251	-0.834549	-0.024041
O68	O	0.227749	-0.584549	0.225959
C69	C	-0.356716	-1.143293	-0.464808
C70	C	-0.106716	-0.893293	-0.214808
C71	C	0.143284	-0.643293	0.035192
C72	C	0.393284	-0.393293	0.285192
C73	C	-0.356728	-1.036079	-0.464812
C74	C	-0.106728	-0.786079	-0.214812
C75	C	0.143272	-0.536079	0.035188
C76	C	0.393272	-0.286079	0.285188
C77	C	-0.356729	-0.949009	-0.464824
C78	C	-0.106729	-0.699009	-0.214824
C79	C	0.143271	-0.449009	0.035176
C80	C	0.393271	-0.199009	0.285176
C81	C	-0.356733	-0.839777	-0.464848
C82	C	-0.106733	-0.589777	-0.214848
C83	C	0.143267	-0.339777	0.035152
C84	C	0.393267	-0.089777	0.285152
C85	C	-0.549141	-1.393778	-0.464825
C86	C	-0.299141	-1.143778	-0.214825
C87	C	-0.049141	-0.893778	0.035175
C88	C	0.200859	-0.643778	0.285175
C89	C	-0.631455	-1.393811	-0.464845
C90	C	-0.381455	-1.143811	-0.214845
C91	C	-0.131455	-0.893811	0.035155
C92	C	0.118545	-0.643811	0.285155
C93	C	-0.930546	-1.394023	-0.464897
C94	C	-0.680546	-1.144023	-0.214897
C95	C	-0.430546	-0.894023	0.035103
C96	C	-0.180546	-0.644023	0.285103
C97	C	-0.899228	-1.319670	-0.539615
C98	C	-0.649228	-1.069670	-0.289615
C99	C	-0.399228	-0.819670	-0.039615
C100	C	-0.149228	-0.569670	0.210385
C101	C	-0.813610	-1.319317	-0.539381
C102	C	-0.563610	-1.069317	-0.289381
C103	C	-0.313610	-0.819317	-0.039381
C104	C	-0.063610	-0.569317	0.210619
C105	C	-0.782163	-1.393918	-0.464872
C106	C	-0.532163	-1.143918	-0.214872
C107	C	-0.282163	-0.893918	0.035128
C108	C	-0.032163	-0.643918	0.285128
C109	C	-0.813319	-1.366392	-0.363211
C110	C	-0.563319	-1.116392	-0.113211
C111	C	-0.313319	-0.866392	0.136789
C112	C	-0.063319	-0.616392	0.386789
C113	C	-0.898965	-1.365913	-0.363658
C114	C	-0.648965	-1.115913	-0.113658
C115	C	-0.398965	-0.865913	0.136342
C116	C	-0.148965	-0.615913	0.386342
C117	C	-0.898889	-1.496064	-0.490947
C118	C	-0.648889	-1.246064	-0.240947
C119	C	-0.398889	-0.996064	0.009053
C120	C	-0.148889	-0.746064	0.259053
C121	C	-0.813237	-1.495464	-0.493176
C122	C	-0.563237	-1.245464	-0.243176
C123	C	-0.313237	-0.995464	0.006824
C124	C	-0.063237	-0.745464	0.256824
C125	C	-0.698304	-1.393860	-0.464852
C126	C	-0.448304	-1.143860	-0.214852
C127	C	-0.198304	-0.893860	0.035148
C128	C	0.051696	-0.643860	0.285148
C129	C	-1.014405	-1.394078	-0.464911
C130	C	-0.764405	-1.144078	-0.214911
C131	C	-0.514405	-0.894078	0.035089
C132	C	-0.264405	-0.644078	0.285089
C133	C	-0.163568	-1.394063	-0.464903
C134	C	0.086432	-1.144063	-0.214903
C135	C	0.336432	-0.894063	0.035097
C136	C	0.586432	-0.644063	0.285097
C137	C	-0.081254	-1.394130	-0.464924
C138	C	0.168746	-1.144130	-0.214924
C139	C	0.418746	-0.894130	0.035076
C140	C	0.668746	-0.644130	0.285076
C141	C	-0.356665	-1.393976	-0.716447
C142	C	-0.106665	-1.143976	-0.466447
C143	C	0.143335	-0.893976	-0.216447
C144	C	0.393335	-0.643976	0.033553
C145	C	-0.356637	-1.394005	-0.823661
C146	C	-0.106637	-1.144005	-0.573661
C147	C	0.143363	-0.894005	-0.323661
C148	C	0.393363	-0.644005	-0.073661
C149	C	-0.356742	-0.645500	-0.464888
C150	C	-0.106742	-0.395500	-0.214888
C151	C	0.143258	-0.145500	0.035112
C152	C	0.393258	0.104500	0.285112
C153	C	-0.356740	-0.752714	-0.464873
C154	C	-0.106740	-0.502714	-0.214873
C155	C	0.143260	-0.252714	0.035127
C156	C	0.393260	-0.002714	0.285127
C157	C	-0.356587	-1.394031	-1.019956
C158	C	-0.106587	-1.144031	-0.769956
C159	C	0.143413	-0.894031	-0.519956
C160	C	0.393413	-0.644031	-0.269956
C161	C	-0.356617	-1.394014	-0.910723
C162	C	-0.106617	-1.144014	-0.660723
C163	C	0.143383	-0.894014	-0.410723
C164	C	0.393383	-0.644014	-0.160723
C165	C	-0.356742	-1.393895	-0.214239
C166	C	-0.106742	-1.143895	0.035761
C167	C	0.143258	-0.893895	0.285761
C168	C	0.393258	-0.643895	0.535761
C169	C	-0.356561	-1.394053	-0.107026
C170	C	-0.106561	-1.144053	0.142974
C171	C	0.143439	-0.894053	0.392974
C172	C	0.393439	-0.644053	0.642974
H173	H	-0.792542	-1.336539	-0.614761
H174	H	-0.542542	-1.086539	-0.364761
H175	H	-0.292542	-0.836539	-0.114761
H176	H	-0.042542	-0.586539	0.135239
H177	H	-0.919772	-1.336722	-0.615239
H178	H	-0.669772	-1.086722	-0.365239
H179	H	-0.419772	-0.836722	-0.115239
H180	H	-0.169772	-0.586722	0.134761
H181	H	-0.920815	-1.244495	-0.522576
H182	H	-0.670815	-0.994495	-0.272576
H183	H	-0.420815	-0.744495	-0.022576
H184	H	-0.170815	-0.494495	0.227424
H185	H	-0.791936	-1.292590	-0.340750
H186	H	-0.541936	-1.042590	-0.090750
H187	H	-0.291936	-0.792590	0.159250
H188	H	-0.041936	-0.542590	0.409250
Cl189	Cl	-0.781794	-1.527517	-0.608688
Cl190	Cl	-0.531794	-1.277517	-0.358688
Cl191	Cl	-0.281794	-1.027517	-0.108688
Cl192	Cl	-0.031794	-0.777517	0.141312
Cl193	Cl	-0.780178	-1.585524	-0.415287
Cl194	Cl	-0.530178	-1.335524	-0.165287
Cl195	Cl	-0.280178	-1.085524	0.084713
Cl196	Cl	-0.030178	-0.835524	0.334713
H197	H	-0.919141	-1.551460	-0.436527
H198	H	-0.669141	-1.301460	-0.186527
H199	H	-0.419141	-1.051460	0.063473
H200	H	-0.169141	-0.801460	0.313473
H201	H	-0.919008	-1.291321	-0.341593
H202	H	-0.669008	-1.041321	-0.091593
H203	H	-0.419008	-0.791321	0.158407
H204	H	-0.169008	-0.541321	0.408407
H205	H	-0.793187	-1.243682	-0.522125
H206	H	-0.543187	-0.993682	-0.272125
H207	H	-0.293187	-0.743682	-0.022125
H208	H	-0.043187	-0.493682	0.227875
H209	H	-0.920433	-1.521159	-0.563815
H210	H	-0.670433	-1.271159	-0.313815
H211	H	-0.420433	-1.021159	-0.063815
H212	H	-0.170433	-0.771159	0.186185
H213	H	-0.919685	-1.417719	-0.306089
H214	H	-0.669685	-1.167719	-0.056089
H215	H	-0.419685	-0.917719	0.193911
H216	H	-0.169685	-0.667719	0.443911
H217	H	-0.792952	-1.418843	-0.306023
H218	H	-0.542952	-1.168843	-0.056023
H219	H	-0.292952	-0.918843	0.193977
H220	H	-0.042952	-0.668843	0.443977
