data_functionalizedCrystal
_audit_creation_method	'MofGen! by Chris Wilmer'
_symmetry_space_group_name_H-M	'P1'
_symmetry_Int_Tables_number	1
_symmetry_cell_setting	triclinic
loop_
_symmetry_equiv_pos_as_xyz
  x,y,z
_cell_length_a	16.109301
_cell_length_b	17.699083
_cell_length_c	14.586319
_cell_angle_alpha	89.995320
_cell_angle_beta	89.999213
_cell_angle_gamma	83.372248
loop_
_atom_site_label
_atom_site_type_symbol
_atom_site_fract_x
_atom_site_fract_y
_atom_site_fract_z
O1	O	1.102963	0.097285	-0.076184
O2	O	0.860880	0.109391	-0.076199
O3	O	0.988761	-0.006841	-0.076183
O4	O	0.975082	0.213517	-0.076200
O5	O	0.988752	-0.006843	0.076298
O6	O	0.860872	0.109390	0.076282
O7	O	1.102954	0.097283	0.076297
Cu8	Cu	0.981912	0.103336	0.090212
Cu9	Cu	0.981923	0.103338	-0.090114
O10	O	0.975074	0.213516	0.076281
C11	C	0.829902	0.108900	0.000040
C12	C	0.737609	0.107430	0.000034
C13	C	0.515224	0.172981	0.000040
C14	C	0.428506	0.171594	0.000046
C15	C	0.448618	0.033688	0.000053
C16	C	0.535334	0.035076	0.000053
C17	C	0.568635	0.104725	0.000042
C18	C	0.395200	0.101949	0.000047
C19	C	0.301177	0.100445	0.000054
C20	C	0.662664	0.106230	0.000037
C21	C	0.988267	-0.035040	0.000057
C22	C	0.986796	-0.119060	0.000058
C23	C	1.061860	-0.167574	0.000064
C24	C	1.060473	-0.246519	0.000055
C25	C	0.984022	-0.276949	0.000048
C26	C	0.908953	-0.228429	0.000039
C27	C	0.910341	-0.149485	0.000041
C28	C	0.903356	-0.546800	0.000031
C29	C	0.901974	-0.625750	0.000033
C30	C	1.053488	-0.643834	0.000046
C31	C	1.054876	-0.564890	0.000048
C32	C	0.979807	-0.516377	0.000034
C33	C	0.981312	-0.430776	0.000041
C34	C	0.982517	-0.362549	0.000047
C35	C	1.133933	0.097774	0.000056
C36	C	1.226226	0.099244	0.000055
C37	C	0.975568	0.241714	0.000038
C38	C	0.977039	0.325734	0.000032
N39	N	0.981911	0.103334	0.217044
N40	N	0.981931	0.103334	-0.216946
C41	C	1.038555	0.051884	0.452057
C42	C	1.038558	0.051882	0.548038
C43	C	0.925280	0.154787	0.548034
C44	C	0.925274	0.154785	0.452054
C45	C	0.981917	0.103334	0.404068
C46	C	0.981925	0.103334	0.596029
C47	C	0.981927	0.103333	0.700096
C48	C	0.981914	0.103334	0.299995
H49	H	0.542334	0.229694	0.000038
O50	O	0.834668	-0.257951	-0.000133
C51	C	0.788916	-0.233139	-0.079097
H52	H	0.833629	-0.216726	-0.134289
H53	H	0.742481	-0.181678	-0.061248
C54	C	0.686349	-0.317884	-0.047122
C55	C	0.741267	-0.297730	-0.114913
H56	H	0.656954	-0.357724	-0.069213
H57	H	0.717171	-0.334598	0.006080
H58	H	0.647661	-0.274994	-0.032253
H59	H	0.779961	-0.340617	-0.129772
H60	H	0.710451	-0.281025	-0.168118
H61	H	1.084675	0.009988	0.412989
O62	O	1.093658	0.001876	0.594512
C63	C	1.143632	-0.043547	0.531573
H64	H	1.144503	-0.012514	0.463153
H65	H	1.116754	-0.099780	0.521372
C66	C	1.232281	-0.097238	0.653061
C67	C	1.233357	-0.059120	0.569029
H68	H	1.287626	-0.106847	0.676166
H69	H	1.198611	-0.066638	0.695466
H70	H	1.209878	-0.144094	0.644549
H71	H	1.255749	-0.012260	0.577544
H72	H	1.267032	-0.089712	0.526627
O73	O	0.416406	-0.034032	0.000092
C74	C	0.482146	-0.093980	0.000071
H75	H	0.541011	-0.072779	0.028944
H76	H	0.494465	-0.115026	-0.073083
C77	C	0.385501	-0.185711	0.024400
C78	C	0.457798	-0.159674	0.059870
H79	H	0.370482	-0.226236	0.061283
H80	H	0.341210	-0.145324	0.024411
H81	H	0.395776	-0.203244	-0.036561
H82	H	0.447519	-0.142132	0.120824
H83	H	0.502087	-0.200060	0.059870
O84	O	0.587258	-0.031212	0.000215
C85	C	0.638033	-0.034528	0.079175
H86	H	0.606190	0.004178	0.134370
H87	H	0.701050	-0.014946	0.061321
C88	C	0.690495	-0.164425	0.047193
C89	C	0.651381	-0.116891	0.114988
H90	H	0.698732	-0.215230	0.069283
H91	H	0.656289	-0.162191	-0.006006
H92	H	0.743005	-0.148097	0.032321
H93	H	0.598868	-0.133213	0.129851
H94	H	0.685578	-0.119130	0.168191
O95	O	0.376742	0.237969	-0.000000
C96	C	0.424733	0.299736	0.000015
H97	H	0.489494	0.280510	-0.028854
H98	H	0.430866	0.321084	0.073166
C99	C	0.301848	0.387953	-0.024330
C100	C	0.381387	0.364341	-0.059794
H101	H	0.275110	0.427807	-0.061219
H102	H	0.269515	0.346340	-0.024336
H103	H	0.306970	0.405738	0.036629
H104	H	0.376264	0.346548	-0.120746
H105	H	0.413719	0.405953	-0.059799
O106	O	1.129089	-0.535243	-0.000070
C107	C	1.134434	-0.490130	-0.079053
H108	H	1.068866	-0.470450	-0.105382
H109	H	1.171287	-0.525015	-0.134351
C110	C	1.259596	-0.444485	-0.022726
C111	C	1.179063	-0.420308	-0.055060
H112	H	1.287128	-0.401417	-0.007929
H113	H	1.255997	-0.474880	0.030485
H114	H	1.290295	-0.473556	-0.068813
H115	H	1.148361	-0.391246	-0.008969
H116	H	1.182658	-0.389906	-0.108263
O117	O	0.870232	0.204664	0.594752
C118	C	0.819017	0.164118	0.650267
H119	H	0.852250	0.104901	0.664649
H120	H	0.757580	0.158961	0.613286
C121	C	0.760354	0.279520	0.723770
C122	C	0.801175	0.206790	0.741440
H123	H	0.749344	0.305843	0.780009
H124	H	0.794856	0.306838	0.686367
H125	H	0.709161	0.275212	0.692951
H126	H	0.852371	0.211100	0.772249
H127	H	0.766680	0.179475	0.778851
H128	H	1.124115	-0.142805	0.000075
O129	O	1.126336	-0.691069	0.000008
C130	C	1.108725	-0.767273	0.000023
H131	H	1.043431	-0.770283	-0.028852
H132	H	1.111916	-0.790112	0.073175
C133	C	1.253573	-0.811902	-0.024304
C134	C	1.173380	-0.815598	-0.059777
H135	H	1.293457	-0.841712	-0.061187
H136	H	1.265439	-0.760562	-0.024311
H137	H	1.256221	-0.830933	0.036656
H138	H	1.170731	-0.796559	-0.120730
H139	H	1.161515	-0.866936	-0.059781
H140	H	1.121597	-0.286017	0.000062
H141	H	0.849216	-0.109986	0.000036
H142	H	0.879149	0.196682	0.412979
H143	H	0.839715	-0.650523	0.000028
H144	H	0.842230	-0.507310	0.000021
