data_functionalizedCrystal
_audit_creation_method	'MofGen! by Chris Wilmer'
_symmetry_space_group_name_H-M	'P1'
_symmetry_Int_Tables_number	1
_symmetry_cell_setting	triclinic
loop_
_symmetry_equiv_pos_as_xyz
  x,y,z
_cell_length_a	25.427154
_cell_length_b	25.426324
_cell_length_c	25.422586
_cell_angle_alpha	60.006367
_cell_angle_beta	60.012446
_cell_angle_gamma	59.992398
loop_
_atom_site_label
_atom_site_type_symbol
_atom_site_fract_x
_atom_site_fract_y
_atom_site_fract_z
O1	O	0.072968	-0.768436	0.642532
O2	O	0.572968	-0.268436	1.142532
O3	O	0.027520	-0.598284	0.517710
O4	O	0.527520	-0.098284	1.017710
O5	O	0.135268	-0.705940	0.517611
O6	O	0.635268	-0.205940	1.017611
O7	O	-0.034780	-0.660780	0.642632
O8	O	0.465220	-0.160780	1.142632
O9	O	0.171018	-0.670200	0.553260
O10	O	0.671018	-0.170200	1.053260
O11	O	0.063270	-0.562544	0.553360
O12	O	0.563270	-0.062544	1.053360
O13	O	0.108718	-0.732696	0.678182
O14	O	0.608718	-0.232696	1.178182
Zn15	Zn	0.091670	-0.641945	0.621431
Zn16	Zn	0.591670	-0.141945	1.121431
Zn17	Zn	0.044568	-0.689034	0.574461
Zn18	Zn	0.544568	-0.189034	1.074461
O19	O	0.000970	-0.625039	0.678281
O20	O	0.500970	-0.125039	1.178281
N21	N	0.123818	-0.609812	0.653490
N22	N	0.623818	-0.109812	1.153490
N23	N	0.012426	-0.721173	0.542402
N24	N	0.512426	-0.221173	1.042402
C25	C	0.168482	-0.466269	0.698103
C26	C	0.668482	0.033731	1.198103
C27	C	0.168494	-0.565177	0.698095
C28	C	0.668494	-0.065177	1.198095
C29	C	0.193243	-0.540453	0.722807
C30	C	0.693243	-0.040453	1.222807
C31	C	0.301113	-0.521853	0.665993
C32	C	0.801113	-0.021853	1.165993
C33	C	0.368545	-0.544324	0.643486
C34	C	0.868545	-0.044324	1.143486
C35	C	0.368579	-0.653434	0.685090
C36	C	0.868579	-0.153434	1.185090
C37	C	0.301149	-0.630961	0.707599
C38	C	0.801149	-0.130961	1.207599
C39	C	0.184722	-0.432539	0.631812
C40	C	0.684722	0.067461	1.131812
C41	C	0.162210	-0.365100	0.609357
C42	C	0.662210	0.134900	1.109357
C43	C	0.107225	-0.365129	0.719489
C44	C	0.607225	0.134871	1.219489
C45	C	0.129737	-0.432567	0.741943
C46	C	0.629737	0.067433	1.241943
C47	C	0.102194	-0.548896	0.714421
C48	C	0.602194	-0.048896	1.214421
C49	C	0.079702	-0.571372	0.691949
C50	C	0.579702	-0.071372	1.191949
C51	C	0.189805	-0.626409	0.636839
C52	C	0.689805	-0.126409	1.136839
C53	C	0.212300	-0.603934	0.659303
C54	C	0.712300	-0.103934	1.159303
C55	C	0.102289	-0.548918	0.830735
C56	C	0.602289	-0.048918	1.330735
C57	C	0.079866	-0.571415	0.898171
C58	C	0.579866	-0.071415	1.398171
C59	C	0.190015	-0.626466	0.898104
C60	C	0.690015	-0.126466	1.398104
C61	C	0.212437	-0.603971	0.830666
C62	C	0.712437	-0.103971	1.330666
C63	C	0.168573	-0.565195	0.796984
C64	C	0.668573	-0.065195	1.296984
C65	C	0.267418	-0.565170	0.698047
C66	C	0.767418	-0.065170	1.198047
C67	C	-0.130981	-0.765617	0.497386
C68	C	0.369019	-0.265617	0.997386
C69	C	-0.032127	-0.765741	0.497606
C70	C	0.467873	-0.265741	0.997606
C71	C	-0.056804	-0.790430	0.472789
C72	C	0.443196	-0.290430	0.972789
C73	C	-0.075480	-0.898263	0.529507
C74	C	0.424520	-0.398263	1.029507
C75	C	-0.053057	-0.965702	0.552014
C76	C	0.446943	-0.465702	1.052014
C77	C	0.056052	-0.965829	0.510599
C78	C	0.556052	-0.465829	1.010599
C79	C	0.033627	-0.898392	0.488091
C80	C	0.533627	-0.398392	0.988091
C81	C	-0.164787	-0.781859	0.563659
C82	C	0.335213	-0.281859	1.063659
C83	C	-0.232219	-0.759299	0.586018
C84	C	0.267781	-0.259299	1.086018
C85	C	-0.232034	-0.704261	0.475827
C86	C	0.267966	-0.204261	0.975827
C87	C	-0.164602	-0.726821	0.453469
C88	C	0.335398	-0.226821	0.953469
C89	C	-0.048372	-0.699446	0.481299
C90	C	0.451628	-0.199446	0.981299
C91	C	-0.025938	-0.677008	0.503867
C92	C	0.474062	-0.177008	1.003867
C93	C	0.028987	-0.787155	0.559036
C94	C	0.528987	-0.287155	1.059036
C95	C	0.006552	-0.809596	0.536475
C96	C	0.506552	-0.309596	1.036475
C97	C	-0.048188	-0.699454	0.364860
C98	C	0.451812	-0.199454	0.864860
C99	C	-0.025608	-0.677017	0.297425
C100	C	0.474392	-0.177017	0.797425
C101	C	0.029406	-0.787170	0.297492
C102	C	0.529406	-0.287170	0.797492
C103	C	0.006827	-0.809605	0.364929
C104	C	0.506827	-0.309605	0.864929
C105	C	-0.031972	-0.765745	0.398611
C106	C	0.468028	-0.265745	0.898611
C107	C	-0.032140	-0.864611	0.497548
C108	C	0.467860	-0.364611	0.997548
N109	N	0.401319	-0.609788	0.653344
N110	N	0.901319	-0.109788	1.153344
O111	O	0.621664	-0.620517	0.494685
O112	O	1.121664	-0.120517	0.994685
O113	O	0.621901	-0.745740	0.664659
O114	O	1.121901	-0.245740	1.164659
O115	O	0.621803	-0.745452	0.556857
O116	O	1.121803	-0.245452	1.056857
O117	O	0.621762	-0.620805	0.602487
O118	O	1.121762	-0.120805	1.102487
O119	O	0.514676	-0.709815	0.592658
O120	O	1.014676	-0.209815	1.092658
O121	O	0.514774	-0.710104	0.700460
O122	O	1.014774	-0.210104	1.200460
O123	O	0.514537	-0.584881	0.530485
O124	O	1.014537	-0.084881	1.030485
Zn125	Zn	0.497647	-0.641834	0.621157
Zn126	Zn	0.997647	-0.141834	1.121157
Zn127	Zn	0.638791	-0.688787	0.573988
Zn128	Zn	1.138791	-0.188787	1.073988
O129	O	0.514635	-0.585169	0.638287
O130	O	1.014635	-0.085169	1.138287
N131	N	0.735119	-0.720834	0.541794
N132	N	1.235119	-0.220834	1.041794
N133	N	0.123794	-0.332357	0.653504
N134	N	0.623794	0.167643	1.153504
O135	O	-0.034774	-0.111885	0.642639
O136	O	0.465226	0.388115	1.142639
O137	O	0.135202	-0.111860	0.517412
O138	O	0.635202	0.388140	1.017412
O139	O	0.027364	-0.111888	0.517742
O140	O	0.527364	0.388112	1.017742
O141	O	0.073064	-0.111857	0.642310
O142	O	0.573064	0.388143	1.142310
O143	O	0.063120	-0.219026	0.553444
O144	O	0.563120	0.280974	1.053444
O145	O	0.170958	-0.218998	0.553115
O146	O	0.670958	0.281002	1.053115
O147	O	0.000983	-0.219022	0.678342
O148	O	0.500983	0.280978	1.178342
Zn149	Zn	0.091647	-0.236020	0.621397
Zn150	Zn	0.591647	0.263980	1.121397
Zn151	Zn	0.044537	-0.094862	0.574357
Zn152	Zn	0.544537	0.405138	1.074357
O153	O	0.108821	-0.218994	0.678013
O154	O	0.608821	0.281006	1.178013
N155	N	0.012383	0.001474	0.542251
N156	N	0.512383	0.501474	1.042251
N157	N	0.124036	-0.609854	0.930891
N158	N	0.624036	-0.109854	1.430891
O159	O	0.113202	-0.768401	1.151342
O160	O	0.613202	-0.268401	1.651342
O161	O	-0.011992	-0.598359	1.151385
O162	O	0.488008	-0.098359	1.651385
O163	O	-0.011700	-0.706176	1.151343
O164	O	0.488300	-0.206176	1.651343
O165	O	0.112910	-0.660584	1.151384
O166	O	0.612910	-0.160584	1.651384
O167	O	0.023980	-0.670446	1.044212
O168	O	0.523980	-0.170446	1.544212
O169	O	0.023689	-0.562630	1.044253
O170	O	0.523689	-0.062630	1.544253
O171	O	0.148882	-0.732671	1.044211
O172	O	0.648882	-0.232671	1.544211
Zn173	Zn	0.091951	-0.641977	1.027223
Zn174	Zn	0.591951	-0.141977	1.527223
Zn175	Zn	0.044940	-0.689053	1.168373
Zn176	Zn	0.544940	-0.189053	1.668373
O177	O	0.148590	-0.624854	1.044252
O178	O	0.648590	-0.124854	1.544252
N179	N	0.012853	-0.721183	1.264704
N180	N	0.512853	-0.221183	1.764704
C181	C	0.041135	-0.558973	0.518338
C182	C	0.541135	-0.058973	1.018338
C183	C	0.174567	-0.692292	0.518215
C184	C	0.674567	-0.192292	1.018215
C185	C	0.095103	-0.772007	0.677553
C186	C	0.595103	-0.272007	1.177553
C187	C	-0.038330	-0.638687	0.677677
C188	C	0.461670	-0.138687	1.177677
C189	C	0.568366	-0.745166	0.703974
C190	C	1.068366	-0.245166	1.203974
C191	C	0.568246	-0.744810	0.570474
C192	C	1.068246	-0.244810	1.070474
C193	C	0.568069	-0.585454	0.491172
C194	C	1.068069	-0.085454	0.991172
C195	C	0.568192	-0.585812	0.624671
C196	C	1.068192	-0.085812	1.124671
C197	C	0.174449	-0.165294	0.517975
C198	C	0.674449	0.334706	1.017975
C199	C	0.040949	-0.165460	0.518427
C200	C	0.540949	0.334540	1.018427
C201	C	-0.038309	-0.165456	0.677735
C202	C	0.461691	0.334544	1.177735
C203	C	0.095236	-0.165423	0.677328
C204	C	0.595236	0.334577	1.177328
C205	C	-0.011393	-0.559072	1.097824
C206	C	0.488607	-0.059072	1.597824
C207	C	-0.011024	-0.692583	1.097752
C208	C	0.488976	-0.192583	1.597752
C209	C	0.148283	-0.771958	1.097772
C210	C	0.648283	-0.271958	1.597772
C211	C	0.147922	-0.638440	1.097820
C212	C	0.647922	-0.138440	1.597820
H213	H	0.025889	-0.558152	0.925643
H214	H	0.525889	-0.058152	1.425643
H215	H	-0.050697	-0.510236	1.097837
H216	H	0.449303	-0.010236	1.597837
C217	C	0.568171	-0.532912	0.637858
C218	C	1.068171	-0.032912	1.137858
H219	H	0.568216	-0.548659	0.680505
H220	H	1.068216	-0.048659	1.180505
H221	H	0.605496	-0.521148	0.608121
H222	H	1.105496	-0.021148	1.108121
H223	H	0.530776	-0.496295	0.633094
H224	H	1.030776	0.003705	1.133094
C225	C	0.028020	-0.492947	0.465373
C226	C	0.528020	0.007053	0.965373
H227	H	-0.014626	-0.465972	0.481057
H228	H	0.485374	0.034028	0.981057
H229	H	0.057760	-0.473602	0.453623
H230	H	0.557760	0.026398	0.953623
H231	H	0.032824	-0.498536	0.428765
H232	H	0.532824	0.001464	0.928765
H233	H	0.066565	-0.517338	0.803314
H234	H	0.566565	-0.017338	1.303314
C235	C	0.240544	-0.705291	0.465177
C236	C	0.740544	-0.205291	0.965177
H237	H	0.267576	-0.747928	0.480799
H238	H	0.767576	-0.247928	0.980799
H239	H	0.234913	-0.700446	0.428577
H240	H	0.734913	-0.200446	0.928577
H241	H	0.259851	-0.675520	0.453443
H242	H	0.759851	-0.175520	0.953443
H243	H	0.223163	-0.164989	0.478564
H244	H	0.723163	0.335011	0.978564
C245	C	0.201383	-0.837928	1.097753
C246	C	0.701383	-0.337928	1.597753
H247	H	0.185826	-0.864992	1.097743
H248	H	0.685826	-0.364992	1.597743
H249	H	0.237981	-0.832287	1.060396
H250	H	0.737981	-0.332287	1.560396
H251	H	0.213094	-0.857211	1.135119
H252	H	0.713094	-0.357211	1.635119
H253	H	0.567992	-0.546139	0.442358
H254	H	1.067992	-0.046139	0.942358
C255	C	0.027735	-0.165470	0.465555
C256	C	0.527735	0.334530	0.965555
H257	H	0.064953	-0.165461	0.428055
H258	H	0.564953	0.334539	0.928055
H259	H	0.017520	-0.202835	0.480441
H260	H	0.517520	0.297165	0.980441
H261	H	-0.007416	-0.128108	0.455541
H262	H	0.492584	0.371892	0.955541
C263	C	-0.063888	-0.705733	1.097674
C264	C	0.436112	-0.205733	1.597674
H265	H	-0.048137	-0.748384	1.097644
H266	H	0.451863	-0.248384	1.597644
H267	H	-0.100533	-0.700930	1.135022
H268	H	0.399467	-0.200930	1.635022
H269	H	-0.075598	-0.676000	1.060299
H270	H	0.424402	-0.176000	1.560299
H271	H	0.568264	-0.783967	0.560707
H272	H	1.068264	-0.283967	1.060707
C273	C	0.200811	-0.625265	1.097822
C274	C	0.700811	-0.125265	1.597822
H275	H	0.185069	-0.582606	1.097829
H276	H	0.685069	-0.082606	1.597829
H277	H	0.212560	-0.654985	1.135175
H278	H	0.712560	-0.154985	1.635175
H279	H	0.237433	-0.630064	1.060452
H280	H	0.737433	-0.130064	1.560452
H281	H	0.104814	-0.820885	0.716757
H282	H	0.604814	-0.320885	1.216757
C283	C	-0.104250	-0.165465	0.730846
C284	C	0.395750	0.334535	1.230846
H285	H	-0.131333	-0.165470	0.715301
H286	H	0.368667	0.334530	1.215301
H287	H	-0.098583	-0.202823	0.767450
H288	H	0.401417	0.297177	1.267450
H289	H	-0.123523	-0.128096	0.742545
H290	H	0.376477	0.371904	1.242545
C291	C	0.108449	-0.165413	0.730200
C292	C	0.608449	0.334587	1.230200
H293	H	0.071229	-0.165413	0.767697
H294	H	0.571229	0.334587	1.267697
H295	H	0.143601	-0.202767	0.740212
H296	H	0.643601	0.297233	1.240212
H297	H	0.118658	-0.128040	0.715310
H298	H	0.618658	0.371960	1.215310
C299	C	0.238265	-0.669105	0.935150
C300	C	0.738265	-0.169105	1.435150
H301	H	0.215421	-0.680169	0.980145
H302	H	0.715421	-0.180169	1.480145
H303	H	0.264577	-0.707232	0.924081
H304	H	0.764577	-0.207232	1.424081
H305	H	0.264559	-0.646212	0.924084
H306	H	0.764559	-0.146212	1.424084
C307	C	0.285351	-0.621879	0.793541
C308	C	0.785351	-0.121879	1.293541
H309	H	0.292426	-0.602935	0.748556
H310	H	0.792426	-0.102935	1.248556
H311	H	0.304305	-0.606373	0.804581
H312	H	0.804305	-0.106373	1.304581
H313	H	0.304304	-0.667383	0.804579
H314	H	0.804304	-0.167383	1.304579
C315	C	0.006774	-0.553462	0.709895
C316	C	0.506774	-0.053462	1.209895
H317	H	-0.000347	-0.572392	0.690950
H318	H	0.499653	-0.072392	1.190950
H319	H	-0.012139	-0.568979	0.755394
H320	H	0.487861	-0.068979	1.255394
H321	H	-0.012181	-0.507957	0.694396
H322	H	0.487819	-0.007957	1.194396
C323	C	0.237993	-0.669042	0.594174
C324	C	0.737993	-0.169042	1.094174
H325	H	0.280698	-0.675514	0.587671
H326	H	0.780698	-0.175514	1.087671
H327	H	0.231534	-0.709464	0.614758
H328	H	0.731534	-0.209464	1.114758
H329	H	0.231481	-0.648438	0.553763
H330	H	0.731481	-0.148438	1.053763
H331	H	0.568427	-0.784476	0.752793
H332	H	1.068427	-0.284476	1.252793
C333	C	0.285228	-0.621841	0.641355
C334	C	0.785228	-0.121841	1.141355
H335	H	0.292349	-0.602901	0.660290
H336	H	0.792349	-0.102901	1.160290
H337	H	0.304188	-0.667342	0.656846
H338	H	0.804188	-0.167342	1.156846
H339	H	0.304136	-0.606317	0.595851
H340	H	0.804136	-0.106317	1.095851
C341	C	0.264085	-0.678613	0.742857
C342	C	0.764085	-0.178613	1.242857
H343	H	0.293834	-0.721013	0.745313
H344	H	0.793834	-0.221013	1.245313
H345	H	0.237806	-0.676899	0.785108
H346	H	0.737806	-0.176899	1.285108
H347	H	0.237755	-0.667329	0.719892
H348	H	0.737755	-0.167329	1.219892
H349	H	0.396045	-0.707006	0.692856
H350	H	0.896045	-0.207006	1.192856
C351	C	0.405609	-0.496676	0.608225
C352	C	0.905609	0.003324	1.108225
H353	H	0.375862	-0.454274	0.605755
H354	H	0.875862	0.045726	1.105755
H355	H	0.431939	-0.507957	0.631185
H356	H	0.931939	-0.007957	1.131185
H357	H	0.431888	-0.498394	0.565972
H358	H	0.931888	0.001606	1.065972
H359	H	-0.087172	-0.629063	0.716934
H360	H	0.412828	-0.129063	1.216934
H361	H	0.066522	-0.517340	0.746005
H362	H	0.566522	-0.017340	1.246005
H363	H	0.075686	-0.337687	0.755188
H364	H	0.575686	0.162313	1.255188
C365	C	0.024668	-0.882528	0.402054
C366	C	0.524668	-0.382528	0.902054
H367	H	0.005671	-0.889611	0.447040
H368	H	0.505671	-0.389611	0.947040
H369	H	0.009183	-0.901445	0.390949
H370	H	0.509183	-0.401445	0.890949
H371	H	0.070161	-0.901515	0.391082
H372	H	0.570161	-0.401515	0.891082
H373	H	0.273654	-0.468282	0.658214
H374	H	0.773654	0.031718	1.158214
H375	H	0.175430	-0.337636	0.555374
H376	H	0.675430	0.162364	1.055374
C377	C	0.227334	-0.469611	0.583591
C378	C	0.727334	0.030389	1.083591
H379	H	0.233771	-0.439861	0.540892
H380	H	0.733771	0.060139	1.040892
H381	H	0.267769	-0.495915	0.590040
H382	H	0.767769	0.004085	1.090040
H383	H	0.206741	-0.495920	0.590083
H384	H	0.706741	0.004080	1.090083
H385	H	-0.038823	-0.623033	0.269953
H386	H	0.461177	-0.123033	0.769953
C387	C	0.111798	-0.469673	0.814867
C388	C	0.611798	0.030327	1.314867
H389	H	0.085478	-0.439942	0.837760
H390	H	0.585478	0.060058	1.337760
H391	H	0.088923	-0.495951	0.825860
H392	H	0.588923	0.004049	1.325860
H393	H	0.149908	-0.496012	0.825970
H394	H	0.649908	0.003988	1.325970
H395	H	-0.079784	-0.663733	0.392281
H396	H	0.420216	-0.163733	0.892281
H397	H	-0.079862	-0.663733	0.449648
H398	H	0.420138	-0.163733	0.949648
C399	C	0.072073	-0.835417	0.260449
C400	C	0.572073	-0.335417	0.760449
H401	H	0.078497	-0.878110	0.290211
H402	H	0.578497	-0.378110	0.790211
H403	H	0.051537	-0.828916	0.234076
H404	H	0.551537	-0.328916	0.734076
H405	H	0.112518	-0.828996	0.234214
H406	H	0.612518	-0.328996	0.734214
H407	H	-0.039168	-0.623025	0.490592
H408	H	0.460832	-0.123025	0.990592
H409	H	0.060486	-0.822870	0.590677
H410	H	0.560486	-0.322870	1.090677
H411	H	0.019779	-0.863579	0.549754
H412	H	0.519779	-0.363579	1.049754
H413	H	0.109606	-0.993335	0.502902
H414	H	0.609606	-0.493335	1.002902
C415	C	0.081302	-0.861372	0.452935
C416	C	0.581302	-0.361372	0.952935
H417	H	0.058529	-0.816370	0.440878
H418	H	0.558529	-0.316370	0.940878
H419	H	0.102567	-0.872443	0.480745
H420	H	0.602567	-0.372443	0.980745
H421	H	0.112218	-0.872459	0.415483
H422	H	0.612218	-0.372459	0.915483
C423	C	-0.100731	-1.002719	0.587173
C424	C	0.399269	-0.502719	1.087173
H425	H	-0.143113	-0.972941	0.589588
H426	H	0.356887	-0.472941	1.089588
H427	H	-0.089428	-1.029031	0.564186
H428	H	0.410572	-0.529031	1.064186
H429	H	-0.099073	-1.029016	0.629447
H430	H	0.400927	-0.529016	1.129447
H431	H	-0.129033	-0.870764	0.537213
H432	H	0.370967	-0.370764	1.037213
H433	H	-0.259745	-0.772522	0.639985
H434	H	0.240255	-0.272522	1.139985
C435	C	-0.127804	-0.824529	0.611965
C436	C	0.372196	-0.324529	1.111965
H437	H	-0.157597	-0.830961	0.654639
H438	H	0.342403	-0.330961	1.154639
H439	H	-0.101509	-0.864967	0.605521
H440	H	0.398491	-0.364967	1.105521
H441	H	-0.101498	-0.803973	0.605546
H442	H	0.398502	-0.303973	1.105546
H443	H	-0.259410	-0.672678	0.440065
H444	H	0.240590	-0.172678	0.940065
H445	H	-0.137077	-0.713589	0.399501
H446	H	0.362923	-0.213589	0.899501
