data_functionalizedCrystal
_audit_creation_method	'MofGen! by Chris Wilmer'
_symmetry_space_group_name_H-M	'P1'
_symmetry_Int_Tables_number	1
_symmetry_cell_setting	triclinic
loop_
_symmetry_equiv_pos_as_xyz
  x,y,z
_cell_length_a	9.065218
_cell_length_b	10.654550
_cell_length_c	9.730223
_cell_angle_alpha	90.000193
_cell_angle_beta	90.000310
_cell_angle_gamma	84.750394
loop_
_atom_site_label
_atom_site_type_symbol
_atom_site_fract_x
_atom_site_fract_y
_atom_site_fract_z
O1	O	-1.959386	-0.184154	-0.114290
O2	O	-1.530019	-0.199259	-0.114291
O3	O	-1.754575	-0.009007	-0.114285
O4	O	-1.734831	-0.374407	-0.114296
O5	O	-1.754572	-0.009011	0.114295
O6	O	-1.530016	-0.199264	0.114289
O7	O	-1.959384	-0.184159	0.114290
Zn8	Zn	-1.744700	-0.191712	0.150581
Zn9	Zn	-1.744703	-0.191706	-0.150582
O10	O	-1.734828	-0.374412	0.114284
C11	C	-1.475039	-0.197810	-0.000001
C12	C	-1.311220	-0.193469	-0.000002
C13	C	-1.753124	0.037795	0.000003
C14	C	-1.748786	0.177255	-0.000002
C15	C	-2.014364	-0.185608	-0.000002
C16	C	-2.178183	-0.189949	-0.000011
C17	C	-1.736279	-0.421213	-0.000007
C18	C	-1.740616	-0.560673	-0.000011
N19	N	-1.744708	-0.191716	0.356118
C20	C	-1.881001	0.256217	0.000003
C21	C	-1.876917	0.387254	-0.000007
C22	C	-1.608391	0.360354	-0.000020
C23	C	-1.612477	0.229320	-0.000020
C24	C	-2.036032	0.271749	0.000016
C25	C	-2.031948	0.402786	0.000007
N26	N	-1.744706	-0.191692	-0.356119
C27	C	-1.844167	-0.107501	0.428047
C28	C	-1.844163	-0.107486	0.571930
C29	C	-1.645236	-0.275911	0.571942
C30	C	-1.645234	-0.275920	0.428062
C31	C	-1.959020	-0.010265	0.428040
C32	C	-1.959016	-0.010250	0.571923
H33	H	-1.504815	0.165033	-0.000043
C34	C	-2.112152	-0.040022	0.624685
N35	N	-2.227475	-0.062484	0.664425
C36	C	-1.458459	0.417639	-0.000024
N37	N	-1.345526	0.460783	-0.000021
H38	H	-2.096672	0.242153	-0.095637
H39	H	-2.078802	0.448245	-0.098688
C40	C	-2.103742	-0.052153	0.367745
N41	N	-2.212747	-0.083704	0.322329
H42	H	-1.564234	-0.344483	0.369499
H43	H	-2.085399	0.235924	0.098713
H44	H	-1.564247	-0.344467	0.630535
C45	C	-2.110845	0.458891	0.129241
N46	N	-2.170265	0.501148	0.226579
C47	C	-1.924978	0.120275	0.375277
N48	N	-1.899333	0.218595	0.335536
H49	H	-1.923170	0.081115	0.616541
