data_functionalizedCrystal
_audit_creation_method	'MofGen! by Chris Wilmer'
_symmetry_space_group_name_H-M	'P1'
_symmetry_Int_Tables_number	1
_symmetry_cell_setting	triclinic
loop_
_symmetry_equiv_pos_as_xyz
  x,y,z
_cell_length_a	18.215405
_cell_length_b	11.169417
_cell_length_c	18.215399
_cell_angle_alpha	90.016030
_cell_angle_beta	90.030551
_cell_angle_gamma	90.026135
loop_
_atom_site_label
_atom_site_type_symbol
_atom_site_fract_x
_atom_site_fract_y
_atom_site_fract_z
Zn1	Zn	-0.292967	1.834800	0.416028
Zn2	Zn	-0.416039	1.834650	0.292956
Zn3	Zn	-0.292993	1.634098	0.292983
Zn4	Zn	-0.415999	1.634042	0.415989
O5	O	-0.354500	1.734398	0.354489
O6	O	-0.309299	2.002730	0.399707
O7	O	-0.399744	1.808007	0.189975
O8	O	-0.190005	1.660807	0.309333
O9	O	-0.399719	2.002620	0.309287
O10	O	-0.189986	1.808262	0.399733
O11	O	-0.309343	1.660662	0.189995
O12	O	-0.309305	1.466141	0.309296
O13	O	-0.399652	1.660712	0.518979
O14	O	-0.399677	1.466100	0.399667
O15	O	-0.309261	1.808208	0.519007
O16	O	-0.519018	1.807953	0.309249
O17	O	-0.518989	1.660567	0.399641
C18	C	-0.354490	1.422573	0.354481
C19	C	-0.354503	1.289173	0.354495
C20	C	-0.545706	1.734271	0.354454
C21	C	-0.627505	1.734326	0.354463
C22	C	-0.815689	1.811250	0.307483
C23	C	-0.892548	1.811304	0.307501
C24	C	-0.892558	1.657698	0.401548
C25	C	-0.815701	1.657651	0.401534
C26	C	-0.777268	1.734426	0.354497
C27	C	-0.930984	1.734526	0.354529
C28	C	-1.014318	1.734584	0.354549
C29	C	-0.693929	1.734370	0.354478
C30	C	-0.162547	1.734557	0.354541
C31	C	-0.080748	1.734626	0.354563
C32	C	-0.354510	2.047440	0.354498
C33	C	-0.354515	2.180840	0.354502
C34	C	-0.354449	1.734471	0.546442
C35	C	-0.354427	1.734502	0.628241
C36	C	-0.354497	1.734394	0.163283
C37	C	-0.354311	1.734595	0.081484
C38	C	-0.307317	1.811330	0.816451
C39	C	-0.307295	1.811345	0.893310
C40	C	-0.401424	1.657758	0.893269
C41	C	-0.401441	1.657739	0.816412
C42	C	-0.354389	1.734532	0.778005
C43	C	-0.354350	1.734565	0.931721
C44	C	-0.354327	1.734580	1.015055
C45	C	-0.354410	1.734515	0.694666
H46	H	-0.784399	1.873767	0.269183
Cl47	Cl	-0.460618	1.561176	0.768075
H48	H	-0.784416	1.595091	0.439822
Cl49	Cl	-0.940878	1.561183	0.460675
Cl50	Cl	-0.248123	1.907907	0.941639
H51	H	-0.269001	1.873857	0.785182
H52	H	-0.439734	1.595239	0.924549
H53	H	-0.923827	1.873864	0.269218
