data_functionalizedCrystal
_audit_creation_method	'MofGen! by Chris Wilmer'
_symmetry_space_group_name_H-M	'P1'
_symmetry_Int_Tables_number	1
_symmetry_cell_setting	triclinic
loop_
_symmetry_equiv_pos_as_xyz
  x,y,z
_cell_length_a	33.428889
_cell_length_b	33.428139
_cell_length_c	33.424847
_cell_angle_alpha	60.004234
_cell_angle_beta	60.008465
_cell_angle_gamma	59.994972
loop_
_atom_site_label
_atom_site_type_symbol
_atom_site_fract_x
_atom_site_fract_y
_atom_site_fract_z
O1	O	0.055565	-0.584504	0.488714
O2	O	0.020982	-0.455083	0.393778
O3	O	0.102943	-0.536959	0.393689
O4	O	-0.026396	-0.502628	0.488803
O5	O	0.130140	-0.509767	0.420792
O6	O	0.048179	-0.427891	0.420881
O7	O	0.082762	-0.557312	0.515817
Cu8	Cu	0.067954	-0.490119	0.470823
Cu9	Cu	0.035790	-0.522276	0.438771
O10	O	0.000801	-0.475436	0.515906
N11	N	0.090577	-0.467504	0.493370
N12	N	0.013171	-0.544895	0.416225
C13	C	0.143377	-0.280390	0.546067
C14	C	0.143515	-0.414755	0.680369
C15	C	0.143392	-0.414735	0.546069
C16	C	0.277766	-0.414702	0.545966
C17	C	0.158177	-0.324719	0.560828
C18	C	0.158255	-0.399967	0.636038
C19	C	0.233434	-0.399936	0.560773
C20	C	0.158186	-0.399955	0.560829
C21	C	0.124540	-0.223964	0.527278
C22	C	0.124565	-0.433545	0.527281
C23	C	0.177014	-0.381145	0.579617
C24	C	0.359814	-0.400540	0.502735
C25	C	0.411105	-0.417624	0.485606
C26	C	0.411136	-0.500620	0.517255
C27	C	0.359845	-0.483534	0.534385
C28	C	0.136887	-0.198305	0.476855
C29	C	0.119761	-0.147011	0.459777
C30	C	0.077945	-0.147038	0.543547
C31	C	0.095072	-0.198332	0.560625
C32	C	0.074134	-0.421169	0.539710
C33	C	0.057023	-0.438269	0.522625
C34	C	0.140770	-0.480120	0.480694
C35	C	0.157883	-0.463020	0.497773
C36	C	0.074339	-0.421208	0.762475
C37	C	0.057288	-0.438323	0.813768
C38	C	0.141075	-0.480183	0.813699
C39	C	0.158125	-0.463069	0.762404
C40	C	0.124756	-0.433580	0.736794
C41	C	0.334186	-0.433494	0.527123
C42	C	-0.173769	-0.597444	0.363037
C43	C	-0.039302	-0.597595	0.228856
C44	C	-0.039496	-0.597587	0.363300
C45	C	-0.039512	-0.731889	0.363237
C46	C	-0.129442	-0.612265	0.348329
C47	C	-0.054138	-0.612351	0.273187
C48	C	-0.054257	-0.687554	0.348440
C49	C	-0.054247	-0.612346	0.348477
C50	C	-0.230191	-0.578579	0.381758
C51	C	-0.020722	-0.578803	0.382168
C52	C	-0.073020	-0.631130	0.329609
C53	C	-0.053713	-0.813916	0.406386
C54	C	-0.036654	-0.865210	0.423504
C55	C	0.046338	-0.865293	0.391984
C56	C	0.029278	-0.813999	0.374865
C57	C	-0.255900	-0.590938	0.432169
C58	C	-0.307191	-0.573786	0.449185
C59	C	-0.307060	-0.531922	0.365377
C60	C	-0.255769	-0.549074	0.348360
C61	C	-0.033081	-0.528377	0.369764
C62	C	-0.016014	-0.511306	0.386922
C63	C	0.025770	-0.595083	0.428877
C64	C	0.008703	-0.612156	0.411725
C65	C	-0.032755	-0.528393	0.146761
C66	C	-0.015585	-0.511324	0.095468
C67	C	0.026262	-0.595106	0.095516
C68	C	0.009094	-0.612174	0.146811
C69	C	-0.020417	-0.578816	0.172432
C70	C	-0.020748	-0.788312	0.382068
N71	N	0.436037	-0.467415	0.493101
O72	O	0.592642	-0.471896	0.376066
O73	O	0.592838	-0.567146	0.505347
O74	O	0.592754	-0.566928	0.423360
O75	O	0.592727	-0.472113	0.458053
O76	O	0.511269	-0.539835	0.450606
O77	O	0.511353	-0.540052	0.532594
O78	O	0.511157	-0.444802	0.403312
Cu79	Cu	0.503815	-0.489954	0.470441
Cu80	Cu	0.600180	-0.521995	0.438219
O81	O	0.511242	-0.445020	0.485300
N82	N	0.667959	-0.544533	0.415554
N83	N	0.090544	-0.122107	0.493359
O84	O	-0.026406	0.034587	0.488773
O85	O	0.102877	0.034627	0.393499
O86	O	0.020848	0.034591	0.393771
O87	O	0.055623	0.034623	0.488500
O88	O	0.048051	-0.046899	0.420925
O89	O	0.130080	-0.046864	0.420653
O90	O	0.000796	-0.046903	0.515927
Cu91	Cu	0.067922	-0.054324	0.470769
Cu92	Cu	0.035752	0.042048	0.438656
O93	O	0.082825	-0.046867	0.515655
N94	N	0.013123	0.109830	0.416068
N95	N	0.090892	-0.467554	0.838649
O96	O	0.086330	-0.584488	0.995334
O97	O	-0.008902	-0.455160	0.995379
O98	O	-0.008679	-0.537172	0.995355
O99	O	0.086107	-0.502475	0.995358
O100	O	0.018452	-0.509990	0.913868
O101	O	0.018230	-0.427978	0.913891
O102	O	0.113461	-0.557306	0.913847
Cu103	Cu	0.068323	-0.490160	0.906429
Cu104	Cu	0.036237	-0.522306	1.002797
O105	O	0.113239	-0.475293	0.913870
N106	N	0.013667	-0.544916	1.070577
C107	C	0.031339	-0.425179	0.394250
C108	C	0.132837	-0.526572	0.394139
C109	C	0.072405	-0.587216	0.515344
C110	C	-0.029093	-0.485823	0.515455
C111	C	0.552119	-0.566716	0.535258
C112	C	0.552016	-0.566447	0.433726
C113	C	0.551873	-0.445232	0.373402
C114	C	0.551980	-0.445502	0.474933
C115	C	0.132731	-0.006013	0.393923
C116	C	0.031182	-0.006158	0.394293
C117	C	-0.029092	-0.006163	0.515469
C118	C	0.072491	-0.006119	0.515133
C119	C	-0.008451	-0.425276	0.954641
C120	C	-0.008170	-0.526833	0.954596
C121	C	0.113010	-0.587190	0.954585
C122	C	0.112735	-0.485627	0.954611
H123	H	0.016234	-0.428240	0.834672
H124	H	0.023949	-0.388000	0.364433
H125	H	0.079939	-0.006110	0.544893
C126	C	0.551942	-0.405839	0.484929
C127	C	0.551992	-0.423605	0.532753
C128	C	0.551951	-0.387080	0.541981
H129	H	0.580324	-0.396861	0.462349
H130	H	0.523489	-0.377987	0.481337
H131	H	0.580442	-0.451448	0.536341
H132	H	0.523612	-0.432579	0.555343
H133	H	0.523498	-0.359228	0.538389
H134	H	0.580333	-0.378105	0.519398
H135	H	0.551980	-0.399127	0.574431
H136	H	-0.066242	-0.478508	0.545321
C137	C	0.045941	-0.119295	0.579829
C138	C	0.038791	-0.152747	0.627645
C139	C	0.009305	-0.127210	0.661081
H140	H	0.061559	-0.099275	0.574951
H141	H	0.015164	-0.099305	0.574959
H142	H	0.069562	-0.172728	0.632514
H143	H	0.023167	-0.172768	0.632539
H144	H	-0.021472	-0.107220	0.656211
H145	H	0.024926	-0.107191	0.656198
H146	H	0.004446	-0.149903	0.693528
H147	H	0.142910	-0.624330	0.954565
C148	C	0.182114	-0.005730	0.353888
C149	C	0.181998	-0.005661	0.312023
C150	C	0.227484	-0.005412	0.275137
H151	H	0.187982	0.022747	0.346193
H152	H	0.207180	-0.034091	0.364959
H153	H	0.156939	0.022698	0.300953
H154	H	0.176138	-0.034135	0.319702
H155	H	0.252551	-0.033774	0.286208
H156	H	0.233349	0.023065	0.267446
H157	H	0.227413	-0.005370	0.246729
C158	C	0.065136	-0.786267	0.348405
C159	C	0.099741	-0.798789	0.306455
C160	C	0.132788	-0.773258	0.282072
H161	H	0.047881	-0.752031	0.339189
H162	H	0.081343	-0.794700	0.369536
H163	H	0.083535	-0.790353	0.285328
H164	H	0.117008	-0.833021	0.315657
H165	H	0.148995	-0.781690	0.303203
H166	H	0.115528	-0.739023	0.272860
H167	H	0.156273	-0.781753	0.253610
C168	C	0.551955	-0.606185	0.423925
C169	C	0.510075	-0.619294	0.457338
C170	C	0.510005	-0.655903	0.448328
H171	H	0.551888	-0.594261	0.391514
H172	H	0.580381	-0.634055	0.427569
H173	H	0.481657	-0.591428	0.453689
H174	H	0.510133	-0.631225	0.489752
H175	H	0.538431	-0.683773	0.451972
H176	H	0.509940	-0.643976	0.415916
H177	H	0.481593	-0.664805	0.471000
C178	C	0.552216	-0.606536	0.584790
C179	C	0.552246	-0.588976	0.615022
C180	C	0.552341	-0.625647	0.660652
H181	H	0.523825	-0.615491	0.599533
H182	H	0.580660	-0.634367	0.580491
H183	H	0.523805	-0.561154	0.619322
H184	H	0.580634	-0.580024	0.600295
H185	H	0.580785	-0.653478	0.656353
H186	H	0.523950	-0.634600	0.675390
H187	H	0.552366	-0.613739	0.681168
C188	C	0.182407	-0.536409	0.354383
C189	C	0.212618	-0.584219	0.372009
C190	C	0.258288	-0.593295	0.335401
H191	H	0.178187	-0.532764	0.326528
H192	H	0.197119	-0.513782	0.345454
H193	H	0.197910	-0.606839	0.380931
H194	H	0.216852	-0.587875	0.399859
H195	H	0.272999	-0.570669	0.326473
H196	H	0.254063	-0.589648	0.307548
H197	H	0.278793	-0.625733	0.347357
C198	C	-0.078641	-0.006068	0.555300
C199	C	-0.115304	0.035856	0.538641
C200	C	-0.160955	0.035967	0.575322
H201	H	-0.084690	-0.034457	0.563052
H202	H	-0.078691	-0.006033	0.583732
H203	H	-0.115255	0.035817	0.510218
H204	H	-0.109272	0.064252	0.530893
H205	H	-0.161005	0.036001	0.603754
H206	H	-0.166998	0.007576	0.583071
H207	H	-0.185835	0.064414	0.564026
H208	H	0.023733	-0.006162	0.364531
H209	H	-0.038348	-0.388133	0.954654
H210	H	-0.037935	-0.534246	0.954563
H211	H	0.198948	-0.473094	0.487648
C212	C	0.551715	-0.405372	0.323901
C213	C	0.509776	-0.394149	0.315256
C214	C	0.509616	-0.357437	0.269658
H215	H	0.551671	-0.376884	0.323801
H216	H	0.580100	-0.416576	0.298930
H217	H	0.481399	-0.382943	0.340220
H218	H	0.509812	-0.422625	0.315345
H219	H	0.538001	-0.368640	0.244687
H220	H	0.509573	-0.328952	0.269563
H221	H	0.481164	-0.349820	0.263784
C222	C	0.152390	-0.475627	0.954579
C223	C	0.134627	-0.427786	0.954580
C224	C	0.171145	-0.418555	0.954543
H225	H	0.161354	-0.498188	0.982980
H226	H	0.180247	-0.479247	0.926144
H227	H	0.106778	-0.424170	0.983012
H228	H	0.125666	-0.405215	0.926181
H229	H	0.199002	-0.422175	0.926108
H230	H	0.180107	-0.441119	0.982945
H231	H	0.159099	-0.386093	0.954539
H232	H	0.047163	-0.397193	0.741627
H233	H	0.199181	-0.473148	0.741498
C234	C	0.177383	-0.512212	0.841417
C235	C	0.225186	-0.519395	0.807948
C236	C	0.258644	-0.548908	0.833463
H237	H	0.172537	-0.496600	0.861430
H238	H	0.172502	-0.542980	0.861410
H239	H	0.230065	-0.488633	0.787963
H240	H	0.230047	-0.535013	0.787934
H241	H	0.253764	-0.579676	0.853457
H242	H	0.253794	-0.533293	0.853476
H243	H	0.291082	-0.553789	0.810759
H244	H	0.047002	-0.397168	0.563734
C245	C	0.022194	-0.666924	0.425223
C246	C	0.051627	-0.692479	0.454769
C247	C	0.064071	-0.742931	0.467207
H248	H	-0.006782	-0.675366	0.442603
H249	H	0.039656	-0.675373	0.396235
H250	H	0.034165	-0.684034	0.483752
H251	H	0.080609	-0.684052	0.437398
H252	H	0.081533	-0.751380	0.438218
H253	H	0.035092	-0.751368	0.484585
H254	H	0.084046	-0.760276	0.487251
C255	C	0.002251	-0.424807	0.536195
C256	C	-0.023267	-0.395351	0.565709
C257	C	-0.073723	-0.382948	0.578226
H258	H	-0.006260	-0.407373	0.507248
H259	H	-0.006157	-0.453814	0.553621
H260	H	-0.014863	-0.366350	0.548283
H261	H	-0.014771	-0.412776	0.594662
H262	H	-0.082130	-0.411954	0.595652
H263	H	-0.082229	-0.365515	0.549277
H264	H	-0.091043	-0.362964	0.598256
H265	H	0.167905	-0.504126	0.456671
H266	H	0.432025	-0.541365	0.523165
C267	C	0.332111	-0.519390	0.560832
C268	C	0.365566	-0.566866	0.563509
C269	C	0.340035	-0.599910	0.587862
H270	H	0.312124	-0.518153	0.592989
H271	H	0.312092	-0.510840	0.543370
H272	H	0.385576	-0.575414	0.580972
H273	H	0.385554	-0.568119	0.531359
H274	H	0.320016	-0.591360	0.570400
H275	H	0.320048	-0.598669	0.620018
H276	H	0.362730	-0.632126	0.589678
H277	H	0.431972	-0.390789	0.465748
H278	H	0.049734	-0.622248	0.452940
C279	C	0.332042	-0.346193	0.494825
C280	C	0.365468	-0.320994	0.469812
C281	C	0.339905	-0.270931	0.462521
H282	H	0.312010	-0.334100	0.476032
H283	H	0.312064	-0.341420	0.525644
H284	H	0.385437	-0.325765	0.438998
H285	H	0.385501	-0.333073	0.488597
H286	H	0.319927	-0.266158	0.493340
H287	H	0.319874	-0.258843	0.443729
H288	H	0.362580	-0.253828	0.445553
H289	H	0.079796	-0.624394	0.545162
H290	H	0.129813	-0.126117	0.418717
C291	C	0.168854	-0.226044	0.440571
C292	C	0.175985	-0.192592	0.392756
C293	C	0.205425	-0.218130	0.359319
H294	H	0.199639	-0.246047	0.445407
H295	H	0.153195	-0.246051	0.445484
H296	H	0.191645	-0.172594	0.387844
H297	H	0.145210	-0.172588	0.387904
H298	H	0.189767	-0.238136	0.364233
H299	H	0.236208	-0.238132	0.364160
H300	H	0.210264	-0.195437	0.326873
H301	H	-0.025639	-0.470264	0.074572
C302	C	0.081735	-0.226278	0.615353
C303	C	0.103044	-0.276687	0.623175
C304	C	0.090778	-0.302446	0.673585
H305	H	0.093559	-0.217914	0.629770
H306	H	0.047133	-0.217929	0.629824
H307	H	0.137640	-0.285033	0.608710
H308	H	0.091224	-0.285066	0.608770
H309	H	0.056175	-0.294097	0.688057
H310	H	0.102602	-0.294078	0.687998
H311	H	0.105230	-0.336651	0.678900
C312	C	-0.064774	-0.492096	0.174487
C313	C	-0.071897	-0.444284	0.141026
C314	C	-0.101383	-0.410835	0.166549
H315	H	-0.095559	-0.496926	0.194450
H316	H	-0.049154	-0.497005	0.194532
H317	H	-0.087518	-0.439377	0.120990
H318	H	-0.041121	-0.439439	0.121062
H319	H	-0.085763	-0.415744	0.186594
H320	H	-0.132165	-0.415670	0.186512
H321	H	-0.106216	-0.378391	0.143850
H322	H	0.019144	-0.653235	0.167709
C323	C	0.058306	-0.631401	0.067788
C324	C	0.065444	-0.679214	0.101247
C325	C	0.094968	-0.712661	0.075722
H326	H	0.042720	-0.626521	0.047732
H327	H	0.089084	-0.626541	0.047836
H328	H	0.034672	-0.684073	0.121191
H329	H	0.081036	-0.684110	0.121304
H330	H	0.125746	-0.707800	0.055770
H331	H	0.079378	-0.707776	0.055667
H332	H	0.099818	-0.745105	0.098420
H333	H	-0.026079	-0.470245	0.376824
C334	C	-0.065047	-0.492087	0.337705
C335	C	-0.072231	-0.444273	0.330531
C336	C	-0.101682	-0.410830	0.301006
H337	H	-0.049390	-0.496964	0.306938
H338	H	-0.095816	-0.496954	0.353318
H339	H	-0.041468	-0.439408	0.314918
H340	H	-0.087894	-0.439380	0.361290
H341	H	-0.132451	-0.415697	0.316618
H342	H	-0.086021	-0.415711	0.270241
H343	H	-0.106563	-0.378384	0.296138
H344	H	0.087072	-0.886205	0.386121
H345	H	-0.063498	-0.886058	0.443304
H346	H	-0.235077	-0.614964	0.459366
C347	C	-0.108018	-0.786044	0.414112
C348	C	-0.123475	-0.798495	0.391149
C349	C	-0.173493	-0.772823	0.398245
H350	H	-0.126010	-0.794400	0.448192
H351	H	-0.113469	-0.751824	0.400413
H352	H	-0.118028	-0.832707	0.404850
H353	H	-0.105496	-0.790138	0.357068
H354	H	-0.178944	-0.738603	0.384546
H355	H	-0.191481	-0.781181	0.432326
H356	H	-0.183986	-0.781264	0.382662
C357	C	-0.335019	-0.587283	0.503938
C358	C	-0.301640	-0.616809	0.529543
C359	C	-0.327255	-0.629259	0.579982
H360	H	-0.355031	-0.558310	0.512402
H361	H	-0.355022	-0.604682	0.512323
H362	H	-0.281645	-0.599409	0.521162
H363	H	-0.281628	-0.645788	0.521094
H364	H	-0.347258	-0.646659	0.588367
H365	H	-0.347266	-0.600284	0.588441
H366	H	-0.304611	-0.649297	0.597361
H367	H	-0.234840	-0.539009	0.307312
C368	C	-0.334745	-0.499878	0.329040
C369	C	-0.301251	-0.492723	0.281249
C370	C	-0.326734	-0.463200	0.247762
H371	H	-0.354759	-0.515473	0.333865
H372	H	-0.354735	-0.469103	0.333915
H373	H	-0.281270	-0.523492	0.276376
H374	H	-0.281236	-0.477122	0.276408
H375	H	-0.346724	-0.432425	0.252637
H376	H	-0.346747	-0.478798	0.252592
H377	H	-0.304012	-0.458338	0.215332
