data_functionalizedCrystal
_audit_creation_method	'MofGen! by Chris Wilmer'
_symmetry_space_group_name_H-M	'P1'
_symmetry_Int_Tables_number	1
_symmetry_cell_setting	triclinic
loop_
_symmetry_equiv_pos_as_xyz
  x,y,z
_cell_length_a	15.538191
_cell_length_b	19.288864
_cell_length_c	18.366186
_cell_angle_alpha	90.022894
_cell_angle_beta	89.995484
_cell_angle_gamma	114.795828
loop_
_atom_site_label
_atom_site_type_symbol
_atom_site_fract_x
_atom_site_fract_y
_atom_site_fract_z
O1	O	0.117639	-0.891965	-0.060769
O2	O	0.133508	-0.685740	-0.060717
O3	O	-0.011726	-0.828996	-0.060756
O4	O	0.262873	-0.748709	-0.060729
O5	O	-0.011734	-0.828980	0.060343
O6	O	0.133501	-0.685724	0.060382
O7	O	0.117632	-0.891949	0.060331
Zn8	Zn	0.125565	-0.788834	0.079584
Zn9	Zn	0.125574	-0.788855	-0.079970
O10	O	0.262866	-0.748693	0.060370
C11	C	0.132994	-0.659983	-0.000161
C12	C	0.131461	-0.583263	-0.000142
C13	C	-0.046861	-0.837388	-0.000211
C14	C	-0.151541	-0.862409	-0.000225
C15	C	0.118146	-0.917706	-0.000227
C16	C	0.119679	-0.994427	-0.000251
C17	C	-0.438277	-0.613831	-0.000147
C18	C	-0.536642	-0.637359	-0.000151
C19	C	-0.559647	-0.769703	-0.000185
C20	C	-0.461281	-0.746185	-0.000184
C21	C	-0.400603	-0.668248	-0.000164
C22	C	-0.423608	-0.800603	-0.000201
C23	C	-0.325251	-0.777087	-0.000197
C24	C	-0.264567	-0.699153	-0.000175
C25	C	-0.302246	-0.644732	-0.000160
C26	C	-0.484287	-0.878540	-0.000216
C27	C	-0.446614	-0.932957	-0.000233
C28	C	-0.348255	-0.909441	-0.000234
C29	C	-0.287571	-0.831508	-0.000212
C30	C	-0.310576	-0.963863	-0.000249
C31	C	-0.212219	-0.940346	-0.000244
C32	C	-0.189214	-0.807992	-0.000207
C33	C	0.298001	-0.740301	-0.000177
C34	C	0.402681	-0.715280	-0.000168
N35	N	0.125558	-0.788824	0.188475
C36	C	0.216678	-0.517278	-0.000145
C37	C	0.215238	-0.445191	-0.000153
C38	C	0.128576	-0.439092	-0.000173
C39	C	0.043348	-0.505089	-0.000166
C40	C	0.044790	-0.577175	-0.000150
C41	C	0.060453	-0.347855	-0.042631
C42	C	0.059014	-0.275770	-0.042651
C43	C	0.124123	-0.216759	-0.000218
C44	C	0.190688	-0.229837	0.042226
C45	C	0.192131	-0.301922	0.042242
C46	C	0.127002	-0.360931	-0.000189
C47	C	0.207785	-0.072607	-0.000228
C48	C	0.206341	-0.000520	-0.000232
C49	C	0.034449	-0.060421	-0.000252
C50	C	0.035895	-0.132506	-0.000241
C51	C	0.122565	-0.138594	-0.000233
N52	N	0.125574	-0.788872	-0.188861
C53	C	0.061280	-0.852266	0.226558
C54	C	0.061276	-0.852271	0.302786
C55	C	0.125566	-0.788838	0.340928
C56	C	0.189849	-0.725386	0.302835
C57	C	0.189845	-0.725380	0.226609
C58	C	0.211489	-0.758075	0.461698
C59	C	0.211494	-0.758086	0.537923
C60	C	0.125578	-0.788855	0.576035
C61	C	0.039653	-0.819627	0.537913
C62	C	0.039649	-0.819621	0.461687
C63	C	0.125577	-0.788838	0.423582
C64	C	0.061290	-0.852306	0.696773
C65	C	0.061284	-0.852307	0.773002
C66	C	0.189866	-0.725423	0.773051
C67	C	0.189863	-0.725421	0.696823
C68	C	0.125576	-0.788866	0.658689
H69	H	-0.184479	-0.680008	-0.000167
N70	N	-0.053021	-0.852834	0.579010
H71	H	-0.107450	-0.872334	0.543294
H72	H	-0.055118	-0.896357	0.610606
N73	N	0.307153	-0.374009	-0.000158
H74	H	0.362276	-0.388805	-0.000150
H75	H	0.310289	-0.342827	-0.045059
H76	H	0.007431	-0.395899	-0.077189
H77	H	0.242189	-0.673717	0.195601
H78	H	-0.496031	-0.996414	-0.000246
N79	N	-0.008079	-0.920716	0.655638
H80	H	0.001669	-0.911084	0.601570
H81	H	0.002619	-0.967298	0.668929
H82	H	-0.359994	-1.027319	-0.000258
N83	N	-0.171577	-0.999036	-0.000259
H84	H	-0.224940	-1.051976	-0.000274
H85	H	-0.131266	-0.992165	-0.045150
H86	H	0.281459	-0.733034	0.568956
H87	H	-0.609064	-0.833159	-0.000198
H88	H	-0.252838	-0.581268	-0.000149
N89	N	-0.123745	-0.723934	-0.000188
H90	H	-0.135821	-0.699095	-0.045073
H91	H	-0.135855	-0.699146	0.044739
N92	N	-0.053018	-0.852807	0.420569
H93	H	-0.092203	-0.824080	0.433849
H94	H	-0.039895	-0.848130	0.366512
N95	N	-0.008032	-0.920744	0.814082
H96	H	-0.048747	-0.960935	0.778354
H97	H	0.027993	-0.942356	0.845685
H98	H	0.004817	-0.265127	-0.077214
H99	H	0.287252	-0.522228	-0.000140
H100	H	-0.388869	-0.550366	-0.000136
N101	N	-0.050124	-0.498518	-0.000179
H102	H	-0.038108	-0.442839	-0.000189
H103	H	-0.087406	-0.524222	-0.045070
H104	H	0.242208	-0.673773	0.804105
H105	H	0.246327	-0.312567	0.076803
H106	H	0.243706	-0.181790	0.076780
H107	H	-0.567310	-0.593040	-0.000126
N108	N	0.301259	-0.079182	-0.000216
H109	H	0.355027	-0.026439	-0.000213
H110	H	0.305597	-0.107765	0.044682
N111	N	-0.047126	-0.648350	-0.000144
H112	H	-0.102247	-0.633552	-0.000154
H113	H	-0.050271	-0.679588	-0.045031
N114	N	0.298258	0.070655	-0.000177
H115	H	0.353378	0.055855	-0.000154
H116	H	0.301448	0.101881	-0.045057
H117	H	-0.036113	-0.055457	-0.000313
H118	H	0.242208	-0.673763	0.665814
H119	H	0.008930	-0.903934	0.333798
N120	N	-0.056018	-0.203681	-0.000238
H121	H	-0.111139	-0.188882	-0.000250
H122	H	-0.059164	-0.234921	-0.045123
H123	H	0.008931	-0.903925	0.195511
N124	N	0.304163	-0.724893	0.420597
H125	H	0.291125	-0.729556	0.366524
H126	H	0.340068	-0.669276	0.433945
N127	N	0.259187	-0.656966	0.343969
H128	H	0.249438	-0.666597	0.398037
H129	H	0.326059	-0.648122	0.330640
H130	H	-0.564375	-0.897684	-0.000226
