data_functionalizedCrystal
_audit_creation_method	'MofGen! by Chris Wilmer'
_symmetry_space_group_name_H-M	'P1'
_symmetry_Int_Tables_number	1
_symmetry_cell_setting	triclinic
loop_
_symmetry_equiv_pos_as_xyz
  x,y,z
_cell_length_a	19.077105
_cell_length_b	12.827892
_cell_length_c	19.076919
_cell_angle_alpha	92.275535
_cell_angle_beta	90.076224
_cell_angle_gamma	87.711903
loop_
_atom_site_label
_atom_site_type_symbol
_atom_site_fract_x
_atom_site_fract_y
_atom_site_fract_z
Zn1	Zn	1.058323	-0.505562	-0.440440
Zn2	Zn	1.062981	-0.673587	-0.322941
Zn3	Zn	0.945540	-0.491563	-0.318233
Zn4	Zn	0.940802	-0.672957	-0.435693
O5	O	1.001912	-0.585917	-0.379327
O6	O	1.157274	-0.533973	-0.428810
O7	O	1.051334	-0.643846	-0.223985
O8	O	0.960534	-0.347187	-0.334460
O9	O	1.160695	-0.657421	-0.342484
O10	O	1.043396	-0.357472	-0.424245
O11	O	0.965050	-0.510114	-0.220526
O12	O	0.846579	-0.509503	-0.329857
O13	O	0.952460	-0.656347	-0.534655
O14	O	0.843098	-0.642772	-0.416155
O15	O	1.038802	-0.533362	-0.538142
O16	O	1.046740	-0.819737	-0.337881
O17	O	0.956976	-0.819274	-0.420720
C18	C	0.819342	-0.574551	-0.371981
C19	C	0.741237	-0.569714	-0.368855
C20	C	0.702753	-0.636925	-0.412246
C21	C	0.629365	-0.632367	-0.409312
C22	C	0.594463	-0.560602	-0.362983
C23	C	0.632953	-0.493385	-0.319590
C24	C	0.706339	-0.497938	-0.322528
C25	C	0.375174	-0.539528	-0.349389
C26	C	0.301782	-0.534981	-0.346453
C27	C	0.298199	-0.673963	-0.436177
C28	C	0.371587	-0.678514	-0.439108
C29	C	0.410071	-0.611293	-0.395717
N30	N	0.519449	-0.555944	-0.359982
N31	N	0.485083	-0.615947	-0.398723
C32	C	1.001868	-0.857424	-0.379313
C33	C	1.001913	-0.973581	-0.379333
C34	C	1.046380	-1.025566	-0.338391
C35	C	1.046427	-1.145620	-0.338411
C36	C	1.185194	-0.597329	-0.386702
C37	C	1.263298	-0.602192	-0.389845
C38	C	0.994583	-0.596346	-0.562607
C39	C	0.991460	-0.600790	-0.640711
C40	C	1.001974	-0.313353	-0.379357
C41	C	1.002000	-0.197202	-0.379370
C42	C	1.034945	-0.538849	-0.679221
C43	C	1.032002	-0.543020	-0.752607
C44	C	0.985578	-0.609138	-0.787481
C45	C	0.942089	-0.671081	-0.748966
C46	C	0.945028	-0.666904	-0.675581
C47	C	0.971962	-0.628492	-1.006763
C48	C	0.969027	-0.632667	-1.080153
C49	C	1.058939	-0.504604	-1.083789
C50	C	1.061878	-0.500438	-1.010402
C51	C	1.018386	-0.562376	-0.971894
N52	N	0.982570	-0.613406	-0.862494
N53	N	1.021391	-0.558103	-0.896882
C54	C	1.009252	-0.575456	-0.196761
C55	C	1.012511	-0.570727	-0.118663
H56	H	0.273368	-0.476530	-0.308731
H57	H	0.963881	-1.017954	-0.414402
O58	O	1.091841	-1.199110	-0.296679
C59	C	1.133276	-1.367538	-0.258626
C60	C	1.081804	-1.307089	-0.305921
H61	H	1.125168	-1.454848	-0.266071
H62	H	1.189441	-1.350343	-0.273307
H63	H	1.123291	-1.342160	-0.201444
H64	H	1.091724	-1.332432	-0.363117
H65	H	1.025656	-1.324287	-0.291180
O66	O	0.956677	-1.143847	-0.421270
C67	C	0.943385	-1.025198	-0.515627
C68	C	0.994790	-1.085593	-0.468234
H69	H	0.974179	-0.978067	-0.553599
H70	H	0.909953	-1.082668	-0.546522
H71	H	0.907958	-0.970086	-0.481805
H72	H	1.030261	-1.140705	-0.502004
H73	H	1.028173	-1.028063	-0.437334
H74	H	1.072750	-0.485012	-0.650831
H75	H	1.067413	-0.492584	-0.783958
O76	O	0.896931	-0.735332	-0.782730
C77	C	0.808094	-0.861964	-0.771375
C78	C	0.859190	-0.789222	-0.733050
H79	H	0.777578	-0.905569	-0.731226
H80	H	0.769940	-0.813704	-0.804237
H81	H	0.838979	-0.920527	-0.807043
H82	H	0.828363	-0.730646	-0.697346
H83	H	0.897344	-0.837549	-0.700232
O84	O	0.592090	-0.697774	-0.451481
C85	C	0.596280	-0.836089	-0.540795
C86	C	0.638580	-0.762085	-0.493068
H87	H	0.633849	-0.888089	-0.574441
H88	H	0.563221	-0.886749	-0.507121
H89	H	0.560444	-0.788155	-0.576193
H90	H	0.674454	-0.809937	-0.457661
H91	H	0.671592	-0.711422	-0.526784
O92	O	0.405377	-0.748257	-0.484175
C93	C	0.394078	-0.885673	-0.572825
C94	C	0.355721	-0.806718	-0.521835
H95	H	0.353948	-0.932976	-0.603276
H96	H	0.426959	-0.842062	-0.611045
H97	H	0.429732	-0.940485	-0.541862
H98	H	0.320032	-0.751886	-0.552740
H99	H	0.322884	-0.850397	-0.483615
O100	O	0.599161	-0.423579	-0.274567
C101	C	0.610468	-0.286257	-0.185851
C102	C	0.648823	-0.365243	-0.236822
H103	H	0.650603	-0.239086	-0.155310
H104	H	0.574851	-0.231327	-0.216765
H105	H	0.577549	-0.329943	-0.147707
H106	H	0.681779	-0.321644	-0.274977
H107	H	0.684397	-0.420170	-0.205862
H108	H	1.094347	-0.454176	-1.115150
O109	O	0.412626	-0.474383	-0.307204
C110	C	0.499214	-0.459834	-0.215627
C111	C	0.456856	-0.533732	-0.263375
H112	H	0.534974	-0.507788	-0.180169
H113	H	0.532341	-0.409247	-0.249286
H114	H	0.461642	-0.407748	-0.182043
H115	H	0.494377	-0.585884	-0.296968
H116	H	0.423720	-0.584248	-0.229676
O117	O	0.743806	-0.432802	-0.280344
C118	C	0.830409	-0.418268	-0.188780
C119	C	0.788036	-0.492158	-0.236520
H120	H	0.866168	-0.466228	-0.153326
H121	H	0.863537	-0.367691	-0.222445
H122	H	0.792847	-0.366171	-0.155192
H123	H	0.825547	-0.544321	-0.270117
H124	H	0.754900	-0.542663	-0.202815
O125	O	1.091691	-0.972475	-0.296575
C126	C	1.133006	-0.804419	-0.258482
C127	C	1.081642	-0.864409	-0.305862
H128	H	1.124910	-0.717039	-0.265985
H129	H	1.123000	-0.821796	-0.201292
H130	H	1.189176	-0.830028	-0.273130
H131	H	1.025453	-0.838835	-0.291276
H132	H	1.091709	-0.847030	-0.363040
O133	O	1.106990	-0.436116	-0.976637
C134	C	1.195890	-0.309581	-0.987990
C135	C	1.144818	-0.382357	-1.026318
H136	H	1.226498	-0.266114	-1.028141
H137	H	1.165051	-0.250909	-0.952360
H138	H	1.233967	-0.357907	-0.955089
H139	H	1.106729	-0.334117	-1.059257
H140	H	1.175703	-0.441032	-1.061906
H141	H	0.931220	-0.686511	-1.108546
O142	O	0.260709	-0.739145	-0.478301
C143	C	0.146066	-0.793768	-0.513517
C144	C	0.188437	-0.719873	-0.465779
H145	H	0.087628	-0.778229	-0.503399
H146	H	0.158192	-0.779662	-0.570789
H147	H	0.161021	-0.878182	-0.501669
H148	H	0.173507	-0.635432	-0.477564
H149	H	0.176307	-0.734070	-0.408521
O150	O	0.929681	-0.688747	-0.969470
C151	C	0.840135	-0.816123	-0.973613
C152	C	0.888000	-0.747966	-1.015938
H153	H	0.806413	-0.864002	-1.011164
H154	H	0.873706	-0.870895	-0.940556
H155	H	0.804813	-0.763864	-0.937774
H156	H	0.923330	-0.800144	-1.051815
H157	H	0.854387	-0.693186	-1.048949
O158	O	0.902894	-0.727129	-0.638093
C159	C	0.896737	-0.862945	-0.554866
C160	C	0.944537	-0.794794	-0.597270
H161	H	0.930386	-0.917685	-0.521861
H162	H	0.861397	-0.810777	-0.518987
H163	H	0.863034	-0.910877	-0.592404
H164	H	0.978284	-0.746852	-0.559784
H165	H	0.979831	-0.847020	-0.633158
H166	H	0.731165	-0.695367	-0.449970
