data_functionalizedCrystal
_audit_creation_method	'MofGen! by Chris Wilmer'
_symmetry_space_group_name_H-M	'P1'
_symmetry_Int_Tables_number	1
_symmetry_cell_setting	triclinic
loop_
_symmetry_equiv_pos_as_xyz
  x,y,z
_cell_length_a	19.121414
_cell_length_b	19.120785
_cell_length_c	19.805407
_cell_angle_alpha	92.456682
_cell_angle_beta	87.572606
_cell_angle_gamma	95.004960
loop_
_atom_site_label
_atom_site_type_symbol
_atom_site_fract_x
_atom_site_fract_y
_atom_site_fract_z
Zn1	Zn	1.063652	-0.234355	0.329424
Zn2	Zn	1.563652	0.265645	0.829424
Zn3	Zn	1.058572	-0.352000	0.211601
Zn4	Zn	1.558572	0.148000	0.711601
Zn5	Zn	0.946011	-0.239365	0.220870
Zn6	Zn	1.446011	0.260635	0.720870
Zn7	Zn	0.940939	-0.357012	0.329369
Zn8	Zn	1.440939	0.142988	0.829369
O9	O	1.002293	-0.295683	0.272816
O10	O	1.502293	0.204317	0.772816
O11	O	1.161441	-0.245767	0.309939
O12	O	1.661441	0.254233	0.809939
O13	O	1.043637	-0.337058	0.118114
O14	O	1.543637	0.162942	0.618114
O15	O	0.965865	-0.140230	0.239172
O16	O	1.465865	0.359770	0.739172
O17	O	1.157709	-0.332200	0.223375
O18	O	1.657709	0.167800	0.723375
O19	O	1.052295	-0.136549	0.318926
O20	O	1.552295	0.363451	0.818926
O21	O	0.960939	-0.254306	0.124924
O22	O	1.460939	0.245694	0.624924
O23	O	0.846875	-0.259165	0.239118
O24	O	1.346875	0.240835	0.739118
O25	O	0.957221	-0.340742	0.424093
O26	O	1.457221	0.159258	0.924093
O27	O	0.843149	-0.345600	0.318832
O28	O	1.343149	0.154400	0.818832
O29	O	1.047377	-0.250626	0.424133
O30	O	1.547377	0.249374	0.924133
O31	O	1.038719	-0.451136	0.223322
O32	O	1.538719	0.048864	0.723322
O33	O	0.952295	-0.454817	0.309845
O34	O	1.452295	0.045183	0.809845
C35	C	0.819482	-0.303470	0.279976
C36	C	1.319482	0.196530	0.779976
C37	C	0.741274	-0.306819	0.283054
C38	C	1.241274	0.193181	0.783054
C39	C	0.706454	-0.263322	0.243071
C40	C	1.206454	0.236678	0.743071
C41	C	0.632968	-0.266475	0.245963
C42	C	1.132968	0.233525	0.745963
C43	C	0.594305	-0.313120	0.288842
C44	C	1.094305	0.186880	0.788842
C45	C	0.629130	-0.356622	0.328826
C46	C	1.129130	0.143378	0.828826
C47	C	0.702614	-0.353472	0.325930
C48	C	1.202614	0.146528	0.825930
C49	C	0.372335	-0.324887	0.299655
C50	C	0.872335	0.175113	0.799655
C51	C	0.298846	-0.328031	0.302549
C52	C	0.798846	0.171969	0.802549
C53	C	0.302690	-0.237885	0.219685
C54	C	0.802690	0.262115	0.719685
C55	C	0.376175	-0.234737	0.216796
C56	C	0.876175	0.265263	0.716796
C57	C	0.410994	-0.278241	0.256777
C58	C	0.910994	0.221759	0.756777
C59	C	0.519191	-0.316342	0.291800
C60	C	1.019191	0.183658	0.791800
C61	C	0.486106	-0.275022	0.253815
C62	C	0.986106	0.224978	0.753815
C63	C	0.994425	-0.478508	0.265586
C64	C	1.494425	0.021492	0.765586
C65	C	0.991123	-0.556719	0.262512
C66	C	1.491123	-0.056719	0.762512
C67	C	0.970174	-0.999162	0.243070
C68	C	1.470174	-0.499162	0.743070
C69	C	0.973278	-0.925675	0.245957
C70	C	1.473278	-0.425675	0.745957
C71	C	1.019799	-0.886957	0.288960
C72	C	1.519799	-0.386957	0.788960
C73	C	1.063213	-0.921730	0.329083
C74	C	1.563213	-0.421730	0.829083
C75	C	1.060105	-0.995216	0.326198
C76	C	1.560105	-0.495216	0.826198
C77	C	1.031429	-0.664978	0.299751
C78	C	1.531429	-0.164978	0.799751
C79	C	1.034536	-0.591487	0.302631
C80	C	1.534536	-0.091487	0.802631
C81	C	0.944599	-0.595437	0.219506
C82	C	1.444599	-0.095437	0.719506
C83	C	0.941498	-0.668924	0.216622
C84	C	1.441498	-0.168924	0.716622
C85	C	0.984910	-0.703691	0.256748
C86	C	1.484910	-0.203691	0.756748
C87	C	1.022974	-0.811841	0.291911
C88	C	1.522974	-0.311841	0.791911
C89	C	0.981730	-0.778805	0.253800
C90	C	1.481730	-0.278805	0.753800
C91	C	1.185819	-0.287866	0.265629
C92	C	1.685819	0.212134	0.765629
C93	C	1.264026	-0.284535	0.262566
C94	C	1.764026	0.215465	0.762566
C95	C	1.002300	-0.295684	0.449358
C96	C	1.502300	0.204316	0.949358
C97	C	1.002302	-0.295685	0.524590
C98	C	1.502302	0.204315	1.024590
C99	C	1.010212	-0.112143	0.280089
C100	C	1.510212	0.387857	0.780089
C101	C	1.013587	-0.033930	0.283188
C102	C	1.513587	0.466070	0.783188
C103	C	1.049241	-0.248769	0.559957
C104	C	1.549241	0.251231	1.059957
C105	C	1.049235	-0.248767	0.630645
C106	C	1.549235	0.251233	1.130645
C107	C	1.002293	-0.295685	0.665966
C108	C	1.502293	0.204315	1.165966
C109	C	0.955350	-0.342603	0.630595
C110	C	1.455350	0.157397	1.130595
C111	C	0.955353	-0.342601	0.559908
C112	C	1.455353	0.157399	1.059908
C113	C	0.955336	-0.342612	0.915669
C114	C	1.455336	0.157388	1.415669
C115	C	0.955337	-0.342612	0.986361
C116	C	1.455337	0.157388	1.486361
C117	C	1.049218	-0.248778	0.986406
C118	C	1.549218	0.251222	1.486406
C119	C	1.049221	-0.248776	0.915719
C120	C	1.549221	0.251224	1.415719
C121	C	1.002275	-0.295691	0.880354
C122	C	1.502275	0.204309	1.380354
C123	C	1.002281	-0.295692	0.803705
C124	C	1.502281	0.204308	1.303705
C125	C	1.002290	-0.295688	0.742613
C126	C	1.502290	0.204312	1.242613
C127	C	1.002280	-0.295697	1.096960
C128	C	1.502280	0.204303	1.596960
C129	C	1.002273	-0.295692	1.021729
C130	C	1.502273	0.204308	1.521729
H131	H	0.604621	-0.231059	0.213401
H132	H	1.104621	0.268941	0.713401
Cl133	Cl	0.424776	-0.176087	0.162896
Cl134	Cl	0.924776	0.323913	0.662896
H135	H	0.597644	-0.394605	0.363735
H136	H	1.097644	0.105395	0.863735
Cl137	Cl	1.108234	-0.189795	1.030869
Cl138	Cl	1.608234	0.310205	1.530869
H139	H	1.060854	-0.780310	0.326923
H140	H	1.560854	-0.280310	0.826923
H141	H	0.267368	-0.366015	0.337470
H142	H	0.767368	0.133985	0.837470
H143	H	1.101089	-0.890201	0.364100
H144	H	1.601089	-0.390201	0.864100
H145	H	0.487703	-0.354320	0.326713
H146	H	0.987703	0.145680	0.826713
H147	H	1.087448	-0.210573	0.886964
H148	H	1.587448	0.289427	1.386964
Cl149	Cl	0.896320	-0.401598	1.030764
Cl150	Cl	1.396320	0.098402	1.530764
Cl151	Cl	1.108260	-0.189786	0.515560
Cl152	Cl	1.608260	0.310214	1.015560
H153	H	0.737929	-0.225333	0.208160
H154	H	1.237929	0.274667	0.708160
H155	H	0.937927	-0.897367	0.213290
H156	H	1.437927	-0.397367	0.713290
H157	H	0.274333	-0.202467	0.187134
H158	H	0.774333	0.297533	0.687134
H159	H	0.917124	-0.380798	0.531114
H160	H	1.417124	0.119202	1.031114
Cl161	Cl	1.093026	-0.542813	0.356693
Cl162	Cl	1.593026	-0.042813	0.856693
Cl163	Cl	0.890024	-0.551726	0.169069
Cl164	Cl	1.390024	-0.051726	0.669069
H165	H	0.400675	-0.360311	0.332211
H166	H	0.900675	0.139689	0.832211
Cl167	Cl	0.896318	-0.401592	0.871219
Cl168	Cl	1.396318	0.098408	1.371219
Cl169	Cl	0.911691	-1.047829	0.189003
Cl170	Cl	1.411691	-0.547829	0.689003
H171	H	0.730963	-0.388892	0.358488
H172	H	1.230963	0.111108	0.858488
Cl173	Cl	1.085999	-0.708675	0.350201
Cl174	Cl	1.585999	-0.208675	0.850201
Cl175	Cl	1.114683	-1.038924	0.376636
Cl176	Cl	1.614683	-0.538924	0.876636
H177	H	0.903617	-0.700443	0.181604
H178	H	1.403617	-0.200443	0.681604
Cl179	Cl	0.923245	-0.827480	0.199745
Cl180	Cl	1.423245	-0.327480	0.699745
Cl181	Cl	0.534712	-0.216386	0.199910
Cl182	Cl	1.034712	0.283614	0.699910
H183	H	1.087458	-0.210565	0.659437
H184	H	1.587458	0.289435	1.159437
H185	H	0.917127	-0.380802	0.659359
H186	H	1.417127	0.119198	1.159359
