data_functionalizedCrystal
_audit_creation_method	'MofGen! by Chris Wilmer'
_symmetry_space_group_name_H-M	'P1'
_symmetry_Int_Tables_number	1
_symmetry_cell_setting	triclinic
loop_
_symmetry_equiv_pos_as_xyz
  x,y,z
_cell_length_a	14.971486
_cell_length_b	9.798715
_cell_length_c	14.971496
_cell_angle_alpha	90.004058
_cell_angle_beta	83.616127
_cell_angle_gamma	89.998730
loop_
_atom_site_label
_atom_site_type_symbol
_atom_site_fract_x
_atom_site_fract_y
_atom_site_fract_z
O1	O	1.186948	0.113337	0.116560
O2	O	0.926548	0.113374	0.130519
O3	O	1.063723	0.113343	-0.006660
O4	O	1.049773	0.113369	0.253739
O5	O	1.063713	-0.113640	-0.006660
O6	O	0.926538	-0.113608	0.130519
O7	O	1.186938	-0.113645	0.116560
Zn8	Zn	1.056736	-0.149665	0.123539
Zn9	Zn	1.056750	0.149394	0.123540
O10	O	1.049763	-0.113613	0.253739
C11	C	0.893218	-0.000112	0.129895
C12	C	0.793921	-0.000098	0.128024
N13	N	1.056734	-0.353765	0.123538
C14	C	0.736699	-0.000092	0.208613
C15	C	0.643399	-0.000112	0.206850
C16	C	0.607324	-0.000129	0.124497
C17	C	0.664554	-0.000140	0.043902
C18	C	0.757852	-0.000129	0.045666
C19	C	0.470091	-0.000159	0.040231
C20	C	0.376787	-0.000167	0.038466
C21	C	0.355639	-0.000142	0.201414
C22	C	0.448937	-0.000132	0.203179
C23	C	0.506160	-0.000139	0.122583
C24	C	1.114331	-0.421555	0.065689
C25	C	1.114346	-0.578718	0.065686
C26	C	1.220268	-0.000156	0.117184
C27	C	1.319565	-0.000161	0.119055
C28	C	1.063092	-0.000149	-0.039985
C29	C	1.061218	-0.000149	-0.139281
N30	N	1.056759	0.353494	0.123533
C31	C	1.053156	0.123616	-0.566985
C32	C	1.054922	0.123609	-0.473686
C33	C	1.055793	-0.000124	-0.427043
C34	C	1.054907	-0.123859	-0.473704
C35	C	1.053148	-0.123851	-0.567003
C36	C	1.058572	-0.123866	-0.279241
C37	C	1.060330	-0.123875	-0.185936
C38	C	1.060346	0.123594	-0.185924
C39	C	1.058587	0.123602	-0.279223
C40	C	1.057700	-0.000134	-0.325878
C41	C	1.050394	-0.000119	0.287063
C42	C	1.052268	-0.000110	0.386360
H43	H	0.596812	-0.000106	0.272473
C44	C	1.180967	-0.657462	-0.001227
C45	C	1.145693	-0.755788	-0.069484
C46	C	1.212317	-0.834536	-0.136399
C47	C	1.314215	-0.814956	-0.135057
C48	C	1.349494	-0.716625	-0.066797
C49	C	1.282870	-0.637878	0.000118
H50	H	1.070257	-0.770286	-0.070480
H51	H	1.186200	-0.907327	-0.186930
H52	H	1.363534	-0.873249	-0.184592
H53	H	1.424930	-0.702127	-0.065801
H54	H	1.308987	-0.565086	0.050649
C55	C	0.820801	-0.000133	-0.042983
C56	C	0.816704	-0.118009	-0.110438
C57	C	0.879653	-0.118020	-0.199089
C58	C	0.946699	-0.000155	-0.220285
C59	C	0.950799	0.117730	-0.152828
C60	C	0.887850	0.117741	-0.064177
H61	H	0.767070	-0.205267	-0.094749
H62	H	0.876618	-0.205287	-0.249025
H63	H	0.993298	-0.000164	-0.285910
H64	H	1.000433	0.204988	-0.168517
H65	H	0.890885	0.205008	-0.014241
C66	C	0.990127	-0.432528	0.190448
C67	C	0.888225	-0.413033	0.189078
C68	C	0.821615	-0.491793	0.255990
C69	C	0.856908	-0.590047	0.324271
C70	C	0.958815	-0.609547	0.325643
C71	C	1.025425	-0.530787	0.258731
H72	H	0.862094	-0.340295	0.138530
H73	H	0.746177	-0.477357	0.254974
H74	H	0.807600	-0.648350	0.373803
H75	H	0.984946	-0.682285	0.376191
H76	H	1.100863	-0.545223	0.259747
H77	H	1.007448	-0.588218	0.173067
H78	H	1.061061	0.224344	-0.147932
H79	H	0.516681	-0.000167	-0.025399
H80	H	1.163630	-0.363244	0.016160
C81	C	1.055887	0.259714	-0.422369
C82	C	1.133252	0.361794	-0.445267
C83	C	1.134215	0.497907	-0.393952
C84	C	1.057814	0.531940	-0.319739
C85	C	0.980444	0.429858	-0.296837
C86	C	0.979481	0.293745	-0.348152
H87	H	1.189813	0.336603	-0.500208
H88	H	1.191490	0.573475	-0.410906
H89	H	1.058527	0.632699	-0.281752
H90	H	0.923883	0.455049	-0.241896
H91	H	0.922206	0.218177	-0.331198
H92	H	0.635174	-0.000173	-0.023152
C93	C	1.061289	-0.259975	-0.134620
C94	C	0.983433	-0.362043	-0.137380
C95	C	0.984388	-0.498142	-0.086060
C96	C	1.063199	-0.532173	-0.031981
C97	C	1.141061	-0.430103	-0.029220
C98	C	1.140106	-0.294004	-0.080539
H99	H	0.925087	-0.336853	-0.177414
H100	H	0.926750	-0.573701	-0.088105
H101	H	1.063906	-0.632922	0.006008
H102	H	1.199407	-0.455292	0.010815
H103	H	1.197744	-0.218445	-0.078494
H104	H	1.057851	-0.224625	-0.317225
C105	C	0.776378	-0.000071	0.299203
C106	C	0.837619	-0.117923	0.322824
C107	C	0.877295	-0.117906	0.413417
C108	C	0.855730	-0.000036	0.480389
C109	C	0.794487	0.117825	0.456770
C110	C	0.754810	0.117808	0.366177
H111	H	0.853585	-0.205186	0.273246
H112	H	0.922632	-0.205155	0.430901
H113	H	0.885101	-0.000023	0.547452
H114	H	0.778520	0.205088	0.506349
H115	H	0.709473	0.205057	0.348693
H116	H	0.478306	-0.000105	0.270237
H117	H	0.309043	-0.000142	0.267038
H118	H	0.347418	-0.000183	-0.028593
H119	H	1.052438	0.224374	-0.604954
H120	H	1.057872	0.224357	-0.317197
H121	H	1.055623	-0.224605	-0.435721
H122	H	1.052424	-0.224601	-0.604988
