data_functionalizedCrystal
_audit_creation_method	'MofGen! by Chris Wilmer'
_symmetry_space_group_name_H-M	'P1'
_symmetry_Int_Tables_number	1
_symmetry_cell_setting	triclinic
loop_
_symmetry_equiv_pos_as_xyz
  x,y,z
_cell_length_a	10.489741
_cell_length_b	14.971486
_cell_length_c	13.448316
_cell_angle_alpha	90.006811
_cell_angle_beta	89.995953
_cell_angle_gamma	95.923349
loop_
_atom_site_label
_atom_site_type_symbol
_atom_site_fract_x
_atom_site_fract_y
_atom_site_fract_z
O1	O	1.692597	-0.126198	-0.082631
O2	O	2.192597	0.373802	0.417369
O3	O	1.321264	-0.138043	-0.082646
O4	O	1.821264	0.361957	0.417354
O5	O	1.516883	-0.001977	-0.082631
O6	O	2.016883	0.498023	0.417369
O7	O	1.496978	-0.262264	-0.082646
O8	O	1.996978	0.237736	0.417354
O9	O	1.516859	-0.001968	0.082753
O10	O	2.016859	0.498032	0.582753
O11	O	1.321240	-0.138035	0.082737
O12	O	1.821240	0.361965	0.582737
O13	O	1.692572	-0.126189	0.082753
O14	O	2.192572	0.373811	0.582753
Cu15	Cu	1.506904	-0.132111	0.097846
Cu16	Cu	2.006904	0.367889	0.597846
Cu17	Cu	1.506933	-0.132121	-0.097740
Cu18	Cu	2.006933	0.367879	0.402260
O19	O	1.496953	-0.262255	0.082738
O20	O	1.996953	0.237745	0.582738
C21	C	1.273731	-0.137144	0.000043
C22	C	1.773731	0.362856	0.500043
C23	C	1.132132	-0.134468	0.000038
C24	C	1.632132	0.365532	0.500038
N25	N	1.506893	-0.132103	0.235410
N26	N	2.006893	0.367897	0.735410
C27	C	1.515981	0.031357	0.000060
C28	C	2.015981	0.531357	0.500060
C29	C	1.513313	0.130669	0.000059
C30	C	2.013313	0.630669	0.500059
C31	C	1.064994	-0.047893	0.000052
C32	C	1.564994	0.452107	0.500052
C33	C	0.972406	-0.088794	-0.081491
C34	C	1.472406	0.411206	0.418509
C35	C	0.972415	-0.088806	0.081564
C36	C	1.472415	0.411194	0.581564
C37	C	1.041409	-0.175405	-0.081573
C38	C	1.541409	0.324595	0.418427
C39	C	1.041428	-0.175405	0.081556
C40	C	1.541428	0.324595	0.581556
C41	C	0.948867	-0.216369	-0.000007
C42	C	1.448867	0.283631	0.499993
C43	C	1.740106	-0.127088	0.000061
C44	C	2.240106	0.372912	0.500061
C45	C	1.881704	-0.129765	0.000060
C46	C	2.381704	0.370235	0.500060
C47	C	1.497856	-0.295589	0.000044
C48	C	1.997856	0.204411	0.500044
C49	C	1.500523	-0.394902	0.000038
C50	C	2.000523	0.105098	0.500038
C51	C	1.628234	0.187241	0.000065
C52	C	2.128234	0.687241	0.500065
C53	C	1.625720	0.280554	0.000055
C54	C	2.125720	0.780554	0.500055
C55	C	1.508283	0.317295	0.000046
C56	C	2.008283	0.817295	0.500046
C57	C	1.393354	0.260716	0.000038
C58	C	1.893354	0.760716	0.500038
C59	C	1.395869	0.167404	0.000041
C60	C	1.895869	0.667404	0.500041
C61	C	1.388119	0.455209	0.000034
C62	C	1.888119	0.955209	0.500034
C63	C	1.385603	0.548527	0.000033
C64	C	1.885603	1.048527	0.500033
C65	C	1.617969	0.568359	0.000048
C66	C	2.117969	1.068359	0.500048
C67	C	1.620485	0.475047	0.000051
C68	C	2.120485	0.975047	0.500051
C69	C	1.505554	0.418474	0.000044
C70	C	2.005554	0.918474	0.500044
N71	N	1.506954	-0.132122	-0.235304
N72	N	2.006954	0.367878	0.264696
C73	C	1.593540	-0.071879	0.287457
C74	C	2.093540	0.428121	0.787457
C75	C	1.593548	-0.071878	0.391561
C76	C	2.093548	0.428122	0.891561
C77	C	1.506914	-0.132107	0.443615
C78	C	2.006914	0.367893	0.943615
C79	C	1.420257	-0.192335	0.391560
C80	C	1.920257	0.307665	0.891560
C81	C	1.420244	-0.192331	0.287459
C82	C	1.920244	0.307669	0.787459
C83	C	1.420293	-0.192341	0.608540
C84	C	1.920293	0.307659	1.108540
C85	C	1.420307	-0.192347	0.712649
C86	C	1.920307	0.307653	1.212649
C87	C	1.593596	-0.071888	0.712642
C88	C	2.093596	0.428112	1.212642
C89	C	1.593583	-0.071884	0.608541
C90	C	2.093583	0.428116	1.108541
C91	C	1.506928	-0.132113	0.556493
C92	C	2.006928	0.367887	1.056493
H93	H	1.115507	0.023277	-0.000046
H94	H	1.615507	0.523277	0.499954
H95	H	1.349759	-0.241391	0.755026
H96	H	1.849759	0.258609	1.255026
H97	H	1.723864	0.157334	0.000078
H98	H	2.223864	0.657334	0.500078
F99	F	1.748035	0.340758	0.000062
F100	F	2.248035	0.840758	0.500062
F101	F	1.685821	-0.007790	0.768038
F102	F	2.185821	0.492210	1.268038
H103	H	1.349686	-0.241371	0.245083
H104	H	1.849686	0.258629	0.745083
F105	F	1.328047	-0.256432	0.446961
F106	F	1.828047	0.243568	0.946961
H107	H	1.071824	-0.212011	-0.150589
H108	H	1.571824	0.287989	0.349411
H109	H	1.349725	-0.241383	0.566167
H110	H	1.849725	0.258617	1.066167
H111	H	1.664101	-0.022838	0.433937
H112	H	2.164101	0.477162	0.933937
H113	H	0.898618	-0.287614	-0.000056
H114	H	1.398618	0.212386	0.499944
H115	H	0.941851	-0.052155	0.150503
H116	H	1.441851	0.447845	0.650503
F117	F	0.932437	-0.040921	-0.171597
F118	F	1.432437	0.459079	0.328403
F119	F	1.740288	0.628568	0.000051
F120	F	2.240288	1.128568	0.500051
F121	F	1.273555	0.107197	0.000032
F122	F	1.773555	0.607197	0.500032
F123	F	1.685755	-0.007777	0.232067
F124	F	2.185755	0.492223	0.732067
F125	F	1.081444	-0.223242	0.171665
F126	F	1.581444	0.276758	0.671665
H127	H	1.716112	0.445136	0.000065
H128	H	2.216112	0.945136	0.500065
F129	F	1.265796	0.395002	0.000025
F130	F	1.765796	0.895002	0.500025
H131	H	1.297735	0.290638	0.000025
H132	H	1.797735	0.790638	0.500025
F133	F	1.260614	0.587627	0.000025
F134	F	1.760614	1.087627	0.500025
F135	F	1.685794	-0.007788	0.553140
F136	F	2.185794	0.492212	1.053140
