data_functionalizedCrystal
_audit_creation_method	'MofGen! by Chris Wilmer'
_symmetry_space_group_name_H-M	'P1'
_symmetry_Int_Tables_number	1
_symmetry_cell_setting	triclinic
loop_
_symmetry_equiv_pos_as_xyz
  x,y,z
_cell_length_a	17.038275
_cell_length_b	11.792241
_cell_length_c	10.868271
_cell_angle_alpha	89.998441
_cell_angle_beta	90.001969
_cell_angle_gamma	87.652600
loop_
_atom_site_label
_atom_site_type_symbol
_atom_site_fract_x
_atom_site_fract_y
_atom_site_fract_z
O1	O	-1.038456	-0.246562	0.102146
O2	O	-0.538456	0.253438	0.602146
O3	O	-0.810808	-0.242646	0.102187
O4	O	-0.310808	0.257354	0.602187
O5	O	-0.930157	-0.079917	0.102157
O6	O	-0.430157	0.420083	0.602157
O7	O	-0.919108	-0.409290	0.102176
O8	O	-0.419108	0.090710	0.602176
O9	O	-0.930146	-0.079922	-0.102488
O10	O	-0.430146	0.420078	0.397512
O11	O	-0.810798	-0.242651	-0.102458
O12	O	-0.310798	0.257349	0.397542
O13	O	-1.038446	-0.246566	-0.102499
O14	O	-0.538446	0.253434	0.397501
Zn15	Zn	-0.924620	-0.244609	-0.134970
Zn16	Zn	-0.424620	0.255391	0.365030
Zn17	Zn	-0.924634	-0.244603	0.134658
Zn18	Zn	-0.424634	0.255397	0.634658
O19	O	-0.919097	-0.409295	-0.102469
O20	O	-0.419097	0.090705	0.397531
C21	C	-0.781659	-0.239087	-0.000130
C22	C	-0.281659	0.260913	0.499870
C23	C	-0.694819	-0.228463	-0.000115
C24	C	-0.194819	0.271537	0.499885
C25	C	-0.929457	-0.037568	-0.000165
C26	C	-0.429457	0.462432	0.499835
C27	C	-0.927380	0.088628	-0.000164
C28	C	-0.427380	0.588628	0.499836
C29	C	-0.645136	-0.326003	-0.000109
C30	C	-0.145136	0.173997	0.499891
C31	C	-0.563542	-0.316014	-0.000124
C32	C	-0.063542	0.183986	0.499876
C33	C	-0.531632	-0.208484	-0.000137
C34	C	-0.031632	0.291516	0.499863
C35	C	-0.581321	-0.110937	-0.000147
C36	C	-0.081321	0.389063	0.499853
C37	C	-0.662914	-0.120927	-0.000140
C38	C	-0.162914	0.379073	0.499860
C39	C	-0.285718	-0.173190	-0.000166
C40	C	0.214282	0.326810	0.499834
C41	C	-0.204118	-0.163207	-0.000170
C42	C	0.295882	0.336793	0.499830
C43	C	-0.186344	-0.368285	-0.000150
C44	C	0.313656	0.131715	0.499850
C45	C	-0.267940	-0.378266	-0.000135
C46	C	0.232060	0.121734	0.499865
C47	C	-0.317622	-0.280719	-0.000151
C48	C	0.182378	0.219281	0.499849
C49	C	-0.448229	-0.198270	-0.000149
C50	C	0.051771	0.301730	0.499851
C51	C	-0.401023	-0.290933	-0.000148
C52	C	0.098977	0.209067	0.499852
N53	N	-0.924616	-0.244613	-0.318984
N54	N	-0.424616	0.255387	0.181016
C55	C	-0.067595	-0.250124	-0.000174
C56	C	0.432405	0.249876	0.499826
C57	C	-0.154435	-0.260746	-0.000164
C58	C	0.345565	0.239254	0.499836
C59	C	-0.919797	-0.451644	-0.000144
C60	C	-0.419797	0.048356	0.499856
C61	C	-0.921874	-0.577840	-0.000138
C62	C	-0.421874	-0.077840	0.499862
C63	C	-0.923560	0.319675	-0.000142
C64	C	-0.423560	0.819675	0.499858
C65	C	-0.925683	0.191104	-0.000154
C66	C	-0.425683	0.691104	0.499846
C67	C	-0.924622	-0.244614	-0.430322
C68	C	-0.424622	0.255386	0.069678
C69	C	-0.924632	-0.244605	-0.569999
C70	C	-0.424632	0.255395	-0.069999
N71	N	-0.924644	-0.244591	0.318672
N72	N	-0.424644	0.255409	0.818672
H73	H	-0.671110	-0.413565	-0.000098
H74	H	-0.171110	0.086435	0.499902
H75	H	-0.293914	-0.465828	-0.000111
H76	H	0.206086	0.034172	0.499889
O77	O	-0.138003	-0.462952	0.000019
O78	O	0.361997	0.037048	0.500019
C79	C	-0.035593	-0.570729	0.106072
C80	C	0.464407	-0.070729	0.606072
C81	C	-0.090281	-0.463454	0.106025
C82	C	0.409719	0.036546	0.606025
H83	H	0.002993	-0.571182	0.191782
H84	H	0.502993	-0.071182	0.691782
H85	H	0.003100	-0.571192	0.020483
H86	H	0.503100	-0.071192	0.520483
H87	H	-0.072432	-0.649282	0.106020
H88	H	0.427568	-0.149282	0.606020
H89	H	-0.053504	-0.384844	0.106121
H90	H	0.446496	0.115156	0.606121
H91	H	-0.128978	-0.463092	0.191607
H92	H	0.371022	0.036908	0.691607
H93	H	-0.555334	-0.023383	-0.000175
H94	H	-0.055334	0.476617	0.499825
H95	H	-0.703366	-0.041499	-0.000144
H96	H	-0.203366	0.458501	0.499856
H97	H	-0.427008	-0.378483	-0.000145
H98	H	0.072992	0.121517	0.499855
H99	H	-0.422239	-0.110719	-0.000194
H100	H	0.077761	0.389281	0.499806
O101	O	-0.172990	-0.058832	-0.000139
O102	O	0.327010	0.441168	0.499861
C103	C	-0.055165	0.047432	-0.000238
C104	C	0.444835	0.547432	0.499762
C105	C	-0.090313	-0.070832	-0.000245
C106	C	0.409687	0.429168	0.499755
H107	H	0.011684	0.037770	-0.000350
H108	H	0.511684	0.537770	0.499650
H109	H	-0.075529	0.096070	0.085415
H110	H	0.424471	0.596070	0.585415
H111	H	-0.075637	0.096014	-0.085872
H112	H	0.424363	0.596014	0.414128
H113	H	-0.069857	-0.119508	0.085331
H114	H	0.430143	0.380492	0.585331
H115	H	-0.069953	-0.119384	-0.085955
H116	H	0.430047	0.380616	0.414045
O117	O	-0.333860	-0.078320	-0.000122
O118	O	0.166140	0.421680	0.499878
C119	C	-0.342871	0.126143	-0.000219
C120	C	0.157129	0.626143	0.499781
C121	C	-0.288256	0.018792	-0.000239
C122	C	0.211744	0.518792	0.499761
H123	H	-0.306022	0.204685	-0.000339
H124	H	0.193978	0.704685	0.499661
H125	H	-0.381500	0.126683	0.085443
H126	H	0.118500	0.626683	0.585443
H127	H	-0.381532	0.126526	-0.085844
H128	H	0.118468	0.626526	0.414156
H129	H	-0.249546	0.018338	0.085328
H130	H	0.250454	0.518338	0.585328
H131	H	-0.249680	0.018293	-0.085958
H132	H	0.250320	0.518293	0.414042
H133	H	-0.523092	-0.395441	-0.000118
H134	H	-0.023092	0.104559	0.499882
