data_functionalizedCrystal
_audit_creation_method	'MofGen! by Chris Wilmer'
_symmetry_space_group_name_H-M	'P1'
_symmetry_Int_Tables_number	1
_symmetry_cell_setting	triclinic
loop_
_symmetry_equiv_pos_as_xyz
  x,y,z
_cell_length_a	19.851628
_cell_length_b	14.560438
_cell_length_c	14.560438
_cell_angle_alpha	90.001148
_cell_angle_beta	59.997497
_cell_angle_gamma	60.003912
loop_
_atom_site_label
_atom_site_type_symbol
_atom_site_fract_x
_atom_site_fract_y
_atom_site_fract_z
Zr1	Zr	0.737319	0.884837	-0.120559
O2	O	0.877851	0.738201	-0.267216
O3	O	0.596787	0.929780	-0.075594
O4	O	0.737317	0.929792	-0.267204
O5	O	0.737323	0.738190	0.075532
O6	O	0.737315	1.080933	-0.267202
O7	O	0.737321	0.738189	-0.075606
O8	O	0.485933	1.080911	0.075554
O9	O	0.988705	0.738212	-0.267223
O10	O	0.654588	1.061753	-0.056423
O11	O	0.654591	0.948959	0.056368
O12	O	0.820047	0.948974	-0.169228
O13	O	0.820049	0.836180	-0.056437
Zr14	Zr	0.737319	1.125891	0.120493
Zr15	Zr	0.737316	1.125889	-0.120555
Zr16	Zr	0.737322	0.884839	0.120489
Zr17	Zr	0.914118	0.884854	-0.120570
Zr18	Zr	0.560520	1.125874	0.120504
O19	O	0.877851	1.080948	0.075528
O20	O	0.877847	1.080946	-0.267211
O21	O	0.877855	0.738203	0.075523
O22	O	0.596787	1.272527	0.267150
O23	O	0.596783	1.272525	-0.075589
O24	O	0.596791	0.929782	0.267145
O25	O	0.737315	1.272538	-0.075598
O26	O	0.737321	1.080936	0.267138
O27	O	0.737323	0.929795	0.267136
O28	O	0.737317	1.272539	0.075540
O29	O	0.988703	0.929816	-0.267220
O30	O	0.485935	1.080912	0.267155
O31	O	0.485933	1.272516	0.267158
O32	O	0.485931	1.272515	0.075556
O33	O	0.988707	0.738213	-0.075622
O34	O	0.988705	0.929817	-0.075619
O35	O	0.654591	1.061754	0.169163
O36	O	0.654588	1.174548	0.056371
O37	O	0.820047	1.061769	-0.056434
O38	O	0.820049	0.948975	0.056357
C39	C	0.516170	1.005343	-0.000019
C40	C	0.441114	1.005336	-0.000014
C41	C	0.737323	1.005366	0.301482
C42	C	0.737324	1.005366	0.403813
C43	C	0.737315	1.306884	-0.000028
C44	C	0.737314	1.409216	-0.000027
C45	C	0.259756	0.943855	0.061475
C46	C	0.270094	0.899284	-0.044588
C47	C	0.303694	1.005354	-0.000029
C48	C	0.159641	1.049891	0.106007
C49	C	0.170949	1.005371	-0.000035
C50	C	0.315065	0.960721	-0.106154
C51	C	0.204567	1.111387	0.044517
C52	C	0.214938	1.066842	-0.061609
C53	C	0.380165	1.005342	-0.000024
C54	C	0.094484	1.005382	-0.000052
C55	C	0.958468	1.005385	-0.000047
C56	C	1.033524	1.005392	-0.000052
C57	C	0.737323	0.703845	-0.000037
C58	C	0.737324	0.601512	-0.000039
C59	C	0.650948	1.516162	0.058857
C60	C	0.650953	1.612311	0.058848
C61	C	0.823697	1.494554	-0.058930
C62	C	0.823691	1.398408	-0.058927
C63	C	0.737315	1.005362	-0.301547
C64	C	0.737314	1.005362	-0.403878
C65	C	0.823690	0.946498	0.393008
C66	C	0.823685	0.946492	0.489163
C67	C	0.650941	1.064232	0.606924
C68	C	0.650947	1.064230	0.510770
C69	C	0.516166	1.306862	-0.000014
C70	C	0.441109	1.409188	-0.000008
C71	C	0.516174	1.005345	0.301496
C72	C	0.441119	1.005338	0.403832
C73	C	0.516170	1.306864	0.301500
C74	C	0.441114	1.409190	0.403838
C75	C	0.958468	0.703864	-0.301566
C76	C	1.033524	0.601538	-0.403904
C77	C	0.958472	0.703866	-0.000052
C78	C	1.033529	0.601540	-0.000058
C79	C	0.958464	1.005384	-0.301562
C80	C	1.033519	1.005390	-0.403898
C81	C	0.405861	1.398363	-0.058892
C82	C	0.335347	1.494500	-0.058909
C83	C	0.300076	1.601461	-0.000034
C84	C	0.335331	1.612283	0.058853
C85	C	0.405849	1.516147	0.058862
C86	C	0.405872	1.064213	0.510778
C87	C	0.335360	1.064202	0.606943
C88	C	0.300091	1.005323	0.596159
C89	C	0.335345	0.946441	0.489202
C90	C	0.405860	0.946445	0.393040
C91	C	0.405865	1.516131	0.393021
C92	C	0.335352	1.612287	0.489169
C93	C	0.300084	1.601499	0.596132
C94	C	0.335339	1.494547	0.606947
C95	C	0.405856	1.398394	0.510801
C96	C	1.068781	0.494597	-0.393087
C97	C	1.139316	0.398441	-0.489234
C98	C	1.174588	0.409229	-0.596198
C99	C	1.139328	0.516181	-0.607013
C100	C	1.068799	0.612334	-0.510866
C101	C	1.068784	0.612365	0.058817
C102	C	1.139318	0.516228	0.058807
C103	C	1.174591	0.409268	-0.000072
C104	C	1.139333	0.398445	-0.058954
C105	C	1.068805	0.494581	-0.058950
C106	C	1.068766	1.064281	-0.393078
C107	C	1.139278	1.064309	-0.489225
C108	C	1.174548	1.005439	-0.596189
C109	C	1.139294	0.946547	-0.607007
C110	C	1.068778	0.946526	-0.510861
H111	H	0.279501	0.891780	0.113407
C112	C	0.918706	1.482667	-0.123708
H113	H	0.970142	1.405201	-0.158786
H114	H	0.922302	1.517725	-0.072892
H115	H	0.922295	1.517727	-0.179430
H116	H	1.040102	0.485751	-0.106890
H117	H	0.242673	1.005328	0.674470
H118	H	0.434549	0.898506	0.305963
H119	H	0.434539	1.524977	0.106820
C120	C	1.178087	0.280806	-0.477324
H121	H	1.225153	0.225078	-0.549899
H122	H	1.127456	0.272374	-0.437376
H123	H	1.205589	0.272391	-0.437360
C124	C	0.555950	1.729948	0.123627
H125	H	0.504510	1.722609	0.158711
H126	H	0.552353	1.769907	0.072813
H127	H	0.552368	1.769898	0.179345
H128	H	0.434581	1.112160	0.519579
H129	H	0.306651	1.485666	-0.106861
C130	C	0.296515	1.729940	0.123633
H131	H	0.327603	1.722630	0.158708
H132	H	0.229935	1.769868	0.179338
H133	H	0.308072	1.769903	0.072812
C134	C	1.029979	1.129048	-0.275430
H135	H	1.061070	1.164130	-0.282772
H136	H	1.041540	1.078234	-0.235470
H137	H	0.963394	1.184760	-0.235473
H138	H	1.040088	0.898565	-0.519686
H139	H	1.232017	0.330926	-0.674478
C140	C	0.918685	0.881743	0.477280
H141	H	0.906315	0.890162	0.549862
H142	H	0.954171	0.910826	0.437335
H143	H	0.954176	0.804280	0.437322
C144	C	0.296586	1.128986	0.724580
H145	H	0.327682	1.164067	0.717221
H146	H	0.308150	1.078179	0.764544
H147	H	0.230001	1.184701	0.764542
C148	C	1.252166	0.303525	-0.000067
H149	H	1.268133	0.238267	-0.043569
H150	H	1.229047	0.303530	0.074952
H151	H	1.307188	0.303537	-0.031598
C152	C	0.296532	0.881694	0.477355
H153	H	0.249479	0.890143	0.549948
H154	H	0.347144	0.804232	0.437402
H155	H	0.269003	0.910787	0.437422
C156	C	1.178133	0.280786	-0.123706
H157	H	1.225176	0.225090	-0.115258
H158	H	1.205648	0.272332	-0.201172
H159	H	1.127504	0.272341	-0.094611
H160	H	0.434570	1.524936	0.305934
C161	C	0.306523	0.778158	-0.095503
H162	H	0.321813	0.734550	-0.051718
H163	H	0.361789	0.746109	-0.170408
H164	H	0.258429	0.779089	-0.095770
C165	C	0.555942	1.128985	0.522649
H166	H	0.568319	1.120541	0.450064
H167	H	0.520446	1.206445	0.562602
H168	H	0.520459	1.099893	0.562593
H169	H	0.242655	1.679731	-0.000049
H170	H	1.167974	1.112265	-0.480395
C171	C	0.222510	1.707274	0.701884
H172	H	0.206566	1.772506	0.680112
H173	H	0.245614	1.707299	0.745389
H174	H	0.167478	1.707284	0.745381
C175	C	0.555935	1.128994	0.724575
H176	H	0.568299	1.120576	0.780294
H177	H	0.520443	1.099921	0.733014
H178	H	0.520454	1.206456	0.733003
H179	H	0.381464	0.922957	-0.195873
C180	C	1.178080	0.528153	0.123592
H181	H	1.146955	0.605624	0.158672
H182	H	1.244658	0.493116	0.072780
H183	H	1.166518	0.493089	0.179312
H184	H	0.177615	1.201031	0.082229
H185	H	1.168021	0.898616	-0.694110
C186	C	0.918696	1.280758	-0.123699
H187	H	0.906319	1.225047	-0.115269
H188	H	0.954189	1.272318	-0.094631
H189	H	0.954181	1.272324	-0.201168
C190	C	0.296575	1.729919	0.477253
H191	H	0.327670	1.722564	0.399777
H192	H	0.308137	1.769888	0.512295
H193	H	0.229990	1.769870	0.512319
C194	C	1.252121	1.005461	-0.701939
H195	H	1.268063	1.048960	-0.680166
H196	H	1.229016	1.036981	-0.745444
H197	H	1.307154	0.930449	-0.745437
H198	H	1.040070	0.699448	0.106770
H199	H	0.195399	1.118845	-0.113696
C200	C	0.296529	1.482695	0.724610
H201	H	0.249476	1.555282	0.780313
H202	H	0.347143	1.442751	0.733065
H203	H	0.269002	1.442756	0.733049
H204	H	0.093211	1.087549	0.195683
H205	H	0.434546	1.311321	0.519624
C206	C	0.555938	1.528051	0.123634
H207	H	0.504503	1.605518	0.158692
H208	H	0.552343	1.492994	0.179352
H209	H	0.552346	1.492993	0.072807
C210	C	1.029995	0.482714	-0.275437
H211	H	0.982934	0.555289	-0.219713
H212	H	1.080624	0.442775	-0.267007
H213	H	1.002486	0.442753	-0.267004
H214	H	0.894024	0.898564	0.305922
H215	H	1.168056	0.524951	-0.694114
C216	C	1.030012	0.729963	-0.522779
H217	H	1.061117	0.722606	-0.600255
H218	H	1.041557	0.769945	-0.487722
H219	H	0.963430	0.769901	-0.487728
C220	C	0.444651	1.280720	-0.123667
H221	H	0.413560	1.288058	-0.158745
H222	H	0.433093	1.240755	-0.072855
H223	H	0.511236	1.240775	-0.179389
