data_functionalizedCrystal
_audit_creation_method	'MofGen! by Chris Wilmer'
_symmetry_space_group_name_H-M	'P1'
_symmetry_Int_Tables_number	1
_symmetry_cell_setting	triclinic
loop_
_symmetry_equiv_pos_as_xyz
  x,y,z
_cell_length_a	27.440280
_cell_length_b	14.560438
_cell_length_c	14.560438
_cell_angle_alpha	60.000069
_cell_angle_beta	90.003396
_cell_angle_gamma	59.998116
loop_
_atom_site_label
_atom_site_type_symbol
_atom_site_fract_x
_atom_site_fract_y
_atom_site_fract_z
Zr1	Zr	0.469502	1.005173	-0.120396
O2	O	0.391683	1.196794	-0.267060
O3	O	0.493358	0.813566	-0.075439
O4	O	0.493358	1.005171	-0.267039
O5	O	0.391684	1.005187	0.075682
O6	O	0.573561	1.005153	-0.267021
O7	O	0.391683	1.005190	-0.075459
O8	O	0.573561	0.662408	0.075718
O9	O	0.391684	1.347932	-0.267057
O10	O	0.563387	0.892359	-0.056248
O11	O	0.503532	0.892370	0.056533
O12	O	0.503532	1.117959	-0.169052
O13	O	0.443678	1.117970	-0.056272
Zr14	Zr	0.597417	1.005141	0.120686
Zr15	Zr	0.597417	1.005145	-0.120366
Zr16	Zr	0.469503	1.005169	0.120656
Zr17	Zr	0.469503	1.246221	-0.120392
Zr18	Zr	0.597416	0.764093	0.120682
O19	O	0.573561	1.196747	0.075728
O20	O	0.573561	1.196754	-0.267017
O21	O	0.391684	1.196788	0.075685
O22	O	0.675236	0.813520	0.267350
O23	O	0.675235	0.813526	-0.075396
O24	O	0.493358	0.813560	0.267307
O25	O	0.675236	1.005127	-0.075392
O26	O	0.573561	1.005143	0.267329
O27	O	0.493358	1.005161	0.267310
O28	O	0.675236	1.005124	0.075749
O29	O	0.493358	1.347909	-0.267033
O30	O	0.573561	0.662405	0.267323
O31	O	0.675236	0.662382	0.267347
O32	O	0.675235	0.662386	0.075742
O33	O	0.391684	1.347928	-0.075453
O34	O	0.493358	1.347906	-0.075429
O35	O	0.563387	0.892355	0.169342
O36	O	0.623241	0.892344	0.056561
O37	O	0.563387	1.117944	-0.056243
O38	O	0.503532	1.117955	0.056537
C39	C	0.533459	0.703643	0.000139
C40	C	0.533459	0.601312	0.000137
C41	C	0.373458	1.005192	0.000107
C42	C	0.319155	1.005204	0.000094
C43	C	0.564701	0.553230	-0.058733
C44	C	0.564704	0.457071	-0.058723
C45	C	0.502217	0.457088	0.059030
C46	C	0.502218	0.553239	0.059026
C47	C	0.013701	0.887374	0.059059
C48	C	-0.037317	0.887367	0.059069
O49	O	-0.037134	0.787216	0.109181
N50	N	-0.094077	1.005127	0.000185
C51	C	-0.099818	1.122902	-0.058704
O52	O	-0.152782	1.223065	-0.108787
C53	C	-0.048800	1.122907	-0.058706
C54	C	0.007959	1.005140	0.000172
C55	C	0.070458	0.769617	0.117933
C56	C	0.121473	0.769624	0.117921
C57	C	0.115731	0.887390	0.059035
C58	C	0.058974	1.005148	0.000160
C59	C	-0.054542	1.240681	-0.117588
C60	C	-0.003518	1.240676	-0.117585
C61	C	0.053242	1.122909	-0.058706
C62	C	0.104247	1.122921	-0.058738
N63	N	0.161007	1.005161	0.000145
C64	C	0.166749	0.887396	0.059032
C65	C	-0.206957	1.122880	-0.058692
C66	C	-0.257974	1.122876	-0.058697
C67	C	-0.195470	0.887341	0.059078
C68	C	-0.144452	0.887347	0.059075
C69	C	-0.150197	1.005121	0.000192
C70	C	0.273881	0.887421	0.059002
C71	C	0.324898	0.887439	0.058981
C72	C	0.262389	1.122973	-0.058788
C73	C	0.211376	1.122955	-0.058773
C74	C	0.217127	1.005169	0.000131
O75	O	0.104109	1.223021	-0.108821
O76	O	0.219714	0.787249	0.109119
C77	C	0.693461	1.005122	0.000183
C78	C	0.747764	1.005110	0.000195
C79	C	0.533459	1.005162	-0.301375
C80	C	0.533459	1.005164	-0.403708
C81	C	0.533460	1.306671	0.000150
C82	C	0.533460	1.409002	0.000152
C83	C	0.577643	1.005155	-0.451773
C84	C	0.577645	1.005144	-0.547919
C85	C	0.489273	1.005155	-0.547928
C86	C	0.489274	1.005157	-0.451780
C87	C	0.533460	1.005152	0.301664
C88	C	0.533460	1.005150	0.403997
C89	C	0.693460	0.703608	0.000177
C90	C	0.747763	0.601265	0.000188
C91	C	0.533459	0.703638	0.301659
C92	C	0.533459	0.601305	0.403990
C93	C	0.693461	0.703602	0.301697
C94	C	0.747763	0.601258	0.404040
C95	C	0.373458	1.306711	-0.301407
C96	C	0.319156	1.409056	-0.403751
C97	C	0.373459	1.306706	0.000113
C98	C	0.319156	1.409049	0.000102
C99	C	0.533460	1.306676	-0.301369
C100	C	0.533460	1.409009	-0.403700
C101	C	0.742021	0.553211	-0.058702
C102	C	0.793039	0.457063	-0.058714
C103	C	0.849799	0.408962	0.000171
C104	C	0.855540	0.457025	0.059062
C105	C	0.804523	0.553179	0.059067
C106	C	0.804513	0.553190	0.393232
C107	C	0.855542	0.457039	0.489386
C108	C	0.849819	0.408952	0.596347
C109	C	0.793063	0.457030	0.607153
C110	C	0.742036	0.553185	0.511001
C111	C	0.262406	1.457136	-0.392942
C112	C	0.211377	1.553316	-0.489096
C113	C	0.217100	1.601409	-0.596057
C114	C	0.273856	1.553325	-0.606864
C115	C	0.324883	1.457153	-0.510711
C116	C	0.324898	1.457113	0.058982
C117	C	0.273880	1.553288	0.058968
C118	C	0.217120	1.601392	0.000079
C119	C	0.211379	1.553324	-0.058808
C120	C	0.262396	1.457157	-0.058800
C121	C	0.564702	0.553219	0.510950
C122	C	0.564695	0.457075	0.607097
C123	C	0.502202	0.457109	0.489310
C124	C	0.502206	0.553257	0.393165
H125	H	0.590140	0.592367	-0.106682
H126	H	0.165158	1.592505	-0.106753
Br127	Br	0.459796	0.618534	0.247992
H128	H	0.476781	0.417936	0.106974
Br129	Br	0.932560	0.391809	0.474693
Br130	Br	0.254592	1.391934	-0.138711
H131	H	0.613622	1.005159	-0.412634
H132	H	0.590145	0.417924	-0.106659
H133	H	0.695829	0.592309	0.519817
H134	H	-0.190802	0.791450	0.107023
Br135	Br	0.919033	0.278466	0.000152
H136	H	0.165159	1.218851	-0.106731
H137	H	0.257734	1.417985	-0.305858
H138	H	0.590149	0.592341	0.519770
H139	H	0.278509	1.592494	-0.693963
Br140	Br	0.637614	1.005123	-0.613145
H141	H	0.891373	0.330656	0.674631
H142	H	0.809185	0.592328	0.306147
H143	H	0.476777	0.592386	0.106970
Br144	Br	0.607095	0.391826	0.752258
H145	H	0.901761	0.417848	0.107004
H146	H	0.371110	1.417954	0.106943
Br147	Br	0.812327	0.618376	0.139004
Br148	Br	0.401899	1.391907	-0.525400
H149	H	0.175546	1.679718	-0.674342
H150	H	0.165169	1.592450	-0.480275
H151	H	0.167685	0.673726	0.165862
Br152	Br	-0.335000	1.282710	-0.138627
H153	H	0.278566	1.592408	0.106925
Br154	Br	0.429309	1.005149	-0.613174
Br155	Br	0.401928	0.727601	0.138888
Br156	Br	0.429310	1.005154	-0.386533
Br157	Br	0.459789	0.391894	0.474629
H158	H	0.175583	1.679697	0.000082
H159	H	0.278572	0.791508	0.106968
H160	H	0.075144	0.673712	0.165892
H161	H	0.788353	0.417941	-0.106671
H162	H	-0.098239	0.791450	0.107029
H163	H	0.695809	0.592374	-0.106667
Br164	Br	0.785306	0.391755	0.752324
H165	H	-0.211643	1.218792	-0.106647
H166	H	-0.008203	1.336584	-0.165521
Br167	Br	0.254608	1.282790	-0.138684
Br168	Br	-0.131562	1.400519	-0.197490
