data_functionalizedCrystal
_audit_creation_method	'MofGen! by Chris Wilmer'
_symmetry_space_group_name_H-M	'P1'
_symmetry_Int_Tables_number	1
_symmetry_cell_setting	triclinic
loop_
_symmetry_equiv_pos_as_xyz
  x,y,z
_cell_length_a	12.759401
_cell_length_b	10.685194
_cell_length_c	12.759393
_cell_angle_alpha	94.403421
_cell_angle_beta	90.019613
_cell_angle_gamma	94.377386
loop_
_atom_site_label
_atom_site_type_symbol
_atom_site_fract_x
_atom_site_fract_y
_atom_site_fract_z
Zn1	Zn	1.574245	-0.502332	0.561934
Zn2	Zn	2.074245	-0.002332	1.061934
Zn3	Zn	1.560690	-0.713402	0.372775
Zn4	Zn	2.060690	-0.213402	0.872775
Zn5	Zn	1.398543	-0.502398	0.386265
Zn6	Zn	1.898543	-0.002398	0.886265
Zn7	Zn	1.385092	-0.713305	0.548419
Zn8	Zn	1.885092	-0.213305	1.048419
O9	O	1.479643	-0.607859	0.467348
O10	O	1.979643	-0.107859	0.967348
O11	O	1.719467	-0.530343	0.536851
O12	O	2.219467	-0.030343	1.036851
O13	O	1.539137	-0.685480	0.227539
O14	O	2.039137	-0.185480	0.727539
O15	O	1.433153	-0.325790	0.420870
O16	O	1.933153	0.174210	0.920870
O17	O	1.709508	-0.685416	0.397877
O18	O	2.209508	-0.185416	0.897877
O19	O	1.562241	-0.325741	0.549933
O20	O	2.062241	0.174259	1.049933
O21	O	1.420008	-0.530456	0.237450
O22	O	1.920008	-0.030456	0.737450
O23	O	1.249739	-0.530362	0.407765
O24	O	1.749739	-0.030362	0.907765
O25	O	1.410228	-0.685251	0.697237
O26	O	1.910228	-0.185251	1.197237
O27	O	1.239856	-0.685315	0.526899
O28	O	1.739856	-0.185315	1.026899
O29	O	1.549198	-0.530249	0.707166
O30	O	2.049198	-0.030249	1.207166
O31	O	1.526094	-0.889988	0.384772
O32	O	2.026094	-0.389988	0.884772
O33	O	1.397083	-0.889917	0.513817
O34	O	1.897083	-0.389917	1.013817
C35	C	1.206677	-0.607836	0.467330
C36	C	1.706677	-0.107836	0.967330
C37	C	1.089899	-0.607857	0.467345
C38	C	1.589899	-0.107857	0.967345
C39	C	1.029863	-0.688474	0.394898
C40	C	1.529863	-0.188474	0.894898
C41	C	0.920137	-0.688495	0.394915
C42	C	1.420137	-0.188495	0.894915
C43	C	0.930494	-0.527273	0.539830
C44	C	1.430494	-0.027273	1.039830
C45	C	1.040217	-0.527258	0.539817
C46	C	1.540217	-0.027258	1.039817
C47	C	1.023883	-0.781551	0.311229
C48	C	1.523883	-0.281551	0.811229
C49	C	0.914157	-0.781572	0.311246
C50	C	1.414157	-0.281572	0.811246
C51	C	1.458687	-0.935743	0.446387
C52	C	1.958687	-0.435743	0.946387
C53	C	1.449818	-1.076012	0.437455
C54	C	1.949818	-0.576012	0.937455
C55	C	1.753674	-0.607883	0.467367
C56	C	2.253674	-0.107883	0.967367
C57	C	1.870450	-0.607893	0.467375
C58	C	2.370450	-0.107893	0.967375
C59	C	1.479724	-0.607732	0.741390
C60	C	1.979724	-0.107732	1.241390
C61	C	1.479759	-0.607678	0.858170
C62	C	1.979759	-0.107678	1.358170
C63	C	1.500709	-0.278695	0.488414
C64	C	2.000709	0.221305	0.988414
C65	C	1.509686	-0.138425	0.497391
C66	C	2.009686	0.361575	0.997391
C67	C	1.479628	-0.607895	0.194378
C68	C	1.979628	-0.107895	0.694378
C69	C	1.479819	-0.607594	0.077622
C70	C	1.979819	-0.107594	0.577622
C71	C	1.552131	-0.526961	0.918204
C72	C	2.052131	-0.026961	1.418204
C73	C	1.552159	-0.526915	1.027931
C74	C	2.052159	-0.026915	1.527931
C75	C	1.407440	-0.688314	1.017579
C76	C	1.907440	-0.188314	1.517579
C77	C	1.407408	-0.688352	0.907855
C78	C	1.907408	-0.188352	1.407855
C79	C	1.635686	-0.433782	0.924182
C80	C	2.135686	0.066218	1.424182
C81	C	1.635714	-0.433736	1.033909
C82	C	2.135714	0.066264	1.533909
H83	H	1.089094	-0.461625	0.598821
H84	H	1.589094	0.038375	1.098821
H85	H	1.612518	-0.340874	1.073886
H86	H	2.112518	0.159126	1.573886
H87	H	1.567729	-1.084550	0.555542
H88	H	2.067729	-0.584550	1.055542
F89	F	1.373935	-1.146436	0.361452
F90	F	1.873935	-0.646436	0.861452
F91	F	1.330367	-0.774244	0.843966
F92	F	1.830367	-0.274244	1.343966
F93	F	1.615373	-0.306041	0.893440
F94	F	2.115373	0.193959	1.393440
F95	F	1.733768	-0.479572	0.876766
F96	F	2.233768	0.020428	1.376766
H97	H	1.715416	-0.459913	1.062017
H98	H	2.215416	0.040087	1.562017
H99	H	0.890030	-0.461653	0.598834
H100	H	1.390030	0.038347	1.098834
H101	H	1.060122	-0.746425	0.236226
H102	H	1.560122	-0.246425	0.736226
F103	F	1.054662	-0.909337	0.331360
F104	F	1.554662	-0.409337	0.831360
H105	H	0.874210	-0.874469	0.334325
H106	H	1.374210	-0.374469	0.834325
H107	H	0.886018	-0.755280	0.231597
H108	H	1.386018	-0.255280	0.731597
F109	F	1.330443	-0.774169	1.070467
F110	F	1.830443	-0.274169	1.570467
