data_functionalizedCrystal
_audit_creation_method	'MofGen! by Chris Wilmer'
_symmetry_space_group_name_H-M	'P1'
_symmetry_Int_Tables_number	1
_symmetry_cell_setting	triclinic
loop_
_symmetry_equiv_pos_as_xyz
  x,y,z
_cell_length_a	12.594517
_cell_length_b	18.050589
_cell_length_c	18.050591
_cell_angle_alpha	90.013707
_cell_angle_beta	89.999307
_cell_angle_gamma	90.024107
loop_
_atom_site_label
_atom_site_type_symbol
_atom_site_fract_x
_atom_site_fract_y
_atom_site_fract_z
Zn1	Zn	1.627049	-0.295821	0.419746
Zn2	Zn	1.626940	-0.419995	0.295565
Zn3	Zn	1.449091	-0.295814	0.295591
Zn4	Zn	1.448997	-0.419965	0.419734
O5	O	1.538019	-0.357899	0.357659
O6	O	1.775980	-0.312308	0.403267
O7	O	1.603341	-0.403531	0.191644
O8	O	1.472782	-0.191890	0.312075
O9	O	1.775900	-0.403538	0.312032
O10	O	1.603527	-0.191896	0.403292
O11	O	1.472676	-0.312296	0.191663
O12	O	1.300133	-0.312268	0.312064
O13	O	1.472623	-0.403488	0.523660
O14	O	1.300064	-0.403481	0.403272
O15	O	1.603437	-0.312280	0.523669
O16	O	1.603251	-0.523915	0.312021
O17	O	1.472517	-0.523893	0.403248
C18	C	1.261478	-0.357871	0.357670
C19	C	1.143173	-0.357877	0.357693
C20	C	1.073913	-0.407584	0.407205
C21	C	1.003120	-0.339877	0.425470
C22	C	1.003167	-0.425640	0.339411
C23	C	1.073938	-0.290133	0.375993
C24	C	1.073991	-0.375942	0.289903
C25	C	1.003230	-0.308187	0.308142
C26	C	1.537891	-0.550851	0.357647
C27	C	1.537933	-0.633397	0.357666
C28	C	1.466910	-0.832862	0.407258
C29	C	1.440982	-0.882290	0.339494
C30	C	1.538038	-0.784527	0.357676
C31	C	1.564018	-0.882181	0.425448
C32	C	1.538137	-0.930512	0.357691
C33	C	1.512059	-0.832867	0.289876
C34	C	1.635139	-0.832754	0.375876
C35	C	1.609249	-0.882159	0.308065
C36	C	1.537978	-0.700429	0.357668
C37	C	1.538197	-1.014609	0.357691
C38	C	1.815640	-0.357927	0.357648
C39	C	1.933945	-0.357940	0.357643
C40	C	1.538032	-0.357881	0.551364
C41	C	1.538037	-0.357873	0.633910
C42	C	1.538177	-0.164193	0.357688
C43	C	1.538245	-0.081647	0.357700
C44	C	1.609181	-0.308287	0.882740
C45	C	1.635165	-0.376039	0.833329
C46	C	1.538036	-0.357901	0.931031
C47	C	1.512102	-0.290139	0.833361
C48	C	1.538039	-0.357884	0.785046
C49	C	1.564070	-0.425689	0.882706
C50	C	1.440962	-0.339743	0.882743
C51	C	1.466909	-0.407542	0.833353
C52	C	1.538037	-0.357910	1.015129
C53	C	1.538038	-0.357883	0.700949
C54	C	1.538009	-0.357926	1.164707
C55	C	1.538035	-0.357912	1.082161
H56	H	0.972076	-0.482920	0.323972
Br57	Br	1.366625	-0.477537	0.797438
Br58	Br	1.125875	-0.401390	0.194398
Br59	Br	1.125525	-0.194632	0.401838
H60	H	1.358913	-0.904065	0.324114
Br61	Br	1.475347	-0.796919	0.194330
Br62	Br	1.771993	-0.401637	0.797153
H63	H	1.669441	-0.903669	0.266093
H64	H	1.585952	-0.903843	0.482756
H65	H	1.717190	-0.810982	0.391288
Br66	Br	1.709528	-0.238454	0.918886
Br67	Br	0.951235	-0.314442	0.520984
Br68	Br	0.951822	-0.238093	0.238318
Br69	Br	1.304170	-0.314116	0.918952
Br70	Br	1.366516	-0.796781	0.477047
H71	H	1.586124	-0.482999	0.904291
H72	H	1.490168	-0.232841	0.811683
H73	H	1.104953	-0.449540	0.449129
