data_functionalizedCrystal
_audit_creation_method	'MofGen! by Chris Wilmer'
_symmetry_space_group_name_H-M	'P1'
_symmetry_Int_Tables_number	1
_symmetry_cell_setting	triclinic
loop_
_symmetry_equiv_pos_as_xyz
  x,y,z
_cell_length_a	18.101395
_cell_length_b	18.101398
_cell_length_c	15.296720
_cell_angle_alpha	99.671158
_cell_angle_beta	99.643705
_cell_angle_gamma	90.026661
loop_
_atom_site_label
_atom_site_type_symbol
_atom_site_fract_x
_atom_site_fract_y
_atom_site_fract_z
Zn1	Zn	-0.367331	1.059634	-0.509865
Zn2	Zn	-0.469755	1.080976	-0.359013
Zn3	Zn	-0.345927	0.957234	-0.359050
Zn4	Zn	-0.491122	0.935746	-0.509843
O5	O	-0.418534	1.008397	-0.434443
O6	O	-0.380933	1.166099	-0.489848
O7	O	-0.435429	1.082486	-0.232778
O8	O	-0.245137	0.970878	-0.379081
O9	O	-0.456183	1.181779	-0.379017
O10	O	-0.260862	1.046111	-0.489884
O11	O	-0.344453	0.991573	-0.232805
O12	O	-0.365173	0.850750	-0.379060
O13	O	-0.492601	0.934256	-0.636086
O14	O	-0.471847	0.834963	-0.489847
O15	O	-0.401652	1.025275	-0.636102
O16	O	-0.576219	1.061650	-0.378996
O17	O	-0.591917	0.954951	-0.489811
C18	C	-0.418506	0.815985	-0.434455
C19	C	-0.418516	0.733667	-0.434482
C20	C	-0.610941	1.008302	-0.434416
C21	C	-0.693257	1.008325	-0.434435
C22	C	-0.418554	0.434582	-0.434445
C23	C	-0.485898	0.456048	-0.503805
C24	C	-0.485759	0.541626	-0.504090
C25	C	-0.418536	0.582962	-0.434463
C26	C	-0.344222	0.548214	-0.460441
C27	C	-0.344638	0.462499	-0.460934
C28	C	-0.424811	0.479707	-0.338939
C29	C	-0.426595	0.565284	-0.339450
C30	C	-0.418520	0.666820	-0.434472
C31	C	-0.418564	0.350723	-0.434438
C32	C	-0.992355	1.008480	-0.434484
C33	C	-0.970963	0.941456	-0.504378
C34	C	-0.885314	0.941216	-0.504160
C35	C	-0.843969	1.008403	-0.434460
C36	C	-0.861617	1.000790	-0.339389
C37	C	-0.947321	1.000363	-0.339807
C38	C	-0.964162	1.083362	-0.458824
C39	C	-0.878807	1.082605	-0.460909
C40	C	-0.760107	1.008362	-0.434441
C41	C	-1.076216	1.008521	-0.434496
C42	C	-0.225378	1.008511	-0.434489
C43	C	-0.143067	1.008559	-0.434509
C44	C	-0.451897	0.974988	-0.669742
C45	C	-0.466115	0.960751	-0.770013
C46	C	-0.418562	1.201561	-0.434431
C47	C	-0.418574	1.283876	-0.434426
C48	C	-0.316788	1.110180	-1.052693
C49	C	-0.303432	1.123562	-0.958483
C50	C	-0.344101	1.082860	-0.911361
C51	C	-0.398130	1.028775	-0.958457
C52	C	-0.411493	1.015397	-1.052676
C53	C	-0.438805	0.988076	-0.911344
C54	C	-0.492834	0.933991	-0.958440
C55	C	-0.506194	0.920615	-1.052650
C56	C	-0.465524	0.961317	-1.099772
C57	C	-0.425443	1.001455	-0.817126
C58	C	-0.520147	0.906671	-0.817109
C59	C	-0.533504	0.893289	-0.911318
C60	C	-0.385246	1.041720	-0.200059
C61	C	-0.370820	1.056100	-0.099789
H62	H	-0.541644	0.437721	-0.487706
C63	C	-0.272058	1.154943	-1.104527
H64	H	-0.287752	1.139225	-1.167381
H65	H	-0.280711	1.206888	-1.089084
H66	H	-0.220107	1.146320	-1.089104
C67	C	-0.358330	0.462266	-0.269118
H68	H	-0.362417	0.489700	-0.211546
H69	H	-0.358861	0.410122	-0.267010
H70	H	-0.312693	0.476228	-0.285724
H71	H	-0.868382	1.088591	-0.530876
C72	C	-0.275533	0.443778	-0.395681
H73	H	-0.247327	0.488542	-0.368993
H74	H	-0.291386	0.421096	-0.350012
H75	H	-0.245242	0.410154	-0.427795
H76	H	-0.874262	0.944413	-0.574655
C77	C	-1.012378	0.945484	-0.599901
H78	H	-1.043082	0.988081	-0.598017
H79	H	-0.976870	0.949464	-0.638224
H80	H	-1.042777	0.901374	-0.622381
C81	C	-0.840844	1.152170	-0.397139
H82	H	-0.803086	1.136802	-0.353352
H83	H	-0.818822	1.183103	-0.430770
H84	H	-0.877211	1.179515	-0.367931
C85	C	-0.592938	0.833806	-0.963130
H86	H	-0.595072	0.831674	-1.025987
H87	H	-0.579907	0.786244	-0.947699
H88	H	-0.640510	0.846812	-0.947678
C89	C	-0.500368	0.596485	-0.312970
H90	H	-0.526154	0.620189	-0.359617
H91	H	-0.530861	0.556587	-0.304096
H92	H	-0.489595	0.631952	-0.258863
H93	H	-0.333223	1.093758	-0.834652
H94	H	-0.862596	0.885439	-0.488038
H95	H	-0.482942	0.424535	-0.574159
C96	C	-0.275391	0.585107	-0.394320
H97	H	-0.231075	0.563260	-0.411263
H98	H	-0.273737	0.637345	-0.395704
H99	H	-0.278891	0.577459	-0.335192
C100	C	-0.823836	1.065461	-0.267115
H101	H	-0.796897	1.097754	-0.294344
H102	H	-0.861045	1.092914	-0.239627
H103	H	-0.790244	1.045609	-0.222791
H104	H	-0.977185	1.133131	-0.407917
C105	C	-0.564883	0.861894	-0.765284
H106	H	-0.549182	0.877602	-0.702430
H107	H	-0.616832	0.870508	-0.780707
H108	H	-0.556221	0.809947	-0.780731
H109	H	-0.381451	1.045490	-0.778789
C110	C	-0.244003	1.183048	-0.906684
H111	H	-0.221691	1.205367	-0.948239
H112	H	-0.267125	1.220516	-0.869923
H113	H	-0.206517	1.159953	-0.869942
H114	H	-0.837247	0.947114	-0.318399
C115	C	-0.480216	0.946599	-1.203403
H116	H	-0.448257	0.978587	-1.224718
H117	H	-0.470427	0.895790	-1.224721
H118	H	-0.531031	0.956357	-1.224705
H119	H	-0.482694	0.552068	-0.574853
C120	C	-0.334346	0.563938	-0.553735
H121	H	-0.289214	0.542689	-0.568857
H122	H	-0.375612	0.542284	-0.597401
H123	H	-0.332107	0.616546	-0.552496
C124	C	-0.560777	0.573118	-0.482106
H125	H	-0.591615	0.533603	-0.472925
H126	H	-0.551629	0.609908	-0.429074
H127	H	-0.585380	0.595257	-0.530775
C128	C	-0.335332	0.422119	-0.555253
H129	H	-0.331338	0.458152	-0.592909
H130	H	-0.291273	0.393539	-0.550776
H131	H	-0.377659	0.389766	-0.580272
C132	C	-1.006340	1.096302	-0.550880
H133	H	-0.988483	1.141770	-0.564284
H134	H	-0.998091	1.055778	-0.596060
H135	H	-1.058471	1.099349	-0.549082
C136	C	-0.495805	0.455046	-0.307044
H137	H	-0.522295	0.416994	-0.351681
H138	H	-0.481973	0.436120	-0.252497
H139	H	-0.526957	0.496813	-0.297300
H140	H	-0.960394	1.047795	-0.285955
H141	H	-0.380027	0.594426	-0.284996
H142	H	-0.964431	0.946027	-0.319187
C143	C	-0.565635	0.861136	-1.104458
H144	H	-0.567774	0.859005	-1.167315
H145	H	-0.552608	0.813573	-1.089029
H146	H	-0.613203	0.874149	-1.088998
H147	H	-0.990284	0.886003	-0.488460
