data_functionalizedCrystal
_audit_creation_method	'MofGen! by Chris Wilmer'
_symmetry_space_group_name_H-M	'P1'
_symmetry_Int_Tables_number	1
_symmetry_cell_setting	triclinic
loop_
_symmetry_equiv_pos_as_xyz
  x,y,z
_cell_length_a	23.532355
_cell_length_b	22.610064
_cell_length_c	17.699083
_cell_angle_alpha	89.998006
_cell_angle_beta	96.944744
_cell_angle_gamma	89.990547
loop_
_atom_site_label
_atom_site_type_symbol
_atom_site_fract_x
_atom_site_fract_y
_atom_site_fract_z
O1	O	0.755551	-0.049096	-0.091689
O2	O	1.255551	0.450904	0.408311
O3	O	0.589722	-0.049114	-0.105024
O4	O	1.089722	0.450886	0.394976
O5	O	0.677322	-0.049110	0.011858
O6	O	1.177322	0.450890	0.511858
O7	O	0.667951	-0.049100	-0.208570
O8	O	1.167951	0.450900	0.291430
O9	O	0.677296	0.049259	0.011858
O10	O	1.177296	0.549259	0.511858
O11	O	0.589696	0.049255	-0.105024
O12	O	1.089696	0.549255	0.394976
O13	O	0.755526	0.049273	-0.091689
O14	O	1.255526	0.549273	0.408311
Zn15	Zn	0.672607	0.064882	-0.098356
Zn16	Zn	1.172607	0.564882	0.401644
Zn17	Zn	0.672641	-0.064723	-0.098356
Zn18	Zn	1.172641	0.435277	0.401644
O19	O	0.667926	0.049270	-0.208570
O20	O	1.167926	0.549270	0.291430
C21	C	0.568492	0.000068	-0.104690
C22	C	1.068492	0.500068	0.395310
C23	C	0.505270	0.000061	-0.103688
C24	C	1.005270	0.500061	0.396312
N25	N	0.672588	0.153335	-0.098356
N26	N	1.172588	0.653335	0.401644
C27	C	0.113224	0.053707	-0.097391
C28	C	0.613224	0.553707	0.402609
C29	C	0.053822	0.053709	-0.096438
C30	C	0.553822	0.553709	0.403562
O31	O	0.023090	0.099311	-0.095919
O32	O	0.523090	0.599311	0.404081
N33	N	0.024126	0.000088	-0.095965
N34	N	0.524126	0.500088	0.404035
C35	C	0.053836	-0.053539	-0.096438
C36	C	0.553836	0.446461	0.403562
O37	O	0.023123	-0.099147	-0.095948
O38	O	0.523123	0.400853	0.404052
C39	C	0.113238	-0.053540	-0.097386
C40	C	0.613238	0.446460	0.402614
C41	C	0.142930	0.000084	-0.097867
C42	C	0.642930	0.500084	0.402133
C43	C	0.142916	0.107327	-0.097871
C44	C	0.642916	0.607327	0.402129
C45	C	0.202314	0.107324	-0.098826
C46	C	0.702314	0.607324	0.401174
C47	C	0.232020	0.053702	-0.099301
C48	C	0.732020	0.553702	0.400699
C49	C	0.202328	0.000082	-0.098821
C50	C	0.702328	0.500082	0.401179
C51	C	0.142947	-0.107166	-0.097854
C52	C	0.642947	0.392834	0.402146
C53	C	0.202353	-0.107163	-0.098801
C54	C	0.702353	0.392837	0.401199
C55	C	0.232045	-0.053539	-0.099282
C56	C	0.732045	0.446461	0.400718
C57	C	0.291431	-0.053543	-0.100251
C58	C	0.791431	0.446457	0.399749
N59	N	0.321127	0.000078	-0.100724
N60	N	0.821127	0.500078	0.399276
C61	C	0.291422	0.053700	-0.100249
C62	C	0.791422	0.553700	0.399751
C63	C	-0.070911	-0.053531	-0.094446
C64	C	0.429089	0.446469	0.405554
C65	C	-0.130312	-0.053530	-0.093503
C66	C	0.369688	0.446470	0.406497
C67	C	-0.130322	0.053718	-0.093502
C68	C	0.369678	0.553718	0.406498
C69	C	-0.070920	0.053716	-0.094450
C70	C	0.429080	0.553716	0.405550
C71	C	-0.041215	0.000090	-0.094919
C72	C	0.458785	0.500090	0.405081
C73	C	0.416161	0.053691	-0.102255
C74	C	0.916161	0.553691	0.397745
C75	C	0.475564	0.053684	-0.103213
C76	C	0.975564	0.553684	0.396787
C77	C	0.475570	-0.053564	-0.103210
C78	C	0.975570	0.446436	0.396790
C79	C	0.416171	-0.053557	-0.102256
C80	C	0.916171	0.446443	0.397744
C81	C	0.386469	0.000075	-0.101776
C82	C	0.886469	0.500075	0.398224
O83	O	0.322201	-0.099122	-0.100768
O84	O	0.822201	0.400878	0.399232
O85	O	0.322143	0.099301	-0.100729
O86	O	0.822143	0.599301	0.399271
N87	N	0.672664	-0.153176	-0.098351
N88	N	1.172664	0.346824	0.401649
C89	C	0.776756	0.000090	-0.092022
C90	C	1.276756	0.500090	0.407978
C91	C	0.839977	0.000093	-0.093024
C92	C	1.339977	0.500093	0.406976
C93	C	0.707117	0.561983	-0.144011
C94	C	1.207117	1.061983	0.355989
C95	C	0.707124	0.623903	-0.144009
C96	C	1.207124	1.123903	0.355991
O97	O	0.736460	0.655927	-0.182822
O98	O	1.236460	1.155927	0.317178
N99	N	0.672652	0.654872	-0.098347
N100	N	1.172652	1.154872	0.401653
C101	C	0.638174	0.623918	-0.052679
C102	C	1.138174	1.123918	0.447321
O103	O	0.608853	0.655946	-0.013839
O104	O	1.108853	1.155946	0.486161
C105	C	0.638170	0.562000	-0.052677
C106	C	1.138170	1.062000	0.447323
C107	C	0.672641	0.531033	-0.098348
C108	C	1.172641	1.031033	0.401652
C109	C	0.741586	0.531016	-0.189678
C110	C	1.241586	1.031016	0.310322
C111	C	0.741578	0.469101	-0.189680
C112	C	1.241578	0.969101	0.310320
C113	C	0.707101	0.438151	-0.144017
C114	C	1.207101	0.938151	0.355983
C115	C	0.672633	0.469118	-0.098350
C116	C	1.172633	0.969118	0.401650
C117	C	0.603695	0.531047	-0.007004
C118	C	1.103695	1.031047	0.492996
C119	C	0.603695	0.469124	-0.007006
C120	C	1.103695	0.969124	0.492994
C121	C	0.638166	0.438158	-0.052677
C122	C	1.138166	0.938158	0.447323
C123	C	0.638148	0.376253	-0.052690
C124	C	1.138148	0.876253	0.447310
N125	N	0.672621	0.345283	-0.098352
N126	N	1.172621	0.845283	0.401648
C127	C	0.707097	0.376233	-0.144015
C128	C	1.207097	0.876233	0.355985
C129	C	0.638185	0.753952	-0.052684
C130	C	1.138185	1.253952	0.447316
C131	C	0.638185	0.815870	-0.052690
C132	C	1.138185	1.315870	0.447310
C133	C	0.707137	0.815850	-0.144020
C134	C	1.207137	1.315850	0.355980
C135	C	0.707133	0.753931	-0.144018
C136	C	1.207133	1.253931	0.355982
C137	C	0.672658	0.722983	-0.098346
C138	C	1.172658	1.222983	0.401654
C139	C	0.707077	0.246205	-0.144018
C140	C	1.207077	0.746205	0.355982
C141	C	0.707065	0.184284	-0.144019
C142	C	1.207065	0.684284	0.355981
C143	C	0.638115	0.184310	-0.052687
C144	C	1.138115	0.684310	0.447313
C145	C	0.638126	0.246225	-0.052688
C146	C	1.138126	0.746225	0.447312
C147	C	0.672611	0.277172	-0.098356
C148	C	1.172611	0.777172	0.401644
O149	O	0.608829	0.344189	-0.013894
O150	O	1.108829	0.844189	0.486106
O151	O	0.736419	0.344197	-0.182841
O152	O	1.236419	0.844197	0.317159
C153	C	0.668274	0.000086	-0.236765
C154	C	1.168274	0.500086	0.263235
C155	C	0.669282	0.000091	-0.320778
C156	C	1.169282	0.500091	0.179222
C157	C	0.617862	0.000085	-0.369673
C158	C	1.117862	0.500085	0.130327
C159	C	0.618812	0.000079	-0.448611
C160	C	1.118812	0.500079	0.051389
C161	C	0.671182	0.000081	-0.478653
C162	C	1.171182	0.500081	0.021347
C163	C	0.722605	0.000085	-0.429752
C164	C	1.222605	0.500085	0.070248
C165	C	0.721655	0.000088	-0.350816
C166	C	1.221655	0.500088	0.149184
C167	C	0.726439	0.000074	-0.748095
C168	C	1.226439	0.500074	-0.248095
C169	C	0.727386	0.000073	-0.827038
C170	C	1.227386	0.500073	-0.327038
C171	C	0.623597	0.000065	-0.845890
C172	C	1.123597	0.500065	-0.345890
C173	C	0.622646	0.000067	-0.766954
C174	C	1.122646	0.500067	-0.266954
C175	C	0.674069	0.000068	-0.718060
C176	C	1.174069	0.500068	-0.218060
C177	C	0.673039	0.000074	-0.632466
C178	C	1.173039	0.500074	-0.132466
C179	C	0.672213	0.000079	-0.564245
C180	C	1.172213	0.500079	-0.064245
C181	C	0.676973	0.000072	0.040053
C182	C	1.176973	0.500072	0.540053
C183	C	0.675966	0.000063	0.124066
C184	C	1.175966	0.500063	0.624066
H185	H	0.499737	0.097353	-0.103607
H186	H	0.999737	0.597353	0.396393
H187	H	0.770034	0.000074	-0.851494
H188	H	1.270034	0.500074	-0.351494
H189	H	0.735202	0.728722	-0.181208
H190	H	1.235202	1.228722	0.318792
Br191	Br	-0.170603	-0.126309	-0.092870
Br192	Br	0.329397	0.373691	0.407130
H193	H	0.763525	0.000090	-0.311006
H194	H	1.263525	0.500090	0.188994
Br195	Br	0.553807	0.000062	-0.912251
Br196	Br	1.053807	0.500062	-0.412251
Br197	Br	0.375861	0.126478	-0.101601
Br198	Br	0.875861	0.626478	0.398399
Br199	Br	0.793679	0.000082	-0.470523
Br200	Br	1.293679	0.500082	0.029477
Br201	Br	0.591390	0.857888	0.009280
Br202	Br	1.091390	1.357888	0.509280
Br203	Br	0.796227	0.000079	-0.681749
Br204	Br	1.296227	0.500079	-0.181749
Br205	Br	0.788382	0.573007	-0.251658
Br206	Br	1.288382	1.073007	0.248342
Br207	Br	0.788351	0.427084	-0.251681
Br208	Br	1.288351	0.927084	0.248319
Br209	Br	0.375872	-0.126333	-0.101620
Br210	Br	0.875872	0.373667	0.398380
Br211	Br	-0.170648	0.126492	-0.092856
Br212	Br	0.329352	0.626492	0.407144
H213	H	0.575217	0.000090	-0.345219
H214	H	1.075217	0.500090	0.154781
H215	H	0.499766	-0.097222	-0.103601
H216	H	0.999766	0.402778	0.396399
Br217	Br	-0.030603	-0.126317	-0.095089
Br218	Br	0.469397	0.373683	0.404911
Br219	Br	0.102666	-0.179947	-0.097201
Br220	Br	0.602666	0.320053	0.402799
Br221	Br	0.549026	0.000063	-0.514966
Br222	Br	1.049026	0.500063	-0.014966
H223	H	0.610044	0.159100	-0.015511
H224	H	1.110044	0.659100	0.484489
Br225	Br	0.102612	0.180110	-0.097229
Br226	Br	0.602612	0.680110	0.402771
Br227	Br	0.242602	0.180104	-0.099474
Br228	Br	0.742602	0.680104	0.400526
H229	H	0.226536	-0.150833	-0.099183
H230	H	0.726536	0.349167	0.400817
H231	H	0.735209	0.841060	-0.181202
H232	H	1.235209	1.341060	0.318798
H233	H	0.575626	0.556249	0.030187
H234	H	1.075626	1.056249	0.530187
H235	H	-0.046749	0.097382	-0.094842
H236	H	0.453251	0.597382	0.405158
H237	H	0.735135	0.159074	-0.181213
H238	H	1.235135	0.659074	0.318787
H239	H	0.735159	0.271394	-0.181205
H240	H	1.235159	0.771394	0.318795
Br241	Br	0.591385	0.711957	0.009296
Br242	Br	1.091385	1.211957	0.509296
Br243	Br	0.556910	0.427127	0.054989
Br244	Br	1.056910	0.927127	0.554989
Br245	Br	0.591337	0.288253	0.009285
Br246	Br	1.091337	0.788253	0.509285
H247	H	0.580002	0.000068	-0.742498
H248	H	1.080002	0.500068	-0.242498
