data_functionalizedCrystal
_audit_creation_method	'MofGen! by Chris Wilmer'
_symmetry_space_group_name_H-M	'P1'
_symmetry_Int_Tables_number	1
_symmetry_cell_setting	triclinic
loop_
_symmetry_equiv_pos_as_xyz
  x,y,z
_cell_length_a	9.065215
_cell_length_b	11.295657
_cell_length_c	9.065215
_cell_angle_alpha	85.461972
_cell_angle_beta	94.985269
_cell_angle_gamma	94.534228
loop_
_atom_site_label
_atom_site_type_symbol
_atom_site_fract_x
_atom_site_fract_y
_atom_site_fract_z
O1	O	-1.951423	0.099000	0.207350
O2	O	-1.522136	0.099006	0.225100
O3	O	-1.745655	0.098998	0.001583
O4	O	-1.727904	0.099008	0.430867
O5	O	-1.763598	-0.099047	0.019555
O6	O	-1.540079	-0.099038	0.243073
O7	O	-1.969365	-0.099045	0.225323
Cu8	Cu	-1.756360	-0.117124	0.235839
Cu9	Cu	-1.735141	0.117086	0.214584
O10	O	-1.745846	-0.099036	0.448840
C11	C	-1.476121	-0.000015	0.232381
C12	C	-1.312278	-0.000013	0.227283
N13	N	-1.771295	-0.281856	0.250788
C14	C	-1.612553	-0.531199	0.091931
C15	C	-1.623873	-0.655859	0.103237
C16	C	-1.805246	-0.655837	0.284713
C17	C	-1.793926	-0.531178	0.273407
C18	C	-1.697578	-0.468863	0.177011
C19	C	-1.686267	-0.344201	0.165698
C20	C	-1.867631	-0.344182	0.347181
C21	C	-1.878951	-0.468841	0.358487
C22	C	-1.015380	-0.000020	0.218041
C23	C	-1.179223	-0.000012	0.223138
C24	C	-1.752922	-0.000023	-0.044418
C25	C	-1.747823	-0.000019	-0.208261
N26	N	-1.720218	0.281818	0.199623
C27	C	-1.738580	-0.000012	0.494840
C28	C	-1.743677	-0.000008	0.658683
H29	H	-1.607818	-0.293466	0.087205
H30	H	-1.554634	-0.706608	0.033958
C31	C	-1.911212	-0.724405	0.390749
N32	N	-1.991028	-0.776052	0.470615
H33	H	-1.534111	-0.480461	0.013433
H34	H	-1.957391	-0.519595	0.436974
C35	C	-1.961159	-0.275601	0.440782
N36	N	-2.031602	-0.223946	0.511280
