data_functionalizedCrystal
_audit_creation_method	'MofGen! by Chris Wilmer'
_symmetry_space_group_name_H-M	'P1'
_symmetry_Int_Tables_number	1
_symmetry_cell_setting	triclinic
loop_
_symmetry_equiv_pos_as_xyz
  x,y,z
_cell_length_a	16.109301
_cell_length_b	14.853567
_cell_length_c	14.586319
_cell_angle_alpha	90.000002
_cell_angle_beta	89.999213
_cell_angle_gamma	83.548205
loop_
_atom_site_label
_atom_site_type_symbol
_atom_site_fract_x
_atom_site_fract_y
_atom_site_fract_z
O1	O	1.103294	0.115881	-0.076175
O2	O	1.353294	0.365881	0.173825
O3	O	1.603294	0.615881	0.423825
O4	O	1.853294	0.865881	0.673825
O5	O	0.861252	0.130302	-0.076188
O6	O	1.111252	0.380302	0.173812
O7	O	1.361252	0.630302	0.423812
O8	O	1.611252	0.880302	0.673812
O9	O	0.988738	-0.008149	-0.076184
O10	O	1.238738	0.241851	0.173816
O11	O	1.488738	0.491851	0.423816
O12	O	1.738738	0.741851	0.673816
O13	O	0.975807	0.254332	-0.076179
O14	O	1.225807	0.504332	0.173821
O15	O	1.475807	0.754332	0.423821
O16	O	1.725807	1.004332	0.673821
O17	O	0.988729	-0.008151	0.076297
O18	O	1.238729	0.241849	0.326297
O19	O	1.488729	0.491849	0.576297
O20	O	1.738729	0.741849	0.826297
O21	O	0.861243	0.130300	0.076293
O22	O	1.111243	0.380300	0.326293
O23	O	1.361243	0.630300	0.576293
O24	O	1.611243	0.880300	0.826293
O25	O	1.103285	0.115879	0.076306
O26	O	1.353285	0.365879	0.326306
O27	O	1.603285	0.615879	0.576306
O28	O	1.853285	0.865879	0.826306
Cu29	Cu	0.982263	0.123089	0.090222
Cu30	Cu	1.232263	0.373089	0.340222
Cu31	Cu	1.482263	0.623089	0.590222
Cu32	Cu	1.732263	0.873089	0.840222
Cu33	Cu	0.982274	0.123091	-0.090104
Cu34	Cu	1.232274	0.373091	0.159896
Cu35	Cu	1.482274	0.623091	0.409896
Cu36	Cu	1.732274	0.873091	0.659896
O37	O	0.975799	0.254330	0.076302
O38	O	1.225799	0.504330	0.326302
O39	O	1.475799	0.754330	0.576302
O40	O	1.725799	1.004330	0.826302
C41	C	0.830272	0.129717	0.000050
C42	C	1.080272	0.379717	0.250050
C43	C	1.330272	0.629717	0.500050
C44	C	1.580272	0.879717	0.750050
C45	C	0.737974	0.127965	0.000045
C46	C	0.987974	0.377965	0.250045
C47	C	1.237974	0.627965	0.500045
C48	C	1.487974	0.877965	0.750045
C49	C	0.988148	-0.041738	0.000054
C50	C	1.238148	0.208262	0.250054
C51	C	1.488148	0.458262	0.500054
C52	C	1.738148	0.708262	0.750054
C53	C	0.986392	-0.141819	0.000046
C54	C	1.236392	0.108181	0.250046
C55	C	1.486392	0.358181	0.500046
C56	C	1.736392	0.608181	0.750046
C57	C	0.515811	0.206047	0.000057
C58	C	0.765811	0.456047	0.250057
C59	C	1.015811	0.706047	0.500057
C60	C	1.265811	0.956047	0.750057
C61	C	0.429089	0.204395	0.000063
C62	C	0.679089	0.454395	0.250063
C63	C	0.929089	0.704395	0.500063
C64	C	1.179089	0.954395	0.750063
C65	C	0.448732	0.040127	0.000056
C66	C	0.698732	0.290127	0.250056
C67	C	0.948732	0.540127	0.500056
C68	C	1.198732	0.790127	0.750056
C69	C	0.535453	0.041781	0.000057
C70	C	0.785453	0.291781	0.250057
C71	C	1.035453	0.541781	0.500057
C72	C	1.285453	0.791781	0.750057
C73	C	0.568990	0.124743	0.000052
C74	C	0.818990	0.374743	0.250052
C75	C	1.068990	0.624743	0.500052
C76	C	1.318990	0.874743	0.750052
C77	C	0.395546	0.121437	0.000058
C78	C	0.645546	0.371437	0.250058
C79	C	0.895546	0.621437	0.500058
C80	C	1.145546	0.871437	0.750058
C81	C	0.301518	0.119645	0.000064
C82	C	0.551518	0.369645	0.250064
C83	C	0.801518	0.619645	0.500064
C84	C	1.051518	0.869645	0.750064
C85	C	0.663025	0.126536	0.000048
C86	C	0.913025	0.376536	0.250048
C87	C	1.163025	0.626536	0.500048
C88	C	1.413025	0.876536	0.750048
C89	C	0.903241	-0.554215	0.000059
C90	C	1.153241	-0.304215	0.250059
C91	C	1.403241	-0.054215	0.500059
C92	C	1.653241	0.195785	0.750059
C93	C	1.054697	-0.575746	0.000067
C94	C	1.304697	-0.325746	0.250067
C95	C	1.554697	-0.075746	0.500067
C96	C	1.804697	0.174254	0.750067
C97	C	1.056348	-0.481715	0.000062
C98	C	1.306348	-0.231715	0.250062
C99	C	1.556348	0.018285	0.500062
C100	C	1.806348	0.268285	0.750062
C101	C	0.981444	-0.423930	0.000056
C102	C	1.231444	-0.173930	0.250056
C103	C	1.481444	0.076070	0.500056
C104	C	1.731444	0.326070	0.750056
C105	C	0.904889	-0.460175	0.000056
C106	C	1.154889	-0.210175	0.250056
C107	C	1.404889	0.039825	0.500056
C108	C	1.654889	0.289825	0.750056
C109	C	1.132901	-0.445463	0.000071
C110	C	1.382901	-0.195463	0.250071
C111	C	1.632901	0.054537	0.500071
C112	C	1.882901	0.304537	0.750071
C113	C	1.134555	-0.351426	0.000067
C114	C	1.384555	-0.101426	0.250067
C115	C	1.634555	0.148574	0.500067
C116	C	1.884555	0.398574	0.750067
C117	C	1.059650	-0.293639	0.000055
C118	C	1.309650	-0.043639	0.250055
C119	C	1.559650	0.206361	0.500055
C120	C	1.809650	0.456361	0.750055
C121	C	0.983093	-0.329890	0.000054
C122	C	1.233093	-0.079890	0.250054
C123	C	1.483093	0.170110	0.500054
C124	C	1.733093	0.420110	0.750054
C125	C	0.908189	-0.272104	0.000048
C126	C	1.158189	-0.022104	0.250048
C127	C	1.408189	0.227896	0.500048
C128	C	1.658189	0.477896	0.750048
C129	C	0.831630	-0.308353	0.000040
C130	C	1.081630	-0.058353	0.250040
C131	C	1.331630	0.191647	0.500040
C132	C	1.581630	0.441647	0.750040
C133	C	0.829984	-0.402388	0.000044
C134	C	1.079984	-0.152388	0.250044
C135	C	1.329984	0.097612	0.500044
C136	C	1.579984	0.347612	0.750044
C137	C	1.061296	-0.199604	0.000051
C138	C	1.311296	0.050396	0.250051
C139	C	1.561296	0.300396	0.500051
C140	C	1.811296	0.550396	0.750051
C141	C	0.909837	-0.178064	0.000046
C142	C	1.159837	0.071936	0.250046
C143	C	1.409837	0.321936	0.500046
C144	C	1.659837	0.571936	0.750046
C145	C	1.134265	0.116464	0.000066
C146	C	1.384265	0.366464	0.250066
C147	C	1.634265	0.616464	0.500066
C148	C	1.884265	0.866464	0.750066
C149	C	1.226563	0.118215	0.000065
C150	C	1.476563	0.368215	0.250065
C151	C	1.726563	0.618215	0.500065
C152	C	1.976563	0.868215	0.750065
C153	C	0.976389	0.287918	0.000062
C154	C	1.226389	0.537918	0.250062
C155	C	1.476389	0.787918	0.500062
C156	C	1.726389	1.037918	0.750062
C157	C	0.978145	0.387999	0.000064
C158	C	1.228145	0.637999	0.250064
C159	C	1.478145	0.887999	0.500064
C160	C	1.728145	1.137999	0.750064
N161	N	0.982262	0.123087	0.217054
N162	N	1.232262	0.373087	0.467054
N163	N	1.482262	0.623087	0.717054
N164	N	1.732262	0.873087	0.967054
N165	N	0.982281	0.123087	-0.216936
N166	N	1.232281	0.373087	0.033064
N167	N	1.482281	0.623087	0.283064
N168	N	1.732281	0.873087	0.533064
C169	C	1.038731	0.061801	0.452062
C170	C	1.288731	0.311801	0.702062
C171	C	1.538731	0.561801	0.952062
C172	C	1.788731	0.811801	1.202062
C173	C	1.038734	0.061799	0.548044
C174	C	1.288734	0.311799	0.798044
C175	C	1.538734	0.561799	1.048044
C176	C	1.788734	0.811799	1.298044
C177	C	0.925806	0.184375	0.548049
C178	C	1.175806	0.434375	0.798049
C179	C	1.425806	0.684375	1.048049
C180	C	1.675806	0.934375	1.298049
C181	C	0.925800	0.184372	0.452070
C182	C	1.175800	0.434372	0.702070
C183	C	1.425800	0.684372	0.952070
C184	C	1.675800	0.934372	1.202070
C185	C	0.982268	0.123086	0.404079
C186	C	1.232268	0.373086	0.654079
C187	C	1.482268	0.623086	0.904079
C188	C	1.732268	0.873086	1.154079
C189	C	0.982276	0.123087	0.596039
C190	C	1.232276	0.373087	0.846039
C191	C	1.482276	0.623087	1.096039
C192	C	1.732276	0.873087	1.346039
C193	C	0.982278	0.123085	0.700107
C194	C	1.232278	0.373085	0.950107
C195	C	1.482278	0.623085	1.200107
C196	C	1.732278	0.873085	1.450107
C197	C	0.982265	0.123087	0.300005
C198	C	1.232265	0.373087	0.550005
C199	C	1.482265	0.623087	0.800005
C200	C	1.732265	0.873087	1.050005
H201	H	0.543114	0.273601	0.000060
H202	H	0.793114	0.523601	0.250060
H203	H	1.043114	0.773601	0.500060
H204	H	1.293114	1.023601	0.750060
H205	H	1.193884	-0.492518	0.000084
H206	H	1.443884	-0.242518	0.250084
H207	H	1.693884	0.007482	0.500084
H208	H	1.943884	0.257482	0.750084
F209	F	0.748512	-0.440973	0.000033
F210	F	0.998512	-0.190973	0.250033
F211	F	1.248512	0.059027	0.500033
F212	F	1.498512	0.309027	0.750033
F213	F	0.865714	0.249599	0.599131
F214	F	1.115714	0.499599	0.849131
F215	F	1.365714	0.749599	1.099131
F216	F	1.615714	0.999599	1.349131
H217	H	0.385793	0.270600	0.000068
H218	H	0.635793	0.520600	0.250068
H219	H	0.885793	0.770600	0.500068
H220	H	1.135793	1.020600	0.750068
H221	H	1.084711	0.011894	0.587109
H222	H	1.334711	0.261894	0.837109
H223	H	1.584711	0.511894	1.087109
H224	H	1.834711	0.761894	1.337109
H225	H	0.421415	-0.027418	0.000065
H226	H	0.671415	0.222582	0.250065
H227	H	0.921415	0.472582	0.500065
H228	H	1.171415	0.722582	0.750065
F229	F	0.592054	-0.044759	0.000058
F230	F	0.842054	0.205241	0.250058
F231	F	1.092054	0.455241	0.500058
F232	F	1.342054	0.705241	0.750058
F233	F	0.865697	0.249600	0.400998
F234	F	1.115697	0.499600	0.650998
F235	F	1.365697	0.749600	0.900998
F236	F	1.615697	0.999600	1.150998
H237	H	1.123629	-0.170094	0.000064
H238	H	1.373629	0.079906	0.250064
H239	H	1.623629	0.329906	0.500064
H240	H	1.873629	0.579906	0.750064
F241	F	0.830112	-0.116571	0.000033
F242	F	1.080112	0.133429	0.250033
F243	F	1.330112	0.383429	0.500033
F244	F	1.580112	0.633429	0.750033
H245	H	0.770643	-0.261292	0.000042
H246	H	1.020643	-0.011292	0.250042
H247	H	1.270643	0.238708	0.500042
H248	H	1.520643	0.488708	0.750042
F249	F	0.821765	-0.592794	0.000043
F250	F	1.071765	-0.342794	0.250043
F251	F	1.321765	-0.092794	0.500043
F252	F	1.571765	0.157206	0.750043
H253	H	1.115680	-0.622800	0.000079
H254	H	1.365680	-0.372800	0.250079
H255	H	1.615680	-0.122800	0.500079
H256	H	1.865680	0.127200	0.750079
F257	F	1.098827	-0.003427	0.400990
F258	F	1.348827	0.246573	0.650990
F259	F	1.598827	0.496573	0.900990
F260	F	1.848827	0.746573	1.150990
H261	H	1.196894	-0.321921	0.000072
H262	H	1.446894	-0.071921	0.250072
H263	H	1.696894	0.178079	0.500072
H264	H	1.946894	0.428079	0.750072
