data_functionalizedCrystal
_audit_creation_method	'MofGen! by Chris Wilmer'
_symmetry_space_group_name_H-M	'P1'
_symmetry_Int_Tables_number	1
_symmetry_cell_setting	triclinic
loop_
_symmetry_equiv_pos_as_xyz
  x,y,z
_cell_length_a	13.339070
_cell_length_b	14.044190
_cell_length_c	12.376457
_cell_angle_alpha	102.316217
_cell_angle_beta	75.589755
_cell_angle_gamma	104.410535
loop_
_atom_site_label
_atom_site_type_symbol
_atom_site_fract_x
_atom_site_fract_y
_atom_site_fract_z
O1	O	1.404430	0.473358	-0.094098
O2	O	1.104133	0.409470	-0.094085
O3	O	1.249766	0.302246	-0.094069
O4	O	1.258797	0.580582	-0.094114
O5	O	1.213368	0.329005	0.093939
O6	O	1.067735	0.436229	0.093924
O7	O	1.368032	0.500117	0.093910
Zn8	Zn	1.212104	0.472421	0.123767
Zn9	Zn	1.260061	0.437165	-0.123942
O10	O	1.222399	0.607341	0.093894
C11	C	1.047270	0.412058	-0.000078
C12	C	0.932064	0.379890	-0.000072
C13	C	0.589860	0.630010	-0.000130
C14	C	0.698103	0.660236	-0.000140
C15	C	0.756598	0.590152	-0.000122
C16	C	0.706840	0.489837	-0.000097
C17	C	0.598588	0.459606	-0.000096
C18	C	0.765327	0.419749	-0.000088
C19	C	0.715569	0.319433	-0.000062
C20	C	0.607327	0.289208	-0.000061
C21	C	0.548832	0.359292	-0.000078
C22	C	0.873579	0.449979	-0.000089
C23	C	0.882307	0.279575	-0.000054
C24	C	0.774064	0.249349	-0.000045
C25	C	1.227619	0.279273	-0.000061
C26	C	1.215844	0.170952	-0.000051
C27	C	1.277829	-0.063041	-0.000098
C28	C	1.194343	-0.027367	-0.000086
C29	C	1.206309	0.082989	-0.000067
C30	C	1.265864	-0.173406	-0.000118
C31	C	1.424895	0.497529	-0.000099
C32	C	1.540103	0.529696	-0.000112
C33	C	1.244546	0.630313	-0.000116
C34	C	1.256323	0.738633	-0.000134
N35	N	1.179382	0.496484	0.292822
N36	N	1.292790	0.413097	-0.292997
C37	C	1.368746	0.357220	0.647827
C38	C	1.391642	0.340377	0.529490
C39	C	1.338579	0.379402	0.470317
C40	C	1.262616	0.435274	0.529493
C41	C	1.239724	0.452125	0.647842
C42	C	1.209556	0.474307	0.470332
C43	C	1.133594	0.530179	0.529508
C44	C	1.110704	0.547027	0.647846
C45	C	1.163768	0.508002	0.707018
C46	C	1.232449	0.457456	0.351983
C47	C	1.103427	0.552361	0.351998
C48	C	1.080530	0.569204	0.470336
H49	H	0.844735	0.614768	-0.000133
O50	O	1.306295	0.403282	0.294418
C51	C	1.388160	0.462305	0.225858
H52	H	1.390022	0.544427	0.261500
H53	H	1.467187	0.444119	0.224434
H54	H	1.373470	0.446095	0.136204
H55	H	0.914080	0.531656	-0.000105
O56	O	0.533122	0.698086	-0.000353
C57	C	0.575788	0.743459	-0.097722
H58	H	0.621287	0.692233	-0.165764
H59	H	0.508948	0.757563	-0.130421
H60	H	0.631626	0.817269	-0.075719
O61	O	0.746513	0.757634	-0.000383
C62	C	0.827724	0.766337	-0.097755
H63	H	0.810756	0.699174	-0.165780
H64	H	0.831404	0.837365	-0.130479
H65	H	0.906681	0.769510	-0.075745
H66	H	1.018680	0.614697	0.518532
H67	H	0.929935	0.222506	-0.000045
H68	H	1.358283	-0.010707	-0.000090
O69	O	0.559141	0.191713	-0.000194
C70	C	0.607088	0.133411	-0.097569
H71	H	0.690726	0.174965	-0.130037
H72	H	0.610547	0.059621	-0.075653
H73	H	0.558764	0.118502	-0.165754
O74	O	1.420120	0.319193	0.705363
C75	C	1.345969	0.254444	0.773868
H76	H	1.271001	0.226186	0.738218
H77	H	1.381024	0.188608	0.775233
H78	H	1.325924	0.296177	0.863548
H79	H	1.113881	-0.079704	-0.000089
O80	O	0.725871	0.151855	-0.000180
C81	C	0.773810	0.093550	-0.097557
H82	H	0.857451	0.135097	-0.130025
H83	H	0.777260	0.019756	-0.075644
H84	H	0.725486	0.078650	-0.165741
H85	H	1.357224	0.365686	0.373961
H86	H	1.048860	0.592530	0.696027
O87	O	1.465419	0.286046	0.472185
C88	C	1.507363	0.255233	0.549784
H89	H	1.448460	0.254950	0.634153
H90	H	1.522792	0.176994	0.515601
H91	H	1.584753	0.308836	0.562346
H92	H	1.145123	0.521712	0.803379
O93	O	1.051941	0.590168	0.294356
C94	C	1.088452	0.563335	0.177215
H95	H	1.123339	0.494046	0.161060
H96	H	1.019653	0.547058	0.132253
H97	H	1.151886	0.627201	0.143609
H98	H	0.460691	0.334687	-0.000070
