data_functionalizedCrystal
_audit_creation_method	'MofGen! by Chris Wilmer'
_symmetry_space_group_name_H-M	'P1'
_symmetry_Int_Tables_number	1
_symmetry_cell_setting	triclinic
loop_
_symmetry_equiv_pos_as_xyz
  x,y,z
_cell_length_a	10.654550
_cell_length_b	19.188930
_cell_length_c	9.730223
_cell_angle_alpha	89.990488
_cell_angle_beta	89.999957
_cell_angle_gamma	83.814856
loop_
_atom_site_label
_atom_site_type_symbol
_atom_site_fract_x
_atom_site_fract_y
_atom_site_fract_z
O1	O	1.665764	0.098062	-0.114205
O2	O	1.300088	0.107404	-0.114232
O3	O	1.493479	0.001147	-0.114191
O4	O	1.472373	0.204320	-0.114246
O5	O	1.493466	0.001144	0.114389
O6	O	1.300076	0.107402	0.114348
O7	O	1.665752	0.098059	0.114375
Zn8	Zn	1.482912	0.102730	0.150654
Zn9	Zn	1.482928	0.102734	-0.150510
O10	O	1.472361	0.204317	0.114334
C11	C	1.253298	0.106717	0.000055
C12	C	1.113898	0.104665	0.000046
C13	C	1.033089	0.167228	0.000033
C14	C	0.902109	0.165295	0.000058
C15	C	0.932761	0.038231	0.000103
C16	C	1.063738	0.040164	0.000088
C17	C	1.492789	-0.024870	0.000103
C18	C	1.490737	-0.102388	0.000115
C19	C	1.604213	-0.146570	0.000130
C20	C	1.602285	-0.219407	0.000108
C21	C	1.486876	-0.248058	0.000098
C22	C	1.373386	-0.203866	0.000076
C23	C	1.375316	-0.131032	0.000084
N24	N	1.398655	-0.356641	0.077882
N25	N	1.396829	-0.425831	0.077877
C26	C	1.481052	-0.467505	0.000070
N27	N	1.567189	-0.437375	-0.077714
N28	N	1.569019	-0.368178	-0.077703
C29	C	1.484770	-0.327034	0.000088
C30	C	1.592445	-0.590665	0.000059
C31	C	1.590513	-0.663502	0.000028
C32	C	1.361610	-0.647960	0.000010
C33	C	1.363545	-0.575124	0.000027
C34	C	1.478966	-0.546481	0.000058
C35	C	1.712541	0.098746	0.000085
C36	C	1.851941	0.100799	0.000085
C37	C	1.473051	0.230334	0.000037
C38	C	1.475102	0.307852	0.000017
N39	N	1.482910	0.102727	0.356190
N40	N	1.482940	0.102731	-0.356047
C41	C	1.568572	0.055696	0.428134
C42	C	1.568584	0.055696	0.572017
C43	C	1.397269	0.149764	0.571999
C44	C	1.397251	0.149760	0.428119
H45	H	1.073924	0.219748	0.000010
O46	O	1.261167	-0.231579	0.000007
C47	C	1.161420	-0.176960	0.000030
H48	H	1.196351	-0.127315	-0.043237
H49	H	1.080824	-0.192564	-0.066344
H50	H	1.126424	-0.166836	0.109688
O51	O	1.265114	-0.088081	-0.000166
C52	C	1.259407	-0.045457	-0.118524
H53	H	1.323776	-0.071805	-0.201265
H54	H	1.158209	-0.037752	-0.158272
H55	H	1.291617	0.007652	-0.091743
H56	H	0.836318	0.216240	0.000050
H57	H	1.327529	0.188059	0.630578
H58	H	0.891904	-0.014283	0.000145
O59	O	1.249422	-0.675702	0.000182
C60	C	1.180273	-0.653208	0.118578
H61	H	1.214212	-0.602539	0.158061
H62	H	1.075642	-0.643605	0.091942
H63	H	1.195047	-0.695288	0.201468
O64	O	1.716219	-0.118632	0.000201
C65	C	1.693596	-0.044871	0.000164
H66	H	1.595502	-0.028247	0.043435
H67	H	1.767423	-0.022158	0.066528
H68	H	1.699572	-0.024562	-0.109498
H69	H	1.327489	0.188059	0.369538
O70	O	1.142298	-0.020594	0.000339
C71	C	1.219009	-0.023267	0.118699
H72	H	1.170844	0.012200	0.201435
H73	H	1.234061	-0.079435	0.158453
H74	H	1.314152	-0.004729	0.091918
H75	H	1.694693	-0.255386	0.000114
H76	H	1.271141	-0.539150	0.000022
O77	O	1.704669	-0.562950	0.000004
C78	C	1.804416	-0.617570	0.000027
H79	H	1.769486	-0.667206	-0.043253
H80	H	1.885014	-0.601951	-0.066337
H81	H	1.839406	-0.627718	0.109686
O82	O	1.651817	0.009938	0.358474
C83	C	1.727445	-0.031561	0.452835
H84	H	1.675977	-0.032612	0.555406
H85	H	1.746909	-0.087222	0.411289
H86	H	1.820604	-0.008409	0.468114
O87	O	1.651627	0.009942	0.641965
C88	C	1.584635	-0.033471	0.725242
H89	H	1.485607	-0.035165	0.681897
H90	H	1.636184	-0.088699	0.726888
H91	H	1.577941	-0.011653	0.834279
H92	H	1.682922	-0.699475	0.000033
