data_functionalizedCrystal
_audit_creation_method	'MofGen! by Chris Wilmer'
_symmetry_space_group_name_H-M	'P1'
_symmetry_Int_Tables_number	1
_symmetry_cell_setting	triclinic
loop_
_symmetry_equiv_pos_as_xyz
  x,y,z
_cell_length_a	10.686220
_cell_length_b	12.645330
_cell_length_c	10.686551
_cell_angle_alpha	94.404096
_cell_angle_beta	89.691918
_cell_angle_gamma	94.399208
loop_
_atom_site_label
_atom_site_type_symbol
_atom_site_fract_x
_atom_site_fract_y
_atom_site_fract_z
Zn1	Zn	1.972274	-0.258449	0.562395
Zn2	Zn	2.472274	0.241551	1.062395
Zn3	Zn	1.956034	-0.450325	0.352642
Zn4	Zn	2.456034	0.049675	0.852642
Zn5	Zn	1.746391	-0.285568	0.368713
Zn6	Zn	2.246391	0.214432	0.868713
Zn7	Zn	1.762464	-0.448176	0.578420
Zn8	Zn	2.262464	0.051824	1.078420
O9	O	1.859291	-0.360629	0.465542
O10	O	2.359291	0.139371	0.965542
O11	O	2.145662	-0.273452	0.521138
O12	O	2.645662	0.226548	1.021138
O13	O	1.914701	-0.440718	0.179229
O14	O	2.414701	0.059282	0.679229
O15	O	1.776424	-0.133617	0.394424
O16	O	2.276424	0.366383	0.894424
O17	O	2.133731	-0.414422	0.367034
O18	O	2.633731	0.085578	0.867034
O19	O	1.942379	-0.113693	0.536721
O20	O	2.442379	0.386307	1.036721
O21	O	1.760677	-0.319671	0.191036
O22	O	2.260677	0.180329	0.691036
O23	O	1.572980	-0.317588	0.409963
O24	O	2.072980	0.182412	0.909963
O25	O	1.803819	-0.410760	0.751839
O26	O	2.303819	0.089240	1.251839
O27	O	1.584790	-0.437056	0.564034
O28	O	2.084790	0.062944	1.064034
O29	O	1.957965	-0.271369	0.740065
O30	O	2.457965	0.228631	1.240065
O31	O	1.930287	-0.598393	0.382573
O32	O	2.430287	-0.098393	0.882573
O33	O	1.788072	-0.596814	0.548451
O34	O	2.288072	-0.096814	1.048451
C35	C	1.533369	-0.380032	0.490482
C36	C	2.033369	0.119968	0.990482
C37	C	1.393940	-0.388356	0.501181
C38	C	1.893940	0.111644	1.001181
C39	C	1.859198	-0.636066	0.465532
C40	C	2.359198	-0.136066	0.965532
C41	C	1.859276	-0.753889	0.465560
C42	C	2.359276	-0.253889	0.965560
C43	C	1.770231	-0.920460	0.570182
C44	C	2.270231	-0.420460	1.070182
C45	C	1.769713	-0.797951	0.569908
C46	C	2.269713	-0.297951	1.069908
C47	C	1.813339	-0.809805	0.336095
C48	C	2.313339	-0.309805	0.836095
C49	C	1.812795	-0.932397	0.336731
C50	C	2.312795	-0.432397	0.836731
C51	C	1.994766	-0.910703	0.489286
C52	C	2.494766	-0.410703	0.989286
C53	C	1.994173	-0.787944	0.492239
C54	C	2.494173	-0.287944	0.992239
C55	C	2.186485	-0.341151	0.440506
C56	C	2.686485	0.158849	0.940506
C57	C	2.325916	-0.332851	0.429837
C58	C	2.825916	0.167149	0.929837
C59	C	1.884497	-0.337800	0.792742
C60	C	2.384497	0.162200	1.292742
C61	C	1.895238	-0.328071	0.932175
C62	C	2.395238	0.171929	1.432175
C63	C	1.859420	-0.084114	0.465578
C64	C	2.359420	0.415886	0.965578
C65	C	1.859475	0.033721	0.465593
C66	C	2.359475	0.533721	0.965593
C67	C	1.834255	-0.383289	0.139610
C68	C	2.334255	0.116711	0.639610
C69	C	1.823757	-0.392705	0.000159
C70	C	2.323757	0.107295	0.500159
H71	H	1.799967	-0.941713	0.666835
H72	H	2.299967	-0.441713	1.166835
H73	H	1.374344	-0.278963	0.360569
H74	H	1.874344	0.221037	0.860569
H75	H	1.345505	-0.442255	0.570445
H76	H	1.845505	0.057745	1.070445
O77	O	1.731773	-0.475847	0.935983
O78	O	2.231773	0.024153	1.435983
H79	H	1.755139	-0.556049	0.959391
H80	H	2.255139	-0.056049	1.459391
H81	H	1.799630	-0.759649	0.666223
H82	H	2.299630	-0.259649	1.166223
H83	H	1.670775	-0.958725	0.555527
H84	H	2.170775	-0.458725	1.055527
H85	H	1.964663	-0.265293	0.980646
H86	H	2.464663	0.234707	1.480646
H87	H	1.669620	-0.776137	0.555012
H88	H	2.169620	-0.276137	1.055012
O89	O	1.681397	-0.980712	0.308592
O90	O	2.181397	-0.480712	0.808592
H91	H	1.618839	-0.916468	0.294665
H92	H	2.118839	-0.416468	0.794665
H93	H	1.874426	-0.963244	0.256692
H94	H	2.374426	-0.463244	0.756692
O95	O	1.896101	-0.772651	0.230628
O96	O	2.396101	-0.272651	0.730628
H97	H	1.971028	-0.713793	0.269460
H98	H	2.471028	-0.213793	0.769460
H99	H	1.715110	-0.786943	0.314247
H100	H	2.215110	-0.286943	0.814247
O101	O	2.047651	-0.940238	0.611508
O102	O	2.547651	-0.440238	1.111508
H103	H	1.978089	-0.994866	0.656733
H104	H	2.478089	-0.494866	1.156733
H105	H	2.028631	-0.750422	0.587469
H106	H	2.528631	-0.250422	1.087469
O107	O	2.087945	-0.747433	0.397574
O108	O	2.587945	-0.247433	0.897574
H109	H	2.091556	-0.659263	0.402183
H110	H	2.591556	-0.159263	0.902183
H111	H	2.061379	-0.940317	0.412986
H112	H	2.561379	-0.440317	0.912986
