data_functionalizedCrystal
_audit_creation_method	'MofGen! by Chris Wilmer'
_symmetry_space_group_name_H-M	'P1'
_symmetry_Int_Tables_number	1
_symmetry_cell_setting	triclinic
loop_
_symmetry_equiv_pos_as_xyz
  x,y,z
_cell_length_a	13.032721
_cell_length_b	10.685980
_cell_length_c	10.686551
_cell_angle_alpha	81.591741
_cell_angle_beta	93.335252
_cell_angle_gamma	102.072709
loop_
_atom_site_label
_atom_site_type_symbol
_atom_site_fract_x
_atom_site_fract_y
_atom_site_fract_z
Zn1	Zn	-0.234230	1.962396	-0.900039
Zn2	Zn	0.265770	2.462396	-0.400039
Zn3	Zn	-0.423545	1.918985	-0.714719
Zn4	Zn	0.076455	2.418985	-0.214719
Zn5	Zn	-0.263315	1.729677	-0.675643
Zn6	Zn	0.236685	2.229677	-0.175643
Zn7	Zn	-0.423444	1.723123	-0.910615
Zn8	Zn	0.076556	2.223123	-0.410615
O9	O	-0.336134	1.833546	-0.800254
O10	O	0.163866	2.333546	-0.300254
O11	O	-0.247213	2.136001	-0.887384
O12	O	0.252787	2.636001	-0.387384
O13	O	-0.414505	1.878448	-0.533642
O14	O	0.085495	2.378448	-0.033642
O15	O	-0.113214	1.781458	-0.684631
O16	O	0.386786	2.281458	-0.184631
O17	O	-0.386302	2.104107	-0.751230
O18	O	0.113698	2.604107	-0.251230
O19	O	-0.091845	1.952436	-0.849493
O20	O	0.408155	2.452436	-0.349493
O21	O	-0.296785	1.739364	-0.504933
O22	O	0.203215	2.239364	-0.004933
O23	O	-0.296687	1.549445	-0.694885
O24	O	0.203313	2.049445	-0.194885
O25	O	-0.386129	1.770288	-1.085106
O26	O	0.113871	2.270288	-0.585106
O27	O	-0.414332	1.544630	-0.867518
O28	O	0.085668	2.044630	-0.367518
O29	O	-0.247115	1.946081	-1.077336
O30	O	0.252885	2.446081	-0.577336
O31	O	-0.569775	1.872093	-0.761485
O32	O	-0.069775	2.372093	-0.261485
O33	O	-0.569701	1.728194	-0.905409
O34	O	-0.069701	2.228194	-0.405409
C35	C	-0.358655	1.500531	-0.778110
C36	C	0.141345	2.000531	-0.278110
C37	C	-0.368313	1.358064	-0.768670
C38	C	0.131687	1.858064	-0.268670
C39	C	-0.607653	1.794759	-0.838864
C40	C	-0.107653	2.294759	-0.338864
C41	C	-0.723799	1.778287	-0.855432
C42	C	-0.223799	2.278287	-0.355432
C43	C	-0.775575	1.842215	-0.791669
C44	C	-0.275575	2.342215	-0.291669
C45	C	-0.895618	1.825192	-0.808790
C46	C	-0.395618	2.325192	-0.308790
C47	C	-0.063550	1.872521	-0.761523
C48	C	0.436450	2.372521	-0.261523
C49	C	0.052609	1.889130	-0.745019
C50	C	0.552609	2.389130	-0.245019
C51	C	-0.313366	1.862296	-1.128103
C52	C	0.186634	2.362296	-0.628103
C53	C	-0.303664	1.874548	-1.267813
C54	C	0.196336	2.374548	-0.767813
C55	C	-0.313525	2.167861	-0.822486
C56	C	0.186475	2.667861	-0.322486
C57	C	-0.303890	2.310326	-0.831960
C58	C	0.196110	2.810326	-0.331960
C59	C	-0.358732	1.804991	-0.473675
C60	C	0.141268	2.304991	0.026325
C61	C	-0.368123	1.793030	-0.333940
C62	C	0.131877	2.293030	0.166060
H63	H	-0.241340	1.378446	-0.893364
H64	H	0.258660	1.878446	-0.393364
H65	H	-0.430861	1.289937	-0.707253
H66	H	0.069139	1.789937	-0.207253
Cl67	Cl	-0.878632	1.993104	-0.641163
Cl68	Cl	-0.378632	2.493104	-0.141163
Cl69	Cl	-0.706809	1.946187	-0.687821
Cl70	Cl	-0.206809	2.446187	-0.187821
H71	H	-0.430734	1.713868	-1.283673
H72	H	0.069266	2.213868	-0.783673
Cl73	Cl	-0.207000	1.996790	-1.345425
Cl74	Cl	0.293000	2.496790	-0.845425
H75	H	-0.940158	1.757859	-0.876065
H76	H	-0.440158	2.257859	-0.376065
H77	H	-0.768343	1.710958	-0.922702
H78	H	-0.268343	2.210958	-0.422702
