data_functionalizedCrystal
_audit_creation_method	'MofGen! by Chris Wilmer'
_symmetry_space_group_name_H-M	'P1'
_symmetry_Int_Tables_number	1
_symmetry_cell_setting	triclinic
loop_
_symmetry_equiv_pos_as_xyz
  x,y,z
_cell_length_a	17.077404
_cell_length_b	16.120444
_cell_length_c	17.077396
_cell_angle_alpha	87.130511
_cell_angle_beta	90.019501
_cell_angle_gamma	92.926816
loop_
_atom_site_label
_atom_site_type_symbol
_atom_site_fract_x
_atom_site_fract_y
_atom_site_fract_z
Zn1	Zn	1.184189	-0.331904	0.459677
Zn2	Zn	1.684189	0.168096	0.959677
Zn3	Zn	1.177431	-0.471328	0.335063
Zn4	Zn	1.677431	0.028672	0.835063
Zn5	Zn	1.052919	-0.331933	0.328426
Zn6	Zn	1.552919	0.168067	0.828426
Zn7	Zn	1.046226	-0.471279	0.466284
Zn8	Zn	1.546226	0.028721	0.966284
O9	O	1.115191	-0.401611	0.397363
O10	O	1.615191	0.098389	0.897363
O11	O	1.293139	-0.350407	0.443159
O12	O	1.793139	0.149593	0.943159
O13	O	1.160887	-0.452870	0.224337
O14	O	1.660887	0.047130	0.724337
O15	O	1.075961	-0.215263	0.340295
O16	O	1.575961	0.284737	0.840295
O17	O	1.288174	-0.452842	0.351605
O18	O	1.788174	0.047158	0.851605
O19	O	1.172405	-0.215241	0.436724
O20	O	1.672405	0.284759	0.936724
O21	O	1.069409	-0.350457	0.219461
O22	O	1.569409	0.149543	0.719461
O23	O	0.942185	-0.350409	0.346701
O24	O	1.442185	0.149591	0.846701
O25	O	1.064554	-0.452758	0.575253
O26	O	1.564554	0.047242	1.075253
O27	O	0.937267	-0.452786	0.447984
O28	O	1.437267	0.047214	0.947984
O29	O	1.165915	-0.350359	0.570399
O30	O	1.665915	0.149641	1.070399
O31	O	1.154397	-0.587988	0.358012
O32	O	1.654397	-0.087988	0.858012
O33	O	1.058001	-0.587952	0.454419
O34	O	1.558001	-0.087952	0.954419
C35	C	0.911244	-0.401596	0.397340
C36	C	1.411244	0.098404	0.897340
C37	C	0.823993	-0.401610	0.397350
C38	C	1.323993	0.098390	0.897350
C39	C	0.780459	-0.454998	0.450012
C40	C	1.280459	0.045002	0.950012
C41	C	0.698479	-0.454999	0.450024
C42	C	1.198479	0.045001	0.950024
C43	C	0.660034	-0.401617	0.397371
C44	C	1.160034	0.098383	0.897371
C45	C	0.703574	-0.348223	0.344707
C46	C	1.203574	0.151777	0.844707
C47	C	0.785553	-0.348217	0.344699
C48	C	1.285553	0.151783	0.844699
C49	C	0.532703	-0.348239	0.344727
C50	C	1.032703	0.151761	0.844727
C51	C	0.450718	-0.348246	0.344734
C52	C	0.950718	0.151754	0.844734
C53	C	0.445629	-0.455021	0.450052
C54	C	0.945629	0.044979	0.950052
C55	C	0.527608	-0.455016	0.450044
C56	C	1.027608	0.044984	0.950044
C57	C	0.571142	-0.401623	0.397379
C58	C	1.071142	0.098377	0.897379
C59	C	1.104761	-0.618220	0.407670
C60	C	1.604761	-0.118220	0.907670
C61	C	1.100370	-0.710886	0.412105
C62	C	1.600370	-0.210886	0.912105
C63	C	1.138158	-0.921827	0.374521
C64	C	1.638158	-0.421827	0.874521
C65	C	1.092369	-0.880544	0.420212
C66	C	1.592369	-0.380544	0.920212
C67	C	1.096822	-0.786138	0.415700
C68	C	1.596822	-0.286138	0.915700
C69	C	1.133706	-1.016242	0.379032
C70	C	1.633706	-0.516242	0.879032
C71	C	1.319935	-0.401627	0.397385
C72	C	1.819935	0.098373	0.897385
C73	C	1.407184	-0.401634	0.397395
C74	C	1.907184	0.098366	0.897395
C75	C	1.115241	-0.401550	0.602104
C76	C	1.615241	0.098450	1.102104
C77	C	1.115263	-0.401523	0.689353
C78	C	1.615263	0.098477	1.189353
C79	C	1.125684	-0.184156	0.387032
C80	C	1.625684	0.315844	0.887032
C81	C	1.130155	-0.091490	0.382630
C82	C	1.630155	0.408510	0.882630
C83	C	1.115189	-0.401612	0.193415
C84	C	1.615189	0.098388	0.693415
C85	C	1.115331	-0.401403	0.106155
C86	C	1.615331	0.098597	0.606155
C87	C	1.168043	-0.348200	0.727816
C88	C	1.668043	0.151800	1.227816
C89	C	1.168054	-0.348173	0.809795
C90	C	1.668054	0.151827	1.309795
C91	C	1.115288	-0.401473	0.853310
C92	C	1.615288	0.098527	1.353310
C93	C	1.062501	-0.454798	0.814840
C94	C	1.562501	0.045202	1.314840
C95	C	1.062488	-0.454821	0.732862
C96	C	1.562488	0.045179	1.232862
C97	C	1.062535	-0.454748	0.985708
C98	C	1.562535	0.045252	1.485708
C99	C	1.062550	-0.454727	1.067692
C100	C	1.562550	0.045273	1.567692
C101	C	1.168102	-0.348099	1.062641
C102	C	1.668102	0.151901	1.562641
C103	C	1.168088	-0.348122	0.980663
C104	C	1.668088	0.151878	1.480663
C105	C	1.115303	-0.401449	0.942200
C106	C	1.615303	0.098551	1.442200
H107	H	0.672265	-0.304754	0.301839
H108	H	1.172265	0.195246	0.801839
Cl109	Cl	1.203840	-0.866933	0.308896
Cl110	Cl	1.703840	-0.366933	0.808896
Cl111	Cl	0.587431	-0.281115	0.278518
Cl112	Cl	1.087431	0.218885	0.778518
H113	H	0.811755	-0.498471	0.492886
H114	H	1.311755	0.001529	0.992886
Cl115	Cl	1.234429	-0.281120	0.925961
Cl116	Cl	1.734429	0.218880	1.425961
H117	H	1.019540	-0.498160	0.954393
H118	H	1.519540	0.001840	1.454393
Cl119	Cl	0.575938	-0.522132	0.516233
Cl120	Cl	1.075938	-0.022132	1.016233
Cl121	Cl	0.840282	-0.281096	0.278495
Cl122	Cl	1.340282	0.218904	0.778495
Cl123	Cl	1.234386	-0.281194	0.673121
Cl124	Cl	1.734386	0.218806	1.173121
Cl125	Cl	1.234443	-0.281171	0.858148
Cl126	Cl	1.734443	0.218829	1.358148
Cl127	Cl	1.234462	-0.281061	1.110995
Cl128	Cl	1.734462	0.218939	1.610995
Cl129	Cl	0.643754	-0.522119	0.516231
Cl130	Cl	1.143754	-0.022119	1.016231
H131	H	0.410179	-0.498493	0.492936
H132	H	0.910179	0.001507	0.992936
H133	H	1.019581	-0.498127	1.103119
H134	H	1.519581	0.001873	1.603119
H135	H	1.049823	-0.916100	0.462718
H136	H	1.549823	-0.416100	0.962718
Cl137	Cl	0.996163	-0.521802	0.869544
Cl138	Cl	1.496163	-0.021802	1.369544
H139	H	0.419419	-0.304767	0.301868
H140	H	0.919419	0.195233	0.801868
H141	H	1.019501	-0.498234	0.701546
H142	H	1.519501	0.001766	1.201546
