data_functionalizedCrystal
_audit_creation_method	'MofGen! by Chris Wilmer'
_symmetry_space_group_name_H-M	'P1'
_symmetry_Int_Tables_number	1
_symmetry_cell_setting	triclinic
loop_
_symmetry_equiv_pos_as_xyz
  x,y,z
_cell_length_a	15.944551
_cell_length_b	23.532407
_cell_length_c	14.421503
_cell_angle_alpha	89.999621
_cell_angle_beta	89.996859
_cell_angle_gamma	83.173708
loop_
_atom_site_label
_atom_site_type_symbol
_atom_site_fract_x
_atom_site_fract_y
_atom_site_fract_z
O1	O	1.113910	0.073442	-0.077025
O2	O	0.869284	0.082498	-0.077049
O3	O	0.998974	-0.004933	-0.077019
O4	O	0.984221	0.160873	-0.077055
O5	O	0.998953	-0.004920	0.077204
O6	O	0.869263	0.082511	0.077174
O7	O	1.113889	0.073455	0.077199
Cu8	Cu	0.991574	0.077984	0.091268
Cu9	Cu	0.991599	0.077969	-0.091119
O10	O	0.984199	0.160886	0.077169
C11	C	0.837983	0.082128	0.000060
C12	C	0.744746	0.081001	0.000051
C13	C	0.998588	-0.026144	0.000095
C14	C	0.997458	-0.089366	0.000102
C15	C	0.530369	0.024113	0.000081
C16	C	0.469137	0.050524	-0.075964
C17	C	0.574038	0.078962	0.000063
C18	C	0.469138	0.050550	0.076088
C19	C	0.409142	0.076989	0.000078
C20	C	0.514034	0.105388	-0.076046
C21	C	0.514041	0.105406	0.076075
C22	C	0.452826	0.131856	0.000010
C23	C	0.669030	0.080097	0.000053
C24	C	0.314150	0.075858	0.000081
C25	C	1.067121	-0.488199	0.000058
C26	C	1.066072	-0.547603	0.000051
O27	O	1.130650	-0.584098	0.000023
N28	N	0.988971	-0.570528	0.000044
C29	C	0.912915	-0.534045	0.000035
O30	O	0.847239	-0.558999	0.000027
C31	C	0.913965	-0.474642	0.000035
C32	C	0.991071	-0.451721	0.000052
C33	C	1.144220	-0.465277	0.000073
C34	C	1.145269	-0.405877	0.000082
C35	C	1.069219	-0.369399	0.000076
C36	C	0.992120	-0.392320	0.000060
C37	C	0.837910	-0.438160	0.000019
C38	C	0.838967	-0.378754	0.000019
C39	C	0.916072	-0.355832	0.000035
C40	C	0.917118	-0.296442	0.000063
N41	N	0.994219	-0.273517	0.000070
C42	C	1.070269	-0.309995	0.000076
C43	C	0.910716	-0.658796	0.000032
C44	C	0.909664	-0.718198	0.000038
C45	C	1.062821	-0.731752	0.000053
C46	C	1.063872	-0.672349	0.000053
C47	C	0.987816	-0.635871	0.000039
C48	C	1.072466	-0.185250	0.000096
C49	C	1.073508	-0.125844	0.000108
C50	C	0.920352	-0.112295	0.000089
C51	C	0.919309	-0.171696	0.000081
C52	C	0.995373	-0.208173	0.000081
O53	O	0.852574	-0.259913	0.000087
O54	O	1.135935	-0.285033	0.000072
C55	C	1.145190	0.073824	0.000088
C56	C	1.238427	0.074951	0.000090
C57	C	0.984586	0.182097	0.000053
C58	C	0.985715	0.245318	0.000040
N59	N	0.991562	0.077994	0.219550
N60	N	0.991618	0.077954	-0.219400
C61	C	0.931583	0.118404	0.469190
C62	C	1.007390	0.129461	0.530997
C63	C	0.991583	0.077981	0.408711
C64	C	0.915795	0.066938	0.530998
C65	C	0.991596	0.077969	0.591433
C66	C	1.067428	0.089063	0.469158
C67	C	0.975783	0.026517	0.469153
C68	C	1.051645	0.037552	0.530932
C69	C	0.991574	0.077989	0.303450
C70	C	0.991613	0.077960	0.696691
H71	H	0.564086	-0.021407	-0.000003
F72	F	0.958270	-0.030344	0.433616
F73	F	0.443120	0.020196	-0.159987
H74	H	1.126658	-0.653691	0.000066
H75	H	0.533835	0.128563	-0.140407
H76	H	1.020766	0.172977	0.558161
F77	F	1.227336	-0.381490	0.000080
F78	F	1.143761	-0.770586	0.000055
F79	F	0.829761	-0.619978	0.000025
F80	F	1.151227	0.101331	0.433806
F81	F	0.758016	-0.339934	0.000002
F82	F	1.118042	-0.007139	0.566150
F83	F	0.408981	0.191414	-0.000056
F84	F	0.832016	0.054735	0.566505
F85	F	0.540090	0.135711	0.160100
H86	H	0.449238	0.027346	0.140377
H87	H	1.134405	-0.214943	0.000092
F88	F	1.155578	-0.101454	0.000125
H89	H	1.206153	-0.494973	0.000075
F90	F	0.827599	-0.742586	0.000037
H91	H	0.880895	0.152617	0.442080
H92	H	0.775123	-0.456812	0.000000
H93	H	0.856524	-0.190359	0.000094
H94	H	0.858434	-0.082584	0.000087
