data_functionalizedCrystal
_audit_creation_method	'MofGen! by Chris Wilmer'
_symmetry_space_group_name_H-M	'P1'
_symmetry_Int_Tables_number	1
_symmetry_cell_setting	triclinic
loop_
_symmetry_equiv_pos_as_xyz
  x,y,z
_cell_length_a	14.971506
_cell_length_b	27.731996
_cell_length_c	13.448316
_cell_angle_alpha	89.987422
_cell_angle_beta	89.992937
_cell_angle_gamma	83.121888
loop_
_atom_site_label
_atom_site_type_symbol
_atom_site_fract_x
_atom_site_fract_y
_atom_site_fract_z
O1	O	1.185918	0.063039	-0.082712
O2	O	1.685918	0.563039	0.417288
O3	O	0.925399	0.070572	-0.082714
O4	O	1.425399	0.570572	0.417286
O5	O	1.063774	-0.003555	-0.082692
O6	O	1.563774	0.496445	0.417308
O7	O	1.047543	0.137166	-0.082735
O8	O	1.547543	0.637166	0.417265
O9	O	1.063757	-0.003560	0.082692
O10	O	1.563757	0.496440	0.582692
O11	O	0.925382	0.070568	0.082669
O12	O	1.425382	0.570568	0.582669
O13	O	1.185901	0.063034	0.082672
O14	O	1.685901	0.563034	0.582672
Cu15	Cu	1.055640	0.066801	0.097771
Cu16	Cu	1.555640	0.566801	0.597771
Cu17	Cu	1.055660	0.066806	-0.097814
Cu18	Cu	1.555660	0.566806	0.402186
O19	O	1.047526	0.137162	0.082649
O20	O	1.547526	0.637162	0.582649
C21	C	0.892071	0.070231	-0.000022
C22	C	1.392071	0.570231	0.499978
C23	C	0.792792	0.069216	-0.000022
C24	C	1.292792	0.569216	0.499978
C25	C	0.353869	0.108892	-0.000045
C26	C	0.853869	0.608892	0.499955
C27	C	0.447153	0.109842	-0.000049
C28	C	0.947153	0.609842	0.499951
C29	C	0.505077	0.066289	-0.000031
C30	C	1.005077	0.566289	0.499969
C31	C	0.469711	0.021784	-0.000019
C32	C	0.969711	0.521784	0.499981
C33	C	0.376427	0.020835	-0.000022
C34	C	0.876427	0.520835	0.499978
C35	C	0.664142	0.023765	-0.000011
C36	C	1.164142	0.523765	0.499989
C37	C	0.757432	0.024715	-0.000007
C38	C	1.257432	0.524715	0.499993
C39	C	0.734868	0.112773	-0.000039
C40	C	1.234868	0.612773	0.499961
C41	C	0.641584	0.111823	-0.000041
C42	C	1.141584	0.611823	0.499959
C43	C	0.606225	0.067318	-0.000027
C44	C	1.106225	0.567318	0.499973
C45	C	1.063432	-0.021566	0.000004
C46	C	1.563432	0.478434	0.500004
C47	C	1.062428	-0.075227	0.000014
C48	C	1.562428	0.424773	0.500014
C49	C	1.056119	-0.407971	-0.090186
C50	C	1.556119	0.092029	0.409814
C51	C	1.052305	-0.609647	-0.090203
C52	C	1.552305	-0.109647	0.409797
O53	O	1.051782	-0.635718	-0.166874
O54	O	1.551782	-0.135718	0.333126
N55	N	1.051822	-0.634868	-0.000053
N56	N	1.551822	-0.134868	0.499947
C57	C	1.052287	-0.609668	0.090107
C58	C	1.552287	-0.109668	0.590107
O59	O	1.051779	-0.635747	0.166785
O60	O	1.551779	-0.135747	0.666785
C61	C	1.056094	-0.407992	0.090124
C62	C	1.556094	0.092008	0.590124
C63	C	1.056586	-0.382774	-0.000032
C64	C	1.556586	0.117226	0.499968
C65	C	1.056610	-0.382752	-0.180334
C66	C	1.556610	0.117248	0.319666
C67	C	1.057568	-0.332336	-0.180329
C68	C	1.557568	0.167664	0.319671
C69	C	1.058035	-0.307139	-0.090175
C70	C	1.558035	0.192861	0.409825
C71	C	1.057544	-0.332358	-0.000027
C72	C	1.557544	0.167642	0.499973
C73	C	1.056552	-0.382792	0.180283
C74	C	1.556552	0.117208	0.680283
C75	C	1.057501	-0.332370	0.180280
C76	C	1.557501	0.167630	0.680280
C77	C	1.057994	-0.307151	0.090124
C78	C	1.557994	0.192849	0.590124
C79	C	1.058970	-0.256745	0.090132
C80	C	1.558970	0.243255	0.590132
N81	N	1.059453	-0.231524	-0.000018
N82	N	1.559453	0.268476	0.499982
C83	C	1.058985	-0.256721	-0.090171
C84	C	1.558985	0.243279	0.409829
C85	C	1.050290	-0.715550	0.090092
C86	C	1.550290	-0.215550	0.590092
C87	C	1.049339	-0.765969	0.090088
C88	C	1.549339	-0.265969	0.590088
C89	C	1.049356	-0.765944	-0.090222
C90	C	1.549356	-0.265944	0.409778
C91	C	1.050313	-0.715525	-0.090218
C92	C	1.550313	-0.215525	0.409782
C93	C	1.050773	-0.690329	-0.000058
C94	C	1.550773	-0.190329	0.499942
C95	C	1.060999	-0.150844	-0.090153
C96	C	1.560999	0.349156	0.409847
C97	C	1.061961	-0.100424	-0.090140
C98	C	1.561961	0.399576	0.409860
C99	C	1.061939	-0.100453	0.090170
C100	C	1.561939	0.399547	0.590170
C101	C	1.060982	-0.150869	0.090158
C102	C	1.560982	0.349131	0.590158
C103	C	1.060509	-0.176063	-0.000012
C104	C	1.560509	0.323937	0.499988
O105	O	1.059484	-0.230643	0.166762
O106	O	1.559484	0.269357	0.666762
O107	O	1.059473	-0.230631	-0.166837
O108	O	1.559473	0.269369	0.333163
C109	C	1.055160	-0.458386	-0.090191
C110	C	1.555160	0.041614	0.409809
C111	C	1.054669	-0.483605	-0.000043
C112	C	1.554669	0.016395	0.499957
C113	C	1.055137	-0.458408	0.090111
C114	C	1.555137	0.041592	0.590111
C115	C	1.053719	-0.534024	-0.000046
C116	C	1.553719	-0.034024	0.499954
C117	C	1.053252	-0.559221	-0.090200
C118	C	1.553252	-0.059221	0.409800
C119	C	1.053735	-0.533999	-0.180350
C120	C	1.553735	-0.033999	0.319650
C121	C	1.054693	-0.483583	-0.180345
C122	C	1.554693	0.016417	0.319655
C123	C	1.054654	-0.483630	0.180261
C124	C	1.554654	0.016370	0.680261
C125	C	1.053696	-0.534046	0.180248
C126	C	1.553696	-0.034046	0.680248
C127	C	1.053229	-0.559242	0.090095
C128	C	1.553229	-0.059242	0.590095
C129	C	1.219229	0.063375	-0.000023
C130	C	1.719229	0.563375	0.499977
C131	C	1.318508	0.064390	-0.000029
C132	C	1.818508	0.564390	0.499971
C133	C	1.047868	0.155173	-0.000049
C134	C	1.547868	0.655173	0.499951
C135	C	1.048872	0.208834	-0.000065
C136	C	1.548872	0.708834	0.499935
N137	N	1.055632	0.066796	0.235336
N138	N	1.555632	0.566796	0.735336
N139	N	1.055675	0.066806	-0.235378
N140	N	1.555675	0.566806	0.264622
C141	C	1.116923	0.033986	0.287386
C142	C	1.616923	0.533986	0.787386
C143	C	1.116929	0.033986	0.391489
C144	C	1.616929	0.533986	0.891489
C145	C	1.055647	0.066798	0.443540
C146	C	1.555647	0.566798	0.943540
C147	C	0.994349	0.099610	0.391483
C148	C	1.494349	0.599610	0.891483
C149	C	0.994340	0.099608	0.287381
C150	C	1.494340	0.599608	0.787381
C151	C	0.994374	0.099613	0.608463
C152	C	1.494374	0.599613	1.108463
C153	C	0.994384	0.099616	0.712571
C154	C	1.494384	0.599616	1.212571
C155	C	1.116963	0.033992	0.712571
C156	C	1.616963	0.533992	1.212571
C157	C	1.116954	0.033989	0.608469
C158	C	1.616954	0.533989	1.108469
C159	C	1.055657	0.066802	0.556419
C160	C	1.555657	0.566802	1.056419
H161	H	0.763661	0.149011	-0.000050
H162	H	1.263661	0.649011	0.499950
H163	H	0.804591	-0.010750	-0.000001
H164	H	1.304591	0.489250	0.499999
C165	C	1.062499	-0.072687	-0.189322
C166	C	1.562499	0.427313	0.310678
N167	N	1.062902	-0.051796	-0.264025
N168	N	1.562902	0.448204	0.235975
H169	H	1.166836	0.007269	0.433868
H170	H	1.666836	0.507269	0.933868
C171	C	0.625249	-0.025193	0.000006
C172	C	1.125249	0.474807	0.500006
N173	N	0.595955	-0.062068	0.000025
N174	N	1.095955	0.437932	0.500025
C175	C	1.055228	-0.455849	-0.279524
C176	C	1.555228	0.044151	0.220476
N177	N	1.055629	-0.434962	-0.354231
N178	N	1.555629	0.065038	0.145769
H179	H	0.516879	-0.013677	-0.000011
H180	H	1.016879	0.486323	0.499989
C181	C	1.060449	-0.178611	0.189333
C182	C	1.560449	0.321389	0.689333
N183	N	1.060039	-0.199502	0.264034
N184	N	1.560039	0.300498	0.764034
C185	C	1.053153	-0.561780	0.279434
C186	C	1.553153	-0.061780	0.779434
N187	N	1.052734	-0.582667	0.354139
N188	N	1.552734	-0.082667	0.854139
C189	C	1.050801	-0.687841	0.189282
C190	C	1.550801	-0.187841	0.689282
N191	N	1.051191	-0.666973	0.263993
N192	N	1.551191	-0.166973	0.763993
C193	C	1.184367	-0.002106	0.551215
C194	C	1.684367	0.497894	1.051215
N195	N	1.235141	-0.029295	0.508092
N196	N	1.735141	0.470705	1.008092
H197	H	1.060609	-0.171351	-0.163578
H198	H	1.560609	0.328649	0.336422
C199	C	1.184387	-0.002104	0.769828
C200	C	1.684387	0.497896	1.269828
N201	N	1.235170	-0.029290	0.812959
N202	N	1.735170	0.470710	1.312959
C203	C	0.926922	0.135705	0.230126
C204	C	1.426922	0.635705	0.730126
N205	N	0.876141	0.162895	0.187003
N206	N	1.376141	0.662895	0.687003
C207	C	1.050846	-0.687789	-0.189395
C208	C	1.550846	-0.187789	0.310605
N209	N	1.051244	-0.666900	-0.264100
N210	N	1.551244	-0.166900	0.235900
C211	C	0.926965	0.135709	0.769825
C212	C	1.426965	0.635709	1.269825
N213	N	0.876184	0.162894	0.812949
N214	N	1.376184	0.662894	1.312949
C215	C	1.053218	-0.561725	-0.279519
C216	C	1.553218	-0.061725	0.220481
N217	N	1.052823	-0.582610	-0.354209
N218	N	1.552823	-0.082610	0.145791
H219	H	0.944457	0.126331	0.566087
H220	H	1.444457	0.626331	1.066087
H221	H	0.944448	0.126325	0.433868
H222	H	1.444448	0.626325	0.933868
H223	H	0.306713	0.144358	-0.000052
H224	H	0.806713	0.644358	0.499948
C225	C	1.184339	-0.002111	0.230140
C226	C	1.684339	0.497889	0.730140
N227	N	1.235116	-0.029302	0.187024
N228	N	1.735116	0.470698	0.687024
H229	H	0.347640	-0.015403	-0.000011
H230	H	0.847640	0.484597	0.499989
C231	C	1.055999	-0.410520	0.279464
C232	C	1.555999	0.089480	0.779464
N233	N	1.055578	-0.431404	0.354173
N234	N	1.555578	0.068596	0.854173
H235	H	1.057965	-0.311807	-0.253743
H236	H	1.557965	0.188193	0.246257
H237	H	1.055035	-0.463120	0.253677
H238	H	1.555035	0.036880	0.753677
H239	H	0.594425	0.147288	-0.000049
H240	H	1.094425	0.647288	0.499951
C241	C	0.486044	0.158797	-0.000052
C242	C	0.986044	0.658797	0.499948
N243	N	0.515336	0.195673	-0.000050
N244	N	1.015336	0.695673	0.499950
C245	C	1.048835	-0.793670	-0.189392
C246	C	1.548835	-0.293670	0.310608
N247	N	1.048435	-0.814554	-0.264083
N248	N	1.548435	-0.314554	0.235917
C249	C	1.048807	-0.793705	0.189267
C250	C	1.548807	-0.293705	0.689267
N251	N	1.048399	-0.814593	0.263972
N252	N	1.548399	-0.314593	0.763972
H253	H	1.056226	-0.403262	-0.253752
H254	H	1.556226	0.096738	0.246248
H255	H	1.057862	-0.311856	0.253700
H256	H	1.557862	0.188144	0.753700
C257	C	1.062444	-0.072726	0.189335
C258	C	1.562444	0.427274	0.689335
N259	N	1.062815	-0.051840	0.264026
N260	N	1.562815	0.448160	0.764026
