data_functionalizedCrystal
_audit_creation_method	'MofGen! by Chris Wilmer'
_symmetry_space_group_name_H-M	'P1'
_symmetry_Int_Tables_number	1
_symmetry_cell_setting	triclinic
loop_
_symmetry_equiv_pos_as_xyz
  x,y,z
_cell_length_a	12.759401
_cell_length_b	10.686285
_cell_length_c	10.685314
_cell_angle_alpha	90.303498
_cell_angle_beta	94.350714
_cell_angle_gamma	85.633237
loop_
_atom_site_label
_atom_site_type_symbol
_atom_site_fract_x
_atom_site_fract_y
_atom_site_fract_z
Zn1	Zn	1.598842	-0.553641	-0.671042
Zn2	Zn	1.625548	-0.747381	-0.445216
Zn3	Zn	1.435510	-0.537640	-0.461291
Zn4	Zn	1.437579	-0.763358	-0.654936
O5	O	1.524370	-0.650505	-0.558121
O6	O	1.749405	-0.579350	-0.641099
O7	O	1.610650	-0.706175	-0.271798
O8	O	1.445134	-0.364218	-0.502583
O9	O	1.769026	-0.721690	-0.475185
O10	O	1.565133	-0.375974	-0.656687
O11	O	1.471030	-0.552080	-0.283609
O12	O	1.288764	-0.567572	-0.486965
O13	O	1.448660	-0.748921	-0.832623
O14	O	1.290284	-0.733406	-0.629235
O15	O	1.567139	-0.594843	-0.844456
O16	O	1.612657	-0.925044	-0.459567
O17	O	1.474556	-0.936783	-0.613648
C18	C	1.251403	-0.650487	-0.558098
C19	C	1.134627	-0.650513	-0.558115
C20	C	1.080600	-0.736975	-0.632059
C21	C	0.970874	-0.736981	-0.632084
C22	C	0.969213	-0.564060	-0.484209
C23	C	1.078936	-0.564048	-0.484192
C24	C	1.546756	-0.976432	-0.533143
C25	C	1.556426	-1.115869	-0.522499
C26	C	1.798403	-0.650523	-0.558146
C27	C	1.915179	-0.650531	-0.558156
C28	C	1.505151	-0.675449	-0.885330
C29	C	1.496962	-0.686078	-1.024767
C30	C	1.501923	-0.323306	-0.583225
C31	C	1.492358	-0.183874	-0.593922
C32	C	1.543568	-0.625567	-0.232192
C33	C	1.551937	-0.614584	-0.092783
H34	H	0.926890	-0.807386	-0.692299
H35	H	1.443628	-0.755418	-1.073210
C36	C	1.138372	-0.468934	-0.402844
C37	C	1.203848	-0.374680	-0.464899
C38	C	1.263283	-0.279567	-0.383559
C39	C	1.257242	-0.278709	-0.240164
C40	C	1.191763	-0.372967	-0.178101
C41	C	1.132328	-0.468079	-0.259442
H42	H	1.208322	-0.375312	-0.571056
H43	H	1.311754	-0.209791	-0.429503
H44	H	1.301239	-0.208301	-0.179951
H45	H	1.187289	-0.372334	-0.071945
H46	H	1.083857	-0.537855	-0.213498
C47	C	1.623984	-0.520890	-1.027346
C48	C	1.576930	-0.415605	-0.944795
C49	C	1.648976	-0.321913	-0.879358
C50	C	1.768076	-0.333506	-0.896473
C51	C	1.815137	-0.438796	-0.979029
C52	C	1.743091	-0.532488	-1.044465
H53	H	1.488759	-0.407019	-0.932122
H54	H	1.614138	-0.243971	-0.818245
H55	H	1.821409	-0.264150	-0.848033
H56	H	1.903308	-0.447382	-0.991702
H57	H	1.777929	-0.610430	-1.105578
H58	H	1.430109	-1.135425	-0.663216
H59	H	1.125940	-0.807377	-0.692255
H60	H	1.618673	-1.164325	-0.453193
C61	C	0.907952	-0.468962	-0.402886
C62	C	0.787263	-0.468975	-0.402893
C63	C	0.726004	-0.373878	-0.321564
C64	C	0.785436	-0.278769	-0.240228
C65	C	0.906132	-0.278753	-0.240218
C66	C	0.967390	-0.373849	-0.321547
H67	H	0.743262	-0.539384	-0.463106
H68	H	0.636657	-0.373891	-0.321572
H69	H	0.740089	-0.208373	-0.180023
H70	H	0.950133	-0.208344	-0.180005
H71	H	1.056738	-0.373837	-0.321539
