data_functionalizedCrystal
_audit_creation_method	'MofGen! by Chris Wilmer'
_symmetry_space_group_name_H-M	'P1'
_symmetry_Int_Tables_number	1
_symmetry_cell_setting	triclinic
loop_
_symmetry_equiv_pos_as_xyz
  x,y,z
_cell_length_a	10.489741
_cell_length_b	17.699083
_cell_length_c	16.176319
_cell_angle_alpha	90.004769
_cell_angle_beta	90.007322
_cell_angle_gamma	96.088906
loop_
_atom_site_label
_atom_site_type_symbol
_atom_site_fract_x
_atom_site_fract_y
_atom_site_fract_z
O1	O	0.161299	-1.005127	0.068630
O2	O	0.182284	-0.784886	0.068657
O3	O	-0.013900	-0.900018	0.068638
O4	O	0.357482	-0.889995	0.068649
O5	O	-0.013918	-0.900016	-0.068855
O6	O	0.182266	-0.784884	-0.068836
O7	O	0.161281	-1.005125	-0.068863
Cu8	Cu	0.171771	-0.895004	-0.081404
Cu9	Cu	0.171793	-0.895007	0.081198
O10	O	0.357464	-0.889993	-0.068844
C11	C	0.181523	-0.756683	-0.000086
C12	C	0.179267	-0.672650	-0.000076
C13	C	-0.061427	-0.899260	-0.000108
C14	C	-0.203014	-0.896995	-0.000106
N15	N	0.171798	-0.895009	0.195563
C16	C	-0.269793	-0.823740	-0.000091
C17	C	-0.362567	-0.858344	-0.067887
C18	C	-0.362524	-0.858363	0.067671
C19	C	-0.293923	-0.931629	-0.067958
C20	C	-0.293871	-0.931638	0.067661
C21	C	-0.386619	-0.966296	-0.000151
C22	C	0.404991	-0.890751	-0.000096
C23	C	0.546578	-0.893016	-0.000093
C24	C	0.162042	-1.033328	-0.000118
C25	C	0.164297	-1.117361	-0.000123
C26	C	0.294422	-0.624782	-0.000073
C27	C	0.292295	-0.545825	-0.000083
C28	C	0.175011	-0.514737	-0.000091
C29	C	0.059847	-0.562611	-0.000097
C30	C	0.061975	-0.641567	-0.000092
C31	C	0.051260	-0.244192	-0.000118
C32	C	0.049140	-0.165230	-0.000120
C33	C	0.281580	-0.148450	-0.000109
C34	C	0.283709	-0.227406	-0.000104
C35	C	0.168545	-0.275273	-0.000114
C36	C	0.170853	-0.360887	-0.000104
C37	C	0.172702	-0.429124	-0.000096
N38	N	0.171756	-0.895008	-0.195769
C39	C	0.085099	-0.946086	0.238819
C40	C	0.085096	-0.946089	0.325366
C41	C	0.171788	-0.895011	0.368656
C42	C	0.258496	-0.843931	0.325394
C43	C	0.258504	-0.843932	0.238848
C44	C	0.258467	-0.843925	0.674422
C45	C	0.258450	-0.843926	0.760974
C46	C	0.085059	-0.946082	0.760940
C47	C	0.085067	-0.946083	0.674394
C48	C	0.171780	-0.895007	0.631140
C49	C	0.171783	-0.895005	0.537296
C50	C	0.171779	-0.895008	0.462498
H51	H	-0.393010	-0.827347	-0.125195
O52	O	-0.253542	-0.972707	0.143558
H53	H	-0.148108	-0.974515	0.142545
H54	H	0.329105	-0.802341	0.203630
H55	H	0.379213	-0.252713	-0.000094
O56	O	0.416503	-0.494198	-0.000082
H57	H	0.421096	-0.457810	0.055950
O58	O	-0.062226	-0.693202	-0.000098
H59	H	-0.118360	-0.682074	0.055941
O60	O	-0.072948	-0.295813	-0.000120
H61	H	-0.077552	-0.332187	-0.056164
H62	H	-0.035648	-0.537293	-0.000115
O63	O	-0.253873	-0.972647	-0.143970
H64	H	-0.148326	-0.973979	-0.143396
H65	H	-0.046372	-0.139922	-0.000128
O66	O	0.352044	-0.788873	0.627773
H67	H	0.412335	-0.753364	0.672418
O68	O	-0.008395	-1.001184	0.192128
H69	H	-0.068670	-1.036708	0.236751
O70	O	-0.008471	-1.001178	0.807588
H71	H	-0.107924	-0.991094	0.790962
H72	H	0.014500	-0.987680	0.360584
H73	H	0.014471	-0.987673	0.639150
O74	O	0.351967	-0.788839	0.807670
H75	H	0.412276	-0.753328	0.763054
H76	H	0.329088	-0.802344	0.360645
H77	H	-0.437163	-1.026580	-0.000196
O78	O	-0.202514	-0.743966	-0.000167
H79	H	-0.274921	-0.702565	-0.000786
O80	O	-0.402790	-0.817300	0.143596
H81	H	-0.355524	-0.758143	0.143454
H82	H	0.375352	-0.109467	-0.000105
O83	O	0.420922	-0.658313	-0.000072
H84	H	0.500639	-0.611759	-0.000083
