data_functionalizedCrystal
_audit_creation_method	'MofGen! by Chris Wilmer'
_symmetry_space_group_name_H-M	'P1'
_symmetry_Int_Tables_number	1
_symmetry_cell_setting	triclinic
loop_
_symmetry_equiv_pos_as_xyz
  x,y,z
_cell_length_a	11.026607
_cell_length_b	17.699104
_cell_length_c	16.176319
_cell_angle_alpha	89.991696
_cell_angle_beta	89.996049
_cell_angle_gamma	95.938767
loop_
_atom_site_label
_atom_site_type_symbol
_atom_site_fract_x
_atom_site_fract_y
_atom_site_fract_z
O1	O	0.153522	1.025162	-0.068761
O2	O	0.173453	0.807524	-0.068759
O3	O	-0.013114	0.898305	-0.068757
O4	O	0.340090	0.934380	-0.068763
O5	O	-0.013126	0.898287	0.068736
O6	O	0.173441	0.807506	0.068734
O7	O	0.153510	1.025144	0.068732
Cu8	Cu	0.163475	0.916323	0.081287
Cu9	Cu	0.163489	0.916344	-0.081314
O10	O	0.340078	0.934363	0.068730
C11	C	0.172729	0.779220	-0.000012
C12	C	0.170573	0.694906	-0.000011
C13	C	-0.058312	0.891641	-0.000011
C14	C	-0.192970	0.871801	-0.000014
C15	C	0.267929	0.183411	-0.000022
C16	C	0.269947	0.262632	-0.000024
C17	C	0.160425	0.296202	-0.000022
C18	C	0.048877	0.250547	-0.000026
C19	C	0.046860	0.171327	-0.000029
C20	C	0.057008	0.570030	-0.000013
C21	C	0.059033	0.649255	-0.000007
C22	C	0.280094	0.661335	-0.000008
C23	C	0.278078	0.582115	-0.000011
C24	C	0.166531	0.536467	-0.000019
C25	C	0.164344	0.450566	-0.000018
C26	C	0.162610	0.382101	-0.000017
C27	C	-0.266931	0.926582	-0.000016
C28	C	-0.406107	0.906078	-0.000019
C29	C	0.385276	0.941027	-0.000018
C30	C	0.519934	0.960866	-0.000020
C31	C	0.154234	1.053448	-0.000017
C32	C	0.156390	1.137762	-0.000023
N33	N	0.163464	0.916314	0.195652
N34	N	0.163490	0.916358	-0.195680
C35	C	0.080886	0.956532	0.238917
C36	C	0.080884	0.956536	0.325465
C37	C	0.163468	0.916326	0.368745
C38	C	0.246051	0.876103	0.325474
C39	C	0.246045	0.876095	0.238928
C40	C	0.246073	0.876132	0.674502
C41	C	0.246075	0.876144	0.761054
C42	C	0.080912	0.956573	0.761038
C43	C	0.080907	0.956565	0.674493
C44	C	0.163485	0.916339	0.631229
C45	C	0.163483	0.916334	0.537385
C46	C	0.163476	0.916334	0.462588
H47	H	0.357115	0.156085	-0.000017
H48	H	0.013641	0.989280	0.203684
F49	F	-0.006979	0.999382	0.807089
F50	F	-0.215026	1.007725	-0.000022
F51	F	-0.458006	0.824931	-0.000025
H52	H	-0.232686	0.809723	-0.000019
H53	H	0.313287	0.843344	0.203703
H54	H	-0.030159	0.676585	-0.000007
H55	H	0.013642	0.989284	0.360691
F56	F	0.394646	0.546392	-0.000011
F57	F	0.333938	0.833302	0.371537
H58	H	0.013664	0.989311	0.639257
H59	H	-0.040298	0.277885	-0.000029
F60	F	-0.428170	1.042014	-0.000025
H61	H	0.360773	0.299797	-0.000031
F62	F	0.333960	0.833323	0.628464
F63	F	0.398814	0.709924	-0.000004
F64	F	-0.061710	0.521457	-0.000037
H65	H	0.313327	0.843397	0.796291
H66	H	-0.043966	0.134160	-0.000032
