data_functionalizedCrystal
_audit_creation_method	'MofGen! by Chris Wilmer'
_symmetry_space_group_name_H-M	'P1'
_symmetry_Int_Tables_number	1
_symmetry_cell_setting	triclinic
loop_
_symmetry_equiv_pos_as_xyz
  x,y,z
_cell_length_a	15.698487
_cell_length_b	21.606444
_cell_length_c	21.606444
_cell_angle_alpha	60.000398
_cell_angle_beta	89.998774
_cell_angle_gamma	59.999624
loop_
_atom_site_label
_atom_site_type_symbol
_atom_site_fract_x
_atom_site_fract_y
_atom_site_fract_z
Zr1	Zr	0.820601	0.677464	-0.081209
O2	O	0.684585	0.806582	-0.180029
O3	O	0.862299	0.548345	-0.050918
O4	O	0.862298	0.677467	-0.180036
O5	O	0.684585	0.677458	0.050941
O6	O	1.002479	0.677469	-0.180037
O7	O	0.684586	0.677461	-0.050912
O8	O	1.002480	0.446495	0.050930
O9	O	0.684584	0.908433	-0.180026
O10	O	0.984696	0.601456	-0.037997
O11	O	0.880080	0.601452	0.038016
O12	O	0.880079	0.753476	-0.114003
O13	O	0.775463	0.753472	-0.037990
Zr14	Zr	1.044173	0.677464	0.081232
Zr15	Zr	1.044174	0.677468	-0.081212
Zr16	Zr	0.820600	0.677460	0.081235
Zr17	Zr	0.820599	0.839904	-0.081204
Zr18	Zr	1.044175	0.515024	0.081227
O19	O	1.002475	0.806582	0.050942
O20	O	1.002477	0.806588	-0.180033
O21	O	0.684584	0.806577	0.050945
O22	O	1.180188	0.548345	0.180052
O23	O	1.180190	0.548351	-0.050922
O24	O	0.862297	0.548340	0.180056
O25	O	1.180188	0.677469	-0.050918
O26	O	1.002476	0.677461	0.180059
O27	O	0.862295	0.677458	0.180060
O28	O	1.180187	0.677467	0.050935
O29	O	0.862294	0.908436	-0.180028
O30	O	1.002479	0.446492	0.180051
O31	O	1.180190	0.446495	0.180049
O32	O	1.180191	0.446498	0.050928
O33	O	0.684583	0.908430	-0.050905
O34	O	0.862293	0.908433	-0.050907
O35	O	0.984695	0.601452	0.114026
O36	O	1.089311	0.601456	0.038013
O37	O	0.984694	0.753476	-0.037992
O38	O	0.880078	0.753472	0.038021
C39	C	0.932390	0.474276	0.000005
C40	C	0.932391	0.405316	0.000003
C41	C	0.652732	0.677459	0.000015
C42	C	0.557819	0.677457	0.000016
C43	C	0.986997	0.372920	-0.039676
C44	C	0.987001	0.308120	-0.039671
C45	C	0.932391	0.275721	0.000009
C46	C	0.877784	0.308120	0.039693
C47	C	0.877787	0.372914	0.039692
C48	C	0.877771	0.046810	0.039699
C49	C	0.877770	-0.017987	0.039696
C50	C	0.986985	-0.017984	-0.039664
C51	C	0.986989	0.046811	-0.039665
C52	C	0.932386	0.079200	0.000022
C53	C	0.932384	0.149462	0.000017
C54	C	0.932387	0.205465	0.000010
C55	C	0.384034	0.677473	0.000009
C56	C	0.480738	0.677468	0.000011
C57	C	1.212042	0.677469	0.000008
C58	C	1.306955	0.677470	0.000007
C59	C	0.932389	0.677469	-0.203181
C60	C	0.932389	0.677470	-0.272143
C61	C	0.932384	0.880652	0.000018
C62	C	0.932383	0.949612	0.000020
C63	C	1.009616	0.677473	-0.304542
C64	C	1.009619	0.677467	-0.369335
C65	C	0.932390	0.677464	-0.401731
C66	C	0.855160	0.677459	-0.369326
C67	C	0.855162	0.677459	-0.304531
C68	C	0.855151	0.677458	-0.630636
C69	C	0.855153	0.677461	-0.695437
C70	C	1.009608	0.677466	-0.695440
C71	C	1.009610	0.677466	-0.630645
C72	C	0.932383	0.677456	-0.598244
C73	C	0.932382	0.677461	-0.527987
C74	C	0.932387	0.677465	-0.471990
C75	C	0.932385	0.677459	0.203204
C76	C	0.932385	0.677457	0.272166
C77	C	1.212045	0.474281	0.000002
C78	C	1.306959	0.405322	-0.000001
C79	C	0.932388	0.474271	0.203198
C80	C	0.932389	0.405309	0.272157
C81	C	1.212043	0.474276	0.203195
C82	C	1.306956	0.405316	0.272153
C83	C	0.652730	0.880652	-0.203171
C84	C	0.557817	0.949612	-0.272130
C85	C	0.652729	0.880647	0.000021
C86	C	0.557815	0.949605	0.000025
C87	C	0.932386	0.880657	-0.203175
C88	C	0.932385	0.949618	-0.272134
C89	C	1.296923	0.372939	-0.039687
C90	C	1.386096	0.308154	-0.039705
C91	C	1.485303	0.275749	-0.000033
C92	C	1.495337	0.308139	0.039653
C93	C	1.406165	0.372927	0.039667
C94	C	0.986997	0.372924	0.344225
C95	C	0.986993	0.308136	0.409026
C96	C	0.932387	0.275730	0.401757
C97	C	0.877772	0.308122	0.329682
C98	C	0.877770	0.372913	0.264883
C99	C	1.406146	0.372933	0.264859
C100	C	1.495336	0.308147	0.329646
C101	C	1.485333	0.275740	0.401727
C102	C	1.386132	0.308129	0.409020
C103	C	1.296945	0.372918	0.344233
C104	C	0.458627	0.982002	-0.264835
C105	C	0.369438	1.046809	-0.329623
C106	C	0.379441	1.079219	-0.401704
C107	C	0.478642	1.046826	-0.408997
C108	C	0.567829	0.982025	-0.344210
C109	C	0.567851	0.981996	0.039703
C110	C	0.478678	1.046799	0.039703
C111	C	0.379471	1.079205	0.000029
C112	C	0.369437	1.046812	-0.039654
C113	C	0.458609	0.982015	-0.039658
C114	C	0.987002	0.982004	-0.264841
C115	C	0.987022	1.046792	-0.329630
C116	C	0.932418	1.079198	-0.401710
C117	C	0.877800	1.046807	-0.409002
C118	C	0.877787	0.982015	-0.344214
H119	H	1.031461	0.399299	-0.071992
H120	H	1.031466	0.281743	-0.071980
F121	F	0.489271	1.081327	-0.485718
H122	H	1.377906	0.281790	-0.072022
F123	F	0.263872	1.081270	-0.321845
H124	H	0.833343	1.073202	-0.467698
F125	F	1.191347	0.407416	-0.081916
F126	F	1.191382	0.407371	0.352008
H127	H	1.031452	0.073191	-0.071979
F128	F	1.045103	-0.052463	-0.081900
F129	F	1.045123	0.947526	-0.188134
F130	F	1.600929	0.273641	0.081874
F131	F	1.580264	0.206783	0.470674
H132	H	0.833299	-0.044365	0.072010
F133	F	1.416862	0.407381	0.081912
F134	F	1.045152	1.081258	-0.321854
H135	H	1.378003	0.281733	0.467717
F136	F	1.045124	0.407399	0.351978
F137	F	1.416816	0.407415	0.188150
F138	F	1.600902	0.273685	0.321869
F139	F	0.673426	0.947520	0.081931
H140	H	1.031471	0.281771	0.467706
F141	F	0.447958	0.947519	-0.188127
H142	H	0.932397	0.222973	0.454527
H143	H	0.792281	0.677451	-0.395704
F144	F	0.819661	0.273623	0.321958
F145	F	1.580199	0.206794	-0.000053
F146	F	0.932440	1.148158	-0.470657
H147	H	0.833305	0.399272	0.206204
H148	H	0.833314	0.073171	0.072018
F149	F	0.284510	1.148186	-0.470650
F150	F	0.447912	0.947545	-0.081887
H151	H	0.833307	0.955654	-0.350162
F152	F	0.284574	1.148168	0.000042
F153	F	0.819678	0.273626	0.081934
H154	H	0.648591	0.955654	-0.350159
H155	H	0.486868	1.073162	0.072021
H156	H	0.288651	1.073208	-0.071955
H157	H	1.072501	0.677481	-0.278172
F158	F	1.091813	0.677469	-0.403816
F159	F	0.819669	0.407390	0.081925
H160	H	1.072494	0.677471	-0.721826
F161	F	1.091803	0.677474	-0.596172
H162	H	0.792268	0.677452	-0.604261
F163	F	0.772952	0.677456	-0.729913
H164	H	0.792277	0.677454	-0.278151
