data_functionalizedCrystal
_audit_creation_method	'MofGen! by Chris Wilmer'
_symmetry_space_group_name_H-M	'P1'
_symmetry_Int_Tables_number	1
_symmetry_cell_setting	triclinic
loop_
_symmetry_equiv_pos_as_xyz
  x,y,z
_cell_length_a	17.077404
_cell_length_b	19.077068
_cell_length_c	19.077174
_cell_angle_alpha	94.657148
_cell_angle_beta	87.684591
_cell_angle_gamma	92.327269
loop_
_atom_site_label
_atom_site_type_symbol
_atom_site_fract_x
_atom_site_fract_y
_atom_site_fract_z
Zn1	Zn	1.205069	-0.296674	-0.409853
Zn2	Zn	1.194834	-0.409828	-0.296696
Zn3	Zn	1.068740	-0.291960	-0.291981
Zn4	Zn	1.068687	-0.414524	-0.414541
O5	O	1.134333	-0.353247	-0.353268
O6	O	1.313558	-0.311692	-0.394853
O7	O	1.173846	-0.390255	-0.197423
O8	O	1.091129	-0.193936	-0.303682
O9	O	1.306039	-0.394826	-0.311718
O10	O	1.191290	-0.197399	-0.390282
O11	O	1.081205	-0.303657	-0.193959
O12	O	0.958886	-0.308211	-0.308228
O13	O	1.091040	-0.402829	-0.512567
O14	O	0.958847	-0.398258	-0.398272
O15	O	1.191239	-0.316245	-0.509123
O16	O	1.173795	-0.509101	-0.316264
O17	O	1.081116	-0.512551	-0.402844
C18	C	0.930384	-0.353233	-0.353248
C19	C	0.843134	-0.353245	-0.353257
C20	C	0.802139	-0.400198	-0.400073
C21	C	0.720159	-0.400200	-0.400084
C22	C	0.679176	-0.353252	-0.353275
C23	C	0.720177	-0.306294	-0.306457
C24	C	0.802156	-0.306289	-0.306450
C25	C	0.549307	-0.306308	-0.306474
C26	C	0.467323	-0.306314	-0.306481
C27	C	0.467310	-0.400219	-0.400109
C28	C	0.549289	-0.400214	-0.400102
C29	C	0.590285	-0.353257	-0.353282
C30	C	1.126361	-0.536405	-0.360589
C31	C	1.123024	-0.614762	-0.363745
C32	C	1.169749	-0.649756	-0.320188
C33	C	1.166615	-0.723381	-0.323160
C34	C	1.116751	-0.762010	-0.369687
C35	C	1.070023	-0.727011	-0.413249
C36	C	1.073162	-0.653387	-0.410280
C37	C	1.102188	-0.982396	-0.383400
C38	C	1.099051	-1.056024	-0.386365
C39	C	1.195645	-1.052389	-0.296276
C40	C	1.198776	-0.978764	-0.293308
C41	C	1.152051	-0.943771	-0.336873
N42	N	1.113544	-0.837266	-0.372725
N43	N	1.155263	-0.868516	-0.333838
C44	C	1.339077	-0.353261	-0.353288
C45	C	1.426327	-0.353267	-0.353297
C46	C	1.142276	-0.360587	-0.537138
C47	C	1.145661	-0.363714	-0.615493
C48	C	1.142357	-0.169374	-0.345933
C49	C	1.145777	-0.091018	-0.342807
C50	C	1.099020	-0.320098	-0.650500
C51	C	1.102197	-0.323043	-0.724123
C52	C	1.152020	-0.369601	-0.762737
C53	C	1.198662	-0.413222	-0.727725
C54	C	1.195480	-0.410280	-0.654103
C55	C	1.166704	-0.383237	-0.983115
C56	C	1.169884	-0.386174	-1.056741
C57	C	1.073418	-0.295995	-1.053134
C58	C	1.070244	-0.293055	-0.979512
C59	C	1.116883	-0.336679	-0.944506
N60	N	1.155270	-0.372611	-0.837991
N61	N	1.113628	-0.333672	-0.869253
C62	C	1.126468	-0.345884	-0.170111
C63	C	1.123243	-0.342558	-0.091748
H64	H	0.433957	-0.268077	-0.268373
O65	O	1.021957	-0.247757	-0.941967
C66	C	1.066794	-0.200540	-0.897556
H67	H	1.129766	-0.197073	-0.919578
H68	H	1.040733	-0.146254	-0.894550
H69	H	1.066140	-0.220112	-0.842631
H70	H	0.582684	-0.268065	-0.268355
H71	H	1.029426	-0.758469	-0.451136
H72	H	1.233686	-1.080888	-0.260809
O73	O	0.680447	-0.260718	-0.260891
C74	C	0.696746	-0.273218	-0.191215
H75	H	0.755025	-0.300249	-0.190786
H76	H	0.700393	-0.221032	-0.157654
H77	H	0.648000	-0.308479	-0.168864
O78	O	1.247167	-0.458411	-0.765154
C79	C	1.325299	-0.442281	-0.746568
H80	H	1.325798	-0.413048	-0.692034
H81	H	1.358168	-0.493061	-0.746082
H82	H	1.355112	-0.407694	-0.786560
H83	H	1.210459	-0.424088	-1.088179
O84	O	1.056758	-0.948325	-0.425610
C85	C	1.006161	-0.904201	-0.383715
H86	H	1.032061	-0.891044	-0.329871
H87	H	0.999062	-0.853570	-0.410332
H88	H	0.946448	-0.932309	-0.377065
H89	H	0.686784	-0.438434	-0.438206
O90	O	1.050735	-0.274795	-0.612960
C91	C	1.095567	-0.227573	-0.568550
H92	H	1.158541	-0.224108	-0.590566
H93	H	1.069505	-0.173287	-0.565553
H94	H	1.094906	-0.247139	-0.513622
H95	H	0.433928	-0.438451	-0.438233
H96	H	1.064214	-0.287529	-0.752623
H97	H	0.582655	-0.438447	-0.438214
H98	H	1.035446	-0.260480	-1.081644
H99	H	1.233466	-0.445792	-0.625601
H100	H	0.835534	-0.268052	-0.268330
O101	O	1.247176	-0.941319	-0.248020
C102	C	1.226271	-0.956534	-0.178472
H103	H	1.193749	-1.009951	-0.179141
H104	H	1.281484	-0.957769	-0.147013
H105	H	1.186677	-0.914187	-0.153023
O106	O	0.841827	-0.445829	-0.445612
C107	C	0.788058	-0.487281	-0.486924
H108	H	0.730985	-0.458512	-0.488261
H109	H	0.813824	-0.497101	-0.542756
H110	H	0.775888	-0.539748	-0.463163
O111	O	1.218255	-0.612342	-0.274971
C112	C	1.258809	-0.659020	-0.237151
H113	H	1.260512	-0.712639	-0.268146
H114	H	1.321249	-0.637408	-0.228821
H115	H	1.227461	-0.664759	-0.183907
H116	H	1.035114	-0.624896	-0.445750
H117	H	1.204664	-0.751869	-0.287690
O118	O	1.050598	-1.093444	-0.431631
C119	C	1.010018	-1.046772	-0.469436
H120	H	1.044510	-0.994363	-0.469786
H121	H	1.003096	-1.070247	-0.525828
H122	H	0.949634	-1.037965	-0.443266
O123	O	1.212096	-0.425629	-0.949226
C124	C	1.256742	-0.467358	-0.999098
H125	H	1.262979	-0.440579	-1.050427
H126	H	1.317346	-0.474025	-0.978136
H127	H	1.226006	-0.521213	-1.009058
