data_functionalizedCrystal
_audit_creation_method	'MofGen! by Chris Wilmer'
_symmetry_space_group_name_H-M	'P1'
_symmetry_Int_Tables_number	1
_symmetry_cell_setting	triclinic
loop_
_symmetry_equiv_pos_as_xyz
  x,y,z
_cell_length_a	14.044220
_cell_length_b	17.038272
_cell_length_c	12.503572
_cell_angle_alpha	93.777379
_cell_angle_beta	86.164750
_cell_angle_gamma	92.150217
loop_
_atom_site_label
_atom_site_type_symbol
_atom_site_fract_x
_atom_site_fract_y
_atom_site_fract_z
O1	O	1.278116	0.185401	-0.089207
O2	O	1.778116	0.685401	0.410793
O3	O	1.001597	0.178559	-0.089234
O4	O	1.501597	0.678559	0.410766
O5	O	1.138213	0.068050	-0.089212
O6	O	1.638213	0.568050	0.410788
O7	O	1.141501	0.295910	-0.089229
O8	O	1.641501	0.795910	0.410771
O9	O	1.127940	0.076376	0.089428
O10	O	1.627940	0.576376	0.589428
O11	O	0.991324	0.186885	0.089406
O12	O	1.491324	0.686885	0.589406
O13	O	1.267843	0.193727	0.089433
O14	O	1.767843	0.693727	0.589433
Cu15	Cu	1.128646	0.191066	0.105731
Cu16	Cu	1.628646	0.691066	0.605731
Cu17	Cu	1.140795	0.181220	-0.105532
Cu18	Cu	1.640795	0.681220	0.394468
O19	O	1.131228	0.304236	0.089411
O20	O	1.631228	0.804236	0.589411
C21	C	0.960905	0.179728	0.000083
C22	C	1.460905	0.679728	0.500083
C23	C	0.854959	0.170796	0.000072
C24	C	1.354959	0.670796	0.500072
C25	C	1.130087	0.042876	0.000108
C26	C	1.630087	0.542876	0.500108
C27	C	1.121168	-0.044541	0.000106
C28	C	1.621168	0.455459	0.500106
C29	C	0.660980	0.154469	0.000095
C30	C	1.160980	0.654469	0.500095
C31	C	0.608455	0.217814	0.000095
C32	C	1.108455	0.717814	0.500095
C33	C	0.500518	0.208729	0.000107
C34	C	1.000518	0.708729	0.500107
C35	C	0.768927	0.163552	0.000082
C36	C	1.268927	0.663552	0.500082
C37	C	1.203055	-0.088926	0.000115
C38	C	1.703055	0.411074	0.500115
C39	C	1.194670	-0.171064	0.000104
C40	C	1.694670	0.328936	0.500104
C41	C	1.104395	-0.208815	0.000092
C42	C	1.604395	0.291185	0.500092
C43	C	1.022502	-0.164424	0.000080
C44	C	1.522502	0.335576	0.500080
C45	C	1.030888	-0.082288	0.000083
C46	C	1.530888	0.417712	0.500083
C47	C	1.074766	-0.456646	0.000074
C48	C	1.574766	0.043354	0.500074
C49	C	1.066385	-0.538788	0.000074
C50	C	1.566385	-0.038788	0.500074
C51	C	1.238555	-0.545422	0.000097
C52	C	1.738555	-0.045422	0.500097
C53	C	1.246933	-0.463284	0.000107
C54	C	1.746933	0.036716	0.500107
C55	C	1.165040	-0.418901	0.000089
C56	C	1.665040	0.081099	0.500089
C57	C	1.095822	-0.292772	0.000084
C58	C	1.595822	0.207228	0.500084
C59	C	1.173615	-0.334945	0.000089
C60	C	1.673615	0.165055	0.500089
C61	C	1.308536	0.192558	0.000114
C62	C	1.808536	0.692558	0.500114
C63	C	1.414481	0.201490	0.000117
C64	C	1.914481	0.701490	0.500117
C65	C	1.139354	0.329410	0.000089
C66	C	1.639354	0.829410	0.500089
C67	C	1.148273	0.416827	0.000083
C68	C	1.648273	0.916827	0.500083
N69	N	1.120107	0.197992	0.254322
N70	N	1.620107	0.697992	0.754322
N71	N	1.149340	0.174289	-0.254123
N72	N	1.649340	0.674289	0.245877
C73	C	1.107548	0.208186	0.473435
C74	C	1.607548	0.708186	0.973435
C75	C	1.161896	0.164097	0.526771
C76	C	1.661896	0.664097	1.026771
C77	C	1.154908	0.169769	0.648693
C78	C	1.654908	0.669769	1.148693
C79	C	1.114535	0.202515	0.351502
C80	C	1.614535	0.702515	0.851502
H81	H	0.624887	0.093419	0.000105
H82	H	1.124887	0.593419	0.500105
N83	N	1.300423	-0.048211	0.000139
N84	N	1.800423	0.451789	0.500139
H85	H	1.351025	-0.088796	0.000142
H86	H	1.851025	0.411204	0.500142
H87	H	1.311464	-0.017359	-0.066082
H88	H	1.811464	0.482641	0.433918
H89	H	0.644550	0.278868	0.000085
H90	H	1.144550	0.778868	0.500085
N91	N	1.282991	-0.218937	0.000121
N92	N	1.782991	0.281063	0.500121
H93	H	1.341451	-0.182558	0.000139
H94	H	1.841451	0.317442	0.500139
H95	H	1.279444	-0.250077	0.066345
H96	H	1.779444	0.249923	0.566345
H97	H	0.992868	-0.569521	0.000081
H98	H	1.492868	-0.069521	0.500081
N99	N	1.230489	0.108463	0.465967
N100	N	1.730489	0.608463	0.965967
H101	H	1.297794	0.123073	0.485471
H102	H	1.797794	0.623073	0.985471
H103	H	1.213724	0.052817	0.485491
H104	H	1.713724	0.552817	0.985491
H105	H	1.320444	-0.432554	0.000117
H106	H	1.820444	0.067446	0.500117
N107	N	0.925136	-0.205143	0.000070
N108	N	1.425136	0.294857	0.500070
H109	H	0.885154	-0.186312	0.066288
H110	H	1.385154	0.313688	0.566288
H111	H	0.892848	-0.192471	-0.066200
H112	H	1.392848	0.307529	0.433800
N113	N	0.942573	-0.034403	0.000095
N114	N	1.442573	0.465597	0.500095
H115	H	0.946021	-0.003257	-0.066123
H116	H	1.446021	0.496743	0.433877
H117	H	0.884152	-0.070823	0.000135
H118	H	1.384152	0.429177	0.500135
H119	H	1.305227	-0.581568	0.000110
H120	H	1.805227	-0.081568	0.500110
N121	N	1.038965	0.263825	0.534228
N122	N	1.538965	0.763825	1.034228
H123	H	1.043635	0.260041	0.613969
H124	H	1.543635	0.760041	1.113969
H125	H	1.055698	0.319462	0.514639
H126	H	1.555698	0.819462	1.014639
N127	N	1.270978	-0.294230	0.000115
N128	N	1.770978	0.205770	0.500115
H129	H	1.321587	-0.334808	0.000125
H130	H	1.821587	0.165192	0.500125
H131	H	1.282019	-0.263378	-0.066107
H132	H	1.782019	0.236622	0.433893
H133	H	1.008082	-0.420519	0.000060
H134	H	1.508082	0.079481	0.500060
H135	H	1.022319	-0.323518	0.000076
H136	H	1.522319	0.176482	0.500076
