data_functionalizedCrystal
_audit_creation_method	'MofGen! by Chris Wilmer'
_symmetry_space_group_name_H-M	'P1'
_symmetry_Int_Tables_number	1
_symmetry_cell_setting	triclinic
loop_
_symmetry_equiv_pos_as_xyz
  x,y,z
_cell_length_a	10.654550
_cell_length_b	17.699083
_cell_length_c	9.730223
_cell_angle_alpha	89.994713
_cell_angle_beta	89.999957
_cell_angle_gamma	83.883973
loop_
_atom_site_label
_atom_site_type_symbol
_atom_site_fract_x
_atom_site_fract_y
_atom_site_fract_z
O1	O	1.665978	0.106302	-0.114190
O2	O	1.300323	0.116430	-0.114216
O3	O	1.493481	0.001243	-0.114190
O4	O	1.472820	0.221490	-0.114216
O5	O	1.493469	0.001240	0.114390
O6	O	1.300310	0.116427	0.114364
O7	O	1.665966	0.106299	0.114390
Zn8	Zn	1.483136	0.111363	0.150669
Zn9	Zn	1.483152	0.111367	-0.150495
O10	O	1.472807	0.221487	0.114364
C11	C	1.253531	0.115685	0.000071
C12	C	1.114127	0.113460	0.000061
C13	C	1.033454	0.181281	0.000058
C14	C	0.902470	0.179186	0.000082
C15	C	0.932844	0.041444	0.000108
C16	C	1.063826	0.043539	0.000094
C17	C	1.492735	-0.026960	0.000100
C18	C	1.490514	-0.110993	0.000100
C19	C	1.603894	-0.158893	0.000110
C20	C	1.601799	-0.237849	0.000098
C21	C	1.486323	-0.268904	0.000085
C22	C	1.372935	-0.220998	0.000071
C23	C	1.375030	-0.142043	0.000074
C24	C	1.364481	-0.539415	0.000060
C25	C	1.362394	-0.618376	0.000061
C26	C	1.591249	-0.635221	0.000083
C27	C	1.593345	-0.556266	0.000086
C28	C	1.479957	-0.508367	0.000065
C29	C	1.482229	-0.422753	0.000075
C30	C	1.484050	-0.354516	0.000085
C31	C	1.712757	0.107045	0.000100
C32	C	1.852161	0.109269	0.000100
C33	C	1.473554	0.249690	0.000071
C34	C	1.475775	0.333722	0.000061
N35	N	1.483134	0.111359	0.356205
N36	N	1.483164	0.111364	-0.356032
C37	C	1.568694	0.060376	0.428142
C38	C	1.568706	0.060376	0.572025
C39	C	1.397596	0.162350	0.572021
C40	C	1.397578	0.162345	0.428141
H41	H	0.836791	0.234412	0.000081
C42	C	0.745545	-0.022930	0.000127
C43	C	0.877548	-0.035411	0.000125
H44	H	0.711412	-0.070379	0.000127
H45	H	0.717852	0.005017	0.079832
H46	H	0.717847	0.005026	-0.079591
H47	H	0.905246	-0.063362	0.079849
H48	H	0.905252	-0.063370	-0.079587
H49	H	1.129514	-0.011692	0.000101
H50	H	1.327900	0.203862	0.369565
C51	C	1.146924	-0.196410	0.000030
C52	C	1.245999	-0.255131	0.000048
H53	H	1.068559	-0.217483	0.000008
H54	H	1.152491	-0.165972	0.079738
H55	H	1.152521	-0.165960	-0.079684
H56	H	1.240408	-0.285578	0.079768
H57	H	1.240429	-0.285582	-0.079668
H58	H	1.687377	-0.530986	0.000103
H59	H	1.683575	-0.674231	0.000094
H60	H	1.697927	-0.133614	0.000128
C61	C	1.828229	-0.246570	0.000154
C62	C	1.726431	-0.290501	0.000124
H63	H	1.905173	-0.279077	0.000179
H64	H	1.824300	-0.215422	-0.079552
H65	H	1.824260	-0.215426	0.079870
H66	H	1.730393	-0.321642	-0.079598
H67	H	1.730361	-0.321662	0.079838
H68	H	1.268354	-0.643657	0.000054
H69	H	1.074405	0.238215	0.000042
C70	C	1.138052	-0.530706	0.000068
C71	C	1.239846	-0.486771	0.000063
H72	H	1.061106	-0.498201	0.000083
H73	H	1.141995	-0.561843	-0.079640
H74	H	1.142012	-0.561860	0.079782
H75	H	1.235891	-0.455620	-0.079657
H76	H	1.235901	-0.455620	0.079779
H77	H	1.638375	0.018860	0.630593
C78	C	1.244626	-0.043474	-0.117446
C79	C	1.250399	-0.089388	0.000063
H80	H	1.167678	-0.010971	-0.117459
H81	H	1.313691	-0.013684	-0.117428
H82	H	1.248574	-0.074632	-0.197145
H83	H	1.246461	-0.058230	0.079762
H84	H	1.181316	-0.119181	0.000057
C85	C	1.737818	-0.040426	0.442604
C86	C	1.662723	0.004326	0.349069
H87	H	1.795861	-0.075034	0.393787
H88	H	1.782895	-0.008667	0.498701
H89	H	1.685623	-0.067938	0.498742
H90	H	1.714917	0.031843	0.292938
H91	H	1.617643	-0.027437	0.292948
C92	C	1.228446	0.263137	0.557564
C93	C	1.303556	0.218393	0.651096
H94	H	1.170384	0.297733	0.606383
H95	H	1.280620	0.290656	0.501435
H96	H	1.183379	0.231366	0.501457
H97	H	1.348630	0.250163	0.707197
H98	H	1.251376	0.190872	0.707249
