data_functionalizedCrystal
_audit_creation_method	'MofGen! by Chris Wilmer'
_symmetry_space_group_name_H-M	'P1'
_symmetry_Int_Tables_number	1
_symmetry_cell_setting	triclinic
loop_
_symmetry_equiv_pos_as_xyz
  x,y,z
_cell_length_a	19.077142
_cell_length_b	19.077068
_cell_length_c	19.076919
_cell_angle_alpha	85.529249
_cell_angle_beta	89.925643
_cell_angle_gamma	90.114550
loop_
_atom_site_label
_atom_site_type_symbol
_atom_site_fract_x
_atom_site_fract_y
_atom_site_fract_z
Zn1	Zn	-1.044046	0.340467	-0.453535
Zn2	Zn	-0.710713	0.673801	-0.120202
Zn3	Zn	-0.377380	1.007134	0.213132
Zn4	Zn	-1.043960	0.453617	-0.340376
Zn5	Zn	-0.710626	0.786950	-0.007042
Zn6	Zn	-0.377293	1.120284	0.326291
Zn7	Zn	-0.931658	0.331038	-0.330962
Zn8	Zn	-0.598325	0.664372	0.002371
Zn9	Zn	-0.264992	0.997705	0.335705
Zn10	Zn	-0.921799	0.453191	-0.453108
Zn11	Zn	-0.588466	0.786524	-0.119775
Zn12	Zn	-0.255133	1.119857	0.213559
O13	O	-0.985366	0.394578	-0.394495
O14	O	-0.652032	0.727912	-0.061162
O15	O	-0.318699	1.061245	0.272171
O16	O	-1.142194	0.359601	-0.442642
O17	O	-0.808861	0.692935	-0.109309
O18	O	-0.475527	1.026268	0.224024
O19	O	-1.033152	0.433589	-0.240651
O20	O	-0.699819	0.766922	0.092682
O21	O	-0.366486	1.100256	0.426016
O22	O	-0.950729	0.233814	-0.343461
O23	O	-0.617396	0.567148	-0.010127
O24	O	-0.284062	0.900481	0.323206
O25	O	-1.142130	0.442732	-0.359505
O26	O	-0.808797	0.776065	-0.026172
O27	O	-0.475464	1.109399	0.307162
O28	O	-1.033300	0.240742	-0.433514
O29	O	-0.699967	0.574075	-0.100181
O30	O	-0.366633	0.907408	0.233152
O31	O	-0.950645	0.343531	-0.233735
O32	O	-0.617312	0.676864	0.099598
O33	O	-0.283978	1.010198	0.432932
O34	O	-0.832191	0.343117	-0.343047
O35	O	-0.498858	0.676451	-0.009713
O36	O	-0.165524	1.009784	0.323620
O37	O	-0.933926	0.442005	-0.551640
O38	O	-0.600593	0.775339	-0.218307
O39	O	-0.267259	1.108672	0.115026
O40	O	-0.824948	0.432862	-0.432787
O41	O	-0.491614	0.766196	-0.099453
O42	O	-0.158281	1.099529	0.233880
O43	O	-1.023740	0.359188	-0.551954
O44	O	-0.690407	0.692521	-0.218621
O45	O	-0.357074	1.025854	0.114713
O46	O	-1.023592	0.552035	-0.359091
O47	O	-0.690259	0.885368	-0.025758
O48	O	-0.356926	1.218702	0.307576
O49	O	-0.933842	0.551722	-0.441915
O50	O	-0.600508	0.885055	-0.108581
O51	O	-0.267175	1.218389	0.224752
C52	C	-0.803118	0.386921	-0.386849
C53	C	-0.469784	0.720254	-0.053516
C54	C	-0.136451	1.053588	0.279817
C55	C	-0.725150	0.383663	-0.383596
C56	C	-0.391816	0.716996	-0.050262
C57	C	-0.058483	1.050329	0.283071
C58	C	-0.684768	0.428922	-0.428722
C59	C	-0.351434	0.762256	-0.095389
C60	C	-0.018101	1.095589	0.237945
C61	C	-0.611509	0.425852	-0.425668
C62	C	-0.278175	0.759185	-0.092335
C63	C	0.055158	1.092519	0.240999
C64	C	-0.578633	0.377525	-0.377484
C65	C	-0.245300	0.710858	-0.044150
C66	C	0.088033	1.044191	0.289183
C67	C	-0.619021	0.332260	-0.332356
C68	C	-0.285688	0.665593	0.000978
C69	C	0.047646	0.998927	0.334311
C70	C	-0.692278	0.335328	-0.335414
C71	C	-0.358945	0.668661	-0.002080
C72	C	-0.025612	1.001994	0.331253
C73	C	-0.359939	0.363329	-0.363338
C74	C	-0.026606	0.696662	-0.030005
C75	C	0.306727	1.029996	0.303328
C76	C	-0.286676	0.360266	-0.360282
C77	C	0.046657	0.693600	-0.026949
C78	C	0.379990	1.026933	0.306384
C79	C	-0.279169	0.453858	-0.453596
C80	C	0.054164	0.787191	-0.120263
C81	C	0.387498	1.120524	0.213071
C82	C	-0.352428	0.456924	-0.456647
C83	C	-0.019095	0.790257	-0.123313
C84	C	0.314238	1.123591	0.210020
C85	C	-0.392810	0.411657	-0.411521
C86	C	-0.059476	0.744990	-0.078188
C87	C	0.273857	1.078324	0.255145
N88	N	-0.503751	0.374386	-0.374359
N89	N	-0.170418	0.707720	-0.041026
N90	N	0.162916	1.041053	0.292307
N91	N	-0.467691	0.414792	-0.414650
N92	N	-0.134357	0.748126	-0.081316
N93	N	0.198976	1.081459	0.252017
C94	C	-0.977656	0.577413	-0.401494
C95	C	-0.644323	0.910747	-0.068161
C96	C	-0.310990	1.244080	0.265172
C97	C	-0.974421	0.655634	-0.404515
C98	C	-0.641088	0.988968	-0.071181
C99	C	-0.307755	1.322301	0.262152
C100	C	-0.977743	0.401601	-0.578045
C101	C	-0.644410	0.734934	-0.244712
C102	C	-0.311076	1.068267	0.088622
C103	C	-0.974495	0.404593	-0.656263
C104	C	-0.641161	0.737927	-0.322930
C105	C	-0.307828	1.071260	0.010404
C106	C	-0.168326	0.402262	-0.402163
C107	C	0.165007	0.735595	-0.068829
C108	C	0.498341	1.068929	0.264504
C109	C	-0.246294	0.405526	-0.405409
C110	C	0.087039	0.738859	-0.072075
C111	C	0.420373	1.072193	0.261258
C112	C	-0.993124	0.211031	-0.387485
C113	C	-0.659791	0.544364	-0.054152
C114	C	-0.326457	0.877697	0.279182
C115	C	-0.996430	0.132814	-0.384498
C116	C	-0.663097	0.466147	-0.051164
C117	C	-0.329763	0.799480	0.282169
C118	C	-1.019663	0.692526	-0.362850
C119	C	-0.686330	1.025859	-0.029517
C120	C	-0.352996	1.359192	0.303816
C121	C	-1.016624	0.766023	-0.365696
C122	C	-0.683291	1.099356	-0.032362
C123	C	-0.349958	1.432690	0.300971
C124	C	-0.968340	0.802628	-0.410202
C125	C	-0.635007	1.135961	-0.076868
C126	C	-0.301673	1.469294	0.256465
C127	C	-0.923096	0.765732	-0.451871
C128	C	-0.589763	1.099065	-0.118537
C129	C	-0.256429	1.432398	0.214796
C130	C	-0.926139	0.692236	-0.449029
C131	C	-0.592805	1.025569	-0.115695
C132	C	-0.259472	1.358902	0.217638
C133	C	-0.954229	1.022422	-0.423325
C134	C	-0.620896	1.355755	-0.089991
C135	C	-0.287562	1.689088	0.243342
C136	C	-0.951188	1.095922	-0.426162
C137	C	-0.617855	1.429256	-0.092829
C138	C	-0.284522	1.762589	0.240505
C139	C	-1.044718	1.096209	-0.339988
C140	C	-0.711384	1.429542	-0.006654
C141	C	-0.378051	1.762876	0.326679
C142	C	-1.047753	1.022711	-0.337147
C143	C	-0.714420	1.356045	-0.003813
C144	C	-0.381087	1.689378	0.329520
C145	C	-1.002512	0.985822	-0.378818
C146	C	-0.669179	1.319155	-0.045485
C147	C	-0.335845	1.652489	0.287849
N148	N	-0.965231	0.877754	-0.413109
N149	N	-0.631898	1.211087	-0.079776
N150	N	-0.298565	1.544420	0.253557
N151	N	-1.005625	0.910697	-0.375914
N152	N	-0.672291	1.244031	-0.042580
N153	N	-0.338958	1.577364	0.290753
C154	C	-1.019728	0.362883	-0.693174
C155	C	-0.686394	0.696216	-0.359841
C156	C	-0.353061	1.029549	-0.026508
C157	C	-1.016667	0.365691	-0.766668
C158	C	-0.683334	0.699025	-0.433335
C159	C	-0.350000	1.032358	-0.100001
C160	C	-0.968376	0.410215	-0.803249
C161	C	-0.635043	0.743548	-0.469916
C162	C	-0.301710	1.076882	-0.136582
C163	C	-0.923138	0.451927	-0.766332
C164	C	-0.589805	0.785261	-0.432999
C165	C	-0.256472	1.118594	-0.099666
C166	C	-0.926196	0.449114	-0.692840
C167	C	-0.592863	0.782448	-0.359507
C168	C	-0.259529	1.115781	-0.026173
C169	C	-0.954214	0.423248	-1.023031
C170	C	-0.620881	0.756581	-0.689697
C171	C	-0.287547	1.089915	-0.356364
C172	C	-0.951161	0.426060	-1.096528
C173	C	-0.617828	0.759393	-0.763195
C174	C	-0.284494	1.092726	-0.429862
C175	C	-1.044689	0.339822	-1.096859
C176	C	-0.711356	0.673156	-0.763525
C177	C	-0.378022	1.006489	-0.430192
C178	C	-1.047745	0.337016	-1.023365
C179	C	-0.714412	0.670350	-0.690032
C180	C	-0.381079	1.003683	-0.356698
C181	C	-1.002505	0.378726	-0.986454
C182	C	-0.669172	0.712059	-0.653121
C183	C	-0.335838	1.045392	-0.319788
N184	N	-0.965248	0.413089	-0.878372
N185	N	-0.631915	0.746422	-0.545038
N186	N	-0.298581	1.079756	-0.211705
N187	N	-1.005630	0.375848	-0.911333
N188	N	-0.672297	0.709181	-0.578000
N189	N	-0.338964	1.042515	-0.244666
C190	C	-0.993001	0.387534	-0.211659
C191	C	-0.659668	0.720867	0.121674
C192	C	-0.326335	1.054201	0.455007
C193	C	-0.996394	0.384349	-0.133440
C194	C	-0.663061	0.717682	0.199894
C195	C	-0.329727	1.051015	0.533227
H196	H	-0.711529	0.468278	-0.467956
H197	H	-0.378196	0.801612	-0.134623
H198	H	-0.044862	1.134945	0.198710
C199	C	-0.250515	0.307099	-0.307275
C200	C	0.082818	0.640432	0.026059
C201	C	0.416151	0.973766	0.359392
N202	N	-0.223279	0.267057	-0.267350
N203	N	0.110055	0.600390	0.065983
N204	N	0.443388	0.933723	0.399316
C205	C	-0.736699	0.285540	-0.285770
C206	C	-0.403365	0.618873	0.047564
C207	C	-0.070032	0.952206	0.380897
N208	N	-0.770155	0.248037	-0.248377
N209	N	-0.436822	0.581370	0.084956
N210	N	-0.103489	0.914703	0.418289
C211	C	-0.904496	0.981856	-0.469202
C212	C	-0.571163	1.315189	-0.135869
C213	C	-0.237829	1.648522	0.197464
N214	N	-0.867047	0.951300	-0.503774
N215	N	-0.533714	1.284633	-0.170440
N216	N	-0.200381	1.617966	0.162893
H217	H	-0.578632	0.462708	-0.462414
H218	H	-0.245299	0.796041	-0.129080
H219	H	0.088034	1.129375	0.204253
H220	H	-1.081552	1.126252	-0.306062
H221	H	-0.748218	1.459586	0.027271
H222	H	-0.414885	1.792919	0.360605
C223	C	-0.904446	0.469128	-0.982438
C224	C	-0.571112	0.802461	-0.649105
C225	C	-0.237779	1.135795	-0.315772
N226	N	-0.866956	0.503686	-0.951862
N227	N	-0.533623	0.837019	-0.618528
N228	N	-0.200290	1.170352	-0.285195
H229	H	-0.883816	0.488177	-0.796123
H230	H	-0.550483	0.821510	-0.462789
H231	H	-0.217150	1.154843	-0.129456
C232	C	-0.388585	0.510091	-0.509650
C233	C	-0.055252	0.843424	-0.176316
C234	C	0.278081	1.176758	0.157017
N235	N	-0.415819	0.550140	-0.549570
N236	N	-0.082486	0.883474	-0.216236
N237	N	0.250848	1.216807	0.117097
C238	C	-1.066390	0.806600	-0.319857
C239	C	-0.733057	1.139933	0.013477
C240	C	-0.399723	1.473266	0.346810
N241	N	-1.103875	0.837161	-0.285328
N242	N	-0.770541	1.170495	0.048006
N243	N	-0.437208	1.503828	0.381339
C244	C	-0.234744	0.503643	-0.503236
C245	C	0.098589	0.836976	-0.169902
C246	C	0.431923	1.170310	0.163431
N247	N	-0.201283	0.541141	-0.540629
N248	N	0.132051	0.874474	-0.207295
N249	N	0.465384	1.207808	0.126038
C250	C	-1.100862	0.288029	-0.983131
C251	C	-0.767529	0.621363	-0.649797
C252	C	-0.434196	0.954696	-0.316464
N253	N	-1.140870	0.251131	-0.952826
N254	N	-0.807537	0.584464	-0.619493
N255	N	-0.474204	0.917798	-0.286159
C256	C	-1.072851	0.313902	-0.652942
C257	C	-0.739518	0.647235	-0.319608
C258	C	-0.406185	0.980569	0.013725
N259	N	-1.112863	0.277006	-0.622640
N260	N	-0.779530	0.610339	-0.289307
N261	N	-0.446197	0.943672	0.044026
C262	C	-0.898074	1.136187	-0.475129
C263	C	-0.564740	1.469520	-0.141796
C264	C	-0.231407	1.802853	0.191538
N265	N	-0.858070	1.166513	-0.512010
N266	N	-0.524737	1.499847	-0.178676
N267	N	-0.191404	1.833180	0.154657
C268	C	-0.898033	0.475039	-1.136766
C269	C	-0.564700	0.808372	-0.803433
C270	C	-0.231366	1.141706	-0.470099
N271	N	-0.858019	0.511929	-1.167073
N272	N	-0.524686	0.845262	-0.833740
N273	N	-0.191352	1.178595	-0.500406
C274	C	-0.869980	0.805999	-0.500825
C275	C	-0.536647	1.139333	-0.167492
C276	C	-0.203314	1.472666	0.165841
N277	N	-0.829970	0.836328	-0.537696
N278	N	-0.496636	1.169661	-0.204363
N279	N	-0.163303	1.502995	0.128971
H280	H	-1.053502	0.331728	-0.796718
H281	H	-0.720169	0.665061	-0.463385
H282	H	-0.386836	0.998395	-0.130051
H283	H	-0.392809	0.326474	-0.326589
H284	H	-0.059476	0.659808	0.006744
H285	H	0.273858	0.993141	0.340078
C286	C	-0.582855	0.279097	-0.279354
C287	C	-0.249522	0.612431	0.053979
C288	C	0.083811	0.945764	0.387312
N289	N	-0.555616	0.239056	-0.239431
N290	N	-0.222283	0.572389	0.093903
N291	N	0.111050	0.905723	0.427236
H292	H	-1.081520	0.305864	-1.126919
H293	H	-0.748187	0.639197	-0.793586
H294	H	-0.414854	0.972530	-0.460252
H295	H	-1.058978	0.662727	-0.326606
H296	H	-0.725645	0.996060	0.006728
H297	H	-0.392312	1.329393	0.340061
C298	C	-1.100853	0.982450	-0.288167
C299	C	-0.767519	1.315784	0.045166
C300	C	-0.434186	1.649117	0.378499
N301	N	-1.140840	0.952125	-0.251267
N302	N	-0.807507	1.285458	0.082066
N303	N	-0.474173	1.618792	0.415400
C304	C	-0.876369	0.651656	-0.494863
C305	C	-0.543036	0.984989	-0.161530
C306	C	-0.209703	1.318323	0.171804
N307	N	-0.838883	0.621092	-0.529389
N308	N	-0.505550	0.954426	-0.196056
N309	N	-0.172217	1.287759	0.137278
H310	H	-0.889356	0.483072	-0.662787
H311	H	-0.556022	0.816406	-0.329454
H312	H	-0.222689	1.149739	0.003880
