data_functionalizedCrystal
_audit_creation_method	'MofGen! by Chris Wilmer'
_symmetry_space_group_name_H-M	'P1'
_symmetry_Int_Tables_number	1
_symmetry_cell_setting	triclinic
loop_
_symmetry_equiv_pos_as_xyz
  x,y,z
_cell_length_a	12.759401
_cell_length_b	12.759400
_cell_length_c	12.759393
_cell_angle_alpha	89.970627
_cell_angle_beta	89.980198
_cell_angle_gamma	90.012251
loop_
_atom_site_label
_atom_site_type_symbol
_atom_site_fract_x
_atom_site_fract_y
_atom_site_fract_z
Zn1	Zn	1.606278	-0.418241	-0.593996
Zn2	Zn	1.606173	-0.593957	-0.418320
Zn3	Zn	1.430576	-0.418290	-0.418335
Zn4	Zn	1.430573	-0.593876	-0.593961
O5	O	1.518400	-0.506091	-0.506153
O6	O	1.753285	-0.441564	-0.570701
O7	O	1.582838	-0.570708	-0.271301
O8	O	1.453928	-0.271262	-0.441658
O9	O	1.753208	-0.570661	-0.441633
O10	O	1.583015	-0.271226	-0.570716
O11	O	1.453827	-0.441646	-0.271312
O12	O	1.283555	-0.441568	-0.441624
O13	O	1.453923	-0.570523	-0.740987
O14	O	1.283552	-0.570570	-0.570655
O15	O	1.583012	-0.441485	-0.741013
O16	O	1.582835	-0.740967	-0.441598
O17	O	1.453822	-0.740908	-0.570640
C18	C	1.245433	-0.506066	-0.506138
C19	C	1.128656	-0.506081	-0.506156
C20	C	0.964097	-0.439006	-0.573473
C21	C	1.073821	-0.438985	-0.573466
C22	C	1.073761	-0.573210	-0.438856
C23	C	0.964039	-0.573235	-0.438869
C24	C	1.223829	-0.401561	-0.697418
C25	C	1.278720	-0.334424	-0.764706
C26	C	1.243115	-0.231937	-0.781015
C27	C	1.152621	-0.196567	-0.730022
C28	C	1.097735	-0.263698	-0.662727
C29	C	1.133338	-0.366200	-0.646437
C30	C	0.814030	-0.610648	-0.314916
C31	C	0.759142	-0.677775	-0.247614
C32	C	0.794745	-0.780264	-0.231294
C33	C	0.885242	-0.815630	-0.282269
C34	C	0.940130	-0.748503	-0.349570
C35	C	0.904520	-0.646015	-0.365892
C36	C	1.518345	-0.779058	-0.506136
C37	C	1.518417	-0.895835	-0.506165
C38	C	1.585599	-0.950599	-0.573420
C39	C	1.585648	-1.060323	-0.573445
C40	C	1.451330	-1.060509	-0.438951
C41	C	1.451277	-0.950787	-0.438932
C42	C	1.652740	-0.895646	-0.640653
C43	C	1.719928	-0.950410	-0.707913
C44	C	1.719977	-1.060134	-0.707938
C45	C	1.652838	-1.115094	-0.640704
C46	C	1.792433	-0.506116	-0.506169
C47	C	1.909210	-0.506127	-0.506176
C48	C	1.518479	-0.505990	-0.780187
C49	C	1.518512	-0.505947	-0.896963
C50	C	1.518484	-0.232057	-0.506193
C51	C	1.518520	-0.115281	-0.506210
C52	C	1.585734	-0.438746	-0.951841
C53	C	1.585752	-0.438701	-1.061565
C54	C	1.451323	-0.573066	-1.061525
C55	C	1.451301	-0.573105	-0.951802
C56	C	1.623361	-0.314746	-1.211540
C57	C	1.690599	-0.247554	-1.266421
C58	C	1.793111	-0.231448	-1.230827
C59	C	1.828406	-0.282549	-1.140354
C60	C	1.761173	-0.349748	-1.085479
C61	C	1.658646	-0.365834	-1.121071
C62	C	1.413703	-0.697062	-0.801826
C63	C	1.346474	-0.764267	-0.746948
C64	C	1.243960	-0.780384	-0.782540
C65	C	1.208669	-0.729302	-0.873016
C66	C	1.275897	-0.662096	-0.927894
C67	C	1.378410	-0.645978	-0.892294
C68	C	1.518382	-0.506115	-0.233186
C69	C	1.518552	-0.505862	-0.116410
H70	H	1.023961	-0.234955	-0.621342
O71	O	1.386055	-0.897420	-0.373697
C72	C	1.326497	-0.728466	-0.314022
C73	C	1.400401	-0.788773	-0.387968
H74	H	1.338086	-0.640613	-0.325518
H75	H	1.241758	-0.750004	-0.332404
H76	H	1.344987	-0.750144	-0.229336
H77	H	1.382005	-0.767126	-0.472679
H78	H	1.485118	-0.767229	-0.369496
H79	H	1.125195	-0.742429	-0.901999
O80	O	1.386220	-1.114057	-0.373673
C81	C	1.326736	-1.283175	-0.314141
C82	C	1.400542	-1.222665	-0.388108
H83	H	1.338274	-1.370995	-0.325801
H84	H	1.345220	-1.261726	-0.229413
H85	H	1.242011	-1.261587	-0.332502
H86	H	1.485292	-1.244220	-0.369842
H87	H	1.381968	-1.244120	-0.472813
H88	H	1.911886	-0.269437	-1.111386
O89	O	1.650901	-0.373352	-0.898618
C90	C	1.701986	-0.194656	-0.865140
C91	C	1.628104	-0.268600	-0.925455
H92	H	1.683596	-0.109950	-0.886832
H93	H	1.690425	-0.206132	-0.777278
H94	H	1.786694	-0.213158	-0.886713
H95	H	1.543368	-0.250144	-0.903970
H96	H	1.639756	-0.257111	-1.013302
O97	O	1.785107	-0.896864	-0.773125
C98	C	1.844514	-0.727750	-0.832741
C99	C	1.770664	-0.788255	-0.758816
H100	H	1.832848	-0.639929	-0.821214
H101	H	1.929273	-0.749202	-0.814368
H102	H	1.826042	-0.749336	-0.917435
H103	H	1.789041	-0.766701	-0.674097
H104	H	1.685928	-0.766797	-0.777280
O105	O	1.795598	-0.399267	-0.997592
C106	C	1.939396	-0.426936	-0.878375
C107	C	1.900536	-0.370779	-0.977914
H108	H	2.024249	-0.403942	-0.862446
H109	H	1.888510	-0.403162	-0.808885
H110	H	1.934213	-0.515347	-0.890147
H111	H	1.905720	-0.282358	-0.966244
H112	H	1.951429	-0.394638	-1.047368
H113	H	0.750048	-0.834915	-0.176484
H114	H	1.847857	-0.176738	-1.275519
H115	H	1.189228	-0.835118	-0.737854
H116	H	1.497176	-0.683937	-0.772832
H117	H	1.013819	-0.777307	-0.391075
H118	H	1.652871	-1.204439	-0.640742
H119	H	1.652710	-0.806303	-0.640637
H120	H	0.919459	-0.384362	-0.628278
H121	H	1.247155	-0.620503	-1.001565
H122	H	1.661852	-0.205948	-1.340084
H123	H	1.539884	-0.327845	-1.240524
H124	H	0.785031	-0.527194	-0.328203
O125	O	1.785287	-1.113448	-0.773128
C126	C	1.927229	-1.237171	-0.787402
C127	C	1.853308	-1.176880	-0.713459
H128	H	1.982256	-1.288453	-0.739189
H129	H	1.879050	-1.288603	-0.842294
H130	H	1.975153	-1.179023	-0.835472
H131	H	1.805367	-1.234952	-0.665321
H132	H	1.901547	-1.125432	-0.658636
H133	H	1.396604	-0.627747	-1.106188
O134	O	1.126906	-0.638339	-0.373326
C135	C	1.160437	-0.689082	-0.194521
C136	C	1.100172	-0.615273	-0.268618
H137	H	1.138861	-0.670444	-0.109848
H138	H	1.138852	-0.773841	-0.212745
H139	H	1.248282	-0.677554	-0.206120
H140	H	1.012312	-0.626707	-0.257060
H141	H	1.121844	-0.530541	-0.250375
O142	O	1.117980	-0.097054	-0.746036
C143	C	1.056591	0.030285	-0.871297
C144	C	1.095788	-0.082449	-0.853300
H145	H	1.038658	0.042136	-0.958020
H146	H	0.982446	0.044070	-0.823368
H147	H	1.119728	0.088137	-0.845826
H148	H	1.032724	-0.140372	-0.878779
H149	H	1.169958	-0.096146	-0.901213
H150	H	1.375222	-0.805871	-0.673284
H151	H	1.287816	-0.177273	-0.835803
H152	H	1.252821	-0.485017	-0.684153
O153	O	1.366658	-0.368603	-0.814298
C154	C	1.507051	-0.326296	-0.933402
C155	C	1.407493	-0.287455	-0.877286
H156	H	1.540082	-0.260715	-0.984357
H157	H	1.568001	-0.350451	-0.872712
H158	H	1.486728	-0.396516	-0.984737
H159	H	1.427716	-0.217209	-0.825954
H160	H	1.346571	-0.263369	-0.938031
O161	O	0.920002	-0.915143	-0.266503
C162	C	1.050838	-1.044815	-0.308028
C163	C	1.011604	-0.932085	-0.325965
H164	H	1.124890	-1.058555	-0.356109
H165	H	1.068945	-1.056703	-0.221345
H166	H	0.987669	-1.102673	-0.333406
H167	H	1.074727	-0.874157	-0.300646
H168	H	0.993466	-0.920285	-0.412652
O169	O	0.671142	-0.643588	-0.198137
C170	C	0.485742	-0.667837	-0.171475
C171	C	0.585323	-0.706673	-0.227555
H172	H	0.416327	-0.718809	-0.195255
H173	H	0.497407	-0.672850	-0.083034
H174	H	0.469761	-0.583040	-0.194675
H175	H	0.601360	-0.791478	-0.204440
H176	H	0.573608	-0.701582	-0.315984
