data_functionalizedCrystal
_audit_creation_method	'MofGen! by Chris Wilmer'
_symmetry_space_group_name_H-M	'P1'
_symmetry_Int_Tables_number	1
_symmetry_cell_setting	triclinic
loop_
_symmetry_equiv_pos_as_xyz
  x,y,z
_cell_length_a	14.971482
_cell_length_b	9.065218
_cell_length_c	13.448316
_cell_angle_alpha	89.995277
_cell_angle_beta	89.993798
_cell_angle_gamma	84.314247
loop_
_atom_site_label
_atom_site_type_symbol
_atom_site_fract_x
_atom_site_fract_y
_atom_site_fract_z
O1	O	1.188382	0.192235	-0.082675
O2	O	0.928153	0.215265	-0.082679
O3	O	1.063647	-0.011002	-0.082675
O4	O	1.052889	0.418502	-0.082679
O5	O	1.063629	-0.011016	0.082709
O6	O	0.928136	0.215251	0.082705
O7	O	1.188365	0.192221	0.082709
Cu8	Cu	1.058249	0.203735	0.097808
Cu9	Cu	1.058269	0.203751	-0.097778
O10	O	1.052871	0.418488	0.082705
C11	C	0.894812	0.214229	0.000012
C12	C	0.795492	0.211145	0.000010
C13	C	0.748827	0.209686	0.090162
C14	C	0.655507	0.206765	0.090163
C15	C	0.608852	0.205314	0.000011
C16	C	0.655524	0.206770	-0.090147
C17	C	0.748843	0.209680	-0.090147
C18	C	0.461017	0.200708	-0.090141
C19	C	0.367691	0.197800	-0.090141
C20	C	0.367680	0.197793	0.090170
C21	C	0.461000	0.200703	0.090170
C22	C	0.507665	0.202161	0.000011
C23	C	1.062604	-0.065974	0.000015
C24	C	1.059513	-0.229754	0.000011
C25	C	1.221706	0.193257	0.000015
C26	C	1.321026	0.196341	0.000011
C27	C	1.053914	0.473460	0.000012
C28	C	1.057005	0.637240	0.000010
N29	N	1.058241	0.203722	0.235372
N30	N	1.058284	0.203752	-0.235342
C31	C	1.118256	0.103573	0.287414
C32	C	1.118262	0.103572	0.391517
C33	C	1.058256	0.203728	0.443576
C34	C	0.998234	0.303882	0.391527
C35	C	0.998224	0.303875	0.287426
C36	C	0.998258	0.303892	0.608507
C37	C	0.998269	0.303902	0.712616
C38	C	1.118296	0.103589	0.712599
C39	C	1.118287	0.103582	0.608497
C40	C	1.058266	0.203738	0.556455
H41	H	0.786805	0.210879	0.163574
O42	O	0.610288	0.205568	-0.177784
C43	C	0.572599	0.332464	-0.331863
C44	C	0.623887	0.333984	-0.232660
H45	H	0.583560	0.436292	-0.376249
H46	H	0.598313	0.229945	-0.376393
H47	H	0.497895	0.330070	-0.316351
H48	H	0.698599	0.336431	-0.248082
H49	H	0.598100	0.436492	-0.188160
H50	H	0.949352	0.385425	0.245054
H51	H	0.617518	0.205551	0.163574
H52	H	0.786837	0.210872	-0.163558
O53	O	1.176688	0.006240	0.762993
C54	C	1.295714	-0.192482	0.751990
C55	C	1.229644	-0.082308	0.694791
H56	H	1.338533	-0.264123	0.696874
H57	H	1.340971	-0.128727	0.800684
H58	H	1.256499	-0.266231	0.800771
H59	H	1.268787	-0.008532	0.645956
H60	H	1.184388	-0.146156	0.646160
O61	O	1.176581	0.006137	0.237002
C62	C	1.295664	-0.192492	0.247986
C63	C	1.229647	-0.082243	0.305196
H64	H	1.338598	-0.263955	0.303095
H65	H	1.256495	-0.266405	0.199291
H66	H	1.340817	-0.128651	0.199205
H67	H	1.184478	-0.145963	0.354031
H68	H	1.268872	-0.008331	0.353828
H69	H	1.167131	0.022021	0.433890
O70	O	0.939924	0.401329	0.558106
C71	C	0.820847	0.599968	0.569102
C72	C	0.886869	0.489722	0.626305
H73	H	0.777922	0.671442	0.624217
H74	H	0.860012	0.673871	0.520378
H75	H	0.775685	0.536124	0.520352
H76	H	0.932047	0.553445	0.675110
H77	H	0.847649	0.415820	0.674967
H78	H	1.167153	0.022034	0.566111
H79	H	0.949404	0.385458	0.754997
H80	H	0.498982	0.201893	0.163579
H81	H	0.949371	0.385427	0.433919
H82	H	0.329681	0.196606	0.163581
H83	H	0.329707	0.196621	-0.163551
H84	H	0.499009	0.201896	-0.163558
