data_functionalizedCrystal
_audit_creation_method	'MofGen! by Chris Wilmer'
_symmetry_space_group_name_H-M	'P1'
_symmetry_Int_Tables_number	1
_symmetry_cell_setting	triclinic
loop_
_symmetry_equiv_pos_as_xyz
  x,y,z
_cell_length_a	12.759401
_cell_length_b	16.120444
_cell_length_c	12.759393
_cell_angle_alpha	92.863624
_cell_angle_beta	89.981433
_cell_angle_gamma	92.925484
loop_
_atom_site_label
_atom_site_type_symbol
_atom_site_fract_x
_atom_site_fract_y
_atom_site_fract_z
Zn1	Zn	1.584963	-0.331879	-0.615155
Zn2	Zn	2.084963	0.168121	-0.115155
Zn3	Zn	1.575911	-0.471317	-0.448370
Zn4	Zn	2.075911	0.028683	0.051630
Zn5	Zn	1.409262	-0.331920	-0.439496
Zn6	Zn	1.909262	0.168080	0.060504
Zn7	Zn	1.400311	-0.471250	-0.624007
Zn8	Zn	1.900311	0.028750	-0.124007
O9	O	1.492612	-0.401591	-0.531757
O10	O	1.992612	0.098409	-0.031757
O11	O	1.730782	-0.350387	-0.593039
O12	O	2.230782	0.149613	-0.093039
O13	O	1.553762	-0.452871	-0.300175
O14	O	2.053762	0.047129	0.199825
O15	O	1.440103	-0.215249	-0.455380
O16	O	1.940103	0.284751	0.044620
O17	O	1.724132	-0.452831	-0.470503
O18	O	2.224132	0.047169	0.029497
O19	O	1.569190	-0.215219	-0.584435
O20	O	2.069190	0.284781	-0.084435
O21	O	1.431326	-0.350456	-0.293655
O22	O	1.931326	0.149544	0.206345
O23	O	1.261054	-0.350391	-0.463963
O24	O	1.761054	0.149609	0.036037
O25	O	1.424848	-0.452717	-0.769851
O26	O	1.924848	0.047283	-0.269851
O27	O	1.254478	-0.452757	-0.599522
O28	O	1.754478	0.047243	-0.099522
O29	O	1.560511	-0.350322	-0.763347
O30	O	2.060511	0.149678	-0.263347
O31	O	1.545083	-0.587974	-0.479087
O32	O	2.045083	-0.087974	0.020913
O33	O	1.416071	-0.587925	-0.608126
O34	O	1.916071	-0.087925	-0.108126
C35	C	1.219646	-0.401572	-0.531741
C36	C	1.719646	0.098428	-0.031741
C37	C	1.102868	-0.401584	-0.531761
C38	C	1.602868	0.098416	-0.031761
C39	C	1.051456	-0.348341	-0.595676
C40	C	1.551456	0.151659	-0.095676
C41	C	0.941731	-0.348357	-0.595683
C42	C	1.441731	0.151643	-0.095683
C43	C	0.934840	-0.454865	-0.467858
C44	C	1.434840	0.045135	0.032142
C45	C	1.044563	-0.454844	-0.467846
C46	C	1.544563	0.045156	0.032154
C47	C	1.055433	-0.286852	-0.669478
C48	C	1.555433	0.213148	-0.169478
C49	C	0.945708	-0.286868	-0.669485
C50	C	1.445708	0.213132	-0.169485
C51	C	1.478652	-0.618199	-0.545553
C52	C	1.978652	-0.118199	-0.045553
C53	C	1.472776	-0.710865	-0.551490
C54	C	1.972776	-0.210865	-0.051490
C55	C	1.523350	-0.921811	-0.501184
C56	C	2.023350	-0.421811	-0.001184
C57	C	1.462068	-0.880521	-0.562341
C58	C	1.962068	-0.380521	-0.062341
C59	C	1.468028	-0.786116	-0.556302
C60	C	1.968028	-0.286116	-0.056302
C61	C	1.517392	-1.016225	-0.507222
C62	C	2.017392	-0.516225	-0.007222
C63	C	1.766644	-0.401612	-0.531774
C64	C	2.266644	0.098388	-0.031774
C65	C	1.883420	-0.401620	-0.531781
C66	C	2.383420	0.098380	-0.031781
C67	C	1.492691	-0.401507	-0.805785
C68	C	1.992691	0.098493	-0.305785
C69	C	1.492724	-0.401472	-0.922560
C70	C	1.992724	0.098528	-0.422560
C71	C	1.506654	-0.184138	-0.517930
C72	C	2.006654	0.315862	-0.017930
C73	C	1.512639	-0.091472	-0.512038
C74	C	2.012639	0.408528	-0.012038
C75	C	1.563373	-0.348149	-0.974036
C76	C	2.063373	0.151851	-0.474036
C77	C	1.563400	-0.348119	-1.083759
C78	C	2.063400	0.151881	-0.583759
C79	C	1.422126	-0.454741	-1.090518
C80	C	1.922126	0.045259	-0.590518
C81	C	1.422095	-0.454766	-0.980797
C82	C	1.922095	0.045234	-0.480797
C83	C	1.644940	-0.286594	-0.970135
C84	C	2.144940	0.213406	-0.470135
C85	C	1.644967	-0.286564	-1.079857
C86	C	2.144967	0.213436	-0.579857
C87	C	1.492597	-0.401615	-0.258791
C88	C	1.992597	0.098385	0.241209
C89	C	1.492782	-0.401416	-0.142002
C90	C	1.992782	0.098584	0.357998
H91	H	1.086420	-0.498191	-0.415790
H92	H	1.586420	0.001809	0.084210
H93	H	1.580287	-0.886263	-0.444293
H94	H	2.080287	-0.386263	0.055707
H95	H	1.725228	-0.303858	-1.110739
H96	H	2.225228	0.196142	-0.610739
H97	H	0.915603	-0.225507	-0.636572
H98	H	1.415603	0.274493	-0.136572
H99	H	1.088010	-0.310049	-0.748196
H100	H	1.588010	0.189951	-0.248196
H101	H	0.887355	-0.498228	-0.415821
H102	H	1.387355	0.001772	0.084179
H103	H	0.914848	-0.304243	-0.751930
H104	H	1.414848	0.195757	-0.251930
H105	H	1.720727	-0.309742	-0.937576
H106	H	2.220727	0.190258	-0.437576
H107	H	1.364562	-0.498183	-0.938889
H108	H	1.864562	0.001817	-0.438889
H109	H	1.364619	-0.498130	-1.137948
H110	H	1.864619	0.001870	-0.637948
H111	H	1.619789	-0.225217	-1.109992
H112	H	2.119789	0.274783	-0.609992
H113	H	1.627314	-0.222029	-0.936260
H114	H	2.127314	0.277971	-0.436260
H115	H	1.089344	-0.222257	-0.643703
H116	H	1.589344	0.277743	-0.143703
H117	H	1.405126	-0.916072	-0.619234
H118	H	1.905126	-0.416072	-0.119234
