data_functionalizedCrystal
_audit_creation_method	'MofGen! by Chris Wilmer'
_symmetry_space_group_name_H-M	'P1'
_symmetry_Int_Tables_number	1
_symmetry_cell_setting	triclinic
loop_
_symmetry_equiv_pos_as_xyz
  x,y,z
_cell_length_a	10.654549
_cell_length_b	10.654550
_cell_length_c	9.130313
_cell_angle_alpha	90.002847
_cell_angle_beta	90.002713
_cell_angle_gamma	84.484854
loop_
_atom_site_label
_atom_site_type_symbol
_atom_site_fract_x
_atom_site_fract_y
_atom_site_fract_z
O1	O	1.667840	0.176394	0.121765
O2	O	2.167840	0.676394	0.621765
O3	O	1.302362	0.193200	0.121775
O4	O	1.802362	0.693200	0.621775
O5	O	1.493504	0.002058	0.121761
O6	O	1.993504	0.502058	0.621761
O7	O	1.476698	0.367536	0.121780
O8	O	1.976698	0.867536	0.621780
O9	O	1.493490	0.002058	-0.121838
O10	O	1.993490	0.502058	0.378162
O11	O	1.302347	0.193200	-0.121823
O12	O	1.802347	0.693200	0.378177
O13	O	1.667826	0.176394	-0.121834
O14	O	2.167826	0.676394	0.378166
Cu15	Cu	1.485085	0.184797	-0.144071
Cu16	Cu	1.985085	0.684797	0.355929
Cu17	Cu	1.485102	0.184797	0.144013
Cu18	Cu	1.985102	0.684797	0.644013
O19	O	1.476684	0.367536	-0.121819
O20	O	1.976684	0.867536	0.378181
C21	C	1.255557	0.191966	-0.000023
C22	C	1.755557	0.691966	0.499977
C23	C	1.116113	0.188275	-0.000019
C24	C	1.616113	0.688275	0.499981
C25	C	0.905599	0.297338	-0.000019
C26	C	1.405599	0.797338	0.499981
C27	C	1.036619	0.300816	-0.000010
C28	C	1.536619	0.800816	0.499990
C29	C	1.064581	0.072247	-0.000022
C30	C	1.564581	0.572247	0.499978
C31	C	0.933563	0.068770	-0.000020
C32	C	1.433563	0.568770	0.499980
C33	C	1.492263	-0.044740	-0.000038
C34	C	1.992263	0.455260	0.499962
C35	C	1.488571	-0.184183	-0.000035
C36	C	1.988571	0.315817	0.499965
C37	C	1.601113	-0.263669	-0.000038
C38	C	2.101113	0.236331	0.499962
C39	C	1.597636	-0.394690	-0.000020
C40	C	2.097636	0.105310	0.499980
C41	C	1.369067	-0.366727	-0.000003
C42	C	1.869067	0.133273	0.499997
C43	C	1.372544	-0.235708	-0.000010
C44	C	1.872544	0.264292	0.499990
C45	C	1.714631	0.177628	-0.000032
C46	C	2.214631	0.677628	0.499968
C47	C	1.854074	0.181319	-0.000026
C48	C	2.354074	0.681319	0.499974
C49	C	1.477925	0.414334	-0.000017
C50	C	1.977925	0.914334	0.499983
C51	C	1.481617	0.553777	-0.000010
C52	C	1.981617	1.053777	0.499990
N53	N	1.485082	0.184796	-0.346694
N54	N	1.985082	0.684796	0.153306
C55	C	1.561914	0.261678	-0.423338
C56	C	2.061914	0.761678	0.076662
C57	C	1.561934	0.261671	-0.576675
C58	C	2.061934	0.761671	-0.076675
C59	C	1.408281	0.107897	-0.576709
C60	C	1.908281	0.607897	-0.076709
C61	C	1.408268	0.107898	-0.423375
C62	C	1.908268	0.607898	0.076625
N63	N	1.485115	0.184788	0.346636
N64	N	1.985115	0.684788	0.846636
H65	H	0.891613	-0.025712	-0.000021
H66	H	1.391613	0.474288	0.499979
Br67	Br	0.797725	0.450083	-0.000025
Br68	Br	1.297725	0.950083	0.499975
Br69	Br	1.666169	0.366031	-0.319275
Br70	Br	2.166169	0.866031	0.180725
H71	H	1.345740	0.045291	-0.639162
H72	H	1.845740	0.545291	-0.139162
H73	H	1.280894	-0.170987	-0.000004
H74	H	1.780894	0.329013	0.499996
Br75	Br	1.172465	-0.080491	-0.000025
Br76	Br	1.672465	0.419509	0.499975
Br77	Br	1.303990	0.003550	-0.319347
Br78	Br	1.803990	0.503550	0.180653
Br79	Br	1.106540	0.458277	0.000011
Br80	Br	1.606540	0.958277	0.500011
H81	H	1.624499	0.324275	-0.639072
H82	H	2.124499	0.824275	-0.139072
H83	H	1.689279	-0.459403	-0.000019
H84	H	2.189279	0.040597	0.499981
Br85	Br	1.758576	-0.193746	-0.000073
Br86	Br	2.258576	0.306254	0.499927
Br87	Br	1.211609	-0.436662	0.000035
Br88	Br	1.711609	0.063338	0.500035
