data_functionalizedCrystal
_audit_creation_method	'MofGen! by Chris Wilmer'
_symmetry_space_group_name_H-M	'P1'
_symmetry_Int_Tables_number	1
_symmetry_cell_setting	triclinic
loop_
_symmetry_equiv_pos_as_xyz
  x,y,z
_cell_length_a	19.805407
_cell_length_b	25.639240
_cell_length_c	19.805399
_cell_angle_alpha	89.976292
_cell_angle_beta	89.982197
_cell_angle_gamma	90.029375
loop_
_atom_site_label
_atom_site_type_symbol
_atom_site_fract_x
_atom_site_fract_y
_atom_site_fract_z
Zn1	Zn	1.034709	-0.208200	-0.382706
Zn2	Zn	1.034613	-0.295634	-0.269525
Zn3	Zn	0.921524	-0.208211	-0.269534
Zn4	Zn	0.921476	-0.295602	-0.382676
O5	O	0.978080	-0.251912	-0.326110
O6	O	1.129413	-0.219808	-0.367701
O7	O	1.019591	-0.284055	-0.174810
O8	O	0.936598	-0.135044	-0.284563
O9	O	1.129342	-0.284045	-0.284548
O10	O	1.019755	-0.135036	-0.367710
O11	O	0.936505	-0.219825	-0.174816
O12	O	0.826801	-0.219794	-0.284533
O13	O	0.936517	-0.283991	-0.477396
O14	O	0.826766	-0.284001	-0.367658
O15	O	1.019709	-0.219777	-0.477418
O16	O	1.019545	-0.368795	-0.284519
O17	O	0.936424	-0.368772	-0.367650
C18	C	0.802224	-0.251896	-0.326094
C19	C	0.726992	-0.251901	-0.326103
C20	C	0.691686	-0.218512	-0.369466
C21	C	0.620997	-0.218515	-0.369469
C22	C	0.585617	-0.251910	-0.326111
C23	C	0.620928	-0.285300	-0.282742
C24	C	0.691616	-0.285295	-0.282737
C25	C	0.335855	-0.285324	-0.282763
C26	C	0.265163	-0.285328	-0.282773
C27	C	0.265237	-0.218544	-0.369495
C28	C	0.335924	-0.218538	-0.369490
C29	C	0.371229	-0.251927	-0.326119
C30	C	0.447878	-0.251923	-0.326116
C31	C	0.508970	-0.251917	-0.326117
C32	C	0.977987	-0.387755	-0.326095
C33	C	0.978009	-0.445869	-0.326111
C34	C	1.021376	-0.697007	-0.369449
C35	C	1.021356	-0.642402	-0.369444
O36	O	1.058151	-0.614119	-0.406269
N37	N	0.978083	-0.615142	-0.326119
C38	C	0.934832	-0.642490	-0.282792
O39	O	0.898024	-0.614289	-0.245939
C40	C	0.934857	-0.697093	-0.282794
C41	C	0.978128	-0.724350	-0.326126
C42	C	1.064644	-0.724264	-0.412777
C43	C	1.064664	-0.778865	-0.412783
C44	C	1.021415	-0.806208	-0.369461
C45	C	0.978147	-0.778951	-0.326132
C46	C	0.891610	-0.724439	-0.239463
C47	C	0.891638	-0.779046	-0.239469
C48	C	0.934909	-0.806303	-0.282802
C49	C	0.934917	-0.860894	-0.282815
N50	N	0.978190	-0.888154	-0.326140
C51	C	1.021439	-0.860811	-0.369463
C52	C	0.934785	-0.527819	-0.282789
C53	C	0.934757	-0.473217	-0.282790
C54	C	1.021282	-0.473133	-0.369442
C55	C	1.021306	-0.527737	-0.369444
C56	C	0.978058	-0.555079	-0.326114
C57	C	1.021476	-0.975476	-0.369472
C58	C	1.021489	-1.030082	-0.369476
C59	C	0.934967	-1.030160	-0.282822
C60	C	0.934951	-0.975560	-0.282821
C61	C	0.978211	-0.948219	-0.326148
O62	O	0.898143	-0.889213	-0.246007
O63	O	1.058248	-0.889019	-0.406303
C64	C	1.154623	-0.251929	-0.326127
C65	C	1.229855	-0.251936	-0.326134
C66	C	0.978118	-0.251879	-0.502653
C67	C	0.978135	-0.251865	-0.577885
C68	C	0.978193	-0.115539	-0.326141
C69	C	0.978241	-0.057425	-0.326154
C70	C	1.021453	-0.218427	-0.613242
C71	C	1.021460	-0.218412	-0.683930
C72	C	0.978151	-0.251838	-0.719261
C73	C	0.934828	-0.285277	-0.683899
C74	C	0.934818	-0.285289	-0.613212
C75	C	0.934866	-0.285228	-0.968972
C76	C	0.934881	-0.285215	-1.039664
C77	C	1.021509	-0.218351	-1.039691
C78	C	1.021499	-0.218363	-0.969004
C79	C	0.978173	-0.251800	-0.933648
C80	C	0.978165	-0.251816	-0.857000
C81	C	0.978162	-0.251825	-0.795908
C82	C	0.978082	-0.251907	-0.150254
C83	C	0.978197	-0.251774	-0.075023
H84	H	1.056725	-1.052272	-0.404767
C85	C	1.068618	-0.182022	-1.077956
C86	C	1.106557	-0.152764	-1.031885
C87	C	1.149967	-0.119299	-1.067108
H88	H	1.042826	-0.159185	-1.105534
H89	H	1.098132	-0.202008	-1.105518
H90	H	1.077047	-0.132779	-1.004334
H91	H	1.132363	-0.175587	-1.004306
H92	H	1.179482	-0.139286	-1.094670
H93	H	1.124170	-0.096466	-1.094684
H94	H	1.175719	-0.099447	-1.035854
H95	H	0.592116	-0.312489	-0.247436
H96	H	0.236483	-0.191355	-0.404808
H97	H	0.364592	-0.312511	-0.247449
C98	C	1.068270	-0.443534	-0.416549
C99	C	1.106164	-0.479087	-0.454509
C100	C	1.149447	-0.451838	-0.497914
H101	H	1.097824	-0.422222	-0.390752
H102	H	1.042368	-0.422249	-0.446050
H103	H	1.132065	-0.500363	-0.425011
H104	H	1.076629	-0.500400	-0.480319
H105	H	1.123544	-0.430553	-0.527415
H106	H	1.178996	-0.430528	-0.472112
H107	H	1.175159	-0.475957	-0.523679
H108	H	1.056703	-0.953222	-0.404752
C109	C	0.844566	-0.808704	-0.192509
C110	C	0.777583	-0.795465	-0.207196
C111	C	0.734201	-0.822779	-0.163960
H112	H	0.854407	-0.799787	-0.147017
H113	H	0.850726	-0.845133	-0.198721
H114	H	0.771427	-0.759044	-0.200979
H115	H	0.767721	-0.804382	-0.252681
H116	H	0.740361	-0.859208	-0.170171
H117	H	0.744049	-0.813860	-0.118469
H118	H	0.688749	-0.813804	-0.173923
H119	H	0.720361	-0.312483	-0.247425
C120	C	1.111731	-0.808359	-0.459844
C121	C	1.149614	-0.772717	-0.497761
C122	C	1.192994	-0.799864	-0.541111
H123	H	1.085920	-0.829672	-0.489381
H124	H	1.141283	-0.829635	-0.433989
H125	H	1.120067	-0.751450	-0.523614
H126	H	1.175439	-0.751403	-0.468242
H127	H	1.222545	-0.821139	-0.515255
H128	H	1.167177	-0.821176	-0.570643
H129	H	1.218707	-0.775685	-0.566838
H130	H	0.899597	-0.312463	-0.940194
H131	H	1.099866	-0.702006	-0.448056
C132	C	0.887879	-0.321686	-0.574852
C133	C	0.902595	-0.373414	-0.592023
C134	C	0.859375	-0.406958	-0.556692
H135	H	0.842382	-0.314102	-0.586397
H136	H	0.894085	-0.316939	-0.527688
H137	H	0.896383	-0.378159	-0.639176
H138	H	0.948083	-0.381015	-0.580477
H139	H	0.865581	-0.402212	-0.509528
H140	H	0.813881	-0.399369	-0.568239
H141	H	0.869358	-0.442060	-0.568332
H142	H	0.236358	-0.312524	-0.247463
H143	H	0.720487	-0.191319	-0.404776
H144	H	0.899610	-0.312435	-1.068428
C145	C	1.068175	-0.557357	-0.416570
C146	C	1.029840	-0.588706	-0.459931
C147	C	1.072994	-0.615993	-0.503360
H148	H	1.097707	-0.578689	-0.390787
H149	H	1.093915	-0.533266	-0.442412
H150	H	1.004112	-0.612795	-0.434093
H151	H	1.000310	-0.567387	-0.485730
H152	H	1.098734	-0.591901	-0.529201
H153	H	1.102524	-0.637322	-0.477571
H154	H	1.046990	-0.637262	-0.532789
H155	H	0.899562	-0.550078	-0.247507
C156	C	0.844657	-0.694761	-0.192486
C157	C	0.853871	-0.641086	-0.201755
C158	C	0.810622	-0.613732	-0.158494
H159	H	0.854557	-0.703662	-0.146994
H160	H	0.799163	-0.703708	-0.202354
H161	H	0.899355	-0.632143	-0.191882
H162	H	0.843966	-0.632170	-0.247238
H163	H	0.765128	-0.622679	-0.168362
H164	H	0.820526	-0.622637	-0.113004
H165	H	0.816863	-0.577311	-0.164781
H166	H	0.899562	-0.312491	-0.712670
C167	C	0.888091	-1.059948	-0.235810
C168	C	0.897391	-1.113600	-0.245079
C169	C	0.854231	-1.141058	-0.201773
H170	H	0.842573	-1.051092	-0.245623
H171	H	0.898033	-1.051041	-0.190328
H172	H	0.887444	-1.122504	-0.290552
H173	H	0.942899	-1.122471	-0.235262
H174	H	0.864173	-1.132150	-0.156290
H175	H	0.808716	-1.132198	-0.211589
H176	H	0.860539	-1.177463	-0.208051
H177	H	0.592254	-0.191327	-0.404782
H178	H	0.364727	-0.191346	-0.404799
C179	C	0.887745	-0.443721	-0.235675
C180	C	0.849888	-0.479361	-0.197728
C181	C	0.806582	-0.452211	-0.154308
H182	H	0.858169	-0.422427	-0.261460
H183	H	0.913629	-0.422427	-0.206165
H184	H	0.824006	-0.500646	-0.227234
H185	H	0.879447	-0.500656	-0.171929
H186	H	0.832465	-0.430917	-0.124799
H187	H	0.777010	-0.430918	-0.180099
H188	H	0.780895	-0.476389	-0.128552
C189	C	0.887936	-0.946057	-0.235711
C190	C	0.850072	-0.981693	-0.197766
C191	C	0.806763	-0.954539	-0.154353
H192	H	0.858365	-0.924762	-0.261501
H193	H	0.913819	-0.924763	-0.206200
H194	H	0.824191	-1.002978	-0.227273
H195	H	0.879625	-1.002989	-0.171962
H196	H	0.832645	-0.933245	-0.124842
H197	H	0.777196	-0.933245	-0.180148
H198	H	0.781071	-0.978714	-0.128598
C199	C	1.068502	-0.182078	-0.575008
C200	C	1.106426	-0.152781	-0.621106
C201	C	1.149767	-0.119284	-0.585913
H202	H	1.098034	-0.202026	-0.547431
H203	H	1.042640	-0.159271	-0.547449
H204	H	1.132287	-0.175585	-0.648654
H205	H	1.076912	-0.132822	-0.648685
H206	H	1.123905	-0.096477	-0.558354
H207	H	1.179295	-0.139237	-0.558336
H208	H	1.175500	-0.099399	-0.617184
H209	H	1.056737	-0.191185	-0.712715
C210	C	1.068404	-0.182033	-0.930565
C211	C	1.030092	-0.148535	-0.889980
C212	C	1.073274	-0.115060	-0.854558
H213	H	1.094214	-0.162065	-0.961674
H214	H	1.097870	-0.202018	-0.902946
H215	H	1.000638	-0.128552	-0.917597
H216	H	1.004283	-0.168489	-0.858859
H217	H	1.102739	-0.135045	-0.826939
H218	H	1.099082	-0.095096	-0.885672
H219	H	1.047286	-0.092331	-0.827013
