data_functionalizedCrystal
_audit_creation_method	'MofGen! by Chris Wilmer'
_symmetry_space_group_name_H-M	'P1'
_symmetry_Int_Tables_number	1
_symmetry_cell_setting	triclinic
loop_
_symmetry_equiv_pos_as_xyz
  x,y,z
_cell_length_a	8.497374
_cell_length_b	8.497365
_cell_length_c	21.395362
_cell_angle_alpha	89.946225
_cell_angle_beta	89.983023
_cell_angle_gamma	90.037770
loop_
_atom_site_label
_atom_site_type_symbol
_atom_site_fract_x
_atom_site_fract_y
_atom_site_fract_z
Zn1	Zn	0.626991	-0.893001	0.958049
Zn2	Zn	0.890934	-0.629266	0.957988
Zn3	Zn	0.627235	-0.629130	0.853246
Zn4	Zn	0.890796	-0.892901	0.853288
O5	O	0.758989	-0.761075	0.905643
O6	O	0.661959	-0.858115	1.045719
O7	O	0.856114	-0.408486	0.944051
O8	O	0.406440	-0.664119	0.867157
O9	O	0.855877	-0.664351	1.045674
O10	O	0.406261	-0.857983	0.944155
O11	O	0.662376	-0.408386	0.867097
O12	O	0.662241	-0.664021	0.765574
O13	O	0.855641	-1.113677	0.867227
O14	O	0.855878	-0.857812	0.765604
O15	O	0.661824	-1.113751	0.944195
O16	O	1.111678	-0.664253	0.944091
O17	O	1.111576	-0.857944	0.867168
C18	C	0.759072	-0.760892	0.742855
C19	C	0.759146	-0.760851	0.673214
C20	C	0.860107	-0.861607	0.640533
C21	C	0.860068	-0.861677	0.575098
C22	C	0.759085	-0.760963	0.542346
C23	C	0.658105	-0.660200	0.575034
C24	C	0.658136	-0.660144	0.640468
C25	C	0.746469	-0.618938	0.438609
C26	C	0.746449	-0.618991	0.373176
C27	C	0.758982	-0.761137	0.340525
C28	C	0.771568	-0.903235	0.373315
C29	C	0.771598	-0.903178	0.438749
C30	C	0.759040	-0.761014	0.471393
C31	C	0.859906	-0.861978	0.236891
C32	C	0.859856	-0.862051	0.171455
C33	C	0.657902	-0.660560	0.171393
C34	C	0.657944	-0.660501	0.236828
C35	C	0.758954	-0.761208	0.269574
C36	C	1.168869	-0.761097	0.905635
C37	C	1.347513	-0.761072	0.905652
C38	C	0.759161	-0.351195	0.905598
C39	C	0.758837	-0.172551	0.905687
C40	C	0.758906	-0.761259	1.069066
C41	C	0.758871	-0.761338	1.138707
H42	H	0.736256	-0.503177	0.465187
C43	C	0.547083	-0.549299	0.676419
H44	H	0.486938	-0.489320	0.647544
H45	H	0.478414	-0.609724	0.701992
H46	H	0.607400	-0.480442	0.701895
C47	C	0.732603	-0.462694	0.337112
H48	H	0.725113	-0.378032	0.365928
H49	H	0.822989	-0.448701	0.311562
H50	H	0.641136	-0.464916	0.311606
C51	C	0.971196	-0.972397	0.676549
H52	H	1.031308	-1.032425	0.647710
H53	H	1.039895	-0.911934	0.702034
H54	H	0.910903	-1.041211	0.702118
C55	C	0.971037	-0.972604	0.539141
H56	H	1.031174	-1.032595	0.568015
H57	H	0.910650	-1.041421	0.513680
H58	H	1.039744	-0.912246	0.513553
H59	H	0.942147	-0.943987	0.263554
H60	H	0.575738	-0.578447	0.263437
C61	C	0.785349	-1.059605	0.337409
H62	H	0.783510	-1.039295	0.293742
H63	H	0.881435	-1.109900	0.348137
H64	H	0.699580	-1.126077	0.348186
C65	C	0.785435	-1.059466	0.474819
H66	H	0.783670	-1.039066	0.518465
H67	H	0.699671	-1.125970	0.464149
H68	H	0.881525	-1.109771	0.464104
C69	C	0.970912	-0.972889	0.135503
H70	H	0.956416	-0.958516	0.091842
H71	H	1.076894	-0.949629	0.146191
H72	H	0.947914	-1.078917	0.146287
C73	C	0.546803	-0.549796	0.135374
H74	H	0.561243	-0.564259	0.091722
H75	H	0.440838	-0.573046	0.146135
H76	H	0.569803	-0.443744	0.146034
C77	C	0.547028	-0.549418	0.539010
H78	H	0.561479	-0.563871	0.495359
H79	H	0.441056	-0.572656	0.549765
H80	H	0.570040	-0.443372	0.549676
