data_functionalizedCrystal
_audit_creation_method	'MofGen! by Chris Wilmer'
_symmetry_space_group_name_H-M	'P1'
_symmetry_Int_Tables_number	1
_symmetry_cell_setting	triclinic
loop_
_symmetry_equiv_pos_as_xyz
  x,y,z
_cell_length_a	18.215407
_cell_length_b	12.759399
_cell_length_c	12.759393
_cell_angle_alpha	90.027810
_cell_angle_beta	90.018859
_cell_angle_gamma	90.012199
loop_
_atom_site_label
_atom_site_type_symbol
_atom_site_fract_x
_atom_site_fract_y
_atom_site_fract_z
Zn1	Zn	-1.125132	0.418313	-0.594019
Zn2	Zn	-1.125055	0.594032	-0.418351
Zn3	Zn	-1.002060	0.418355	-0.418357
Zn4	Zn	-1.002049	0.593938	-0.593991
O5	O	-1.063574	0.506160	-0.506179
O6	O	-1.228106	0.441643	-0.570725
O7	O	-1.108711	0.570785	-0.271330
O8	O	-1.018422	0.271329	-0.441674
O9	O	-1.228049	0.570743	-0.441662
O10	O	-1.108843	0.271297	-0.570731
O11	O	-1.018348	0.441716	-0.271335
O12	O	-0.899074	0.441626	-0.441646
O13	O	-1.018404	0.570584	-0.741016
O14	O	-0.899066	0.570626	-0.570684
O15	O	-1.108832	0.441553	-0.741036
O16	O	-1.108701	0.741040	-0.441635
O17	O	-1.018329	0.740972	-0.570677
C18	C	-0.872367	0.506121	-0.506163
C19	C	-0.790569	0.506130	-0.506181
C20	C	-0.525526	0.573422	-0.573277
C21	C	-0.602385	0.573416	-0.573272
C22	C	-0.602363	0.438887	-0.439101
C23	C	-0.525505	0.438900	-0.439101
C24	C	-0.487089	0.506166	-0.506196
C25	C	-0.640805	0.506147	-0.506190
C26	C	-0.724139	0.506139	-0.506184
C27	C	-0.403750	0.506175	-0.506201
C28	C	-1.063525	0.779127	-0.506175
C29	C	-1.063572	0.895904	-0.506209
C30	C	-1.063625	0.506054	-0.780213
C31	C	-1.063647	0.506008	-0.896990
C32	C	-0.255527	0.506191	-0.506196
C33	C	-0.337326	0.506183	-0.506204
C34	C	-1.110734	1.060491	-0.439136
C35	C	-1.110685	0.950767	-0.439096
C36	C	-1.016499	0.950770	-0.573357
C37	C	-1.016545	1.060492	-0.573391
C38	C	-1.165114	1.060489	-0.361624
C39	C	-1.165065	0.950765	-0.361585
C40	C	-1.063641	1.232126	-0.506222
C41	C	-1.063666	1.115350	-0.506281
C42	C	-1.110740	0.438815	-0.951864
C43	C	-1.110757	0.438777	-1.061588
C44	C	-1.016588	0.573135	-1.061554
C45	C	-1.016567	0.573166	-0.951832
C46	C	-1.165110	0.361248	-0.951885
C47	C	-1.165128	0.361210	-1.061609
C48	C	-1.063565	0.506189	-0.233212
C49	C	-1.063685	0.505939	-0.116436
H50	H	-0.633677	0.628184	-0.627896
Cl51	Cl	-1.133539	0.241910	-1.114177
H52	H	-0.494209	0.384130	-0.384470
Cl53	Cl	-0.957367	1.129454	-0.657799
H54	H	-1.222125	0.383008	-1.091389
H55	H	-0.633650	0.384120	-0.384476
H56	H	-0.978134	0.906093	-0.627995
Cl57	Cl	-0.477234	0.657989	-0.657620
H58	H	-1.144667	0.916820	-0.284250
Cl59	Cl	-1.141616	1.106595	-0.235983
H60	H	-1.219259	1.094436	-0.390848
Cl61	Cl	-1.253029	0.904651	-0.395329
H62	H	-0.978217	0.627878	-0.907157
H63	H	-1.149863	0.279883	-0.922123
Cl64	Cl	-0.957405	0.657557	-1.130505
Cl65	Cl	-1.248676	0.406285	-0.899331
