data_functionalizedCrystal
_audit_creation_method	'MofGen! by Chris Wilmer'
_symmetry_space_group_name_H-M	'P1'
_symmetry_Int_Tables_number	1
_symmetry_cell_setting	triclinic
loop_
_symmetry_equiv_pos_as_xyz
  x,y,z
_cell_length_a	6.817900
_cell_length_b	10.943574
_cell_length_c	10.943624
_cell_angle_alpha	91.772393
_cell_angle_beta	108.838799
_cell_angle_gamma	108.837846
loop_
_atom_site_label
_atom_site_type_symbol
_atom_site_fract_x
_atom_site_fract_y
_atom_site_fract_z
V1	V	-4.115492	-0.178596	-0.402524
O2	O	-4.073204	0.008617	-0.394890
O3	O	-4.093439	-0.354160	-0.399743
O4	O	-4.093454	-0.175834	-0.578091
O5	O	-4.073188	-0.170944	-0.215308
V6	V	-4.592290	-0.156205	-0.380134
O7	O	-4.391502	-0.227713	-0.451636
O8	O	-4.766477	-0.107089	-0.331022
O9	O	-4.391136	0.019358	-0.382915
O10	O	-4.751974	-0.343419	-0.387769
O11	O	-4.751990	-0.163858	-0.567350
O12	O	-4.391120	-0.158968	-0.204568
C13	C	-3.943996	-0.396959	-0.393386
C14	C	-4.007427	-0.540485	-0.392284
C15	C	-3.890258	-0.703489	-0.384276
C16	C	-4.003635	-0.637681	-0.495234
C17	C	-3.893183	-0.604393	-0.281389
C18	C	-4.233990	-0.730421	-0.501411
C19	C	-4.123465	-0.697124	-0.287470
C20	C	-4.237013	-0.631364	-0.398458
C21	C	-3.944014	-0.169485	-0.620884
C22	C	-4.007454	-0.168388	-0.764411
C23	C	-3.852284	-0.161001	-0.841560
C24	C	-4.041640	-0.270645	-0.947533
C25	C	-3.931163	-0.056802	-0.914179
C26	C	-4.196021	-0.278135	-0.868507
C27	C	-4.085464	-0.064194	-0.835130
C28	C	-4.274957	-0.173870	-0.941074
C29	C	-4.203921	0.062151	-0.389268
C30	C	-4.119730	0.205675	-0.390379
C31	C	-4.203902	-0.165321	-0.161767
C32	C	-4.119700	-0.166411	-0.018239
H33	H	-3.952392	-0.611143	-0.583092
H34	H	-3.748452	-0.549682	-0.188433
H35	H	-4.307402	-0.371779	-0.847949
H36	H	-4.454271	-0.179337	-0.984317
O37	O	-4.406433	-0.795688	-0.612399
C38	C	-4.660214	-1.005030	-0.735853
C39	C	-4.464897	-0.931278	-0.610118
H40	H	-4.707572	-1.114666	-0.734038
H41	H	-4.609921	-0.980262	-0.824351
H42	H	-4.807860	-0.974743	-0.742214
H43	H	-4.317174	-0.961524	-0.603631
H44	H	-4.515371	-0.956050	-0.521681
H45	H	-4.023777	-0.357925	-0.996468
H46	H	-4.103243	0.023090	-0.786160
O47	O	-3.638612	-0.154859	-0.789586
C48	C	-3.388940	-0.259050	-0.670633
C49	C	-3.630999	-0.266146	-0.729405
H50	H	-3.382710	-0.349028	-0.621986
H51	H	-3.288217	-0.167424	-0.594946
H52	H	-3.316699	-0.255481	-0.751549
H53	H	-3.703438	-0.269767	-0.648579
H54	H	-3.731566	-0.357759	-0.805123
O55	O	-3.798524	0.054927	-0.938833
C56	C	-3.669162	0.290169	-0.907111
C57	C	-3.819525	0.163746	-0.879123
H58	H	-3.686054	0.378182	-0.858828
H59	H	-3.720230	0.290502	-1.017066
H60	H	-3.489743	0.295409	-0.866084
H61	H	-3.998986	0.158424	-0.920069
H62	H	-3.768269	0.163465	-0.769159
H63	H	-3.744387	-0.735399	-0.378404
O64	O	-4.411220	-0.593502	-0.405421
C65	C	-4.550324	-0.459483	-0.302451
C66	C	-4.352884	-0.502272	-0.294380
H67	H	-4.503214	-0.385697	-0.212700
H68	H	-4.698259	-0.548313	-0.306480
H69	H	-4.595626	-0.412696	-0.394215
H70	H	-4.307386	-0.549034	-0.202625
H71	H	-4.205072	-0.413398	-0.290423
H72	H	-4.174655	-0.723695	-0.199608
