data_functionalizedCrystal
_audit_creation_method	'MofGen! by Chris Wilmer'
_symmetry_space_group_name_H-M	'P1'
_symmetry_Int_Tables_number	1
_symmetry_cell_setting	triclinic
loop_
_symmetry_equiv_pos_as_xyz
  x,y,z
_cell_length_a	12.827893
_cell_length_b	17.637651
_cell_length_c	12.827885
_cell_angle_alpha	78.750798
_cell_angle_beta	89.980728
_cell_angle_gamma	101.219116
loop_
_atom_site_label
_atom_site_type_symbol
_atom_site_fract_x
_atom_site_fract_y
_atom_site_fract_z
Zn1	Zn	1.513559	-0.314731	-0.506620
Zn2	Zn	1.478113	-0.446966	-0.296491
Zn3	Zn	1.338790	-0.314769	-0.331883
Zn4	Zn	1.303462	-0.446907	-0.471206
O5	O	1.408481	-0.380843	-0.401550
O6	O	1.655091	-0.332280	-0.478754
O7	O	1.459583	-0.429471	-0.154939
O8	O	1.391592	-0.204123	-0.384694
O9	O	1.629049	-0.429433	-0.324374
O10	O	1.519994	-0.204094	-0.513073
O11	O	1.357222	-0.332346	-0.180941
O12	O	1.187870	-0.332289	-0.350356
O13	O	1.331380	-0.429333	-0.622151
O14	O	1.161914	-0.429370	-0.452716
O15	O	1.485738	-0.332223	-0.648169
O16	O	1.425326	-0.557600	-0.290035
O17	O	1.297010	-0.557557	-0.418398
C18	C	1.136975	-0.380828	-0.401534
C19	C	1.020819	-0.380841	-0.401547
C20	C	0.861819	-0.332752	-0.351040
C21	C	0.981873	-0.332738	-0.351026
C22	C	1.353517	-0.586266	-0.346556
C23	C	1.330099	-0.674147	-0.323064
C24	C	1.587066	-0.962808	-0.580344
C25	C	1.565027	-1.045385	-0.558252
C26	C	1.431412	-1.045522	-0.424442
C27	C	1.453442	-0.962943	-0.446520
C28	C	1.531270	-0.921592	-0.524473
C29	C	1.397646	-0.921727	-0.390648
C30	C	1.419671	-0.839156	-0.412728
C31	C	1.497493	-0.797799	-0.490680
C32	C	1.553295	-0.839020	-0.546552
C33	C	1.319814	-0.963079	-0.312701
C34	C	1.264018	-0.921864	-0.256830
C35	C	1.286048	-0.839291	-0.278904
C36	C	1.363869	-0.797934	-0.356855
C37	C	1.230246	-0.798069	-0.223031
C38	C	1.252271	-0.715498	-0.245111
C39	C	1.385895	-0.715362	-0.378935
C40	C	1.681047	-0.380859	-0.401566
C41	C	1.797198	-0.380866	-0.401573
C42	C	1.408572	-0.380767	-0.674141
C43	C	1.408611	-0.380735	-0.790302
C44	C	1.463688	-0.174618	-0.456782
C45	C	1.487214	-0.086737	-0.480318
C46	C	1.332298	-0.428734	-0.949272
C47	C	1.332256	-0.428768	-0.829212
C48	C	1.408465	-0.380862	-0.130035
C49	C	1.408688	-0.380671	-0.013933
H50	H	0.830754	-0.422044	-0.444832
O51	O	1.245603	-0.483272	-0.755641
H52	H	1.281625	-0.523485	-0.695137
H53	H	1.449278	-0.681693	-0.442405
H54	H	1.368042	-1.079201	-0.360976
O55	O	1.495256	-0.326222	-0.863872
H56	H	1.493960	-0.264162	-0.859589
O57	O	1.245698	-0.483202	-0.993671
H58	H	1.246967	-0.545278	-0.956159
H59	H	1.474054	-0.339546	-0.980410
H60	H	1.515425	-0.730564	-0.508655
H61	H	1.037395	-0.291549	-0.307758
O62	O	1.192095	-0.671038	-0.184850
H63	H	1.248937	-0.633418	-0.141796
O64	O	0.817383	-0.278217	-0.293710
H65	H	0.730057	-0.286800	-0.302695
O66	O	0.947328	-0.435443	-0.458850
H67	H	0.907070	-0.400110	-0.521553
O68	O	1.637241	-0.794409	-0.630627
H69	H	1.672342	-0.836939	-0.665775
H70	H	1.650449	-0.929138	-0.643813
O71	O	1.625217	-1.089843	-0.618509
H72	H	1.683039	-1.047214	-0.676416
H73	H	1.301874	-1.030315	-0.294736
O74	O	1.180093	-0.966464	-0.172738
H75	H	1.174159	-1.030806	-0.166760
O76	O	1.146315	-0.842671	-0.138947
H77	H	1.140379	-0.907013	-0.132975
