data_functionalizedCrystal
_audit_creation_method	'MofGen! by Chris Wilmer'
_symmetry_space_group_name_H-M	'P1'
_symmetry_Int_Tables_number	1
_symmetry_cell_setting	triclinic
loop_
_symmetry_equiv_pos_as_xyz
  x,y,z
_cell_length_a	14.044220
_cell_length_b	27.732048
_cell_length_c	12.503572
_cell_angle_alpha	93.489054
_cell_angle_beta	86.164750
_cell_angle_gamma	87.915767
loop_
_atom_site_label
_atom_site_type_symbol
_atom_site_fract_x
_atom_site_fract_y
_atom_site_fract_z
O1	O	1.261499	0.113903	-0.089228
O2	O	0.985593	0.109700	-0.089254
O3	O	1.132113	0.041807	-0.089220
O4	O	1.114978	0.181795	-0.089262
O5	O	1.121094	0.046922	0.089419
O6	O	0.974573	0.114815	0.089385
O7	O	1.250479	0.119018	0.089411
Cu8	Cu	1.111520	0.117384	0.105709
Cu9	Cu	1.124552	0.111334	-0.105552
O10	O	1.103958	0.186910	0.089377
C11	C	0.944796	0.110418	0.000062
C12	C	0.839651	0.104930	0.000053
C13	C	0.647135	0.094899	0.000077
C14	C	0.588932	0.133816	0.000070
C15	C	0.481809	0.128235	0.000084
C16	C	0.754267	0.100480	0.000064
C17	C	1.126244	0.026341	0.000103
C18	C	1.125160	-0.027364	0.000111
C19	C	1.204929	-0.362437	0.000064
C20	C	1.200910	-0.564286	0.000049
O21	O	1.273853	-0.592120	0.000008
N22	N	1.114029	-0.587487	0.000041
C23	C	1.028146	-0.560223	0.000031
O24	O	0.954156	-0.584589	0.000013
C25	C	1.032166	-0.358376	0.000038
C26	C	1.119052	-0.335177	0.000057
C27	C	1.291808	-0.339238	0.000081
C28	C	1.292811	-0.288779	0.000091
C29	C	1.206935	-0.261519	0.000083
C30	C	1.120056	-0.284718	0.000066
C31	C	0.946285	-0.331113	0.000020
C32	C	0.947297	-0.280648	0.000019
C33	C	1.034184	-0.257449	0.000038
C34	C	1.035183	-0.206998	0.000069
N35	N	1.122064	-0.183797	0.000076
C36	C	1.207940	-0.211057	0.000083
C37	C	1.026041	-0.666196	0.000029
C38	C	1.025036	-0.716658	0.000029
C39	C	1.197801	-0.720717	0.000045
C40	C	1.198805	-0.670254	0.000052
C41	C	1.112923	-0.642995	0.000036
C42	C	1.210041	-0.105089	0.000105
C43	C	1.211036	-0.054625	0.000119
C44	C	1.038272	-0.050570	0.000097
C45	C	1.037276	-0.101029	0.000089
C46	C	1.123168	-0.128288	0.000089
O47	O	0.962280	-0.179134	0.000097
O48	O	1.281921	-0.186683	0.000077
C49	C	1.203925	-0.412897	0.000054
C50	C	1.117046	-0.436096	0.000037
C51	C	1.031169	-0.408835	0.000030
C52	C	1.116040	-0.486557	0.000037
C53	C	1.201917	-0.513818	0.000044
C54	C	1.288798	-0.490616	0.000052
C55	C	1.289801	-0.440157	0.000061
C56	C	0.944288	-0.432037	0.000023
C57	C	0.943291	-0.482496	0.000014
C58	C	1.029168	-0.509756	0.000021
C59	C	1.291276	0.118300	0.000092
C60	C	1.396422	0.123787	0.000094
C61	C	1.109828	0.202377	0.000052
C62	C	1.110912	0.256082	0.000036
N63	N	1.102361	0.121638	0.254299
N64	N	1.133718	0.107076	-0.254143
C65	C	1.088888	0.127901	0.473411
C66	C	1.147188	0.100815	0.526752
C67	C	1.139692	0.104299	0.648674
C68	C	1.096383	0.124417	0.351479
H69	H	1.281792	-0.035739	0.000136
N70	N	0.851662	-0.402636	0.000020
H71	H	0.817804	-0.412421	-0.066204
H72	H	0.809718	-0.408654	0.066284
H73	H	0.619555	0.171325	0.000054
N74	N	0.606570	0.045218	0.000087
H75	H	0.632998	0.025178	-0.066134
H76	H	0.624852	0.029005	0.066353
N77	N	0.852576	-0.356131	-0.000014
H78	H	0.844210	-0.375087	0.066203
H79	H	0.798388	-0.331174	-0.000067
N80	N	1.302679	-0.134485	0.000105
H81	H	1.357862	-0.112125	0.000119
H82	H	1.301943	-0.153619	0.066327
N83	N	1.386525	-0.263761	0.000106
H84	H	1.440767	-0.288694	0.000107
H85	H	1.394794	-0.244805	-0.066117
H86	H	1.361743	-0.361429	0.000083
H87	H	1.269555	-0.651370	0.000066
H88	H	1.360553	-0.421273	0.000076
N89	N	1.381423	-0.520023	0.000069
H90	H	1.367593	-0.555510	0.000063
H91	H	1.423407	-0.513984	-0.066150
N92	N	1.290427	-0.750124	0.000055
H93	H	1.276597	-0.785610	0.000053
H94	H	1.332404	-0.744085	-0.066169
H95	H	0.954283	-0.735541	0.000033
H96	H	0.956102	-0.644006	0.000016
H97	H	1.202731	0.075008	0.480853
N98	N	0.945655	-0.021162	0.000075
H99	H	0.890457	-0.043512	0.000061
H100	H	0.938220	0.001757	0.066297
N101	N	0.854666	-0.251247	-0.000003
H102	H	0.799478	-0.273604	-0.000015
H103	H	0.847227	-0.228331	0.066223
H104	H	0.966524	-0.119918	0.000104
H105	H	0.872532	-0.501380	0.000009
N106	N	1.015318	0.162084	0.534198
H107	H	1.020327	0.159759	0.613940
H108	H	1.027064	0.196265	0.514602
