data_functionalizedCrystal
_audit_creation_method	'MofGen! by Chris Wilmer'
_symmetry_space_group_name_H-M	'P1'
_symmetry_Int_Tables_number	1
_symmetry_cell_setting	triclinic
loop_
_symmetry_equiv_pos_as_xyz
  x,y,z
_cell_length_a	14.971486
_cell_length_b	11.792241
_cell_length_c	14.048226
_cell_angle_alpha	89.993434
_cell_angle_beta	89.998499
_cell_angle_gamma	83.903772
loop_
_atom_site_label
_atom_site_type_symbol
_atom_site_fract_x
_atom_site_fract_y
_atom_site_fract_z
O1	O	1.187540	0.147909	-0.079051
O2	O	1.687540	0.647909	0.420949
O3	O	0.927210	0.165622	-0.079077
O4	O	1.427210	0.665622	0.420923
O5	O	1.063692	-0.008446	-0.079057
O6	O	1.563692	0.491554	0.420943
O7	O	1.051058	0.321977	-0.079072
O8	O	1.551058	0.821977	0.420928
O9	O	1.063676	-0.008456	0.079264
O10	O	1.563676	0.491544	0.579264
O11	O	0.927194	0.165611	0.079244
O12	O	1.427194	0.665611	0.579244
O13	O	1.187523	0.147899	0.079270
O14	O	1.687523	0.647899	0.579270
Zn15	Zn	1.057356	0.156753	0.104394
Zn16	Zn	1.557356	0.656753	0.604394
Zn17	Zn	1.057378	0.156767	-0.104201
Zn18	Zn	1.557378	0.656767	0.395799
O19	O	1.051041	0.321966	0.079250
O20	O	1.551041	0.821966	0.579250
C21	C	0.893874	0.164824	0.000080
C22	C	1.393874	0.664824	0.500080
C23	C	0.794568	0.162451	0.000070
C24	C	1.294568	0.662451	0.500070
C25	C	0.737752	0.264710	0.000067
C26	C	1.237752	0.764710	0.500067
C27	C	0.644444	0.262473	0.000081
C28	C	1.144444	0.762473	0.500081
C29	C	0.607953	0.157975	0.000092
C30	C	1.107953	0.657975	0.500092
C31	C	0.664776	0.055707	0.000098
C32	C	1.164776	0.555707	0.500098
C33	C	0.758082	0.057946	0.000091
C34	C	1.258082	0.557946	0.500091
C35	C	0.470294	0.051049	0.000111
C36	C	0.970294	0.551049	0.500111
C37	C	0.376981	0.048810	0.000117
C38	C	0.876981	0.548810	0.500117
C39	C	0.356656	0.255577	0.000102
C40	C	0.856656	0.755577	0.500102
C41	C	0.449963	0.257815	0.000095
C42	C	0.949963	0.757815	0.500095
C43	C	0.506779	0.155547	0.000099
C44	C	1.006779	0.655547	0.500099
C45	C	1.062891	-0.050737	0.000103
C46	C	1.562891	0.449263	0.500103
C47	C	1.060515	-0.176735	0.000102
C48	C	1.560515	0.323265	0.500102
C49	C	1.056147	-0.407419	0.000086
C50	C	1.556147	0.092581	0.500086
C51	C	1.058574	-0.279050	0.000095
C52	C	1.558574	0.220950	0.500095
C53	C	1.220859	0.148696	0.000110
C54	C	1.720859	0.648696	0.500110
C55	C	1.320166	0.151070	0.000114
C56	C	1.820166	0.651070	0.500114
C57	C	1.051843	0.364257	0.000087
C58	C	1.551843	0.864257	0.500087
C59	C	1.054218	0.490256	0.000082
C60	C	1.554218	0.990256	0.500082
N61	N	1.057347	0.156744	0.246754
N62	N	1.557347	0.656744	0.746754
N63	N	1.057393	0.156768	-0.246562
N64	N	1.557393	0.656768	0.253438
C65	C	1.117801	0.079698	0.296582
C66	C	1.617801	0.579698	0.796582
C67	C	1.117807	0.079698	0.396239
C68	C	1.617807	0.579698	0.896239
C69	C	1.057363	0.156749	0.446068
C70	C	1.557363	0.656749	0.946068
C71	C	0.996903	0.233797	0.396234
C72	C	1.496903	0.733797	0.896234
C73	C	0.996894	0.233792	0.296578
C74	C	1.496894	0.733792	0.796578
C75	C	0.996929	0.233806	0.603948
C76	C	1.496929	0.733806	1.103948
C77	C	0.996940	0.233813	0.703611
C78	C	1.496940	0.733813	1.203611
C79	C	1.117843	0.079712	0.703609
C80	C	1.617843	0.579712	1.203609
C81	C	1.117833	0.079706	0.603953
C82	C	1.617833	0.579706	1.103953
C83	C	1.057374	0.156757	0.554126
C84	C	1.557374	0.656757	1.054126
H85	H	0.598187	0.345744	0.000078
H86	H	1.098187	0.845744	0.500078
H87	H	0.947665	0.296528	0.256010
H88	H	1.447665	0.796528	0.756010
H89	H	1.167032	0.016961	0.436808
H90	H	1.667032	0.516961	0.936808
H91	H	0.804341	-0.025325	0.000093
H92	H	1.304341	0.474675	0.500093
Br93	Br	0.914863	0.338361	0.463855
Br94	Br	1.414863	0.838361	0.963855
Br95	Br	1.199871	-0.024853	0.536325
Br96	Br	1.699871	0.475147	1.036325
Br97	Br	1.199843	-0.024869	0.228967
Br98	Br	1.699843	0.475131	0.728967
Br99	Br	0.499486	0.399635	0.000066
Br100	Br	0.999486	0.899635	0.500066
H101	H	0.516553	-0.032229	0.000116
H102	H	1.016553	0.467771	0.500116
Br103	Br	1.199896	-0.024850	0.771234
Br104	Br	1.699896	0.475150	1.271234
H105	H	0.767455	0.349805	0.000058
H106	H	1.267455	0.849805	0.500058
H107	H	0.635057	-0.029377	0.000120
H108	H	1.135057	0.470623	0.500120
H109	H	0.947719	0.296555	0.744177
H110	H	1.447719	0.796555	1.244177
H111	H	0.947694	0.296545	0.563382
H112	H	1.447694	0.796545	1.063382
H113	H	0.347274	-0.036282	0.000127
H114	H	0.847274	0.463718	0.500127
Br115	Br	0.279549	0.394370	0.000095
Br116	Br	0.779549	0.894370	0.500095
