data_functionalizedCrystal
_audit_creation_method	'MofGen! by Chris Wilmer'
_symmetry_space_group_name_H-M	'P1'
_symmetry_Int_Tables_number	1
_symmetry_cell_setting	triclinic
loop_
_symmetry_equiv_pos_as_xyz
  x,y,z
_cell_length_a	42.784839
_cell_length_b	42.784841
_cell_length_c	42.784893
_cell_angle_alpha	90.002418
_cell_angle_beta	59.997780
_cell_angle_gamma	119.999863
loop_
_atom_site_label
_atom_site_type_symbol
_atom_site_fract_x
_atom_site_fract_y
_atom_site_fract_z
O1	O	0.275695	-0.214412	-0.009300
O2	O	0.211692	-0.168961	0.009253
O3	O	0.275692	-0.168961	-0.054750
O4	O	0.211694	-0.214412	0.054702
O5	O	0.223708	-0.220945	-0.054749
O6	O	0.159708	-0.220945	0.009253
O7	O	0.223710	-0.266397	-0.009300
Cu8	Cu	0.186962	-0.248417	-0.000023
Cu9	Cu	0.248440	-0.186940	-0.000024
O10	O	0.159710	-0.266396	0.054703
C11	C	0.051021	-0.022778	0.028112
C12	C	0.013142	-0.041761	0.028375
C13	C	0.051018	-0.079378	0.028116
C14	C	0.013139	-0.098275	0.028379
C15	C	-0.005578	-0.079377	0.028112
C16	C	0.069652	-0.041762	0.028379
C17	C	0.152948	0.113708	0.017863
C18	C	0.173786	0.152360	0.014965
C19	C	0.155902	0.171750	0.013509
C20	C	0.178499	0.213661	0.010359
C21	C	0.117177	0.152485	0.014953
C22	C	0.096339	0.113835	0.017857
C23	C	0.114226	0.094447	0.019312
C24	C	-0.131813	-0.113936	0.017859
C25	C	-0.167567	-0.131750	0.014961
C26	C	-0.185502	-0.169024	0.013506
C27	C	-0.224264	-0.188340	0.010358
C28	C	-0.167685	-0.188485	0.014954
C29	C	-0.131938	-0.170675	0.017859
C30	C	-0.114002	-0.133396	0.019309
C31	C	0.152939	-0.113943	0.017877
C32	C	0.173778	-0.131757	0.014977
C33	C	0.155892	-0.169032	0.013523
C34	C	0.178486	-0.188349	0.010377
C35	C	0.117170	-0.188491	0.014967
C36	C	0.096334	-0.170675	0.017865
C37	C	0.114220	-0.133401	0.019323
C38	C	0.091629	0.052537	0.022456
C39	C	0.073617	0.019131	0.024964
C40	C	0.073613	-0.098693	0.024971
C41	C	0.091623	-0.114089	0.022466
C42	C	-0.044339	-0.098690	0.024964
C43	C	-0.075237	-0.114084	0.022456
O44	O	-0.327856	-0.266388	-0.009322
O45	O	-0.236954	-0.220935	0.009228
O46	O	-0.236950	-0.220939	-0.054773
O47	O	-0.327860	-0.266385	0.054680
O48	O	-0.236948	-0.168954	-0.054776
O49	O	-0.236952	-0.168950	0.009225
O50	O	-0.327854	-0.214403	-0.009325
Cu51	Cu	-0.282403	-0.186930	-0.000050
Cu52	Cu	-0.282405	-0.248408	-0.000046
O53	O	-0.327858	-0.214400	0.054676
C54	C	0.384390	-0.079141	-0.361606
C55	C	0.422270	-0.041526	-0.380503
C56	C	0.384390	-0.079141	-0.305008
C57	C	0.422270	-0.041526	-0.323990
C58	C	0.440988	-0.022543	-0.361606
C59	C	0.365758	-0.098038	-0.323991
C60	C	0.282465	-0.170819	-0.396168
C61	C	0.261627	-0.188759	-0.413983
C62	C	0.279513	-0.169420	-0.451257
C63	C	0.256917	-0.188867	-0.470572
C64	C	0.318239	-0.132140	-0.470717
C65	C	0.339076	-0.114205	-0.452905
C66	C	0.321187	-0.133546	-0.415628
C67	C	0.567227	0.113942	-0.453282
C68	C	0.602981	0.152594	-0.471222
C69	C	0.620916	0.171985	-0.451883
C70	C	0.659678	0.213894	-0.471328
C71	C	0.603097	0.152719	-0.414603
C72	C	0.567349	0.114068	-0.396667
C73	C	0.549414	0.094682	-0.416011
C74	C	0.282465	-0.170819	-0.168522
C75	C	0.261624	-0.188757	-0.129868
C76	C	0.279510	-0.169418	-0.110479
C77	C	0.256914	-0.188865	-0.068568
C78	C	0.318233	-0.132140	-0.129742
C79	C	0.339070	-0.114203	-0.168394
C80	C	0.321184	-0.133548	-0.187782
C81	C	0.343783	-0.114094	-0.396315
C82	C	0.361794	-0.098590	-0.380920
C83	C	0.361794	-0.098590	-0.263099
C84	C	0.343783	-0.114094	-0.229693
C85	C	0.479750	0.019366	-0.381054
C86	C	0.510649	0.052771	-0.396557
C87	C	0.440758	-0.356212	-0.028193
C88	C	0.422041	-0.393827	-0.028459
C89	C	0.384158	-0.356213	-0.028190
C90	C	0.365526	-0.393828	-0.028456
C91	C	0.384160	-0.412810	-0.028193
C92	C	0.422038	-0.337315	-0.028456
C93	C	0.567000	-0.264532	-0.017949
C94	C	0.602755	-0.246591	-0.015053
C95	C	0.620692	-0.265931	-0.013601
C96	C	0.659455	-0.246483	-0.010453
C97	C	0.602873	-0.303210	-0.015048
C98	C	0.567125	-0.321146	-0.017949
C99	C	0.549188	-0.301805	-0.019399
C100	C	0.339356	-0.549295	-0.017951
C101	C	0.318645	-0.587947	-0.015055
C102	C	0.279915	-0.607338	-0.013597
C103	C	0.257452	-0.649247	-0.010452
C104	C	0.261899	-0.588073	-0.015042
C105	C	0.282613	-0.549422	-0.017945
C106	C	0.321343	-0.530035	-0.019397
C107	C	0.339344	-0.264537	-0.017936
C108	C	0.318628	-0.246599	-0.015032
C109	C	0.279898	-0.265939	-0.013577
C110	C	0.257433	-0.246493	-0.010426
C111	C	0.261884	-0.303217	-0.015022
C112	C	0.282601	-0.321153	-0.017924
C113	C	0.321334	-0.301808	-0.019385
C114	C	0.510421	-0.321258	-0.022542
C115	C	0.479522	-0.336762	-0.025048
C116	C	0.361696	-0.336765	-0.025041
C117	C	0.343793	-0.321261	-0.022532
C118	C	0.361701	-0.454719	-0.025047
C119	C	0.343799	-0.488125	-0.022541
O120	O	0.223728	0.336934	-0.009323
O121	O	0.159726	0.227482	0.009227
O122	O	0.223729	0.291478	-0.054775
O123	O	0.159725	0.272938	0.054678
O124	O	0.275711	0.291477	-0.054771
O125	O	0.211707	0.227481	0.009230
O126	O	0.275710	0.336932	-0.009320
Cu127	Cu	0.248455	0.282206	-0.000045
Cu128	Cu	0.186981	0.282208	-0.000049
O129	O	0.211707	0.272936	0.054681
O130	O	0.763271	0.337164	-0.496871
O131	O	0.672367	0.227713	-0.451422
O132	O	0.672365	0.291711	-0.451418
O133	O	0.763273	0.273165	-0.496876
O134	O	0.672366	0.291712	-0.503402
O135	O	0.672368	0.227714	-0.503407
O136	O	0.763272	0.337165	-0.548856
Cu137	Cu	0.717820	0.282440	-0.530878
Cu138	Cu	0.717819	0.282438	-0.469400
O139	O	0.763275	0.273167	-0.548860
O140	O	0.211690	-0.214417	-0.548617
O141	O	0.275691	-0.168962	-0.503167
O142	O	0.211689	-0.168964	-0.503163
O143	O	0.275692	-0.214415	-0.548621
O144	O	0.159706	-0.220947	-0.451179
O145	O	0.223708	-0.220945	-0.451183
O146	O	0.159707	-0.266400	-0.496633
Cu147	Cu	0.186961	-0.248419	-0.469161
Cu148	Cu	0.248437	-0.186943	-0.530639
O149	O	0.223709	-0.266398	-0.496637
C150	C	-0.005343	-0.412572	0.361558
C151	C	0.013375	-0.393590	0.380456
C152	C	0.051255	-0.355974	0.304961
C153	C	0.069887	-0.337077	0.323944
C154	C	0.051254	-0.355974	0.361560
C155	C	0.013375	-0.393589	0.323943
C156	C	-0.131582	-0.549057	0.396116
C157	C	-0.167336	-0.587709	0.413930
C158	C	-0.185271	-0.607098	0.451205
C159	C	-0.224034	-0.649009	0.470519
C160	C	-0.167452	-0.587833	0.470666
C161	C	-0.131705	-0.549184	0.452854
C162	C	-0.113770	-0.529796	0.415578
C163	C	0.096061	-0.321414	0.453239
C164	C	0.116773	-0.303600	0.471179
C165	C	0.155502	-0.266327	0.451842
C166	C	0.177965	-0.247011	0.471288
C167	C	0.173517	-0.246866	0.414562
C168	C	0.152802	-0.264677	0.396625
C169	C	0.114073	-0.301955	0.415968
C170	C	0.096064	-0.321412	0.168474
C171	C	0.116779	-0.303599	0.129820
C172	C	0.155508	-0.266324	0.110432
C173	C	0.177972	-0.247009	0.068521
C174	C	0.173522	-0.246865	0.129696
C175	C	0.152807	-0.264680	0.168348
C176	C	0.114075	-0.301953	0.187735
C177	C	-0.075004	-0.487887	0.396265
C178	C	-0.044106	-0.454481	0.380871
C179	C	0.073715	-0.336660	0.263052
C180	C	0.091618	-0.321265	0.229646
C181	C	0.073714	-0.336661	0.381009
C182	C	0.091616	-0.321267	0.396513
C183	C	0.051046	-0.022794	-0.361634
C184	C	0.069679	-0.041778	-0.380530
C185	C	-0.005555	-0.079390	-0.305034
C186	C	0.013163	-0.098288	-0.324016
C187	C	0.051045	-0.079393	-0.361631
C188	C	0.013164	-0.041775	-0.324018
C189	C	0.095858	0.113693	-0.396200
C190	C	0.116571	0.152344	-0.414015
C191	C	0.155302	0.171732	-0.451290
C192	C	0.177767	0.213642	-0.470607
C193	C	0.173317	0.152465	-0.470750
C194	C	0.152600	0.113815	-0.452936
C195	C	0.113869	0.094429	-0.415659
C196	C	0.152973	-0.113959	-0.453306
C197	C	0.173810	-0.131775	-0.471245
C198	C	0.155926	-0.169048	-0.451906
C199	C	0.178519	-0.188366	-0.471350
C200	C	0.117198	-0.188507	-0.414626
C201	C	0.096358	-0.170694	-0.396690
C202	C	0.114251	-0.133416	-0.416035
C203	C	-0.131801	-0.113944	-0.168548
C204	C	-0.167554	-0.131755	-0.129895
C205	C	-0.185491	-0.169029	-0.110504
C206	C	-0.224255	-0.188343	-0.068593
C207	C	-0.167671	-0.188490	-0.129767
C208	C	-0.131918	-0.170677	-0.168418
C209	C	-0.113988	-0.133404	-0.187808
C210	C	0.091411	0.052521	-0.396344
C211	C	0.073508	0.019115	-0.380949
C212	C	-0.044320	-0.098701	-0.263125
C213	C	-0.075220	-0.114094	-0.229719
C214	C	0.073641	-0.098707	-0.381079
C215	C	0.091652	-0.114103	-0.396582
C216	C	-0.615853	-0.356193	0.361535
C217	C	-0.634487	-0.393808	0.380433
C218	C	-0.559253	-0.356195	0.304938
C219	C	-0.577972	-0.393810	0.323921
C220	C	-0.615854	-0.412792	0.361537
C221	C	-0.577972	-0.337297	0.323920
C222	C	-0.660661	-0.264512	0.396093
C223	C	-0.681373	-0.246571	0.413906
C224	C	-0.720104	-0.265909	0.451181
C225	C	-0.742568	-0.246461	0.470495
C226	C	-0.738120	-0.303189	0.470643
C227	C	-0.717405	-0.321125	0.452831
C228	C	-0.678674	-0.301785	0.415554
C229	C	-0.717784	-0.549275	0.453218
C230	C	-0.738622	-0.587926	0.471159
C231	C	-0.720740	-0.607319	0.451822
C232	C	-0.743333	-0.649227	0.471268
C233	C	-0.682012	-0.588055	0.414542
C234	C	-0.661170	-0.549403	0.396604
C235	C	-0.679063	-0.530016	0.415946
C236	C	-0.433006	-0.264522	0.168449
C237	C	-0.397253	-0.246585	0.129796
C238	C	-0.379317	-0.265926	0.110407
C239	C	-0.340553	-0.246480	0.068496
C240	C	-0.397138	-0.303204	0.129672
C241	C	-0.432891	-0.321139	0.168324
C242	C	-0.450820	-0.301793	0.187711
C243	C	-0.656216	-0.321238	0.396242
C244	C	-0.638314	-0.336743	0.380848
C245	C	-0.520488	-0.336748	0.263028
C246	C	-0.489588	-0.321245	0.229622
C247	C	-0.638451	-0.454700	0.380987
C248	C	-0.656463	-0.488106	0.396492
C249	C	0.440756	0.310302	-0.361620
C250	C	0.422038	0.310564	-0.380518
C251	C	0.384160	0.310312	-0.305026
C252	C	0.365528	0.310574	-0.324010
C253	C	0.384159	0.310303	-0.361624
C254	C	0.422038	0.310573	-0.324006
C255	C	0.566989	0.300046	-0.396172
C256	C	0.602741	0.297145	-0.413984
C257	C	0.620675	0.295684	-0.451257
C258	C	0.659436	0.292531	-0.470569
C259	C	0.602857	0.297127	-0.470719
C260	C	0.567111	0.300033	-0.452909
C261	C	0.549177	0.301493	-0.415634
C262	C	0.339351	0.300042	-0.453303
C263	C	0.318640	0.297142	-0.471244
C264	C	0.279912	0.295690	-0.451908
C265	C	0.257449	0.292541	-0.471354
C266	C	0.261899	0.297143	-0.414629
C267	C	0.282613	0.300049	-0.396692
C268	C	0.321341	0.301496	-0.416033
C269	C	0.339354	0.300088	-0.168540
C270	C	0.318640	0.297192	-0.129888
C271	C	0.279912	0.295742	-0.110501
C272	C	0.257450	0.292601	-0.068591
C273	C	0.261898	0.297184	-0.129766
C274	C	0.282612	0.300078	-0.168417
C275	C	0.321344	0.301533	-0.187802
C276	C	0.510413	0.304640	-0.396323
C277	C	0.479516	0.307151	-0.380931
C278	C	0.361701	0.307173	-0.263117
C279	C	0.343799	0.304671	-0.229712
C280	C	0.361700	0.307154	-0.381073
C281	C	0.343798	0.304644	-0.396578
O282	O	0.275503	0.336913	-0.548651
O283	O	0.211494	0.227461	-0.503201
O284	O	0.275490	0.291455	-0.503192
O285	O	0.211507	0.272919	-0.548659
O286	O	0.223502	0.291457	-0.451211
O287	O	0.159506	0.227463	-0.451219
O288	O	0.223515	0.336915	-0.496669
Cu289	Cu	0.186764	0.282189	-0.469197
Cu290	Cu	0.248246	0.282187	-0.530672
O291	O	0.159519	0.272921	-0.496677
C292	C	0.051032	0.254111	0.361530
C293	C	0.013154	0.253851	0.380425
C294	C	0.051031	0.254102	0.304932
C295	C	0.013153	0.253842	0.323913
C296	C	-0.005564	0.254113	0.361527
C297	C	0.069663	0.253840	0.323916
C298	C	0.152954	0.264360	0.396096
C299	C	0.173791	0.267260	0.413911
C300	C	0.155906	0.268721	0.451185
C301	C	0.178502	0.271871	0.470501
C302	C	0.117182	0.267279	0.470643
C303	C	0.096345	0.264374	0.452830
C304	C	0.114233	0.262915	0.415555
C305	C	-0.131796	0.264379	0.453195
C306	C	-0.167548	0.267281	0.471133
C307	C	-0.185483	0.268734	0.451793
C308	C	-0.224243	0.271886	0.471236
C309	C	-0.167664	0.267282	0.414515
C310	C	-0.131919	0.264374	0.396581
C311	C	-0.113984	0.262925	0.415925
C312	C	0.152952	0.264325	0.168451
C313	C	0.173792	0.267221	0.129798
C314	C	0.155907	0.268673	0.110407
C315	C	0.178502	0.271814	0.068498
C316	C	0.117186	0.267232	0.129669
C317	C	0.096350	0.264339	0.168320
C318	C	0.114234	0.262881	0.187709
C319	C	0.091638	0.259769	0.396240
C320	C	0.073627	0.257260	0.380845
C321	C	0.073626	0.257242	0.263024
C322	C	0.091636	0.259743	0.229619
C323	C	-0.044324	0.257264	0.380973
C324	C	-0.075221	0.259775	0.396474
H325	H	-0.182070	-0.115902	0.013781
C326	C	0.145732	-0.293226	0.301447
C327	C	0.111043	-0.295359	0.303363
H328	H	0.171141	-0.267474	0.288736
H329	H	0.137262	-0.301804	0.326612
H330	H	0.152322	-0.308950	0.287685
H331	H	0.104450	-0.279637	0.317127
H332	H	0.119514	-0.286777	0.278193
H333	H	0.101900	0.168027	-0.398169
C334	C	0.127799	-0.328478	0.077777
C335	C	0.096978	-0.324988	0.108646
H336	H	0.115571	-0.341684	0.064708
H337	H	0.153825	-0.303733	0.060702
H338	H	0.134897	-0.342390	0.086990
H339	H	0.089882	-0.311073	0.099433
H340	H	0.070944	-0.349737	0.125725
C341	C	0.380703	-0.101401	-0.126362
C342	C	0.337881	-0.110885	-0.108419
H343	H	0.392828	-0.088280	-0.113196
H344	H	0.379665	-0.124107	-0.125921
H345	H	0.398658	-0.085377	-0.152136
H346	H	0.319925	-0.126911	-0.082646
H347	H	0.338916	-0.088175	-0.108856
H348	H	0.230368	0.295965	-0.398887
C349	C	0.230854	-0.133876	0.010536
C350	C	0.216341	-0.110368	0.013390
H351	H	0.257131	-0.120670	0.009555
H352	H	0.208634	-0.156585	0.032201
H353	H	0.236646	-0.140309	-0.012087
H354	H	0.210546	-0.103937	0.036015
H355	H	0.238566	-0.087652	-0.008278
C356	C	0.374919	0.270706	-0.203426
C357	C	0.381924	0.301683	-0.189849
H358	H	0.401201	0.271692	-0.216583
H359	H	0.351655	0.247437	-0.182478
H360	H	0.367158	0.271986	-0.220431
H361	H	0.389683	0.300402	-0.172842
H362	H	0.405196	0.324958	-0.210799
C363	C	0.637645	0.328903	-0.383109
C364	C	0.622324	0.295555	-0.392592
H365	H	0.649732	0.327920	-0.369900
H366	H	0.659806	0.350563	-0.405823
H367	H	0.613785	0.330838	-0.367166
H368	H	0.646185	0.293622	-0.408536
H369	H	0.600161	0.273889	-0.369874
C370	C	0.209422	0.237876	0.413031
C371	C	0.216356	0.268849	0.392522
H372	H	0.235701	0.238858	0.399823
H373	H	0.201755	0.239163	0.437774
H374	H	0.186112	0.214602	0.415397
H375	H	0.239664	0.292124	0.390158
H376	H	0.224029	0.267566	0.367771
C377	C	0.019204	-0.362354	0.220662
C378	C	0.053490	-0.362383	0.189788
H379	H	-0.007079	-0.387648	0.233821
H380	H	0.026972	-0.353313	0.237661
H381	H	0.014463	-0.346088	0.211442
H382	H	0.058233	-0.378647	0.199009
H383	H	0.045721	-0.371429	0.172787
H384	H	0.335043	-0.409068	-0.028878
C385	C	0.376812	-0.583941	-0.015353
C386	C	0.338446	-0.609121	-0.013466
H387	H	0.389035	-0.597015	-0.014370
H388	H	0.397716	-0.563004	-0.038627
H389	H	0.369703	-0.574735	0.005662
H390	H	0.345556	-0.618325	-0.034482
H391	H	0.317538	-0.630065	0.009811
H392	H	0.167506	-0.083593	0.019063
C393	C	-0.115794	-0.195549	0.053759
C394	C	-0.112352	-0.192064	0.019449
H395	H	-0.103704	-0.208755	0.054740
H396	H	-0.099998	-0.170803	0.055038
H397	H	-0.146018	-0.209459	0.074770
H398	H	-0.082127	-0.178151	-0.001562
H399	H	-0.128147	-0.216814	0.018167
H400	H	0.100149	0.253421	0.308676
H401	H	0.267943	-0.533739	-0.019121
C402	C	0.455781	0.344048	-0.292872
C403	C	0.443177	0.311145	-0.303424
H404	H	0.468825	0.344398	-0.280162
H405	H	0.476566	0.366123	-0.315111
H406	H	0.430496	0.343934	-0.276181
H407	H	0.468462	0.311260	-0.320117
H408	H	0.422391	0.289064	-0.281182
H409	H	0.617704	0.168507	-0.398859
C410	C	-0.362341	-0.180808	0.126648
C411	C	-0.377662	-0.205609	0.108620
H412	H	-0.350243	-0.155510	0.113574
H413	H	-0.386200	-0.188720	0.152438
H414	H	-0.340184	-0.181368	0.126153
H415	H	-0.399822	-0.205051	0.109117
H416	H	-0.353801	-0.197695	0.082824
H417	H	0.437707	0.310988	-0.411425
H418	H	-0.447603	-0.248768	0.184232
H419	H	-0.732353	-0.533492	0.468971
H420	H	0.370892	-0.533512	-0.019136
C421	C	0.657707	0.292665	-0.523212
C422	C	0.622568	0.295521	-0.511688
H423	H	0.669873	0.291671	-0.548504
H424	H	0.679819	0.314335	-0.522618
H425	H	0.647257	0.270048	-0.506331
H426	H	0.633019	0.318140	-0.528567
H427	H	0.600453	0.273849	-0.512285
H428	H	-0.117415	0.263190	0.366230
C429	C	0.146241	-0.266795	0.227545
C430	C	0.172602	-0.243288	0.189525
H431	H	0.158464	-0.253588	0.240618
H432	H	0.117187	-0.273232	0.239767
H433	H	0.145202	-0.289505	0.228034
H434	H	0.173639	-0.220579	0.189036
H435	H	0.201665	-0.236846	0.177300
H436	H	0.102623	0.268466	0.500992
C437	C	-0.606646	-0.206743	0.341803
C438	C	-0.618086	-0.243251	0.355121
H439	H	-0.580362	-0.193619	0.316509
H440	H	-0.629908	-0.209062	0.341790
H441	H	-0.601904	-0.192788	0.358074
H442	H	-0.622832	-0.257208	0.338851
H443	H	-0.594819	-0.240934	0.355130
H444	H	-0.002512	0.253428	0.411332
C445	C	0.210991	0.117464	0.017594
C446	C	0.172606	0.092396	0.019470
H447	H	0.223123	0.104305	0.018588
H448	H	0.231948	0.138406	-0.005681
H449	H	0.203930	0.126678	0.038607
H450	H	0.179667	0.083184	-0.001545
H451	H	0.151644	0.071448	0.042748
C452	C	0.227649	0.266914	0.133808
C453	C	0.216353	0.268804	0.108627
H454	H	0.253923	0.267889	0.120738
H455	H	0.232353	0.287928	0.143011
H456	H	0.204333	0.243640	0.154751
H457	H	0.239668	0.292080	0.087686
H458	H	0.211652	0.247788	0.099418
H459	H	0.552845	0.098385	-0.366316
H460	H	-0.002510	0.253416	0.308669
C461	C	0.141775	-0.239803	0.355609
C462	C	0.172600	-0.243288	0.355651
H463	H	0.154000	-0.226596	0.330313
H464	H	0.115750	-0.264549	0.364559
H465	H	0.134674	-0.225893	0.371924
H466	H	0.179698	-0.257201	0.339338
H467	H	0.198632	-0.218537	0.346696
C468	C	0.311429	-0.134497	-0.523214
C469	C	0.337896	-0.110883	-0.511687
H470	H	0.323565	-0.121370	-0.548507
H471	H	0.310393	-0.157202	-0.522619
H472	H	0.282380	-0.140926	-0.506335
H473	H	0.366945	-0.104455	-0.528565
H474	H	0.338938	-0.088170	-0.512285
C475	C	0.312065	-0.193966	-0.010585
C476	C	0.338428	-0.205624	-0.013442
H477	H	0.324289	-0.168670	-0.009602
H478	H	0.311018	-0.194521	-0.032249
H479	H	0.283009	-0.210799	0.012039
H480	H	0.367483	-0.188793	-0.036068
H481	H	0.339479	-0.205067	0.008224
H482	H	0.333309	0.296016	-0.114204
H483	H	0.370607	-0.083853	-0.468752
C484	C	0.215459	-0.048121	-0.484053
C485	C	0.172637	-0.072988	-0.474572
H486	H	0.227598	-0.022828	-0.497182
H487	H	0.214416	-0.048716	-0.461344
H488	H	0.233404	-0.055952	-0.500068
H489	H	0.154691	-0.065158	-0.458554
H490	H	0.173678	-0.072391	-0.497284
H491	H	0.267941	0.301250	-0.184099
C492	C	0.230472	-0.194361	0.070393
C493	C	0.216093	-0.205891	0.108386
H494	H	0.256751	-0.169065	0.057240
H495	H	0.236218	-0.211231	0.058218
H496	H	0.208200	-0.194960	0.069957
H497	H	0.238364	-0.205294	0.108823
H498	H	0.210349	-0.189016	0.120565
C499	C	-0.792499	-0.583924	0.525314
C500	C	-0.781196	-0.609102	0.512130
H501	H	-0.818785	-0.596999	0.550607
H502	H	-0.769197	-0.562989	0.525289
H503	H	-0.797187	-0.574713	0.508992
H504	H	-0.776504	-0.618311	0.528451
H505	H	-0.804503	-0.630044	0.512158
C506	C	0.095989	0.173139	-0.018590
C507	C	0.097519	0.173798	0.013354
H508	H	0.083849	0.186295	-0.019576
H509	H	0.125037	0.185313	-0.041204
H510	H	0.078035	0.147361	-0.016651
H511	H	0.115476	0.199576	0.011413
H512	H	0.068467	0.161625	0.035973
C513	C	0.209419	0.187109	0.044348
C514	C	0.216352	0.173534	0.013374
H515	H	0.235697	0.200178	0.043366
H516	H	0.201752	0.204186	0.043064
H517	H	0.186108	0.166165	0.067623
H518	H	0.239660	0.194478	-0.009901
H519	H	0.224024	0.156456	0.014655
C520	C	0.204949	-0.647378	-0.010590
C521	C	0.219328	-0.609385	-0.013443
H522	H	0.178665	-0.660535	-0.009599
H523	H	0.227215	-0.647819	-0.032260
H524	H	0.199209	-0.659548	0.012028
H525	H	0.225072	-0.597214	-0.036063
H526	H	0.197057	-0.608942	0.008230
C527	C	0.123335	-0.301484	0.523812
C528	C	0.096975	-0.324991	0.512153
H529	H	0.111110	-0.314691	0.549108
H530	H	0.152389	-0.295049	0.506980
H531	H	0.124375	-0.278773	0.523262
H532	H	0.095937	-0.347701	0.512700
H533	H	0.067913	-0.331432	0.528989
C534	C	-0.519549	-0.282930	0.266249
C535	C	-0.556821	-0.295577	0.303342
H536	H	-0.506494	-0.257176	0.253545
H537	H	-0.498777	-0.284388	0.267561
H538	H	-0.528101	-0.298648	0.252484
H539	H	-0.548269	-0.279860	0.317108
H540	H	-0.577597	-0.294116	0.302032
C541	C	0.250728	-0.106905	-0.512254
C542	C	0.216380	-0.110387	-0.512218
H543	H	0.277008	-0.093702	-0.537550
H544	H	0.255422	-0.092996	-0.495942
H545	H	0.243050	-0.131656	-0.503301
H546	H	0.224056	-0.085635	-0.521169
H547	H	0.211686	-0.124294	-0.528536
H548	H	-0.002525	-0.129181	0.028805
C549	C	0.570716	0.117698	-0.511056
C550	C	0.547523	0.092630	-0.474548
H551	H	0.558552	0.104539	-0.524184
H552	H	0.568381	0.138640	-0.508738
H553	H	0.600943	0.126913	-0.525009
H554	H	0.517296	0.083418	-0.460594
H555	H	0.549853	0.071682	-0.476865
H556	H	0.267931	-0.351506	-0.019101
C557	C	0.060717	0.079086	-0.011532
C558	C	0.053776	0.092659	0.019444
H559	H	0.034439	0.066011	-0.010551
H560	H	0.084024	0.100027	-0.034803
H561	H	0.068387	0.062009	-0.010245
H562	H	0.046109	0.109739	0.018155
H563	H	0.030461	0.071716	0.042720
H564	H	0.617485	0.168277	-0.501573
H565	H	-0.117212	-0.083598	-0.184336
H566	H	-0.667447	-0.603843	0.398798
C567	C	-0.710341	-0.416327	0.424270
C568	C	-0.675653	-0.414402	0.422148
H569	H	-0.735759	-0.429049	0.450020
H570	H	-0.701882	-0.391164	0.415701
H571	H	-0.716913	-0.430081	0.408534
H572	H	-0.669080	-0.400646	0.437881
H573	H	-0.684113	-0.439569	0.430722
C574	C	0.204544	-0.241389	-0.416097
C575	C	0.219058	-0.229731	-0.392590
H576	H	0.178263	-0.266684	-0.402889
H577	H	0.198761	-0.224555	-0.422533
H578	H	0.226764	-0.240842	-0.438808
H579	H	0.196839	-0.230276	-0.369880
H580	H	0.224838	-0.246569	-0.386148
H581	H	-0.002524	-0.026519	0.028802
H582	H	-0.117214	-0.083584	0.019042
H583	H	0.064816	0.263199	0.468675
C584	C	0.186312	-0.230538	-0.109424
C585	C	0.219058	-0.229731	-0.108692
H586	H	0.160034	-0.255834	-0.096352
H587	H	0.180525	-0.213708	-0.097199
H588	H	0.196166	-0.222626	-0.135220
H589	H	0.209205	-0.237641	-0.082896
H590	H	0.224844	-0.246567	-0.120916
C591	C	0.022873	-0.416085	0.270594
C592	C	-0.007769	-0.414171	0.303369
H593	H	0.009819	-0.428796	0.257895
H594	H	0.048147	-0.390920	0.253898
H595	H	0.031428	-0.429845	0.277763
H596	H	-0.016322	-0.400409	0.296199
H597	H	-0.033051	-0.439341	0.320068
C598	C	-0.410017	-0.357937	0.109012
C599	C	-0.377420	-0.324463	0.108360
H600	H	-0.397842	-0.371058	0.095852
H601	H	-0.433855	-0.373951	0.134785
H602	H	-0.420455	-0.351501	0.096834
H603	H	-0.366985	-0.330899	0.120540
H604	H	-0.353574	-0.308445	0.082582
H605	H	0.617482	-0.318952	-0.013867
C606	C	0.373083	-0.048426	-0.171538
C607	C	0.381631	-0.073227	-0.189569
H608	H	0.399359	-0.023129	-0.184611
H609	H	0.350862	-0.048985	-0.172030
H610	H	0.363238	-0.056342	-0.145746
H611	H	0.391474	-0.065312	-0.215361
H612	H	0.403860	-0.072666	-0.189081
C613	C	0.570812	0.299722	-0.510775
C614	C	0.547525	0.301619	-0.474299
H615	H	0.558717	0.300697	-0.523979
H616	H	0.601030	0.320733	-0.524684
H617	H	0.568475	0.276445	-0.508399
H618	H	0.549865	0.324897	-0.476675
H619	H	0.517299	0.280606	-0.460387
C620	C	-0.135064	-0.552815	0.341828
C621	C	-0.111873	-0.527747	0.355145
H622	H	-0.122897	-0.539657	0.316535
H623	H	-0.132733	-0.573758	0.341814
H624	H	-0.165291	-0.562027	0.358100
H625	H	-0.081647	-0.518537	0.338875
H626	H	-0.114201	-0.506797	0.355156
C627	C	0.224447	0.299756	-0.342530
C628	C	0.262814	0.301644	-0.355718
H629	H	0.212222	0.300738	-0.317233
H630	H	0.231554	0.320768	-0.358843
H631	H	0.203542	0.276480	-0.342566
H632	H	0.283720	0.324922	-0.355685
H633	H	0.255708	0.280631	-0.339401
C634	C	0.312140	-0.152407	-0.266323
C635	C	0.324610	-0.139760	-0.303415
H636	H	0.286737	-0.178163	-0.253620
H637	H	0.335682	-0.150949	-0.267634
H638	H	0.305538	-0.136691	-0.252556
H639	H	0.331215	-0.155474	-0.317183
H640	H	0.301063	-0.141221	-0.302105
C641	C	-0.651104	-0.181554	0.413018
C642	C	-0.661573	-0.205598	0.392513
H643	H	-0.638878	-0.156259	0.399809
H644	H	-0.677133	-0.190503	0.437763
H645	H	-0.630196	-0.181590	0.415384
H646	H	-0.682484	-0.205565	0.390150
H647	H	-0.635542	-0.196646	0.367762
C648	C	-0.231472	-0.622459	0.413054
C649	C	-0.186924	-0.608887	0.392543
H650	H	-0.243564	-0.635532	0.399849
H651	H	-0.247262	-0.639532	0.437799
H652	H	-0.233800	-0.601513	0.415418
H653	H	-0.184596	-0.629833	0.390181
H654	H	-0.171129	-0.591812	0.367791
C655	C	0.480468	-0.389780	-0.029224
C656	C	0.443197	-0.414397	-0.029048
H657	H	0.493529	-0.402479	-0.029590
H658	H	0.501236	-0.367543	-0.051300
H659	H	0.471913	-0.382627	-0.006899
H660	H	0.451753	-0.421548	-0.051376
H661	H	0.422425	-0.436641	-0.006971
C662	C	0.183001	0.293704	0.203343
C663	C	0.172611	0.262727	0.189765
H664	H	0.195134	0.292715	0.216505
H665	H	0.203960	0.316973	0.182395
H666	H	0.156954	0.292425	0.220344
H667	H	0.198658	0.264007	0.172761
H668	H	0.151651	0.239451	0.210716
H669	H	0.552391	0.301235	-0.365822
H670	H	0.205048	-0.216515	0.398819
H671	H	0.102633	-0.218858	-0.398880
H672	H	-0.182060	-0.603623	0.501016
C673	C	0.480448	-0.282944	-0.029194
C674	C	0.443181	-0.295595	-0.029025
H675	H	0.493499	-0.257189	-0.029546
H676	H	0.471893	-0.298658	-0.006877
H677	H	0.501228	-0.284401	-0.051279
H678	H	0.422400	-0.294141	-0.006939
H679	H	0.451735	-0.279877	-0.051344
H680	H	-0.447397	-0.351491	0.184007
H681	H	0.064321	0.097912	-0.365848
C682	C	0.204937	-0.300862	-0.010581
C683	C	0.219315	-0.324477	-0.013429
H684	H	0.178660	-0.313986	-0.009602
H685	H	0.199187	-0.294436	0.012038
H686	H	0.227210	-0.278152	-0.032251
H687	H	0.197043	-0.347186	0.008243
H688	H	0.225063	-0.330909	-0.036050
C689	C	0.016470	-0.152654	-0.328060
C690	C	-0.007978	-0.140006	-0.303440
H691	H	0.003422	-0.178407	-0.315356
H692	H	0.016614	-0.151204	-0.350289
H693	H	0.045953	-0.136933	-0.335228
H694	H	-0.037461	-0.155726	-0.296275
H695	H	-0.008127	-0.141460	-0.281204
C696	C	-0.045073	-0.451241	0.434845
C697	C	-0.007796	-0.414150	0.422189
H698	H	-0.058146	-0.463929	0.460611
H699	H	-0.065829	-0.449928	0.433359
H700	H	-0.036521	-0.465021	0.419150
H701	H	-0.016348	-0.400368	0.437882
H702	H	0.012964	-0.415460	0.423678
H703	H	0.267897	-0.186572	-0.184305
C704	C	-0.135280	0.264662	0.510967
C705	C	-0.112089	0.262778	0.474461
H706	H	-0.123114	0.263671	0.524094
H707	H	-0.132945	0.287937	0.508645
H708	H	-0.165507	0.243650	0.524923
H709	H	-0.081863	0.283792	0.460504
H710	H	-0.114419	0.239500	0.476781
C711	C	0.393361	0.299755	-0.511070
C712	C	0.381923	0.301640	-0.474563
H713	H	0.419644	0.300744	-0.524194
H714	H	0.370097	0.276481	-0.508749
H715	H	0.398106	0.320768	-0.525028
H716	H	0.377175	0.280625	-0.460604
H717	H	0.405192	0.324917	-0.476883
H718	H	-0.182293	-0.218837	0.013775
H719	H	-0.182052	0.268464	0.501484
C720	C	-0.604090	-0.490210	0.343971
C721	C	-0.618603	-0.528229	0.355630
H722	H	-0.577809	-0.477138	0.318675
H723	H	-0.626307	-0.489719	0.344522
H724	H	-0.598304	-0.477987	0.360806
H725	H	-0.624392	-0.540453	0.338797
H726	H	-0.596380	-0.528722	0.355076
H727	H	0.333308	0.295959	-0.501595
H728	H	-0.002500	-0.026531	-0.308780
H729	H	-0.117201	-0.533500	0.468702
H730	H	0.064821	0.263164	0.184001
H731	H	0.064526	-0.351765	0.468991
C732	C	0.123986	0.271671	0.070365
C733	C	0.097524	0.268828	0.108357
H734	H	0.111846	0.272654	0.057210
H735	H	0.153033	0.294285	0.058190
H736	H	0.125020	0.249997	0.069930
H737	H	0.096493	0.290503	0.108791
H738	H	0.068469	0.246211	0.120535
H739	H	0.204850	0.168253	-0.501099
C740	C	0.224417	-0.228589	-0.341879
C741	C	0.262803	-0.192082	-0.355196
H742	H	0.212282	-0.241714	-0.316586
H743	H	0.203462	-0.226270	-0.341868
H744	H	0.231477	-0.242544	-0.358151
H745	H	0.255743	-0.178126	-0.338926
H746	H	0.283762	-0.194399	-0.355205
H747	H	0.064802	-0.186523	0.019045
C748	C	0.393347	-0.206772	-0.017643
C749	C	0.381914	-0.243276	-0.019532
H750	H	0.419624	-0.193651	-0.018624
H751	H	0.398096	-0.192813	-0.038655
H752	H	0.370075	-0.209098	0.005634
H753	H	0.405185	-0.240951	-0.042811
H754	H	0.377167	-0.257239	0.001481
C755	C	0.123968	-0.240996	0.010523
C756	C	0.097506	-0.229465	0.013370
H757	H	0.111826	-0.266292	0.009539
H758	H	0.153014	-0.224125	-0.012093
H759	H	0.125003	-0.240397	0.032196
H760	H	0.096473	-0.230062	-0.008305
H761	H	0.068452	-0.246341	0.035988
C762	C	0.311907	0.311337	-0.266347
C763	C	0.324386	0.311158	-0.303442
H764	H	0.286511	0.311701	-0.253653
H765	H	0.305293	0.289017	-0.252577
H766	H	0.335453	0.333418	-0.267656
H767	H	0.300841	0.289076	-0.302133
H768	H	0.330998	0.333480	-0.317215
C769	C	0.570497	-0.206754	-0.017693
C770	C	0.547301	-0.243264	-0.019564
H771	H	0.558339	-0.193623	-0.018697
H772	H	0.568158	-0.209068	0.005585
H773	H	0.600725	-0.192806	-0.038703
H774	H	0.517074	-0.257213	0.001447
H775	H	0.549636	-0.240951	-0.042845
H776	H	-0.182272	0.268459	0.398770
H777	H	-0.769653	-0.318930	0.500992
C778	C	0.204953	0.292752	-0.070466
C779	C	0.219330	0.295594	-0.108458
H780	H	0.178676	0.291774	-0.057314
H781	H	0.199203	0.270136	-0.058288
H782	H	0.227227	0.314425	-0.070031
H783	H	0.197057	0.273920	-0.108893
H784	H	0.225078	0.318213	-0.120640
C785	C	0.418955	-0.045556	-0.266312
C786	C	0.443407	-0.020944	-0.303411
H787	H	0.432003	-0.032847	-0.253608
H788	H	0.389476	-0.052723	-0.252555
H789	H	0.418812	-0.067788	-0.267613
H790	H	0.443547	0.001287	-0.302110
H791	H	0.472894	-0.013772	-0.317171
C792	C	0.215231	0.110666	-0.483801
C793	C	0.172401	0.092638	-0.474321
H794	H	0.227454	0.097590	-0.497000
H795	H	0.233107	0.136454	-0.499747
H796	H	0.214175	0.110173	-0.461083
H797	H	0.173457	0.093133	-0.497039
H798	H	0.154520	0.066843	-0.458374
H799	H	0.100165	-0.026535	-0.411435
H800	H	0.064825	-0.186540	-0.366338
H801	H	0.617258	-0.216240	-0.013873
C802	C	0.210997	0.264625	0.341812
C803	C	0.172613	0.262751	0.355126
H804	H	0.223130	0.263629	0.316520
H805	H	0.231954	0.287900	0.341797
H806	H	0.203935	0.243612	0.358087
H807	H	0.179675	0.283765	0.338853
H808	H	0.151651	0.239473	0.355139
C809	C	-0.163852	-0.073888	-0.133904
C810	C	-0.187141	-0.110364	-0.108722
H811	H	-0.175947	-0.060684	-0.120833
H812	H	-0.133634	-0.059981	-0.143109
H813	H	-0.166187	-0.076264	-0.154845
H814	H	-0.184803	-0.107989	-0.087783
H815	H	-0.217366	-0.124275	-0.099511
H816	H	-0.117412	-0.186525	-0.184100
C817	C	0.580211	-0.362930	-0.051479
C818	C	0.547540	-0.362121	-0.019539
H819	H	0.568120	-0.388228	-0.052457
H820	H	0.590600	-0.346103	-0.074095
H821	H	0.604068	-0.355014	-0.049541
H822	H	0.523684	-0.370034	-0.021478
H823	H	0.537145	-0.378953	0.003084
C824	C	0.123274	0.015903	0.029133
C825	C	0.110794	-0.021193	0.028961
H826	H	0.148670	0.028599	0.029497
H827	H	0.129889	0.029670	0.006811
H828	H	0.099728	0.014598	0.051212
H829	H	0.134339	-0.019888	0.006881
H830	H	0.104181	-0.034963	0.051286
C831	C	-0.780038	-0.386901	0.483702
C832	C	-0.737208	-0.362100	0.474221
H833	H	-0.792263	-0.412198	0.496905
H834	H	-0.797913	-0.378985	0.499645
H835	H	-0.778983	-0.386343	0.460984
H836	H	-0.738263	-0.362656	0.496939
H837	H	-0.719329	-0.370018	0.458277
C838	C	0.418973	-0.045565	-0.434875
C839	C	0.443419	-0.020950	-0.422224
H840	H	0.432029	-0.032861	-0.460631
H841	H	0.418820	-0.067799	-0.433420
H842	H	0.389492	-0.052725	-0.419158
H843	H	0.472899	-0.013793	-0.437940
H844	H	0.443577	0.001290	-0.423683
C845	C	-0.231938	-0.253437	-0.094880
C846	C	-0.187384	-0.229464	-0.108457
H847	H	-0.244105	-0.278732	-0.081728
H848	H	-0.247665	-0.244400	-0.077876
H849	H	-0.234259	-0.253443	-0.115832
H850	H	-0.185064	-0.229456	-0.087505
H851	H	-0.171653	-0.238503	-0.125463
C852	C	-0.519543	-0.389766	0.266261
C853	C	-0.556815	-0.414382	0.303355
H854	H	-0.506479	-0.402464	0.253568
H855	H	-0.528093	-0.382615	0.252489
H856	H	-0.498774	-0.367525	0.267570
H857	H	-0.577585	-0.436621	0.302046
H858	H	-0.548265	-0.421538	0.317131
