data_functionalizedCrystal
_audit_creation_method	'MofGen! by Chris Wilmer'
_symmetry_space_group_name_H-M	'P1'
_symmetry_Int_Tables_number	1
_symmetry_cell_setting	triclinic
loop_
_symmetry_equiv_pos_as_xyz
  x,y,z
_cell_length_a	10.489741
_cell_length_b	10.723024
_cell_length_c	9.198806
_cell_angle_alpha	89.997735
_cell_angle_beta	89.998993
_cell_angle_gamma	84.503522
loop_
_atom_site_label
_atom_site_type_symbol
_atom_site_fract_x
_atom_site_fract_y
_atom_site_fract_z
O1	O	-1.693940	-0.176061	0.120798
O2	O	-1.193940	0.323939	0.620798
O3	O	-1.322734	-0.192587	0.120821
O4	O	-0.822734	0.307413	0.620821
O5	O	-1.516899	-0.002753	0.120804
O6	O	-1.016899	0.497247	0.620804
O7	O	-1.499774	-0.365895	0.120816
O8	O	-0.999774	0.134105	0.620816
O9	O	-1.516885	-0.002752	-0.120981
O10	O	-1.016885	0.497248	0.379019
O11	O	-1.322719	-0.192586	-0.120964
O12	O	-0.822719	0.307414	0.379036
O13	O	-1.693925	-0.176059	-0.120987
O14	O	-1.193925	0.323941	0.379013
Cu15	Cu	-1.508321	-0.184322	-0.143052
Cu16	Cu	-1.008321	0.315678	0.356948
Cu17	Cu	-1.508338	-0.184324	0.142887
Cu18	Cu	-1.008338	0.315676	0.642887
O19	O	-1.499760	-0.365893	-0.120970
O20	O	-0.999760	0.134107	0.379030
C21	C	-1.515646	0.043748	-0.000087
C22	C	-1.015646	0.543748	0.499913
C23	C	-1.511917	0.182305	-0.000082
C24	C	-1.011917	0.682305	0.499918
C25	C	-1.275196	-0.191338	-0.000069
C26	C	-0.775196	0.308662	0.499931
C27	C	-1.133569	-0.187604	-0.000060
C28	C	-0.633569	0.312396	0.499940
C29	C	-1.741464	-0.177308	-0.000094
C30	C	-1.241464	0.322692	0.499906
C31	C	-1.883091	-0.181043	-0.000093
C32	C	-1.383091	0.318957	0.499907
C33	C	-1.065506	-0.066818	-0.000078
C34	C	-0.565506	0.433182	0.499922
C35	C	-0.973349	-0.123877	0.119133
C36	C	-0.473349	0.376123	0.619133
C37	C	-0.973369	-0.123904	-0.119248
C38	C	-0.473369	0.376096	0.380752
C39	C	-1.043278	-0.244712	0.119250
C40	C	-0.543278	0.255288	0.619250
C41	C	-1.043307	-0.244723	-0.119239
C42	C	-0.543307	0.255277	0.380761
C43	C	-0.951178	-0.301869	0.000002
C44	C	-0.451178	0.198131	0.500002
C45	C	-1.501013	-0.412395	-0.000076
C46	C	-1.001013	0.087605	0.499924
C47	C	-1.504742	-0.550951	-0.000071
C48	C	-1.004742	-0.050951	0.499929
N49	N	-1.508318	-0.184320	-0.344166
N50	N	-1.008318	0.315680	0.155834
C51	C	-1.620562	0.257221	-0.000086
C52	C	-1.120562	0.757221	0.499914
C53	C	-1.616711	0.400426	-0.000081
C54	C	-1.116711	0.900426	0.499919
C55	C	-1.426810	-0.264375	-0.416391
C56	C	-0.926810	0.235625	0.083609
C57	C	-1.426826	-0.264374	-0.583804
C58	C	-0.926826	0.235626	-0.083804
N59	N	-1.508351	-0.184316	0.344000
N60	N	-1.008351	0.315684	0.844000
H61	H	-0.942374	-0.072770	0.219917
H62	H	-0.442374	0.427230	0.719917
H63	H	-1.578133	-0.115770	-0.593898
H64	H	-1.078133	0.384230	-0.093898
H65	H	-1.578118	-0.115785	-0.406270
H66	H	-1.078118	0.384215	0.093730
H67	H	-1.115259	0.032476	0.000068
H68	H	-0.615259	0.532476	0.500068
H69	H	-1.357018	-0.332920	-0.354289
H70	H	-0.857018	0.167080	0.145711
H71	H	-1.716428	0.215340	-0.000101
H72	H	-1.216428	0.715340	0.499899
H73	H	-1.709719	0.464802	-0.000091
H74	H	-1.209719	0.964802	0.499909
H75	H	-1.357039	-0.332908	-0.645914
H76	H	-0.857039	0.167092	-0.145914
H77	H	-0.901691	-0.401268	0.000070
H78	H	-0.401691	0.098732	0.500070
H79	H	-1.411728	0.384681	-0.000077
H80	H	-0.911728	0.884681	0.499923
H81	H	-1.074079	-0.295780	0.220147
H82	H	-0.574079	0.204220	0.720147
N83	N	-1.384926	0.237768	-0.000091
N84	N	-0.884926	0.737768	0.499909
H85	H	-1.312951	0.168098	-0.000093
H86	H	-0.812951	0.668098	0.499907
H87	H	-1.378486	0.291192	0.089541
H88	H	-0.878486	0.791192	0.589541
N89	N	-1.084343	-0.312368	-0.252758
N90	N	-0.584343	0.187632	0.247242
H91	H	-1.145971	-0.254301	-0.311463
H92	H	-0.645971	0.245699	0.188537
H93	H	-1.127784	-0.388291	-0.222296
H94	H	-0.627784	0.111709	0.277704
N95	N	-0.932362	-0.056188	-0.252749
N96	N	-0.432362	0.443812	0.247251
H97	H	-0.974361	0.032595	-0.252638
H98	H	-0.474361	0.532595	0.247362
H99	H	-0.959042	-0.101012	-0.342714
H100	H	-0.459042	0.398988	0.157286
