data_functionalizedCrystal
_audit_creation_method	'MofGen! by Chris Wilmer'
_symmetry_space_group_name_H-M	'P1'
_symmetry_Int_Tables_number	1
_symmetry_cell_setting	triclinic
loop_
_symmetry_equiv_pos_as_xyz
  x,y,z
_cell_length_a	8.597187
_cell_length_b	8.634740
_cell_length_c	7.088929
_cell_angle_alpha	97.191028
_cell_angle_beta	88.663715
_cell_angle_gamma	87.119940
loop_
_atom_site_label
_atom_site_type_symbol
_atom_site_fract_x
_atom_site_fract_y
_atom_site_fract_z
O1	O	2.074081	-0.279964	-0.500631
O2	O	1.626192	-0.290397	-0.426857
O3	O	1.828936	-0.060036	-0.460244
O4	O	1.871337	-0.510325	-0.467244
O5	O	1.856019	-0.029179	-0.146729
O6	O	1.653276	-0.259540	-0.113342
O7	O	2.101165	-0.249107	-0.187116
Cu8	Cu	1.879693	-0.251506	-0.121603
Cu9	Cu	1.847663	-0.287998	-0.492370
O10	O	1.898421	-0.479468	-0.153729
C11	C	1.581799	-0.272129	-0.260557
C12	C	1.409168	-0.263648	-0.232122
C13	C	1.832871	0.013145	-0.301907
C14	C	1.804230	0.185230	-0.297195
C15	C	2.145557	-0.267376	-0.353420
C16	C	2.318187	-0.275858	-0.381868
C17	C	1.894485	0.447351	-0.312067
C18	C	1.923126	0.275265	-0.316781
N19	N	1.902233	-0.225838	0.139174
N20	N	1.825135	-0.313654	-0.753148
H21	H	1.372371	-0.292801	-0.531824
O22	O	1.997684	-0.117240	0.220559
C23	C	2.065679	-0.039714	0.078284
H24	H	2.064883	-0.117028	-0.064326
H25	H	2.190897	-0.014290	0.115616
H26	H	1.996244	0.074865	0.068516
H27	H	1.745230	-0.404655	0.178364
O28	O	1.344728	-0.243234	-0.053136
C29	C	1.390816	-0.101372	0.044766
H30	H	1.503659	-0.067395	-0.022916
H31	H	1.410240	-0.116278	0.200145
H32	H	1.295819	-0.005731	0.036236
O33	O	2.070619	0.209934	-0.340991
C34	C	2.067340	0.046895	-0.340500
H35	H	1.957022	0.018759	-0.262129
H36	H	2.173855	0.003234	-0.265729
H37	H	2.068494	-0.013145	-0.493240
H38	H	1.680517	0.239804	-0.276829
