data_functionalizedCrystal
_audit_creation_method	'MofGen! by Chris Wilmer'
_symmetry_space_group_name_H-M	'P1'
_symmetry_Int_Tables_number	1
_symmetry_cell_setting	triclinic
loop_
_symmetry_equiv_pos_as_xyz
  x,y,z
_cell_length_a	10.540539
_cell_length_b	14.853567
_cell_length_c	9.016244
_cell_angle_alpha	90.001561
_cell_angle_beta	89.994699
_cell_angle_gamma	84.080211
loop_
_atom_site_label
_atom_site_type_symbol
_atom_site_fract_x
_atom_site_fract_y
_atom_site_fract_z
O1	O	-1.684495	-0.127048	0.123257
O2	O	-1.314951	-0.139019	0.123274
O3	O	-1.509594	-0.001858	0.123269
O4	O	-1.489852	-0.264208	0.123261
O5	O	-1.509566	-0.001861	-0.123412
O6	O	-1.314922	-0.139022	-0.123407
O7	O	-1.684467	-0.127051	-0.123424
Cu8	Cu	-1.499692	-0.133037	-0.145940
Cu9	Cu	-1.499726	-0.133033	0.145789
O10	O	-1.489823	-0.264211	-0.123420
C11	C	-1.267643	-0.138122	-0.000064
C12	C	-1.126725	-0.135437	-0.000057
C13	C	-1.731774	-0.127947	-0.000083
C14	C	-1.872693	-0.130633	-0.000080
C15	C	-1.508685	0.031734	-0.000067
C16	C	-1.506005	0.131832	-0.000054
C17	C	-0.944430	-0.032519	-0.000630
C18	C	-1.091018	-0.035242	-0.000059
C19	C	-1.064538	-0.183653	0.140802
C20	C	-0.918031	-0.180233	0.140905
C21	C	-0.917488	-0.182275	-0.139617
C22	C	-1.064459	-0.183198	-0.141463
C23	C	-1.490732	-0.297803	-0.000080
C24	C	-1.493413	-0.397902	-0.000084
N25	N	-1.499677	-0.133039	-0.351126
C26	C	-1.379051	0.545071	-0.000076
C27	C	-1.610292	0.565068	-0.000087
C28	C	-1.612812	0.471021	-0.000078
C29	C	-1.498450	0.413994	-0.000071
C30	C	-1.381568	0.451014	-0.000072
C31	C	-1.729693	0.433993	-0.000092
C32	C	-1.732218	0.339940	-0.000085
C33	C	-1.617854	0.282911	-0.000067
C34	C	-1.500967	0.319937	-0.000067
C35	C	-1.386605	0.262910	-0.000059
C36	C	-1.269717	0.299934	-0.000048
C37	C	-1.267204	0.393985	-0.000054
C38	C	-1.620367	0.188860	-0.000061
C39	C	-1.389122	0.168853	-0.000055
C40	C	-1.395242	-0.206164	-0.586156
C41	C	-1.395468	-0.206438	-0.414265
C42	C	-1.632165	-0.154439	-0.413471
C43	C	-1.631594	-0.154957	-0.585416
C44	C	-1.472946	-0.038273	-0.585665
C45	C	-1.469894	-0.038887	-0.413710
N46	N	-1.499750	-0.133024	0.350975
H47	H	-1.134038	0.002697	-0.101033
H48	H	-1.283883	0.575220	-0.000061
C49	C	-1.143927	0.237198	-0.000038
H50	H	-1.162175	0.175884	-0.000032
H51	H	-1.095989	0.248497	-0.086053
H52	H	-1.096023	0.248499	0.086004
C53	C	-1.566024	0.038174	-0.355678
H54	H	-1.625853	0.013827	-0.292245
H55	H	-1.521903	0.080312	-0.301996
H56	H	-1.609653	0.067914	-0.437007
C57	C	-1.748926	0.148136	-0.000077
H58	H	-1.816675	0.195569	-0.000080
H59	H	-1.754699	0.111855	-0.086096
H60	H	-1.754730	0.111869	0.085961
C61	C	-0.880461	-0.132083	0.283140
H62	H	-0.954705	-0.114787	0.340312
H63	H	-0.822969	-0.171988	0.339456
H64	H	-0.840554	-0.079749	0.257396
C65	C	-1.093651	-0.283049	0.147910
H66	H	-1.055161	-0.310917	0.233906
H67	H	-1.183310	-0.285340	0.152143
H68	H	-1.060421	-0.314215	0.062068
H69	H	-1.656311	-0.222785	-0.370397
H70	H	-1.172040	0.424139	-0.000047
C71	C	-1.736082	0.627791	-0.000096
H72	H	-1.806052	0.592271	-0.000103
H73	H	-1.739913	0.664903	0.085921
H74	H	-1.739897	0.664888	-0.086136
C75	C	-1.855481	0.496717	-0.000099
H76	H	-1.925453	0.461199	-0.000118
H77	H	-1.859314	0.533823	0.085925
H78	H	-1.859290	0.533821	-0.086132
H79	H	-1.412594	-0.276735	-0.373121
H80	H	-1.827395	0.309804	-0.000092
H81	H	-1.105797	-0.147974	-0.245671
H82	H	-1.711790	-0.102622	-0.372569
C83	C	-1.262434	-0.189061	-0.357316
H84	H	-1.207763	-0.181774	-0.439269
H85	H	-1.269301	-0.135688	-0.298576
H86	H	-1.228150	-0.239019	-0.298993
C87	C	-1.575887	0.035271	-0.640594
H88	H	-1.634920	0.008414	-0.701844
H89	H	-1.619466	0.063456	-0.557904
H90	H	-1.536776	0.079305	-0.695956
H91	H	-1.655187	-0.224084	-0.625508
C92	C	-0.906380	0.020954	-0.137092
H93	H	-0.846396	-0.016071	-0.194952
H94	H	-0.979995	0.038604	-0.195088
H95	H	-0.869245	0.073317	-0.105418
C96	C	-1.261789	-0.189050	-0.642081
H97	H	-1.268606	-0.137151	-0.704282
H98	H	-1.208573	-0.179286	-0.559839
H99	H	-1.225862	-0.240157	-0.696664
H100	H	-1.412140	-0.276063	-0.629352
C101	C	-1.148004	0.016363	0.136595
H102	H	-1.081550	0.039067	0.191984
H103	H	-1.206997	0.065319	0.105193
H104	H	-1.190605	-0.023472	0.196938
H105	H	-1.711798	-0.103831	-0.627000
C106	C	-1.345239	-0.010777	-0.644287
H107	H	-1.307069	-0.056832	-0.707958
H108	H	-1.359976	0.044386	-0.697836
H109	H	-1.289867	-0.002944	-0.563220
C110	C	-1.338241	-0.016963	-0.358668
H111	H	-1.320770	0.040069	-0.396904
H112	H	-1.338091	-0.014941	-0.253364
H113	H	-1.274632	-0.062490	-0.391801
C114	C	-0.904223	0.020736	0.135068
H115	H	-0.843912	-0.016565	0.192060
H116	H	-0.866921	0.072870	0.102673
H117	H	-0.977038	0.038742	0.194209
H118	H	-1.087881	-0.256246	-0.149971
H119	H	-1.107507	-0.150156	0.245636
C120	C	-0.852146	-0.277570	0.149553
H121	H	-0.762245	-0.276142	0.149665
H122	H	-0.877357	-0.305509	0.238060
H123	H	-0.876182	-0.311106	0.066248
H124	H	-1.295993	0.122427	-0.000043
H125	H	-0.886286	-0.149851	-0.246388
H126	H	-0.869465	-0.254645	-0.140571
