data_functionalizedCrystal
_audit_creation_method	'MofGen! by Chris Wilmer'
_symmetry_space_group_name_H-M	'P1'
_symmetry_Int_Tables_number	1
_symmetry_cell_setting	triclinic
loop_
_symmetry_equiv_pos_as_xyz
  x,y,z
_cell_length_a	19.121102
_cell_length_b	19.120786
_cell_length_c	19.121595
_cell_angle_alpha	85.200660
_cell_angle_beta	85.004847
_cell_angle_gamma	89.915559
loop_
_atom_site_label
_atom_site_type_symbol
_atom_site_fract_x
_atom_site_fract_y
_atom_site_fract_z
Zn1	Zn	1.078934	-0.307411	-0.429969
Zn2	Zn	1.068383	-0.429671	-0.306848
Zn3	Zn	0.956255	-0.307420	-0.307304
Zn4	Zn	0.956216	-0.420018	-0.419892
O5	O	1.014947	-0.366130	-0.366003
O6	O	1.175818	-0.327664	-0.417663
O7	O	1.049110	-0.417497	-0.208263
O8	O	0.976961	-0.209130	-0.327984
O9	O	1.168066	-0.417488	-0.327206
O10	O	1.067092	-0.209123	-0.418106
O11	O	0.966730	-0.327681	-0.208598
O12	O	0.857966	-0.318321	-0.318213
O13	O	0.976894	-0.401037	-0.519875
O14	O	0.857937	-0.401046	-0.400931
O15	O	1.067054	-0.318305	-0.527278
O16	O	1.049072	-0.526679	-0.317435
O17	O	0.966663	-0.519587	-0.400489
C18	C	0.832468	-0.358637	-0.358529
C19	C	0.754402	-0.355448	-0.355347
C20	C	0.717724	-0.397091	-0.396845
C21	C	0.644374	-0.394086	-0.393859
C22	C	0.607703	-0.349440	-0.349371
C23	C	0.644386	-0.307792	-0.307871
C24	C	0.717736	-0.310795	-0.310861
C25	C	0.386237	-0.338212	-0.338196
C26	C	0.312882	-0.335214	-0.335207
C27	C	0.312875	-0.421507	-0.421197
C28	C	0.386225	-0.424509	-0.424180
C29	C	0.422903	-0.382858	-0.382683
C30	C	0.532727	-0.346368	-0.346316
C31	C	0.497877	-0.385927	-0.385742
C32	C	1.006738	-0.548619	-0.357835
C33	C	1.003292	-0.626690	-0.354367
C34	C	1.048567	-0.663301	-0.399694
C35	C	1.045326	-0.736657	-0.396436
C36	C	0.996812	-0.773401	-0.347848
C37	C	0.951532	-0.736784	-0.302518
C38	C	0.954770	-0.663429	-0.305780
C39	C	0.984686	-0.994888	-0.335654
C40	C	0.981452	-1.068248	-0.332394
C41	C	1.075246	-1.068115	-0.426313
C42	C	1.078483	-0.994759	-0.429568
C43	C	1.033200	-0.958149	-0.384241
C44	C	0.993500	-0.848382	-0.344515
C45	C	1.036510	-0.883169	-0.387578
C46	C	1.198139	-0.373652	-0.373508
C47	C	1.276204	-0.376857	-0.376706
C48	C	1.023147	-0.358593	-0.549869
C49	C	1.026641	-0.355381	-0.628222
C50	C	1.023208	-0.182929	-0.374220
C51	C	1.026728	-0.104859	-0.377721
C52	C	0.981342	-0.396943	-0.661179
C53	C	0.984631	-0.393925	-0.734799
C54	C	1.033216	-0.349342	-0.775462
C55	C	1.078520	-0.307778	-0.742500
C56	C	1.075234	-0.310800	-0.668880
C57	C	1.045490	-0.338066	-0.997938
C58	C	1.048771	-0.335046	-1.071562
C59	C	0.954883	-0.421195	-1.063857
C60	C	0.951598	-0.424209	-0.990236
C61	C	0.996904	-0.382649	-0.957281
C62	C	1.036578	-0.346254	-0.850714
C63	C	0.993546	-0.385740	-0.882029
C64	C	1.006822	-0.373588	-0.182857
C65	C	1.003472	-0.376608	-0.104519
H66	H	0.416078	-0.460866	-0.460405
C67	C	0.927899	-0.445990	-0.616455
C68	C	0.953589	-0.504461	-0.564620
C69	C	0.900147	-0.553512	-0.519899
C70	C	0.821014	-0.544093	-0.527013
C71	C	0.795319	-0.485620	-0.578850
C72	C	0.848762	-0.436568	-0.623571
H73	H	1.012172	-0.511435	-0.559352
H74	H	0.919168	-0.596798	-0.481526
H75	H	0.781453	-0.580404	-0.493908
H76	H	0.736737	-0.478645	-0.584118
H77	H	0.829740	-0.393282	-0.661943
C78	C	1.125048	-1.108388	-0.476176
C79	C	1.176630	-1.162295	-0.445701
C80	C	1.226432	-1.202567	-0.495568
C81	C	1.224652	-1.188932	-0.575912
C82	C	1.173068	-1.135023	-0.606392
C83	C	1.123266	-1.094751	-0.556524
H84	H	1.177950	-1.172390	-0.386222
H85	H	1.264618	-1.242474	-0.473005
H86	H	1.261518	-1.218744	-0.612827
H87	H	1.171748	-1.124927	-0.665870
H88	H	1.085080	-1.054843	-0.579087
C89	C	1.131966	-0.258736	-0.787228
C90	C	1.211099	-0.268165	-0.780120
C91	C	1.264544	-0.219121	-0.824847
C92	C	1.238856	-0.160649	-0.876681
C93	C	1.159719	-0.151218	-0.883791
C94	C	1.106274	-0.200261	-0.839064
H95	H	1.230118	-0.311452	-0.741748
H96	H	1.323126	-0.226103	-0.819584
H97	H	1.278419	-0.124343	-0.909791
H98	H	1.140700	-0.107930	-0.922164
H99	H	1.047691	-0.193280	-0.844328
C100	C	0.934888	-0.954619	-0.285787
C101	C	0.883304	-0.900713	-0.316258
C102	C	0.833508	-0.860438	-0.266386
C103	C	0.835298	-0.874070	-0.186043
C104	C	0.886885	-0.927979	-0.155568
C105	C	0.936680	-0.968254	-0.205440
H106	H	0.881977	-0.890619	-0.375736
H107	H	0.795320	-0.820531	-0.288946
H108	H	0.798436	-0.844257	-0.149125
H109	H	0.888211	-0.938073	-0.096090
H110	H	0.974868	-1.008161	-0.182880
H111	H	0.614514	-0.427997	-0.427651
H112	H	1.112121	-0.276955	-0.642048
C113	C	0.934773	-0.439627	-0.771037
C114	C	0.936413	-0.520126	-0.757567
C115	C	0.886541	-0.565823	-0.793797
C116	C	0.835029	-0.531022	-0.843498
C117	C	0.833388	-0.450519	-0.856972
C118	C	0.883260	-0.404822	-0.820741
H119	H	0.974546	-0.545892	-0.720773
H120	H	0.887756	-0.625417	-0.783823
H121	H	0.798111	-0.564850	-0.870318
H122	H	0.795254	-0.424753	-0.893766
H123	H	0.882045	-0.345228	-0.830715
H124	H	0.917901	-0.633621	-0.268871
C125	C	0.905057	-0.466915	-1.100112
C126	C	0.935269	-0.521230	-1.149497
C127	C	0.885443	-0.566956	-1.185753
C128	C	0.805406	-0.558365	-1.172624
C129	C	0.775190	-0.504048	-1.123237
C130	C	0.825015	-0.458322	-1.086981
H131	H	0.994521	-0.527592	-1.159217
H132	H	0.907812	-0.607165	-1.222312
H133	H	0.768522	-0.592214	-1.199463
H134	H	0.715938	-0.497686	-1.113516
H135	H	0.802647	-0.418113	-1.050421
H136	H	0.953990	-0.422042	-0.848919
H137	H	0.283005	-0.455415	-0.454982
C138	C	0.492382	-0.297263	-0.297378
C139	C	0.445803	-0.238853	-0.328433
C140	C	0.405453	-0.189747	-0.279498
C141	C	0.411681	-0.199052	-0.199509
C142	C	0.458262	-0.257465	-0.168450
C143	C	0.498612	-0.306570	-0.217385
H144	H	0.441190	-0.231963	-0.387649
H145	H	0.370970	-0.146506	-0.302490
H146	H	0.381811	-0.162701	-0.163285
H147	H	0.462874	-0.264355	-0.109234
H148	H	0.533094	-0.349811	-0.194393
H149	H	0.283027	-0.298850	-0.298984
H150	H	0.416090	-0.304303	-0.304400
C151	C	1.090017	-0.297210	-0.895447
C152	C	1.169152	-0.306633	-0.888344
C153	C	1.222592	-0.257592	-0.933080
C154	C	1.196898	-0.199128	-0.984921
C155	C	1.117760	-0.189703	-0.992026
C156	C	1.064320	-0.238744	-0.947290
H157	H	1.188175	-0.349913	-0.849966
H158	H	1.281176	-0.264569	-0.927820
H159	H	1.236458	-0.162825	-1.018037
H160	H	1.098736	-0.146422	-1.030404
H161	H	1.005736	-0.231767	-0.952550
H162	H	0.747577	-0.433449	-0.433070
H163	H	0.614523	-0.271438	-0.271651
C164	C	1.101934	-0.622886	-0.453144
C165	C	1.105501	-0.542198	-0.456735
C166	C	1.158868	-0.501786	-0.510188
C167	C	1.208667	-0.542060	-0.560050
C168	C	1.205101	-0.622752	-0.556461
C169	C	1.151735	-0.663165	-0.503008
H170	H	1.068636	-0.512381	-0.419822
H171	H	1.161507	-0.442052	-0.512844
H172	H	1.248172	-0.512145	-0.599619
H173	H	1.241967	-0.652570	-0.593373
H174	H	1.149096	-0.722899	-0.500351
C175	C	0.928080	-1.108664	-0.278943
C176	C	0.872052	-1.155625	-0.304940
C177	C	0.818684	-1.196039	-0.251490
C178	C	0.821345	-1.189493	-0.172043
C179	C	0.877376	-1.142530	-0.146042
C180	C	0.930743	-1.102116	-0.199492
H181	H	0.870080	-1.160473	-0.363755
H182	H	0.777207	-1.230804	-0.270738
H183	H	0.781839	-1.219410	-0.132476
H184	H	0.879348	-1.137683	-0.087227
H185	H	0.972221	-1.067351	-0.180244
C186	C	0.538213	-0.435037	-0.434677
C187	C	0.584791	-0.493447	-0.403622
C188	C	0.625135	-0.542559	-0.452555
C189	C	0.618900	-0.533261	-0.532543
C190	C	0.572320	-0.474849	-0.563602
C191	C	0.531976	-0.425736	-0.514669
H192	H	0.589409	-0.500332	-0.344406
H193	H	0.659617	-0.585800	-0.429562
H194	H	0.648764	-0.569617	-0.568766
H195	H	0.567702	-0.467963	-0.622818
H196	H	0.497494	-0.382495	-0.537662
C197	C	1.089875	-0.842753	-0.441023
C198	C	1.145901	-0.795796	-0.415017
C199	C	1.199269	-0.755373	-0.468460
C200	C	1.196610	-0.761906	-0.547909
C201	C	1.140582	-0.808864	-0.573920
C202	C	1.087214	-0.849288	-0.520477
H203	H	1.147871	-0.790958	-0.356200
H204	H	1.240745	-0.720611	-0.449205
H205	H	1.236116	-0.731982	-0.587471
H206	H	1.138611	-0.813702	-0.632737
H207	H	1.045738	-0.884050	-0.539732
H208	H	1.082382	-0.304225	-0.971115
C209	C	1.102225	-0.286008	-1.116293
C210	C	1.152065	-0.240296	-1.080046
C211	C	1.205515	-0.191262	-1.124777
C212	C	1.209126	-0.187939	-1.205755
C213	C	1.159285	-0.233652	-1.242007
C214	C	1.105834	-0.282686	-1.197276
H215	H	1.149393	-0.242755	-1.020097
H216	H	1.242411	-0.157422	-1.097940
H217	H	1.248693	-0.151640	-1.238868
H218	H	1.161956	-0.231193	-1.301956
H219	H	1.068938	-0.316526	-1.224112
C220	C	1.131848	-0.954348	-0.483023
C221	C	1.187886	-0.907395	-0.457031
C222	C	1.241254	-0.866987	-0.510486
C223	C	1.238583	-0.873531	-0.589932
C224	C	1.182543	-0.920487	-0.615928
C225	C	1.129175	-0.960895	-0.562473
H226	H	1.189865	-0.902549	-0.398217
H227	H	1.282739	-0.832228	-0.491242
H228	H	1.278089	-0.843619	-0.629503
H229	H	1.180564	-0.925333	-0.674742
H230	H	1.087690	-0.995654	-0.581717
H231	H	0.912028	-0.766707	-0.262959
H232	H	0.747598	-0.276881	-0.277073
H233	H	0.954001	-0.878307	-0.304952
H234	H	1.082200	-0.766463	-0.433342
H235	H	0.912046	-0.460526	-0.957133
