data_functionalizedCrystal
_audit_creation_method	'MofGen! by Chris Wilmer'
_symmetry_space_group_name_H-M	'P1'
_symmetry_Int_Tables_number	1
_symmetry_cell_setting	triclinic
loop_
_symmetry_equiv_pos_as_xyz
  x,y,z
_cell_length_a	18.101398
_cell_length_b	12.759399
_cell_length_c	12.759393
_cell_angle_alpha	90.030906
_cell_angle_beta	89.981912
_cell_angle_gamma	89.986732
loop_
_atom_site_label
_atom_site_type_symbol
_atom_site_fract_x
_atom_site_fract_y
_atom_site_fract_z
Zn1	Zn	1.132231	0.418267	-0.593937
Zn2	Zn	1.632231	0.918267	-0.093937
Zn3	Zn	1.132153	0.593983	-0.418256
Zn4	Zn	1.632153	1.093983	0.081744
Zn5	Zn	1.008381	0.418313	-0.418281
Zn6	Zn	1.508381	0.918313	0.081719
Zn7	Zn	1.008375	0.593899	-0.593902
Zn8	Zn	1.508375	1.093899	-0.093902
O9	O	1.070285	0.506116	-0.506094
O10	O	1.570285	1.006116	-0.006094
O11	O	1.235853	0.441592	-0.570637
O12	O	1.735853	0.941592	-0.070637
O13	O	1.115705	0.570734	-0.271238
O14	O	1.615705	1.070734	0.228762
O15	O	1.024846	0.271286	-0.441607
O16	O	1.524846	0.771286	0.058393
O17	O	1.235796	0.570690	-0.441565
O18	O	1.735796	1.070690	0.058435
O19	O	1.115837	0.271252	-0.570661
O20	O	1.615837	0.771252	-0.070661
O21	O	1.024770	0.441670	-0.271257
O22	O	1.524770	0.941670	0.228743
O23	O	0.904748	0.441589	-0.441573
O24	O	1.404748	0.941589	0.058427
O25	O	1.024834	0.570547	-0.740928
O26	O	1.524834	1.070547	-0.240928
O27	O	0.904743	0.570591	-0.570601
O28	O	1.404743	1.070591	-0.070601
O29	O	1.115831	0.441511	-0.740954
O30	O	1.615831	0.941511	-0.240954
O31	O	1.115698	0.740993	-0.441531
O32	O	1.615698	1.240993	0.058469
O33	O	1.024759	0.740931	-0.570577
O34	O	1.524759	1.240931	-0.070577
C35	C	0.877874	0.506087	-0.506087
C36	C	1.377874	1.006087	-0.006087
C37	C	0.795560	0.506100	-0.506109
C38	C	1.295560	1.006100	-0.006109
C39	C	0.644852	0.506119	-0.506107
C40	C	1.144852	1.006119	-0.006107
C41	C	0.613520	0.587409	-0.587162
C42	C	1.113520	1.087409	-0.087162
C43	C	0.527902	0.587738	-0.586922
C44	C	1.027902	1.087738	-0.086922
C45	C	0.496469	0.506138	-0.506107
C46	C	0.996469	1.006138	-0.006107
C47	C	0.527523	0.535696	-0.395251
C48	C	1.027523	1.035696	0.104749
C49	C	0.613168	0.536274	-0.395720
C50	C	1.113168	1.036274	0.104280
C51	C	0.613310	0.395071	-0.534940
C52	C	1.113310	0.895071	-0.034940
C53	C	0.527660	0.395679	-0.537381
C54	C	1.027660	0.895679	-0.037381
C55	C	0.412610	0.506148	-0.506100
C56	C	0.912610	1.006148	-0.006100
C57	C	0.728711	0.506113	-0.506106
C58	C	1.228711	1.006113	-0.006106
C59	C	1.070240	0.779083	-0.506070
C60	C	1.570240	1.279083	-0.006070
C61	C	1.070288	0.895860	-0.506095
C62	C	1.570288	1.395860	-0.006095
C63	C	1.070340	0.506015	-0.780128
C64	C	1.570340	1.006015	-0.280128
C65	C	1.070364	0.505972	-0.896904
C66	C	1.570364	1.005972	-0.396904
C67	C	1.263447	0.506145	-0.506102
C68	C	1.763447	1.006145	-0.006102
C69	C	1.345761	0.506158	-0.506105
C70	C	1.845761	1.006158	-0.006105
C71	C	1.070351	0.232082	-0.506141
C72	C	1.570351	0.732082	-0.006141
C73	C	1.070379	0.115306	-0.506161
C74	C	1.570379	0.615306	-0.006161
C75	C	1.117694	0.950719	-0.438977
C76	C	1.617694	1.450719	0.061023
C77	C	1.117742	1.060443	-0.439012
C78	C	1.617742	1.560443	0.060988
C79	C	1.022971	1.060439	-0.573287
C80	C	1.522971	1.560439	-0.073287
C81	C	1.022927	0.950717	-0.573256
C82	C	1.522927	1.450717	-0.073256
C83	C	1.117749	0.438772	-0.951781
C84	C	1.617749	0.938772	-0.451781
C85	C	1.117762	0.438727	-1.061506
C86	C	1.617762	0.938727	-0.561506
C87	C	1.023002	0.573090	-1.061466
C88	C	1.523002	1.073090	-0.561466
C89	C	1.022986	0.573129	-0.951744
C90	C	1.522986	1.073129	-0.451744
C91	C	1.070272	0.506140	-0.233127
C92	C	1.570272	1.006140	0.266873
C93	C	1.070392	0.505887	-0.116351
C94	C	1.570392	1.005887	0.383649
H95	H	0.506907	0.569299	-0.669107
H96	H	1.006907	1.069299	-0.169107
H97	H	0.984323	0.906048	-0.627916
H98	H	1.484323	1.406048	-0.127916
Br99	Br	0.491743	0.669490	-0.353930
Br100	Br	0.991743	1.169490	0.146070
Br101	Br	0.647716	0.441849	-0.291579
Br102	Br	1.147716	0.941849	0.208421
H103	H	0.984394	0.627850	-0.907061
H104	H	1.484394	1.127850	-0.407061
Br105	Br	1.181969	0.876272	-0.347832
Br106	Br	1.681969	1.376272	0.152168
H107	H	1.156325	0.384085	-0.907134
H108	H	1.656325	0.884085	-0.407134
Br109	Br	0.649351	0.350064	-0.667402
Br110	Br	1.149351	0.850064	-0.167402
Br111	Br	0.647913	0.557065	-0.724568
Br112	Br	1.147913	1.057065	-0.224568
Br113	Br	0.493592	0.440041	-0.291822
Br114	Br	0.993592	0.940041	0.208178
H115	H	1.156345	1.105104	-0.384360
H116	H	1.656345	1.605104	0.115640
Br117	Br	0.958709	0.664231	-1.135897
Br118	Br	1.458709	1.164231	-0.635897
H119	H	0.635023	0.669229	-0.568265
H120	H	1.135023	1.169229	-0.068265
H121	H	0.507395	0.670030	-0.567793
H122	H	1.007395	1.170030	-0.067793
Br123	Br	1.182079	0.347531	-1.135978
Br124	Br	1.682079	0.847531	-0.635978
H125	H	0.507367	0.373382	-0.618966
H126	H	1.007367	0.873382	-0.118966
Br127	Br	0.646435	0.671554	-0.355126
Br128	Br	1.146435	1.171554	0.144874
Br129	Br	0.491991	0.289392	-0.446247
Br130	Br	0.991991	0.789392	0.053753
Br131	Br	0.958698	1.134894	-0.664428
Br132	Br	1.458698	1.634894	-0.164428
H133	H	0.633573	0.334511	-0.475909
H134	H	1.133573	0.834511	0.024091
