data_functionalizedCrystal
_audit_creation_method	'MofGen! by Chris Wilmer'
_symmetry_space_group_name_H-M	'P1'
_symmetry_Int_Tables_number	1
_symmetry_cell_setting	triclinic
loop_
_symmetry_equiv_pos_as_xyz
  x,y,z
_cell_length_a	15.944551
_cell_length_b	17.038272
_cell_length_c	15.021413
_cell_angle_alpha	90.004029
_cell_angle_beta	89.997174
_cell_angle_gamma	87.305147
loop_
_atom_site_label
_atom_site_type_symbol
_atom_site_fract_x
_atom_site_fract_y
_atom_site_fract_z
O1	O	1.121728	0.100827	-0.073940
O2	O	0.878066	0.113259	-0.073962
O3	O	0.998449	-0.006773	-0.073944
O4	O	1.001345	0.220859	-0.073958
O5	O	0.998429	-0.006755	0.074120
O6	O	0.878046	0.113277	0.074102
O7	O	1.121708	0.100844	0.074125
Zn8	Zn	0.999874	0.107063	0.097622
Zn9	Zn	0.999900	0.107041	-0.097459
O10	O	1.001326	0.220876	0.074107
C11	C	0.846725	0.112752	0.000067
C12	C	0.753369	0.111205	0.000059
C13	C	0.532936	0.033105	0.000081
C14	C	0.474515	0.069363	-0.072924
C15	C	0.582443	0.108405	0.000070
C16	C	0.474519	0.069398	0.073055
C17	C	0.417337	0.105696	0.000084
C18	C	0.525252	0.144684	-0.072996
C19	C	0.525262	0.144709	0.073049
C20	C	0.466862	0.181022	0.000026
C21	C	0.677557	0.109964	0.000061
C22	C	0.322225	0.104143	0.000087
C23	C	0.995805	-0.035893	0.000088
C24	C	0.987945	-0.122688	0.000087
C25	C	1.060103	-0.172781	0.000094
C26	C	1.052713	-0.254334	0.000085
C27	C	0.973165	-0.285792	0.000075
C28	C	0.901002	-0.235693	0.000065
C29	C	0.908393	-0.154142	0.000068
C30	C	0.947056	-0.531558	0.000061
C31	C	0.939671	-0.613115	0.000060
C32	C	1.091383	-0.631751	0.000079
C33	C	1.098766	-0.550197	0.000087
C34	C	1.026603	-0.500105	0.000072
C35	C	0.965610	-0.369152	0.000069
C36	C	1.034159	-0.416747	0.000073
C37	C	1.153049	0.101352	0.000093
C38	C	1.246405	0.102899	0.000096
C39	C	1.003969	0.249997	0.000073
C40	C	1.011829	0.336792	0.000068
N41	N	0.999863	0.107078	0.230759
N42	N	0.999917	0.107019	-0.230597
C43	C	0.944187	0.162555	0.470434
C44	C	1.021171	0.177734	0.529775
C45	C	0.999883	0.107059	0.412366
C46	C	0.922921	0.091897	0.529768
C47	C	0.999896	0.107041	0.587790
C48	C	1.076908	0.122273	0.470400
C49	C	0.978606	0.036405	0.470388
C50	C	1.055643	0.051554	0.529702
C51	C	0.999875	0.107070	0.311309
C52	C	0.999913	0.107029	0.688846
H53	H	0.452139	0.037507	-0.134642
N54	N	0.873353	-0.480389	0.000045
N55	N	0.860554	-0.432808	-0.062369
H56	H	0.808497	-0.396666	-0.062379
N57	N	0.446442	0.029451	0.150484
N58	N	0.369693	0.022380	0.163213
H59	H	0.349864	-0.005837	0.217893
N60	N	0.553191	0.184616	-0.150494
N61	N	0.629884	0.192230	-0.163017
H62	H	0.649619	0.220436	-0.217746
H63	H	1.124879	-0.147175	0.000108
N64	N	1.126429	-0.305491	0.000084
N65	N	1.197449	-0.277393	0.000095
H66	H	1.249516	-0.313523	0.000091
H67	H	0.897140	0.209524	0.444412
H68	H	1.039179	0.237476	0.555860
H69	H	0.849634	-0.113356	0.000061
N70	N	0.955983	-0.038508	0.437616
N71	N	0.952973	-0.050644	0.355636
H72	H	0.936987	-0.103552	0.332487
H73	H	0.857830	0.079081	0.555848
H74	H	0.438170	0.243580	-0.000019
H75	H	0.561807	-0.029389	-0.000005
N76	N	0.819737	-0.267808	0.000050
N77	N	0.769779	-0.252461	-0.062365
H78	H	0.712382	-0.275138	-0.062372
N79	N	1.158587	0.138434	0.437817
N80	N	1.171756	0.141074	0.355865
H81	H	1.229440	0.152489	0.332850
H82	H	0.547657	0.176539	0.134769
H83	H	1.163543	-0.524590	0.000096
N84	N	1.114809	-0.007332	0.562136
N85	N	1.190849	-0.004139	0.542918
H86	H	1.232639	-0.045725	0.565825
N87	N	1.115420	-0.384629	0.000096
N88	N	1.179846	-0.429360	0.000113
H89	H	1.237237	-0.406672	0.000134
N90	N	1.165082	-0.682929	0.000096
N91	N	1.158478	-0.755741	0.000095
H92	H	1.210531	-0.791888	0.000105
N93	N	0.858404	-0.645237	0.000067
N94	N	0.793980	-0.600505	0.000064
H95	H	0.736587	-0.623191	0.000075
H96	H	0.900842	-0.394774	0.000062
