data_functionalizedCrystal
_audit_creation_method	'MofGen! by Chris Wilmer'
_symmetry_space_group_name_H-M	'P1'
_symmetry_Int_Tables_number	1
_symmetry_cell_setting	triclinic
loop_
_symmetry_equiv_pos_as_xyz
  x,y,z
_cell_length_a	11.169417
_cell_length_b	18.215405
_cell_length_c	11.169409
_cell_angle_alpha	89.960260
_cell_angle_beta	89.979436
_cell_angle_gamma	90.025764
loop_
_atom_site_label
_atom_site_type_symbol
_atom_site_fract_x
_atom_site_fract_y
_atom_site_fract_z
Zn1	Zn	1.834850	-0.292908	-0.678481
Zn2	Zn	2.334850	0.207092	-0.178481
Zn3	Zn	1.834686	-0.415999	-0.477771
Zn4	Zn	2.334686	0.084001	0.022229
Zn5	Zn	1.634133	-0.292953	-0.477815
Zn6	Zn	2.134133	0.207047	0.022185
Zn7	Zn	1.634092	-0.415939	-0.678416
Zn8	Zn	2.134092	0.084061	-0.178416
O9	O	1.734440	-0.354450	-0.578121
O10	O	2.234440	0.145550	-0.078121
O11	O	2.002778	-0.309242	-0.651865
O12	O	2.502778	0.190758	-0.151865
O13	O	1.808030	-0.399720	-0.309827
O14	O	2.308030	0.100280	0.190173
O15	O	1.660844	-0.189962	-0.504479
O16	O	2.160844	0.310038	-0.004479
O17	O	2.002657	-0.399677	-0.504404
O18	O	2.502657	0.100323	-0.004404
O19	O	1.808310	-0.189930	-0.651907
O20	O	2.308310	0.310070	-0.151907
O21	O	1.660685	-0.309319	-0.309859
O22	O	2.160685	0.190681	0.190141
O23	O	1.466178	-0.309261	-0.504416
O24	O	1.966178	0.190739	-0.004416
O25	O	1.660775	-0.399575	-0.846375
O26	O	2.160775	0.100425	-0.346375
O27	O	1.466148	-0.399618	-0.651797
O28	O	1.966148	0.100382	-0.151797
O29	O	1.808270	-0.309184	-0.846422
O30	O	2.308270	0.190816	-0.346422
O31	O	1.807991	-0.518975	-0.504342
O32	O	2.307991	-0.018975	-0.004342
O33	O	1.660616	-0.518931	-0.651755
O34	O	2.160616	-0.018931	-0.151755
C35	C	1.422615	-0.354438	-0.578105
C36	C	1.922615	0.145562	-0.078105
C37	C	1.289215	-0.354451	-0.578127
C38	C	1.789215	0.145549	-0.078127
C39	C	1.734313	-0.545656	-0.578063
C40	C	2.234313	-0.045656	-0.078063
C41	C	1.734369	-0.627455	-0.578078
C42	C	2.234369	-0.127455	-0.078078
C43	C	1.811287	-0.815647	-0.501462
C44	C	2.311287	-0.315647	-0.001462
C45	C	1.811341	-0.892506	-0.501491
C46	C	2.311341	-0.392506	-0.001491
C47	C	1.657746	-0.892500	-0.654866
C48	C	2.157746	-0.392500	-0.154866
C49	C	1.657700	-0.815643	-0.654842
C50	C	2.157700	-0.315643	-0.154842
C51	C	1.734468	-0.777218	-0.578133
C52	C	2.234468	-0.277218	-0.078133
C53	C	1.734569	-0.930934	-0.578186
C54	C	2.234569	-0.430934	-0.078186
C55	C	1.734626	-1.014268	-0.578218
C56	C	2.234626	-0.514268	-0.078218
C57	C	1.734413	-0.693879	-0.578102
C58	C	2.234413	-0.193879	-0.078102
C59	C	2.047482	-0.354461	-0.578137
C60	C	2.547482	0.145539	-0.078137
C61	C	2.180882	-0.354466	-0.578144
C62	C	2.680882	0.145534	-0.078144
C63	C	1.734536	-0.354368	-0.891163
C64	C	2.234536	0.145632	-0.391163
C65	C	1.734577	-0.354333	-1.024563
C66	C	2.234577	0.145667	-0.524563
C67	C	1.734600	-0.162497	-0.578205
C68	C	2.234600	0.337503	-0.078205
C69	C	1.734668	-0.080698	-0.578241
C70	C	2.234668	0.419302	-0.078241
C71	C	1.734413	-0.354478	-0.266296
C72	C	2.234413	0.145522	0.233704
C73	C	1.734605	-0.354305	-0.132897
C74	C	2.234605	0.145695	0.367103
H75	H	1.873799	-0.784364	-0.439002
H76	H	2.373799	-0.284364	0.060998
H77	H	1.595242	-0.923795	-0.717318
H78	H	2.095242	-0.423795	-0.217318
C79	C	1.573213	-0.773368	-0.739216
C80	C	2.073213	-0.273368	-0.239216
N81	N	1.509591	-0.741527	-0.802774
N82	N	2.009591	-0.241527	-0.302774
H83	H	1.873897	-0.923791	-0.439059
H84	H	2.373897	-0.423791	0.060941
