data_functionalizedCrystal
_audit_creation_method	'MofGen! by Chris Wilmer'
_symmetry_space_group_name_H-M	'P1'
_symmetry_Int_Tables_number	1
_symmetry_cell_setting	triclinic
loop_
_symmetry_equiv_pos_as_xyz
  x,y,z
_cell_length_a	29.839131
_cell_length_b	12.594517
_cell_length_c	12.594509
_cell_angle_alpha	90.027191
_cell_angle_beta	89.965034
_cell_angle_gamma	89.963526
loop_
_atom_site_label
_atom_site_type_symbol
_atom_site_fract_x
_atom_site_fract_y
_atom_site_fract_z
Zn1	Zn	-0.178899	-1.627079	-0.601977
Zn2	Zn	-0.254034	-1.626891	-0.423977
Zn3	Zn	-0.178912	-1.449083	-0.423987
Zn4	Zn	-0.253996	-1.448987	-0.601889
O5	O	-0.216460	-1.538010	-0.512957
O6	O	-0.188876	-1.776000	-0.578397
O7	O	-0.244090	-1.603266	-0.275033
O8	O	-0.116043	-1.472814	-0.447639
O9	O	-0.244077	-1.775862	-0.447622
O10	O	-0.116034	-1.603587	-0.578407
O11	O	-0.188898	-1.472632	-0.275040
O12	O	-0.188862	-1.300125	-0.447554
O13	O	-0.244013	-1.472649	-0.750846
O14	O	-0.244026	-1.300054	-0.578257
O15	O	-0.188840	-1.603493	-0.750911
O16	O	-0.316896	-1.603173	-0.447537
O17	O	-0.316868	-1.472467	-0.578248
C18	C	-0.216442	-1.261469	-0.512898
C19	C	-0.216444	-1.143164	-0.512898
C20	C	-0.333183	-1.537818	-0.512905
C21	C	-0.383117	-1.537833	-0.512918
C22	C	-0.186403	-1.003155	-0.441958
C23	C	-0.175460	-1.074025	-0.539093
C24	C	-0.227368	-1.073865	-0.415773
C25	C	-0.205490	-1.003248	-0.610144
C26	C	-0.257418	-1.003082	-0.486758
C27	C	-0.246490	-1.073921	-0.583960
C28	C	-0.692762	-1.606192	-0.444996
C29	C	-0.880435	-1.606324	-0.445037
O30	O	-0.904702	-1.664293	-0.387247
N31	N	-0.903902	-1.538231	-0.513038
C32	C	-0.880448	-1.470105	-0.581038
O33	O	-0.904714	-1.412199	-0.638885
C34	C	-0.692776	-1.469980	-0.581001
C35	C	-0.669311	-1.538070	-0.512988
C36	C	-0.669298	-1.674278	-0.376989
C37	C	-0.622382	-1.674240	-0.376976
C38	C	-0.598931	-1.606117	-0.444968
C39	C	-0.622396	-1.538032	-0.512975
C40	C	-0.669323	-1.401860	-0.649006
C41	C	-0.622402	-1.401837	-0.648993
C42	C	-0.598937	-1.469927	-0.580980
C43	C	-0.552030	-1.469872	-0.580954
N44	N	-0.528563	-1.537965	-0.512953
C45	C	-0.552014	-1.606087	-0.444960
C46	C	-0.978979	-1.470174	-0.581051
C47	C	-1.025897	-1.470204	-0.581059
C48	C	-1.025881	-1.606424	-0.445059
C49	C	-0.978962	-1.606388	-0.445047
C50	C	-0.955512	-1.538267	-0.513050
C51	C	-0.453488	-1.606003	-0.444936
C52	C	-0.406568	-1.605956	-0.444925
C53	C	-0.406588	-1.469740	-0.580928
C54	C	-0.453504	-1.469782	-0.580936
C55	C	-0.476952	-1.537922	-0.512936
O56	O	-0.527734	-1.411941	-0.638722
O57	O	-0.527739	-1.664002	-0.387138
C58	C	-0.739678	-1.606230	-0.445009
C59	C	-0.763142	-1.538145	-0.513016
C60	C	-0.739691	-1.470022	-0.581009
C61	C	-0.810060	-1.538175	-0.513024
C62	C	-0.833511	-1.606297	-0.445031
C63	C	-0.810044	-1.674390	-0.377031
C64	C	-0.763129	-1.674353	-0.377017
C65	C	-0.763158	-1.401929	-0.649009
C66	C	-0.810074	-1.401972	-0.649017
C67	C	-0.833525	-1.470094	-0.581024
C68	C	-0.099282	-1.538232	-0.513034
C69	C	-0.049347	-1.538327	-0.513066
C70	C	-0.216421	-1.538081	-0.790579
C71	C	-0.216404	-1.538112	-0.908884
C72	C	-0.216471	-0.815631	-0.512996
C73	C	-0.216455	-0.933936	-0.512957
C74	C	-0.246396	-1.466968	-0.978102
C75	C	-0.257376	-1.564077	-1.048900
C76	C	-0.205397	-1.441079	-1.048886
C77	C	-0.227406	-1.635272	-0.978123
C78	C	-0.175407	-1.512208	-0.978103
C79	C	-0.186372	-1.609384	-1.048869
C80	C	-0.216467	-1.538000	-0.236417
C81	C	-0.216357	-1.538176	-0.118112
H82	H	-0.160975	-0.972085	-0.382016
Br83	Br	-0.242760	-1.125577	-0.278833
H84	H	-0.387465	-1.661403	-0.389537
H85	H	-0.140812	-1.105166	-0.561247
H86	H	-0.196215	-0.972357	-0.692330
H87	H	-1.044997	-1.414748	-0.636432
Br88	Br	-0.288843	-1.125383	-0.684099
Br89	Br	-0.315147	-0.951101	-0.449807
Br90	Br	-0.485304	-1.698479	-0.352650
H91	H	-0.603280	-1.729687	-0.321597
H92	H	-0.688386	-1.729757	-0.321621
H93	H	-0.603311	-1.346366	-0.704373
Br94	Br	-0.144065	-1.709816	-1.100338
H95	H	-0.744068	-1.346457	-0.704379
Br96	Br	-0.947160	-1.377714	-0.673351
Br97	Br	-0.701155	-1.309458	-0.741327
Br98	Br	-0.242961	-1.772128	-0.926541
Br99	Br	-0.117670	-1.475585	-0.926229
H100	H	-0.472610	-1.414341	-0.636320
H101	H	-0.196106	-1.358992	-1.079970
Br102	Br	-0.947122	-1.698798	-0.352740
H103	H	-0.387487	-1.414272	-0.636284
Br104	Br	-1.057716	-1.698873	-0.352780
Br105	Br	-0.841880	-1.766837	-0.284751
Br106	Br	-0.731291	-1.766768	-0.284711
Br107	Br	-0.288732	-1.366767	-0.926310
Br108	Br	-0.841913	-1.309552	-0.741326
H109	H	-0.292026	-1.586022	-1.079997
