data_functionalizedCrystal
_audit_creation_method	'MofGen! by Chris Wilmer'
_symmetry_space_group_name_H-M	'P1'
_symmetry_Int_Tables_number	1
_symmetry_cell_setting	triclinic
loop_
_symmetry_equiv_pos_as_xyz
  x,y,z
_cell_length_a	19.805404
_cell_length_b	25.639243
_cell_length_c	19.805399
_cell_angle_alpha	89.978810
_cell_angle_beta	89.972890
_cell_angle_gamma	90.032317
loop_
_atom_site_label
_atom_site_type_symbol
_atom_site_fract_x
_atom_site_fract_y
_atom_site_fract_z
Zn1	Zn	-0.269430	0.799285	-0.382751
Zn2	Zn	-0.382618	0.799214	-0.269564
Zn3	Zn	-0.269454	0.711853	-0.269572
Zn4	Zn	-0.382587	0.711820	-0.382707
O5	O	-0.326022	0.755543	-0.326149
O6	O	-0.284447	0.872441	-0.367751
O7	O	-0.367629	0.787610	-0.174848
O8	O	-0.174734	0.723495	-0.284608
O9	O	-0.367606	0.872389	-0.284593
O10	O	-0.174716	0.787731	-0.367760
O11	O	-0.284488	0.723426	-0.174855
O12	O	-0.284458	0.638684	-0.284565
O13	O	-0.367554	0.723439	-0.477430
O14	O	-0.367577	0.638660	-0.367685
O15	O	-0.284417	0.787698	-0.477462
O16	O	-0.477331	0.787578	-0.284551
O17	O	-0.477308	0.723370	-0.367677
C18	C	-0.326018	0.619701	-0.326122
C19	C	-0.326032	0.561587	-0.326126
C20	C	-0.282789	0.201245	-0.369521
C21	C	-0.282789	0.146641	-0.369526
O22	O	-0.246010	0.118422	-0.406388
N23	N	-0.326020	0.119304	-0.326167
C24	C	-0.369250	0.146575	-0.282797
O25	O	-0.406022	0.118309	-0.245917
C26	C	-0.369247	0.201178	-0.282790
C27	C	-0.326017	0.228512	-0.326156
C28	C	-0.239563	0.228579	-0.412883
C29	C	-0.239565	0.283179	-0.412880
C30	C	-0.282793	0.310446	-0.369514
C31	C	-0.326019	0.283112	-0.326152
C32	C	-0.412473	0.228448	-0.239417
C33	C	-0.412466	0.283055	-0.239413
C34	C	-0.369236	0.310389	-0.282779
C35	C	-0.369249	0.364980	-0.282784
N36	N	-0.326017	0.392316	-0.326142
C37	C	-0.282789	0.365050	-0.369507
C38	C	-0.369253	0.031904	-0.282814
C39	C	-0.369260	-0.022698	-0.282824
C40	C	-0.282798	-0.022628	-0.369552
C41	C	-0.282795	0.031975	-0.369545
C42	C	-0.326022	0.059241	-0.326173
C43	C	-0.282796	0.479715	-0.369497
C44	C	-0.282804	0.534320	-0.369492
C45	C	-0.369264	0.534246	-0.282762
C46	C	-0.369259	0.479645	-0.282769
C47	C	-0.326020	0.452381	-0.326139
O48	O	-0.406007	0.393233	-0.245938
O49	O	-0.246018	0.393322	-0.406374
C50	C	-0.501878	0.755477	-0.326123
C51	C	-0.577110	0.755496	-0.326134
C52	C	-1.038890	0.789105	-0.282960
C53	C	-0.968202	0.789080	-0.282946
C54	C	-0.932872	0.755612	-0.326185
C55	C	-0.968234	0.722162	-0.369434
C56	C	-1.038921	0.722184	-0.369443
C57	C	-0.683161	0.722071	-0.369397
C58	C	-0.612469	0.722052	-0.369385
C59	C	-0.612442	0.788967	-0.282900
C60	C	-0.683129	0.788989	-0.282909
C61	C	-0.718485	0.755538	-0.326156
C62	C	-0.795133	0.755564	-0.326169
C63	C	-0.856225	0.755588	-0.326176
C64	C	-0.149479	0.755624	-0.326190
C65	C	-0.074247	0.755659	-0.326207
C66	C	-0.325980	0.755573	-0.502691
C67	C	-0.325961	0.755585	-0.577923
C68	C	-0.326027	0.891916	-0.326176
C69	C	-0.326029	0.950030	-0.326188
C70	C	-0.282670	0.789046	-0.613285
C71	C	-0.282650	0.789051	-0.683974
C72	C	-0.325926	0.755598	-0.719299
C73	C	-0.369219	0.722134	-0.683932
C74	C	-0.369235	0.722126	-0.613245
C75	C	-0.369156	0.722163	-0.969006
C76	C	-0.369139	0.722174	-1.039698
C77	C	-0.282572	0.789089	-1.039735
C78	C	-0.282587	0.789081	-0.969047
C79	C	-0.325878	0.755615	-0.933687
C80	C	-0.325898	0.755609	-0.857038
C81	C	-0.325910	0.755607	-0.795946
C82	C	-0.326016	0.755544	-0.150293
C83	C	-0.325843	0.755633	-0.075061
H84	H	-0.247585	0.457523	-0.404811
H85	H	-0.247601	0.556573	-0.404808
H86	H	-0.939464	0.694909	-0.404637
C87	C	-0.460020	0.198393	-0.191707
H88	H	-0.485753	0.222459	-0.165877
H89	H	-0.489553	0.177085	-0.217535
H90	H	-0.434082	0.177097	-0.162261
C91	C	-0.573552	0.825761	-0.235323
H92	H	-0.604718	0.845700	-0.209580
H93	H	-0.546020	0.805769	-0.205800
H94	H	-0.545933	0.848523	-0.261244
H95	H	-0.583704	0.694796	-0.404596
H96	H	-0.939415	0.816314	-0.247731
C97	C	-0.721988	0.825803	-0.235346
H98	H	-0.690806	0.845716	-0.209581
H99	H	-0.749521	0.848580	-0.261266
H100	H	-0.749604	0.805819	-0.205832
H101	H	-0.204358	0.206384	-0.448197
H102	H	-0.711939	0.694829	-0.404605
C103	C	-0.235242	-0.052626	-0.417252
H104	H	-0.209496	-0.028530	-0.443081
H105	H	-0.205722	-0.073924	-0.391411
H106	H	-0.261179	-0.073928	-0.446700
C107	C	-1.077814	0.685396	-0.417018
H108	H	-1.046650	0.665464	-0.442773
H109	H	-1.105434	0.662636	-0.391103
H110	H	-1.105345	0.705395	-0.446541
H111	H	-0.404460	0.054101	-0.247497
C112	C	-0.460023	0.313044	-0.191708
H113	H	-0.485770	0.288942	-0.165890
H114	H	-0.434098	0.334349	-0.162261
H115	H	-0.489552	0.334337	-0.217552
H116	H	-0.404470	-0.044949	-0.247519
C117	C	-0.235063	0.825843	-0.574434
H118	H	-0.209272	0.845767	-0.605621
H119	H	-0.260957	0.848610	-0.546857
H120	H	-0.205575	0.805847	-0.546863
C121	C	-0.235033	0.825861	-0.722869
H122	H	-0.209269	0.845788	-0.691707
H123	H	-0.205532	0.805880	-0.750446
H124	H	-0.260926	0.848633	-0.750444
C125	C	-0.234982	0.825878	-0.930193
H126	H	-0.209191	0.845803	-0.961378
H127	H	-0.260878	0.848644	-0.902616
H128	H	-0.205495	0.805882	-0.902622
C129	C	-0.416807	0.564246	-0.235060
H130	H	-0.410607	0.600680	-0.241267
H131	H	-0.462300	0.555286	-0.244876
H132	H	-0.406832	0.555287	-0.189600
C133	C	-0.234948	0.825898	-1.078633
H134	H	-0.241129	0.821109	-1.125791
H135	H	-0.244860	0.861021	-1.067056
H136	H	-0.189470	0.818264	-1.067055
C137	C	-0.416739	0.685370	-1.078555
H138	H	-0.442519	0.665434	-1.047372
H139	H	-0.446227	0.705358	-1.106128
H140	H	-0.390831	0.662606	-1.106129
C141	C	-1.077747	0.825920	-0.235396
H142	H	-1.046563	0.845831	-0.209633
H143	H	-1.105280	0.848698	-0.261316
H144	H	-1.105363	0.805937	-0.205881
C145	C	-0.416760	0.685341	-0.930118
H146	H	-0.442529	0.665420	-0.961282
H147	H	-0.390858	0.662572	-0.902552
H148	H	-0.446268	0.705314	-0.902532
H149	H	-0.204362	0.305430	-0.448192
H150	H	-0.404453	0.694893	-0.712700
C151	C	-0.235238	0.062037	-0.417242
H152	H	-0.209494	0.037973	-0.443066
H153	H	-0.261163	0.083340	-0.446686
H154	H	-0.205706	0.083338	-0.391397
C155	C	-0.416872	0.685332	-0.574347
H156	H	-0.442652	0.665416	-0.605508
H157	H	-0.391000	0.662557	-0.546763
H158	H	-0.446368	0.705330	-0.546779
H159	H	-0.404468	0.457389	-0.247465
