data_functionalizedCrystal
_audit_creation_method	'MofGen! by Chris Wilmer'
_symmetry_space_group_name_H-M	'P1'
_symmetry_Int_Tables_number	1
_symmetry_cell_setting	triclinic
loop_
_symmetry_equiv_pos_as_xyz
  x,y,z
_cell_length_a	19.805407
_cell_length_b	21.295417
_cell_length_c	19.805399
_cell_angle_alpha	90.030843
_cell_angle_beta	90.019573
_cell_angle_gamma	90.030507
loop_
_atom_site_label
_atom_site_type_symbol
_atom_site_fract_x
_atom_site_fract_y
_atom_site_fract_z
Zn1	Zn	1.034716	-0.250624	0.382704
Zn2	Zn	1.534716	0.249376	0.882704
Zn3	Zn	1.034623	-0.355893	0.269510
Zn4	Zn	1.534623	0.144107	0.769510
Zn5	Zn	0.921531	-0.250641	0.269529
Zn6	Zn	1.421531	0.249359	0.769529
Zn7	Zn	0.921486	-0.355859	0.382656
Zn8	Zn	1.421486	0.144141	0.882656
O9	O	0.978089	-0.303254	0.326100
O10	O	1.478089	0.196746	0.826100
O11	O	1.129421	-0.264595	0.367701
O12	O	1.629421	0.235405	0.867701
O13	O	1.019601	-0.341952	0.174796
O14	O	1.519601	0.158048	0.674796
O15	O	0.936603	-0.162549	0.284570
O16	O	1.436603	0.337451	0.784570
O17	O	1.129352	-0.341935	0.284537
O18	O	1.629352	0.158065	0.784537
O19	O	1.019760	-0.162537	0.367719
O20	O	1.519760	0.337463	0.867719
O21	O	0.936513	-0.264624	0.174810
O22	O	1.436513	0.235376	0.674810
O23	O	0.826809	-0.264592	0.284523
O24	O	1.326809	0.235408	0.784523
O25	O	0.936527	-0.341878	0.477379
O26	O	1.436527	0.158122	0.977379
O27	O	0.826776	-0.341895	0.367638
O28	O	1.326776	0.158105	0.867638
O29	O	1.019717	-0.264562	0.477415
O30	O	1.519717	0.235438	0.977415
O31	O	1.019558	-0.443977	0.284491
O32	O	1.519558	0.056023	0.784491
O33	O	0.936437	-0.443953	0.367619
O34	O	1.436437	0.056047	0.867619
C35	C	0.802233	-0.303242	0.326078
C36	C	1.302233	0.196758	0.826078
C37	C	0.727001	-0.303252	0.326085
C38	C	1.227001	0.196748	0.826085
C39	C	0.691658	-0.343564	0.369292
C40	C	1.191658	0.156436	0.869292
C41	C	0.620969	-0.343566	0.369302
C42	C	1.120969	0.156434	0.869302
C43	C	0.585626	-0.303257	0.326100
C44	C	1.085626	0.196743	0.826100
C45	C	0.620974	-0.262940	0.282890
C46	C	1.120974	0.237060	0.782890
C47	C	0.691661	-0.262936	0.282885
C48	C	1.191661	0.237064	0.782885
C49	C	0.335901	-0.262954	0.282913
C50	C	0.835901	0.237046	0.782913
C51	C	0.265209	-0.262962	0.282920
C52	C	0.765209	0.237038	0.782920
C53	C	0.265209	-0.343583	0.369330
C54	C	0.765209	0.156417	0.869330
C55	C	0.335896	-0.343579	0.369324
C56	C	0.835896	0.156421	0.869324
C57	C	0.371238	-0.303261	0.326117
C58	C	0.871238	0.196739	0.826117
C59	C	0.447887	-0.303259	0.326109
C60	C	0.947887	0.196741	0.826109
C61	C	0.508979	-0.303261	0.326105
C62	C	1.008979	0.196739	0.826105
C63	C	0.978001	-0.466806	0.326062
C64	C	1.478001	0.033194	0.826062
C65	C	0.978024	-0.536774	0.326069
C66	C	1.478024	-0.036774	0.826069
C67	C	1.021344	-0.569632	0.282828
C68	C	1.521344	-0.069632	0.782828
C69	C	1.021376	-0.635375	0.282844
C70	C	1.521376	-0.135375	0.782844
C71	C	0.978076	-0.668256	0.326092
C72	C	1.478076	-0.168256	0.826092
C73	C	0.934753	-0.635390	0.369341
C74	C	1.434753	-0.135390	0.869341
C75	C	0.934728	-0.569649	0.369330
C76	C	1.434728	-0.069649	0.869330
N77	N	0.918865	-0.771522	0.331245
N78	N	1.418865	-0.271522	0.831245
N79	N	0.918892	-0.833974	0.331252
N80	N	1.418892	-0.333974	0.831252
C81	C	0.978152	-0.866331	0.326131
C82	C	1.478152	-0.366331	0.826131
N83	N	1.037386	-0.833878	0.320989
N84	N	1.537386	-0.333878	0.820989
N85	N	1.037358	-0.771421	0.320979
N86	N	1.537358	-0.271421	0.820979
C87	C	0.978099	-0.739542	0.326110
C88	C	1.478099	-0.239542	0.826110
C89	C	1.021509	-0.970475	0.282905
C90	C	1.521509	-0.470475	0.782905
C91	C	1.021542	-1.036219	0.282925
C92	C	1.521542	-0.536219	0.782925
C93	C	0.934914	-1.036233	0.369419
C94	C	1.434914	-0.536233	0.869419
C95	C	0.934887	-0.970490	0.369402
C96	C	1.434887	-0.470490	0.869402
C97	C	0.978184	-0.937615	0.326142
C98	C	1.478184	-0.437615	0.826142
C99	C	1.154632	-0.303267	0.326122
C100	C	1.654632	0.196733	0.826122
C101	C	1.229864	-0.303272	0.326132
C102	C	1.729864	0.196728	0.826132
C103	C	0.978127	-0.303214	0.502643
C104	C	1.478127	0.196786	1.002643
C105	C	0.978143	-0.303198	0.577875
C106	C	1.478143	0.196802	1.077875
C107	C	0.978197	-0.139064	0.326152
C108	C	1.478197	0.360936	0.826152
C109	C	0.978243	-0.069096	0.326175
C110	C	1.478243	0.430904	0.826175
C111	C	0.978090	-0.303248	0.150244
C112	C	1.478090	0.196752	0.650244
C113	C	0.978205	-0.303088	0.075012
C114	C	1.478205	0.196912	0.575012
C115	C	1.021461	-0.262937	0.613238
C116	C	1.521461	0.237063	1.113238
C117	C	1.021468	-0.262919	0.683927
C118	C	1.521468	0.237081	1.183927
C119	C	0.978160	-0.303165	0.719250
C120	C	1.478160	0.196835	1.219250
C121	C	0.934838	-0.343427	0.683882
C122	C	1.434838	0.156573	1.183882
C123	C	0.934828	-0.343442	0.613195
C124	C	1.434828	0.156558	1.113195
C125	C	0.934876	-0.343368	0.968955
C126	C	1.434876	0.156632	1.468955
C127	C	0.934891	-0.343352	1.039647
C128	C	1.434891	0.156648	1.539647
C129	C	1.021516	-0.262846	1.039687
C130	C	1.521516	0.237154	1.539687
C131	C	1.021506	-0.262860	0.969000
C132	C	1.521506	0.237140	1.469000
C133	C	0.978182	-0.303120	0.933638
C134	C	1.478182	0.196880	1.433638
C135	C	0.978174	-0.303138	0.856989
C136	C	1.478174	0.196862	1.356989
C137	C	0.978171	-0.303150	0.795897
C138	C	1.478171	0.196850	1.295897
H139	H	0.592196	-0.376393	0.404485
H140	H	1.092196	0.123607	0.904485
H141	H	0.899451	-0.542895	0.404542
H142	H	1.399451	-0.042895	0.904542
H143	H	1.056791	-0.230062	1.068488
H144	H	1.556791	0.269938	1.568488
C145	C	1.069120	-0.218636	0.722830
C146	C	1.569120	0.281364	1.222830
C147	C	1.039833	-0.169199	0.771434
C148	C	1.539833	0.330801	1.271434
C149	C	1.087486	-0.124914	0.810339
C150	C	1.587486	0.375086	1.310339
C151	C	1.164427	-0.130065	0.800639
C152	C	1.664427	0.369935	1.300639
C153	C	1.193718	-0.179504	0.752032
C154	C	1.693718	0.320496	1.252032
C155	C	1.146065	-0.223789	0.713128
C156	C	1.646065	0.276211	1.213128
H157	H	0.982873	-0.165384	0.778617
H158	H	1.482873	0.334616	1.278617
H159	H	1.065802	-0.088316	0.846321
H160	H	1.565802	0.411684	1.346321
H161	H	1.199703	-0.097283	0.829439
H162	H	1.699703	0.402717	1.329439
H163	H	1.250678	-0.183320	0.744850
H164	H	1.750678	0.316680	1.244850
H165	H	1.167749	-0.260387	0.677146
H166	H	1.667749	0.239613	1.177146
H167	H	1.056774	-0.230090	0.940243
H168	H	1.556774	0.269910	1.440243
H169	H	0.364669	-0.376405	0.404501
H170	H	0.864669	0.123595	0.904501
H171	H	0.899547	-0.376219	0.584402
H172	H	1.399547	0.123781	1.084402
C173	C	1.068971	-0.533468	0.235247
C174	C	1.568971	-0.033468	0.735247
C175	C	1.122075	-0.488207	0.264614
C176	C	1.622075	0.011793	0.764614
C177	C	1.169701	-0.452039	0.217033
C178	C	1.669701	0.047961	0.717033
C179	C	1.164222	-0.461133	0.140084
C180	C	1.664222	0.038867	0.640084
C181	C	1.111116	-0.506396	0.110713
C182	C	1.611116	-0.006396	0.610713
C183	C	1.063490	-0.542564	0.158294
C184	C	1.563490	-0.042564	0.658294
H185	H	1.126133	-0.481474	0.321579
H186	H	1.626133	0.018526	0.821579
H187	H	1.209014	-0.418533	0.238776
H188	H	1.709014	0.081467	0.738776
H189	H	1.199478	-0.434359	0.104862
H190	H	1.699478	0.065641	0.604862
H191	H	1.107059	-0.513129	0.053747
H192	H	1.607059	-0.013129	0.553747
H193	H	1.024177	-0.576070	0.136551
H194	H	1.524177	-0.076070	0.636551
H195	H	0.899621	-0.376126	1.068406
H196	H	1.399621	0.123874	1.568406
H197	H	0.899608	-0.376159	0.940172
H198	H	1.399608	0.123841	1.440172
H199	H	0.899573	-0.376193	0.712648
H200	H	1.399573	0.123807	1.212648
H201	H	0.236425	-0.376411	0.404513
H202	H	0.736425	0.123589	0.904513
C203	C	0.730533	-0.387905	0.416816
C204	C	1.230533	0.112095	0.916816
C205	C	0.720773	-0.459460	0.411154
C206	C	1.220773	0.040540	0.911154
C207	C	0.759646	-0.503801	0.458680
C208	C	1.259646	-0.003801	0.958680
C209	C	0.808279	-0.476586	0.511869
C210	C	1.308279	0.023414	1.011869
C211	C	0.818041	-0.405027	0.517533
C212	C	1.318041	0.094973	1.017533
C213	C	0.779168	-0.360687	0.470007
C214	C	1.279168	0.139313	0.970007
H215	H	0.684770	-0.479610	0.371778
H216	H	1.184770	0.020390	0.871778
H217	H	0.752419	-0.556774	0.454487
H218	H	1.252419	-0.056774	0.954487
H219	H	0.837055	-0.509410	0.547051
H220	H	1.337055	-0.009410	1.047051
H221	H	0.854044	-0.384878	0.556909
H222	H	1.354044	0.115122	1.056909
H223	H	0.786395	-0.307714	0.474200
H224	H	1.286395	0.192286	0.974200
H225	H	0.720437	-0.230107	0.247704
H226	H	1.220437	0.269893	0.747704
H227	H	0.236434	-0.230134	0.247740
H228	H	0.736434	0.269866	0.747740
H229	H	0.364668	-0.230129	0.247726
H230	H	0.864668	0.269871	0.747726
H231	H	1.056654	-0.662134	0.247632
H232	H	1.556654	-0.162134	0.747632
C233	C	0.582098	-0.218600	0.235367
C234	C	1.082098	0.281400	0.735367
C235	C	0.504345	-0.218605	0.235367
C236	C	1.004345	0.281395	0.735367
C237	C	0.465471	-0.174265	0.187840
C238	C	0.965471	0.325735	0.687840
C239	C	0.504350	-0.129921	0.140313
C240	C	1.004350	0.370079	0.640313
C241	C	0.582108	-0.129914	0.140311
C242	C	1.082108	0.370086	0.640311
C243	C	0.620982	-0.174254	0.187838
C244	C	1.120982	0.325746	0.687838
H245	H	0.475561	-0.251432	0.270551
H246	H	0.975561	0.248568	0.770551
H247	H	0.407910	-0.174270	0.187842
H248	H	0.907910	0.325730	0.687842
H249	H	0.475574	-0.097098	0.105131
H250	H	0.975574	0.402902	0.605131
H251	H	0.610892	-0.097087	0.105127
H252	H	1.110892	0.402913	0.605127
H253	H	0.678543	-0.174249	0.187836
H254	H	1.178543	0.325751	0.687836
H255	H	1.056767	-0.943707	0.247681
H256	H	1.556767	-0.443707	0.747681
C257	C	0.887122	-0.671557	0.416915
C258	C	1.387122	-0.171557	0.916915
C259	C	0.834016	-0.716813	0.387545
C260	C	1.334016	-0.216813	0.887545
C261	C	0.786386	-0.752980	0.435123
C262	C	1.286386	-0.252980	0.935123
C263	C	0.791863	-0.743890	0.512072
C264	C	1.291863	-0.243890	1.012072
C265	C	0.844972	-0.698631	0.541447
C266	C	1.344972	-0.198631	1.041447
C267	C	0.892602	-0.662465	0.493868
C268	C	1.392602	-0.162465	0.993868
H269	H	0.829959	-0.723544	0.330579
H270	H	1.329959	-0.223544	0.830579
H271	H	0.747071	-0.786483	0.413378
H272	H	1.247071	-0.286483	0.913378
H273	H	0.756605	-0.770662	0.547293
H274	H	1.256605	-0.270662	1.047293
H275	H	0.849029	-0.691900	0.598413
H276	H	1.349029	-0.191900	1.098413
H277	H	0.931917	-0.628961	0.515614
H278	H	1.431917	-0.128961	1.015614
C279	C	1.069201	-1.072366	0.235360
C280	C	1.569201	-0.572366	0.735360
C281	C	1.116824	-1.036202	0.187779
C282	C	1.616824	-0.536202	0.687779
C283	C	1.164485	-1.072350	0.140216
C284	C	1.664485	-0.572350	0.640216
C285	C	1.164522	-1.144662	0.140233
C286	C	1.664522	-0.644662	0.640233
C287	C	1.116897	-1.180831	0.187815
C288	C	1.616897	-0.680831	0.687815
C289	C	1.069237	-1.144683	0.235379
C290	C	1.569237	-0.644683	0.735379
H291	H	1.116798	-0.982668	0.187765
H292	H	1.616798	-0.482668	0.687765
H293	H	1.199740	-1.045575	0.104992
H294	H	1.699740	-0.545575	0.604992
H295	H	1.199804	-1.171422	0.105023
H296	H	1.699804	-0.671422	0.605023
H297	H	1.116924	-1.234365	0.187830
H298	H	1.616924	-0.734365	0.687830
H299	H	1.033982	-1.171458	0.270603
H300	H	1.533982	-0.671458	0.770603
C301	C	1.069101	-0.218665	0.574385
C302	C	1.569101	0.281335	1.074385
C303	C	1.063624	-0.147101	0.584127
C304	C	1.563624	0.352899	1.084127
C305	C	1.111263	-0.102827	0.545276
C306	C	1.611263	0.397173	1.045276
C307	C	1.164380	-0.130116	0.496683
C308	C	1.664380	0.369884	0.996683
C309	C	1.169860	-0.201683	0.486939
C310	C	1.669860	0.298317	0.986939
C311	C	1.122221	-0.245958	0.525790
C312	C	1.622221	0.254042	1.025790
H313	H	1.024301	-0.126897	0.620100
H314	H	1.524301	0.373103	1.120100
H315	H	1.107206	-0.049848	0.552489
H316	H	1.607206	0.450152	1.052489
H317	H	1.199646	-0.097341	0.467923
H318	H	1.699646	0.402659	0.967923
H319	H	1.209183	-0.221887	0.450966
H320	H	1.709183	0.278113	0.950966
H321	H	1.126278	-0.298937	0.518577
H322	H	1.626278	0.201063	1.018577
H323	H	0.899661	-1.063004	0.404636
H324	H	1.399661	-0.563004	0.904636
C325	C	0.887230	-0.934341	0.416965
C326	C	1.387230	-0.434341	0.916965
C327	C	0.839602	-0.970505	0.464541
C328	C	1.339602	-0.470505	0.964541
C329	C	0.791945	-0.934357	0.512109
C330	C	1.291945	-0.434357	1.012109
C331	C	0.791917	-0.862044	0.512100
C332	C	1.291917	-0.362044	1.012100
C333	C	0.839547	-0.825876	0.464522
C334	C	1.339547	-0.325876	0.964522
C335	C	0.887204	-0.862024	0.416954
C336	C	1.387204	-0.362024	0.916954
H337	H	0.839621	-1.024039	0.464549
H338	H	1.339621	-0.524039	0.964549
H339	H	0.756686	-0.961131	0.547329
H340	H	1.256686	-0.461131	1.047329
H341	H	0.756639	-0.835284	0.547313
H342	H	1.256639	-0.335284	1.047313
H343	H	0.839528	-0.772342	0.464514
H344	H	1.339528	-0.272342	0.964514
H345	H	0.922462	-0.835250	0.381734
H346	H	1.422462	-0.335250	0.881734
