data_functionalizedCrystal
_audit_creation_method	'MofGen! by Chris Wilmer'
_symmetry_space_group_name_H-M	'P1'
_symmetry_Int_Tables_number	1
_symmetry_cell_setting	triclinic
loop_
_symmetry_equiv_pos_as_xyz
  x,y,z
_cell_length_a	17.639617
_cell_length_b	25.639239
_cell_length_c	17.640968
_cell_angle_alpha	101.231536
_cell_angle_beta	109.666032
_cell_angle_gamma	101.223388
loop_
_atom_site_label
_atom_site_type_symbol
_atom_site_fract_x
_atom_site_fract_y
_atom_site_fract_z
Zn1	Zn	1.354421	0.069164	0.721261
Zn2	Zn	1.687754	0.402497	1.054594
Zn3	Zn	2.021087	0.735830	1.387928
Zn4	Zn	1.326397	-0.040455	0.583391
Zn5	Zn	1.659730	0.292879	0.916724
Zn6	Zn	1.993064	0.626212	1.250058
Zn7	Zn	1.188688	0.024850	0.555521
Zn8	Zn	1.522021	0.358183	0.888854
Zn9	Zn	1.855354	0.691516	1.222188
Zn10	Zn	1.216486	-0.040404	0.693274
Zn11	Zn	1.549820	0.292930	1.026607
Zn12	Zn	1.883153	0.626263	1.359941
O13	O	1.271498	0.003289	0.638362
O14	O	1.604831	0.336622	0.971695
O15	O	1.938165	0.669955	1.305028
O16	O	1.466061	0.073147	0.726349
O17	O	1.799394	0.406480	1.059682
O18	O	2.132728	0.739813	1.393015
O19	O	1.284768	-0.050359	0.464345
O20	O	1.618101	0.282975	0.797678
O21	O	1.951434	0.616308	1.131012
O22	O	1.210767	0.103912	0.577556
O23	O	1.544100	0.437246	0.910889
O24	O	1.877433	0.770579	1.244222
O25	O	1.445472	-0.007389	0.625056
O26	O	1.778805	0.325944	0.958390
O27	O	2.112139	0.659277	1.291723
O28	O	1.332530	0.136470	0.699324
O29	O	1.665863	0.469803	1.032657
O30	O	1.999197	0.803136	1.365991
O31	O	1.183593	-0.002380	0.443869
O32	O	1.516927	0.330953	0.777202
O33	O	1.850260	0.664287	1.110536
O34	O	1.077018	-0.002331	0.550418
O35	O	1.410351	0.331003	0.883751
O36	O	1.743684	0.664336	1.217084
O37	O	1.258145	-0.007302	0.812335
O38	O	1.591479	0.326031	1.145669
O39	O	1.924812	0.659364	1.479002
O40	O	1.097441	-0.050272	0.651624
O41	O	1.430774	0.283061	0.984958
O42	O	1.764108	0.616395	1.318291
O43	O	1.359485	0.073196	0.832897
O44	O	1.692819	0.406530	1.166231
O45	O	2.026152	0.739863	1.499564
O46	O	1.311723	-0.113632	0.597918
O47	O	1.645056	0.219701	0.931252
O48	O	1.978389	0.553034	1.264585
O49	O	1.230972	-0.113595	0.678649
O50	O	1.564305	0.219739	1.011982
O51	O	1.897639	0.553072	1.345315
C52	C	1.057318	-0.031105	0.594960
C53	C	1.390652	0.302229	0.928294
C54	C	1.723985	0.635562	1.261627
C55	C	0.965695	-0.045828	0.576412
C56	C	1.299029	0.287506	0.909746
C57	C	1.632362	0.620839	1.243079
C58	C	0.718003	0.115183	0.779472
C59	C	1.051337	0.448516	1.112805
C60	C	1.384670	0.781849	1.446138
C61	C	0.631906	0.101332	0.762026
C62	C	0.965240	0.434666	1.095360
C63	C	1.298573	0.767999	1.428693
C64	C	0.610458	0.017557	0.656399
C65	C	0.943792	0.350890	0.989732
C66	C	1.277125	0.684223	1.323065
C67	C	0.696556	0.031399	0.673838
C68	C	1.029889	0.364732	1.007171
C69	C	1.363223	0.698065	1.340505
C70	C	0.750322	0.080213	0.735375
C71	C	1.083655	0.413546	1.068708
C72	C	1.416989	0.746879	1.402041
C73	C	0.728874	-0.003571	0.629741
C74	C	1.062208	0.329762	0.963074
C75	C	1.395541	0.663095	1.296408
C76	C	0.814964	0.010271	0.647176
C77	C	1.148297	0.343604	0.980509
C78	C	1.481631	0.676938	1.313843
C79	C	0.868735	0.059084	0.708708
C80	C	1.202068	0.392417	1.042041
C81	C	1.535402	0.725750	1.375375
C82	C	0.836412	0.094055	0.752810
C83	C	1.169745	0.427389	1.086143
C84	C	1.503078	0.760722	1.419476
C85	C	0.675106	-0.052383	0.568201
C86	C	1.008439	0.280950	0.901534
C87	C	1.341773	0.614283	1.234867
C88	C	0.707425	-0.087353	0.524104
C89	C	1.040758	0.245980	0.857437
C90	C	1.374091	0.579313	1.190770
C91	C	0.793516	-0.073513	0.541542
C92	C	1.126850	0.259820	0.874876
C93	C	1.460183	0.593154	1.208209
C94	C	0.847287	-0.024700	0.603074
C95	C	1.180621	0.308633	0.936408
C96	C	1.513954	0.641966	1.269741
C97	C	0.825840	-0.108484	0.497441
C98	C	1.159173	0.224849	0.830774
C99	C	1.492507	0.558182	1.164108
C100	C	0.911929	-0.094642	0.514876
C101	C	1.245263	0.238691	0.848209
C102	C	1.578596	0.572025	1.181543
C103	C	0.933377	-0.010858	0.620509
C104	C	1.266710	0.322476	0.953843
C105	C	1.600044	0.655809	1.287176
C106	C	1.271349	-0.132583	0.638293
C107	C	1.604682	0.200750	0.971627
C108	C	1.938016	0.534084	1.304960
C109	C	1.271366	-0.190693	0.638307
C110	C	1.604700	0.142641	0.971640
C111	C	1.938033	0.475974	1.304974
C112	C	1.229438	-0.441859	0.680379
C113	C	1.562771	-0.108525	1.013713
C114	C	1.896104	0.224808	1.347046
C115	C	1.229405	-0.387261	0.680363
C116	C	1.562738	-0.053927	1.013697
C117	C	1.896072	0.279406	1.347030
O118	O	1.193615	-0.359027	0.716080
O119	O	1.526948	-0.025693	1.049413
O120	O	1.860282	0.307640	1.382747
N121	N	1.271479	-0.359943	0.638371
N122	N	1.604812	-0.026610	0.971704
N123	N	1.938145	0.306724	1.305038
C124	C	1.313595	-0.387224	0.596399
C125	C	1.646928	-0.053891	0.929732
C126	C	1.980261	0.279442	1.263065
O127	O	1.349379	-0.358975	0.560680
O128	O	1.682712	-0.025642	0.894014
O129	O	2.016046	0.307692	1.227347
C130	C	1.313632	-0.441820	0.596420
C131	C	1.646965	-0.108486	0.929753
C132	C	1.980298	0.224847	1.263087
C133	C	1.271548	-0.469136	0.638408
C134	C	1.604881	-0.135803	0.971741
C135	C	1.938215	0.197530	1.305075
C136	C	1.187358	-0.469175	0.722365
C137	C	1.520692	-0.135842	1.055698
C138	C	1.854025	0.197492	1.389031
C139	C	1.187390	-0.523770	0.722379
C140	C	1.520723	-0.190436	1.055712
C141	C	1.854056	0.142897	1.389046
C142	C	1.229500	-0.551047	0.680408
C143	C	1.562834	-0.217714	1.013741
C144	C	1.896167	0.115619	1.347074
C145	C	1.271579	-0.523731	0.638422
C146	C	1.604913	-0.190398	0.971756
C147	C	1.938246	0.142936	1.305089
C148	C	1.355752	-0.469099	0.554453
C149	C	1.689085	-0.135765	0.887787
C150	C	2.022419	0.197568	1.221120
C151	C	1.355786	-0.523698	0.554479
C152	C	1.689119	-0.190364	0.887812
C153	C	2.022453	0.142969	1.221145
C154	C	1.313702	-0.551014	0.596467
C155	C	1.647036	-0.217681	0.929800
C156	C	1.980369	0.115652	1.263133
C157	C	1.313721	-0.605603	0.596466
C158	C	1.647055	-0.272270	0.929799
C159	C	1.980388	0.061063	1.263132
N160	N	1.271648	-0.632921	0.638458
N161	N	1.604981	-0.299588	0.971791
N162	N	1.938314	0.033746	1.305125
C163	C	1.229537	-0.605643	0.680429
C164	C	1.562871	-0.272310	1.013762
C165	C	1.896204	0.061024	1.347096
C166	C	1.313515	-0.272570	0.596359
C167	C	1.646848	0.060764	0.929692
C168	C	1.980182	0.394097	1.263025
C169	C	1.313473	-0.217976	0.596332
C170	C	1.646807	0.115357	0.929665
C171	C	1.980140	0.448690	1.262999
C172	C	1.229285	-0.218016	0.680298
C173	C	1.562618	0.115317	1.013631
C174	C	1.895952	0.448650	1.346965
C175	C	1.229322	-0.272612	0.680319
C176	C	1.562655	0.060721	1.013653
C177	C	1.895989	0.394055	1.346986
C178	C	1.271441	-0.299887	0.638351
C179	C	1.604775	0.033446	0.971684
C180	C	1.938108	0.366779	1.305018
C181	C	1.229606	-0.720295	0.680455
C182	C	1.562939	-0.386962	1.013789
C183	C	1.896272	-0.053629	1.347122
C184	C	1.229638	-0.774895	0.680463
C185	C	1.562971	-0.441562	1.013796
C186	C	1.896304	-0.108229	1.347130
C187	C	1.313830	-0.774850	0.596501
C188	C	1.647163	-0.441516	0.929834
C189	C	1.980496	-0.108183	1.263167
C190	C	1.313794	-0.720255	0.596489
C191	C	1.647127	-0.386922	0.929822
C192	C	1.980461	-0.053589	1.263156
C193	C	1.271681	-0.692979	0.638473
C194	C	1.605014	-0.359646	0.971806
C195	C	1.938347	-0.026312	1.305139
O196	O	1.349496	-0.633871	0.560770
O197	O	1.682829	-0.300538	0.894104
O198	O	2.016163	0.032796	1.227437
O199	O	1.193768	-0.633896	0.716151
O200	O	1.527101	-0.300563	1.049484
O201	O	1.860435	0.032770	1.382817
C202	C	1.486514	0.037816	0.681933
C203	C	1.819847	0.371150	1.015267
C204	C	2.153180	0.704483	1.348600
C205	C	1.578141	0.052530	0.700501
C206	C	1.911474	0.385863	1.033834
C207	C	2.244807	0.719196	1.367167
C208	C	1.315042	0.037896	0.853361
C209	C	1.648375	0.371229	1.186695
C210	C	1.981709	0.704562	1.520028
C211	C	1.333598	0.052643	0.944981
C212	C	1.666931	0.385976	1.278315
C213	C	2.000265	0.719310	1.611648
C214	C	1.271674	0.139697	0.638453
C215	C	1.605007	0.473031	0.971786
C216	C	1.938340	0.806364	1.305120
C217	C	1.271748	0.197827	0.638492
C218	C	1.605082	0.531160	0.971825
C219	C	1.938415	0.864493	1.305158
C220	C	1.228170	-0.031138	0.424208
C221	C	1.561504	0.302195	0.757541
C222	C	1.894837	0.635528	1.090875
C223	C	1.209774	-0.045713	0.332621
C224	C	1.543108	0.287621	0.665954
C225	C	1.876441	0.620954	0.999288
C226	C	1.130847	-0.108411	1.192787
C227	C	1.464180	0.224923	1.526120
C228	C	1.797514	0.558256	1.859453
C229	C	1.148300	-0.094544	1.278881
C230	C	1.481634	0.238790	1.612215
C231	C	1.814967	0.572123	1.945548
C232	C	1.253816	-0.010728	1.300280
C233	C	1.587150	0.322606	1.633614
C234	C	1.920483	0.655939	1.966947
C235	C	1.236369	-0.024586	1.214185
C236	C	1.569702	0.308747	1.547519
C237	C	1.903036	0.642081	1.880852
C238	C	1.174884	-0.073429	1.160445
C239	C	1.508217	0.259905	1.493778
C240	C	1.841551	0.593238	1.827112
C241	C	1.280406	0.010396	1.181843
C242	C	1.613739	0.343729	1.515177
C243	C	1.947073	0.677063	1.848510
C244	C	1.262963	-0.003463	1.095757
C245	C	1.596296	0.329870	1.429090
C246	C	1.929629	0.663203	1.762423
C247	C	1.201482	-0.052304	1.042012
C248	C	1.534816	0.281029	1.375345
C249	C	1.868149	0.614362	1.708678
C250	C	1.157441	-0.087288	1.074358
C251	C	1.490774	0.246046	1.407691
C252	C	1.824107	0.579379	1.741025
C253	C	1.341895	0.059236	1.235586
C254	C	1.675228	0.392569	1.568919
C255	C	2.008562	0.725903	1.902253
C256	C	1.385932	0.094218	1.203244
C257	C	1.719265	0.427551	1.536578
C258	C	2.052599	0.760885	1.869911
C259	C	1.368485	0.080361	1.117155
C260	C	1.701818	0.413695	1.450488
C261	C	2.035151	0.747028	1.783822
C262	C	1.307004	0.031520	1.063410
C263	C	1.640338	0.364854	1.396743
C264	C	1.973671	0.698187	1.730077
C265	C	1.412526	0.115345	1.084808
C266	C	1.745860	0.448678	1.418142
C267	C	2.079193	0.782011	1.751475
C268	C	1.395083	0.101486	0.998722
C269	C	1.728416	0.434819	1.332055
C270	C	2.061750	0.768152	1.665388
C271	C	1.289561	0.017661	0.977323
C272	C	1.622894	0.350995	1.310656
C273	C	1.956228	0.684328	1.643990
H274	H	0.605597	0.129815	0.797936
H275	H	0.938930	0.463148	1.131269
H276	H	1.272263	0.796481	1.464603
H277	H	1.195367	-0.797134	0.714656
H278	H	1.528700	-0.463801	1.047990
H279	H	1.862034	-0.130468	1.381323
H280	H	0.782050	-0.148226	0.447332
H281	H	1.115383	0.185108	0.780666
H282	H	1.448717	0.518441	1.113999
H283	H	1.347731	-0.195742	0.562130
H284	H	1.681064	0.137591	0.895464
H285	H	2.014397	0.470925	1.228797
H286	H	1.195314	-0.698093	0.714643
H287	H	1.528648	-0.364759	1.047976
H288	H	1.861981	-0.031426	1.381310
H289	H	0.663637	-0.127096	0.473998
H290	H	0.996970	0.206237	0.807331
H291	H	1.330303	0.539570	1.140665
H292	H	0.761784	0.154931	0.829584
H293	H	1.095117	0.488264	1.162917
H294	H	1.428451	0.821597	1.496250
H295	H	1.153119	-0.546006	0.756568
H296	H	1.486453	-0.212673	1.089902
H297	H	1.819786	0.120660	1.423235
H298	H	0.566670	-0.022187	0.606293
H299	H	0.900004	0.311147	0.939627
H300	H	1.233337	0.644480	1.272960
H301	H	0.605003	-0.063643	0.553989
H302	H	0.938337	0.269690	0.887322
H303	H	1.271670	0.603023	1.220656
H304	H	1.080760	-0.148174	1.149024
H305	H	1.414093	0.185160	1.482357
H306	H	1.747427	0.518493	1.815690
H307	H	1.462593	0.155109	1.128577
H308	H	1.795926	0.488443	1.461911
H309	H	2.129260	0.821776	1.795244
H310	H	1.348111	-0.797070	0.562325
H311	H	1.681445	-0.463737	0.895659
H312	H	2.014778	-0.130404	1.228992
H313	H	0.938243	-0.123118	0.478968
H314	H	1.271576	0.210215	0.812301
H315	H	1.604910	0.543549	1.145634
H316	H	1.390021	-0.446865	0.520264
H317	H	1.723354	-0.113531	0.853597
H318	H	2.056687	0.219802	1.186930
H319	H	1.153068	-0.446970	0.756546
H320	H	1.486401	-0.113636	1.089880
H321	H	1.819735	0.219697	1.423213
H322	H	0.880192	0.133803	0.802922
H323	H	1.213525	0.467136	1.136255
H324	H	1.546859	0.800470	1.469588
H325	H	1.194998	-0.195796	0.714475
H326	H	1.528331	0.137537	1.047808
H327	H	1.861664	0.470870	1.381141
H328	H	1.195059	-0.294848	0.714515
H329	H	1.528393	0.038485	1.047848
H330	H	1.861726	0.371819	1.381182
H331	H	1.347810	-0.294775	0.562176
H332	H	1.681144	0.038558	0.895509
H333	H	2.014477	0.371891	1.228842
H334	H	1.112436	-0.123034	1.305209
H335	H	1.445769	0.210299	1.638542
H336	H	1.779102	0.543633	1.971876
H337	H	1.390088	-0.545902	0.520305
H338	H	1.723422	-0.212568	0.853639
H339	H	2.056755	0.120765	1.186972
H340	H	1.303880	0.029039	1.344047
H341	H	1.637213	0.362372	1.677381
H342	H	1.970546	0.695706	2.010714
H343	H	1.348052	-0.698016	0.562289
H344	H	1.681385	-0.364683	0.895622
H345	H	2.014719	-0.031350	1.228955
H346	H	1.435995	0.133985	1.247011
H347	H	1.769329	0.467318	1.580345
H348	H	2.102662	0.800651	1.913678
H349	H	0.938834	0.070355	0.722899
H350	H	1.272167	0.403688	1.056233
H351	H	1.605500	0.737021	1.389566
H352	H	1.430941	0.129972	0.972389
H353	H	1.764275	0.463305	1.305722
H354	H	2.097608	0.796639	1.639055
H355	H	1.239474	-0.022102	0.933560
H356	H	1.572807	0.311231	1.266893
H357	H	1.906141	0.644565	1.600227
H358	H	1.187284	-0.063589	0.971915
H359	H	1.520618	0.269744	1.305248
H360	H	1.853951	0.603078	1.638582
H361	H	0.977158	0.028890	0.670622
H362	H	1.310491	0.362223	1.003955
H363	H	1.643824	0.695557	1.337288
H364	H	1.107354	-0.127051	1.030595
H365	H	1.440687	0.206283	1.363928
H366	H	1.774020	0.539616	1.697262
H367	H	1.356097	0.070518	1.305683
H368	H	1.689430	0.403851	1.639017
H369	H	2.022764	0.737184	1.972350
