data_functionalizedCrystal
_audit_creation_method	'MofGen! by Chris Wilmer'
_symmetry_space_group_name_H-M	'P1'
_symmetry_Int_Tables_number	1
_symmetry_cell_setting	triclinic
loop_
_symmetry_equiv_pos_as_xyz
  x,y,z
_cell_length_a	12.645331
_cell_length_b	12.645330
_cell_length_c	11.169409
_cell_angle_alpha	89.965587
_cell_angle_beta	89.981303
_cell_angle_gamma	90.013057
loop_
_atom_site_label
_atom_site_type_symbol
_atom_site_fract_x
_atom_site_fract_y
_atom_site_fract_z
Zn1	Zn	1.620776	-0.421942	-0.678489
Zn2	Zn	1.620671	-0.599253	-0.477799
Zn3	Zn	1.443488	-0.422005	-0.477828
Zn4	Zn	1.443488	-0.599165	-0.678448
O5	O	1.532105	-0.510591	-0.578141
O6	O	1.769109	-0.445473	-0.651873
O7	O	1.597123	-0.575804	-0.309853
O8	O	1.467050	-0.273649	-0.504475
O9	O	1.769032	-0.575742	-0.504426
O10	O	1.597302	-0.273603	-0.651900
O11	O	1.466948	-0.445581	-0.309874
O12	O	1.295141	-0.445495	-0.504435
O13	O	1.467049	-0.575593	-0.846403
O14	O	1.295140	-0.575654	-0.651830
O15	O	1.597302	-0.445388	-0.846434
O16	O	1.597123	-0.747588	-0.504386
O17	O	1.466947	-0.747524	-0.651802
C18	C	1.256676	-0.510573	-0.578132
C19	C	1.138846	-0.510591	-0.578156
C20	C	1.093999	-0.592613	-0.670746
C21	C	0.971439	-0.592950	-0.670471
C22	C	0.970893	-0.540444	-0.451518
C23	C	1.093492	-0.541023	-0.452054
C24	C	1.093690	-0.398541	-0.611097
C25	C	0.971085	-0.399160	-0.613886
C26	C	1.532052	-0.786021	-0.578113
C27	C	1.532127	-0.903851	-0.578141
C28	C	1.613889	-1.071411	-0.485213
C29	C	1.614155	-0.948851	-0.485441
C30	C	1.562428	-0.948218	-0.704649
C31	C	1.563077	-1.070817	-0.704155
C32	C	1.420031	-1.071183	-0.545807
C33	C	1.420568	-0.948579	-0.542970
C34	C	1.808611	-0.510610	-0.578151
C35	C	1.926441	-0.510619	-0.578155
C36	C	1.532187	-0.510473	-0.891184
C37	C	1.532222	-0.510423	-1.024584
C38	C	1.532188	-0.234086	-0.578196
C39	C	1.532223	-0.116256	-0.578219
C40	C	1.532085	-0.510632	-0.266316
C41	C	1.532256	-0.510383	-0.132917
H42	H	1.122063	-0.622915	-0.424212
H43	H	1.124784	-0.675170	-0.649156
C44	C	1.588540	-0.908323	-0.358727
H45	H	1.588663	-0.833194	-0.358698
H46	H	1.640352	-0.933487	-0.304141
H47	H	1.520784	-0.933277	-0.335173
H48	H	1.595167	-1.100975	-0.391134
C49	C	1.382809	-1.113074	-0.423353
H50	H	1.435351	-1.158449	-0.390846
H51	H	1.318714	-1.151301	-0.433094
H52	H	1.371427	-1.055310	-0.370559
C53	C	0.931518	-0.462229	-0.355751
H54	H	0.959336	-0.481724	-0.279884
H55	H	0.856460	-0.463859	-0.352769
H56	H	0.954488	-0.392845	-0.375515
H57	H	1.122692	-0.337436	-0.543666
H58	H	0.941386	-0.574343	-0.764356
H59	H	1.645083	-1.099325	-0.731611
C60	C	1.333927	-0.907225	-0.627770
H61	H	1.267430	-0.935502	-0.604418
H62	H	1.349448	-0.928429	-0.707434
H63	H	1.331440	-0.832225	-0.623762
C64	C	1.725546	-1.112905	-0.513851
H65	H	1.722611	-1.157436	-0.582245
H66	H	1.751624	-1.151947	-0.447449
H67	H	1.771285	-1.054921	-0.529555
H68	H	1.124644	-0.371292	-0.701886
H69	H	1.697251	-0.919440	-0.506878
H70	H	1.506201	-1.100476	-0.775839
C71	C	1.484531	-0.908832	-0.800777
H72	H	1.432716	-0.864869	-0.764525
H73	H	1.450889	-0.967690	-0.837374
H74	H	1.521935	-0.869613	-0.859727
H75	H	1.123156	-0.483835	-0.380700
H76	H	1.643509	-0.917427	-0.732562
H77	H	1.123517	-0.574220	-0.764923
C78	C	0.929400	-0.649871	-0.413262
H79	H	0.884998	-0.677527	-0.474285
H80	H	0.890221	-0.643264	-0.341075
H81	H	0.987392	-0.696344	-0.400852
C82	C	1.389692	-0.909416	-0.417208
H83	H	1.444549	-0.865982	-0.386258
H84	H	1.379408	-0.968384	-0.365774
H85	H	1.326076	-0.869694	-0.422014
C86	C	1.337862	-1.110206	-0.637433
H87	H	1.371702	-1.153775	-0.695149
H88	H	1.306594	-1.051156	-0.676314
H89	H	1.284622	-1.149740	-0.597399
H90	H	0.942088	-0.675986	-0.648617
H91	H	0.942035	-0.376661	-0.707084
H92	H	0.940454	-0.334824	-0.551418
