data_functionalizedCrystal
_audit_creation_method	'MofGen! by Chris Wilmer'
_symmetry_space_group_name_H-M	'P1'
_symmetry_Int_Tables_number	1
_symmetry_cell_setting	triclinic
loop_
_symmetry_equiv_pos_as_xyz
  x,y,z
_cell_length_a	17.699083
_cell_length_b	11.026607
_cell_length_c	16.776229
_cell_angle_alpha	89.996140
_cell_angle_beta	89.998886
_cell_angle_gamma	95.934516
loop_
_atom_site_label
_atom_site_type_symbol
_atom_site_fract_x
_atom_site_fract_y
_atom_site_fract_z
O1	O	1.025155	0.153399	-0.066172
O2	O	0.807518	0.173356	-0.066197
O3	O	0.898299	-0.013222	-0.066184
O4	O	0.934374	0.339978	-0.066186
O5	O	0.898282	-0.013234	0.066393
O6	O	0.807501	0.173345	0.066379
O7	O	1.025138	0.153387	0.066405
Zn8	Zn	0.916317	0.163364	0.087441
Zn9	Zn	0.916339	0.163379	-0.087234
O10	O	0.934357	0.339966	0.066391
C11	C	0.779214	0.172636	0.000087
C12	C	0.694902	0.170490	0.000078
C13	C	0.661328	0.280008	0.000077
C14	C	0.582106	0.277985	0.000088
C15	C	0.536460	0.166443	0.000092
C16	C	0.570039	0.056917	0.000095
C17	C	0.649259	0.058941	0.000090
C18	C	0.250554	0.048751	0.000115
C19	C	0.171329	0.046735	0.000117
C20	C	0.183402	0.267794	0.000112
C21	C	0.262621	0.269819	0.000107
C22	C	0.296194	0.160293	0.000114
C23	C	0.382094	0.162488	0.000104
C24	C	0.450561	0.164247	0.000096
C25	C	0.891635	-0.058419	0.000103
C26	C	0.871796	-0.193075	0.000097
C27	C	0.926576	-0.267042	0.000103
C28	C	0.906072	-0.406216	0.000097
C29	C	1.053441	0.154108	0.000118
C30	C	1.137754	0.156254	0.000123
C31	C	0.941021	0.385163	0.000103
C32	C	0.960860	0.519819	0.000103
N33	N	0.916307	0.163353	0.206652
N34	N	0.916354	0.163381	-0.206445
C35	C	0.956525	0.080770	0.248375
C36	C	0.956529	0.080769	0.331828
C37	C	0.916319	0.163358	0.373555
C38	C	0.876096	0.245945	0.331826
C39	C	0.876088	0.245939	0.248376
C40	C	0.876127	0.245969	0.668374
C41	C	0.876140	0.245971	0.751830
C42	C	0.956568	0.080799	0.751826
C43	C	0.956560	0.080793	0.668375
C44	C	0.916334	0.163375	0.626653
C45	C	0.916329	0.163374	0.536165
C46	C	0.916328	0.163366	0.464042
H47	H	0.988654	-0.227333	0.000115
H48	H	0.843990	-0.445918	0.000085
C49	C	0.831905	0.336834	0.622486
H50	H	0.837655	0.325007	0.566809
H51	H	0.851165	0.417766	0.636164
H52	H	0.779610	0.323778	0.636165
C53	C	1.000762	-0.010068	0.202479
H54	H	0.995006	0.001764	0.146802
H55	H	0.981525	-0.091012	0.216160
H56	H	1.053056	0.003023	0.216152
C57	C	0.831890	0.336801	0.797729
H58	H	0.807922	0.385971	0.760930
H59	H	0.865978	0.387254	0.830281
H60	H	0.794456	0.293198	0.830286
C61	C	0.545175	0.398451	0.000079
H62	H	0.491457	0.381274	0.000091
H63	H	0.560635	0.444194	-0.046158
H64	H	0.560639	0.444201	0.046313
H65	H	0.809717	-0.232783	0.000085
H66	H	0.843352	0.313187	0.365806
C67	C	0.831852	0.336786	0.202480
H68	H	0.807911	0.385982	0.239282
H69	H	0.794410	0.293211	0.169933
H70	H	0.865950	0.387229	0.169920
H71	H	0.698488	0.370838	0.000073
C72	C	0.312828	0.392514	0.000105
H73	H	0.281486	0.457451	0.000115
H74	H	0.343984	0.397907	-0.046127
H75	H	0.343980	0.397888	0.046344
H76	H	0.989277	0.013523	0.365798
H77	H	0.156058	0.356975	0.000111
C78	C	1.000787	-0.010058	0.622479
H79	H	1.024735	-0.059251	0.659280
H80	H	1.038223	0.033508	0.589914
H81	H	0.966680	-0.060503	0.589935
C82	C	0.519831	-0.065777	0.000099
H83	H	0.467842	-0.051299	0.000093
H84	H	0.530334	-0.110868	0.046330
H85	H	0.530336	-0.110853	-0.046140
C86	C	0.121120	-0.075967	0.000130
H87	H	0.152459	-0.140907	0.000142
H88	H	0.089963	-0.081354	-0.046100
H89	H	0.089967	-0.081341	0.046371
C90	C	1.044728	-0.426560	0.000120
H91	H	1.047509	-0.340054	0.000129
H92	H	1.069219	-0.453256	-0.046107
H93	H	1.069195	-0.453274	0.046364
H94	H	0.676594	-0.030240	0.000090
C95	C	1.000808	-0.010056	0.797718
H96	H	1.024761	-0.059233	0.760913
H97	H	0.966718	-0.060499	0.830278
H98	H	1.038254	0.033526	0.830265
C99	C	0.287474	-0.071722	0.000117
H100	H	0.248941	-0.138439	0.000112
H101	H	0.318127	-0.075536	0.046348
H102	H	0.318126	-0.075527	-0.046122
