data_functionalizedCrystal
_audit_creation_method	'MofGen! by Chris Wilmer'
_symmetry_space_group_name_H-M	'P1'
_symmetry_Int_Tables_number	1
_symmetry_cell_setting	triclinic
loop_
_symmetry_equiv_pos_as_xyz
  x,y,z
_cell_length_a	10.723022
_cell_length_b	10.540539
_cell_length_c	9.798715
_cell_angle_alpha	89.998989
_cell_angle_beta	89.996609
_cell_angle_gamma	84.496359
loop_
_atom_site_label
_atom_site_type_symbol
_atom_site_fract_x
_atom_site_fract_y
_atom_site_fract_z
O1	O	1.657277	0.178036	-0.113475
O2	O	2.157277	0.678036	0.386525
O3	O	1.294133	0.195081	-0.113479
O4	O	1.794133	0.695081	0.386521
O5	O	1.483990	0.001848	-0.113475
O6	O	1.983990	0.501848	0.386525
O7	O	1.467420	0.371270	-0.113479
O8	O	1.967420	0.871270	0.386521
O9	O	1.483975	0.001847	0.113507
O10	O	1.983975	0.501847	0.613507
O11	O	1.294118	0.195081	0.113503
O12	O	1.794118	0.695081	0.613503
O13	O	1.657263	0.178036	0.113507
O14	O	2.157263	0.678036	0.613507
Zn15	Zn	1.475688	0.186558	0.149543
Zn16	Zn	1.975688	0.686558	0.649543
Zn17	Zn	1.475707	0.186559	-0.149515
Zn18	Zn	1.975707	0.686559	0.350485
O19	O	1.467406	0.371269	0.113503
O20	O	1.967406	0.871269	0.613503
C21	C	1.247625	0.193841	0.000011
C22	C	1.747625	0.693841	0.500011
C23	C	1.109069	0.190131	0.000010
C24	C	1.609069	0.690131	0.500010
C25	C	0.890943	0.294417	0.000006
C26	C	1.390943	0.794417	0.500006
C27	C	1.034147	0.298254	0.000008
C28	C	1.534147	0.798254	0.500008
C29	C	1.482740	-0.045455	0.000013
C30	C	1.982740	0.454545	0.500013
C31	C	1.479022	-0.186401	0.000006
C32	C	1.979022	0.313599	0.500006
C33	C	1.336564	-0.369754	-0.000505
C34	C	1.836564	0.130246	0.499495
C35	C	1.340333	-0.223137	0.000006
C36	C	1.840333	0.276863	0.500006
C37	C	1.545758	-0.248093	0.129625
C38	C	2.045758	0.251907	0.629625
C39	C	1.541024	-0.394635	0.129734
C40	C	2.041024	0.105365	0.629734
C41	C	1.543861	-0.395155	-0.128387
C42	C	2.043861	0.104845	0.371613
C43	C	1.545139	-0.248173	-0.130101
C44	C	2.045139	0.251827	0.369899
C45	C	1.703770	0.179276	0.000013
C46	C	2.203770	0.679276	0.500013
C47	C	1.842326	0.182986	0.000006
C48	C	2.342326	0.682986	0.500006
C49	C	1.468655	0.418572	0.000012
C50	C	1.968655	0.918572	0.500012
C51	C	1.472373	0.559518	0.000010
C52	C	1.972373	1.059518	0.500010
N53	N	1.475685	0.186557	0.353643
N54	N	1.975685	0.686557	0.853643
N55	N	1.475721	0.186550	-0.353615
N56	N	1.975721	0.686550	0.146385
C57	C	1.555400	0.105066	0.421421
C58	C	2.055400	0.605066	0.921421
C59	C	1.555420	0.105062	0.578584
C60	C	2.055420	0.605062	1.078584
H61	H	1.067218	0.094720	-0.000026
H62	H	1.567218	0.594720	0.499974
Cl63	Cl	0.941740	0.040073	-0.000002
Cl64	Cl	1.441740	0.540073	0.499998
Cl65	Cl	1.259258	-0.157313	-0.143448
Cl66	Cl	1.759258	0.342687	0.356552
Cl67	Cl	1.251981	-0.413862	-0.144017
Cl68	Cl	1.751981	0.086138	0.355983
H69	H	1.407447	0.256317	0.411966
H70	H	1.907447	0.756317	0.911966
Cl71	Cl	0.791529	0.437330	-0.000011
Cl72	Cl	1.291529	0.937330	0.499989
H73	H	1.640767	-0.442656	0.135615
H74	H	2.140767	0.057344	0.635615
H75	H	1.076007	0.393660	0.000015
H76	H	1.576007	0.893660	0.500015
H77	H	1.623629	0.035296	0.363100
H78	H	2.123629	0.535296	0.863100
H79	H	1.644036	-0.442433	-0.129258
H80	H	2.144036	0.057567	0.370742
H81	H	1.281996	-0.399933	0.091925
H82	H	1.781996	0.100067	0.591925
Cl83	Cl	1.660801	-0.002653	0.668568
Cl84	Cl	2.160801	0.497347	1.168568
H85	H	1.407474	0.256326	0.588107
H86	H	1.907474	0.756326	1.088107
H87	H	1.287442	-0.181354	0.093075
H88	H	1.787442	0.318646	0.593075
H89	H	1.499388	-0.205470	0.226081
H90	H	1.999388	0.294530	0.726081
H91	H	1.491692	-0.422810	0.226625
H92	H	1.991692	0.077190	0.726625
Cl93	Cl	1.703006	-0.213666	0.137075
Cl94	Cl	2.203006	0.286334	0.637075
Cl95	Cl	1.474557	-0.443813	-0.280068
Cl96	Cl	1.974557	0.056187	0.219932
Cl97	Cl	1.470381	-0.184304	-0.278170
Cl98	Cl	1.970381	0.315696	0.221830
Cl99	Cl	1.701254	-0.210854	-0.142194
Cl100	Cl	2.201254	0.289146	0.357806
