data_functionalizedCrystal
_audit_creation_method	'MofGen! by Chris Wilmer'
_symmetry_space_group_name_H-M	'P1'
_symmetry_Int_Tables_number	1
_symmetry_cell_setting	triclinic
loop_
_symmetry_equiv_pos_as_xyz
  x,y,z
_cell_length_a	14.971486
_cell_length_b	10.489741
_cell_length_c	14.048226
_cell_angle_alpha	89.993872
_cell_angle_beta	89.998499
_cell_angle_gamma	84.076651
loop_
_atom_site_label
_atom_site_type_symbol
_atom_site_fract_x
_atom_site_fract_y
_atom_site_fract_z
O1	O	1.187893	0.166222	-0.079050
O2	O	1.687893	0.666222	0.420950
O3	O	0.927606	0.186127	-0.079076
O4	O	1.427606	0.686127	0.420924
O5	O	1.063672	-0.009492	-0.079057
O6	O	1.563672	0.490508	0.420943
O7	O	1.051827	0.361841	-0.079070
O8	O	1.551827	0.861841	0.420930
O9	O	1.063656	-0.009503	0.079264
O10	O	1.563656	0.490497	0.579264
O11	O	0.927590	0.186116	0.079245
O12	O	1.427590	0.686116	0.579245
O13	O	1.187876	0.166211	0.079271
O14	O	1.687876	0.666211	0.579271
Zn15	Zn	1.057730	0.176161	0.104395
Zn16	Zn	1.557730	0.676161	0.604395
Zn17	Zn	1.057752	0.176177	-0.104200
Zn18	Zn	1.557752	0.676177	0.395800
O19	O	1.051810	0.361830	0.079252
O20	O	1.551810	0.861830	0.579252
C21	C	0.894268	0.185232	0.000081
C22	C	1.394268	0.685232	0.500081
C23	C	0.794956	0.182564	0.000071
C24	C	1.294956	0.682564	0.500071
C25	C	0.738385	0.297485	0.000069
C26	C	1.238385	0.797485	0.500069
C27	C	0.645071	0.294971	0.000083
C28	C	1.145071	0.794971	0.500083
C29	C	0.608330	0.177534	0.000093
C30	C	1.108330	0.677534	0.500093
C31	C	0.664909	0.062604	0.000098
C32	C	1.164909	0.562604	0.500098
C33	C	0.758221	0.065120	0.000091
C34	C	1.258221	0.565120	0.500091
C35	C	0.470416	0.057369	0.000112
C36	C	0.970416	0.557369	0.500112
C37	C	0.377098	0.054853	0.000117
C38	C	0.877098	0.554853	0.500117
C39	C	0.357267	0.287220	0.000104
C40	C	0.857267	0.787220	0.500104
C41	C	0.450579	0.289736	0.000096
C42	C	0.950579	0.789736	0.500096
C43	C	0.507151	0.174805	0.000100
C44	C	1.007151	0.674805	0.500100
C45	C	1.062769	-0.057019	0.000103
C46	C	1.562769	0.442981	0.500103
C47	C	1.060093	-0.198617	0.000101
C48	C	1.560093	0.301383	0.500101
C49	C	0.973518	-0.265755	0.000085
C50	C	1.473518	0.234245	0.500085
C51	C	1.014407	-0.358357	0.078150
C52	C	1.514407	0.141643	0.578150
C53	C	1.014444	-0.358320	-0.077942
C54	C	1.514444	0.141680	0.422058
C55	C	1.101017	-0.289354	0.078230
C56	C	1.601017	0.210646	0.578230
C57	C	1.101042	-0.289308	-0.077933
C58	C	1.601042	0.210692	0.422067
C59	C	1.141994	-0.381882	0.000151
C60	C	1.641994	0.118118	0.500151
C61	C	1.221215	0.167106	0.000111
C62	C	1.721215	0.667106	0.500111
C63	C	1.320527	0.169774	0.000115
C64	C	1.820527	0.669774	0.500115
C65	C	1.052713	0.409357	0.000090
C66	C	1.552713	0.909357	0.500090
C67	C	1.055390	0.550955	0.000085
C68	C	1.555390	1.050955	0.500085
N69	N	1.057722	0.176150	0.246755
N70	N	1.557722	0.676150	0.746755
N71	N	1.057768	0.176178	-0.246561
N72	N	1.557768	0.676178	0.253439
C73	C	1.117991	0.089566	0.296582
C74	C	1.617991	0.589566	0.796582
C75	C	1.117997	0.089565	0.396240
C76	C	1.617997	0.589565	0.896240
C77	C	1.057738	0.176156	0.446069
C78	C	1.557738	0.676156	0.946069
C79	C	0.997462	0.262744	0.396235
C80	C	1.497462	0.762744	0.896235
C81	C	0.997452	0.262738	0.296580
C82	C	1.497452	0.762738	0.796580
C83	C	0.997488	0.262754	0.603950
C84	C	1.497488	0.762754	1.103950
C85	C	0.997498	0.262762	0.703612
C86	C	1.497498	0.762762	1.203612
C87	C	1.118033	0.089581	0.703610
C88	C	1.618033	0.589581	1.203610
C89	C	1.118023	0.089574	0.603954
C90	C	1.618023	0.589574	1.103954
C91	C	1.057748	0.176165	0.554127
C92	C	1.557748	0.676165	1.054127
H93	H	0.768291	0.393115	0.000060
H94	H	1.268291	0.893115	0.500060
Cl95	Cl	0.829340	-0.079358	0.000098
Cl96	Cl	1.329340	0.420642	0.500098
Cl97	Cl	0.618720	-0.085031	0.000117
Cl98	Cl	1.118720	0.414969	0.500117
Cl99	Cl	1.157562	-0.242018	-0.179824
Cl100	Cl	1.657562	0.257982	0.320176
H101	H	0.948428	0.333272	0.744178
H102	H	1.448428	0.833272	1.244178
H103	H	0.599014	0.388551	0.000080
H104	H	1.099014	0.888551	0.500080
H105	H	0.977808	-0.388855	-0.143946
H106	H	1.477808	0.111145	0.356054
Cl107	Cl	0.496766	0.437372	0.000073
Cl108	Cl	0.996766	0.937372	0.500073
Cl109	Cl	0.286148	0.431704	0.000101
Cl110	Cl	0.786148	0.931704	0.500101
H111	H	0.902336	-0.215280	0.000157
H112	H	1.402336	0.284720	0.500157
Cl113	Cl	0.957842	-0.405591	0.180036
Cl114	Cl	1.457842	0.094409	0.680036
H115	H	1.167095	0.019072	0.563383
H116	H	1.667095	0.519072	1.063383
H117	H	1.167065	0.019059	0.256018
H118	H	1.667065	0.519059	0.756018
H119	H	0.516476	-0.036219	0.000116
H120	H	1.016476	0.463781	0.500116
Cl121	Cl	1.193807	-0.019271	0.766252
Cl122	Cl	1.693807	0.480729	1.266252
H123	H	1.213239	-0.432131	0.000202
H124	H	1.713239	0.067869	0.500202
H125	H	0.948393	0.333244	0.436812
H126	H	1.448393	0.833244	0.936812
H127	H	1.137610	-0.258950	0.144302
H128	H	1.637610	0.241050	0.644302
Cl129	Cl	1.193765	-0.019287	0.458881
Cl130	Cl	1.693765	0.480713	0.958881
H131	H	0.948402	0.333261	0.563384
H132	H	1.448402	0.833261	1.063384
H133	H	0.347187	-0.040774	0.000127
H134	H	0.847187	0.459226	0.500127
H135	H	0.948374	0.333242	0.256012
H136	H	1.448374	0.833242	0.756012
