data_functionalizedCrystal
_audit_creation_method	'MofGen! by Chris Wilmer'
_symmetry_space_group_name_H-M	'P1'
_symmetry_Int_Tables_number	1
_symmetry_cell_setting	triclinic
loop_
_symmetry_equiv_pos_as_xyz
  x,y,z
_cell_length_a	19.188930
_cell_length_b	19.188925
_cell_length_c	9.016244
_cell_angle_alpha	89.998107
_cell_angle_beta	89.978791
_cell_angle_gamma	83.143665
loop_
_atom_site_label
_atom_site_type_symbol
_atom_site_fract_x
_atom_site_fract_y
_atom_site_fract_z
O1	O	0.926146	0.087165	-0.123816
O2	O	1.426146	0.587165	0.376184
O3	O	0.722835	0.098899	-0.123714
O4	O	1.222835	0.598899	0.376286
O5	O	0.830360	-0.008624	-0.123760
O6	O	1.330360	0.491376	0.376240
O7	O	0.818621	0.194688	-0.123770
O8	O	1.318621	0.694688	0.376230
O9	O	0.830344	-0.008621	0.122921
O10	O	1.330344	0.491379	0.622921
O11	O	0.722819	0.098902	0.122967
O12	O	1.222819	0.598902	0.622967
O13	O	0.926131	0.087167	0.122865
O14	O	1.426131	0.587167	0.622865
Cu15	Cu	0.824473	0.093035	0.145440
Cu16	Cu	1.324473	0.593035	0.645440
Cu17	Cu	0.824492	0.093032	-0.146289
Cu18	Cu	1.324492	0.593032	0.353711
O19	O	0.818606	0.194691	0.122910
O20	O	1.318606	0.694691	0.622910
C21	C	0.696816	0.098520	-0.000361
C22	C	1.196816	0.598520	0.499639
C23	C	0.619311	0.097380	-0.000322
C24	C	1.119311	0.597380	0.499678
C25	C	0.829972	-0.034634	-0.000420
C26	C	1.329972	0.465366	0.499580
C27	C	0.828833	-0.112138	-0.000422
C28	C	1.328833	0.387862	0.499578
C29	C	0.884297	-0.673909	-0.000488
C30	C	1.384297	-0.173909	0.499512
C31	C	0.885374	-0.601085	-0.000475
C32	C	1.385374	-0.101085	0.499525
C33	C	0.822282	-0.556151	-0.000444
C34	C	1.322282	-0.056151	0.499556
C35	C	0.758108	-0.584045	-0.000387
C36	C	1.258108	-0.084045	0.499613
C37	C	0.757033	-0.656867	-0.000385
C38	C	1.257033	-0.156867	0.499615
N39	N	0.776611	-0.435471	-0.084384
N40	N	1.276611	0.064529	0.415616
N41	N	0.777636	-0.366294	-0.084389
N42	N	1.277636	0.133706	0.415611
C43	C	0.825516	-0.336742	-0.000446
C44	C	1.325516	0.163258	0.499554
N45	N	0.872342	-0.378982	0.083483
N46	N	1.372342	0.121018	0.583483
N47	N	0.871319	-0.448166	0.083482
N48	N	1.371319	0.051834	0.583482
C49	C	0.823440	-0.477187	-0.000445
C50	C	1.323440	0.022813	0.499555
C51	C	0.890852	-0.229893	-0.000478
C52	C	1.390852	0.270107	0.499522
C53	C	0.891926	-0.157068	-0.000456
C54	C	1.391926	0.342932	0.499544
C55	C	0.764659	-0.140029	-0.000384
C56	C	1.264659	0.359971	0.499616
C57	C	0.763587	-0.212852	-0.000391
C58	C	1.263587	0.287148	0.499609
C59	C	0.826685	-0.257780	-0.000445
C60	C	1.326685	0.242220	0.499555
C61	C	0.574386	0.160471	-0.000348
C62	C	1.074386	0.660471	0.499652
C63	C	0.501563	0.159399	-0.000365
C64	C	1.001563	0.659399	0.499635
C65	C	0.473667	0.095233	-0.000384
C66	C	0.973667	0.595233	0.499616
C67	C	0.518602	0.032134	-0.000349
C68	C	1.018602	0.532134	0.499651
C69	C	0.591424	0.033207	-0.000318
C70	C	1.091424	0.533207	0.499682
N71	N	0.365693	0.046185	-0.084397
N72	N	0.865693	0.546185	0.415603
N73	N	0.296515	0.045169	-0.084430
N74	N	0.796515	0.545169	0.415570
C75	C	0.254259	0.091995	-0.000474
C76	C	0.754259	0.591995	0.499526
N77	N	0.283793	0.139884	0.083496
N78	N	0.783793	0.639884	0.583496
N79	N	0.352978	0.140902	0.083523
N80	N	0.852978	0.640902	0.583523
C81	C	0.394705	0.094062	-0.000417
C82	C	0.894705	0.594062	0.499583
C83	C	0.130369	0.153928	-0.000517
C84	C	0.630369	0.653928	0.499483
C85	C	0.057544	0.152854	-0.000524
C86	C	0.557544	0.652854	0.499476
C87	C	0.074586	0.025586	-0.000523
C88	C	0.574586	0.525586	0.499477
C89	C	0.147409	0.026662	-0.000501
C90	C	0.647409	0.526662	0.499499
C91	C	0.175296	0.090835	-0.000505
C92	C	0.675296	0.590835	0.499495
C93	C	0.952150	0.087546	-0.000492
C94	C	1.452150	0.587546	0.499508
C95	C	1.029654	0.088687	-0.000541
C96	C	1.529654	0.588687	0.499459
C97	C	0.818993	0.220700	-0.000433
C98	C	1.318993	0.720700	0.499567
C99	C	0.820132	0.298205	-0.000440
C100	C	1.320132	0.798205	0.499560
N101	N	0.824466	0.093036	0.350626
N102	N	1.324466	0.593036	0.850626
N103	N	0.824505	0.093025	-0.351475
N104	N	1.324505	0.593025	0.148525
C105	C	0.766775	0.150366	0.585683
C106	C	1.266775	0.650366	1.085683
C107	C	0.766898	0.150576	0.413792
C108	C	1.266898	0.650576	0.913792
C109	C	0.897270	0.108727	0.412926
C110	C	1.397270	0.608727	0.912926
C111	C	0.896954	0.109132	0.584871
C112	C	1.396954	0.609132	1.084871
C113	C	0.810079	0.019822	0.585183
C114	C	1.310079	0.519822	1.085183
C115	C	0.808398	0.020318	0.413229
C116	C	1.308398	0.520318	0.913229
H117	H	0.935677	-0.710485	-0.000524
H118	H	1.435677	-0.210485	0.499476
H119	H	0.754844	0.008406	0.372515
H120	H	1.254844	0.508406	0.872515
O121	O	0.488516	-0.037074	-0.000362
O122	O	0.988516	0.462926	0.499638
H123	H	0.531993	-0.080767	-0.000324
H124	H	1.031993	0.419233	0.499676
H125	H	0.713288	-0.103444	-0.000345
H126	H	1.213288	0.396556	0.499655
H127	H	0.847729	-0.024333	0.370237
H128	H	1.347729	0.475667	0.870237
H129	H	0.942231	-0.266475	-0.000521
H130	H	1.442231	0.233525	0.499479
O131	O	0.195867	-0.041388	-0.000490
O132	O	0.695867	0.458612	0.499510
H133	H	0.229420	-0.043944	0.100075
H134	H	0.729420	0.456056	0.600075
O135	O	0.954584	-0.570997	-0.000552
O136	O	1.454584	-0.070997	0.499448
H137	H	0.984899	-0.589061	0.099957
H138	H	1.484899	-0.089061	0.599957
H139	H	0.706738	-0.547455	-0.000357
H140	H	1.206738	-0.047455	0.499643
O141	O	0.639887	-0.034843	-0.000296
O142	O	1.139887	0.465157	0.499704
H143	H	0.608259	-0.079644	-0.000316
H144	H	1.108259	0.420356	0.499684
O145	O	0.009083	0.220905	-0.000539
O146	O	0.509083	0.720905	0.499461
H147	H	0.018994	0.251618	-0.101089
H148	H	0.518994	0.751618	0.398911
O149	O	0.160456	0.223138	-0.000491
O150	O	0.660456	0.723138	0.499509
H151	H	0.116979	0.266831	-0.000484
H152	H	0.616979	0.766831	0.499516
O153	O	0.687825	-0.686952	-0.000334
O154	O	1.187825	-0.186952	0.499666
H155	H	0.657522	-0.668893	-0.100862
H156	H	1.157522	-0.168893	0.399138
O157	O	0.044511	-0.043625	-0.000544
O158	O	0.544511	0.456375	0.499456
H159	H	-0.013675	-0.033773	-0.000578
H160	H	0.486325	0.466227	0.499422
O161	O	0.961136	-0.126985	-0.000526
O162	O	1.461136	0.373015	0.499474
H163	H	1.004828	-0.170463	-0.000584
H164	H	1.504828	0.329537	0.499416
H165	H	0.776083	0.204904	0.372636
H166	H	1.276083	0.704904	0.872636
H167	H	0.712774	0.141260	0.371676
H168	H	1.212774	0.641260	0.871676
H169	H	0.711337	-0.235557	-0.000362
H170	H	1.211337	0.264443	0.499638
H171	H	0.597087	0.212725	-0.000354
H172	H	1.097087	0.712725	0.499646
O173	O	0.694849	0.138241	0.640544
O174	O	1.194849	0.638241	1.140544
H175	H	0.671590	0.184791	0.704283
H176	H	1.171590	0.684791	1.204283
O177	O	0.453093	0.227449	-0.000409
O178	O	0.953093	0.727449	0.499591
H179	H	0.484720	0.272252	-0.000417
H180	H	0.984720	0.772252	0.499583
H181	H	0.775835	0.204387	0.628867
H182	H	1.275835	0.704387	1.128867
H183	H	0.909700	0.162511	0.624949
H184	H	1.409700	0.662511	1.124949
H185	H	0.941242	0.069002	0.626435
H186	H	1.441242	0.569002	1.126435
O187	O	0.955523	0.054872	0.358728
O188	O	1.455523	0.554872	0.858728
H189	H	0.933149	0.016261	0.286634
H190	H	1.433149	0.516261	0.786634
H191	H	0.910323	0.161498	0.369837
H192	H	1.410323	0.661498	0.869837
H193	H	0.758160	0.004679	0.628658
H194	H	1.258160	0.504679	1.128658
H195	H	0.852182	-0.022846	0.625817
H196	H	1.352182	0.477154	1.125817
