data_functionalizedCrystal
_audit_creation_method	'MofGen! by Chris Wilmer'
_symmetry_space_group_name_H-M	'P1'
_symmetry_Int_Tables_number	1
_symmetry_cell_setting	triclinic
loop_
_symmetry_equiv_pos_as_xyz
  x,y,z
_cell_length_a	13.032831
_cell_length_b	16.120484
_cell_length_c	13.032268
_cell_angle_alpha	80.357249
_cell_angle_beta	89.113023
_cell_angle_gamma	86.078521
loop_
_atom_site_label
_atom_site_type_symbol
_atom_site_fract_x
_atom_site_fract_y
_atom_site_fract_z
Zn1	Zn	1.458766	-0.562103	0.811459
Zn2	Zn	1.471747	-0.686112	0.646236
Zn3	Zn	1.311081	-0.527333	0.615806
Zn4	Zn	1.278313	-0.681612	0.796116
O5	O	1.379976	-0.614290	0.717404
O6	O	1.603247	-0.594988	0.808698
O7	O	1.469580	-0.652382	0.497592
O8	O	1.338953	-0.415480	0.635446
O9	O	1.612784	-0.686097	0.687309
O10	O	1.447456	-0.441026	0.779192
O11	O	1.351539	-0.535727	0.475236
O12	O	1.163974	-0.531364	0.620568
O13	O	1.283104	-0.678427	0.942758
O14	O	1.139900	-0.644712	0.753041
O15	O	1.415682	-0.590624	0.954031
O16	O	1.437806	-0.801980	0.672431
O17	O	1.295691	-0.798674	0.782547
C18	C	1.114921	-0.583777	0.681838
C19	C	1.001525	-0.570746	0.666648
C20	C	0.939092	-0.621091	0.725332
C21	C	0.821890	-0.607624	0.709634
C22	C	1.364626	-0.830530	0.729153
C23	C	1.358148	-0.923053	0.734226
C24	C	1.346324	-1.092455	0.743510
C25	C	1.413810	-1.135307	0.691340
C26	C	1.407231	-1.229569	0.696506
C27	C	1.352901	-0.998185	0.738345
C28	C	1.646067	-0.644923	0.753110
C29	C	1.759458	-0.657977	0.768325
C30	C	1.344290	-0.637902	0.986938
C31	C	1.329082	-0.647964	1.101797
C32	C	1.395412	-0.397210	0.705636
C33	C	1.401989	-0.304704	0.700622
C34	C	1.415587	-0.590717	0.448924
C35	C	1.431009	-0.580443	0.334079
C36	C	1.387900	-0.609007	1.158582
C37	C	1.372183	-0.619405	1.277296
H38	H	0.792768	-0.711049	0.830198
H39	H	0.972408	-0.674162	0.787198
H40	H	1.476527	-1.101202	0.642796
O41	O	1.271536	-1.133256	0.801326
C42	C	1.196776	-1.265795	0.859320
C43	C	1.281510	-1.219677	0.793791
H44	H	1.204824	-1.335676	0.853269
H45	H	1.118077	-1.237828	0.829149
H46	H	1.204739	-1.258023	0.944125
H47	H	1.273643	-1.227431	0.708973
H48	H	1.360175	-1.247653	0.824049
H49	H	1.449887	-0.567952	1.119311
O50	O	1.298302	-0.668385	1.324302
C51	C	1.215215	-0.723341	1.485471
C52	C	1.298933	-0.667862	1.432372
H53	H	1.215682	-0.722922	1.572850
H54	H	1.231135	-0.790697	1.470430
H55	H	1.136791	-0.697425	1.452421
H56	H	1.377390	-0.693702	1.465389
H57	H	1.282922	-0.600514	1.447407
O58	O	1.504837	-0.531383	1.287119
C59	C	1.542546	-0.409931	1.160949
C60	C	1.458845	-0.465439	1.214026
H61	H	1.505391	-0.356592	1.101858
H62	H	1.599826	-0.449814	1.119558
H63	H	1.584390	-0.382261	1.222203
H64	H	1.416924	-0.493120	1.152838
H65	H	1.401634	-0.425517	1.255438
O66	O	0.781993	-0.544373	0.635832
C67	C	0.628795	-0.473241	0.552957
C68	C	0.673843	-0.544909	0.636562
H69	H	0.541349	-0.473639	0.553535
H70	H	0.659610	-0.482836	0.473140
H71	H	0.652082	-0.410146	0.570353
H72	H	0.650574	-0.608035	0.619265
H73	H	0.643031	-0.535240	0.716353
O74	O	0.961622	-0.507499	0.592851
C75	C	0.808424	-0.436366	0.509976
C76	C	0.853473	-0.508034	0.593581
H77	H	0.720979	-0.436764	0.510554
H78	H	0.839240	-0.445961	0.430159
H79	H	0.831712	-0.373271	0.527371
H80	H	0.830203	-0.571160	0.576284
H81	H	0.822661	-0.498365	0.673372
H82	H	1.267086	-0.689009	1.141066
