data_functionalizedCrystal
_audit_creation_method	'MofGen! by Chris Wilmer'
_symmetry_space_group_name_H-M	'P1'
_symmetry_Int_Tables_number	1
_symmetry_cell_setting	triclinic
loop_
_symmetry_equiv_pos_as_xyz
  x,y,z
_cell_length_a	14.971486
_cell_length_b	16.109301
_cell_length_c	13.448316
_cell_angle_alpha	89.991973
_cell_angle_beta	89.998199
_cell_angle_gamma	83.537805
loop_
_atom_site_label
_atom_site_type_symbol
_atom_site_fract_x
_atom_site_fract_y
_atom_site_fract_z
O1	O	1.186791	0.108348	-0.082581
O2	O	1.520124	0.441681	0.250753
O3	O	1.853458	0.775015	0.584086
O4	O	0.926372	0.121323	-0.082608
O5	O	1.259706	0.454656	0.250725
O6	O	1.593039	0.787989	0.584058
O7	O	1.063736	-0.006187	-0.082584
O8	O	1.397069	0.327147	0.250750
O9	O	1.730402	0.660480	0.584083
O10	O	1.049428	0.235857	-0.082605
O11	O	1.382761	0.569191	0.250728
O12	O	1.716094	0.902524	0.584061
O13	O	1.063718	-0.006195	0.082800
O14	O	1.397052	0.327139	0.416134
O15	O	1.730385	0.660472	0.749467
O16	O	0.926355	0.121315	0.082776
O17	O	1.259688	0.454648	0.416109
O18	O	1.593022	0.787982	0.749442
O19	O	1.186774	0.108340	0.082803
O20	O	1.520107	0.441673	0.416136
O21	O	1.853441	0.775007	0.749470
Cu22	Cu	1.056563	0.114827	0.097890
Cu23	Cu	1.389896	0.448160	0.431224
Cu24	Cu	1.723230	0.781493	0.764557
Cu25	Cu	1.056583	0.114836	-0.097695
Cu26	Cu	1.389917	0.448169	0.235638
Cu27	Cu	1.723250	0.781503	0.568971
O28	O	1.049410	0.235850	0.082778
O29	O	1.382744	0.569183	0.416112
O30	O	1.716077	0.902516	0.749445
C31	C	0.893040	0.120739	0.000080
C32	C	1.226373	0.454072	0.333414
C33	C	1.559706	0.787405	0.666747
C34	C	0.793745	0.119000	0.000070
C35	C	1.127079	0.452333	0.333403
C36	C	1.460412	0.785666	0.666737
C37	C	1.063147	-0.037166	0.000109
C38	C	1.396481	0.296167	0.333442
C39	C	1.729814	0.629500	0.666775
C40	C	1.061410	-0.129464	0.000110
C41	C	1.394743	0.203870	0.333443
C42	C	1.728076	0.537203	0.666777
C43	C	0.736412	0.193908	0.000065
C44	C	1.069745	0.527241	0.333398
C45	C	1.403078	0.860575	0.666732
C46	C	0.643115	0.192269	0.000080
C47	C	0.976448	0.525603	0.333413
C48	C	1.309781	0.858936	0.666746
C49	C	0.607153	0.115721	0.000093
C50	C	0.940486	0.449055	0.333426
C51	C	1.273819	0.782388	0.666760
C52	C	0.664494	0.040807	0.000101
C53	C	0.997827	0.374140	0.333435
C54	C	1.331160	0.707474	0.666768
C55	C	0.757789	0.042447	0.000093
C56	C	1.091122	0.375780	0.333427
C57	C	1.424455	0.709113	0.666760
C58	C	0.470036	0.037395	0.000115
C59	C	0.803369	0.370728	0.333449
C60	C	1.136703	0.704062	0.666782
C61	C	0.376734	0.035755	0.000121
C62	C	0.710068	0.369088	0.333455
C63	C	1.043401	0.702421	0.666788
C64	C	0.355362	0.187217	0.000102
C65	C	0.688695	0.520551	0.333435
C66	C	1.022029	0.853884	0.666768
C67	C	0.448657	0.188857	0.000094
C68	C	0.781990	0.522190	0.333427
C69	C	1.115324	0.855524	0.666760
C70	C	0.505991	0.113942	0.000100
C71	C	0.839325	0.447276	0.333434
C72	C	1.172658	0.780609	0.666767
C73	C	1.138878	-0.351640	0.000102
C74	C	1.472212	-0.018306	0.333436
C75	C	1.805545	0.315027	0.666769
C76	C	1.137239	-0.438362	0.000094
C77	C	1.470572	-0.105029	0.333427
C78	C	1.803905	0.228305	0.666761
C79	C	0.974262	-0.418691	0.000081
C80	C	1.307595	-0.085357	0.333414
C81	C	1.640928	0.247976	0.666747
C82	C	0.975902	-0.331970	0.000082
C83	C	1.309236	0.001363	0.333415
C84	C	1.642569	0.334697	0.666749
C85	C	1.058213	-0.298447	0.000098
C86	C	1.391546	0.034886	0.333431
C87	C	1.724880	0.368220	0.666765
C88	C	1.054933	-0.471890	0.000088
C89	C	1.388266	-0.138557	0.333422
C90	C	1.721600	0.194776	0.666755
C91	C	1.053155	-0.565918	0.000079
C92	C	1.386488	-0.232585	0.333413
C93	C	1.719821	0.100748	0.666746
C94	C	1.059992	-0.204413	0.000105
C95	C	1.393325	0.128921	0.333438
C96	C	1.726659	0.462254	0.666772
C97	C	1.220106	0.108924	0.000112
C98	C	1.553440	0.442258	0.333446
C99	C	1.886773	0.775591	0.666779
C100	C	1.319401	0.110663	0.000116
C101	C	1.652734	0.443996	0.333449
C102	C	1.986068	0.777330	0.666783
C103	C	1.049999	0.266829	0.000084
C104	C	1.383332	0.600162	0.333417
C105	C	1.716665	0.933496	0.666751
C106	C	1.051736	0.359127	0.000076
C107	C	1.385070	0.692460	0.333409
C108	C	1.718403	1.025793	0.666743
N109	N	1.056555	0.114820	0.235454
N110	N	1.389888	0.448153	0.568788
N111	N	1.723222	0.781486	0.902121
N112	N	1.056598	0.114837	-0.235260
N113	N	1.389931	0.448170	0.098074
N114	N	1.723265	0.781503	0.431407
C115	C	1.117398	0.058382	0.287506
C116	C	1.450732	0.391715	0.620839
C117	C	1.784065	0.725048	0.954172
C118	C	1.117404	0.058381	0.391609
C119	C	1.450737	0.391714	0.724942
C120	C	1.784071	0.725048	1.058276
C121	C	1.056570	0.114823	0.443659
C122	C	1.389903	0.448156	0.776992
C123	C	1.723236	0.781490	1.110326
C124	C	0.995720	0.171264	0.391601
C125	C	1.329053	0.504597	0.724934
C126	C	1.662387	0.837930	1.058267
C127	C	0.995711	0.171260	0.287499
C128	C	1.329044	0.504593	0.620833
C129	C	1.662377	0.837926	0.954166
C130	C	0.995745	0.171269	0.608581
C131	C	1.329078	0.504603	0.941914
C132	C	1.662411	0.837936	1.275247
C133	C	0.995755	0.171275	0.712689
C134	C	1.329088	0.504608	1.046022
C135	C	1.662421	0.837941	1.379356
C136	C	1.117438	0.058391	0.712690
C137	C	1.450771	0.391724	1.046024
C138	C	1.784105	0.725057	1.379357
C139	C	1.117429	0.058387	0.608589
C140	C	1.450762	0.391720	0.941922
C141	C	1.784095	0.725053	1.275256
C142	C	1.056580	0.114829	0.556538
C143	C	1.389913	0.448162	0.889871
C144	C	1.723247	0.781495	1.223204
H145	H	0.765684	0.256242	0.000053
H146	H	1.099017	0.589576	0.333387
H147	H	1.432351	0.922909	0.666720
Br148	Br	1.199975	-0.018217	0.462253
Br149	Br	1.533308	0.315116	0.795587
Br150	Br	1.866642	0.648449	1.128920
Br151	Br	0.277553	0.288887	0.000091
Br152	Br	0.610886	0.622221	0.333425
Br153	Br	0.944219	0.955554	0.666758
H154	H	0.596437	0.253267	0.000074
H155	H	0.929770	0.586601	0.333408
H156	H	1.263104	0.919934	0.666741
H157	H	1.202924	-0.481669	0.000096
H158	H	1.536258	-0.148335	0.333429
H159	H	1.869591	0.184998	0.666762
H160	H	0.946216	0.217235	0.755063
H161	H	1.279550	0.550568	1.088396
H162	H	1.612883	0.883901	1.421730
Br163	Br	0.913158	0.247867	0.537943
Br164	Br	1.246491	0.581200	0.871276
Br165	Br	1.579825	0.914533	1.204609
Br166	Br	0.913150	0.247860	0.462236
Br167	Br	1.246484	0.581193	0.795569
Br168	Br	1.579817	0.914526	1.128903
H169	H	0.477934	0.251189	0.000074
H170	H	0.811267	0.584522	0.333407
H171	H	1.144601	0.917856	0.666740
H172	H	0.347458	-0.026577	0.000133
H173	H	0.680791	0.306756	0.333467
H174	H	1.014124	0.640089	0.666800
Br175	Br	0.866420	-0.259773	0.000062
Br176	Br	1.199753	0.073560	0.333396
Br177	Br	1.533087	0.406893	0.666729
H178	H	0.946165	0.217216	0.245120
H179	H	1.279498	0.550549	0.578453
H180	H	1.612832	0.883883	0.911787
Br181	Br	0.615689	-0.063081	0.000129
Br182	Br	0.949023	0.270252	0.333462
Br183	Br	1.282356	0.603586	0.666796
Br184	Br	0.547847	-0.064276	0.000129
Br185	Br	0.881180	0.269058	0.333462
Br186	Br	1.214513	0.602391	0.666796
H187	H	0.804470	-0.018551	0.000097
H188	H	1.137803	0.314782	0.333431
H189	H	1.471136	0.648115	0.666764
H190	H	1.205901	-0.324348	0.000113
H191	H	1.539234	0.008985	0.333447
H192	H	1.872568	0.342318	0.666780
Br193	Br	0.862559	-0.464192	0.000056
Br194	Br	1.195893	-0.130859	0.333390
Br195	Br	1.529226	0.202475	0.666723
H196	H	1.166940	0.012424	0.245133
H197	H	1.500274	0.345757	0.578467
H198	H	1.833607	0.679090	0.911800
Br199	Br	1.199997	-0.018205	0.537946
Br200	Br	1.533330	0.315128	0.871279
Br201	Br	1.866663	0.648461	1.204613
Br202	Br	1.200021	-0.018204	0.783334
Br203	Br	1.533354	0.315129	1.116668
Br204	Br	1.866688	0.648463	1.450001
