data_functionalizedCrystal
_audit_creation_method	'MofGen! by Chris Wilmer'
_symmetry_space_group_name_H-M	'P1'
_symmetry_Int_Tables_number	1
_symmetry_cell_setting	triclinic
loop_
_symmetry_equiv_pos_as_xyz
  x,y,z
_cell_length_a	15.625950
_cell_length_b	17.019294
_cell_length_c	14.750779
_cell_angle_alpha	73.621426
_cell_angle_beta	120.090508
_cell_angle_gamma	85.048481
loop_
_atom_site_label
_atom_site_type_symbol
_atom_site_fract_x
_atom_site_fract_y
_atom_site_fract_z
O1	O	1.285627	0.024797	0.365495
O2	O	0.997901	0.059096	0.262536
O3	O	1.152381	-0.075753	0.327443
O4	O	1.131147	0.159646	0.300587
O5	O	1.196051	-0.113869	0.505442
O6	O	1.041570	0.020980	0.440534
O7	O	1.329297	-0.013320	0.543493
Zn8	Zn	1.192367	-0.002222	0.520275
Zn9	Zn	1.134831	0.047999	0.285754
O10	O	1.174817	0.121530	0.478586
C11	C	0.982968	0.042259	0.338557
C12	C	0.873412	0.048868	0.299887
C13	C	0.631990	-0.033212	0.657706
C14	C	0.529030	-0.026975	0.621318
C15	C	0.481474	0.014575	0.427289
C16	C	0.584431	0.008346	0.463660
C17	C	0.659682	-0.015549	0.578870
C18	C	0.612123	0.026009	0.384825
C19	C	0.715072	0.019776	0.421194
C20	C	0.790329	-0.004120	0.536399
C21	C	0.762631	-0.021781	0.615240
C22	C	0.536872	0.049897	0.269616
C23	C	0.564564	0.067560	0.190780
C24	C	0.667514	0.061334	0.227148
C25	C	0.742770	0.037438	0.342353
C26	C	0.695212	0.078995	0.148308
C27	C	0.798161	0.072762	0.184677
C28	C	0.845719	0.031205	0.378723
C29	C	1.174272	-0.124735	0.418935
C30	C	1.174427	-0.213896	0.426357
C31	C	1.150699	-0.235003	0.332818
C32	C	1.150839	-0.318779	0.339792
C33	C	1.174716	-0.381449	0.440309
C34	C	1.198444	-0.360337	0.533854
C35	C	1.198296	-0.276561	0.526876
C36	C	1.176347	-0.635437	0.466230
C37	C	1.176496	-0.719218	0.473202
C38	C	1.128890	-0.677654	0.279139
C39	C	1.128750	-0.593879	0.272172
C40	C	1.152473	-0.572774	0.365715
C41	C	1.174864	-0.467082	0.447442
C42	C	1.152318	-0.487140	0.358579
C43	C	1.344229	0.003518	0.467470
C44	C	1.453784	-0.003089	0.506133
C45	C	1.152925	0.170512	0.387092
C46	C	1.152768	0.259675	0.379663
N47	N	1.231641	-0.036497	0.680332
N48	N	1.095564	0.082267	0.125701
C49	C	0.985877	0.177956	0.928894
C50	C	1.013405	0.153943	1.040958
C51	C	1.150224	0.034572	1.098403
C52	C	1.122704	0.058573	0.986341
C53	C	1.040531	0.130266	0.901594
C54	C	1.177358	0.010882	0.959041
C55	C	1.149843	0.034884	0.846989
C56	C	1.067675	0.106575	0.762237
C57	C	1.013016	0.154267	0.789542
C58	C	1.259536	-0.060807	1.043790
C59	C	1.314189	-0.108497	1.016490
C60	C	1.286670	-0.084499	0.904435
C61	C	1.204502	-0.012808	0.819684
C62	C	1.341329	-0.132191	0.877130
C63	C	1.313815	-0.108190	0.765078
C64	C	1.176988	0.011194	0.707632
H65	H	0.506487	-0.041341	0.685522
H66	H	1.217604	-0.259376	0.603040
H67	H	1.132871	-0.436110	0.276736
H68	H	1.194307	-0.518118	0.529284
H69	H	1.381098	-0.166869	1.085503
C70	C	1.124434	-0.166073	0.222248
H71	H	1.110313	-0.190644	0.167536
H72	H	1.181062	-0.142963	0.236422
H73	H	1.065701	-0.122092	0.194557
C74	C	1.037404	0.132983	0.638980
H75	H	0.980643	0.182514	0.592422
H76	H	1.018883	0.088000	0.613517
H77	H	1.094012	0.144744	0.634958
H78	H	0.874156	-0.009195	0.566009
H79	H	1.131521	-0.335959	0.263624
H80	H	1.195936	-0.770244	0.555057
H81	H	0.906992	0.011760	0.472536
H82	H	0.633930	0.098442	0.054505
H83	H	0.420193	0.034026	0.333485
C84	C	0.953283	0.206404	1.070989
H85	H	0.981441	0.181847	1.149862
H86	H	0.883100	0.206496	1.030106
H87	H	0.958237	0.263234	1.051543
C88	C	0.845417	-0.048089	0.741973
H89	H	0.814185	-0.057728	0.783723
H90	H	0.877966	-0.003953	0.753295
H91	H	0.895168	-0.098840	0.767088
C92	C	0.423631	0.056741	0.229606
H93	H	0.382784	0.073486	0.149704
H94	H	0.400487	0.097923	0.250277
H95	H	0.417761	0.003021	0.264142
H96	H	1.217133	-0.023800	1.167416
H97	H	1.110067	0.069568	0.638624
H98	H	0.503283	0.087012	0.096976
C99	C	0.922617	0.233120	0.696308
H100	H	0.914056	0.240577	0.625665
H101	H	0.936563	0.282090	0.713575
H102	H	0.861453	0.225328	0.692153
H103	H	0.820706	0.087149	0.120480
C104	C	0.895485	0.256816	0.835667
H105	H	0.866874	0.281786	0.867971
H106	H	0.844349	0.240290	0.780041
H107	H	0.919480	0.297033	0.801485
H108	H	1.281938	-0.080344	1.135029
H109	H	1.195683	-0.618268	0.542407
H110	H	1.408242	-0.190559	0.946146
H111	H	1.358321	-0.147024	0.742853
H112	H	0.693262	-0.052656	0.751519
H113	H	1.109309	-0.542857	0.190321
H114	H	1.217879	-0.411368	0.615695
C115	C	1.102785	-0.700871	0.176247
H116	H	1.106283	-0.759738	0.194791
H117	H	1.150654	-0.689039	0.156163
H118	H	1.035294	-0.668164	0.114305
