data_functionalizedCrystal
_audit_creation_method	'MofGen! by Chris Wilmer'
_symmetry_space_group_name_H-M	'P1'
_symmetry_Int_Tables_number	1
_symmetry_cell_setting	triclinic
loop_
_symmetry_equiv_pos_as_xyz
  x,y,z
_cell_length_a	11.026607
_cell_length_b	10.654553
_cell_length_c	9.730223
_cell_angle_alpha	89.999314
_cell_angle_beta	89.999947
_cell_angle_gamma	96.536097
loop_
_atom_site_label
_atom_site_type_symbol
_atom_site_fract_x
_atom_site_fract_y
_atom_site_fract_z
O1	O	0.170781	1.704903	-0.114302
O2	O	0.187046	1.342956	-0.114301
O3	O	0.002008	1.493932	-0.114296
O4	O	0.355819	1.553927	-0.114306
O5	O	0.002012	1.493930	0.114284
O6	O	0.187051	1.342955	0.114279
O7	O	0.170785	1.704902	0.114278
Zn8	Zn	0.178919	1.523928	0.150571
Zn9	Zn	0.178913	1.523930	-0.150593
O10	O	0.355824	1.553926	0.114274
C11	C	0.185853	1.295898	-0.000011
C12	C	0.182278	1.155679	-0.000010
C13	C	0.177233	0.958042	0.124579
C14	C	0.180600	1.089794	0.124587
C15	C	0.180602	1.089806	-0.124623
C16	C	0.177244	0.958058	-0.124630
C17	C	0.177227	0.958035	0.268459
C18	C	0.180593	1.089787	0.268467
C19	C	-0.043294	1.482863	-0.000008
C20	C	-0.178286	1.449868	-0.000012
C21	C	-0.251324	1.540972	-0.000015
C22	C	-0.390846	1.506872	-0.000020
C23	C	0.401126	1.564995	-0.000018
C24	C	0.536118	1.597989	-0.000022
C25	C	0.171978	1.751960	-0.000015
C26	C	0.175553	1.892179	-0.000024
N27	N	0.178922	1.523936	0.356107
N28	N	0.178900	1.523929	-0.356129
C29	C	0.097015	1.590816	0.428035
C30	C	0.097000	1.590809	0.571918
C31	C	0.260811	1.457041	0.571932
C32	C	0.260819	1.457041	0.428052
C33	C	0.002444	1.668051	0.428028
C34	C	0.002429	1.668044	0.571911
H35	H	0.175891	0.904439	-0.226094
H36	H	0.023262	1.769078	0.610961
H37	H	0.088554	0.909214	0.313101
H38	H	0.327487	1.402576	0.630525
H39	H	0.269272	1.138601	0.313111
C40	C	-0.116866	1.600912	0.632196
N41	N	-0.206714	1.550342	0.677603
C42	C	-0.408830	1.737475	-0.000021
N43	N	-0.367364	1.842534	-0.000018
C44	C	0.290539	0.920123	0.343465
N45	N	0.375813	0.891561	0.400094
C46	C	0.182452	1.162285	-0.261682
N47	N	0.183841	1.216874	-0.364917
H48	H	0.096568	1.117831	0.323706
H49	H	-0.431602	1.403624	-0.000028
C50	C	-0.123799	1.611670	0.375265
N51	N	-0.218882	1.569202	0.335524
H52	H	-0.210563	1.644213	-0.000006
C53	C	-0.233347	1.310390	-0.000010
N54	N	-0.274816	1.205332	-0.000004
H55	H	0.327503	1.402569	0.369489
H56	H	0.032057	1.765662	0.383401
