data_functionalizedCrystal
_audit_creation_method	'MofGen! by Chris Wilmer'
_symmetry_space_group_name_H-M	'P1'
_symmetry_Int_Tables_number	1
_symmetry_cell_setting	triclinic
loop_
_symmetry_equiv_pos_as_xyz
  x,y,z
_cell_length_a	18.426585
_cell_length_b	14.560438
_cell_length_c	18.426585
_cell_angle_alpha	60.006228
_cell_angle_beta	90.001513
_cell_angle_gamma	60.000820
loop_
_atom_site_label
_atom_site_type_symbol
_atom_site_fract_x
_atom_site_fract_y
_atom_site_fract_z
Zr1	Zr	0.699138	1.005234	-0.095141
O2	O	0.583261	1.196819	-0.210997
O3	O	0.734656	0.813649	-0.059640
O4	O	0.734654	1.005242	-0.211023
O5	O	0.583269	1.005219	0.059817
O6	O	0.854080	1.005249	-0.211026
O7	O	0.583263	1.005226	-0.059614
O8	O	0.854083	0.662524	0.059771
O9	O	0.583266	1.347944	-0.210979
O10	O	0.838935	0.892456	-0.044483
O11	O	0.749813	0.892446	0.044649
O12	O	0.749811	1.118022	-0.133584
O13	O	0.660690	1.118012	-0.044452
Zr14	Zr	0.889618	1.005234	0.095333
Zr15	Zr	0.889608	1.005244	-0.095145
Zr16	Zr	0.699147	1.005224	0.095338
Zr17	Zr	0.699145	1.246262	-0.095113
Zr18	Zr	0.889610	0.764206	0.095305
O19	O	0.854100	1.196819	0.059832
O20	O	0.854086	1.196833	-0.211004
O21	O	0.583275	1.196804	0.059839
O22	O	1.005494	0.813649	0.211189
O23	O	1.005480	0.813664	-0.059647
O24	O	0.734670	0.813635	0.211196
O25	O	1.005486	1.005249	-0.059625
O26	O	0.854102	1.005226	0.211215
O27	O	0.734676	1.005219	0.211218
O28	O	1.005492	1.005242	0.059806
O29	O	0.734665	1.347952	-0.210983
O30	O	0.854091	0.662516	0.211176
O31	O	1.005489	0.662524	0.211172
O32	O	1.005482	0.662532	0.059767
O33	O	0.583274	1.347936	-0.059574
O34	O	0.734673	1.347944	-0.059578
O35	O	0.838944	0.892446	0.133777
O36	O	0.928066	0.892456	0.044645
O37	O	0.838942	1.118022	-0.044457
O38	O	0.749820	1.118012	0.044675
C39	C	0.794368	0.703745	0.000061
C40	C	0.794365	0.601423	0.000049
C41	C	0.728574	0.636549	-0.065710
C42	C	0.728588	0.540360	-0.065666
C43	C	0.860188	0.373919	0.065906
C44	C	0.860177	0.470107	0.065857
C45	C	0.662763	0.767865	-0.131518
C46	C	0.596966	0.802998	-0.197283
C47	C	0.596980	0.706809	-0.197238
C48	C	0.662791	0.575487	-0.131429
C49	C	0.556128	1.005221	0.000102
C50	C	0.475268	1.005217	0.000104
C51	C	0.179154	1.005256	0.000089
C52	C	0.261540	1.005251	0.000091
C53	C	0.327208	1.005237	0.000096
C54	C	0.409600	1.005231	0.000099
C55	C	1.032627	1.005247	0.000090
C56	C	1.113487	1.005251	0.000088
C57	C	0.794365	1.005247	-0.238163
C58	C	0.794361	1.005251	-0.319027
C59	C	0.794387	1.306723	0.000131
C60	C	0.794390	1.409045	0.000143
C61	C	0.794395	1.005212	-0.615110
C62	C	0.794387	1.005217	-0.532729
C63	C	0.794377	1.005231	-0.467071
C64	C	0.794371	1.005237	-0.384684
C65	C	0.794390	1.005221	0.238356
C66	C	0.794394	1.005217	0.319219
C67	C	1.032618	0.703758	0.000055
C68	C	1.113474	0.601440	0.000041
C69	C	0.794381	0.703732	0.238321
C70	C	0.794382	0.601406	0.319172
C71	C	1.032630	0.703745	0.238315
C72	C	1.113491	0.601423	0.319164
C73	C	0.556125	1.306723	-0.238122
C74	C	0.475265	1.409045	-0.318972
C75	C	0.556138	1.306710	0.000137
C76	C	0.475281	1.409028	0.000151
C77	C	0.794375	1.306736	-0.238128
C78	C	0.794374	1.409062	-0.318980
C79	C	1.104920	0.553390	-0.046497
C80	C	1.180886	0.457265	-0.046528
C81	C	1.265405	0.409184	-0.000015
C82	C	1.273958	0.457243	0.046525
C83	C	1.197993	0.553373	0.046550
C84	C	0.840907	0.553352	0.403673
C85	C	0.840905	0.457218	0.479648
C86	C	0.794381	0.409134	0.471122
C87	C	0.747850	0.457197	0.386612
C88	C	0.747847	0.553335	0.310639
C89	C	1.197992	0.553376	0.310606
C90	C	1.273977	0.457246	0.386565
C91	C	1.265458	0.409159	0.471082
C92	C	1.180947	0.457215	0.479638
C93	C	1.104965	0.553349	0.403680
C94	C	0.390763	1.457104	-0.310413
C95	C	0.314779	1.553263	-0.386372
C96	C	0.323298	1.601356	-0.470889
C97	C	0.407808	1.553293	-0.479446
C98	C	0.483791	1.457142	-0.403487
C99	C	0.483836	1.457088	0.046681
C100	C	0.407870	1.553240	0.046691
C101	C	0.323350	1.601324	0.000176
C102	C	0.314798	1.553260	-0.046360
C103	C	0.390763	1.457117	-0.046375
C104	C	0.840907	1.457117	-0.310425
C105	C	0.840923	1.553251	-0.386386
C106	C	0.794401	1.601336	-0.470901
C107	C	0.747867	1.553272	-0.479454
C108	C	0.747856	1.457133	-0.403494
H109	H	0.662811	0.497170	-0.131412
H110	H	0.878790	1.417981	-0.241615
H111	H	0.794417	1.679619	-0.532746
O112	O	1.365120	0.405369	0.096701
H113	H	1.416498	0.330440	0.088868
O114	O	0.794403	0.305419	0.553068
H115	H	0.834586	0.280075	0.613256
O116	O	0.381554	1.405256	-0.219265
H117	H	0.413923	1.299205	-0.182439
H118	H	0.261502	1.679610	0.000195
O119	O	0.223635	1.605127	-0.096530
H120	H	0.172257	1.680045	-0.088690
O121	O	1.207223	0.605177	0.096763
H122	H	1.278759	0.555574	0.129108
O123	O	0.526021	0.744690	-0.268166
H124	H	0.480256	0.852160	-0.313927
O125	O	0.891092	0.605197	0.412888
H126	H	0.883290	0.680115	0.345869
H127	H	1.174024	0.418048	0.548462
O128	O	0.417105	1.605048	0.096902
H129	H	0.454018	1.648821	0.070037
H130	H	1.036163	0.592457	0.410661
O131	O	0.931132	0.432245	0.136778
H132	H	0.927903	0.373912	0.203126
O133	O	0.381532	1.405271	-0.096554
H134	H	0.309996	1.454857	-0.128886
H135	H	0.245974	1.592379	-0.379388
O136	O	0.662753	0.871604	-0.131561
H137	H	0.725940	0.861013	-0.137961
H138	H	0.878799	0.418097	0.548452
H139	H	0.261421	1.679648	-0.532732
H140	H	0.878815	1.592374	-0.379404
O141	O	0.697655	1.405325	-0.412739
H142	H	0.744612	1.299273	-0.380378
O143	O	0.931161	0.232288	0.136890
H144	H	0.920110	0.171305	0.125881
H145	H	0.709971	0.418032	0.379683
H146	H	0.709964	0.592448	0.241837
H147	H	1.036107	0.592536	-0.084384
H148	H	0.709990	1.592438	-0.548277
O149	O	1.207191	0.605247	0.219453
H150	H	1.278722	0.555689	0.226277
H151	H	0.414734	1.592463	-0.548268
O152	O	1.365121	0.405409	0.377327
H153	H	1.358272	0.454984	0.305794
H154	H	1.327335	0.330880	0.532925
H155	H	0.552594	1.418014	-0.410467
H156	H	0.552649	1.417945	0.084566
H157	H	0.543389	0.909924	-0.250866
O158	O	1.171653	0.405434	-0.096722
H159	H	1.134773	0.361615	-0.069823
O160	O	1.347338	0.305490	-0.000037
H161	H	1.327181	0.280153	-0.040207
