data_functionalizedCrystal
_audit_creation_method	'MofGen! by Chris Wilmer'
_symmetry_space_group_name_H-M	'P1'
_symmetry_Int_Tables_number	1
_symmetry_cell_setting	triclinic
loop_
_symmetry_equiv_pos_as_xyz
  x,y,z
_cell_length_a	29.839134
_cell_length_b	29.839131
_cell_length_c	17.077396
_cell_angle_alpha	89.960433
_cell_angle_beta	89.980462
_cell_angle_gamma	90.015800
loop_
_atom_site_label
_atom_site_type_symbol
_atom_site_fract_x
_atom_site_fract_y
_atom_site_fract_z
Zn1	Zn	0.686771	-0.179086	-0.443783
Zn2	Zn	1.186771	0.320914	0.056217
Zn3	Zn	0.686702	-0.254217	-0.312491
Zn4	Zn	1.186702	0.245783	0.187509
Zn5	Zn	0.611645	-0.179076	-0.312531
Zn6	Zn	1.111645	0.320924	0.187469
Zn7	Zn	0.611610	-0.254164	-0.443715
Zn8	Zn	1.111610	0.245836	0.056285
O9	O	0.649182	-0.216636	-0.378130
O10	O	1.149182	0.283364	0.121870
O11	O	0.749629	-0.189079	-0.426379
O12	O	1.249629	0.310921	0.073621
O13	O	0.676731	-0.244267	-0.202650
O14	O	1.176731	0.255733	0.297350
O15	O	0.621654	-0.116210	-0.329986
O16	O	1.121654	0.383790	0.170014
O17	O	0.749578	-0.244277	-0.329919
O18	O	1.249578	0.255723	0.170081
O19	O	0.676849	-0.116218	-0.426417
O20	O	1.176849	0.383782	0.073583
O21	O	0.621587	-0.189062	-0.202678
O22	O	1.121587	0.310938	0.297322
O23	O	0.548773	-0.189011	-0.329921
O24	O	1.048773	0.310989	0.170079
O25	O	0.621595	-0.244187	-0.553571
O26	O	1.121595	0.255813	-0.053571
O27	O	0.548748	-0.244178	-0.426301
O28	O	1.048748	0.255822	0.073699
O29	O	0.676816	-0.189028	-0.553621
O30	O	1.176816	0.310972	-0.053621
O31	O	0.676697	-0.317077	-0.329854
O32	O	1.176697	0.182923	0.170146
O33	O	0.621528	-0.317039	-0.426263
O34	O	1.121528	0.182961	0.073737
C35	C	0.532460	-0.216588	-0.378108
C36	C	1.032460	0.283412	0.121892
C37	C	0.482525	-0.216578	-0.378117
C38	C	0.982525	0.283422	0.121883
C39	C	0.649114	-0.333359	-0.378064
C40	C	1.149114	0.166641	0.121936
C41	C	0.649125	-0.383293	-0.378062
C42	C	1.149125	0.116707	0.121938
C43	C	0.125960	-0.187954	-0.428455
C44	C	0.625960	0.312046	0.071545
C45	C	0.313633	-0.187918	-0.428437
C46	C	0.813633	0.312082	0.071563
O47	O	0.337917	-0.163524	-0.471232
O48	O	0.837917	0.336476	0.028768
N49	N	0.337080	-0.216607	-0.378136
N50	N	0.837080	0.283393	0.121864
C51	C	0.313605	-0.245310	-0.327839
C52	C	0.813605	0.254690	0.172161
O53	O	0.337854	-0.269715	-0.285061
O54	O	0.837854	0.230285	0.214939
C55	C	0.125933	-0.245348	-0.327862
C56	C	0.625933	0.254652	0.172138
C57	C	0.102489	-0.216654	-0.378161
C58	C	0.602489	0.283346	0.121839
C59	C	0.102516	-0.159262	-0.478750
C60	C	0.602516	0.340738	0.021250
C61	C	0.055601	-0.159270	-0.478751
C62	C	0.555601	0.340730	0.021249
C63	C	0.032129	-0.187969	-0.428457
C64	C	0.532129	0.312031	0.071543
C65	C	0.055574	-0.216661	-0.378162
C66	C	0.555574	0.283339	0.121838
C67	C	0.102459	-0.274053	-0.277570
C68	C	0.602459	0.225947	0.222430
C69	C	0.055538	-0.274060	-0.277582
C70	C	0.555538	0.225940	0.222418
C71	C	0.032094	-0.245366	-0.327880
C72	C	0.532094	0.254634	0.172120
C73	C	-0.014813	-0.245368	-0.327869
C74	C	0.485187	0.254632	0.172131
N75	N	-0.038260	-0.216679	-0.378170
N76	N	0.461740	0.283321	0.121830
C77	C	-0.014788	-0.187979	-0.428464
C78	C	0.485212	0.312021	0.071536
C79	C	0.412136	-0.245287	-0.327830
C80	C	0.912136	0.254713	0.172170
C81	C	0.459054	-0.245277	-0.327823
C82	C	0.959054	0.254723	0.172177
C83	C	0.459079	-0.187886	-0.428422
C84	C	0.959079	0.312114	0.071578
C85	C	0.412160	-0.187894	-0.428424
C86	C	0.912160	0.312106	0.071576
C87	C	0.388689	-0.216598	-0.378131
C88	C	0.888689	0.283402	0.121869
C89	C	-0.113314	-0.187997	-0.428462
C90	C	0.386686	0.312003	0.071538
C91	C	-0.160234	-0.188006	-0.428456
C92	C	0.339766	0.311994	0.071544
C93	C	-0.160255	-0.245399	-0.327860
C94	C	0.339745	0.254601	0.172140
C95	C	-0.113339	-0.245389	-0.327863
C96	C	0.386661	0.254611	0.172137
C97	C	-0.089870	-0.216686	-0.378170
C98	C	0.410130	0.283314	0.121830
O99	O	-0.039126	-0.269753	-0.285102
O100	O	0.460874	0.230247	0.214898
O101	O	-0.039046	-0.163585	-0.471248
O102	O	0.460954	0.336415	0.028752
C103	C	0.172876	-0.187947	-0.428454
C104	C	0.672876	0.312053	0.071546
C105	C	0.196320	-0.216638	-0.378159
C106	C	0.696320	0.283362	0.121841
C107	C	0.172849	-0.245338	-0.327865
C108	C	0.672849	0.254662	0.172135
C109	C	0.243238	-0.216628	-0.378152
C110	C	0.743238	0.283372	0.121848
C111	C	0.266709	-0.187929	-0.428446
C112	C	0.766709	0.312071	0.071554
C113	C	0.243263	-0.159240	-0.478747
C114	C	0.743263	0.340760	0.021253
C115	C	0.196347	-0.159247	-0.478748
C116	C	0.696347	0.340753	0.021252
C117	C	0.196295	-0.274027	-0.277564
C118	C	0.696295	0.225973	0.222436
C119	C	0.243211	-0.274017	-0.277566
C120	C	0.743211	0.225983	0.222434
C121	C	0.266682	-0.245317	-0.327860
C122	C	0.766682	0.254683	0.172140
C123	C	0.677916	-0.692905	-0.428413
C124	C	1.177916	-0.192905	0.071587
C125	C	0.677965	-0.880578	-0.428460
C126	C	1.177965	-0.380578	0.071540
O127	O	0.702376	-0.904817	-0.471221
O128	O	1.202376	-0.404817	0.028779
N129	N	0.649258	-0.904078	-0.378217
N130	N	1.149258	-0.404078	0.121783
C131	C	0.620536	-0.880657	-0.327962
C132	C	1.120536	-0.380657	0.172038
O133	O	0.596117	-0.904951	-0.285234
O134	O	1.096117	-0.404951	0.214766
C135	C	0.620485	-0.692984	-0.327920
C136	C	1.120485	-0.192984	0.172080
C137	C	0.649196	-0.669487	-0.378160
C138	C	1.149196	-0.169487	0.121840
C139	C	0.706625	-0.669408	-0.478650
C140	C	1.206625	-0.169408	0.021350
C141	C	0.706614	-0.622492	-0.478634
C142	C	1.206614	-0.122492	0.021366
C143	C	0.677895	-0.599074	-0.428382
C144	C	1.177895	-0.099074	0.071618
C145	C	0.649186	-0.622572	-0.378145
C146	C	1.149186	-0.122572	0.121855
C147	C	0.591760	-0.669564	-0.277670
C148	C	1.091760	-0.169564	0.222330
C149	C	0.591749	-0.622643	-0.277665
C150	C	1.091749	-0.122643	0.222335
C151	C	0.620461	-0.599146	-0.327905
C152	C	1.120461	-0.099146	0.172095
C153	C	0.620455	-0.552238	-0.327877
C154	C	1.120455	-0.052238	0.172123
N155	N	0.649162	-0.528738	-0.378120
N156	N	1.149162	-0.028738	0.121880
C157	C	0.677881	-0.552156	-0.428373
C158	C	1.177881	-0.052156	0.071627
C159	C	0.620565	-0.979187	-0.327987
C160	C	1.120565	-0.479187	0.172013
C161	C	0.620578	-1.026105	-0.327997
C162	C	1.120578	-0.526105	0.172003
C163	C	0.678007	-1.026023	-0.428495
C164	C	1.178007	-0.526023	0.071505
C165	C	0.677995	-0.979105	-0.428481
C166	C	1.177995	-0.479105	0.071519
C167	C	0.649271	-0.955687	-0.378230
C168	C	1.149271	-0.455687	0.121770
C169	C	0.677857	-0.453631	-0.428336
C170	C	1.177857	0.046369	0.071664
C171	C	0.677845	-0.406711	-0.428314
C172	C	1.177845	0.093289	0.071686
C173	C	0.620415	-0.406797	-0.327819
C174	C	1.120415	0.093203	0.172181
C175	C	0.620428	-0.453712	-0.327837
C176	C	1.120428	0.046288	0.172163
C177	C	0.649151	-0.477128	-0.378103
C178	C	1.149151	0.022872	0.121897
O179	O	0.596053	-0.527971	-0.285145
O180	O	1.096053	-0.027971	0.214855
O181	O	0.702289	-0.527854	-0.471106
O182	O	1.202289	-0.027854	0.028894
C183	C	0.677927	-0.739821	-0.428428
C184	C	1.177927	-0.239821	0.071572
C185	C	0.649218	-0.763318	-0.378191
C186	C	1.149218	-0.263318	0.121809
C187	C	0.620498	-0.739900	-0.327939
C188	C	1.120498	-0.239900	0.172061
C189	C	0.649231	-0.810236	-0.378200
C190	C	1.149231	-0.310236	0.121800
C191	C	0.677951	-0.833654	-0.428453
C192	C	1.177951	-0.333654	0.071547
C193	C	0.706657	-0.810154	-0.478696
C194	C	1.206657	-0.310154	0.021304
C195	C	0.706646	-0.763239	-0.478680
C196	C	1.206646	-0.263239	0.021320
C197	C	0.591792	-0.763400	-0.277696
C198	C	1.091792	-0.263400	0.222304
C199	C	0.591805	-0.810315	-0.277714
C200	C	1.091805	-0.310315	0.222286
C201	C	0.620525	-0.833733	-0.327967
C202	C	1.120525	-0.333733	0.172033
C203	C	0.766360	-0.216685	-0.378152
C204	C	1.266360	0.283315	0.121848
C205	C	0.816295	-0.216705	-0.378162
C206	C	1.316295	0.283295	0.121838
C207	C	0.649209	-0.216603	-0.582874
C208	C	1.149209	0.283397	-0.082874
C209	C	0.649221	-0.216589	-0.670124
C210	C	1.149221	0.283411	-0.170124
C211	C	0.649263	-0.099458	-0.378213
C212	C	1.149263	0.400542	0.121787
C213	C	0.649298	-0.049523	-0.378249
C214	C	1.149298	0.450477	0.121751
C215	C	0.677975	-0.187865	-0.711141
C216	C	1.177975	0.312135	-0.211141
C217	C	0.677981	-0.187850	-0.793122
C218	C	1.177981	0.312150	-0.293122
C219	C	0.649234	-0.216561	-0.834084
C220	C	1.149234	0.283439	-0.334084
C221	C	0.620476	-0.245287	-0.793060
C222	C	1.120476	0.254713	-0.293060
C223	C	0.620469	-0.245299	-0.711081
C224	C	1.120469	0.254701	-0.211081
C225	C	0.620494	-0.245260	-0.963931
C226	C	1.120494	0.254740	-0.463931
C227	C	0.620502	-0.245248	-1.045915
C228	C	1.120502	0.254752	-0.545915
C229	C	0.678006	-0.187810	-1.045971
C230	C	1.178006	0.312190	-0.545971
C231	C	0.677999	-0.187823	-0.963992
C232	C	1.177999	0.312177	-0.463992
C233	C	0.649242	-0.216549	-0.922975
C234	C	1.149242	0.283451	-0.422975
C235	C	0.649181	-0.216636	-0.174182
C236	C	1.149181	0.283364	0.325818
C237	C	0.649256	-0.216524	-0.086933
C238	C	1.149256	0.283476	0.413067
H239	H	-0.179320	-0.164637	-0.469415
H240	H	0.320680	0.335363	0.030585
N241	N	0.386824	-0.276247	-0.273579
N242	N	0.886824	0.223753	0.226421
H243	H	0.408801	-0.294416	-0.241715
H244	H	0.908801	0.205584	0.258285
H245	H	0.367352	-0.257938	-0.237314
H246	H	0.867352	0.242062	0.262686
H247	H	0.597068	-0.268663	-0.826418
H248	H	1.097068	0.231337	-0.326418
H249	H	0.730026	-0.744111	-0.519591
H250	H	1.230026	-0.244111	-0.019591
N251	N	0.589496	-0.276205	-1.090116
N252	N	1.089496	0.223795	-0.590116
H253	H	0.596440	-0.308313	-1.075840
H254	H	1.096440	0.191687	-0.575840
H255	H	0.557412	-0.269173	-1.075837
H256	H	1.057412	0.230827	-0.575837
H257	H	0.597203	-1.045233	-0.287077
H258	H	1.097203	-0.545233	0.212923
N259	N	0.708984	-1.051286	-0.482697
N260	N	1.208984	-0.551286	0.017303
H261	H	0.704633	-1.084573	-0.475075
H262	H	1.204633	-0.584573	0.024925
H263	H	0.701968	-1.043064	-0.538745
H264	H	1.201968	-0.543064	-0.038745
H265	H	0.478197	-0.164517	-0.469372
H266	H	0.978197	0.335483	0.030628
H267	H	0.597053	-0.472845	-0.286921
H268	H	1.097053	0.027155	0.213079
H269	H	0.701421	-0.164420	-1.079372
H270	H	1.201421	0.335580	-0.579372
H271	H	0.597049	-0.268685	-0.677686
H272	H	1.097049	0.231315	-0.177686
N273	N	0.708987	-0.156901	-0.666967
N274	N	1.208987	0.343099	-0.166967
H275	H	0.704624	-0.161270	-0.608809
H276	H	1.204624	0.338730	-0.108809
H277	H	0.741066	-0.163912	-0.681310
H278	H	1.241066	0.336088	-0.181310
N279	N	0.589476	-0.276240	-0.919688
N280	N	1.089476	0.223760	-0.419688
H281	H	0.571267	-0.294428	-0.958075
H282	H	1.071267	0.205572	-0.458075
H283	H	0.607746	-0.297043	-0.885664
H284	H	1.107746	0.202957	-0.385664
H285	H	-0.094211	-0.164625	-0.469426
H286	H	0.405789	0.335375	0.030574
H287	H	0.597174	-0.960124	-0.287065
H288	H	1.097174	-0.460124	0.212935
N289	N	0.030221	-0.305018	-0.223336
N290	N	0.530221	0.194982	0.276664
H291	H	0.038386	-0.337124	-0.235421
H292	H	0.538386	0.162876	0.264579
H293	H	0.038385	-0.297963	-0.167295
H294	H	0.538385	0.202037	0.332705
H295	H	0.036517	-0.135906	-0.519713
H296	H	0.536517	0.364094	-0.019713
N297	N	0.560770	-0.597383	-0.223464
N298	N	1.060770	-0.097383	0.276536
H299	H	0.528669	-0.605559	-0.235608
H300	H	1.028669	-0.105559	0.264392
H301	H	0.567805	-0.605583	-0.167413
H302	H	1.067805	-0.105583	0.332587
N303	N	0.127827	-0.128307	-0.533003
N304	N	0.627827	0.371693	-0.033003
H305	H	0.105849	-0.110135	-0.564861
H306	H	0.605849	0.389865	-0.064861
H307	H	0.147286	-0.107487	-0.501119
H308	H	0.647286	0.392513	-0.001119
H309	H	0.730012	-0.688470	-0.519576
H310	H	1.230012	-0.188470	-0.019576
N311	N	0.127738	-0.305001	-0.223316
N312	N	0.627738	0.194999	0.276684
H313	H	0.105743	-0.323181	-0.191464
H314	H	0.605743	0.176819	0.308536
H315	H	0.147209	-0.325811	-0.255196
H316	H	0.647209	0.174189	0.244804
N317	N	-0.088050	-0.276331	-0.273605
N318	N	0.411950	0.223669	0.226395
H319	H	-0.110040	-0.294512	-0.241742
H320	H	0.389960	0.205488	0.258258
H321	H	-0.068581	-0.297143	-0.305489
H322	H	0.431419	0.202857	0.194511
H323	H	0.478138	-0.268638	-0.286856
H324	H	0.978138	0.231362	0.213144
H325	H	0.568380	-0.688687	-0.236758
H326	H	1.068380	-0.188687	0.263242
N327	N	-0.185575	-0.276349	-0.273610
N328	N	0.314425	0.223651	0.226390
H329	H	-0.218854	-0.271998	-0.281250
H330	H	0.281146	0.228002	0.218750
H331	H	-0.177377	-0.308442	-0.285720
H332	H	0.322623	0.191558	0.214280
N333	N	0.737576	-0.597151	-0.532830
N334	N	1.237576	-0.097151	-0.032830
H335	H	0.769681	-0.605307	-0.520698
H336	H	1.269681	-0.105307	-0.020698
H337	H	0.730539	-0.605308	-0.588882
H338	H	1.230539	-0.105308	-0.088882
H339	H	0.701410	-0.164446	-0.930643
H340	H	1.201410	0.335554	-0.430643
H341	H	0.393075	-0.164528	-0.469381
H342	H	0.893075	0.335472	0.030619
H343	H	0.701397	-0.164461	-0.826515
H344	H	1.201397	0.335539	-0.326515
N345	N	0.589442	-0.381534	-0.273615
N346	N	1.089442	0.118466	0.226385
H347	H	0.593794	-0.348247	-0.281235
H348	H	1.093794	0.151753	0.218765
H349	H	0.557355	-0.389744	-0.285784
H350	H	1.057355	0.110256	0.214216
N351	N	0.171064	-0.128294	-0.532993
N352	N	0.671064	0.371706	-0.032993
H353	H	0.193058	-0.110114	-0.564847
H354	H	0.693058	0.389886	-0.064847
H355	H	0.151602	-0.146605	-0.569266
H356	H	0.651602	0.353395	-0.069266
N357	N	0.268583	-0.128289	-0.533001
N358	N	0.768583	0.371711	-0.033001
H359	H	0.301861	-0.132643	-0.525365
H360	H	0.801861	0.367357	-0.025365
H361	H	0.260392	-0.135328	-0.589037
H362	H	0.760392	0.364672	-0.089037
H363	H	0.262295	-0.297383	-0.236599
H364	H	0.762295	0.202617	0.263401
H365	H	0.177190	-0.297399	-0.236608
H366	H	0.677190	0.202601	0.263392
H367	H	0.701242	-0.472690	-0.469272
H368	H	1.201242	0.027310	0.030728
N369	N	0.708811	-0.381365	-0.482505
N370	N	1.208811	0.118635	0.017495
H371	H	0.740916	-0.389521	-0.470370
H372	H	1.240916	0.110479	0.029630
H373	H	0.701777	-0.389516	-0.538560
H374	H	1.201777	0.110484	-0.038560
N375	N	0.708962	-0.953763	-0.482669
N376	N	1.208962	-0.453763	0.017331
H377	H	0.727157	-0.975722	-0.514501
H378	H	1.227157	-0.475722	-0.014501
H379	H	0.690658	-0.934291	-0.518966
H380	H	1.190658	-0.434291	-0.018966
H381	H	0.730043	-0.829230	-0.519610
H382	H	1.230043	-0.329230	-0.019610
N383	N	0.560839	-0.835656	-0.223517
N384	N	1.060839	-0.335656	0.276483
H385	H	0.542645	-0.813697	-0.191684
H386	H	1.042645	-0.313697	0.308316
H387	H	0.540042	-0.855116	-0.255443
H388	H	1.040042	-0.355116	0.244557
N389	N	0.560816	-0.738145	-0.223489
N390	N	1.060816	-0.238145	0.276511
H391	H	0.542635	-0.760155	-0.191666
H392	H	1.042635	-0.260155	0.308334
H393	H	0.579112	-0.718690	-0.187185
H394	H	1.079112	-0.218690	0.312815
