data_functionalizedCrystal
_audit_creation_method	'MofGen! by Chris Wilmer'
_symmetry_space_group_name_H-M	'P1'
_symmetry_Int_Tables_number	1
_symmetry_cell_setting	triclinic
loop_
_symmetry_equiv_pos_as_xyz
  x,y,z
_cell_length_a	23.532407
_cell_length_b	15.995350
_cell_length_c	15.072220
_cell_angle_alpha	90.005547
_cell_angle_beta	90.000413
_cell_angle_gamma	96.829474
loop_
_atom_site_label
_atom_site_type_symbol
_atom_site_fract_x
_atom_site_fract_y
_atom_site_fract_z
O1	O	0.755652	-0.101631	0.073668
O2	O	1.255652	0.398369	0.573668
O3	O	0.589846	-0.116338	0.073693
O4	O	1.089846	0.383662	0.573693
O5	O	0.677282	0.012941	0.073679
O6	O	1.177282	0.512941	0.573679
O7	O	0.668217	-0.230910	0.073682
O8	O	1.168217	0.269090	0.573682
O9	O	0.677270	0.012925	-0.073886
O10	O	1.177270	0.512925	0.426114
O11	O	0.589834	-0.116354	-0.073872
O12	O	1.089834	0.383646	0.426128
O13	O	0.755641	-0.101647	-0.073897
O14	O	1.255641	0.398353	0.426103
Zn15	Zn	0.672736	-0.109003	-0.097314
Zn16	Zn	1.172736	0.390997	0.402686
Zn17	Zn	0.672751	-0.108982	0.097110
Zn18	Zn	1.172751	0.391018	0.597110
O19	O	0.668205	-0.230926	-0.073883
O20	O	1.168205	0.269074	0.426117
C21	C	0.568623	-0.115971	-0.000086
C22	C	1.068623	0.384029	0.499914
C23	C	0.505401	-0.114846	-0.000076
C24	C	1.005401	0.385154	0.499924
C25	C	0.676901	0.044124	-0.000102
C26	C	1.176901	0.544124	0.499898
C27	C	0.675778	0.137065	-0.000097
C28	C	1.175778	0.637065	0.499903
N29	N	0.672730	-0.109017	-0.230003
N30	N	1.172730	0.390983	0.269997
C31	C	0.106565	-0.184288	-0.000116
C32	C	0.606565	0.315712	0.499884
C33	C	0.047161	-0.183242	-0.000121
C34	C	0.547161	0.316758	0.499879
O35	O	0.010664	-0.247615	-0.000152
O36	O	0.510664	0.252385	0.499848
N37	N	0.024239	-0.106386	-0.000120
N38	N	0.524239	0.393614	0.499880
C39	C	0.060725	-0.030570	-0.000124
C40	C	0.560725	0.469430	0.499876
O41	O	0.035773	0.034898	-0.000124
O42	O	0.535773	0.534898	0.499876
C43	C	0.120128	-0.031617	-0.000124
C44	C	0.620128	0.468383	0.499876
C45	C	0.143047	-0.108478	-0.000116
C46	C	0.643047	0.391522	0.499884
C47	C	0.129484	-0.261143	-0.000108
C48	C	0.629484	0.238857	0.499892
C49	C	0.188885	-0.262188	-0.000101
C50	C	0.688885	0.237812	0.499899
C51	C	0.225366	-0.186379	-0.000101
C52	C	0.725366	0.313621	0.499899
C53	C	0.202447	-0.109524	-0.000109
C54	C	0.702447	0.390476	0.499891
C55	C	0.156613	0.044197	-0.000134
C56	C	0.656613	0.544197	0.499866
C57	C	0.216019	0.043143	-0.000135
C58	C	0.716019	0.543143	0.499865
C59	C	0.238938	-0.033718	-0.000127
C60	C	0.738938	0.466282	0.499873
C61	C	0.298328	-0.034760	-0.000102
C62	C	0.798328	0.465240	0.499898
N63	N	0.321250	-0.111617	-0.000103
N64	N	0.821250	0.388383	0.499897
C65	C	0.284769	-0.187426	-0.000102
C66	C	0.784769	0.312574	0.499898
C67	C	-0.064026	-0.028378	-0.000123
C68	C	0.435974	0.471622	0.499877
C69	C	-0.123428	-0.027330	-0.000116
C70	C	0.376572	0.472670	0.499884
C71	C	-0.136988	-0.180002	-0.000115
C72	C	0.363012	0.319998	0.499885
C73	C	-0.077585	-0.181049	-0.000116
C74	C	0.422415	0.318951	0.499884
C75	C	-0.041104	-0.105234	-0.000124
C76	C	0.458896	0.394766	0.499876
C77	C	0.409514	-0.189616	-0.000087
C78	C	0.909514	0.310384	0.499913
C79	C	0.468920	-0.190655	-0.000076
C80	C	0.968920	0.309345	0.499924
C81	C	0.482475	-0.037984	-0.000081
C82	C	0.982475	0.462016	0.499919
C83	C	0.423074	-0.036944	-0.000087
C84	C	0.923074	0.463056	0.499913
C85	C	0.386594	-0.112767	-0.000093
C86	C	0.886594	0.387233	0.499907
O87	O	0.334860	0.029579	-0.000074
O88	O	0.834860	0.529579	0.499926
O89	O	0.309729	-0.252883	-0.000113
O90	O	0.809729	0.247117	0.499887
C91	C	0.776864	-0.102014	-0.000116
C92	C	1.276864	0.397986	0.499884
C93	C	0.840086	-0.103140	-0.000120
C94	C	1.340086	0.396860	0.499880
C95	C	0.668586	-0.262110	-0.000100
C96	C	1.168586	0.237890	0.499900
C97	C	0.669709	-0.355051	-0.000100
C98	C	1.169709	0.144949	0.499900
C99	C	0.671743	0.474779	-0.000099
C100	C	1.171743	0.974779	0.499901
C101	C	0.609473	0.426827	0.000241
C102	C	1.109473	0.926827	0.500241
C103	C	0.610596	0.330146	-0.000091
C104	C	1.110596	0.830146	0.499909
C105	C	0.673744	0.307235	-0.000097
C106	C	1.173744	0.807235	0.499903
C107	C	0.704452	0.348559	-0.084367
C108	C	1.204452	0.848559	0.415633
C109	C	0.702887	0.445182	-0.084438
C110	C	1.202887	0.945182	0.415562
C111	C	0.704186	0.445569	0.083371
C112	C	1.204186	0.945569	0.583371
C113	C	0.704172	0.348624	0.084485
C114	C	1.204172	0.848624	0.584485
C115	C	0.674879	0.212547	-0.000099
C116	C	1.174879	0.712547	0.499901
C117	C	0.670610	0.569468	-0.000103
C118	C	1.170610	1.069468	0.499897
C119	C	0.672741	-0.108998	-0.411000
C120	C	1.172741	0.391002	0.089000
C121	C	0.625948	-0.178147	-0.448661
C122	C	1.125948	0.321853	0.051339
C123	C	0.625788	-0.177961	-0.551487
C124	C	1.125788	0.322039	-0.051487
C125	C	0.672751	-0.108980	-0.589204
C126	C	1.172751	0.391020	-0.089204
C127	C	0.660015	-0.021616	-0.551860
C128	C	1.160015	0.478384	-0.051860
C129	C	0.659673	-0.022032	-0.449003
C130	C	1.159673	0.477968	0.050997
C131	C	0.732413	-0.126423	-0.448897
C132	C	1.232413	0.373577	0.051103
C133	C	0.732019	-0.128401	-0.551762
C134	C	1.232019	0.371599	-0.051762
C135	C	0.672758	-0.108965	-0.689918
C136	C	1.172758	0.391035	-0.189918
C137	C	0.672732	-0.109008	-0.310287
C138	C	1.172732	0.390992	0.189713
N139	N	0.672761	-0.108961	0.229798
N140	N	1.172761	0.391039	0.729798
H141	H	0.379819	-0.251358	-0.000094
H142	H	0.879819	0.248642	0.499906
O143	O	0.576646	0.452492	-0.079357
O144	O	1.076646	0.952492	0.420643
H145	H	0.538357	0.480854	-0.056652
H146	H	1.038357	0.980854	0.443348
H147	H	0.512188	0.023738	-0.000078
H148	H	1.012188	0.523738	0.499922
H149	H	0.693204	0.031079	-0.576288
H150	H	1.193204	0.531079	-0.076288
H151	H	0.748605	0.477810	-0.088265
H152	H	1.248605	0.977810	0.411735
O153	O	0.780290	-0.065989	-0.585760
O154	O	1.280290	0.434011	-0.085760
H155	H	0.811047	-0.099933	-0.623287
H156	H	1.311047	0.400067	-0.123287
O157	O	0.744831	-0.213531	-0.584094
O158	O	1.244831	0.286469	-0.084094
H159	H	0.786782	-0.226789	-0.557341
H160	H	1.286782	0.273211	-0.057341
O161	O	-0.148144	0.055570	-0.000113
O162	O	0.351856	0.555570	0.499887
H163	H	-0.174885	0.059692	-0.060258
H164	H	0.325115	0.559692	0.439742
H165	H	0.692471	0.030963	-0.424087
H166	H	1.192471	0.530963	0.075913
H167	H	0.680486	0.463290	-0.147426
H168	H	1.180486	0.963290	0.352574
H169	H	0.633338	-0.242907	-0.576737
H170	H	1.133338	0.257093	-0.076737
O171	O	0.567613	-0.163624	-0.414456
O172	O	1.067613	0.336376	0.085544
H173	H	0.567420	-0.166874	-0.340894
H174	H	1.067420	0.333126	0.159106
H175	H	0.617008	-0.005847	-0.577636
H176	H	1.117008	0.494153	-0.077636
H177	H	0.750844	0.334819	-0.087506
H178	H	1.250844	0.834819	0.412494
O179	O	0.765173	0.328790	0.091219
O180	O	1.265173	0.828790	0.591219
H181	H	0.785373	0.358931	0.151597
H182	H	1.285373	0.858931	0.651597
O183	O	-0.024679	0.053398	-0.000118
O184	O	0.475321	0.553398	0.499882
H185	H	-0.050603	0.107011	-0.000111
H186	H	0.449397	0.607011	0.499889
O187	O	0.676195	0.310726	-0.167437
O188	O	1.176195	0.810726	0.332563
H189	H	0.640285	0.262505	-0.148916
H190	H	1.140285	0.762505	0.351084
H191	H	0.683832	0.465947	0.147242
H192	H	1.183832	0.965947	0.647242
O193	O	0.748699	-0.209006	-0.414561
O194	O	1.248699	0.290994	0.085439
H195	H	0.714439	-0.238554	-0.370096
H196	H	1.214439	0.261446	0.129904
O197	O	-0.176343	-0.261770	-0.000132
O198	O	0.323657	0.238230	0.499868
H199	H	-0.203738	-0.264938	0.060005
H200	H	0.296262	0.235062	0.560005
H201	H	0.681721	0.321195	0.146826
H202	H	1.181721	0.821195	0.646826
O203	O	0.090145	-0.342919	-0.000104
O204	O	0.590145	0.157081	0.499896
H205	H	0.062757	-0.346118	-0.060252
H206	H	0.562757	0.153882	0.439748
O207	O	0.131902	0.127097	-0.000161
O208	O	0.631902	0.627097	0.499839
H209	H	0.167258	0.179627	-0.000179
H210	H	0.667258	0.679627	0.499821
H211	H	0.207539	-0.324776	-0.000094
H212	H	0.707539	0.175224	0.499906
O213	O	0.765000	0.488148	0.084130
O214	O	1.265000	0.988148	0.584130
H215	H	0.772112	0.529917	0.025381
H216	H	1.272112	1.029917	0.525381
O217	O	0.635791	-0.264474	-0.415932
O218	O	1.135791	0.235526	0.084068
H219	H	0.633759	-0.265769	-0.342365
H220	H	1.133759	0.234231	0.157635
H221	H	0.245720	0.104882	-0.000142
H222	H	0.745720	0.604882	0.499858
O223	O	0.602043	-0.001640	-0.417233
O224	O	1.102043	0.498360	0.082767
H225	H	0.601230	-0.001722	-0.343602
H226	H	1.101230	0.498278	0.156398
O227	O	0.778540	-0.059634	-0.416631
O228	O	1.278540	0.440366	0.083369
H229	H	0.759098	-0.014242	-0.373810
H230	H	1.259098	0.485758	0.126190
O231	O	0.567151	-0.163133	-0.584108
O232	O	1.067151	0.336867	-0.084108
H233	H	0.538798	-0.156069	-0.526416
H234	H	1.038798	0.343931	-0.026416
H235	H	0.487576	-0.253247	-0.000068
H236	H	0.987576	0.246753	0.499932
H237	H	0.586286	0.302073	-0.060595
H238	H	1.086286	0.802073	0.439405
O239	O	0.398348	0.045952	-0.000094
O240	O	0.898348	0.545952	0.499906
H241	H	0.433699	0.098491	-0.000097
H242	H	0.933699	0.598491	0.499903
O243	O	0.578611	0.292237	0.079915
O244	O	1.078611	0.792237	0.579915
H245	H	0.599375	0.319432	0.141251
H246	H	1.099375	0.819432	0.641251
O247	O	-0.052870	-0.263950	-0.000125
O248	O	0.447130	0.236050	0.499875
H249	H	-0.067526	-0.300351	0.060016
H250	H	0.432474	0.199649	0.560016
O251	O	0.576498	0.451119	0.080275
O252	O	1.076498	0.951119	0.580275
H253	H	0.604136	0.497633	0.120666
H254	H	1.104136	0.997633	0.620666
