data_functionalizedCrystal
_audit_creation_method	'MofGen! by Chris Wilmer'
_symmetry_space_group_name_H-M	'P1'
_symmetry_Int_Tables_number	1
_symmetry_cell_setting	triclinic
loop_
_symmetry_equiv_pos_as_xyz
  x,y,z
_cell_length_a	18.266242
_cell_length_b	19.188930
_cell_length_c	19.188930
_cell_angle_alpha	83.144779
_cell_angle_beta	89.988525
_cell_angle_gamma	89.977082
loop_
_atom_site_label
_atom_site_type_symbol
_atom_site_fract_x
_atom_site_fract_y
_atom_site_fract_z
O1	O	0.061124	-0.926149	-0.087169
O2	O	0.394458	-0.592816	0.246165
O3	O	0.727791	-0.259483	0.579498
O4	O	0.061075	-0.722838	-0.098903
O5	O	0.394409	-0.389505	0.234430
O6	O	0.727742	-0.056171	0.567764
O7	O	0.061087	-0.830361	0.008620
O8	O	0.394420	-0.497027	0.341953
O9	O	0.727754	-0.163694	0.675286
O10	O	0.061113	-0.818627	-0.194691
O11	O	0.394446	-0.485293	0.138642
O12	O	0.727779	-0.151960	0.471975
O13	O	-0.060675	-0.830343	0.008625
O14	O	0.272658	-0.497009	0.341959
O15	O	0.605992	-0.163676	0.675292
O16	O	-0.060687	-0.722820	-0.098897
O17	O	0.272647	-0.389486	0.234436
O18	O	0.605980	-0.056153	0.567769
O19	O	-0.060638	-0.926131	-0.087163
O20	O	0.272696	-0.592798	0.246170
O21	O	0.606029	-0.259464	0.579503
Zn22	Zn	-0.079994	-0.824473	-0.093029
Zn23	Zn	0.253339	-0.491139	0.240304
Zn24	Zn	0.586672	-0.157806	0.573637
Zn25	Zn	0.080432	-0.824497	-0.093037
Zn26	Zn	0.413766	-0.491163	0.240297
Zn27	Zn	0.747099	-0.157830	0.573630
O28	O	-0.060649	-0.818608	-0.194686
O29	O	0.272684	-0.485275	0.138647
O30	O	0.606017	-0.151942	0.471981
C31	C	0.000188	-0.696818	-0.098520
C32	C	0.333521	-0.363485	0.234813
C33	C	0.666855	-0.030151	0.568146
C34	C	0.000169	-0.619313	-0.097380
C35	C	0.333502	-0.285980	0.235954
C36	C	0.666835	0.047353	0.569287
N37	N	-0.189481	-0.824461	-0.093024
N38	N	0.143852	-0.491128	0.240309
N39	N	0.477185	-0.157795	0.573643
C40	C	0.000204	-0.829972	0.034634
C41	C	0.333537	-0.496638	0.367967
C42	C	0.666870	-0.163305	0.701300
C43	C	0.000197	-0.828831	0.112138
C44	C	0.333531	-0.495498	0.445471
C45	C	0.666864	-0.162164	0.778805
C46	C	-0.227785	-0.872088	-0.045436
C47	C	0.105548	-0.538755	0.287897
C48	C	0.438882	-0.205421	0.621230
C49	C	-0.304430	-0.872092	-0.045433
C50	C	0.028903	-0.538759	0.287900
C51	C	0.362237	-0.205426	0.621234
C52	C	-0.342768	-0.824477	-0.093030
C53	C	-0.009435	-0.491144	0.240304
C54	C	0.323898	-0.157810	0.573637
C55	C	-0.304455	-0.776841	-0.140621
C56	C	0.028878	-0.443508	0.192712
C57	C	0.362211	-0.110175	0.526046
C58	C	-0.227812	-0.776834	-0.140618
C59	C	0.105521	-0.443500	0.192715
C60	C	0.438855	-0.110167	0.526048
N61	N	-0.463094	-0.815401	-0.154837
N62	N	-0.129761	-0.482068	0.178496
N63	N	0.203573	-0.148735	0.511830
N64	N	-0.535902	-0.815413	-0.154838
N65	N	-0.202569	-0.482080	0.178496
N66	N	0.130764	-0.148746	0.511829
C67	C	-0.573691	-0.824496	-0.093040
C68	C	-0.240357	-0.491163	0.240294
C69	C	0.092976	-0.157830	0.573627
N70	N	-0.535920	-0.833582	-0.031239
N71	N	-0.202587	-0.500248	0.302094
N72	N	0.130746	-0.166915	0.635427
N73	N	-0.463106	-0.833574	-0.031240
N74	N	-0.129772	-0.500240	0.302094
N75	N	0.203561	-0.166907	0.635427
C76	C	-0.425875	-0.824480	-0.093038
C77	C	-0.092542	-0.491146	0.240296
C78	C	0.240791	-0.157813	0.573629
C79	C	-0.695101	-0.872131	-0.045444
C80	C	-0.361768	-0.538797	0.287889
C81	C	-0.028435	-0.205464	0.621222
C82	C	-0.771748	-0.872130	-0.045440
C83	C	-0.438414	-0.538797	0.287893
C84	C	-0.105081	-0.205463	0.621226
C85	C	-0.771772	-0.776882	-0.140634
C86	C	-0.438438	-0.443549	0.192699
C87	C	-0.105105	-0.110216	0.526032
C88	C	-0.695127	-0.776879	-0.140632
C89	C	-0.361794	-0.443546	0.192701
C90	C	-0.028460	-0.110213	0.526034
C91	C	-0.656796	-0.824507	-0.093038
C92	C	-0.323463	-0.491174	0.240295
C93	C	0.009870	-0.157841	0.573628
N94	N	0.189919	-0.824513	-0.093037
N95	N	0.523253	-0.491180	0.240297
N96	N	0.856586	-0.157847	0.573630
C97	C	0.000252	-0.952151	-0.087546
C98	C	0.333585	-0.618818	0.245787
C99	C	0.666918	-0.285485	0.579121
C100	C	0.000276	-1.029656	-0.088687
C101	C	0.333609	-0.696322	0.244647
C102	C	0.666942	-0.362989	0.577980
C103	C	0.000188	-0.574389	-0.160470
C104	C	0.333521	-0.241056	0.172863
C105	C	0.666855	0.092277	0.506196
C106	C	0.000196	-0.501566	-0.159399
C107	C	0.333529	-0.168232	0.173935
C108	C	0.666863	0.165101	0.507268
C109	C	0.000199	-0.473669	-0.095233
C110	C	0.333532	-0.140336	0.238101
C111	C	0.666866	0.192998	0.571434
C112	C	0.000175	-0.518603	-0.032133
C113	C	0.333509	-0.185270	0.301200
C114	C	0.666842	0.148064	0.634533
C115	C	0.000160	-0.591425	-0.033207
C116	C	0.333494	-0.258092	0.300126
C117	C	0.666827	0.075242	0.633460
N118	N	0.041663	-0.365695	-0.046188
N119	N	0.374997	-0.032362	0.287146
N120	N	0.708330	0.300972	0.620479
N121	N	0.041679	-0.296516	-0.045172
N122	N	0.375013	0.036817	0.288161
N123	N	0.708346	0.370150	0.621495
C124	C	0.000243	-0.254260	-0.091994
C125	C	0.333577	0.079073	0.241339
C126	C	0.666910	0.412406	0.574672
N127	N	-0.041200	-0.283795	-0.139881
N128	N	0.292133	0.049538	0.193452
N129	N	0.625467	0.382872	0.526785
N130	N	-0.041213	-0.352980	-0.140899
N131	N	0.292121	-0.019646	0.192434
N132	N	0.625454	0.313687	0.525768
C133	C	0.000215	-0.394707	-0.094062
C134	C	0.333548	-0.061373	0.239272
C135	C	0.666882	0.271960	0.572605
C136	C	0.000270	-0.130372	-0.153928
C137	C	0.333604	0.202961	0.179406
C138	C	0.666937	0.536295	0.512739
C139	C	0.000274	-0.057547	-0.152853
C140	C	0.333607	0.275786	0.180480
C141	C	0.666940	0.609119	0.513813
C142	C	0.000261	-0.074586	-0.025586
C143	C	0.333594	0.258747	0.307747
C144	C	0.666927	0.592081	0.641080
C145	C	0.000250	-0.147409	-0.026662
C146	C	0.333583	0.185924	0.306671
C147	C	0.666917	0.519257	0.640004
C148	C	0.000258	-0.175298	-0.090835
C149	C	0.333592	0.158036	0.242498
C150	C	0.666925	0.491369	0.575832
C151	C	0.000236	-0.818997	-0.220700
C152	C	0.333569	-0.485664	0.112634
C153	C	0.666902	-0.152331	0.445967
C154	C	0.000247	-0.820138	-0.298204
C155	C	0.333580	-0.486805	0.035129
C156	C	0.666914	-0.153471	0.368462
C157	C	0.000209	-0.891922	0.157062
C158	C	0.333542	-0.558589	0.490395
C159	C	0.666876	-0.225255	0.823729
C160	C	0.000220	-0.890850	0.229886
C161	C	0.333554	-0.557517	0.563219
C162	C	0.666887	-0.224184	0.896552
C163	C	0.000206	-0.826684	0.257782
C164	C	0.333539	-0.493351	0.591116
C165	C	0.666872	-0.160017	0.924449
C166	C	0.000198	-0.763585	0.212849
C167	C	0.333531	-0.430252	0.546182
C168	C	0.666865	-0.096918	0.879515
C169	C	0.000194	-0.764658	0.140026
C170	C	0.333527	-0.431325	0.473360
C171	C	0.666860	-0.097992	0.806693
N172	N	-0.041244	-0.777631	0.365789
N173	N	0.292089	-0.444297	0.699123
N174	N	0.625422	-0.110964	1.032456
N175	N	-0.041242	-0.776615	0.434968
N176	N	0.292091	-0.443282	0.768301
N177	N	0.625425	-0.109948	1.101635
C178	C	0.000220	-0.823446	0.477191
C179	C	0.333553	-0.490113	0.810524
C180	C	0.666886	-0.156779	1.143858
N181	N	0.041669	-0.871341	0.447624
N182	N	0.375003	-0.538008	0.780957
N183	N	0.708336	-0.204675	1.114290
N184	N	0.041664	-0.872359	0.378439
N185	N	0.374997	-0.539025	0.711772
N186	N	0.708330	-0.205692	1.045106
C187	C	0.000210	-0.825513	0.336745
C188	C	0.333544	-0.492180	0.670078
C189	C	0.666877	-0.158846	1.003412
C190	C	0.000245	-0.885379	0.601079
C191	C	0.333578	-0.552046	0.934413
C192	C	0.666911	-0.218712	1.267746
C193	C	0.000261	-0.884305	0.673904
C194	C	0.333594	-0.550971	1.007238
C195	C	0.666927	-0.217638	1.340571
C196	C	0.000231	-0.757038	0.656865
C197	C	0.333564	-0.423704	0.990199
C198	C	0.666897	-0.090371	1.323532
C199	C	0.000222	-0.758114	0.584042
C200	C	0.333556	-0.424781	0.917376
C201	C	0.666889	-0.091447	1.250709
C202	C	0.000226	-0.822287	0.556154
C203	C	0.333559	-0.488953	0.889487
C204	C	0.666892	-0.155620	1.222821
H205	H	-0.196579	-0.910868	-0.006681
H206	H	0.136755	-0.577534	0.326653
H207	H	0.470088	-0.244201	0.659986
H208	H	0.000267	-0.153080	-0.206181
H209	H	0.333600	0.180254	0.127153
H210	H	0.666933	0.513587	0.460486
H211	H	0.000208	-0.706738	0.547464
H212	H	0.333542	-0.373405	0.880797
H213	H	0.666875	-0.040072	1.214131
H214	H	0.000214	-0.944176	0.134360
H215	H	0.333548	-0.610843	0.467694
H216	H	0.666881	-0.277509	0.801027
H217	H	-0.196624	-0.738049	-0.179371
H218	H	0.136709	-0.404716	0.153963
H219	H	0.470042	-0.071383	0.487296
O220	O	0.000191	-0.604465	-0.229685
O221	O	0.333525	-0.271132	0.103648
O222	O	0.666858	0.062202	0.436982
H223	H	0.000183	-0.662651	-0.219835
H224	H	0.333516	-0.329318	0.113499
H225	H	0.666850	0.004016	0.446832
O226	O	-0.345752	-0.923468	0.005895
O227	O	-0.012419	-0.590135	0.339228
O228	O	0.320915	-0.256802	0.672561
H229	H	-0.405486	-0.915469	-0.002102
H230	H	-0.072153	-0.582135	0.331231
H231	H	0.261180	-0.248802	0.664564
O232	O	0.000167	-0.696606	0.091569
O233	O	0.333501	-0.363272	0.424902
O234	O	0.666834	-0.029939	0.758236
H235	H	0.049785	-0.665889	0.101449
H236	H	0.383119	-0.332556	0.434782
H237	H	0.716452	0.000778	0.768116
O238	O	-0.345805	-0.725497	-0.191968
O239	O	-0.012472	-0.392163	0.141365
O240	O	0.320862	-0.058830	0.474698
H241	H	-0.306290	-0.692376	-0.225061
H242	H	0.027043	-0.359043	0.108272
H243	H	0.360377	-0.025710	0.441606
O244	O	-0.653750	-0.923488	0.005894
O245	O	-0.320417	-0.590155	0.339227
O246	O	0.012916	-0.256821	0.672561
H247	H	-0.693265	-0.956599	0.038996
H248	H	-0.359932	-0.623266	0.372329
H249	H	-0.026599	-0.289933	0.705662
H250	H	-0.802935	-0.910911	-0.006685
H251	H	-0.469602	-0.577578	0.326649
H252	H	-0.136269	-0.244245	0.659982
H253	H	0.000251	-0.937632	0.578372
H254	H	0.333584	-0.604299	0.911705
H255	H	0.666918	-0.270966	1.245038
O256	O	-0.813109	-0.725524	-0.191975
O257	O	-0.479776	-0.392191	0.141358
O258	O	-0.146443	-0.058858	0.474692
H259	H	-0.872841	-0.733533	-0.183986
H260	H	-0.539507	-0.400200	0.149348
H261	H	-0.206174	-0.066866	0.482681
O262	O	0.000266	-0.952358	0.722360
O263	O	0.333600	-0.619025	1.055693
O264	O	0.666933	-0.285692	1.389027
H265	H	0.049892	-0.983095	0.712451
H266	H	0.383225	-0.649761	1.045785
H267	H	0.716559	-0.316428	1.379118
O268	O	-0.653806	-0.725519	-0.191967
O269	O	-0.320472	-0.392185	0.141366
O270	O	0.012861	-0.058852	0.474699
H271	H	-0.693338	-0.692412	-0.225069
H272	H	-0.360005	-0.359079	0.108264
H273	H	-0.026672	-0.025746	0.441597
O274	O	0.000225	-0.453098	-0.227448
O275	O	0.333558	-0.119764	0.105885
O276	O	0.666891	0.213569	0.439218
H277	H	0.000233	-0.484725	-0.272251
H278	H	0.333567	-0.151392	0.061082
H279	H	0.666900	0.181942	0.394416
O280	O	0.000179	-0.488521	0.037077
O281	O	0.333512	-0.155188	0.370410
O282	O	0.666846	0.178145	0.703743
H283	H	0.000200	-0.430335	0.027225
H284	H	0.333533	-0.097002	0.360558
H285	H	0.666867	0.236331	0.693891
H286	H	0.000233	-0.942228	0.266470
H287	H	0.333566	-0.608895	0.599803
H288	H	0.666900	-0.275561	0.933137
O289	O	0.000143	-0.639886	0.034843
O290	O	0.333476	-0.306553	0.368177
O291	O	0.666809	0.026780	0.701510
H292	H	0.000148	-0.608257	0.079644
H293	H	0.333481	-0.274924	0.412978
H294	H	0.666815	0.058410	0.746311
H295	H	0.000222	-0.704792	0.679578
H296	H	0.333556	-0.371459	1.012911
H297	H	0.666889	-0.038126	1.346245
H298	H	0.000285	-0.020970	-0.204232
H299	H	0.333619	0.312363	0.129102
H300	H	0.666952	0.645697	0.462435
H301	H	0.000309	-0.051874	0.026659
H302	H	0.333642	0.281460	0.359992
H303	H	0.666975	0.614793	0.693326
O304	O	0.000173	-0.694375	0.242930
O305	O	0.333507	-0.361041	0.576264
O306	O	0.666840	-0.027708	0.909597
H307	H	0.000168	-0.704227	0.301116
H308	H	0.333501	-0.370894	0.634449
H309	H	0.666835	-0.037560	0.967783
H310	H	0.000238	-0.183988	0.024713
H311	H	0.333571	0.149346	0.358046
H312	H	0.666905	0.482679	0.691380
