data_functionalizedCrystal
_audit_creation_method	'MofGen! by Chris Wilmer'
_symmetry_space_group_name_H-M	'P1'
_symmetry_Int_Tables_number	1
_symmetry_cell_setting	triclinic
loop_
_symmetry_equiv_pos_as_xyz
  x,y,z
_cell_length_a	27.354012
_cell_length_b	27.353283
_cell_length_c	27.349551
_cell_angle_alpha	60.005606
_cell_angle_beta	60.011434
_cell_angle_gamma	59.993282
loop_
_atom_site_label
_atom_site_type_symbol
_atom_site_fract_x
_atom_site_fract_y
_atom_site_fract_z
O1	O	0.067635	-0.714267	0.597330
O2	O	0.025429	-0.556105	0.481282
O3	O	0.125575	-0.656186	0.481214
O4	O	-0.032512	-0.614186	0.597397
O5	O	0.158797	-0.622968	0.514367
O6	O	0.058650	-0.522887	0.514434
O7	O	0.100856	-0.681048	0.630482
Zn8	Zn	0.085028	-0.596693	0.577722
Zn9	Zn	0.041257	-0.640460	0.534042
O10	O	0.000709	-0.580967	0.630549
N11	N	0.114901	-0.566828	0.607534
N12	N	0.011389	-0.670331	0.504229
C13	C	0.179404	-0.338196	0.672015
C14	C	0.179501	-0.502386	0.836160
C15	C	0.179415	-0.502363	0.671996
C16	C	0.343611	-0.502373	0.671960
C17	C	0.197478	-0.392371	0.690061
C18	C	0.197534	-0.484321	0.781984
C19	C	0.289434	-0.484312	0.690032
C20	C	0.197486	-0.484308	0.690051
C21	C	0.156398	-0.269238	0.649045
C22	C	0.156418	-0.525342	0.649015
C23	C	0.220484	-0.461329	0.713032
C24	C	0.443889	-0.485097	0.619172
C25	C	0.506571	-0.505993	0.598266
C26	C	0.506589	-0.607412	0.636940
C27	C	0.443909	-0.586515	0.657848
C28	C	0.171510	-0.237888	0.587422
C29	C	0.150593	-0.175201	0.566543
C30	C	0.099458	-0.175218	0.668913
C31	C	0.120375	-0.237905	0.689792
C32	C	0.094789	-0.510201	0.664176
C33	C	0.073888	-0.531091	0.643278
C34	C	0.176239	-0.582263	0.592072
C35	C	0.197142	-0.561373	0.612963
C36	C	0.094933	-0.510244	0.936476
C37	C	0.074073	-0.531151	0.999161
C38	C	0.176453	-0.582335	0.999126
C39	C	0.197312	-0.561429	0.936439
C40	C	0.156551	-0.525382	0.905116
C41	C	0.412561	-0.525357	0.648961
C42	C	-0.098513	-0.688235	0.485867
C43	C	-0.006461	-0.688368	0.394066
C44	C	-0.006645	-0.780264	0.486040
C45	C	-0.006630	-0.688361	0.486097
C46	C	-0.029562	-0.711308	0.463018
N47	N	0.537030	-0.566846	0.607436
O48	O	0.741877	-0.576849	0.459995
O49	O	0.742050	-0.693241	0.618010
O50	O	0.741986	-0.692977	0.517791
O51	O	0.741941	-0.577114	0.560214
O52	O	0.642405	-0.659839	0.551046
O53	O	0.642469	-0.660104	0.651265
O54	O	0.642296	-0.543712	0.493251
Zn55	Zn	0.626572	-0.596646	0.577538
Zn56	Zn	0.757774	-0.640307	0.533723
O57	O	0.642360	-0.543976	0.593469
N58	N	0.847316	-0.670107	0.503818
N59	N	0.114877	-0.144758	0.607577
O60	O	-0.032498	0.060193	0.597441
O61	O	0.125523	0.060193	0.481067
O62	O	0.025289	0.060179	0.481345
O63	O	0.067736	0.060207	0.597163
O64	O	0.058511	-0.039410	0.514543
O65	O	0.158745	-0.039397	0.514265
O66	O	0.000724	-0.039396	0.630638
Zn67	Zn	0.085009	-0.055208	0.577722
Zn68	Zn	0.041238	0.076005	0.533983
O69	O	0.100958	-0.039382	0.630360
N70	N	0.011362	0.165555	0.504130
N71	N	0.115121	-0.566884	1.029592
O72	O	0.104990	-0.714248	1.234528
O73	O	-0.011371	-0.556177	1.234539
O74	O	-0.011103	-0.656395	1.234497
O75	O	0.104722	-0.614030	1.234569
O76	O	0.022090	-0.623190	1.134913
O77	O	0.021822	-0.522972	1.134954
O78	O	0.138182	-0.681044	1.134943
Zn79	Zn	0.085272	-0.596736	1.119137
Zn80	Zn	0.041539	-0.640484	1.250344
O81	O	0.137914	-0.580826	1.134984
N82	N	0.011689	-0.670343	1.339890
C83	C	0.038085	-0.519567	0.481870
C84	C	0.162104	-0.643505	0.481786
C85	C	0.088200	-0.717587	0.629893
C86	C	-0.035819	-0.593649	0.629977
C87	C	0.692280	-0.692701	0.654545
C88	C	0.692203	-0.692374	0.530435
C89	C	0.692063	-0.544251	0.456717
C90	C	0.692144	-0.544580	0.580825
C91	C	0.162000	0.010521	0.481600
C92	C	0.037914	0.010381	0.481984
C93	C	-0.035795	0.010399	0.630065
C94	C	0.088333	0.010415	0.629722
C95	C	-0.010799	-0.519660	1.184747
C96	C	-0.010461	-0.643761	1.184677
C97	C	0.137610	-0.717561	1.184734
C98	C	0.137280	-0.593452	1.184783
H99	H	0.023897	-0.518815	1.024687
O100	O	0.692049	-0.501082	0.591604
C101	C	0.640434	-0.450613	0.585003
H102	H	0.623216	-0.451092	0.554983
H103	H	0.651998	-0.408100	0.563879
H104	H	0.604352	-0.451835	0.630806
H105	H	0.028825	0.010378	0.445599
H106	H	-0.047330	-0.474261	1.184750
O107	O	-0.089980	0.010438	0.673576
C108	C	-0.127251	0.010418	0.652033
H109	H	-0.111044	0.029256	0.601028
H110	H	-0.175212	0.039342	0.670381
H111	H	-0.125636	-0.037360	0.667268
O112	O	0.099280	0.010386	0.673077
C113	C	0.158134	0.010401	0.651260
H114	H	0.186449	-0.008448	0.612820
H115	H	0.178297	-0.018517	0.688757
H116	H	0.157247	0.058179	0.634562
H117	H	-0.046832	-0.652809	1.184615
O118	O	0.055254	-0.475253	0.906144
C119	C	-0.003604	-0.466362	0.947267
H120	H	-0.003465	-0.504161	0.991943
H121	H	-0.033381	-0.466026	0.929167
H122	H	-0.021562	-0.421710	0.953945
H123	H	0.097215	-0.763020	0.666340
O124	O	0.181122	-0.771760	1.184755
C125	C	0.159576	-0.809009	1.184711
H126	H	0.108574	-0.792783	1.203556
H127	H	0.177936	-0.856981	1.213617
H128	H	0.174797	-0.807383	1.136928
O129	O	0.692233	-0.736281	0.708708
C130	C	0.640694	-0.752401	0.735218
H131	H	0.604610	-0.713953	0.715439
H132	H	0.623420	-0.762311	0.785607
H133	H	0.652375	-0.793972	0.726046
H134	H	0.029071	-0.474132	0.445424
H135	H	0.692221	-0.728771	0.521355
O136	O	0.691972	-0.500579	0.402623
C137	C	0.691955	-0.449036	0.402644
H138	H	0.673136	-0.449759	0.450681
H139	H	0.663000	-0.407366	0.376049
H140	H	0.739715	-0.448304	0.381220
O141	O	0.216312	-0.654272	0.438331
C142	C	0.253510	-0.713117	0.459977
H143	H	0.237254	-0.728971	0.510980
H144	H	0.301491	-0.713882	0.441649
H145	H	0.251866	-0.744081	0.444805
O146	O	0.105817	-0.268406	0.749642
C147	C	0.158514	-0.304633	0.764753
H148	H	0.197872	-0.314033	0.723436
H149	H	0.152939	-0.348711	0.801128
H150	H	0.167341	-0.280449	0.781914
H151	H	0.207290	0.010797	0.444973
H152	H	0.173667	-0.584388	1.184797
H153	H	0.247489	-0.573760	0.910909
O154	O	0.216130	-0.617363	1.029460
C155	C	0.274990	-0.626229	0.988340
H156	H	0.274853	-0.619211	0.943657
H157	H	0.304764	-0.673775	1.006432
H158	H	0.292947	-0.592871	0.981678
O159	O	0.055148	-0.475181	0.699163
C160	C	-0.003728	-0.466306	0.708068
H161	H	-0.003634	-0.473303	0.670277
H162	H	-0.033492	-0.418763	0.708407
H163	H	-0.021668	-0.499673	0.752721
O164	O	-0.090011	-0.582864	0.673449
C165	C	-0.127220	-0.524030	0.651793
H166	H	-0.098383	-0.495600	0.613340
H167	H	-0.155906	-0.503978	0.689367
H168	H	-0.157459	-0.524938	0.635160
H169	H	0.209407	-0.611608	0.562721
O170	O	0.014027	-0.516315	0.657901
C171	C	-0.001153	-0.484757	0.605244
H172	H	0.034167	-0.463539	0.567583
H173	H	-0.046662	-0.448229	0.613524
H174	H	-0.003241	-0.516982	0.592045
O175	O	0.257022	-0.576046	0.598130
C176	C	0.283012	-0.554577	0.535344
H177	H	0.253277	-0.548436	0.513419
H178	H	0.329125	-0.588162	0.520670
H179	H	0.287653	-0.509775	0.521173
O180	O	0.413571	-0.625703	0.686750
C181	C	0.454687	-0.684163	0.690117
H182	H	0.499356	-0.681777	0.653088
H183	H	0.436573	-0.709891	0.684445
H184	H	0.461378	-0.708093	0.735540
H185	H	0.532110	-0.657210	0.644171
H186	H	0.532080	-0.473208	0.574011
H187	H	0.418366	-0.435297	0.611936
O188	O	0.206473	-0.268230	0.547758
C189	C	0.215332	-0.227116	0.488889
H190	H	0.177533	-0.182434	0.489015
H191	H	0.215645	-0.245224	0.459131
H192	H	0.259982	-0.220445	0.470917
H193	H	0.162897	-0.149674	0.516363
H194	H	0.070133	-0.149706	0.702094
