data_functionalizedCrystal
_audit_creation_method	'MofGen! by Chris Wilmer'
_symmetry_space_group_name_H-M	'P1'
_symmetry_Int_Tables_number	1
_symmetry_cell_setting	triclinic
loop_
_symmetry_equiv_pos_as_xyz
  x,y,z
_cell_length_a	23.532407
_cell_length_b	19.288864
_cell_length_c	17.766277
_cell_angle_alpha	89.976755
_cell_angle_beta	90.009887
_cell_angle_gamma	97.007539
loop_
_atom_site_label
_atom_site_type_symbol
_atom_site_fract_x
_atom_site_fract_y
_atom_site_fract_z
O1	O	0.071044	-0.921134	0.062843
O2	O	0.080628	-0.718844	0.062793
O3	O	-0.007083	-0.826089	0.062806
O4	O	0.158755	-0.813889	0.062830
O5	O	-0.007085	-0.826070	-0.062383
O6	O	0.080626	-0.718825	-0.062396
O7	O	0.071042	-0.921115	-0.062345
Cu8	Cu	0.075834	-0.819968	-0.073801
Cu9	Cu	0.075836	-0.819991	0.074249
O10	O	0.158753	-0.813870	-0.062358
C11	C	0.080319	-0.692959	0.000192
C12	C	0.079393	-0.615858	0.000172
C13	C	-0.028301	-0.825769	0.000209
C14	C	-0.091520	-0.824835	0.000203
N15	N	0.075831	-0.819957	-0.177932
C16	C	-0.490503	-0.882442	0.000259
C17	C	-0.549905	-0.881574	0.000264
O18	O	-0.586539	-0.934976	0.000306
N19	N	-0.572664	-0.817817	0.000248
C20	C	-0.536017	-0.754923	0.000234
O21	O	-0.560829	-0.700613	0.000221
C22	C	-0.476616	-0.755792	0.000234
C23	C	-0.453861	-0.819553	0.000242
C24	C	-0.467748	-0.946198	0.000269
C25	C	-0.408350	-0.947065	0.000262
C26	C	-0.371707	-0.884177	0.000245
C27	C	-0.394463	-0.820420	0.000236
C28	C	-0.439970	-0.692899	0.000225
C29	C	-0.380565	-0.693773	0.000225
C30	C	-0.357810	-0.757534	0.000234
C31	C	-0.298422	-0.758399	0.000212
N32	N	-0.275664	-0.822156	0.000229
C33	C	-0.312307	-0.885045	0.000245
C34	C	-0.660763	-0.753104	0.000235
C35	C	-0.720163	-0.752235	0.000230
C36	C	-0.734047	-0.878886	0.000262
C37	C	-0.674647	-0.879755	0.000262
C38	C	-0.638005	-0.816861	0.000252
C39	C	-0.187566	-0.886862	0.000230
C40	C	-0.128162	-0.887724	0.000220
C41	C	-0.114283	-0.761073	0.000192
C42	C	-0.173681	-0.760211	0.000198
C43	C	-0.210322	-0.823111	0.000219
O44	O	-0.261754	-0.705025	0.000174
O45	O	-0.287486	-0.939346	0.000268
C46	C	0.179971	-0.814190	0.000240
C47	C	0.243190	-0.815124	0.000251
C48	C	0.071351	-0.947000	0.000257
C49	C	0.072277	-1.024101	0.000282
C50	C	0.130858	-0.571003	0.000191
C51	C	0.129988	-0.498559	0.000200
C52	C	0.077651	-0.470973	0.000203
C53	C	0.026179	-0.515838	0.000180
C54	C	0.027050	-0.588280	0.000164
C55	C	0.036508	-0.362844	0.044082
C56	C	0.035639	-0.290402	0.044102
C57	C	0.074961	-0.247535	0.000249
C58	C	0.115162	-0.277117	-0.043616
C59	C	0.116033	-0.349560	-0.043631
C60	C	0.076700	-0.392422	0.000220
C61	C	0.125487	-0.124127	0.000276
C62	C	0.124615	-0.051682	0.000279
C63	C	0.020805	-0.068962	0.000267
C64	C	0.021678	-0.141406	0.000256
C65	C	0.074021	-0.168984	0.000264
C66	C	0.110287	-0.861839	-0.217296
C67	C	0.110286	-0.861850	-0.296098
C68	C	0.075834	-0.819966	-0.335532
C69	C	0.041371	-0.778083	-0.296159
C70	C	0.041369	-0.778078	-0.217358
C71	C	0.074394	-0.757358	-0.460408
C72	C	0.074400	-0.757361	-0.539207
C73	C	0.075836	-0.819981	-0.578579
C74	C	0.077279	-0.882598	-0.539142
C75	C	0.077277	-0.882594	-0.460342
C76	C	0.075832	-0.819967	-0.420978
C77	C	0.110292	-0.861877	-0.703389
C78	C	0.110287	-0.861890	-0.782192
C79	C	0.041375	-0.778116	-0.782251
C80	C	0.041378	-0.778111	-0.703450
C81	C	0.075839	-0.819990	-0.664023
N82	N	0.075834	-0.820007	0.178379
H83	H	-0.109639	-0.939648	0.000225
C84	C	-0.649622	-0.949896	0.000278
N85	N	-0.630777	-1.002730	0.000293
C86	C	0.158419	-0.229969	-0.091861
N87	N	0.190998	-0.194454	-0.128198
C88	C	0.003476	-0.732009	-0.339538
N89	N	-0.025068	-0.697306	-0.372212
C90	C	0.003467	-0.731999	-0.174057
N91	N	-0.025081	-0.697290	-0.141440
H92	H	0.168107	-0.146582	0.000271
H93	H	-0.217393	-0.938081	0.000250
H94	H	-0.389829	-0.998986	0.000272
H95	H	-0.084438	-0.709871	0.000176
C96	C	0.148190	-0.907915	-0.173931
N97	N	0.176736	-0.942623	-0.141267
C98	C	0.148192	-0.907924	-0.339407
N99	N	0.176743	-0.942627	-0.372025
H100	H	-0.630931	-0.701886	0.000220
H101	H	-0.350733	-0.642556	0.000218
C102	C	0.148195	-0.907952	-0.660017
N103	N	0.176742	-0.942657	-0.627351
H104	H	-0.763893	-0.930094	0.000279
C105	C	0.072816	-0.688481	-0.582579
N106	N	0.071623	-0.636598	-0.615246
C107	C	-0.745186	-0.682093	0.000211
N108	N	-0.764031	-0.629259	0.000201
H109	H	0.002908	-0.266322	0.079822
H110	H	0.173479	-0.593452	0.000199
H111	H	-0.497577	-0.997412	0.000285
H112	H	0.078451	-0.933579	-0.428236
H113	H	0.171898	-0.462031	0.000213
H114	H	0.073228	-0.706362	-0.428358
H115	H	-0.458486	-0.640978	0.000222
C116	C	-0.036768	-0.038622	0.000270
N117	N	-0.080132	-0.015766	0.000271
H118	H	0.166526	-0.015161	0.000291
H119	H	-0.192209	-0.708291	0.000170
C120	C	-0.006750	-0.409991	0.092331
N121	N	-0.039330	-0.445501	0.128672
H122	H	0.148765	-0.373643	-0.079349
C123	C	-0.034938	-0.190749	0.000243
N124	N	-0.077584	-0.227914	0.000233
C125	C	0.078857	-0.951486	-0.582445
N126	N	0.080046	-1.003370	-0.615064
H127	H	-0.016435	-0.493372	0.000193
C128	C	0.148205	-0.907951	-0.825492
N129	N	0.176771	-0.942638	-0.858107
C130	C	0.003477	-0.732045	-0.825625
N131	N	-0.025069	-0.697345	-0.858298
C132	C	0.003479	-0.732030	-0.660147
N133	N	-0.025069	-0.697320	-0.627533
H134	H	-0.014860	-0.624802	0.000149
