data_functionalizedCrystal
_audit_creation_method	'MofGen! by Chris Wilmer'
_symmetry_space_group_name_H-M	'P1'
_symmetry_Int_Tables_number	1
_symmetry_cell_setting	triclinic
loop_
_symmetry_equiv_pos_as_xyz
  x,y,z
_cell_length_a	19.288864
_cell_length_b	15.186229
_cell_length_c	19.288865
_cell_angle_alpha	89.991032
_cell_angle_beta	96.863755
_cell_angle_gamma	90.017200
loop_
_atom_site_label
_atom_site_type_symbol
_atom_site_fract_x
_atom_site_fract_y
_atom_site_fract_z
O1	O	0.921347	0.073521	-0.086647
O2	O	0.719087	0.073462	-0.098336
O3	O	0.826061	0.073476	0.008639
O4	O	0.814373	0.073507	-0.193621
O5	O	0.826054	-0.072981	0.008641
O6	O	0.719079	-0.072995	-0.098334
O7	O	0.921340	-0.072936	-0.086645
Zn8	Zn	0.820209	-0.096219	-0.092489
Zn9	Zn	0.820218	0.096745	-0.092491
O10	O	0.814365	-0.072950	-0.193620
C11	C	0.693207	0.000226	-0.097959
C12	C	0.616103	0.000202	-0.096830
N13	N	0.820207	-0.227912	-0.092488
C14	C	0.571407	0.000226	-0.159598
C15	C	0.498960	0.000236	-0.158537
C16	C	0.471212	0.000239	-0.094705
C17	C	0.515918	0.000211	-0.031929
C18	C	0.588364	0.000192	-0.032991
C19	C	0.362953	0.051572	-0.044526
C20	C	0.290508	0.051595	-0.043466
C21	C	0.247767	0.000292	-0.091425
C22	C	0.277477	-0.051024	-0.140456
C23	C	0.349922	-0.051042	-0.141518
C24	C	0.392658	0.000259	-0.093546
C25	C	0.124514	0.000325	-0.153047
C26	C	0.052066	0.000329	-0.151984
C27	C	0.069026	0.000313	-0.025374
C28	C	0.141473	0.000300	-0.026439
C29	C	0.169212	0.000310	-0.090278
C30	C	0.867592	-0.453628	-0.045135
C31	C	0.867594	-0.545818	-0.045133
C32	C	0.772835	-0.545839	-0.139842
C33	C	0.772830	-0.453651	-0.139840
C34	C	0.820213	-0.407548	-0.092487
C35	C	0.820220	-0.591926	-0.092488
C36	C	0.820222	-0.691882	-0.092486
C37	C	0.820210	-0.307586	-0.092488
C38	C	0.947220	0.000302	-0.087022
C39	C	1.024324	0.000331	-0.088151
C40	C	0.825682	0.000244	0.034516
C41	C	0.824553	0.000236	0.111620
N42	N	0.820225	0.228437	-0.092488
C43	C	0.814745	0.000283	-0.219497
C44	C	0.815874	0.000297	-0.296601
C45	C	0.887321	0.000250	0.156316
C46	C	0.886260	0.000264	0.228763
C47	C	0.822428	0.000246	0.256511
C48	C	0.759652	0.000237	0.211805
C49	C	0.760714	0.000232	0.139359
C50	C	0.772246	-0.051069	0.364799
C51	C	0.771186	-0.051070	0.437243
C52	C	0.819148	0.000265	0.479956
C53	C	0.868182	0.051589	0.450218
C54	C	0.869244	0.051584	0.377772
C55	C	0.821269	0.000252	0.335065
C56	C	0.880770	0.000295	0.603209
C57	C	0.879707	0.000314	0.675657
C58	C	0.753097	0.000278	0.658697
C59	C	0.754162	0.000268	0.586250
C60	C	0.818000	0.000272	0.558511
H61	H	0.593987	0.000236	-0.211580
Cl62	Cl	0.713260	-0.395716	-0.199370
H63	H	0.907237	0.093391	0.484994
H64	H	0.731257	-0.092856	0.461450
Cl65	Cl	0.961023	0.000295	0.568333
Cl66	Cl	0.927157	-0.603745	0.014399
H67	H	0.930822	0.000330	0.712049
Cl68	Cl	0.927155	-0.395674	0.014397
Cl69	Cl	0.967575	0.000281	0.121448
H70	H	0.909168	0.093375	0.353562
H71	H	0.734259	-0.583386	-0.178397
Cl72	Cl	-0.004125	0.000354	-0.230900
H73	H	0.937375	0.000279	0.265162
H74	H	0.266324	0.093383	-0.003545
H75	H	0.701123	0.000268	0.681288
H76	H	0.703049	0.000251	0.549857
Cl77	Cl	0.644557	0.000164	0.045924
Cl78	Cl	0.711946	-0.115614	0.311109
H79	H	0.707679	0.000224	0.234401
H80	H	0.462561	0.000252	-0.209652
H81	H	0.374109	-0.092828	-0.181438
H82	H	0.242678	-0.092800	-0.179508
H83	H	0.709599	0.000220	0.102967
H84	H	0.397748	0.093354	-0.005471
Cl85	Cl	0.197666	0.000275	0.052474
Cl86	Cl	0.034151	0.000307	0.054873
Cl87	Cl	0.159390	0.000329	-0.233300
H88	H	0.493322	0.000226	0.020044
