data_functionalizedCrystal
_audit_creation_method	'MofGen! by Chris Wilmer'
_symmetry_space_group_name_H-M	'P1'
_symmetry_Int_Tables_number	1
_symmetry_cell_setting	triclinic
loop_
_symmetry_equiv_pos_as_xyz
  x,y,z
_cell_length_a	17.699083
_cell_length_b	17.699083
_cell_length_c	14.586319
_cell_angle_alpha	90.002525
_cell_angle_beta	89.997335
_cell_angle_gamma	96.716986
loop_
_atom_site_label
_atom_site_type_symbol
_atom_site_fract_x
_atom_site_fract_y
_atom_site_fract_z
O1	O	-0.095710	1.004075	-0.076099
O2	O	0.404290	1.504075	0.423901
O3	O	-0.108163	0.783696	-0.076127
O4	O	0.391837	1.283696	0.423873
O5	O	0.008253	0.900112	-0.076121
O6	O	0.508253	1.400112	0.423879
O7	O	-0.212126	0.887659	-0.076105
O8	O	0.287874	1.387659	0.423895
O9	O	0.008254	0.900104	0.076360
O10	O	0.508254	1.400104	0.576360
O11	O	-0.108161	0.783688	0.076354
O12	O	0.391839	1.283688	0.576354
O13	O	-0.095709	1.004067	0.076382
O14	O	0.404291	1.504067	0.576382
Cu15	Cu	-0.101935	0.893877	0.090291
Cu16	Cu	0.398065	1.393877	0.590291
Cu17	Cu	-0.101937	0.893886	-0.090036
Cu18	Cu	0.398063	1.393886	0.409964
O19	O	-0.212124	0.887651	0.076376
O20	O	0.287876	1.387651	0.576376
C21	C	-0.107716	0.755495	0.000109
C22	C	0.392284	1.255495	0.500109
C23	C	-0.106377	0.671477	0.000098
C24	C	0.393623	1.171477	0.500098
C25	C	-0.174710	0.622856	0.000103
C26	C	0.325290	1.122856	0.500103
C27	C	-0.173448	0.543913	0.000115
C28	C	0.326552	1.043913	0.500115
C29	C	-0.103852	0.513592	0.000115
C30	C	0.396148	1.013592	0.500115
C31	C	-0.035513	0.562219	0.000112
C32	C	0.464487	1.062219	0.500112
C33	C	-0.036776	0.641161	0.000107
C34	C	0.463224	1.141161	0.500107
C35	C	-0.030418	0.243856	0.000135
C36	C	0.469582	0.743856	0.500135
C37	C	-0.029160	0.164908	0.000137
C38	C	0.470840	0.664908	0.500137
C39	C	-0.167090	0.146608	0.000143
C40	C	0.332910	0.646608	0.500143
C41	C	-0.168353	0.225550	0.000137
C42	C	0.331647	0.725550	0.500137
C43	C	-0.100015	0.274170	0.000140
C44	C	0.399985	0.774170	0.500140
C45	C	-0.101384	0.359769	0.000129
C46	C	0.398616	0.859769	0.500129
C47	C	-0.102481	0.427995	0.000119
C48	C	0.397519	0.927995	0.500119
C49	C	-0.240322	0.888102	0.000138
C50	C	0.259678	1.388102	0.500138
C51	C	-0.324340	0.889440	0.000145
C52	C	0.175660	1.389440	0.500145
C53	C	-0.372961	0.821107	0.000136
C54	C	0.127039	1.321107	0.500136
C55	C	-0.451904	0.822369	0.000125
C56	C	0.048096	1.322369	0.500125
C57	C	-0.482225	0.891965	0.000130
C58	C	0.017775	1.391965	0.500130
C59	C	-0.433598	0.960304	0.000136
C60	C	0.066402	1.460304	0.500136
C61	C	-0.354656	0.959041	0.000140
C62	C	0.145344	1.459041	0.500140
C63	C	-0.751961	0.965399	0.000119
C64	C	-0.251961	1.465399	0.500119
C65	C	-0.830909	0.966657	0.000117
C66	C	-0.330909	1.466657	0.500117
C67	C	-0.849209	0.828727	0.000104
C68	C	-0.349209	1.328727	0.500104
C69	C	-0.770267	0.827464	0.000108
C70	C	-0.270267	1.327464	0.500108
C71	C	-0.721647	0.895803	0.000109
C72	C	-0.221647	1.395803	0.500109
C73	C	-0.636048	0.894433	0.000119
C74	C	-0.136048	1.394433	0.500119
C75	C	-0.567823	0.893336	0.000127
C76	C	-0.067823	1.393336	0.500127
C77	C	0.036451	0.899662	0.000115
C78	C	0.536451	1.399662	0.500115
C79	C	0.120469	0.898323	0.000102
C80	C	0.620469	1.398323	0.500102
C81	C	-0.096156	1.032268	0.000143
C82	C	0.403844	1.532268	0.500143
C83	C	-0.097494	1.116286	0.000149
C84	C	0.402506	1.616286	0.500149
N85	N	-0.101933	0.893876	0.217122
N86	N	0.398067	1.393876	0.717122
N87	N	-0.101933	0.893894	-0.216867
N88	N	0.398067	1.393894	0.283133
C89	C	-0.050401	0.945441	0.452131
C90	C	0.449599	1.445441	0.952131
C91	C	-0.050399	0.945444	0.548113
C92	C	0.449601	1.445444	1.048113
C93	C	-0.153467	0.842322	0.548117
C94	C	0.346533	1.342322	1.048117
C95	C	-0.153464	0.842317	0.452137
C96	C	0.346536	1.342317	0.952137
C97	C	-0.101932	0.893881	0.404147
C98	C	0.398068	1.393881	0.904147
C99	C	-0.101933	0.893888	0.596108
C100	C	0.398067	1.393888	1.096108
C101	C	-0.101931	0.893890	0.700175
C102	C	0.398069	1.393890	1.200175
C103	C	-0.101933	0.893878	0.300073
C104	C	0.398067	1.393878	0.800073
H105	H	-0.222734	0.107012	0.000146
H106	H	0.277266	0.607012	0.500146
N107	N	0.005197	1.001035	0.400372
N108	N	0.505197	1.501035	0.900372
H109	H	-0.002616	0.993208	0.332287
H110	H	0.497384	1.493208	0.832287
H111	H	-0.003464	1.054715	0.417141
H112	H	0.496536	1.554715	0.917141
N113	N	-0.504344	0.748665	0.000114
N114	N	-0.004344	1.248665	0.500114
H115	H	-0.537514	0.746113	0.056632
H116	H	-0.037514	1.246113	0.556632
H117	H	-0.537446	0.746163	-0.056454
H118	H	-0.037446	1.246163	0.443546
N119	N	-0.699529	1.039105	0.000136
N120	N	-0.199529	1.539105	0.500136
H121	H	-0.644918	1.027750	0.000134
H122	H	-0.144918	1.527750	0.500134
H123	H	-0.709330	1.069446	-0.056386
H124	H	-0.209330	1.569446	0.443614
N125	N	-0.209054	0.786721	0.599881
N126	N	0.290946	1.286721	1.099881
H127	H	-0.241698	0.754056	0.554916
H128	H	0.258302	1.254056	1.054916
H129	H	-0.180125	0.753318	0.639708
H130	H	0.319875	1.253318	1.139708
H131	H	-0.195427	0.800327	0.413066
H132	H	0.304573	1.300327	0.913066
H133	H	-0.229092	0.504328	0.000118
H134	H	0.270908	1.004328	0.500118
N135	N	-0.249776	0.655557	0.000093
N136	N	0.250224	1.155557	0.500093
H137	H	-0.292873	0.612774	0.000099
H138	H	0.207127	1.112774	0.500099
H139	H	-0.253307	0.687918	0.056615
H140	H	0.246693	1.187918	0.556615
N141	N	-0.243418	0.258250	0.000147
N142	N	0.256582	0.758250	0.500147
H143	H	-0.233849	0.315638	0.000144
H144	H	0.266151	0.815638	0.500144
H145	H	-0.273318	0.240452	-0.056374
H146	H	0.226682	0.740452	0.443626
H147	H	-0.008437	0.987428	0.587179
H148	H	0.491563	1.487428	1.087179
H149	H	-0.348280	0.764433	0.000143
H150	H	0.151720	1.264433	0.500143
N151	N	-0.737574	0.752395	0.000100
N152	N	-0.237574	1.252395	0.500100
H153	H	-0.705224	0.748800	-0.056423
H154	H	-0.205224	1.248800	0.443577
H155	H	-0.705272	0.748836	0.056664
H156	H	-0.205272	1.248836	0.556664
N157	N	0.045908	0.132203	0.000138
N158	N	0.545908	0.632203	0.500138
H159	H	0.089009	0.174981	0.000141
H160	H	0.589009	0.674981	0.500141
H161	H	0.049429	0.099849	0.056665
H162	H	0.549429	0.599849	0.556665
N163	N	-0.863609	1.041728	0.000118
N164	N	-0.363609	1.541728	0.500118
H165	H	-0.895954	1.045323	-0.056405
H166	H	-0.395954	1.545323	0.443595
H167	H	-0.895917	1.045278	0.056682
H168	H	-0.395917	1.545278	0.556682
N169	N	-0.466296	1.035371	0.000150
N170	N	0.033704	1.535371	0.500150
H171	H	-0.523684	1.025803	0.000155
H172	H	-0.023684	1.525803	0.500155
H173	H	-0.448499	1.065255	0.056685
H174	H	0.051501	1.565255	0.556685
H175	H	0.025228	0.283434	0.000137
H176	H	0.525228	0.783434	0.500137
H177	H	0.021154	0.537526	0.000125
H178	H	0.521154	1.037526	0.500125
H179	H	-0.315069	1.014685	0.000144
H180	H	0.184931	1.514685	0.500144
N181	N	0.036929	0.693601	0.000106
N182	N	0.536929	1.193601	0.500106
H183	H	0.067302	0.683863	-0.056418
H184	H	0.567302	1.183863	0.443582
H185	H	0.025508	0.748190	0.000142
H186	H	0.525508	1.248190	0.500142
N187	N	-0.901658	0.755022	0.000107
N188	N	-0.401658	1.255022	0.500107
H189	H	-0.934817	0.752467	-0.056418
H190	H	-0.434817	1.252467	0.443582
H191	H	-0.870423	0.710781	0.000147
H192	H	-0.370423	1.210781	0.500147
