data_functionalizedCrystal
_audit_creation_method	'MofGen! by Chris Wilmer'
_symmetry_space_group_name_H-M	'P1'
_symmetry_Int_Tables_number	1
_symmetry_cell_setting	triclinic
loop_
_symmetry_equiv_pos_as_xyz
  x,y,z
_cell_length_a	14.519709
_cell_length_b	17.666332
_cell_length_c	14.519731
_cell_angle_alpha	90.007449
_cell_angle_beta	83.684499
_cell_angle_gamma	90.003734
loop_
_atom_site_label
_atom_site_type_symbol
_atom_site_fract_x
_atom_site_fract_y
_atom_site_fract_z
O1	O	1.223883	0.062851	0.120892
O2	O	1.557216	0.396185	0.454225
O3	O	1.890550	0.729518	0.787558
O4	O	0.955407	0.062875	0.135128
O5	O	1.288741	0.396208	0.468461
O6	O	1.622074	0.729541	0.801795
O7	O	1.096753	0.062856	-0.006227
O8	O	1.430086	0.396189	0.327106
O9	O	1.763420	0.729522	0.660439
O10	O	1.082537	0.062871	0.262247
O11	O	1.415870	0.396204	0.595580
O12	O	1.749204	0.729537	0.928914
O13	O	1.096728	-0.063041	-0.006235
O14	O	1.430062	0.270292	0.327098
O15	O	1.763395	0.603626	0.660432
O16	O	0.955382	-0.063022	0.135120
O17	O	1.288716	0.270311	0.468454
O18	O	1.622049	0.603645	0.801787
O19	O	1.223858	-0.063045	0.120884
O20	O	1.557192	0.270288	0.454217
O21	O	1.890525	0.603621	0.787551
Cu22	Cu	1.089618	-0.074529	0.128002
Cu23	Cu	1.422951	0.258804	0.461335
Cu24	Cu	1.756285	0.592138	0.794668
Cu25	Cu	1.089647	0.074359	0.128010
Cu26	Cu	1.422981	0.407692	0.461344
Cu27	Cu	1.756314	0.741025	0.794677
O28	O	1.082512	-0.063026	0.262239
O29	O	1.415846	0.270307	0.595573
O30	O	1.749179	0.603641	0.928906
C31	C	0.921035	-0.000071	0.134461
C32	C	1.254368	0.333263	0.467794
C33	C	1.587702	0.666596	0.801127
C34	C	0.818654	-0.000062	0.132473
C35	C	1.151987	0.333271	0.465806
C36	C	1.485320	0.666605	0.799139
N37	N	1.089604	-0.179248	0.127995
N38	N	1.422937	0.154085	0.461328
N39	N	1.756271	0.487418	0.794661
C40	C	0.443757	-0.000097	0.125153
C41	C	0.777091	0.333237	0.458486
C42	C	1.110424	0.666570	0.791820
C43	C	0.548065	-0.000087	0.127186
C44	C	0.881399	0.333246	0.460519
C45	C	1.214732	0.666580	0.793852
C46	C	0.631202	-0.000079	0.128813
C47	C	0.964535	0.333255	0.462146
C48	C	1.297869	0.666588	0.795479
C49	C	0.735517	-0.000070	0.130846
C50	C	1.068850	0.333263	0.464179
C51	C	1.402183	0.666597	0.797512
C52	C	1.152212	-0.218867	0.065433
C53	C	1.485546	0.114467	0.398767
C54	C	1.818879	0.447800	0.732100
C55	C	1.152218	-0.298114	0.065429
C56	C	1.485551	0.035219	0.398762
C57	C	1.818884	0.368552	0.732095
C58	C	1.089624	-0.337741	0.128002
C59	C	1.422957	-0.004407	0.461335
C60	C	1.756290	0.328926	0.794668
C61	C	1.027003	-0.298113	0.190568
C62	C	1.360337	0.035221	0.523901
C63	C	1.693670	0.368554	0.857235
C64	C	1.026994	-0.218867	0.190564
C65	C	1.360327	0.114467	0.523898
C66	C	1.693660	0.447800	0.857231
N67	N	1.078025	-0.462154	0.209585
N68	N	1.411358	-0.128821	0.542918
N69	N	1.744692	0.204513	0.876251
N70	N	1.078040	-0.537434	0.209585
N71	N	1.411373	-0.204101	0.542918
N72	N	1.744707	0.129232	0.876252
C73	C	1.089648	-0.576505	0.128015
C74	C	1.422981	-0.243171	0.461348
C75	C	1.756315	0.090162	0.794681
N76	N	1.101259	-0.537450	0.046441
N77	N	1.434592	-0.204117	0.379775
N78	N	1.767925	0.129216	0.713108
N79	N	1.101249	-0.462163	0.046442
N80	N	1.434582	-0.128830	0.379775
N81	N	1.767915	0.204504	0.713108
C82	C	1.089627	-0.423670	0.128012
C83	C	1.422960	-0.090336	0.461345
C84	C	1.756294	0.242997	0.794679
C85	C	1.152266	-0.702052	0.065443
C86	C	1.485599	-0.368719	0.398777
C87	C	1.818932	-0.035385	0.732110
C88	C	1.152264	-0.781301	0.065438
C89	C	1.485598	-0.447968	0.398771
C90	C	1.818931	-0.114635	0.732104
C91	C	1.027055	-0.781298	0.190585
C92	C	1.360388	-0.447965	0.523918
C93	C	1.693721	-0.114632	0.857251
C94	C	1.027051	-0.702051	0.190582
C95	C	1.360385	-0.368717	0.523916
C96	C	1.693718	-0.035384	0.857249
C97	C	1.089662	-0.662432	0.128013
C98	C	1.422995	-0.329099	0.461346
C99	C	1.756328	0.004234	0.794679
C100	C	1.258230	-0.000098	0.121551
C101	C	1.591564	0.333235	0.454885
C102	C	1.924897	0.666569	0.788218
C103	C	1.360612	-0.000102	0.123539
C104	C	1.693945	0.333231	0.456873
C105	C	2.027279	0.666565	0.790206
C106	C	1.096075	-0.000093	-0.040591
C107	C	1.429408	0.333241	0.292743
C108	C	1.762741	0.666574	0.626076
C109	C	1.094079	-0.000093	-0.142971
C110	C	1.427412	0.333240	0.190363
C111	C	1.760745	0.666574	0.523696
N112	N	1.089669	0.179078	0.128010
N113	N	1.423002	0.512411	0.461343
N114	N	1.756335	0.845745	0.794677
C115	C	1.092457	-0.000091	-0.226115
C116	C	1.425790	0.333242	0.107218
C117	C	1.759123	0.666575	0.440552
C118	C	1.090430	-0.000085	-0.330424
C119	C	1.423763	0.333248	0.002910
C120	C	1.757097	0.666581	0.336243
C121	C	1.088822	-0.000080	-0.413563
C122	C	1.422155	0.333253	-0.080229
C123	C	1.755488	0.666586	0.253104
C124	C	1.086795	-0.000076	-0.517878
C125	C	1.420129	0.333258	-0.184545
C126	C	1.753462	0.666591	0.148789
C127	C	1.083191	-0.000076	0.296603
C128	C	1.416524	0.333257	0.629936
C129	C	1.749858	0.666591	0.963269
C130	C	1.085187	-0.000071	0.398983
C131	C	1.418520	0.333263	0.732316
C132	C	1.751854	0.666596	1.065649
H133	H	1.203191	-0.186612	0.014483
H134	H	1.536525	0.146722	0.347817
H135	H	1.869858	0.480055	0.681150
H136	H	1.203245	-0.813559	0.014488
H137	H	1.536578	-0.480226	0.347821
H138	H	1.869912	-0.146892	0.681154
H139	H	0.976009	-0.186609	0.241510
H140	H	1.309343	0.146725	0.574844
H141	H	1.642676	0.480058	0.908177
Cl142	Cl	0.948345	-0.652240	0.269240
Cl143	Cl	1.281678	-0.318907	0.602573
Cl144	Cl	1.615011	0.014427	0.935906
Cl145	Cl	1.230970	-0.652245	-0.013220
Cl146	Cl	1.564304	-0.318912	0.320113
Cl147	Cl	1.897637	0.014422	0.653447
H148	H	0.976086	-0.813561	0.241529
H149	H	1.309419	-0.480228	0.574862
H150	H	1.642752	-0.146895	0.908196
H151	H	0.976037	-0.330380	0.241514
H152	H	1.309370	0.002953	0.574848
H153	H	1.642703	0.336286	0.908181
Cl154	Cl	1.230933	-0.347928	-0.013226
Cl155	Cl	1.564267	-0.014595	0.320107
Cl156	Cl	1.897600	0.318738	0.653440
