data_functionalizedCrystal
_audit_creation_method	'MofGen! by Chris Wilmer'
_symmetry_space_group_name_H-M	'P1'
_symmetry_Int_Tables_number	1
_symmetry_cell_setting	triclinic
loop_
_symmetry_equiv_pos_as_xyz
  x,y,z
_cell_length_a	17.699083
_cell_length_b	16.776229
_cell_length_c	17.699083
_cell_angle_alpha	89.987445
_cell_angle_beta	96.716986
_cell_angle_gamma	90.002883
loop_
_atom_site_label
_atom_site_type_symbol
_atom_site_fract_x
_atom_site_fract_y
_atom_site_fract_z
O1	O	-1.004076	0.066157	0.095699
O2	O	-0.783698	0.066184	0.108152
O3	O	-0.900113	0.066177	-0.008264
O4	O	-0.887661	0.066163	0.212115
O5	O	-0.900102	-0.066399	-0.008243
O6	O	-0.783687	-0.066393	0.108172
O7	O	-1.004065	-0.066419	0.095720
Zn8	Zn	-0.893874	-0.087456	0.101949
Zn9	Zn	-0.893889	0.087220	0.101922
O10	O	-0.887650	-0.066413	0.212135
C11	C	-0.755495	-0.000101	0.107716
C12	C	-0.671477	-0.000090	0.106377
N13	N	-0.893870	-0.206667	0.101967
C14	C	-0.622856	-0.000095	0.174711
C15	C	-0.543913	-0.000104	0.173448
C16	C	-0.513592	-0.000104	0.103852
C17	C	-0.562219	-0.000102	0.035513
C18	C	-0.641161	-0.000098	0.036776
C19	C	-0.243856	-0.000119	0.030418
C20	C	-0.164908	-0.000120	0.029160
C21	C	-0.146608	-0.000125	0.167090
C22	C	-0.225550	-0.000121	0.168353
C23	C	-0.274170	-0.000124	0.100015
C24	C	-0.359769	-0.000115	0.101384
C25	C	-0.427995	-0.000107	0.102481
C26	C	-0.032268	-0.000131	0.096156
C27	C	-0.116286	-0.000130	0.097494
C28	C	-0.848081	-0.751830	0.056058
C29	C	-0.848079	-0.668377	0.056064
C30	C	-0.893892	-0.626666	0.101916
C31	C	-0.939715	-0.668411	0.147758
C32	C	-0.939720	-0.751862	0.147747
C33	C	-0.939695	-0.331864	0.147803
C34	C	-0.939685	-0.248408	0.147812
C35	C	-0.848054	-0.248380	0.056120
C36	C	-0.848060	-0.331830	0.056109
C37	C	-0.893885	-0.373568	0.101948
C38	C	-0.893888	-0.464057	0.101939
C39	C	-0.893886	-0.536179	0.101929
C40	C	-0.888102	-0.000127	0.240322
C41	C	-0.889440	-0.000133	0.324340
N42	N	-0.893899	0.206431	0.101898
C43	C	-0.899662	-0.000107	-0.036451
C44	C	-0.898323	-0.000096	-0.120469
C45	C	-0.821107	-0.000125	0.372961
C46	C	-0.822369	-0.000116	0.451904
C47	C	-0.891965	-0.000120	0.482225
C48	C	-0.960304	-0.000126	0.433598
C49	C	-0.959041	-0.000130	0.354656
C50	C	-0.965399	-0.000111	0.751961
C51	C	-0.966657	-0.000110	0.830909
C52	C	-0.828727	-0.000097	0.849209
C53	C	-0.827464	-0.000100	0.770267
C54	C	-0.895803	-0.000102	0.721647
C55	C	-0.894433	-0.000110	0.636048
C56	C	-0.893336	-0.000118	0.567823
H57	H	-0.504328	-0.000107	0.229092
H58	H	-1.023334	-0.000112	0.855592
H59	H	-0.810751	-0.365788	0.018774
H60	H	-0.810743	-0.214387	0.018793
O61	O	-0.752401	-0.000096	0.737562
H62	H	-0.705095	-0.000081	0.784634
H63	H	-0.537526	-0.000113	-0.021154
H64	H	-0.976993	-0.214449	0.185152
H65	H	-0.283434	-0.000122	-0.025228
O66	O	-1.039103	-0.000131	0.699525
H67	H	-1.087707	-0.000147	0.733874
H68	H	-0.977009	-0.365837	0.185129
O69	O	-0.989124	-0.623429	0.197221
H70	H	-0.981416	-0.558387	0.189536
O71	O	-1.035372	-0.000131	0.466295
H72	H	-1.024772	-0.000135	0.529357
H73	H	-0.680748	-0.000094	-0.018868
O74	O	-1.032743	-0.000146	0.302209
H75	H	-1.081350	-0.000158	0.336553
H76	H	-0.977030	-0.785845	0.185075
O77	O	-0.746042	-0.000119	0.340258
H78	H	-0.698738	-0.000104	0.387333
O79	O	-0.748667	-0.000122	0.504348
H80	H	-0.700061	-0.000135	0.470002
O81	O	-0.094165	-0.000141	0.240800
H82	H	-0.057748	0.053886	0.243515
O83	O	-0.655559	-0.000103	0.249776
H84	H	-0.608484	-0.000118	0.297079
H85	H	-0.140225	-0.000121	-0.027517
O86	O	-0.258249	-0.000134	0.243420
H87	H	-0.238701	0.053893	0.276249
O88	O	-0.798684	-0.796818	0.006588
H89	H	-0.766835	-0.753770	-0.025297
H90	H	-0.773083	-0.000093	0.888806
O91	O	-0.798656	-0.623355	0.006628
H92	H	-0.766793	-0.666380	-0.025249
