data_functionalizedCrystal
_audit_creation_method	'MofGen! by Chris Wilmer'
_symmetry_space_group_name_H-M	'P1'
_symmetry_Int_Tables_number	1
_symmetry_cell_setting	triclinic
loop_
_symmetry_equiv_pos_as_xyz
  x,y,z
_cell_length_a	27.732048
_cell_length_b	11.792241
_cell_length_c	10.268362
_cell_angle_alpha	90.005428
_cell_angle_beta	90.000911
_cell_angle_gamma	96.581965
loop_
_atom_site_label
_atom_site_type_symbol
_atom_site_fract_x
_atom_site_fract_y
_atom_site_fract_z
O1	O	0.641711	-0.135041	-0.108133
O2	O	0.975044	0.198292	0.225200
O3	O	1.308377	0.531626	0.558533
O4	O	0.501036	-0.155574	-0.108173
O5	O	0.834370	0.177759	0.225161
O6	O	1.167703	0.511093	0.558494
O7	O	0.574787	0.019972	-0.108143
O8	O	0.908121	0.353305	0.225190
O9	O	1.241454	0.686639	0.558524
O10	O	0.567960	-0.310587	-0.108163
O11	O	0.901293	0.022746	0.225170
O12	O	1.234626	0.356079	0.558504
O13	O	0.574781	0.019979	0.108458
O14	O	0.908114	0.353313	0.441791
O15	O	1.241447	0.686646	0.775124
O16	O	0.501030	-0.155567	0.108428
O17	O	0.834363	0.177766	0.441761
O18	O	1.167697	0.511100	0.775095
O19	O	0.641704	-0.135034	0.108467
O20	O	0.975038	0.198299	0.441801
O21	O	1.308371	0.531633	0.775134
Cu22	Cu	0.571366	-0.145300	0.128225
Cu23	Cu	0.904700	0.188033	0.461558
Cu24	Cu	1.238033	0.521367	0.794892
Cu25	Cu	0.571374	-0.145308	-0.127930
Cu26	Cu	0.904707	0.188025	0.205403
Cu27	Cu	1.238041	0.521358	0.538736
O28	O	0.567953	-0.310580	0.108438
O29	O	0.901287	0.022753	0.441771
O30	O	1.234620	0.356086	0.775104
C31	C	0.483024	-0.155140	0.000123
C32	C	0.816357	0.178194	0.333456
C33	C	1.149690	0.511527	0.666789
C34	C	0.429361	-0.153842	0.000108
C35	C	0.762695	0.179492	0.333441
C36	C	1.096028	0.512825	0.666775
C37	C	0.574355	0.062253	0.000157
C38	C	0.907689	0.395586	0.333490
C39	C	1.241022	0.728920	0.666824
C40	C	0.573071	0.188226	0.000155
C41	C	0.906405	0.521559	0.333489
C42	C	1.239738	0.854892	0.666822
N43	N	0.571365	-0.145293	0.308391
N44	N	0.904698	0.188040	0.641724
N45	N	1.238031	0.521373	0.975058
C46	C	0.091101	-0.249407	0.000158
C47	C	0.424434	0.083926	0.333492
C48	C	0.757767	0.417259	0.666825
C49	C	-0.110587	-0.244592	0.000170
C50	C	0.222746	0.088741	0.333504
C51	C	0.556080	0.422075	0.666837
O52	O	-0.141335	-0.331980	0.000221
O53	O	0.191998	0.001353	0.333555
O54	O	0.525331	0.334687	0.666888
N55	N	-0.130315	-0.140500	0.000174
N56	N	0.203019	0.192833	0.333508
N57	N	0.536352	0.526166	0.666841
C58	C	-0.099617	-0.037605	0.000184
C59	C	0.233716	0.295728	0.333517
C60	C	0.567050	0.629062	0.666851
O61	O	-0.121024	0.051042	0.000201
O62	O	0.212309	0.384375	0.333535
O63	O	0.545642	0.717708	0.666868
C64	C	0.102070	-0.042422	0.000181
C65	C	0.435403	0.290912	0.333515
C66	C	0.768736	0.624245	0.666848
C67	C	0.121794	-0.146520	0.000164
C68	C	0.455128	0.186813	0.333498
C69	C	0.788461	0.520147	0.666831
C70	C	0.110826	-0.353497	0.000143
C71	C	0.444159	-0.020164	0.333476
C72	C	0.777493	0.313169	0.666809
C73	C	0.161245	-0.354700	0.000133
C74	C	0.494578	-0.021367	0.333466
C75	C	0.827911	0.311967	0.666799
C76	C	0.191939	-0.251813	0.000138
C77	C	0.525272	0.081521	0.333472
C78	C	0.858605	0.414854	0.666805
C79	C	0.172213	-0.147723	0.000154
C80	C	0.505547	0.185610	0.333487
C81	C	0.838880	0.518944	0.666821
C82	C	0.132766	0.060472	0.000200
C83	C	0.466100	0.393805	0.333534
C84	C	0.799433	0.727139	0.666867
C85	C	0.183191	0.059259	0.000203
C86	C	0.516524	0.392592	0.333536
C87	C	0.849857	0.725925	0.666870
C88	C	0.202915	-0.044840	0.000186
C89	C	0.536249	0.288494	0.333519
C90	C	0.869582	0.621827	0.666852
C91	C	0.253326	-0.046038	0.000150
C92	C	0.586659	0.287295	0.333483
C93	C	0.919993	0.620628	0.666816
N94	N	0.273054	-0.150130	0.000146
N95	N	0.606387	0.183203	0.333479
N96	N	0.939720	0.516537	0.666812
C97	C	0.242360	-0.253017	0.000140
C98	C	0.575693	0.080316	0.333473
C99	C	0.909027	0.413649	0.666807
C100	C	-0.205506	-0.035084	0.000183
C101	C	0.127828	0.298250	0.333516
C102	C	0.461161	0.631583	0.666850
C103	C	-0.255927	-0.033879	0.000181
C104	C	0.077406	0.299454	0.333514
C105	C	0.410740	0.632787	0.666848
C106	C	-0.266894	-0.240866	0.000170
C107	C	0.066440	0.092467	0.333503
C108	C	0.399773	0.425800	0.666837
C109	C	-0.216471	-0.242070	0.000162
C110	C	0.116862	0.091264	0.333496
C111	C	0.450195	0.424597	0.666829
C112	C	-0.185778	-0.139175	0.000179
C113	C	0.147555	0.194158	0.333512
C114	C	0.480889	0.527491	0.666845
C115	C	0.348244	-0.255535	0.000118
C116	C	0.681577	0.077798	0.333451
C117	C	1.014910	0.411131	0.666784
C118	C	0.398668	-0.256729	0.000102
C119	C	0.732001	0.076604	0.333436
C120	C	1.065334	0.409938	0.666769
C121	C	0.409630	-0.049742	0.000120
C122	C	0.742963	0.283591	0.333454
C123	C	1.076296	0.616924	0.666787
C124	C	0.359210	-0.048548	0.000129
C125	C	0.692544	0.284785	0.333462
C126	C	1.025877	0.618119	0.666796
C127	C	0.328518	-0.151454	0.000132
C128	C	0.661851	0.181880	0.333465
C129	C	0.995185	0.515213	0.666799
O130	O	0.284103	0.041303	0.000113
O131	O	0.617437	0.374636	0.333447
O132	O	0.950770	0.707969	0.666780
O133	O	0.263777	-0.341651	0.000152
O134	O	0.597110	-0.008318	0.333485
O135	O	0.930443	0.325016	0.666818
C136	C	0.040682	-0.248205	0.000169
C137	C	0.374015	0.085129	0.333502
C138	C	0.707348	0.418462	0.666835
C139	C	0.020957	-0.144115	0.000184
C140	C	0.354290	0.189219	0.333518
C141	C	0.687623	0.522552	0.666851
C142	C	0.051650	-0.041227	0.000190
C143	C	0.384984	0.292106	0.333523
C144	C	0.718317	0.625439	0.666857
C145	C	-0.029465	-0.142910	0.000183
C146	C	0.303868	0.190423	0.333516
C147	C	0.637202	0.523756	0.666849
C148	C	-0.060159	-0.245797	0.000177
C149	C	0.273175	0.087536	0.333510
C150	C	0.606508	0.420869	0.666844
C151	C	-0.040431	-0.349889	0.000173
C152	C	0.292902	-0.016556	0.333506
C153	C	0.626236	0.316778	0.666840
C154	C	0.009988	-0.351092	0.000163
C155	C	0.343321	-0.017758	0.333496
C156	C	0.676655	0.315575	0.666830
C157	C	0.031923	0.062864	0.000194
C158	C	0.365256	0.396198	0.333527
C159	C	0.698589	0.729531	0.666861
C160	C	-0.018497	0.064058	0.000203
C161	C	0.314836	0.397392	0.333536
C162	C	0.648170	0.730725	0.666869
C163	C	-0.049191	-0.038829	0.000197
C164	C	0.284143	0.294505	0.333530
C165	C	0.617476	0.627838	0.666864
C166	C	0.659717	-0.135469	0.000169
C167	C	0.993050	0.197865	0.333503
C168	C	1.326384	0.531198	0.666836
C169	C	0.713379	-0.136766	0.000175
C170	C	1.046713	0.196567	0.333509
C171	C	1.380046	0.529900	0.666842
C172	C	0.568385	-0.352861	0.000135
C173	C	0.901719	-0.019528	0.333468
C174	C	1.235052	0.313806	0.666802
C175	C	0.569669	-0.478834	0.000128
C176	C	0.903002	-0.145500	0.333461
C177	C	1.236336	0.187833	0.666795
C178	C	0.570711	0.418862	0.000133
C179	C	0.904044	0.752196	0.333466
C180	C	1.237378	1.085529	0.666800
C181	C	0.572023	0.290519	0.000145
C182	C	0.905356	0.623852	0.333478
C183	C	1.238689	0.957186	0.666812
N184	N	0.571380	-0.145306	-0.308096
N185	N	0.904713	0.188028	0.025237
N186	N	1.238046	0.521361	0.358571
C187	C	0.571372	-0.145306	0.574062
C188	C	0.904705	0.188027	0.907395
C189	C	1.238038	0.521361	1.240728
C190	C	0.571366	-0.145302	0.426224
C191	C	0.904700	0.188031	0.759557
C192	C	1.238033	0.521364	1.092890
H193	H	0.414724	-0.341502	0.000087
H194	H	0.748058	-0.008168	0.333421
H195	H	1.081391	0.325165	0.666754
C196	C	-0.277618	0.080637	0.000191
C197	C	0.055715	0.413970	0.333525
C198	C	0.389049	0.747304	0.666858
N199	N	-0.293954	0.166895	0.000210
N200	N	0.039379	0.500228	0.333543
N201	N	0.372713	0.833561	0.666877
C202	C	0.216951	0.172454	0.000216
C203	C	0.550284	0.505787	0.333549
C204	C	0.883617	0.839121	0.666882
N205	N	0.242378	0.257713	0.000220
N206	N	0.575711	0.591046	0.333553
N207	N	0.909044	0.924379	0.666887
H208	H	-0.291893	-0.324641	0.000166
H209	H	0.041440	0.008692	0.333499
H210	H	0.374774	0.342025	0.666832
C211	C	-0.194779	-0.356585	0.000158
C212	C	0.138554	-0.023251	0.333491
C213	C	0.471888	0.310082	0.666824
N214	N	-0.178443	-0.442842	0.000160
N215	N	0.154890	-0.109509	0.333493
N216	N	0.488223	0.223824	0.666826
C217	C	0.337513	0.065965	0.000131
C218	C	0.670846	0.399298	0.333464
C219	C	1.004179	0.732631	0.666798
N220	N	0.321173	0.152218	0.000144
N221	N	0.654507	0.485551	0.333477
N222	N	0.987840	0.818885	0.666810
H223	H	0.323260	-0.339331	0.000124
H224	H	0.656593	-0.005998	0.333458
H225	H	0.989926	0.327336	0.666791
H226	H	0.177300	-0.439467	0.000118
H227	H	0.510633	-0.106134	0.333451
H228	H	0.843966	0.227199	0.666785
C229	C	-0.171749	0.078116	0.000191
C230	C	0.161585	0.411450	0.333524
C231	C	0.494918	0.744783	0.666858
N232	N	-0.146325	0.163380	0.000190
N233	N	0.187008	0.496713	0.333524
N234	N	0.520342	0.830046	0.666857
H235	H	0.116716	0.145240	0.000215
H236	H	0.450049	0.478573	0.333549
H237	H	0.783382	0.811907	0.666882
H238	H	0.085840	-0.437285	0.000143
H239	H	0.419173	-0.103952	0.333476
H240	H	0.752506	0.229381	0.666809
C241	C	0.443402	0.063428	0.000142
C242	C	0.776735	0.396761	0.333475
C243	C	1.110069	0.730095	0.666808
N244	N	0.468841	0.148669	0.000172
N245	N	0.802174	0.482002	0.333505
N246	N	1.135508	0.815335	0.666839
C247	C	0.031678	-0.465609	0.000160
C248	C	0.365011	-0.132276	0.333493
C249	C	0.698345	0.201058	0.666826
N250	N	0.048012	-0.551870	0.000163
N251	N	0.381345	-0.218536	0.333497
N252	N	0.714678	0.114797	0.666830
C253	C	-0.074204	-0.463065	0.000171
C254	C	0.259130	-0.129732	0.333505
C255	C	0.592463	0.203601	0.666838
N256	N	-0.099644	-0.548304	0.000179
N257	N	0.233690	-0.214971	0.333513
N258	N	0.567023	0.118362	0.666846
H259	H	-0.034551	0.148834	0.000206
H260	H	0.298782	0.482167	0.333540
H261	H	0.632115	0.815501	0.666873
H262	H	0.056909	0.146649	0.000202
H263	H	0.390242	0.479983	0.333535
H264	H	0.723576	0.813316	0.666869
