data_functionalizedCrystal
_audit_creation_method	'MofGen! by Chris Wilmer'
_symmetry_space_group_name_H-M	'P1'
_symmetry_Int_Tables_number	1
_symmetry_cell_setting	triclinic
loop_
_symmetry_equiv_pos_as_xyz
  x,y,z
_cell_length_a	21.395364
_cell_length_b	16.625545
_cell_length_c	21.395356
_cell_angle_alpha	89.974643
_cell_angle_beta	89.976411
_cell_angle_gamma	90.040509
loop_
_atom_site_label
_atom_site_type_symbol
_atom_site_fract_x
_atom_site_fract_y
_atom_site_fract_z
Zn1	Zn	0.957876	-0.320700	-0.354272
Zn2	Zn	0.957789	-0.455537	-0.249498
Zn3	Zn	0.853092	-0.320757	-0.249508
Zn4	Zn	0.853069	-0.455530	-0.354239
O5	O	0.905457	-0.388131	-0.301879
O6	O	1.045542	-0.338566	-0.340383
O7	O	0.943875	-0.437685	-0.161822
O8	O	0.867038	-0.207917	-0.263423
O9	O	1.045479	-0.437630	-0.263406
O10	O	0.944022	-0.207876	-0.340393
O11	O	0.866954	-0.338663	-0.161829
O12	O	0.765411	-0.338656	-0.263391
O13	O	0.866999	-0.437618	-0.441921
O14	O	0.765394	-0.437673	-0.340336
O15	O	0.943999	-0.338559	-0.441945
O16	O	0.943852	-0.568369	-0.263374
O17	O	0.866915	-0.568363	-0.340327
C18	C	0.742669	-0.388170	-0.301862
C19	C	0.673028	-0.388207	-0.301869
C20	C	0.640370	-0.336708	-0.342013
C21	C	0.574935	-0.336687	-0.342015
C22	C	0.542160	-0.388178	-0.301880
C23	C	0.574825	-0.439680	-0.261729
C24	C	0.640259	-0.439694	-0.261723
C25	C	0.438440	-0.460792	-0.296845
C26	C	0.373007	-0.460779	-0.296855
C27	C	0.340339	-0.388134	-0.301894
C28	C	0.373111	-0.315499	-0.306936
C29	C	0.438545	-0.315513	-0.306931
C30	C	0.471207	-0.388168	-0.301882
C31	C	0.236729	-0.336608	-0.342043
C32	C	0.171292	-0.336585	-0.342041
C33	C	0.171184	-0.439585	-0.261758
C34	C	0.236619	-0.439601	-0.261757
C35	C	0.269387	-0.388113	-0.301902
C36	C	0.905389	-0.597622	-0.301860
C37	C	0.905417	-0.687243	-0.301872
C38	C	0.905441	-0.760026	-0.301884
C39	C	0.905478	-0.851334	-0.301898
C40	C	0.905510	-0.924110	-0.301906
C41	C	0.905546	-1.015425	-0.301919
C42	C	1.068880	-0.388092	-0.301897
C43	C	1.138521	-0.388076	-0.301905
C44	C	0.905506	-0.388081	-0.465303
C45	C	0.905527	-0.388060	-0.534944
C46	C	0.905542	-0.177822	-0.301913
C47	C	0.905579	-0.088201	-0.301927
C48	C	0.865485	-0.336493	-0.567651
C49	C	0.865483	-0.336478	-0.633086
C50	C	0.905534	-0.388022	-0.665812
C51	C	0.945578	-0.439598	-0.633097
C52	C	0.945575	-0.439617	-0.567663
C53	C	0.961986	-0.394342	-0.769499
C54	C	0.961991	-0.394317	-0.834932
C55	C	0.905544	-0.387967	-0.867633
C56	C	0.849091	-0.381625	-0.834893
C57	C	0.849088	-0.381644	-0.769459
C58	C	0.905542	-0.388007	-0.736765
C59	C	0.865497	-0.336382	-0.971293
C60	C	0.865494	-0.336372	-1.036729
C61	C	0.945595	-0.439488	-1.036739
C62	C	0.945592	-0.439501	-0.971304
C63	C	0.905544	-0.387944	-0.938584
C64	C	0.905444	-0.388123	-0.139092
C65	C	0.905544	-0.387917	-0.069451
H66	H	0.666849	-0.481632	-0.229033
H67	H	0.978206	-0.481454	-1.063384
H68	H	0.346514	-0.256344	-0.311040
H69	H	0.803127	-0.376449	-0.861517
O70	O	0.988773	-0.495200	-0.668389
H71	H	1.037953	-0.481374	-0.655845
H72	H	0.832873	-0.294514	-0.541015
H73	H	0.144703	-0.294644	-0.374729
H74	H	0.978200	-0.481491	-0.944673
O75	O	0.135839	-0.495116	-0.218465
H76	H	0.169545	-0.530926	-0.190546
O77	O	0.822305	-0.280745	-1.072007
H78	H	0.790406	-0.316826	-1.101796
H79	H	0.667046	-0.294783	-0.374702
O80	O	0.272074	-0.281067	-0.385335
H81	H	0.323062	-0.289736	-0.378593
H82	H	0.465034	-0.519953	-0.292741
H83	H	0.832877	-0.294483	-0.659722
H84	H	0.263209	-0.481540	-0.229070
O85	O	0.788206	-0.374799	-0.734144
H86	H	0.748953	-0.370379	-0.767871
H87	H	0.832887	-0.294401	-0.944651
O88	O	0.337661	-0.539114	-0.291405
H89	H	0.371368	-0.589629	-0.287883
H90	H	0.548135	-0.481604	-0.229051
H91	H	1.007958	-0.399477	-0.861583
O92	O	0.539696	-0.281144	-0.385314
H93	H	0.552264	-0.295069	-0.434468
H94	H	1.007956	-0.399506	-0.742879
O95	O	0.988774	-0.495225	-0.532380
H96	H	1.016629	-0.531060	-0.566126
H97	H	0.465226	-0.256372	-0.311034
