data_functionalizedCrystal
_audit_creation_method	'MofGen! by Chris Wilmer'
_symmetry_space_group_name_H-M	'P1'
_symmetry_Int_Tables_number	1
_symmetry_cell_setting	triclinic
loop_
_symmetry_equiv_pos_as_xyz
  x,y,z
_cell_length_a	10.723024
_cell_length_b	10.723024
_cell_length_c	9.198806
_cell_angle_alpha	89.997988
_cell_angle_beta	89.996352
_cell_angle_gamma	84.467869
loop_
_atom_site_label
_atom_site_type_symbol
_atom_site_fract_x
_atom_site_fract_y
_atom_site_fract_z
O1	O	1.657188	0.175024	-0.120879
O2	O	1.294035	0.191778	-0.120884
O3	O	1.483988	0.001825	-0.120876
O4	O	1.467235	0.364977	-0.120887
O5	O	1.483973	0.001824	0.120909
O6	O	1.294020	0.191777	0.120901
O7	O	1.657173	0.175024	0.120906
Cu8	Cu	1.475595	0.183401	0.142981
Cu9	Cu	1.475613	0.183401	-0.142958
O10	O	1.467220	0.364977	0.120898
C11	C	1.247528	0.190558	0.000008
C12	C	1.108974	0.186911	0.000007
C13	C	1.033991	0.293198	0.000002
C14	C	0.890788	0.289431	0.000001
C15	C	1.482762	-0.044675	0.000015
C16	C	1.479114	-0.183229	0.000010
C17	C	1.585401	-0.258212	0.000009
C18	C	1.581634	-0.401415	0.000004
C19	C	1.703680	0.176243	0.000011
C20	C	1.842234	0.179891	0.000003
C21	C	1.468447	0.411477	0.000004
C22	C	1.472094	0.550031	-0.000000
N23	N	1.475592	0.183399	0.344095
N24	N	1.475626	0.183393	-0.344072
C25	C	1.555347	0.103292	0.416295
C26	C	1.555367	0.103288	0.583707
H27	H	0.906659	0.088896	-0.000003
C28	C	1.383360	0.276052	0.428008
C29	C	1.241177	0.273077	0.407255
C30	C	1.148943	0.365733	0.491163
C31	C	1.198891	0.461365	0.595825
C32	C	1.341082	0.464344	0.616583
C33	C	1.433316	0.371688	0.532674
H34	H	1.204196	0.202281	0.329774
H35	H	1.043684	0.363527	0.475797
H36	H	1.130614	0.529955	0.657940
H37	H	1.378063	0.535140	0.694064
H38	H	1.538575	0.373894	0.548041
C39	C	1.052490	0.060204	0.000009
C40	C	0.966752	0.026731	0.125562
C41	C	0.910272	-0.099980	0.125565
C42	C	0.939530	-0.193219	0.000015
C43	C	1.025272	-0.159749	-0.125546
C44	C	1.081752	-0.033037	-0.125549
H45	H	0.945090	0.095754	0.218509
H46	H	0.846800	-0.124757	0.218514
H47	H	0.897720	-0.287019	0.000018
H48	H	1.046934	-0.228772	-0.218494
H49	H	1.145224	-0.008261	-0.218499
H50	H	0.826355	0.380421	-0.000009
C51	C	1.090481	0.419903	-0.000003
C52	C	1.061229	0.513145	0.125544
C53	C	1.117716	0.639852	0.125537
C54	C	1.203455	0.673318	-0.000017
C55	C	1.232711	0.580073	-0.125574
C56	C	1.176224	0.453366	-0.125567
H57	H	0.997756	0.488374	0.218495
H58	H	1.096059	0.708878	0.218483
H59	H	1.245271	0.767114	-0.000023
H60	H	1.296185	0.604844	-0.218525
H61	H	1.197882	0.384340	-0.218513
C62	C	1.647617	0.010630	0.667574
C63	C	1.643893	-0.131466	0.646843
C64	C	1.736148	-0.224127	0.730713
C65	C	1.832126	-0.174692	0.835314
C66	C	1.835853	-0.032588	0.856049
C67	C	1.743599	0.060073	0.772179
H68	H	1.572841	-0.168068	0.569408
H69	H	1.733387	-0.329322	0.715363
H70	H	1.900418	-0.243285	0.897399
H71	H	1.906906	0.004014	0.933485
H72	H	1.746359	0.165268	0.787529
H73	H	1.679187	-0.216390	0.000019
H74	H	1.623611	0.034707	0.354171
H75	H	1.407345	0.251984	0.593848
H76	H	1.672624	-0.465848	0.000010
H77	H	1.381099	-0.385544	0.000010
H78	H	1.385328	-0.225051	-0.000001
