data_functionalizedCrystal
_audit_creation_method	'MofGen! by Chris Wilmer'
_symmetry_space_group_name_H-M	'P1'
_symmetry_Int_Tables_number	1
_symmetry_cell_setting	triclinic
loop_
_symmetry_equiv_pos_as_xyz
  x,y,z
_cell_length_a	16.992694
_cell_length_b	16.053802
_cell_length_c	16.992695
_cell_angle_alpha	87.258926
_cell_angle_beta	90.668223
_cell_angle_gamma	92.750953
loop_
_atom_site_label
_atom_site_type_symbol
_atom_site_fract_x
_atom_site_fract_y
_atom_site_fract_z
O1	O	1.053959	0.069325	0.163815
O2	O	1.553959	0.569325	0.663815
O3	O	0.825560	0.069350	0.161983
O4	O	1.325560	0.569350	0.661983
O5	O	0.938844	0.069331	0.048699
O6	O	1.438844	0.569331	0.548699
O7	O	0.940676	0.069344	0.277099
O8	O	1.440676	0.569344	0.777099
O9	O	0.932607	-0.069527	0.054907
O10	O	1.432607	0.430473	0.554907
O11	O	0.819323	-0.069508	0.168191
O12	O	1.319323	0.430492	0.668191
O13	O	1.047722	-0.069533	0.170023
O14	O	1.547722	0.430467	0.670023
Zn15	Zn	0.932532	-0.091567	0.170093
Zn16	Zn	1.432532	0.408433	0.670093
Zn17	Zn	0.940750	0.091384	0.161913
Zn18	Zn	1.440750	0.591384	0.661913
O19	O	0.934438	-0.069514	0.283307
O20	O	1.434438	0.430486	0.783307
C21	C	0.793082	-0.000076	0.162731
C22	C	1.293082	0.499924	0.662731
C23	C	0.705597	-0.000067	0.155702
C24	C	1.205597	0.499933	0.655702
C25	C	0.659607	-0.000064	0.223520
C26	C	1.159607	0.499936	0.723520
C27	C	0.577405	-0.000076	0.216911
C28	C	1.077405	0.499924	0.716911
C29	C	0.541197	-0.000085	0.142484
C30	C	1.041197	0.499915	0.642484
C31	C	0.587193	-0.000091	0.074661
C32	C	1.087193	0.499909	0.574661
C33	C	0.669393	-0.000085	0.081270
C34	C	1.169393	0.499915	0.581270
C35	C	0.295881	-0.000109	0.115090
C36	C	0.795881	0.499891	0.615090
C37	C	0.213676	-0.000112	0.108486
C38	C	0.713676	0.499888	0.608486
C39	C	0.203893	-0.000099	0.250737
C40	C	0.703893	0.499901	0.750737
C41	C	0.286095	-0.000088	0.257339
C42	C	0.786095	0.499912	0.757339
C43	C	0.332084	-0.000098	0.189517
C44	C	0.832084	0.499902	0.689517
N45	N	0.457174	-0.000094	0.135727
N46	N	0.957174	0.499906	0.635727
N47	N	0.416105	-0.000094	0.196275
N48	N	0.916105	0.499906	0.696275
C49	C	0.933370	-0.000098	0.022443
C50	C	1.433370	0.499902	0.522443
C51	C	0.926341	-0.000097	-0.065042
C52	C	1.426341	0.499903	0.434958
C53	C	1.080201	-0.000105	0.169275
C54	C	1.580201	0.499895	0.669275
C55	C	1.167685	-0.000109	0.176304
C56	C	1.667685	0.499891	0.676304
N57	N	0.926930	-0.216427	0.175675
N58	N	1.426930	0.283573	0.675675
C59	C	0.975152	-0.260129	0.127492
C60	C	1.475152	0.239871	0.627492
C61	C	0.971241	-0.347535	0.131404
C62	C	1.471241	0.152465	0.631404
C63	C	0.919110	-0.391237	0.183504
C64	C	1.419110	0.108763	0.683504
C65	C	0.870883	-0.347529	0.231689
C66	C	1.370883	0.152471	0.731689
C67	C	0.874791	-0.260125	0.227772
C68	C	1.374791	0.239875	0.727772
C69	C	0.902039	-0.652644	0.200593
C70	C	1.402039	-0.152644	0.700593
C71	C	0.898136	-0.740055	0.204508
C72	C	1.398136	-0.240055	0.704508
C73	C	0.998493	-0.740054	0.104222
C74	C	1.498493	-0.240054	0.604222
C75	C	1.002400	-0.652648	0.100313
C76	C	1.502400	-0.152648	0.600313
C77	C	0.954169	-0.608948	0.148494
C78	C	1.454169	-0.108948	0.648494
N79	N	0.915113	-0.480580	0.187507
N80	N	1.415113	0.019420	0.687507
N81	N	0.958163	-0.519606	0.144487
N82	N	1.458163	-0.019606	0.644487
N83	N	0.946358	0.216243	0.156325
N84	N	1.446358	0.716243	0.656325
C85	C	0.994158	-0.000105	-0.111032
C86	C	1.494158	0.499895	0.388968
C87	C	0.987550	-0.000096	-0.193233
C88	C	1.487550	0.499904	0.306767
C89	C	0.913123	-0.000086	-0.229442
C90	C	1.413123	0.499914	0.270558
C91	C	0.845300	-0.000075	-0.183446
C92	C	1.345300	0.499925	0.316554
C93	C	0.851910	-0.000078	-0.101246
C94	C	1.351910	0.499922	0.398754
C95	C	0.885729	-0.000071	-0.474757
C96	C	1.385729	0.499929	0.025243
C97	C	0.879124	-0.000071	-0.556962
C98	C	1.379124	0.499929	-0.056962
C99	C	1.021375	-0.000091	-0.566745
C100	C	1.521375	0.499909	-0.066745
C101	C	1.027978	-0.000099	-0.484543
C102	C	1.527978	0.499901	0.015457
C103	C	0.960155	-0.000083	-0.438554
C104	C	1.460155	0.499917	0.061446
N105	N	0.906366	-0.000079	-0.313465
N106	N	1.406366	0.499921	0.186535
N107	N	0.966913	-0.000084	-0.354533
N108	N	1.466913	0.499916	0.145467
C109	C	0.939913	-0.000084	0.309563
C110	C	1.439913	0.499916	0.809563
C111	C	0.946942	-0.000079	0.397047
C112	C	1.446942	0.499921	0.897047
H113	H	0.539963	-0.000072	0.272136
H114	H	1.039963	0.499928	0.772136
H115	H	0.830503	-0.000059	-0.437322
H116	H	1.330503	0.499941	0.062678
C117	C	1.059425	-0.071478	-0.288176
C118	C	1.559425	0.428522	0.211824
C119	C	1.062093	-0.000104	-0.243792
C120	C	1.562093	0.499896	0.256208
H121	H	1.105445	-0.071476	-0.319393
H122	H	1.605445	0.428524	0.180607
H123	H	1.056878	-0.119895	-0.253748
H124	H	1.556878	0.380105	0.246252
H125	H	1.014148	-0.071460	-0.321497
H126	H	1.514148	0.428540	0.178503
H127	H	1.107368	-0.000125	-0.210467
H128	H	1.607368	0.499875	0.289533
H129	H	1.064649	0.048326	-0.278224
H130	H	1.564649	0.548326	0.221776
C131	C	0.896064	-0.554351	0.302248
C132	C	1.396064	-0.054351	0.802248
C133	C	0.849035	-0.604619	0.253568
C134	C	1.349035	-0.104619	0.753568
H135	H	0.863340	-0.524698	0.334953
H136	H	1.363340	-0.024698	0.834953
H137	H	0.929078	-0.588441	0.334152
H138	H	1.429078	-0.088441	0.834152
H139	H	0.927658	-0.515812	0.270649
H140	H	1.427658	-0.015812	0.770649
H141	H	0.817445	-0.643163	0.285166
H142	H	1.317445	-0.143163	0.785166
H143	H	0.816007	-0.570526	0.221660
H144	H	1.316007	-0.070526	0.721660
H145	H	0.784700	-0.000061	-0.212933
H146	H	1.284700	0.499939	0.287067
C147	C	0.799745	-0.000086	0.028241
C148	C	1.299745	0.499914	0.528241
C149	C	0.719950	-0.000088	0.006724
C150	C	1.219950	0.499912	0.506724
H151	H	0.830954	-0.000096	-0.017783
H152	H	1.330954	0.499904	0.482217
H153	H	0.813370	0.048338	0.056375
H154	H	1.313370	0.548338	0.556375
H155	H	0.809027	-0.048509	0.060716
H156	H	1.309027	0.451491	0.560716
H157	H	0.710667	0.048338	-0.025746
H158	H	1.210667	0.548338	0.474254
H159	H	0.706321	-0.048516	-0.021422
H160	H	1.206321	0.451484	0.478578
C161	C	0.130107	0.071255	0.015334
C162	C	0.630107	0.571255	0.515334
C163	C	0.173871	-0.000126	0.026671
C164	C	0.673871	0.499874	0.526671
H165	H	0.105537	0.071248	-0.035174
H166	H	0.605537	0.571248	0.464826
H167	H	0.090960	0.071255	0.054778
H168	H	0.590960	0.571255	0.554778
H169	H	0.164150	0.119673	0.018697
H170	H	0.664150	0.619673	0.518697
H171	H	0.139827	-0.048545	0.023313
H172	H	0.639827	0.451455	0.523313
H173	H	0.213023	-0.000134	-0.012784
H174	H	0.713023	0.499866	0.487216
C175	C	1.074409	-0.000087	-0.697094
C176	C	1.574409	0.499913	-0.197094
C177	C	1.095922	-0.000096	-0.617298
C178	C	1.595922	0.499904	-0.117298
H179	H	1.120435	-0.000082	-0.728302
H180	H	1.620435	0.499918	-0.228302
H181	H	1.041936	-0.048505	-0.706391
H182	H	1.541936	0.451495	-0.206391
H183	H	1.046275	0.048341	-0.710707
H184	H	1.546275	0.548341	-0.210707
H185	H	1.124051	-0.048527	-0.603683
H186	H	1.624051	0.451473	-0.103683
H187	H	1.128408	0.048327	-0.607996
H188	H	1.628408	0.548327	-0.107996
H189	H	0.689081	-0.000056	0.284126
H190	H	1.189081	0.499944	0.784126
H191	H	0.818513	-0.000076	-0.586440
H192	H	1.318513	0.499924	-0.086440
C193	C	0.772068	-0.338744	0.330414
C194	C	1.272068	0.161256	0.830414
C195	C	0.813574	-0.395564	0.288954
C196	C	1.313574	0.104436	0.788954
H197	H	0.736684	-0.368399	0.365763
H198	H	1.236684	0.131601	0.865763
H199	H	0.808129	-0.304647	0.359277
H200	H	1.308129	0.195353	0.859277
H201	H	0.743231	-0.304660	0.294316
H202	H	1.243231	0.195340	0.794316
H203	H	0.842415	-0.429644	0.325051
H204	H	1.342415	0.070356	0.825051
H205	H	0.777507	-0.429676	0.260089
H206	H	1.277507	0.070324	0.760089
H207	H	0.835522	-0.224543	0.267007
H208	H	1.335522	0.275457	0.767007
C209	C	0.297283	-0.000116	-0.026180
C210	C	0.797283	0.499884	0.473820
C211	C	0.346426	-0.000113	0.040540
C212	C	0.846426	0.499887	0.540540
H213	H	0.328491	-0.000114	-0.072206
H214	H	0.828491	0.499886	0.427794
H215	H	0.262851	-0.048537	-0.023631
H216	H	0.762851	0.451463	0.476369
H217	H	0.267186	0.048309	-0.027957
H218	H	0.767186	0.548309	0.472043
H219	H	0.376518	-0.048542	0.042320
H220	H	0.876518	0.451458	0.542320
H221	H	0.380872	0.048312	0.037991
H222	H	0.880872	0.548312	0.537991
H223	H	0.315571	-0.000071	0.317945
H224	H	0.815571	0.499929	0.817945
C225	C	1.121143	0.071273	-0.400968
C226	C	1.621143	0.571273	0.099032
C227	C	1.109792	-0.000105	-0.444747
C228	C	1.609792	0.499895	0.055253
H229	H	1.171651	0.071263	-0.376397
H230	H	1.671651	0.571263	0.123603
H231	H	1.117785	0.119688	-0.434993
H232	H	1.617785	0.619688	0.065007
H233	H	1.081696	0.071267	-0.361812
H234	H	1.581696	0.571267	0.138188
H235	H	1.149235	-0.000096	-0.483907
H236	H	1.649235	0.499904	0.016093
H237	H	1.113157	-0.048532	-0.410719
H238	H	1.613157	0.451468	0.089281
H239	H	0.557705	-0.000110	0.014061
H240	H	1.057705	0.499890	0.514061
H241	H	1.017605	-0.224552	0.085070
H242	H	1.517605	0.275448	0.585070
C243	C	0.202482	-0.000082	0.392006
C244	C	0.702482	0.499918	0.892006
C245	C	0.153341	-0.000093	0.325285
C246	C	0.653341	0.499907	0.825285
H247	H	0.171272	-0.000075	0.438030
H248	H	0.671272	0.499925	0.938030
H249	H	0.232576	-0.048500	0.393790
H250	H	0.732576	0.451500	0.893790
H251	H	0.236917	0.048346	0.389453
H252	H	0.736917	0.548346	0.889453
H253	H	0.118910	-0.048524	0.327836
H254	H	0.618910	0.451476	0.827836
H255	H	0.123234	0.048331	0.323501
H256	H	0.623234	0.548331	0.823501
H257	H	1.010506	-0.383116	0.092170
H258	H	1.510506	0.116884	0.592170
H259	H	1.054765	-0.000119	-0.081557
H260	H	1.554765	0.499881	0.418443
C261	C	0.710639	-0.000064	-0.099828
C262	C	1.210639	0.499936	0.400172
C263	C	0.777362	-0.000071	-0.050690
C264	C	1.277362	0.499929	0.449310
H265	H	0.664616	-0.000062	-0.068615
H266	H	1.164616	0.499938	0.431385
H267	H	0.713196	0.048355	-0.134253
H268	H	1.213196	0.548355	0.365747
H269	H	0.708847	-0.048491	-0.129931
H270	H	1.208847	0.451509	0.370069
H271	H	0.779157	0.048359	-0.020591
H272	H	1.279157	0.548359	0.479409
H273	H	0.774805	-0.048495	-0.016251
H274	H	1.274805	0.451505	0.483749
H275	H	1.044848	-0.617067	0.057889
H276	H	1.544848	-0.117067	0.557889
C277	C	1.004467	-0.838358	0.002573
C278	C	1.504467	-0.338358	0.502573
C279	C	1.051497	-0.788093	0.051254
C280	C	1.551497	-0.288093	0.551254
H281	H	1.037189	-0.868011	-0.030133
H282	H	1.537189	-0.368011	0.469867
H283	H	0.972871	-0.876889	0.034165
H284	H	1.472871	-0.376889	0.534165
H285	H	0.971453	-0.804260	-0.029338
H286	H	1.471453	-0.304260	0.470662
H287	H	1.084506	-0.822192	0.083170
H288	H	1.584506	-0.322192	0.583170
H289	H	1.083106	-0.749557	0.019659
H290	H	1.583106	-0.249557	0.519659
C291	C	0.799303	-0.731281	0.303227
C292	C	1.299303	-0.231281	0.803227
C293	C	0.840818	-0.788095	0.261769
C294	C	1.340818	-0.288095	0.761769
H295	H	0.763916	-0.760941	0.338569
H296	H	1.263916	-0.260941	0.838569
H297	H	0.835358	-0.697184	0.332097
H298	H	1.335358	-0.197184	0.832097
H299	H	0.770469	-0.697196	0.267127
H300	H	1.270469	-0.197196	0.767127
H301	H	0.869657	-0.822176	0.297868
H302	H	1.369657	-0.322176	0.797868
H303	H	0.804758	-0.822206	0.232897
H304	H	1.304758	-0.322206	0.732897
