data_functionalizedCrystal
_audit_creation_method	'MofGen! by Chris Wilmer'
_symmetry_space_group_name_H-M	'P1'
_symmetry_Int_Tables_number	1
_symmetry_cell_setting	triclinic
loop_
_symmetry_equiv_pos_as_xyz
  x,y,z
_cell_length_a	11.792241
_cell_length_b	14.472310
_cell_length_c	11.792241
_cell_angle_alpha	90.001158
_cell_angle_beta	84.193416
_cell_angle_gamma	90.008847
loop_
_atom_site_label
_atom_site_type_symbol
_atom_site_fract_x
_atom_site_fract_y
_atom_site_fract_z
O1	O	1.506924	0.076752	0.155560
O2	O	2.006924	0.576752	0.655560
O3	O	1.176583	0.076773	0.171593
O4	O	1.676583	0.576773	0.671593
O5	O	1.349770	0.076755	-0.001594
O6	O	1.849770	0.576755	0.498406
O7	O	1.333737	0.076769	0.328747
O8	O	1.833737	0.576769	0.828747
O9	O	1.349725	-0.076927	-0.001584
O10	O	1.849725	0.423073	0.498416
O11	O	1.176538	-0.076909	0.171603
O12	O	1.676538	0.423091	0.671603
O13	O	1.506879	-0.076930	0.155570
O14	O	2.006879	0.423070	0.655570
Cu15	Cu	1.341704	-0.090952	0.163587
Cu16	Cu	1.841704	0.409048	0.663587
Cu17	Cu	1.341757	0.090795	0.163576
Cu18	Cu	1.841757	0.590795	0.663576
O19	O	1.333692	-0.076913	0.328757
O20	O	1.833692	0.423087	0.828757
C21	C	1.134269	-0.000065	0.170591
C22	C	1.634269	0.499935	0.670591
C23	C	1.008255	-0.000057	0.167576
C24	C	1.508255	0.499943	0.667576
N25	N	1.341675	-0.218783	0.163595
N26	N	1.841675	0.281217	0.663595
C27	C	0.777543	-0.000084	0.162034
C28	C	1.277543	0.499916	0.662034
C29	C	0.905928	-0.000069	0.165113
C30	C	1.405928	0.499931	0.665113
C31	C	1.341756	-0.592874	0.163571
C32	C	1.841756	-0.092874	0.663571
C33	C	1.248772	-0.553699	0.255925
C34	C	1.748772	-0.053699	0.755925
C35	C	1.248990	-0.446611	0.256266
C36	C	1.748990	0.053389	0.756266
C37	C	1.341715	-0.407283	0.163583
C38	C	1.841715	0.092717	0.663583
C39	C	1.460302	-0.446127	0.190178
C40	C	1.960302	0.053873	0.690178
C41	C	1.459780	-0.553248	0.190836
C42	C	1.959780	-0.053248	0.690836
C43	C	1.317207	-0.553407	0.044353
C44	C	1.817207	-0.053407	0.544353
C45	C	1.314496	-0.446279	0.045130
C46	C	1.814496	0.053721	0.545130
C47	C	1.341699	-0.302395	0.163587
C48	C	1.841699	0.197605	0.663587
C49	C	1.341779	-0.697762	0.163569
C50	C	1.841779	-0.197762	0.663569
C51	C	1.549192	-0.000090	0.156572
C52	C	2.049192	0.499910	0.656572
C53	C	1.675206	-0.000092	0.159587
C54	C	2.175206	0.499908	0.659587
C55	C	1.348740	-0.000085	-0.043880
C56	C	1.848740	0.499915	0.456120
C57	C	1.345726	-0.000084	-0.169894
C58	C	1.845726	0.499916	0.330106
N59	N	1.341795	0.218626	0.163559
N60	N	1.841795	0.718626	0.663559
C61	C	1.340183	-0.000068	-0.400606
C62	C	1.840183	0.499932	0.099394
C63	C	1.343262	-0.000077	-0.272221
C64	C	1.843262	0.499923	0.227779
C65	C	1.334721	-0.000070	0.371043
C66	C	1.834721	0.499930	0.871043
C67	C	1.337736	-0.000065	0.497057
C68	C	1.837736	0.499935	0.997057
H69	H	1.160865	-0.420350	0.240313
H70	H	1.660865	0.079650	0.740313
C71	C	1.399973	-0.410133	-0.052141
C72	C	1.899973	0.089867	0.447859
H73	H	1.453624	-0.370614	-0.021648
H74	H	1.953624	0.129386	0.478352
H75	H	1.360266	-0.376690	-0.105077
H76	H	1.860266	0.123310	0.394923
H77	H	1.438791	-0.460804	-0.089696
H78	H	1.938791	0.039196	0.410304
H79	H	1.160364	-0.579482	0.240224
H80	H	1.660364	-0.079482	0.740224
C81	C	1.556111	-0.588265	0.103485
C82	C	2.056111	-0.088265	0.603485
H83	H	1.556441	-0.653909	0.103291
H84	H	2.056441	-0.153909	0.603291
H85	H	1.627279	-0.566181	0.123528
H86	H	2.127279	-0.066181	0.623528
H87	H	1.544028	-0.566315	0.029742
H88	H	2.044028	-0.066315	0.529742
H89	H	1.531178	-0.420650	0.124732
H90	H	2.031178	0.079350	0.624732
H91	H	1.482319	-0.419287	0.276159
H92	H	1.982319	0.080713	0.776159
C93	C	1.269762	-0.590038	0.374749
C94	C	1.769762	-0.090038	0.874749
H95	H	1.334948	-0.628978	0.368321
H96	H	1.834948	-0.128978	0.868321
H97	H	1.205165	-0.624137	0.405953
H98	H	1.705165	-0.124137	0.905953
H99	H	1.282147	-0.539410	0.423277
H100	H	1.782147	-0.039410	0.923277
H101	H	1.232571	-0.580470	0.018960
H102	H	1.732571	-0.080470	0.518960
H103	H	1.385007	-0.578740	-0.024383
H104	H	1.885007	-0.078740	0.475617
C105	C	1.196650	-0.411985	0.017873
C106	C	1.696650	0.088015	0.517873
H107	H	1.180673	-0.435810	-0.053881
H108	H	1.680673	0.064190	0.446119
H109	H	1.196512	-0.346381	0.015325
H110	H	1.696512	0.153619	0.515325
H111	H	1.140057	-0.432622	0.075358
H112	H	1.640057	0.067378	0.575358
C113	C	1.270275	-0.411971	0.375756
C114	C	1.770275	0.088029	0.875756
H115	H	1.278834	-0.463368	0.424275
H116	H	1.778834	0.036632	0.924275
H117	H	1.207434	-0.375537	0.406205
H118	H	1.707434	0.124463	0.906205
H119	H	1.337714	-0.375647	0.370505
H120	H	1.837714	0.124353	0.870505
H121	H	1.481302	-0.578222	0.277803
H122	H	1.981302	-0.078222	0.777803
