data_functionalizedCrystal
_audit_creation_method	'MofGen! by Chris Wilmer'
_symmetry_space_group_name_H-M	'P1'
_symmetry_Int_Tables_number	1
_symmetry_cell_setting	triclinic
loop_
_symmetry_equiv_pos_as_xyz
  x,y,z
_cell_length_a	19.805407
_cell_length_b	12.827892
_cell_length_c	19.805398
_cell_angle_alpha	89.976448
_cell_angle_beta	89.986879
_cell_angle_gamma	90.015392
loop_
_atom_site_label
_atom_site_type_symbol
_atom_site_fract_x
_atom_site_fract_y
_atom_site_fract_z
Zn1	Zn	1.034744	-0.416047	-0.382743
Zn2	Zn	1.034694	-0.590805	-0.269565
Zn3	Zn	0.921572	-0.416079	-0.269568
Zn4	Zn	0.921544	-0.590746	-0.382712
O5	O	0.978139	-0.503419	-0.326147
O6	O	1.129454	-0.439240	-0.367742
O7	O	1.019678	-0.567665	-0.174849
O8	O	0.936617	-0.269838	-0.284595
O9	O	1.129417	-0.567634	-0.284590
O10	O	1.019765	-0.269815	-0.367745
O11	O	0.936568	-0.439294	-0.174851
O12	O	0.826852	-0.439238	-0.284565
O13	O	0.936570	-0.567534	-0.477433
O14	O	0.826831	-0.567565	-0.367691
O15	O	1.019738	-0.439183	-0.477456
O16	O	1.019652	-0.737033	-0.284560
O17	O	0.936521	-0.736990	-0.367688
C18	C	0.802283	-0.503399	-0.326125
C19	C	0.727051	-0.503416	-0.326132
C20	C	0.691714	-0.570337	-0.369346
C21	C	0.621025	-0.570338	-0.369355
C22	C	0.585675	-0.503424	-0.326147
C23	C	0.621017	-0.436496	-0.282931
C24	C	0.691704	-0.436489	-0.282926
C25	C	0.335944	-0.436519	-0.282954
C26	C	0.265251	-0.436533	-0.282961
C27	C	0.265265	-0.570368	-0.369383
C28	C	0.335952	-0.570362	-0.369378
C29	C	0.371288	-0.503430	-0.326165
C30	C	0.447936	-0.503427	-0.326156
C31	C	0.509028	-0.503431	-0.326152
C32	C	0.978096	-0.774929	-0.326135
C33	C	0.978140	-0.891082	-0.326153
C34	C	1.019324	-0.942854	-0.285064
C35	C	1.019371	-1.062904	-0.285081
C36	C	1.154681	-0.503440	-0.326169
C37	C	1.229913	-0.503449	-0.326179
C38	C	0.978157	-0.503349	-0.502690
C39	C	0.978164	-0.503318	-0.577922
C40	C	0.978200	-0.230849	-0.326174
C41	C	0.978225	-0.114696	-0.326185
C42	C	1.021547	-0.569995	-1.039710
C43	C	1.021528	-0.570023	-0.969021
C44	C	0.978248	-0.503201	-0.933684
C45	C	0.934980	-0.436353	-0.969039
C46	C	0.934996	-0.436330	-1.039726
C47	C	0.934915	-0.436442	-0.683965
C48	C	0.934904	-0.436467	-0.613273
C49	C	1.021447	-0.570135	-0.613261
C50	C	1.021463	-0.570113	-0.683948
C51	C	0.978192	-0.503269	-0.719296
C52	C	0.978212	-0.503241	-0.795945
C53	C	0.978231	-0.503223	-0.857037
C54	C	0.978160	-0.503414	-0.150291
C55	C	0.978283	-0.503150	-0.075060
H56	H	0.592257	-0.624833	-0.404544
H57	H	1.054553	-0.898303	-0.249875
H58	H	0.899738	-0.381949	-0.940261
H59	H	1.054628	-1.107426	-0.249901
H60	H	1.056678	-0.624566	-0.584471
F61	F	0.888951	-0.365181	-1.077347
H62	H	0.899658	-0.382049	-0.584503
F63	F	0.932100	-0.949311	-0.372154
H64	H	0.720474	-0.381990	-0.247740
F65	F	0.227631	-0.365308	-0.236972
H66	H	0.236486	-0.624863	-0.404572
F67	F	0.373570	-0.641585	-0.415363
F68	F	0.729330	-0.641563	-0.415331
F69	F	0.373541	-0.365282	-0.236964
H70	H	0.592229	-0.382008	-0.247753
H71	H	0.942961	-1.070181	-0.361363
H72	H	1.056793	-0.624405	-1.068476
H73	H	1.056749	-0.624468	-0.940242
H74	H	1.056707	-0.624523	-0.712716
F75	F	0.888838	-0.365338	-0.721577
