data_functionalizedCrystal
_audit_creation_method	'MofGen! by Chris Wilmer'
_symmetry_space_group_name_H-M	'P1'
_symmetry_Int_Tables_number	1
_symmetry_cell_setting	triclinic
loop_
_symmetry_equiv_pos_as_xyz
  x,y,z
_cell_length_a	12.811438
_cell_length_b	12.811415
_cell_length_c	7.540329
_cell_angle_alpha	95.434453
_cell_angle_beta	84.570287
_cell_angle_gamma	84.560771
loop_
_atom_site_label
_atom_site_type_symbol
_atom_site_fract_x
_atom_site_fract_y
_atom_site_fract_z
O1	O	1.393277	0.141395	-0.053902
O2	O	1.087763	0.156763	-0.002283
O3	O	1.248206	-0.003680	-0.053905
O4	O	1.232834	0.301838	-0.002280
O5	O	1.248197	-0.003682	-0.348869
O6	O	1.087754	0.156761	-0.297246
O7	O	1.393268	0.141393	-0.348866
Cu8	Cu	1.240510	0.149077	-0.349989
Cu9	Cu	1.240521	0.149079	-0.001160
O10	O	1.232825	0.301836	-0.297244
C11	C	1.048651	0.155900	-0.143612
C12	C	0.932123	0.153319	-0.125281
C13	C	0.767884	0.149681	0.061320
C14	C	0.877373	0.152106	0.044111
C15	C	0.877377	0.152103	-0.277477
C16	C	0.767888	0.149679	-0.260269
C17	C	0.713146	0.148469	-0.090864
C18	C	0.603654	0.146052	-0.073656
C19	C	0.603661	0.146042	-0.395244
C20	C	0.713150	0.148467	-0.412453
C21	C	1.247340	-0.042789	-0.207537
C22	C	1.244760	-0.159318	-0.225858
C23	C	1.239905	-0.378276	0.061324
C24	C	1.237481	-0.487766	0.044118
C25	C	1.237481	-0.487789	-0.277473
C26	C	1.239905	-0.378299	-0.260267
C27	C	1.241118	-0.323546	-0.090863
C28	C	1.243550	-0.214056	-0.073660
C29	C	1.243543	-0.214080	-0.395248
C30	C	1.241119	-0.323569	-0.412454
C31	C	1.432380	0.142256	-0.207533
C32	C	1.548908	0.144837	-0.225852
C33	C	1.233691	0.340945	-0.143608
C34	C	1.236271	0.457474	-0.125275
N35	N	1.240510	0.149074	-0.595338
N36	N	1.240530	0.149073	0.244186
H37	H	1.244541	-0.169478	0.064276
H38	H	1.240901	-0.333697	0.199257
O39	O	0.930643	0.153432	0.191837
C40	C	0.982464	0.245643	0.207984
H41	H	0.995037	0.276275	0.071286
H42	H	1.062039	0.226930	0.260235
H43	H	0.932220	0.308287	0.305485
H44	H	1.240127	-0.368163	-0.550377
H45	H	1.236485	-0.532386	-0.415392
H46	H	0.921969	0.153076	-0.415400
H47	H	1.244535	-0.169508	-0.519171
H48	H	0.723310	0.148708	0.199257
H49	H	0.559081	0.145060	-0.519163
O50	O	1.236157	-0.540802	0.192103
C51	C	1.145935	-0.502567	0.310536
H52	H	1.117434	-0.419241	0.282795
H53	H	1.166427	-0.501402	0.454529
H54	H	1.080992	-0.556141	0.290056
O55	O	0.550570	0.145020	0.091014
C56	C	0.565815	0.236419	0.201071
H57	H	0.641482	0.268449	0.148344
H58	H	0.572143	0.216081	0.343876
H59	H	0.496149	0.298634	0.199992
O60	O	0.766466	0.149507	-0.576931
C61	C	0.841268	0.060100	-0.612990
H62	H	0.861497	0.030187	-0.481453
H63	H	0.915679	0.082226	-0.689437
H64	H	0.807117	-0.004410	-0.697237
