data_functionalizedCrystal
_audit_creation_method	'MofGen! by Chris Wilmer'
_symmetry_space_group_name_H-M	'P1'
_symmetry_Int_Tables_number	1
_symmetry_cell_setting	triclinic
loop_
_symmetry_equiv_pos_as_xyz
  x,y,z
_cell_length_a	10.654551
_cell_length_b	10.489716
_cell_length_c	9.130313
_cell_angle_alpha	90.002761
_cell_angle_beta	90.000320
_cell_angle_gamma	84.507203
loop_
_atom_site_label
_atom_site_type_symbol
_atom_site_fract_x
_atom_site_fract_y
_atom_site_fract_z
O1	O	1.667902	0.179164	-0.121766
O2	O	1.302430	0.196232	-0.121772
O3	O	1.493498	0.002094	-0.121774
O4	O	1.476834	0.373302	-0.121764
O5	O	1.493496	0.002099	0.121825
O6	O	1.302428	0.196237	0.121827
O7	O	1.667899	0.179169	0.121833
Cu8	Cu	1.485163	0.187704	0.144072
Cu9	Cu	1.485166	0.187697	-0.144012
O10	O	1.476831	0.373307	0.121835
C11	C	1.255630	0.194981	0.000027
C12	C	1.116186	0.191231	0.000024
C13	C	0.919651	0.185934	0.132811
C14	C	1.050672	0.189469	0.132812
C15	C	1.050669	0.189470	-0.132773
C16	C	0.919649	0.185944	-0.132772
C17	C	0.854146	0.184160	0.265607
C18	C	0.919653	0.185922	0.398405
C19	C	1.050674	0.189457	0.398406
C20	C	1.116189	0.191230	0.265609
C21	C	1.492245	-0.045435	0.000021
C22	C	1.488499	-0.187064	0.000007
C23	C	1.605668	-0.284794	0.000022
C24	C	1.543754	-0.362128	-0.120082
C25	C	1.543725	-0.362087	0.120088
C26	C	1.426634	-0.262532	-0.120196
C27	C	1.426622	-0.262486	0.120081
C28	C	1.364622	-0.339770	-0.000052
C29	C	1.714699	0.180420	0.000031
C30	C	1.854144	0.184170	0.000024
C31	C	1.478085	0.420836	0.000037
C32	C	1.481831	0.562465	0.000040
N33	N	1.485171	0.187707	0.346695
N34	N	1.485169	0.187684	-0.346634
C35	C	1.569797	0.101772	0.423346
C36	C	1.569794	0.101757	0.576683
C37	C	1.400533	0.273623	0.576704
C38	C	1.400531	0.273631	0.423370
C39	C	1.654437	0.015849	0.346671
C40	C	1.739072	-0.070092	0.423322
C41	C	1.739068	-0.070107	0.576659
C42	C	1.654430	0.015818	0.653344
H43	H	0.866301	0.184490	0.506523
H44	H	1.222874	0.194123	0.265620
H45	H	1.654426	0.015790	0.778202
C46	C	1.609488	-0.419971	0.255663
C47	C	1.549151	-0.367541	0.381132
C48	C	1.609695	-0.420842	0.506041
H49	H	1.695059	-0.401554	0.255715
H50	H	1.605893	-0.510118	0.255243
H51	H	1.552758	-0.277414	0.381553
H52	H	1.463583	-0.385954	0.381128
H53	H	1.606101	-0.510989	0.505621
H54	H	1.695265	-0.402422	0.506078
H55	H	1.568759	-0.385285	0.591186
H56	H	1.331619	0.343606	0.360960
H57	H	1.654450	0.015856	0.221816
H58	H	1.707585	-0.260167	-0.000098
H59	H	1.104005	0.190906	0.506536
H60	H	1.807974	-0.140057	0.360876
C61	C	1.830808	-0.163358	0.660147
C62	C	1.812674	-0.145007	0.810843
C63	C	1.897158	-0.230896	0.887795
H64	H	1.914801	-0.148789	0.635200
H65	H	1.816405	-0.248649	0.635086
H66	H	1.827087	-0.059736	0.835894
H67	H	1.728699	-0.159586	0.835834
H68	H	1.882755	-0.316187	0.862734
H69	H	1.981145	-0.216320	0.862835
H70	H	1.884858	-0.218465	0.990049
H71	H	1.262628	-0.364152	-0.000118
H72	H	0.747461	0.181279	0.265622
C73	C	1.360522	-0.204568	0.255429
C74	C	1.235063	-0.233907	0.256357
C75	C	1.174149	-0.180589	0.381038
H76	H	1.362605	-0.114248	0.254083
H77	H	1.402216	-0.238840	0.340730
H78	H	1.193380	-0.199629	0.171077
H79	H	1.232943	-0.324217	0.257724
H80	H	1.215842	-0.214862	0.466340
H81	H	1.176241	-0.090272	0.379682
H82	H	1.089022	-0.200498	0.381692
H83	H	1.331625	0.343581	0.639152
H84	H	1.104022	0.190912	-0.240890
H85	H	0.866311	0.184511	-0.240899
H86	H	1.593217	-0.405649	-0.221622
H87	H	1.377200	-0.219207	-0.221847
