data_functionalizedCrystal
_audit_creation_method	'MofGen! by Chris Wilmer'
_symmetry_space_group_name_H-M	'P1'
_symmetry_Int_Tables_number	1
_symmetry_cell_setting	triclinic
loop_
_symmetry_equiv_pos_as_xyz
  x,y,z
_cell_length_a	11.169417
_cell_length_b	18.215399
_cell_length_c	11.169416
_cell_angle_alpha	89.975965
_cell_angle_beta	90.011219
_cell_angle_gamma	89.986667
loop_
_atom_site_label
_atom_site_type_symbol
_atom_site_fract_x
_atom_site_fract_y
_atom_site_fract_z
Zn1	Zn	1.834885	-0.416080	-0.477763
Zn2	Zn	2.168219	-0.082746	-0.144429
Zn3	Zn	2.501552	0.250587	0.188904
Zn4	Zn	1.834798	-0.293027	-0.678479
Zn5	Zn	2.168131	0.040306	-0.345146
Zn6	Zn	2.501464	0.373640	-0.011813
Zn7	Zn	1.634194	-0.293035	-0.477812
Zn8	Zn	1.967527	0.040299	-0.144479
Zn9	Zn	2.300861	0.373632	0.188855
Zn10	Zn	1.634179	-0.416059	-0.678406
Zn11	Zn	1.967512	-0.082726	-0.345072
Zn12	Zn	2.300845	0.250607	-0.011739
O13	O	1.734514	-0.354550	-0.578115
O14	O	2.067847	-0.021217	-0.244782
O15	O	2.401181	0.312117	0.088552
O16	O	2.002823	-0.399762	-0.504399
O17	O	2.336157	-0.066428	-0.171065
O18	O	2.669490	0.266905	0.162268
O19	O	1.808157	-0.190044	-0.651912
O20	O	2.141490	0.143290	-0.318579
O21	O	2.474823	0.476623	0.014755
O22	O	1.660859	-0.309368	-0.309856
O23	O	1.994193	0.023965	0.023478
O24	O	2.327526	0.357298	0.356811
O25	O	2.002759	-0.309356	-0.651864
O26	O	2.336092	0.023978	-0.318531
O27	O	2.669426	0.357311	0.014802
O28	O	1.808306	-0.399769	-0.309820
O29	O	2.141640	-0.066436	0.023514
O30	O	2.474973	0.266898	0.356847
O31	O	1.660774	-0.190049	-0.504482
O32	O	1.994107	0.143284	-0.171149
O33	O	2.327441	0.476617	0.162184
O34	O	1.466242	-0.309349	-0.504411
O35	O	1.799576	0.023985	-0.171078
O36	O	2.132909	0.357318	0.162256
O37	O	1.660833	-0.519046	-0.651739
O38	O	1.994167	-0.185713	-0.318405
O39	O	2.327500	0.147620	0.014928
O40	O	1.466231	-0.399735	-0.651786
O41	O	1.799564	-0.066401	-0.318453
O42	O	2.132898	0.266932	0.014880
O43	O	1.808292	-0.519061	-0.504327
O44	O	2.141625	-0.185728	-0.170994
O45	O	2.474958	0.147605	0.162340
O46	O	1.808142	-0.309336	-0.846419
O47	O	2.141475	0.023998	-0.513086
O48	O	2.474809	0.357331	-0.179753
O49	O	1.660748	-0.399727	-0.846365
O50	O	1.994081	-0.066394	-0.513032
O51	O	2.327415	0.266939	-0.179698
C52	C	1.422689	-0.354541	-0.578097
C53	C	1.756023	-0.021207	-0.244763
C54	C	2.089356	0.312126	0.088570
C55	C	1.289289	-0.354554	-0.578118
C56	C	1.622623	-0.021221	-0.244785
C57	C	1.955956	0.312113	0.088549
C58	C	1.734571	-0.546503	-0.578019
C59	C	2.067904	-0.213170	-0.244686
C60	C	2.401237	0.120164	0.088648
C61	C	1.734595	-0.628302	-0.577978
C62	C	2.067928	-0.294969	-0.244645
C63	C	2.401261	0.038365	0.088688
C64	C	1.657918	-0.816500	-0.501160
C65	C	1.991251	-0.483167	-0.167827
C66	C	2.324584	-0.149833	0.165507
C67	C	1.657938	-0.893359	-0.501136
C68	C	1.991272	-0.560025	-0.167802
C69	C	2.324605	-0.226692	0.165531
C70	C	1.811415	-0.893342	-0.654653
C71	C	2.144749	-0.560009	-0.321320
C72	C	2.478082	-0.226676	0.012013
C73	C	1.811388	-0.816485	-0.654683
C74	C	2.144721	-0.483151	-0.321349
C75	C	2.478054	-0.149818	0.011984
C76	C	1.734641	-0.778066	-0.577929
C77	C	2.067974	-0.444732	-0.244596
C78	C	2.401307	-0.111399	0.088737
C79	C	1.734689	-0.931782	-0.577876
C80	C	2.068022	-0.598448	-0.244542
C81	C	2.401356	-0.265115	0.088791
C82	C	1.734712	-1.015116	-0.577850
C83	C	2.068046	-0.681782	-0.244517
C84	C	2.401379	-0.348449	0.088817
C85	C	1.734615	-0.694727	-0.577956
C86	C	2.067949	-0.361393	-0.244623
C87	C	2.401282	-0.028060	0.088711
C88	C	2.047556	-0.354560	-0.578134
C89	C	2.380890	-0.021227	-0.244801
C90	C	2.714223	0.312107	0.088533
C91	C	2.180956	-0.354564	-0.578142
C92	C	2.514290	-0.021231	-0.244809
C93	C	2.847623	0.312102	0.088524
C94	C	1.734466	-0.354545	-0.889940
C95	C	2.067800	-0.021211	-0.556606
C96	C	2.401133	0.312122	-0.223273
C97	C	1.734556	-0.354567	-1.023340
C98	C	2.067889	-0.021233	-0.690006
C99	C	2.401222	0.312100	-0.356673
C100	C	1.734527	-0.163344	-0.578124
C101	C	2.067860	0.169989	-0.244791
C102	C	2.401193	0.503323	0.088543
C103	C	1.734735	-0.081545	-0.577827
C104	C	2.068068	0.251788	-0.244493
C105	C	2.401402	0.585121	0.088840
C106	C	1.734594	-0.354572	-0.265073
C107	C	2.067928	-0.021239	0.068261
C108	C	2.401261	0.312095	0.401594
C109	C	1.734629	-0.354581	-0.131673
C110	C	2.067962	-0.021248	0.201661
C111	C	2.401295	0.312086	0.534994
H112	H	1.595425	-0.785221	-0.438662
H113	H	1.928758	-0.451888	-0.105329
H114	H	2.262091	-0.118555	0.228004
H115	H	1.873868	-0.785191	-0.717202
H116	H	2.207201	-0.451857	-0.383869
H117	H	2.540534	-0.118524	-0.050535
H118	H	1.873901	-0.924632	-0.717143
H119	H	2.207234	-0.591299	-0.383809
H120	H	2.540568	-0.257966	-0.050476
C121	C	1.573544	-0.935633	-0.416676
C122	C	1.906877	-0.602300	-0.083343
C123	C	2.240210	-0.268966	0.249990
N124	N	1.509975	-0.967473	-0.353056
N125	N	1.843309	-0.634140	-0.019723
N126	N	2.176642	-0.300807	0.313610
