data_functionalizedCrystal
_audit_creation_method	'MofGen! by Chris Wilmer'
_symmetry_space_group_name_H-M	'P1'
_symmetry_Int_Tables_number	1
_symmetry_cell_setting	triclinic
loop_
_symmetry_equiv_pos_as_xyz
  x,y,z
_cell_length_a	29.839134
_cell_length_b	29.839131
_cell_length_c	21.395355
_cell_angle_alpha	89.972174
_cell_angle_beta	89.963393
_cell_angle_gamma	90.027971
loop_
_atom_site_label
_atom_site_type_symbol
_atom_site_fract_x
_atom_site_fract_y
_atom_site_fract_z
Zn1	Zn	0.686793	-0.178992	-0.354422
Zn2	Zn	1.186793	0.321008	0.145578
Zn3	Zn	0.686718	-0.254108	-0.249628
Zn4	Zn	1.186718	0.245892	0.250372
Zn5	Zn	0.611660	-0.178983	-0.249637
Zn6	Zn	1.111660	0.321017	0.250363
Zn7	Zn	0.611632	-0.254086	-0.354346
Zn8	Zn	1.111632	0.245914	0.145654
O9	O	0.649201	-0.216542	-0.302008
O10	O	1.149201	0.283458	0.197992
O11	O	0.749651	-0.188969	-0.340549
O12	O	1.249651	0.311031	0.159451
O13	O	0.676741	-0.244147	-0.161951
O14	O	1.176741	0.255853	0.338049
O15	O	0.621670	-0.116117	-0.263573
O16	O	1.121670	0.383883	0.236427
O17	O	0.749595	-0.244156	-0.263557
O18	O	1.249595	0.255844	0.236443
O19	O	0.676870	-0.116124	-0.340558
O20	O	1.176870	0.383876	0.159442
O21	O	0.621597	-0.188953	-0.161958
O22	O	1.121597	0.311047	0.338042
O23	O	0.548789	-0.188933	-0.263499
O24	O	1.048789	0.311067	0.236501
O25	O	0.621622	-0.244120	-0.442034
O26	O	1.121622	0.255880	0.057966
O27	O	0.548769	-0.244111	-0.340428
O28	O	1.048769	0.255889	0.159572
O29	O	0.676843	-0.188949	-0.442090
O30	O	1.176843	0.311051	0.057910
O31	O	0.676714	-0.316972	-0.263483
O32	O	1.176714	0.183028	0.236517
O33	O	0.621549	-0.316956	-0.340419
O34	O	1.121549	0.183044	0.159581
C35	C	0.532478	-0.216519	-0.301956
C36	C	1.032478	0.283481	0.198044
C37	C	0.482544	-0.216520	-0.301949
C38	C	0.982544	0.283480	0.198051
C39	C	0.125955	-0.187768	-0.262033
C40	C	0.625955	0.312232	0.237967
C41	C	0.313628	-0.187756	-0.261995
C42	C	0.813628	0.312244	0.238005
O43	O	0.337891	-0.163272	-0.227999
O44	O	0.837891	0.336728	0.272001
N45	N	0.337099	-0.216527	-0.301981
N46	N	0.837099	0.283473	0.198019
C47	C	0.313648	-0.245301	-0.341982
C48	C	0.813648	0.254699	0.158018
O49	O	0.337918	-0.269770	-0.375995
O50	O	0.837918	0.230230	0.124005
C51	C	0.125976	-0.245311	-0.342022
C52	C	0.625976	0.254689	0.157978
C53	C	0.102508	-0.216542	-0.302030
C54	C	0.602508	0.283458	0.197970
C55	C	0.102487	-0.159001	-0.222044
C56	C	0.602487	0.340999	0.277956
C57	C	0.055571	-0.159006	-0.222052
C58	C	0.555571	0.340994	0.277948
C59	C	0.032124	-0.187779	-0.262048
C60	C	0.532124	0.312221	0.237952
C61	C	0.055592	-0.216547	-0.302037
C62	C	0.555592	0.283453	0.197963
C63	C	0.102527	-0.274083	-0.382026
C64	C	0.602527	0.225917	0.117974
C65	C	0.055606	-0.274082	-0.382034
C66	C	0.555606	0.225918	0.117966
C67	C	0.032137	-0.245313	-0.342041
C68	C	0.532137	0.254687	0.157959
C69	C	-0.014770	-0.245325	-0.342041
C70	C	0.485230	0.254675	0.157959
N71	N	-0.038241	-0.216554	-0.302055
N72	N	0.461759	0.283446	0.197945
C73	C	-0.014794	-0.187781	-0.262059
C74	C	0.485206	0.312219	0.237941
C75	C	0.412179	-0.245295	-0.341956
C76	C	0.912179	0.254705	0.158044
C77	C	0.459097	-0.245293	-0.341946
C78	C	0.959097	0.254707	0.158054
C79	C	0.459073	-0.187747	-0.261960
C80	C	0.959073	0.312253	0.238040
C81	C	0.412154	-0.187751	-0.261968
C82	C	0.912154	0.312249	0.238032
C83	C	0.388708	-0.216523	-0.301971
C84	C	0.888708	0.283477	0.198029
C85	C	-0.113320	-0.187794	-0.262077
C86	C	0.386680	0.312206	0.237923
C87	C	-0.160239	-0.187803	-0.262086
C88	C	0.339761	0.312197	0.237914
C89	C	-0.160212	-0.245348	-0.342074
C90	C	0.339788	0.254652	0.157926
C91	C	-0.113296	-0.245340	-0.342063
C92	C	0.386704	0.254660	0.157937
C93	C	-0.089851	-0.216560	-0.302062
C94	C	0.410149	0.283440	0.197938
O95	O	-0.039062	-0.269792	-0.376025
O96	O	0.460938	0.230208	0.123975
O97	O	-0.039071	-0.163309	-0.228060
O98	O	0.460929	0.336691	0.271940
C99	C	0.172870	-0.187763	-0.262026
C100	C	0.672870	0.312237	0.237974
C101	C	0.196339	-0.216531	-0.302015
C102	C	0.696339	0.283469	0.197985
C103	C	0.172892	-0.245304	-0.342011
C104	C	0.672892	0.254696	0.157989
C105	C	0.243257	-0.216529	-0.302004
C106	C	0.743257	0.283471	0.197996
C107	C	0.266704	-0.187756	-0.262007
C108	C	0.766704	0.312244	0.237993
C109	C	0.243233	-0.158985	-0.222022
C110	C	0.743233	0.341015	0.277978
C111	C	0.196317	-0.158990	-0.222029
C112	C	0.696317	0.341010	0.277971
C113	C	0.196362	-0.274076	-0.381997
C114	C	0.696362	0.225924	0.118003
C115	C	0.243278	-0.274068	-0.381985
C116	C	0.743278	0.225932	0.118015
C117	C	0.266725	-0.245295	-0.341989
C118	C	0.766725	0.254705	0.158011
C119	C	0.649132	-0.333265	-0.301955
C120	C	1.149132	0.166735	0.198045
C121	C	0.649144	-0.383199	-0.301954
C122	C	1.149144	0.116801	0.198046
C123	C	0.677937	-0.692811	-0.342152
C124	C	1.177937	-0.192811	0.157848
C125	C	0.677986	-0.880484	-0.342189
C126	C	1.177986	-0.380484	0.157811
O127	O	0.702400	-0.904723	-0.376328
O128	O	1.202400	-0.404723	0.123672
N129	N	0.649277	-0.903984	-0.302078
N130	N	1.149277	-0.403984	0.197922
C131	C	0.620552	-0.880563	-0.261957
C132	C	1.120552	-0.380563	0.238043
O133	O	0.596131	-0.904858	-0.227845
O134	O	1.096131	-0.404858	0.272155
C135	C	0.620501	-0.692891	-0.261923
C136	C	1.120501	-0.192891	0.238077
C137	C	0.649215	-0.669393	-0.302033
C138	C	1.149215	-0.169393	0.197967
C139	C	0.706649	-0.669314	-0.382258
C140	C	1.206649	-0.169314	0.117742
C141	C	0.706638	-0.622398	-0.382246
C142	C	1.206638	-0.122398	0.117754
C143	C	0.677916	-0.598980	-0.342127
C144	C	1.177916	-0.098980	0.157873
C145	C	0.649204	-0.622478	-0.302020
C146	C	1.149204	-0.122478	0.197980
C147	C	0.591774	-0.669471	-0.221806
C148	C	1.091774	-0.169471	0.278194
C149	C	0.591763	-0.622550	-0.221802
C150	C	1.091763	-0.122550	0.278198
C151	C	0.620477	-0.599052	-0.261912
C152	C	1.120477	-0.099052	0.238088
C153	C	0.620472	-0.552145	-0.261889
C154	C	1.120472	-0.052145	0.238111
N155	N	0.649181	-0.528645	-0.302000
N156	N	1.149181	-0.028645	0.198000
C157	C	0.677903	-0.552063	-0.342120
C158	C	1.177903	-0.052063	0.157880
C159	C	0.620581	-0.979094	-0.261977
C160	C	1.120581	-0.479094	0.238023
C161	C	0.620594	-1.026012	-0.261984
C162	C	1.120594	-0.526012	0.238016
C163	C	0.678028	-1.025930	-0.342218
C164	C	1.178028	-0.525930	0.157782
C165	C	0.678017	-0.979011	-0.342206
C166	C	1.178017	-0.479011	0.157794
C167	C	0.649290	-0.955594	-0.302088
C168	C	1.149290	-0.455594	0.197912
C169	C	0.677878	-0.453537	-0.342090
C170	C	1.177878	0.046463	0.157910
C171	C	0.677866	-0.406617	-0.342073
C172	C	1.177866	0.093383	0.157927
C173	C	0.620431	-0.406703	-0.261842
C174	C	1.120431	0.093297	0.238158
C175	C	0.620444	-0.453619	-0.261857
C176	C	1.120444	0.046381	0.238143
C177	C	0.649170	-0.477034	-0.301986
C178	C	1.149170	0.022966	0.198014
O179	O	0.596067	-0.527877	-0.227773
O180	O	1.096067	-0.027877	0.272227
O181	O	0.702313	-0.527760	-0.376236
O182	O	1.202313	-0.027760	0.123764
C183	C	0.677948	-0.739727	-0.342164
C184	C	1.177948	-0.239727	0.157836
C185	C	0.649237	-0.763224	-0.302057
C186	C	1.149237	-0.263224	0.197943
C187	C	0.620515	-0.739806	-0.261938
C188	C	1.120515	-0.239806	0.238062
C189	C	0.649250	-0.810142	-0.302065
C190	C	1.149250	-0.310142	0.197935
C191	C	0.677972	-0.833560	-0.342184
C192	C	1.177972	-0.333560	0.157816
C193	C	0.706681	-0.810060	-0.382295
C194	C	1.206681	-0.310060	0.117705
C195	C	0.706670	-0.763145	-0.382283
C196	C	1.206670	-0.263145	0.117717
C197	C	0.591806	-0.763306	-0.221826
C198	C	1.091806	-0.263306	0.278174
C199	C	0.591819	-0.810222	-0.221841
C200	C	1.091819	-0.310222	0.278159
C201	C	0.620541	-0.833640	-0.261961
C202	C	1.120541	-0.333640	0.238039
C203	C	0.766379	-0.216566	-0.302061
C204	C	1.266379	0.283434	0.197939
C205	C	0.816314	-0.216576	-0.302083
C206	C	1.316314	0.283424	0.197917
C207	C	0.649238	-0.216533	-0.465432
C208	C	1.149238	0.283467	0.034568
C209	C	0.649254	-0.216529	-0.535073
C210	C	1.149254	0.283471	-0.035073
C211	C	0.649282	-0.099364	-0.302075
C212	C	1.149282	0.400636	0.197925
C213	C	0.649316	-0.049429	-0.302103
C214	C	1.149316	0.450571	0.197897
C215	C	0.678006	-0.187800	-0.567816
C216	C	1.178006	0.312200	-0.067816
C217	C	0.678006	-0.187781	-0.633252
C218	C	1.178006	0.312219	-0.133252
C219	C	0.649258	-0.216499	-0.665941
C220	C	1.149258	0.283501	-0.165941
C221	C	0.620500	-0.245230	-0.633190
C222	C	1.120500	0.254770	-0.133190
C223	C	0.620498	-0.245245	-0.567756
C224	C	1.120498	0.254755	-0.067756
C225	C	0.645686	-0.256949	-0.769597
C226	C	1.145686	0.243051	-0.269597
C227	C	0.645691	-0.256935	-0.835030
C228	C	1.145691	0.243065	-0.335030
C229	C	0.649260	-0.216451	-0.867762
C230	C	1.149260	0.283549	-0.367762
C231	C	0.652834	-0.175981	-0.835054
C232	C	1.152834	0.324019	-0.335054
C233	C	0.652832	-0.175996	-0.769619
C234	C	1.152832	0.324004	-0.269619
C235	C	0.649256	-0.216485	-0.736894
C236	C	1.149256	0.283515	-0.236894
C237	C	0.678013	-0.187699	-0.971458
C238	C	1.178013	0.312301	-0.471458
C239	C	0.678010	-0.187679	-1.036895
C240	C	1.178010	0.312321	-0.536895
C241	C	0.620506	-0.245131	-1.036832
C242	C	1.120506	0.254869	-0.536832
C243	C	0.620508	-0.245148	-0.971396
C244	C	1.120508	0.254852	-0.471396
C245	C	0.649264	-0.216432	-0.938714
C246	C	1.149264	0.283568	-0.438714
C247	C	0.649190	-0.216519	-0.139221
C248	C	1.149190	0.283481	0.360779
C249	C	0.649261	-0.216396	-0.069580
C250	C	1.149261	0.283604	0.430420
H251	H	0.177276	-0.297506	-0.414568
H252	H	0.677276	0.202494	0.085432
H253	H	0.597217	-1.045139	-0.229316
H254	H	1.097217	-0.545139	0.270684
N255	N	0.562460	-0.739386	-0.180854
N256	N	1.062460	-0.239386	0.319146
N257	N	0.533814	-0.713220	-0.202847
N258	N	1.033814	-0.213220	0.297153
H259	H	0.513086	-0.696329	-0.173909
H260	H	1.013086	-0.196329	0.326091
H261	H	0.393093	-0.268726	-0.374533
H262	H	0.893093	0.231274	0.125467
H263	H	0.701250	-0.387487	-0.374735
H264	H	1.201250	0.112513	0.125265
N265	N	-0.184161	-0.274742	-0.382929
N266	N	0.315839	0.225258	0.117071
N267	N	-0.178944	-0.316193	-0.378668
N268	N	0.321056	0.183807	0.121332
H269	H	-0.195859	-0.336952	-0.407524
H270	H	0.304141	0.163048	0.092476
H271	H	0.597188	-0.960031	-0.229306
H272	H	1.097188	-0.460031	0.270694
N273	N	0.562413	-0.598630	-0.180829
N274	N	1.062413	-0.098630	0.319171
N275	N	0.520958	-0.603900	-0.184926
N276	N	1.020958	-0.103900	0.315074
H277	H	0.500230	-0.587008	-0.155989
H278	H	1.000230	-0.087008	0.344011
H279	H	0.597067	-0.472751	-0.229192
H280	H	1.097067	0.027249	0.270808
H281	H	0.568392	-0.688594	-0.189144
H282	H	1.068392	-0.188594	0.310856
N283	N	0.031604	-0.129605	-0.181215
N284	N	0.531604	0.370395	0.318785
N285	N	0.005454	-0.100998	-0.203345
N286	N	0.505454	0.399002	0.296655
H287	H	-0.011470	-0.080230	-0.174505
H288	H	0.488530	0.419770	0.325495
H289	H	0.730018	-0.603269	-0.414909
H290	H	1.230018	-0.103269	0.085091
N291	N	0.736021	-0.833993	-0.423268
N292	N	1.236021	-0.333993	0.076732
N293	N	0.736023	-0.875883	-0.423265
N294	N	1.236023	-0.375883	0.076735
H295	H	0.756742	-0.892789	-0.452201
H296	H	1.256742	-0.392789	0.047799
N297	N	0.562487	-0.834214	-0.180858
N298	N	1.062487	-0.334214	0.319142
N299	N	0.536846	-0.813294	-0.145043
N300	N	1.036846	-0.313294	0.354957
H301	H	0.516128	-0.830236	-0.116102
H302	H	1.016128	-0.330236	0.383898
H303	H	0.701418	-0.164384	-0.659917
H304	H	1.201418	0.335616	-0.159917
H305	H	0.701421	-0.164417	-0.541210
H306	H	1.201421	0.335583	-0.041210
H307	H	0.597094	-0.268509	-1.063447
H308	H	1.097094	0.231491	-0.563447
N309	N	-0.184210	-0.158405	-0.221244
N310	N	0.315790	0.341595	0.278756
N311	N	-0.210365	-0.129801	-0.243371
N312	N	0.289635	0.370199	0.256629
H313	H	-0.227293	-0.109038	-0.214529
H314	H	0.272707	0.390962	0.285471
N315	N	0.591135	-0.274600	-0.534305
N316	N	1.091135	0.225400	-0.034305
N317	N	0.606922	-0.303240	-0.497802
N318	N	1.106922	0.196760	0.002198
H319	H	0.586184	-0.323973	-0.474176
H320	H	1.086184	0.176027	0.025824
H321	H	0.177214	-0.135562	-0.189463
H322	H	0.677214	0.364438	0.310537
N323	N	0.483029	-0.158346	-0.221116
N324	N	0.983029	0.341654	0.278884
N325	N	0.477812	-0.116897	-0.225395
N326	N	0.977812	0.383103	0.274605
H327	H	0.494733	-0.096131	-0.196555
H328	H	0.994733	0.403869	0.303445
H329	H	0.597047	-0.387629	-0.229176
H330	H	1.097047	0.112371	0.270824
H331	H	0.642660	-0.289908	-0.742951
H332	H	1.142660	0.210092	-0.242951
N333	N	0.126484	-0.303475	-0.422881
N334	N	0.626484	0.196525	0.077119
N335	N	0.105534	-0.329158	-0.458589
N336	N	0.605534	0.170842	0.041411
H337	H	0.122453	-0.349917	-0.487447
H338	H	0.622453	0.150083	0.012553
N339	N	0.735998	-0.739141	-0.423253
N340	N	1.235998	-0.239141	0.076747
N341	N	0.720180	-0.712950	-0.463150
N342	N	1.220180	-0.212950	0.036850
H343	H	0.740895	-0.695998	-0.492084
H344	H	1.240895	-0.195998	0.007916
N345	N	0.267195	-0.129599	-0.181166
N346	N	0.767195	0.370401	0.318834
N347	N	0.309086	-0.129604	-0.181170
N348	N	0.809086	0.370396	0.318830
H349	H	0.326012	-0.108851	-0.152319
H350	H	0.826012	0.391149	0.347681
N351	N	0.707372	-1.049847	-0.383202
N352	N	1.207372	-0.549847	0.116798
N353	N	0.748827	-1.044580	-0.379120
N354	N	1.248827	-0.544580	0.120880
H355	H	0.769549	-1.061473	-0.408066
H356	H	1.269549	-0.561473	0.091934
N357	N	0.656467	-0.134659	-0.736209
N358	N	1.156467	0.365341	-0.236209
N359	N	0.625961	-0.122895	-0.699676
N360	N	1.125961	0.377105	-0.199676
H361	H	0.628526	-0.093700	-0.676080
H362	H	1.128526	0.406300	-0.176080
H363	H	0.597097	-0.268544	-0.944737
H364	H	1.097097	0.231456	-0.444737
H365	H	0.655741	-0.143015	-0.861703
H366	H	1.155741	0.356985	-0.361703
N367	N	0.707386	-0.158364	-0.938078
N368	N	1.207386	0.341636	-0.438078
N369	N	0.733053	-0.132710	-0.967325
N370	N	1.233053	0.367290	-0.467325
H371	H	0.753798	-0.111990	-0.943753
H372	H	1.253798	0.388010	-0.443753
N373	N	0.388177	-0.158367	-0.221121
N374	N	0.888177	0.341633	0.278879
N375	N	0.361965	-0.174130	-0.181158
N376	N	0.861965	0.325870	0.318842
H377	H	0.345032	-0.153376	-0.152309
H378	H	0.845032	0.346624	0.347691
N379	N	0.483072	-0.274686	-0.382783
N380	N	0.983072	0.225314	0.117217
N381	N	0.509226	-0.303291	-0.360657
N382	N	1.009226	0.196709	0.139343
H383	H	0.526159	-0.324050	-0.389500
H384	H	1.026159	0.175950	0.110500
H385	H	0.701422	-0.164282	-1.063553
H386	H	1.201422	0.335718	-0.563553
N387	N	0.642012	-0.298273	-0.868428
N388	N	1.142012	0.201727	-0.368428
N389	N	0.638797	-0.334414	-0.839197
N390	N	1.138797	0.165586	-0.339197
H391	H	0.636186	-0.363610	-0.862783
H392	H	1.136186	0.136390	-0.362783
H393	H	0.597091	-0.268610	-0.659810
H394	H	1.097091	0.231390	-0.159810
H395	H	0.036518	-0.297511	-0.414612
H396	H	0.536518	0.202489	0.085388
H397	H	0.121572	-0.135568	-0.189474
H398	H	0.621572	0.364432	0.310526
N399	N	-0.089383	-0.158390	-0.221218
N400	N	0.410617	0.341610	0.278782
N401	N	-0.110350	-0.132708	-0.185521
N402	N	0.389650	0.367292	0.314479
H403	H	-0.093445	-0.111942	-0.156663
H404	H	0.406555	0.388058	0.343337
H405	H	-0.094187	-0.268771	-0.374624
H406	H	0.405813	0.231229	0.125376
N407	N	0.267240	-0.303465	-0.422839
N408	N	0.767240	0.196535	0.077161
N409	N	0.246294	-0.329151	-0.458545
N410	N	0.746294	0.170849	0.041455
H411	H	0.263215	-0.349911	-0.487401
H412	H	0.763215	0.150089	0.012599
H413	H	0.730037	-0.688376	-0.414932
H414	H	1.230037	-0.188376	0.085068
N415	N	0.707228	-0.477444	-0.383077
N416	N	1.207228	0.022556	0.116923
N417	N	0.748682	-0.472168	-0.378979
N418	N	1.248682	0.027832	0.121021
H419	H	0.769413	-0.489051	-0.407922
H420	H	1.269413	0.010949	0.092078
N421	N	0.707351	-0.955018	-0.383180
N422	N	1.207351	-0.455018	0.116820
N423	N	0.732994	-0.975938	-0.418992
N424	N	1.232994	-0.475938	0.081008
H425	H	0.753713	-0.958995	-0.447932
H426	H	1.253713	-0.458995	0.052068
