data_functionalizedCrystal
_audit_creation_method	'MofGen! by Chris Wilmer'
_symmetry_space_group_name_H-M	'P1'
_symmetry_Int_Tables_number	1
_symmetry_cell_setting	triclinic
loop_
_symmetry_equiv_pos_as_xyz
  x,y,z
_cell_length_a	16.109295
_cell_length_b	22.010155
_cell_length_c	16.109301
_cell_angle_alpha	89.997171
_cell_angle_beta	96.539666
_cell_angle_gamma	89.994470
loop_
_atom_site_label
_atom_site_type_symbol
_atom_site_fract_x
_atom_site_fract_y
_atom_site_fract_z
O1	O	-1.103141	0.050486	0.106833
O2	O	-0.861078	0.050496	0.120138
O3	O	-0.988759	0.050484	-0.007546
O4	O	-0.975460	0.050497	0.234517
O5	O	-0.988736	-0.050566	-0.007527
O6	O	-0.861055	-0.050554	0.120157
O7	O	-1.103118	-0.050565	0.106852
Cu8	Cu	-0.982084	-0.059786	0.113506
Cu9	Cu	-0.982112	0.059718	0.113484
O10	O	-0.975437	-0.050553	0.234536
C11	C	-0.830092	-0.000028	0.119609
C12	C	-0.737796	-0.000024	0.117996
C13	C	-0.515523	-0.000026	0.190008
C14	C	-0.428803	-0.000030	0.188486
C15	C	-0.448677	-0.000036	0.036997
C16	C	-0.535396	-0.000036	0.038520
C17	C	-0.568816	-0.000029	0.115028
C18	C	-0.395377	-0.000032	0.111982
C19	C	-0.301351	-0.000036	0.110331
C20	C	-0.662849	-0.000026	0.116679
N21	N	-0.982071	-0.143839	0.113522
C22	C	-1.038652	-0.563623	0.056954
C23	C	-1.038656	-0.627231	0.056948
O24	O	-1.086730	-0.660127	0.008862
N25	N	-0.982111	-0.659046	0.113466
C26	C	-0.925553	-0.627250	0.169988
O27	O	-0.877457	-0.660151	0.218061
C28	C	-0.925546	-0.563643	0.169990
C29	C	-0.982100	-0.531832	0.113473
C30	C	-1.095201	-0.531811	0.000441
C31	C	-1.095198	-0.468208	0.000448
C32	C	-1.038646	-0.436417	0.056968
C33	C	-0.982097	-0.468228	0.113480
C34	C	-0.868985	-0.531848	0.226507
C35	C	-0.868982	-0.468238	0.226503
C36	C	-0.925536	-0.436426	0.169986
C37	C	-0.925542	-0.372834	0.170006
N38	N	-0.982087	-0.341019	0.113488
C39	C	-1.038639	-0.372810	0.056969
C40	C	-0.925572	-0.760827	0.169981
C41	C	-0.925582	-0.824433	0.169985
C42	C	-1.038684	-0.824409	0.056943
C43	C	-1.038677	-0.760803	0.056944
C44	C	-0.982116	-0.729013	0.113463
C45	C	-1.038629	-0.239239	0.056988
C46	C	-1.038623	-0.175630	0.057002
C47	C	-0.925518	-0.175659	0.170041
C48	C	-0.925527	-0.239262	0.170030
C49	C	-0.982085	-0.271051	0.113496
O50	O	-0.877491	-0.339897	0.218065
O51	O	-1.086719	-0.339901	0.008897
C52	C	-0.134104	-0.000039	0.107386
C53	C	-0.226397	-0.000037	0.109014
C54	C	-0.988209	-0.000041	-0.038511
C55	C	-0.986594	-0.000042	-0.130806
N56	N	-0.982131	0.143770	0.113462
C57	C	-1.058602	-0.000035	-0.353080
C58	C	-1.057078	-0.000030	-0.439800
C59	C	-0.905588	-0.000026	-0.419923
C60	C	-0.907113	-0.000027	-0.333204
C61	C	-0.983622	-0.000034	-0.299785
C62	C	-0.980573	-0.000029	-0.473224
C63	C	-0.978920	-0.000023	-0.567250
C64	C	-0.985276	-0.000039	-0.205754
C65	C	-0.975987	-0.000026	0.265501
C66	C	-0.977602	-0.000021	0.357796
H67	H	-0.542731	-0.000025	0.252306
H68	H	-0.385414	-0.000030	0.249542
H69	H	-1.084728	-0.734906	0.010923
H70	H	-1.084679	-0.149731	0.010980
H71	H	-1.120900	-0.000040	-0.325874
N72	N	-0.412630	-0.000047	-0.045520
H73	H	-0.349607	-0.000046	-0.035109
H74	H	-0.432133	0.037410	-0.078339
H75	H	-0.846052	-0.000024	-0.289809
N76	N	-1.099634	-0.273520	-0.003980
H77	H	-1.135455	-0.243708	-0.039772
H78	H	-1.136379	-0.299906	0.027863
H79	H	-0.578790	-0.000040	-0.022542
N80	N	-1.099682	-0.858709	-0.004015
H81	H	-1.158682	-0.847637	0.005585
H82	H	-1.091024	-0.903818	0.004602
N83	N	-1.156192	-0.433902	-0.060513
H84	H	-1.192011	-0.463701	-0.096315
H85	H	-1.124375	-0.407514	-0.097279
N86	N	-1.156214	-0.566095	-0.060511
H87	H	-1.192035	-0.536281	-0.096301
H88	H	-1.192958	-0.592474	-0.028656
N89	N	-1.137948	-0.000031	-0.497284
H90	H	-1.186644	-0.000036	-0.462951
H91	H	-1.140605	-0.037490	-0.533695
H92	H	-0.879539	-0.850329	0.216014
H93	H	-0.879515	-0.734947	0.216012
H94	H	-0.879483	-0.265164	0.216059
H95	H	-0.822933	-0.557741	0.272527
N96	N	-0.823071	-0.000020	-0.455968
H97	H	-0.833481	-0.000022	-0.518991
H98	H	-0.790257	-0.037480	-0.436465
H99	H	-0.822921	-0.442357	0.272526
H100	H	-0.879477	-0.149764	0.216061
