data_functionalizedCrystal
_audit_creation_method	'MofGen! by Chris Wilmer'
_symmetry_space_group_name_H-M	'P1'
_symmetry_Int_Tables_number	1
_symmetry_cell_setting	triclinic
loop_
_symmetry_equiv_pos_as_xyz
  x,y,z
_cell_length_a	10.268362
_cell_length_b	12.837943
_cell_length_c	11.792241
_cell_angle_alpha	89.511178
_cell_angle_beta	90.005910
_cell_angle_gamma	89.999416
loop_
_atom_site_label
_atom_site_type_symbol
_atom_site_fract_x
_atom_site_fract_y
_atom_site_fract_z
O1	O	-0.108278	-1.377107	-0.295234
O2	O	0.225055	-1.043774	0.038100
O3	O	0.558388	-0.710441	0.371433
O4	O	-0.108286	-1.075220	-0.280650
O5	O	0.225047	-0.741886	0.052683
O6	O	0.558381	-0.408553	0.386017
O7	O	-0.108273	-1.233489	-0.123514
O8	O	0.225060	-0.900156	0.209819
O9	O	0.558394	-0.566823	0.543152
O10	O	-0.108292	-1.218837	-0.452369
O11	O	0.225042	-0.885504	-0.119036
O12	O	0.558375	-0.552171	0.214297
O13	O	0.108328	-1.233487	-0.123504
O14	O	0.441661	-0.900154	0.209829
O15	O	0.774994	-0.566821	0.543163
O16	O	0.108315	-1.075218	-0.280640
O17	O	0.441648	-0.741884	0.052694
O18	O	0.774981	-0.408551	0.386027
O19	O	0.108322	-1.377105	-0.295223
O20	O	0.441655	-1.043772	0.038110
O21	O	0.774989	-0.710439	0.371443
Cu22	Cu	0.128096	-1.226161	-0.287931
Cu23	Cu	0.461429	-0.892828	0.045403
Cu24	Cu	0.794762	-0.559495	0.378736
Cu25	Cu	-0.128060	-1.226164	-0.287943
Cu26	Cu	0.205274	-0.892830	0.045391
Cu27	Cu	0.538607	-0.559497	0.378724
O28	O	0.108309	-1.218835	-0.452359
O29	O	0.441642	-0.885502	-0.119026
O30	O	0.774976	-0.552169	0.214308
C31	C	0.000013	-1.036570	-0.275718
C32	C	0.333347	-0.703237	0.057615
C33	C	0.666680	-0.369904	0.390949
C34	C	0.000011	-0.921411	-0.261024
C35	C	0.333344	-0.588077	0.072309
C36	C	0.666677	-0.254744	0.405642
N37	N	-0.308225	-1.226166	-0.287943
N38	N	0.025108	-0.892833	0.045390
N39	N	0.358441	-0.559499	0.378724
C40	C	0.000027	-1.232568	-0.081125
C41	C	0.333360	-0.899235	0.252208
C42	C	0.666694	-0.565901	0.585542
C43	C	0.000026	-1.229813	0.045168
C44	C	0.333359	-0.896480	0.378502
C45	C	0.666692	-0.563147	0.711835
C46	C	-0.573896	-1.226163	-0.287936
C47	C	-0.240563	-0.892830	0.045397
C48	C	0.092771	-0.559496	0.378730
C49	C	-0.426058	-1.226162	-0.287943
C50	C	-0.092725	-0.892828	0.045390
C51	C	0.240609	-0.559495	0.378723
N52	N	0.308262	-1.226167	-0.287922
N53	N	0.641595	-0.892834	0.045411
N54	N	0.974928	-0.559500	0.378745
C55	C	0.000020	-1.415754	-0.300155
C56	C	0.333353	-1.082421	0.033178
C57	C	0.666687	-0.749088	0.366511
C58	C	0.000014	-1.530914	-0.314849
C59	C	0.333347	-1.197581	0.018484
C60	C	0.666681	-0.864247	0.351818
C61	C	0.000019	-0.681445	-0.437670
C62	C	0.333353	-0.348112	-0.104337
C63	C	0.666686	-0.014778	0.228997
C64	C	0.000018	-0.573242	-0.423869
C65	C	0.333351	-0.239908	-0.090536
C66	C	0.666684	0.093425	0.242797
C67	C	0.000016	-0.596798	-0.219623
C68	C	0.333349	-0.263465	0.113710
C69	C	0.666682	0.069868	0.447044
C70	C	0.000017	-0.705002	-0.233424
C71	C	0.333350	-0.371668	0.099910
C72	C	0.666684	-0.038335	0.433243
C73	C	0.000017	-0.747321	-0.342451
C74	C	0.333350	-0.413988	-0.009117
C75	C	0.666684	-0.080654	0.324216
C76	C	0.000009	-0.855526	-0.356250
C77	C	0.333342	-0.522193	-0.022917
C78	C	0.666676	-0.188860	0.310416
C79	C	0.000016	-0.879081	-0.152005
C80	C	0.333349	-0.545748	0.181328
C81	C	0.666683	-0.212414	0.514662
C82	C	0.000015	-0.770878	-0.138204
C83	C	0.333348	-0.437544	0.195129
C84	C	0.666681	-0.104211	0.528462
C85	C	0.000006	-1.219757	-0.494749
C86	C	0.333340	-0.886423	-0.161415
C87	C	0.666673	-0.553090	0.171918
C88	C	-0.000001	-1.222512	-0.621042
C89	C	0.333332	-0.889178	-0.287708
C90	C	0.666666	-0.555845	0.045625
C91	C	0.000004	-1.224748	0.276394
C92	C	0.333337	-0.891414	0.609727
C93	C	0.666670	-0.558081	0.943061
C94	C	0.000016	-1.227562	0.147724
C95	C	0.333349	-0.894229	0.481057
C96	C	0.666682	-0.560896	0.814390
H97	H	0.000017	-0.715902	-0.526444
H98	H	0.333351	-0.382568	-0.193111
H99	H	0.666684	-0.049235	0.140223
H100	H	0.000123	-0.562323	-0.130858
H101	H	0.333456	-0.228989	0.202475
H102	H	0.666790	0.104344	0.535809
H103	H	0.000005	-0.932730	-0.074471
H104	H	0.333339	-0.599396	0.258863
H105	H	0.666672	-0.266063	0.592196
H106	H	0.000023	-0.519609	-0.501407
H107	H	0.333357	-0.186275	-0.168074
H108	H	0.666690	0.147058	0.165260
O109	O	0.000022	-0.725232	-0.020615
O110	O	0.333355	-0.391898	0.312719
O111	O	0.666688	-0.058565	0.646052
H112	H	-0.088264	-0.676501	-0.009445
H113	H	0.245069	-0.343168	0.323888
H114	H	0.578403	-0.009834	0.657221
O115	O	0.000026	-0.901179	-0.473837
O116	O	0.333359	-0.567846	-0.140504
O117	O	0.666693	-0.234512	0.192830
H118	H	0.000046	-0.837188	-0.537729
H119	H	0.333379	-0.503855	-0.204396
H120	H	0.666713	-0.170521	0.128938
