data_functionalizedCrystal
_audit_creation_method	'MofGen! by Chris Wilmer'
_symmetry_space_group_name_H-M	'P1'
_symmetry_Int_Tables_number	1
_symmetry_cell_setting	triclinic
loop_
_symmetry_equiv_pos_as_xyz
  x,y,z
_cell_length_a	21.295417
_cell_length_b	21.295418
_cell_length_c	15.296720
_cell_angle_alpha	99.635200
_cell_angle_beta	80.361834
_cell_angle_gamma	89.951286
loop_
_atom_site_label
_atom_site_type_symbol
_atom_site_fract_x
_atom_site_fract_y
_atom_site_fract_z
Zn1	Zn	-0.311963	-0.900624	0.510555
Zn2	Zn	-0.399018	-0.918766	0.359704
Zn3	Zn	-0.293796	-0.813590	0.359671
Zn4	Zn	-0.417217	-0.795331	0.510432
O5	O	-0.355499	-0.857078	0.435090
O6	O	-0.323498	-0.991112	0.490609
O7	O	-0.369841	-0.920048	0.233474
O8	O	-0.208121	-0.825185	0.379724
O9	O	-0.387457	-1.004441	0.379780
O10	O	-0.221468	-0.889128	0.490577
O11	O	-0.292534	-0.842776	0.233450
O12	O	-0.310181	-0.723087	0.379604
O13	O	-0.418474	-0.794064	0.636673
O14	O	-0.400858	-0.709672	0.490368
O15	O	-0.341145	-0.871422	0.636764
O16	O	-0.489517	-0.902343	0.379661
O17	O	-0.502888	-0.811656	0.490400
C18	C	-0.355524	-0.693541	0.434970
C19	C	-0.355553	-0.623576	0.434939
C20	C	-0.402812	-0.583751	0.492524
C21	C	-0.402803	-0.518005	0.492558
C22	C	-0.355540	-0.492087	0.434991
C23	C	-0.308272	-0.531920	0.377402
C24	C	-0.308279	-0.597665	0.377376
N25	N	-0.341099	-0.398352	0.356087
N26	N	-0.341097	-0.335897	0.356114
C27	C	-0.355517	-0.294004	0.435066
N28	N	-0.369952	-0.316924	0.513992
N29	N	-0.369957	-0.379384	0.513964
C30	C	-0.355527	-0.420799	0.435013
C31	C	-0.402770	-0.182888	0.492692
C32	C	-0.402757	-0.117141	0.492728
C33	C	-0.308228	-0.131058	0.377563
C34	C	-0.308239	-0.196804	0.377536
C35	C	-0.355513	-0.222715	0.435099
C36	C	-0.519044	-0.857001	0.435040
C37	C	-0.589013	-0.857022	0.435049
C38	C	-0.614904	-0.904272	0.377447
C39	C	-0.680649	-0.904299	0.377467
C40	C	-0.720500	-0.857066	0.435080
C41	C	-0.694602	-0.809813	0.492694
C42	C	-0.628859	-0.809791	0.492679
N43	N	-0.824608	-0.801173	0.441916
N44	N	-0.887061	-0.801196	0.441926
C45	C	-0.918580	-0.857131	0.435132
N46	N	-0.885286	-0.913044	0.428311
N47	N	-0.822827	-0.913021	0.428297
C48	C	-0.791788	-0.857085	0.435104
C49	C	-1.015759	-0.904413	0.377548
C50	C	-1.081506	-0.904440	0.377575
C51	C	-1.095457	-0.809950	0.492798
C52	C	-1.029712	-0.809927	0.492776
C53	C	-0.989866	-0.857159	0.435146
C54	C	-0.191317	-0.857169	0.435160
C55	C	-0.121352	-0.857208	0.435190
C56	C	-0.383866	-0.828683	0.670363
C57	C	-0.395955	-0.816582	0.770622
C58	C	-0.355481	-0.021256	0.435186
C59	C	-0.355492	-0.091227	0.435161
C60	C	-0.327196	-0.885398	0.200734
C61	C	-0.314930	-0.897621	0.100475
C62	C	-0.268989	-0.943584	1.053423
C63	C	-0.257633	-0.954956	0.959225
C64	C	-0.292212	-0.920364	0.912069
C65	C	-0.338150	-0.874397	0.959121
C66	C	-0.349512	-0.863026	1.053329
C67	C	-0.372734	-0.839806	0.911975
C68	C	-0.418673	-0.793839	0.959027
C69	C	-0.430032	-0.782471	1.053226
C70	C	-0.395452	-0.817063	1.100381
C71	C	-0.361373	-0.851177	0.817768
C72	C	-0.441895	-0.770619	0.817674
C73	C	-0.453252	-0.759247	0.911872
H74	H	-0.441305	-0.604844	0.539398
H75	H	-0.404697	-0.807806	1.177085
N76	N	-0.208076	-1.004523	0.908493
H77	H	-0.174197	-0.983673	0.869408
H78	H	-0.228980	-1.038387	0.869467
N79	N	-0.453752	-0.210839	0.554782
H80	H	-0.446589	-0.258532	0.546022
H81	H	-0.496984	-0.200999	0.540626
H82	H	-0.470054	-0.742452	0.779280
N83	N	-1.001779	-0.758958	0.554890
H84	H	-0.979503	-0.779454	0.596735
H85	H	-1.037030	-0.729054	0.591331
N86	N	-0.502799	-0.709674	0.962639
H87	H	-0.545798	-0.721398	0.946240
H88	H	-0.490996	-0.666703	0.946203
H89	H	-0.441288	-0.485573	0.539454
N90	N	-0.453734	-0.074183	0.554837
H91	H	-0.483682	-0.100578	0.591292
H92	H	-0.478379	-0.051299	0.518042
H93	H	-0.269758	-0.229231	0.330640
N94	N	-0.257301	-0.503973	0.315300
H95	H	-0.264471	-0.456281	0.324046
H96	H	-0.259269	-0.523204	0.250854
H97	H	-0.582463	-0.942732	0.330524
H98	H	-0.467443	-0.745046	1.091533
H99	H	-1.127904	-0.771494	0.539712
N100	N	-0.257299	-0.640617	0.315264
H101	H	-0.259227	-0.636910	0.250793
H102	H	-0.264501	-0.686178	0.324055
N103	N	-0.257246	-0.103114	0.315478
H104	H	-0.264411	-0.055421	0.324233
H105	H	-0.259203	-0.122337	0.251026
H106	H	-0.607779	-0.771314	0.539587
H107	H	-0.701734	-0.942777	0.330560
H108	H	-0.727053	-0.771357	0.539605
H109	H	-0.983315	-0.942874	0.330626
N110	N	-0.231698	-0.980894	1.104277
H111	H	-0.261992	-1.005329	1.143369
H112	H	-0.207247	-0.950577	1.143306
H113	H	-1.102584	-0.942920	0.330670
N114	N	-0.311831	-0.900754	0.767024
H115	H	-0.268833	-0.889029	0.783428
H116	H	-0.309938	-0.902687	0.700209
N117	N	-0.279966	-0.932618	0.810470
H118	H	-0.288796	-0.978527	0.787798
H119	H	-0.234050	-0.923777	0.787864
