data_functionalizedCrystal
_audit_creation_method	'MofGen! by Chris Wilmer'
_symmetry_space_group_name_H-M	'P1'
_symmetry_Int_Tables_number	1
_symmetry_cell_setting	triclinic
loop_
_symmetry_equiv_pos_as_xyz
  x,y,z
_cell_length_a	10.654550
_cell_length_b	10.540539
_cell_length_c	9.730223
_cell_angle_alpha	89.997733
_cell_angle_beta	89.999957
_cell_angle_gamma	84.505211
loop_
_atom_site_label
_atom_site_type_symbol
_atom_site_fract_x
_atom_site_fract_y
_atom_site_fract_z
O1	O	1.667902	0.178301	-0.114180
O2	O	1.302429	0.195288	-0.114205
O3	O	1.493504	0.002085	-0.114190
O4	O	1.476827	0.371504	-0.114195
O5	O	1.493491	0.002079	0.114390
O6	O	1.302417	0.195282	0.114375
O7	O	1.667889	0.178295	0.114400
Zn8	Zn	1.485151	0.186788	0.150679
Zn9	Zn	1.485167	0.186795	-0.150484
O10	O	1.476815	0.371498	0.114385
C11	C	1.255625	0.194038	0.000082
C12	C	1.116180	0.190306	0.000072
C13	C	1.036735	0.304061	0.000075
C14	C	0.905712	0.300547	0.000099
C15	C	0.933594	0.069513	0.000112
C16	C	1.064614	0.073029	0.000098
C17	C	1.492247	-0.045221	0.000097
C18	C	1.488505	-0.186167	0.000090
C19	C	1.345134	-0.369543	-0.000433
C20	C	1.348927	-0.222926	0.000082
C21	C	1.555670	-0.247852	0.130624
C22	C	1.550906	-0.394395	0.130734
C23	C	1.553759	-0.394908	-0.129204
C24	C	1.555044	-0.247927	-0.130930
C25	C	1.714694	0.179545	0.000110
C26	C	1.854139	0.183277	0.000110
C27	C	1.478072	0.418804	0.000095
C28	C	1.481813	0.559750	0.000093
N29	N	1.485149	0.186782	0.356216
N30	N	1.485179	0.186791	-0.356021
C31	C	1.569786	0.101269	0.428148
C32	C	1.569799	0.101269	0.572031
C33	C	1.400533	0.272309	0.572037
C34	C	1.400516	0.272301	0.428156
H35	H	1.129302	-0.019610	0.000100
C36	C	1.230474	-0.264830	0.202260
C37	C	1.277094	-0.166524	0.126617
H38	H	1.186137	-0.230008	0.280388
H39	H	1.174990	-0.307835	0.146357
H40	H	1.298684	-0.323304	0.231354
H41	H	1.208882	-0.108054	0.097513
H42	H	1.332580	-0.123498	0.182530
H43	H	0.891593	-0.025970	0.000141
H44	H	1.296078	-0.180301	-0.093491
H45	H	1.331628	0.341938	0.630625
H46	H	1.290002	-0.398121	-0.094042
H47	H	1.290216	-0.399732	0.092644
H48	H	1.658172	-0.225535	0.135484
H49	H	1.331588	0.341937	0.369585
H50	H	1.501258	-0.422579	0.228305
C51	C	1.641531	-0.117818	0.383941
C52	C	1.662800	0.007228	0.349104
H53	H	1.698949	-0.175885	0.335148
H54	H	1.653636	-0.130011	0.479921
H55	H	1.557586	-0.132366	0.360356
H56	H	1.746743	0.021779	0.372699
H57	H	1.650705	0.019426	0.253102
H58	H	1.078715	0.399556	0.000064
H59	H	1.509003	-0.205238	0.227758
C60	C	0.891322	0.529263	0.000063
C61	C	0.818386	0.425591	0.000092
H62	H	0.837407	0.606462	0.000051
H63	H	0.943009	0.525834	0.079763
H64	H	0.943000	0.525813	-0.079660
H65	H	0.766714	0.429036	0.079821
H66	H	0.766676	0.429022	-0.079616
C67	C	1.451744	-0.330121	-0.341311
C68	C	1.492788	-0.437468	-0.262773
H69	H	1.414102	-0.356399	-0.423769
H70	H	1.391627	-0.276887	-0.290354
H71	H	1.521677	-0.284289	-0.363094
H72	H	1.422854	-0.483295	-0.240982
H73	H	1.552910	-0.490723	-0.313741
C74	C	1.719982	-0.138712	-0.030045
C75	C	1.692428	-0.215292	-0.141565
H76	H	1.804803	-0.118576	-0.036601
H77	H	1.664912	-0.062327	-0.031159
H78	H	1.708935	-0.183311	0.053257
H79	H	1.703465	-0.170690	-0.224867
H80	H	1.747514	-0.291690	-0.140464
H81	H	1.505901	-0.207048	-0.227496
H82	H	1.651289	-0.442400	0.136663
C83	C	1.740481	0.075340	0.733821
C84	C	1.662835	0.007273	0.651103
H85	H	1.797913	0.017305	0.782642
H86	H	1.786115	0.128597	0.677682
H87	H	1.690070	0.126266	0.797255
H88	H	1.713245	-0.043646	0.587662
H89	H	1.617197	-0.046006	0.707248
H90	H	1.654576	-0.442170	-0.130075
