data_functionalizedCrystal
_audit_creation_method	'MofGen! by Chris Wilmer'
_symmetry_space_group_name_H-M	'P1'
_symmetry_Int_Tables_number	1
_symmetry_cell_setting	triclinic
loop_
_symmetry_equiv_pos_as_xyz
  x,y,z
_cell_length_a	19.077105
_cell_length_b	21.295417
_cell_length_c	19.076919
_cell_angle_alpha	92.266620
_cell_angle_beta	90.076224
_cell_angle_gamma	87.726672
loop_
_atom_site_label
_atom_site_type_symbol
_atom_site_fract_x
_atom_site_fract_y
_atom_site_fract_z
Zn1	Zn	1.058236	-0.304534	-0.440387
Zn2	Zn	1.558236	0.195466	0.059613
Zn3	Zn	1.062864	-0.405747	-0.322870
Zn4	Zn	1.562864	0.094253	0.177130
Zn5	Zn	0.945454	-0.296102	-0.318181
Zn6	Zn	1.445454	0.203898	0.181819
Zn7	Zn	0.940686	-0.405368	-0.435623
Zn8	Zn	1.440686	0.094632	0.064377
O9	O	1.001810	-0.352938	-0.379265
O10	O	1.501810	0.147062	0.120735
O11	O	1.157181	-0.321649	-0.428754
O12	O	1.657181	0.178351	0.071246
O13	O	1.051222	-0.387832	-0.223917
O14	O	1.551222	0.112168	0.276083
O15	O	0.960474	-0.209134	-0.334424
O16	O	1.460474	0.290866	0.165576
O17	O	1.160581	-0.396009	-0.342415
O18	O	1.660581	0.103991	0.157585
O19	O	1.043334	-0.215330	-0.424208
O20	O	1.543334	0.284670	0.075792
O21	O	0.964962	-0.307276	-0.220472
O22	O	1.464962	0.192724	0.279528
O23	O	0.846490	-0.306908	-0.329804
O24	O	1.346490	0.193092	0.170196
O25	O	0.952346	-0.395362	-0.534586
O26	O	1.452346	0.104638	-0.034586
O27	O	0.842987	-0.387185	-0.416088
O28	O	1.342987	0.112815	0.083912
O29	O	1.038710	-0.321280	-0.538086
O30	O	1.538710	0.178720	-0.038086
O31	O	1.046598	-0.493783	-0.337795
O32	O	1.546598	0.006217	0.162205
O33	O	0.956834	-0.493504	-0.420634
O34	O	1.456834	0.006496	0.079366
C35	C	0.819242	-0.346091	-0.371921
C36	C	1.319242	0.153909	0.128079
C37	C	0.741139	-0.343178	-0.368795
C38	C	1.241139	0.156822	0.131205
C39	C	0.702642	-0.383663	-0.412179
C40	C	1.202642	0.116337	0.087821
C41	C	0.629255	-0.380918	-0.409246
C42	C	1.129255	0.119082	0.090754
C43	C	0.594366	-0.337689	-0.362924
C44	C	1.094366	0.162311	0.137076
C45	C	0.632868	-0.297199	-0.319538
C46	C	1.132868	0.202801	0.180462
C47	C	0.706253	-0.299942	-0.322476
C48	C	1.206253	0.200058	0.177524
C49	C	0.375080	-0.324994	-0.349333
C50	C	0.875080	0.175006	0.150667
C51	C	0.301690	-0.322256	-0.346397
C52	C	0.801690	0.177744	0.153603
C53	C	0.298082	-0.405974	-0.436106
C54	C	0.798082	0.094026	0.063894
C55	C	0.371470	-0.408715	-0.439037
C56	C	0.871470	0.091285	0.060963
C57	C	0.409965	-0.368223	-0.395653
C58	C	0.909965	0.131777	0.104347
N59	N	0.519353	-0.334883	-0.359923
N60	N	1.019353	0.165117	0.140077
N61	N	0.484976	-0.371027	-0.398658
N62	N	0.984976	0.128973	0.101342
C63	C	1.001719	-0.516485	-0.379223
C64	C	1.501719	-0.016485	0.120777
C65	C	1.001744	-0.586454	-0.379231
C66	C	1.501744	-0.086454	0.120769
C67	C	1.048522	-0.619448	-0.336144
C68	C	1.548522	-0.119448	0.163856
C69	C	1.048554	-0.685192	-0.336161
C70	C	1.548554	-0.185192	0.163839
C71	C	1.001796	-0.717939	-0.379257
C72	C	1.501796	-0.217939	0.120743
C73	C	0.955015	-0.684937	-0.422352
C74	C	1.455015	-0.184937	0.077648
C75	C	0.954989	-0.619195	-0.422339
C76	C	1.454989	-0.119195	0.077661
N77	N	0.940111	-0.819089	-0.382141
N78	N	1.440111	-0.319089	0.117859
N79	N	0.940138	-0.881541	-0.382149
N80	N	1.440138	-0.381541	0.117851
C81	C	1.001873	-0.916018	-0.379300
C82	C	1.501873	-0.416018	0.120700
N83	N	1.063583	-0.885683	-0.376429
N84	N	1.563583	-0.385683	0.123571
N85	N	1.063555	-0.823224	-0.376417
N86	N	1.563555	-0.323224	0.123583
C87	C	1.001820	-0.789226	-0.379276
C88	C	1.501820	-0.289226	0.120724
C89	C	1.048690	-1.020300	-0.336230
C90	C	1.548690	-0.520300	0.163770
C91	C	1.048724	-1.086046	-0.336252
C92	C	1.548724	-0.586046	0.163748
C93	C	0.955178	-1.085789	-0.422439
C94	C	1.455178	-0.585789	0.077561
C95	C	0.955151	-1.020045	-0.422421
C96	C	1.455151	-0.520045	0.077579
C97	C	1.001906	-0.987304	-0.379313
C98	C	1.501906	-0.487304	0.120687
C99	C	1.185090	-0.359812	-0.386639
C100	C	1.685090	0.140188	0.113361
C101	C	1.263193	-0.362741	-0.389782
C102	C	1.763193	0.137259	0.110218
C103	C	0.994480	-0.359220	-0.562545
C104	C	1.494480	0.140780	-0.062545
C105	C	0.991356	-0.361897	-0.640648
C106	C	1.491356	0.138103	-0.140648
C107	C	1.001919	-0.188754	-0.379324
C108	C	1.501919	0.311246	0.120676
C109	C	1.001966	-0.118788	-0.379349
C110	C	1.501966	0.381212	0.120651
C111	C	1.034851	-0.324586	-0.679164
C112	C	1.534851	0.175414	-0.179164
C113	C	1.031907	-0.327098	-0.752550
C114	C	1.531907	0.172902	-0.252550
C115	C	0.985472	-0.366925	-0.787418
C116	C	1.485472	0.133075	-0.287418
C117	C	0.941972	-0.404238	-0.748896
C118	C	1.441972	0.095762	-0.248896
C119	C	0.944913	-0.401722	-0.675512
C120	C	1.444913	0.098278	-0.175512
C121	C	0.971853	-0.378584	-1.006698
C122	C	1.471853	0.121416	-0.506698
C123	C	0.968917	-0.381099	-1.080087
C124	C	1.468917	0.118901	-0.580087
C125	C	1.058852	-0.303958	-1.083736
C126	C	1.558852	0.196042	-0.583736
C127	C	1.061791	-0.301448	-1.010350
C128	C	1.561791	0.198552	-0.510350
C129	C	1.018289	-0.338758	-0.971835
C130	C	1.518289	0.161242	-0.471835
N131	N	0.982464	-0.369496	-0.862429
N132	N	1.482464	0.130504	-0.362429
N133	N	1.021294	-0.336183	-0.896824
N134	N	1.521294	0.163817	-0.396824
C135	C	1.009152	-0.346637	-0.196700
C136	C	1.509152	0.153363	0.303300
C137	C	1.012412	-0.343787	-0.118604
C138	C	1.512412	0.156213	0.381396
H139	H	0.406414	-0.292027	-0.314002
H140	H	0.906414	0.207973	0.185998
O141	O	1.101032	-0.267734	-1.121256
O142	O	1.601032	0.232266	-0.621256
C143	C	1.088494	-0.278504	-1.193504
C144	C	1.588494	0.221496	-0.693504
H145	H	1.033852	-0.297431	-1.201335
H146	H	1.533852	0.202569	-0.701335
H147	H	1.092172	-0.232488	-1.221602
H148	H	1.592172	0.267512	-0.721602
H149	H	1.129319	-0.314300	-1.215997
H150	H	1.629319	0.185700	-0.715997
O151	O	1.106819	-0.262654	-0.976524
O152	O	1.606819	0.237346	-0.476524
C153	C	1.090781	-0.199965	-0.993892
C154	C	1.590781	0.300035	-0.493892
H155	H	1.033836	-0.195386	-1.011796
H156	H	1.533836	0.304614	-0.511796
H157	H	1.098791	-0.167425	-0.945899
H158	H	1.598791	0.332575	-0.445899
H159	H	1.126748	-0.186391	-1.038025
H160	H	1.626748	0.313609	-0.538025
H161	H	0.604455	-0.261999	-0.281825
H162	H	1.104455	0.238001	0.218175
H163	H	0.399871	-0.443918	-0.476755
H164	H	0.899871	0.056082	0.023245
H165	H	0.916895	-0.592330	-0.457426
H166	H	1.416895	-0.092330	0.042574
H167	H	1.072666	-0.292156	-0.650780
H168	H	1.572666	0.207844	-0.150780
O169	O	0.923761	-0.419698	-1.114031
O170	O	1.423761	0.080302	-0.614031
C171	C	0.876696	-0.383604	-1.154650
C172	C	1.376696	0.116396	-0.654650
H173	H	0.901079	-0.337212	-1.166661
H174	H	1.401079	0.162788	-0.666661
H175	H	0.865188	-0.410658	-1.205864
H176	H	1.365188	0.089342	-0.705864
H177	H	0.825762	-0.373757	-1.124271
H178	H	1.325762	0.126243	-0.624271
H179	H	0.917110	-1.112451	-0.457532
H180	H	1.417110	-0.612451	0.042468
O181	O	1.094019	-0.717153	-0.294237
O182	O	1.594019	-0.217153	0.205763
C183	C	1.135293	-0.674158	-0.256201
C184	C	1.635293	-0.174158	0.243799
H185	H	1.106597	-0.626155	-0.252580
H186	H	1.606597	-0.126155	0.247420
H187	H	1.145047	-0.691556	-0.201150
H188	H	1.645047	-0.191556	0.298850
H189	H	1.187610	-0.669997	-0.284114
H190	H	1.687610	-0.169997	0.215886
O191	O	0.929561	-0.414880	-0.969397
O192	O	1.429561	0.085120	-0.469397
C193	C	0.887931	-0.450554	-1.015911
C194	C	1.387931	0.049446	-0.515911
H195	H	0.914626	-0.455620	-1.069375
H196	H	1.414626	0.044380	-0.569375
H197	H	0.881229	-0.499136	-0.994382
H198	H	1.381229	0.000864	-0.494382
H199	H	0.834276	-0.425755	-1.021588
H200	H	1.334276	0.074245	-0.521588
H201	H	1.067327	-0.296717	-0.783907
H202	H	1.567327	0.203283	-0.283907
H203	H	0.904161	-0.436664	-0.777291
H204	H	1.404161	0.063336	-0.277291
O205	O	0.902644	-0.438036	-0.638203
O206	O	1.402644	0.061964	-0.138203
C207	C	0.861020	-0.473722	-0.684712
C208	C	1.361020	0.026278	-0.184712
H209	H	0.887701	-0.478767	-0.738184
H210	H	1.387701	0.021233	-0.238184
H211	H	0.854352	-0.522312	-0.663191
H212	H	1.354352	-0.022312	-0.163191
H213	H	0.807351	-0.448944	-0.690368
H214	H	1.307351	0.051056	-0.190368
H215	H	0.737596	-0.266971	-0.287151
H216	H	1.237596	0.233029	0.212849
H217	H	1.086820	-1.112908	-0.301168
H218	H	1.586820	-0.612908	0.198832
O219	O	0.736419	-0.425674	-0.457239
O220	O	1.236419	0.074326	0.042761
C221	C	0.686701	-0.460828	-0.494890
C222	C	1.186701	0.039172	0.005110
H223	H	0.634305	-0.433178	-0.495281
H224	H	1.134305	0.066822	0.004719
H225	H	0.705698	-0.470308	-0.551090
H226	H	1.205698	0.029692	-0.051090
H227	H	0.679899	-0.507424	-0.468748
H228	H	1.179899	-0.007424	0.031252
H229	H	0.597915	-0.413886	-0.444573
H230	H	1.097915	0.086114	0.055427
H231	H	0.273285	-0.287047	-0.308681
H232	H	0.773285	0.212953	0.191319
O233	O	0.260580	-0.445237	-0.478224
O234	O	0.760580	0.054763	0.021776
C235	C	0.188327	-0.433560	-0.465689
C236	C	0.688327	0.066440	0.034311
H237	H	0.179240	-0.383790	-0.442374
H238	H	0.679240	0.116210	0.057626
H239	H	0.158343	-0.438663	-0.517199
H240	H	0.658343	0.061337	-0.017199
H241	H	0.168974	-0.468784	-0.427360
H242	H	0.668974	0.031216	0.072640
H243	H	1.086595	-0.592792	-0.301045
H244	H	1.586595	-0.092792	0.198955
H245	H	0.916945	-0.711604	-0.457442
H246	H	1.416945	-0.211604	0.042558
H247	H	0.917057	-0.993179	-0.457503
H248	H	1.417057	-0.493179	0.042497
O249	O	1.094176	-0.988590	-0.294340
O250	O	1.594176	-0.488590	0.205660
C251	C	1.135464	-1.031813	-0.256304
C252	C	1.635464	-0.531813	0.243696
H253	H	1.136746	-1.079738	-0.285198
H254	H	1.636746	-0.579738	0.214802
H255	H	1.191122	-1.014590	-0.251073
H256	H	1.691122	-0.514590	0.248927
H257	H	1.111911	-1.036061	-0.201885
H258	H	1.611911	-0.536061	0.298115
