data_functionalizedCrystal
_audit_creation_method	'MofGen! by Chris Wilmer'
_symmetry_space_group_name_H-M	'P1'
_symmetry_Int_Tables_number	1
_symmetry_cell_setting	triclinic
loop_
_symmetry_equiv_pos_as_xyz
  x,y,z
_cell_length_a	21.395364
_cell_length_b	19.805405
_cell_length_c	21.395356
_cell_angle_alpha	89.970920
_cell_angle_beta	89.976411
_cell_angle_gamma	90.041362
loop_
_atom_site_label
_atom_site_type_symbol
_atom_site_fract_x
_atom_site_fract_y
_atom_site_fract_z
Zn1	Zn	0.957872	-0.269210	-0.354255
Zn2	Zn	1.291205	0.064123	-0.020922
Zn3	Zn	1.624539	0.397456	0.312411
Zn4	Zn	0.957784	-0.382398	-0.249475
Zn5	Zn	1.291117	-0.049065	0.083858
Zn6	Zn	1.624451	0.284268	0.417191
Zn7	Zn	0.853089	-0.269258	-0.249492
Zn8	Zn	1.186422	0.064075	0.083841
Zn9	Zn	1.519755	0.397409	0.417175
Zn10	Zn	0.853064	-0.382392	-0.354216
Zn11	Zn	1.186397	-0.049059	-0.020882
Zn12	Zn	1.519731	0.284274	0.312451
O13	O	0.905452	-0.325815	-0.301860
O14	O	1.238786	0.007519	0.031474
O15	O	1.572119	0.340852	0.364807
O16	O	1.045538	-0.284207	-0.340366
O17	O	1.378872	0.049126	-0.007032
O18	O	1.712205	0.382459	0.326301
O19	O	0.943870	-0.367413	-0.161800
O20	O	1.277203	-0.034079	0.171534
O21	O	1.610536	0.299254	0.504867
O22	O	0.867036	-0.174535	-0.263413
O23	O	1.200369	0.158798	0.069920
O24	O	1.533702	0.492132	0.403254
O25	O	1.045474	-0.367366	-0.263384
O26	O	1.378807	-0.034033	0.069949
O27	O	1.712140	0.299300	0.403282
O28	O	0.944019	-0.174500	-0.340382
O29	O	1.277353	0.158833	-0.007049
O30	O	1.610686	0.492167	0.326285
O31	O	0.866950	-0.284289	-0.161812
O32	O	1.200284	0.049044	0.171521
O33	O	1.533617	0.382378	0.504855
O34	O	0.765408	-0.284283	-0.263374
O35	O	1.098741	0.049050	0.069959
O36	O	1.432074	0.382384	0.403292
O37	O	0.866993	-0.367356	-0.441899
O38	O	1.200327	-0.034023	-0.108565
O39	O	1.533660	0.299311	0.224768
O40	O	0.765389	-0.367402	-0.340314
O41	O	1.098723	-0.034069	-0.006981
O42	O	1.432056	0.299264	0.326353
O43	O	0.943995	-0.284202	-0.441928
O44	O	1.277329	0.049132	-0.108595
O45	O	1.610662	0.382465	0.224739
O46	O	0.943846	-0.477114	-0.263346
O47	O	1.277179	-0.143781	0.069988
O48	O	1.610512	0.189553	0.403321
O49	O	0.866908	-0.477110	-0.340298
O50	O	1.200242	-0.143776	-0.006965
O51	O	1.533575	0.189557	0.326369
C52	C	0.742665	-0.325848	-0.301842
C53	C	1.075998	0.007486	0.031491
C54	C	1.409331	0.340819	0.364825
C55	C	0.673023	-0.325878	-0.301849
C56	C	1.006357	0.007455	0.031484
C57	C	1.339690	0.340789	0.364817
C58	C	0.640366	-0.282648	-0.341996
C59	C	0.973700	0.050685	-0.008662
C60	C	1.307033	0.384018	0.324671
C61	C	0.574931	-0.282630	-0.341998
C62	C	0.908264	0.050703	-0.008665
C63	C	1.241597	0.384036	0.324669
C64	C	0.542155	-0.325854	-0.301861
C65	C	0.875488	0.007479	0.031473
C66	C	1.208822	0.340813	0.364806
C67	C	0.574820	-0.369087	-0.261707
C68	C	0.908153	-0.035754	0.071627
C69	C	1.241487	0.297580	0.404960
C70	C	0.640254	-0.369099	-0.261701
C71	C	0.973588	-0.035766	0.071632
C72	C	1.306921	0.297568	0.404966
C73	C	0.438435	-0.386809	-0.296822
C74	C	0.771768	-0.053476	0.036511
C75	C	1.105102	0.279857	0.369845
C76	C	0.373002	-0.386799	-0.296832
C77	C	0.706335	-0.053465	0.036501
C78	C	1.039669	0.279868	0.369835
C79	C	0.340334	-0.325817	-0.301875
C80	C	0.673668	0.007516	0.031459
C81	C	1.007001	0.340850	0.364792
C82	C	0.373108	-0.264844	-0.306921
C83	C	0.706441	0.068489	0.026413
C84	C	1.039774	0.401823	0.359746
C85	C	0.438542	-0.264856	-0.306915
C86	C	0.771875	0.068477	0.026418
C87	C	1.105208	0.401811	0.359752
C88	C	0.471203	-0.325846	-0.301862
C89	C	0.804536	0.007488	0.031471
C90	C	1.137869	0.340821	0.364804
C91	C	0.236725	-0.282564	-0.342026
C92	C	0.570058	0.050770	-0.008692
C93	C	0.903391	0.384103	0.324641
C94	C	0.171288	-0.282545	-0.342024
C95	C	0.504621	0.050789	-0.008690
C96	C	0.837955	0.384122	0.324643
C97	C	0.171179	-0.369008	-0.261736
C98	C	0.504512	-0.035674	0.071598
C99	C	0.837845	0.297659	0.404931
C100	C	0.236614	-0.369021	-0.261735
C101	C	0.569947	-0.035687	0.071599
C102	C	0.903281	0.297646	0.404932
C103	C	0.269383	-0.325800	-0.301883
C104	C	0.602716	0.007534	0.031451
C105	C	0.936050	0.340867	0.364784
C106	C	0.905382	-0.501671	-0.301829
C107	C	1.238715	-0.168337	0.031504
C108	C	1.572048	0.164996	0.364837
C109	C	0.905409	-0.576903	-0.301837
C110	C	1.238742	-0.243569	0.031496
C111	C	1.572076	0.089764	0.364829
C112	C	0.945509	-0.612227	-0.261810
C113	C	1.278842	-0.278893	0.071523
C114	C	1.612176	0.054440	0.404856
C115	C	0.945536	-0.682915	-0.261824
C116	C	1.278869	-0.349582	0.071509
C117	C	1.612202	-0.016248	0.404843
C118	C	0.905458	-0.718278	-0.301862
C119	C	1.238792	-0.384945	0.031471
C120	C	1.572125	-0.051612	0.364804
C121	C	0.865356	-0.682949	-0.341894
C122	C	1.198690	-0.349616	-0.008560
C123	C	1.532023	-0.016283	0.324773
C124	C	0.865333	-0.612262	-0.341883
C125	C	1.198667	-0.278929	-0.008549
C126	C	1.532000	0.054404	0.324784
C127	C	0.865449	-0.968023	-0.341940
C128	C	1.198782	-0.634689	-0.008607
C129	C	1.532116	-0.301356	0.324726
C130	C	0.865474	-1.038715	-0.341947
C131	C	1.198807	-0.705381	-0.008614
C132	C	1.532140	-0.372048	0.324720
C133	C	0.945651	-1.038675	-0.261882
C134	C	1.278984	-0.705342	0.071452
C135	C	1.612318	-0.372009	0.404785
C136	C	0.945628	-0.967988	-0.261871
C137	C	1.278961	-0.634655	0.071463
C138	C	1.612295	-0.301322	0.404796
C139	C	0.905529	-0.932666	-0.301904
C140	C	1.238862	-0.599332	0.031429
C141	C	1.572195	-0.265999	0.364763
C142	C	0.905501	-0.856017	-0.301889
C143	C	1.238835	-0.522684	0.031444
C144	C	1.572168	-0.189351	0.364777
C145	C	0.905482	-0.794925	-0.301874
C146	C	1.238816	-0.461592	0.031459
C147	C	1.572149	-0.128259	0.364792
C148	C	1.068875	-0.325782	-0.301878
C149	C	1.402209	0.007551	0.031456
C150	C	1.735542	0.340885	0.364789
C151	C	1.138517	-0.325768	-0.301885
C152	C	1.471850	0.007565	0.031448
C153	C	1.805183	0.340898	0.364781
C154	C	0.905501	-0.325773	-0.465283
C155	C	1.238835	0.007561	-0.131950
C156	C	1.572168	0.340894	0.201384
C157	C	0.905522	-0.325755	-0.534924
C158	C	1.238856	0.007578	-0.201591
C159	C	1.572189	0.340912	0.131742
C160	C	0.905540	-0.149272	-0.301904
C161	C	1.238873	0.184061	0.031430
C162	C	1.572207	0.517395	0.364763
C163	C	0.905577	-0.074040	-0.301923
C164	C	1.238911	0.259293	0.031411
C165	C	1.572244	0.592627	0.364744
C166	C	0.865481	-0.282468	-0.567634
C167	C	1.198815	0.050866	-0.234301
C168	C	1.532148	0.384199	0.099033
C169	C	0.865479	-0.282455	-0.633069
C170	C	1.198813	0.050878	-0.299736
C171	C	1.532146	0.384212	0.033597
C172	C	0.905529	-0.325723	-0.665793
C173	C	1.238863	0.007611	-0.332459
C174	C	1.572196	0.340944	0.000874
C175	C	0.945573	-0.369018	-0.633075
C176	C	1.278907	-0.035685	-0.299742
C177	C	1.612240	0.297648	0.033592
C178	C	0.945570	-0.369035	-0.567641
C179	C	1.278903	-0.035701	-0.234308
C180	C	1.612237	0.297632	0.099026
C181	C	0.961982	-0.331028	-0.769479
C182	C	1.295315	0.002305	-0.436146
C183	C	1.628648	0.335639	-0.102812
C184	C	0.961986	-0.331007	-0.834912
C185	C	1.295320	0.002326	-0.501579
C186	C	1.628653	0.335659	-0.168245
C187	C	0.905540	-0.325677	-0.867614
C188	C	1.238873	0.007656	-0.534280
C189	C	1.572206	0.340990	-0.200947
C190	C	0.849087	-0.320353	-0.834874
C191	C	1.182420	0.012980	-0.501541
C192	C	1.515754	0.346313	-0.168207
C193	C	0.849083	-0.320369	-0.769440
C194	C	1.182417	0.012964	-0.436107
C195	C	1.515750	0.346297	-0.102773
C196	C	0.905537	-0.325710	-0.736745
C197	C	1.238871	0.007623	-0.403412
C198	C	1.572204	0.340956	-0.070078
C199	C	0.865493	-0.282374	-0.971276
C200	C	1.198826	0.050960	-0.637942
C201	C	1.532160	0.384293	-0.304609
C202	C	0.865490	-0.282366	-1.036712
C203	C	1.198823	0.050967	-0.703379
C204	C	1.532156	0.384301	-0.370046
C205	C	0.945589	-0.368926	-1.036717
C206	C	1.278923	-0.035592	-0.703384
C207	C	1.612256	0.297741	-0.370050
C208	C	0.945587	-0.368937	-0.971281
C209	C	1.278920	-0.035604	-0.637948
C210	C	1.612254	0.297729	-0.304615
C211	C	0.905540	-0.325658	-0.938565
C212	C	1.238873	0.007676	-0.605232
C213	C	1.572206	0.341009	-0.271898
C214	C	0.905439	-0.325808	-0.139072
C215	C	1.238773	0.007526	0.194261
C216	C	1.572106	0.340859	0.527595
C217	C	0.905540	-0.325635	-0.069431
C218	C	1.238873	0.007698	0.263902
C219	C	1.572206	0.341032	0.597235
H220	H	0.548336	-0.247424	-0.374689
H221	H	0.881669	0.085909	-0.041355
H222	H	1.215003	0.419243	0.291978
N223	N	0.988735	-0.574084	-0.218627
N224	N	1.322068	-0.240751	0.114706
N225	N	1.655402	0.092583	0.448039
H226	H	0.979033	-0.586430	-0.173853
H227	H	1.312367	-0.253097	0.159480
H228	H	1.645700	0.080236	0.492814
H229	H	1.033483	-0.586342	-0.228457
H230	H	1.366816	-0.253008	0.104876
H231	H	1.700150	0.080325	0.438209
H232	H	0.978260	-0.939198	-0.229266
H233	H	1.311594	-0.605865	0.104068
H234	H	1.644927	-0.272531	0.437401
H235	H	0.978194	-0.404185	-0.944649
H236	H	1.311528	-0.070851	-0.611316
H237	H	1.644861	0.262482	-0.277982
H238	H	0.803118	-0.316036	-0.742786
H239	H	1.136451	0.017297	-0.409453
H240	H	1.469784	0.350631	-0.076120
H241	H	0.978179	-0.404284	-0.541009
H242	H	1.311512	-0.070950	-0.207676
H243	H	1.644846	0.262383	0.125658
H244	H	0.667043	-0.247454	-0.374687
H245	H	1.000376	0.085880	-0.041354
H246	H	1.333709	0.419213	0.291980
N247	N	0.473664	-0.452588	-0.291382
N248	N	0.806998	-0.119255	0.041952
N249	N	1.140331	0.214079	0.375285
H250	H	0.520089	-0.443345	-0.292140
H251	H	0.853422	-0.110011	0.041193
H252	H	1.186756	0.223322	0.374526
H253	H	0.462186	-0.475527	-0.250796
H254	H	0.795519	-0.142194	0.082538
H255	H	1.128852	0.191140	0.415871
H256	H	0.548130	-0.404280	-0.229026
H257	H	0.881463	-0.070946	0.104307
H258	H	1.214796	0.262387	0.437640
H259	H	0.832883	-0.247133	-0.944636
H260	H	1.166217	0.086200	-0.611303
H261	H	1.499550	0.419533	-0.277970
H262	H	0.666843	-0.404303	-0.229008
H263	H	1.000177	-0.070970	0.104325
H264	H	1.333510	0.262364	0.437658
N265	N	1.022871	-0.336748	-0.870221
N266	N	1.356204	-0.003415	-0.536888
N267	N	1.689537	0.329918	-0.203554
H268	H	1.058628	-0.340138	-0.839577
H269	H	1.391961	-0.006804	-0.506244
H270	H	1.725295	0.326529	-0.172911
H271	H	1.021944	-0.378447	-0.897359
H272	H	1.355277	-0.045113	-0.564026
H273	H	1.688610	0.288220	-0.230692
H274	H	0.465223	-0.215210	-0.311021
H275	H	0.798556	0.118123	0.022312
H276	H	1.131890	0.451457	0.355645
H277	H	0.803123	-0.316008	-0.861498
H278	H	1.136456	0.017325	-0.528165
H279	H	1.469790	0.350659	-0.194832
N280	N	0.988901	-1.076773	-0.218699
N281	N	1.322235	-0.743440	0.114634
N282	N	1.655568	-0.410107	0.447968
H283	H	0.982838	-1.126920	-0.224780
H284	H	1.316171	-0.793586	0.108554
H285	H	1.649504	-0.460253	0.441887
H286	H	1.033641	-1.064358	-0.228484
H287	H	1.366975	-0.731024	0.104849
H288	H	1.700308	-0.397691	0.438182
H289	H	0.832681	-0.583502	-0.374477
H290	H	1.166014	-0.250169	-0.041144
H291	H	1.499347	0.083165	0.292189
H292	H	0.346511	-0.215187	-0.311027
H293	H	0.679844	0.118146	0.022306
H294	H	1.013178	0.451480	0.355640
N295	N	0.272072	-0.235956	-0.385333
N296	N	0.605405	0.097377	-0.052000
N297	N	0.938739	0.430710	0.281334
H298	H	0.318480	-0.242532	-0.379246
H299	H	0.651814	0.090801	-0.045913
H300	H	0.985147	0.424134	0.287420
H301	H	0.260637	-0.246568	-0.430058
H302	H	0.593970	0.086766	-0.096725
H303	H	0.927303	0.420099	0.236609
H304	H	0.144700	-0.247338	-0.374715
H305	H	0.478033	0.085996	-0.041381
H306	H	0.811366	0.419329	0.291952
N307	N	0.271842	-0.415648	-0.218434
N308	N	0.605175	-0.082315	0.114899
N309	N	0.938509	0.251018	0.448232
H310	H	0.241152	-0.443028	-0.193007
H311	H	0.574485	-0.109695	0.140327
H312	H	0.907818	0.223639	0.473660
H313	H	0.298979	-0.447013	-0.243882
H314	H	0.632312	-0.113680	0.089452
H315	H	0.965646	0.219654	0.422785
H316	H	0.978189	-0.711673	-0.229230
H317	H	1.311522	-0.378339	0.104104
H318	H	1.644856	-0.045006	0.437437
H319	H	0.144493	-0.404201	-0.229055
H320	H	0.477826	-0.070868	0.104278
H321	H	0.811160	0.262465	0.437611
N322	N	0.337655	-0.452557	-0.291388
N323	N	0.670989	-0.119223	0.041946
N324	N	1.004322	0.214110	0.375279
H325	H	0.349037	-0.482907	-0.327559
H326	H	0.682370	-0.149574	0.005774
H327	H	1.015704	0.183759	0.339107
H328	H	0.349018	-0.475469	-0.250774
H329	H	0.682351	-0.142135	0.082559
H330	H	1.015684	0.191198	0.415893
N331	N	0.822244	-1.076859	-0.385131
N332	N	1.155577	-0.743526	-0.051798
N333	N	1.488911	-0.410192	0.281535
H334	H	0.796838	-1.043757	-0.410492
H335	H	1.130171	-0.710423	-0.077158
H336	H	1.463505	-0.377090	0.256175
H337	H	0.847745	-1.106140	-0.414150
H338	H	1.181078	-0.772807	-0.080817
H339	H	1.514411	-0.439473	0.252516
H340	H	0.832797	-0.939268	-0.374536
H341	H	1.166131	-0.605935	-0.041202
H342	H	1.499464	-0.272602	0.292131
H343	H	0.832728	-0.711748	-0.374496
H344	H	1.166061	-0.378414	-0.041163
H345	H	1.499394	-0.045081	0.292170
H346	H	0.832879	-0.247118	-1.063344
H347	H	1.166212	0.086215	-0.730010
H348	H	1.499545	0.419548	-0.396677
H349	H	0.832869	-0.247228	-0.541000
H350	H	1.166203	0.086105	-0.207667
H351	H	1.499536	0.419438	0.125667
N352	N	0.822290	-0.235766	-0.668360
N353	N	1.155623	0.097567	-0.335027
N354	N	1.488957	0.430901	-0.001693
H355	H	0.796919	-0.208352	-0.637705
H356	H	1.130253	0.124981	-0.304372
H357	H	1.463586	0.458314	0.028962
H358	H	0.847816	-0.204435	-0.695525
H359	H	1.181150	0.128898	-0.362192
H360	H	1.514483	0.462232	-0.028859
H361	H	0.978200	-0.404154	-1.063360
H362	H	1.311534	-0.070821	-0.730026
H363	H	1.644867	0.262513	-0.396693
N364	N	1.022866	-0.336790	-0.734210
N365	N	1.356199	-0.003457	-0.400877
N366	N	1.689533	0.329877	-0.067544
H367	H	1.058628	-0.340157	-0.764878
H368	H	1.391961	-0.006823	-0.431545
H369	H	1.725294	0.326510	-0.098211
H370	H	1.028708	-0.295559	-0.707071
H371	H	1.362041	0.037775	-0.373738
H372	H	1.695374	0.371108	-0.040404
N373	N	0.988766	-0.415692	-0.668365
N374	N	1.322099	-0.082359	-0.335031
N375	N	1.655432	0.250974	-0.001698
H376	H	0.982693	-0.409114	-0.714781
H377	H	1.316026	-0.075780	-0.381448
H378	H	1.649359	0.257553	-0.048114
H379	H	1.033519	-0.405157	-0.656946
H380	H	1.366852	-0.071823	-0.323613
H381	H	1.700186	0.261510	0.009720
