data_functionalizedCrystal
_audit_creation_method	'MofGen! by Chris Wilmer'
_symmetry_space_group_name_H-M	'P1'
_symmetry_Int_Tables_number	1
_symmetry_cell_setting	triclinic
loop_
_symmetry_equiv_pos_as_xyz
  x,y,z
_cell_length_a	9.065215
_cell_length_b	14.044220
_cell_length_c	13.101039
_cell_angle_alpha	93.667477
_cell_angle_beta	86.593001
_cell_angle_gamma	89.101787
loop_
_atom_site_label
_atom_site_type_symbol
_atom_site_fract_x
_atom_site_fract_y
_atom_site_fract_z
O1	O	1.983257	0.133962	-0.085206
O2	O	1.555238	0.145377	-0.085211
O3	O	1.762822	0.001630	-0.085198
O4	O	1.775673	0.277709	-0.085218
O5	O	1.747930	0.011961	0.085231
O6	O	1.540346	0.155708	0.085218
O7	O	1.968366	0.144293	0.085223
Zn8	Zn	1.751992	0.151641	0.112280
Zn9	Zn	1.771612	0.138029	-0.112268
O10	O	1.760781	0.288040	0.085211
C11	C	1.492684	0.149446	0.000003
C12	C	1.328477	0.146168	0.000002
C13	C	1.749752	-0.028567	0.000017
C14	C	1.732975	-0.133936	0.000018
C15	C	1.702304	-0.326862	0.000003
C16	C	1.821293	-0.383474	0.000001
C17	C	1.804228	-0.490825	-0.000008
C18	C	1.719367	-0.219501	0.000011
C19	C	2.030920	0.140224	0.000007
C20	C	2.195127	0.143502	0.000002
C21	C	1.773852	0.318237	-0.000007
C22	C	1.790630	0.423606	-0.000014
N23	N	1.738612	0.160930	0.265528
N24	N	1.785002	0.128733	-0.265515
C25	C	1.720409	0.173577	0.474569
C26	C	1.803200	0.116089	0.525450
C27	C	1.793072	0.123126	0.641768
C28	C	1.730536	0.166541	0.358241
H29	H	1.935986	-0.351323	-0.000067
C30	C	1.547382	-0.370293	0.000009
H31	H	1.556092	-0.437793	0.000015
H32	H	1.500419	-0.353547	-0.059417
H33	H	1.490063	-0.346352	0.059455
C34	C	1.909278	0.042492	0.466291
H35	H	1.902287	0.047372	0.394740
H36	H	1.883288	-0.019926	0.483801
H37	H	2.007726	0.054651	0.483821
H38	H	1.641929	0.228075	0.518361
