data_functionalizedCrystal
_audit_creation_method	'MofGen! by Chris Wilmer'
_symmetry_space_group_name_H-M	'P1'
_symmetry_Int_Tables_number	1
_symmetry_cell_setting	triclinic
loop_
_symmetry_equiv_pos_as_xyz
  x,y,z
_cell_length_a	10.654541
_cell_length_b	9.198806
_cell_length_c	10.723023
_cell_angle_alpha	89.998149
_cell_angle_beta	84.475738
_cell_angle_gamma	89.997395
loop_
_atom_site_label
_atom_site_type_symbol
_atom_site_fract_x
_atom_site_fract_y
_atom_site_fract_z
O1	O	1.667816	-0.120843	0.175258
O2	O	1.302335	-0.120856	0.191960
O3	O	1.493506	-0.120844	0.002034
O4	O	1.476645	-0.120854	0.365184
O5	O	1.493491	0.120941	0.002033
O6	O	1.302319	0.120930	0.191960
O7	O	1.667801	0.120942	0.175257
Cu8	Cu	1.485059	0.143013	0.183608
Cu9	Cu	1.485077	-0.142926	0.183609
O10	O	1.476629	0.120931	0.365183
C11	C	1.255529	0.000035	0.190734
C12	C	1.116086	0.000031	0.187067
N13	N	1.485055	0.344126	0.183607
N14	N	1.485090	-0.344040	0.183600
C15	C	1.088081	0.000006	0.414175
C16	C	1.008569	-0.000012	0.526001
C17	C	0.877552	-0.000013	0.522548
C18	C	0.826044	0.000008	0.407256
C19	C	0.905556	0.000026	0.295430
C20	C	1.036574	0.000023	0.298896
C21	C	0.933561	0.000061	0.068324
C22	C	1.064579	0.000052	0.071775
C23	C	0.882053	0.000082	-0.046967
C24	C	0.961565	0.000090	-0.158796
C25	C	1.092590	0.000089	-0.155338
C26	C	1.144090	0.000070	-0.040051
C27	C	1.714607	0.000048	0.176483
C28	C	1.854049	0.000043	0.180151
C29	C	1.492272	0.000046	-0.044466
C30	C	1.488601	0.000041	-0.183021
C31	C	1.565323	0.416328	0.103511
C32	C	1.565342	0.583740	0.103507
C33	C	1.486957	0.125290	-0.244799
C34	C	1.483163	0.125287	-0.388003
C35	C	1.477864	0.000037	0.411684
C36	C	1.481535	0.000033	0.550238
H37	H	1.050521	-0.000025	0.619870
N38	N	1.656343	0.334050	0.012686
H39	H	1.709914	0.405234	-0.040766
H40	H	1.607565	0.270908	-0.042726
H41	H	1.416371	0.593879	0.252182
N42	N	1.481302	0.267333	-0.458369
H43	H	1.482912	0.350920	-0.397473
H44	H	1.402150	0.272994	-0.502947
N45	N	1.656384	0.665971	0.012675
H46	H	1.643496	0.773908	0.025549
H47	H	1.640885	0.639450	-0.075944
N48	N	0.684734	0.000049	0.403527
H49	H	0.642180	0.000049	0.491861
H50	H	0.658763	-0.089571	0.358050
H51	H	1.482938	-0.107203	-0.396640
H52	H	0.775371	0.000089	-0.049771
N53	N	1.394036	0.426407	0.274432
H54	H	1.442724	0.489551	0.329928
H55	H	1.340486	0.355132	0.327799
H56	H	0.919616	0.000106	-0.252658
H57	H	1.488364	0.232522	-0.191673
N58	N	1.285400	0.000063	-0.036322
H59	H	1.305960	0.000049	0.053680
H60	H	1.322358	0.089706	-0.080121
N61	N	1.486768	-0.142018	-0.253370
H62	H	1.407625	-0.147843	-0.297953
H63	H	1.488443	-0.225506	-0.192382
N64	N	0.791800	-0.000007	0.643165
H65	H	0.808478	-0.089638	0.693414
H66	H	0.701019	0.000056	0.623384
N67	N	1.229393	-0.000009	0.417889
H68	H	1.255455	-0.089650	0.463294
H69	H	1.255362	0.089669	0.463287
N70	N	1.178338	0.000122	-0.275958
H71	H	1.161659	-0.089496	-0.326216
H72	H	1.269120	0.000174	-0.256183
