data_functionalizedCrystal
_audit_creation_method	'MofGen! by Chris Wilmer'
_symmetry_space_group_name_H-M	'P1'
_symmetry_Int_Tables_number	1
_symmetry_cell_setting	triclinic
loop_
_symmetry_equiv_pos_as_xyz
  x,y,z
_cell_length_a	13.897449
_cell_length_b	19.120786
_cell_length_c	13.897441
_cell_angle_alpha	87.525635
_cell_angle_beta	89.976606
_cell_angle_gamma	92.465881
loop_
_atom_site_label
_atom_site_type_symbol
_atom_site_fract_x
_atom_site_fract_y
_atom_site_fract_z
Zn1	Zn	1.458269	-0.279593	-0.529041
Zn2	Zn	1.958269	0.220407	-0.029041
Zn3	Zn	1.451259	-0.397064	-0.360848
Zn4	Zn	1.951259	0.102936	0.139152
Zn5	Zn	1.296957	-0.279626	-0.367749
Zn6	Zn	1.796957	0.220374	0.132251
Zn7	Zn	1.290039	-0.397017	-0.522096
Zn8	Zn	1.790039	0.102983	-0.022096
O9	O	1.374131	-0.338325	-0.444933
O10	O	1.874131	0.161675	0.055067
O11	O	1.592321	-0.295182	-0.506747
O12	O	2.092321	0.204818	-0.006747
O13	O	1.430752	-0.381519	-0.226779
O14	O	1.930752	0.118481	0.273221
O15	O	1.324184	-0.181331	-0.394940
O16	O	1.824184	0.318669	0.105060
O17	O	1.587170	-0.381488	-0.383177
O18	O	2.087170	0.118512	0.116823
O19	O	1.442700	-0.181307	-0.513440
O20	O	1.942700	0.318693	-0.013440
O21	O	1.317387	-0.295238	-0.231850
O22	O	1.817387	0.204762	0.268150
O23	O	1.161058	-0.295192	-0.388206
O24	O	1.661058	0.204808	0.111794
O25	O	1.312394	-0.381407	-0.658000
O26	O	1.812394	0.118593	-0.158000
O27	O	1.155975	-0.381439	-0.501603
O28	O	1.655975	0.118561	-0.001603
O29	O	1.435992	-0.295137	-0.663103
O30	O	1.935992	0.204863	-0.163103
O31	O	1.424044	-0.495349	-0.376443
O32	O	1.924044	0.004651	0.123557
O33	O	1.305596	-0.495314	-0.494911
O34	O	1.805596	0.004686	0.005089
C35	C	1.123517	-0.338314	-0.444900
C36	C	1.623517	0.161686	0.055100
C37	C	1.016303	-0.338327	-0.444908
C38	C	1.516303	0.161673	0.055092
C39	C	0.929233	-0.338329	-0.444924
C40	C	1.429233	0.161671	0.055076
C41	C	0.820000	-0.338334	-0.444953
C42	C	1.320000	0.161666	0.055047
C43	C	1.363335	-0.520817	-0.434195
C44	C	1.863335	-0.020817	0.065805
C45	C	1.358804	-0.598888	-0.429633
C46	C	1.858804	-0.098888	0.070367
C47	C	1.418334	-0.635493	-0.489237
C48	C	1.918334	-0.135493	0.010763
C49	C	1.414074	-0.708849	-0.484953
C50	C	1.914074	-0.208849	0.015047
C51	C	1.350287	-0.745598	-0.421059
C52	C	1.850287	-0.245598	0.078941
C53	C	1.290750	-0.708988	-0.361453
C54	C	1.790750	-0.208988	0.138547
C55	C	1.295006	-0.635634	-0.365743
C56	C	1.795006	-0.135634	0.134257
C57	C	1.334345	-0.967085	-0.405021
C58	C	1.834345	-0.467085	0.094979
C59	C	1.330095	-1.040445	-0.400734
C60	C	1.830095	-0.540445	0.099266
C61	C	1.453419	-1.040300	-0.524235
C62	C	1.953419	-0.540300	-0.024235
C63	C	1.457674	-0.966944	-0.528515
C64	C	1.957674	-0.466944	-0.028515
C65	C	1.398133	-0.930341	-0.468913
C66	C	1.898133	-0.430341	0.031087
C67	C	1.345932	-0.820580	-0.416676
C68	C	1.845932	-0.320580	0.083324
C69	C	1.402484	-0.855361	-0.473302
C70	C	1.902484	-0.355361	0.026698
C71	C	1.625723	-0.338337	-0.444967
C72	C	2.125723	0.161663	0.055033
C73	C	1.732937	-0.338341	-0.444981
C74	C	2.232937	0.161659	0.055019
C75	C	1.374203	-0.338263	-0.696530
C76	C	1.874203	0.161737	-0.196530
C77	C	1.374234	-0.338237	-0.803746
C78	C	1.874234	0.161763	-0.303746
C79	C	1.384996	-0.155121	-0.455735
C80	C	1.884996	0.344879	0.044265
C81	C	1.389626	-0.077050	-0.460337
C82	C	1.889626	0.422950	0.039663
C83	C	1.374263	-0.338189	-1.000044
C84	C	1.874263	0.161811	-0.500044
C85	C	1.374244	-0.338218	-0.890809
C86	C	1.874244	0.161782	-0.390809
C87	C	1.374118	-0.338336	-0.194318
C88	C	1.874118	0.161664	0.305682
C89	C	1.374285	-0.338165	-0.087115
C90	C	1.874285	0.161835	0.412885
H91	H	1.470281	-0.605576	-0.541262
H92	H	1.970281	-0.105576	-0.041262
C93	C	1.220642	-0.749415	-0.291111
C94	C	1.720642	-0.249415	0.208889
N95	N	1.167859	-0.779864	-0.238103
N96	N	1.667859	-0.279864	0.261897
C97	C	1.268827	-0.926831	-0.339478
C98	C	1.768827	-0.426831	0.160522
N99	N	1.219466	-0.896508	-0.290116
N100	N	1.719466	-0.396508	0.209884
H101	H	1.462557	-0.738649	-0.533481
H102	H	1.962557	-0.238649	-0.033481
H103	H	1.293999	-0.850509	-0.364651
H104	H	1.793999	-0.350509	0.135349
C105	C	1.527862	-0.926525	-0.598786
C106	C	2.027862	-0.426525	-0.098786
N107	N	1.580738	-0.896082	-0.651706
N108	N	2.080738	-0.396082	-0.151706
H109	H	1.246529	-0.605831	-0.317209
H110	H	1.746529	-0.105831	0.182791
H111	H	1.454415	-0.825437	-0.525328
H112	H	1.954415	-0.325437	-0.025328
C113	C	1.518902	-1.080570	-0.589800
C114	C	2.018902	-0.580570	-0.089800
N115	N	1.568223	-1.110902	-0.639189
N116	N	2.068223	-0.610902	-0.139189
C117	C	1.259918	-1.080868	-0.330447
C118	C	1.759918	-0.580868	0.169553
N119	N	1.207063	-1.111314	-0.277509
N120	N	1.707063	-0.611314	0.222491
