data_functionalizedCrystal
_audit_creation_method	'MofGen! by Chris Wilmer'
_symmetry_space_group_name_H-M	'P1'
_symmetry_Int_Tables_number	1
_symmetry_cell_setting	triclinic
loop_
_symmetry_equiv_pos_as_xyz
  x,y,z
_cell_length_a	15.995292
_cell_length_b	15.944493
_cell_length_c	15.072220
_cell_angle_alpha	90.004743
_cell_angle_beta	89.986330
_cell_angle_gamma	83.471830
loop_
_atom_site_label
_atom_site_type_symbol
_atom_site_fract_x
_atom_site_fract_y
_atom_site_fract_z
O1	O	1.111010	0.108035	-0.073795
O2	O	1.611010	0.608035	0.426205
O3	O	0.867226	0.121456	-0.073790
O4	O	1.367226	0.621456	0.426210
O5	O	0.995800	-0.007535	-0.073800
O6	O	1.495800	0.492465	0.426200
O7	O	0.982435	0.237025	-0.073785
O8	O	1.482435	0.737025	0.426215
O9	O	0.995769	-0.007528	0.073765
O10	O	1.495769	0.492472	0.573765
O11	O	0.867194	0.121463	0.073775
O12	O	1.367194	0.621463	0.573775
O13	O	1.110978	0.108042	0.073770
O14	O	1.610978	0.608042	0.573770
Zn15	Zn	0.989081	0.114754	0.097202
Zn16	Zn	1.489081	0.614754	0.597202
Zn17	Zn	0.989123	0.114744	-0.097221
Zn18	Zn	1.489123	0.614744	0.402779
O19	O	0.982404	0.237032	0.073780
O20	O	1.482404	0.737032	0.573780
C21	C	0.836014	0.120913	-0.000007
C22	C	1.336014	0.620913	0.499993
C23	C	0.743062	0.119276	-0.000006
C24	C	1.243062	0.619276	0.499994
C25	C	0.995238	-0.038826	-0.000021
C26	C	1.495238	0.461174	0.499979
C27	C	0.993600	-0.132074	-0.000032
C28	C	1.493600	0.367926	0.499968
C29	C	0.405324	0.113255	-0.000016
C30	C	0.905324	0.613255	0.499984
C31	C	0.428623	0.206357	-0.000340
C32	C	0.928623	0.706357	0.499660
C33	C	0.525298	0.208127	-0.000003
C34	C	1.025298	0.708127	0.499997
C35	C	0.572880	0.116242	-0.000011
C36	C	1.072880	0.616242	0.499989
C37	C	0.543767	0.069700	0.084250
C38	C	1.043767	0.569700	0.584250
C39	C	0.446976	0.068579	0.084316
C40	C	0.946976	0.568579	0.584316
C41	C	0.447157	0.066670	-0.083493
C42	C	0.947157	0.566670	0.416507
C43	C	0.543650	0.070120	-0.084602
C44	C	1.043650	0.570120	0.415398
C45	C	0.667576	0.117926	-0.000006
C46	C	1.167576	0.617926	0.499994
C47	C	0.310629	0.111569	-0.000016
C48	C	0.810629	0.611569	0.499984
C49	C	1.069282	-0.367854	-0.000017
C50	C	1.569282	0.132146	0.499983
C51	C	1.028486	-0.418415	-0.072773
C52	C	1.528486	0.081585	0.427227
C53	C	0.990566	-0.302794	-0.000021
C54	C	1.490566	0.197206	0.499979
C55	C	1.028436	-0.418384	0.072715
C56	C	1.528436	0.081616	0.572715
C57	C	0.987641	-0.467703	-0.000007
C58	C	1.487641	0.032297	0.499993
C59	C	0.949791	-0.352127	-0.072837
C60	C	1.449791	0.147873	0.427163
C61	C	0.949752	-0.352092	0.072716
C62	C	1.449752	0.147908	0.572716
C63	C	0.908898	-0.402620	-0.000058
C64	C	1.408898	0.097380	0.499942
C65	C	0.992253	-0.207795	-0.000030
C66	C	1.492253	0.292205	0.499970
C67	C	0.985947	-0.562700	-0.000004
C68	C	1.485947	-0.062700	0.499996
C69	C	1.142189	0.108584	-0.000015
C70	C	1.642189	0.608584	0.499985
C71	C	1.235142	0.110222	-0.000022
C72	C	1.735142	0.610222	0.499978
C73	C	0.982966	0.268323	-0.000000
C74	C	1.482966	0.768323	0.500000
C75	C	0.984603	0.361572	0.000005
C76	C	1.484603	0.861572	0.500005
N77	N	0.989059	0.114759	0.229891
N78	N	1.489059	0.614759	0.729891
N79	N	0.989152	0.114731	-0.229910
N80	N	1.489152	0.614731	0.270090
C81	C	0.989121	0.114741	0.589092
C82	C	1.489121	0.614741	1.089092
C83	C	0.920093	0.183530	0.551491
C84	C	1.420093	0.683530	1.051491
C85	C	0.920251	0.183781	0.448665
C86	C	1.420251	0.683781	0.948665
C87	C	0.989089	0.114750	0.410888
C88	C	1.489089	0.614750	0.910888
C89	C	1.076454	0.133875	0.448179
C90	C	1.576454	0.633875	0.948179
C91	C	1.076067	0.134364	0.551037
C92	C	1.576067	0.634364	1.051037
C93	C	0.971565	0.026623	0.551188
C94	C	1.471565	0.526623	1.051188
C95	C	0.969560	0.027211	0.448324
C96	C	1.469560	0.527211	0.948324
C97	C	0.989077	0.114754	0.310175
C98	C	1.489077	0.614754	0.810175
C99	C	0.989139	0.114739	0.689806
C100	C	1.489139	0.614739	1.189806
H101	H	0.400634	0.242240	-0.060767
H102	H	0.900634	0.742240	0.439233
N103	N	0.549661	0.256709	0.080143
N104	N	1.049661	0.756709	0.580143
H105	H	0.497569	0.277052	0.115396
H106	H	0.997569	0.777052	0.615396
H107	H	0.589573	0.218753	0.118476
H108	H	1.089573	0.718753	0.618476
H109	H	0.399585	0.242047	0.059753
H110	H	0.899585	0.742047	0.559753
N111	N	1.072536	-0.456785	-0.154246
N112	N	1.572536	0.043215	0.345754
H113	H	1.031665	-0.486270	-0.190688
H114	H	1.531665	0.013730	0.309312
H115	H	1.094145	-0.410784	-0.190885
H116	H	1.594145	0.089216	0.309115
N117	N	1.159093	-0.347170	-0.000119
N118	N	1.659093	0.152830	0.499881
H119	H	1.159585	-0.283886	0.000441
H120	H	1.659585	0.216114	0.500441
H121	H	1.189075	-0.372386	0.054269
H122	H	1.689075	0.127614	0.554269
N123	N	0.411421	0.111281	0.167754
N124	N	0.911421	0.611281	0.667754
H125	H	0.458646	0.130656	0.204145
H126	H	0.958646	0.630656	0.704145
H127	H	0.370177	0.161611	0.151357
H128	H	0.870177	0.661611	0.651357
H129	H	1.092297	0.197405	0.422414
H130	H	1.592297	0.697405	0.922414
N131	N	0.905753	-0.313693	0.154196
N132	N	1.405753	0.186307	0.654196
H133	H	0.856310	-0.272324	0.135662
H134	H	1.356310	0.227676	0.635662
H135	H	0.885172	-0.359808	0.191492
H136	H	1.385172	0.140192	0.691492
H137	H	1.091540	0.198626	0.575022
H138	H	1.591540	0.698626	1.075022
N139	N	0.428642	-0.024105	-0.084256
N140	N	0.928642	0.475895	0.415744
H141	H	0.365784	-0.026033	-0.086561
H142	H	0.865784	0.473967	0.413439
H143	H	0.455727	-0.053663	-0.138029
H144	H	0.955727	0.446337	0.361971
N145	N	0.888995	0.002275	0.585583
N146	N	1.388995	0.502275	1.085583
H147	H	0.850151	-0.005140	0.534055
H148	H	1.350151	0.494860	1.034055
H149	H	0.899450	-0.052448	0.619660
H150	H	1.399450	0.447552	1.119660
N151	N	0.427706	-0.021837	0.089378
N152	N	0.927706	0.478163	0.589378
H153	H	0.482066	-0.060790	0.091561
H154	H	0.982066	0.439210	0.591561
H155	H	0.393723	-0.029794	0.144609
H156	H	0.893723	0.470206	0.644609
H157	H	0.418840	0.095767	-0.147358
H158	H	0.918840	0.595767	0.352642
H159	H	0.575645	0.002086	0.087377
H160	H	1.075645	0.502086	0.587377
N161	N	0.905795	-0.313954	-0.154402
N162	N	1.405795	0.186046	0.345598
H163	H	0.907211	-0.250788	-0.153916
H164	H	1.407211	0.249212	0.346084
H165	H	0.935322	-0.338749	-0.209248
H166	H	1.435322	0.161251	0.290752
H167	H	1.129047	0.085104	0.423706
H168	H	1.629047	0.585104	0.923706
N169	N	0.884404	0.008009	0.416105
N170	N	1.384404	0.508009	0.916105
H171	H	0.858581	0.055805	0.377412
H172	H	1.358581	0.555805	0.877412
H173	H	0.891085	-0.046104	0.380671
H174	H	1.391085	0.453896	0.880671
H175	H	0.563807	0.102027	0.146962
H176	H	1.063807	0.602027	0.646962
N177	N	0.568271	0.114990	-0.167179
N178	N	1.068271	0.614990	0.332821
H179	H	0.598235	0.164986	-0.149876
H180	H	1.098235	0.664986	0.350124
H181	H	0.606923	0.074792	-0.204554
H182	H	1.106923	0.574792	0.295446
H183	H	0.576631	0.003054	-0.089698
H184	H	1.076631	0.503054	0.410302
N185	N	0.819030	-0.423127	-0.000124
N186	N	1.319030	0.076873	0.499876
H187	H	0.789424	-0.398796	-0.055111
H188	H	1.289424	0.101204	0.444889
H189	H	0.818502	-0.486405	0.000425
H190	H	1.318502	0.013595	0.500425
H191	H	1.061682	-0.447321	0.134220
H192	H	1.561682	0.052679	0.634220
H193	H	1.016572	-0.026375	0.422612
H194	H	1.516572	0.473625	0.922612
N195	N	1.038240	-0.041189	0.583390
N196	N	1.538240	0.458811	1.083390
H197	H	1.079624	-0.015006	0.622341
H198	H	1.579624	0.484994	1.122341
H199	H	1.010838	-0.084554	0.618558
H200	H	1.510838	0.415446	1.118558
N201	N	0.834233	0.168695	0.415261
N202	N	1.334233	0.668695	0.915261
H203	H	0.795870	0.161823	0.467355
H204	H	1.295870	0.661823	0.967355
H205	H	0.810165	0.218398	0.378143
H206	H	1.310165	0.718398	0.878143
N207	N	0.833790	0.168699	0.584289
N208	N	1.333790	0.668699	1.084289
H209	H	0.838597	0.117248	0.623843
H210	H	1.338597	0.617248	1.123843
H211	H	0.808531	0.219587	0.618963
H212	H	1.308531	0.719587	1.118963
H213	H	0.931460	0.249172	0.424055
H214	H	1.431460	0.749172	0.924055
N215	N	0.550519	0.256401	-0.080012
N216	N	1.050519	0.756401	0.419988
H217	H	0.498791	0.276722	-0.115817
H218	H	0.998791	0.776722	0.384183
H219	H	0.578962	0.306486	-0.059817
H220	H	1.078962	0.806486	0.440183
N221	N	0.934756	0.269670	0.585675
N222	N	1.434756	0.769670	1.085675
H223	H	0.985916	0.264327	0.625417
H224	H	1.485916	0.764327	1.125417
H225	H	0.944191	0.307742	0.533946
H226	H	1.444191	0.807742	1.033946
H227	H	1.129037	0.086235	0.575908
H228	H	1.629037	0.586235	1.075908
