data_functionalizedCrystal
_audit_creation_method	'MofGen! by Chris Wilmer'
_symmetry_space_group_name_H-M	'P1'
_symmetry_Int_Tables_number	1
_symmetry_cell_setting	triclinic
loop_
_symmetry_equiv_pos_as_xyz
  x,y,z
_cell_length_a	17.699083
_cell_length_b	26.210047
_cell_length_c	17.699083
_cell_angle_alpha	89.996398
_cell_angle_beta	83.283015
_cell_angle_gamma	90.002990
loop_
_atom_site_label
_atom_site_type_symbol
_atom_site_fract_x
_atom_site_fract_y
_atom_site_fract_z
O1	O	1.004082	0.042358	0.095700
O2	O	1.504082	0.542358	0.595700
O3	O	0.783704	0.042375	0.108153
O4	O	1.283704	0.542375	0.608153
O5	O	0.900119	0.042362	-0.008263
O6	O	1.400119	0.542362	0.491737
O7	O	0.887667	0.042372	0.212116
O8	O	1.387667	0.542372	0.712116
O9	O	0.900097	-0.042496	-0.008244
O10	O	1.400097	0.457504	0.491756
O11	O	0.783681	-0.042483	0.108171
O12	O	1.283681	0.457517	0.608171
O13	O	1.004060	-0.042500	0.095719
O14	O	1.504060	0.457500	0.595719
Cu15	Cu	0.893868	-0.050239	0.101946
Cu16	Cu	1.393868	0.449761	0.601946
Cu17	Cu	0.893895	0.050115	0.101925
Cu18	Cu	1.393895	0.550115	0.601925
O19	O	0.887644	-0.042486	0.212134
O20	O	1.387644	0.457514	0.712134
C21	C	0.755495	-0.000052	0.107716
C22	C	1.255495	0.499948	0.607716
C23	C	0.671477	-0.000045	0.106377
C24	C	1.171477	0.499955	0.606377
N25	N	0.893855	-0.120823	0.101961
N26	N	1.393855	0.379177	0.601961
C27	C	0.622856	-0.000042	0.174711
C28	C	1.122856	0.499958	0.674711
C29	C	0.543913	-0.000049	0.173448
C30	C	1.043913	0.499951	0.673448
C31	C	0.513592	-0.000055	0.103852
C32	C	1.013592	0.499945	0.603852
C33	C	0.562219	-0.000059	0.035513
C34	C	1.062219	0.499941	0.535513
C35	C	0.641161	-0.000056	0.036776
C36	C	1.141161	0.499944	0.536776
C37	C	0.243856	-0.000072	0.030418
C38	C	0.743856	0.499928	0.530418
C39	C	0.164908	-0.000074	0.029160
C40	C	0.664908	0.499926	0.529160
C41	C	0.146608	-0.000065	0.167090
C42	C	0.646608	0.499935	0.667090
C43	C	0.225550	-0.000062	0.168353
C44	C	0.725550	0.499938	0.668353
C45	C	0.274170	-0.000069	0.100015
C46	C	0.774170	0.499931	0.600015
C47	C	0.359769	-0.000063	0.101384
C48	C	0.859769	0.499937	0.601384
C49	C	0.427995	-0.000058	0.102481
C50	C	0.927995	0.499942	0.602481
C51	C	0.945438	-0.473343	0.050388
C52	C	1.445438	0.026657	0.550388
C53	C	0.945455	-0.687002	0.050377
C54	C	1.445455	-0.187002	0.550377
O55	O	0.989284	-0.714629	0.006531
O56	O	1.489284	-0.214629	0.506531
N57	N	0.893899	-0.713717	0.101908
N58	N	1.393899	-0.213717	0.601908
C59	C	0.842332	-0.687015	0.153442
C60	C	1.342332	-0.187015	0.653442
O61	O	0.798475	-0.714640	0.197267
O62	O	1.298475	-0.214640	0.697267
C63	C	0.842312	-0.473357	0.153449
C64	C	1.342312	0.026643	0.653449
C65	C	0.893877	-0.446644	0.101919
C66	C	1.393877	0.053356	0.601919
C67	C	0.996998	-0.446631	-0.001138
C68	C	1.496998	0.053369	0.498862
C69	C	0.996996	-0.393219	-0.001132
C70	C	1.496996	0.106781	0.498868
C71	C	0.945434	-0.366520	0.050400
C72	C	1.445434	0.133480	0.550400
C73	C	0.893875	-0.393233	0.101925
C74	C	1.393875	0.106767	0.601925
C75	C	0.790742	-0.446655	0.204978
C76	C	1.290742	0.053345	0.704978
C77	C	0.790740	-0.393238	0.204974
C78	C	1.290740	0.106762	0.704974
C79	C	0.842305	-0.366525	0.153445
C80	C	1.342305	0.133475	0.653445
C81	C	0.842311	-0.313123	0.153463
C82	C	1.342311	0.186877	0.653463
N83	N	0.893867	-0.286407	0.101932
N84	N	1.393867	0.213593	0.601932
C85	C	0.945429	-0.313106	0.050400
C86	C	1.445429	0.186894	0.550400
C87	C	0.842347	-0.799188	0.153436
C88	C	1.342347	-0.299188	0.653436
C89	C	0.842352	-0.852602	0.153436
C90	C	1.342352	-0.352602	0.653436
C91	C	0.945475	-0.852586	0.050370
C92	C	1.445475	-0.352586	0.550370
C93	C	0.945472	-0.799171	0.050374
C94	C	1.445472	-0.299171	0.550374
C95	C	0.893903	-0.772473	0.101905
C96	C	1.393903	-0.272473	0.601905
C97	C	0.945421	-0.200938	0.050417
C98	C	1.445421	0.299062	0.550417
C99	C	0.945417	-0.147522	0.050429
C100	C	1.445417	0.352478	0.550429
C101	C	0.842292	-0.147543	0.153493
C102	C	1.342292	0.352457	0.653493
C103	C	0.842299	-0.200955	0.153483
C104	C	1.342299	0.299045	0.653483
C105	C	0.893866	-0.227651	0.101939
C106	C	1.393866	0.272349	0.601939
O107	O	0.798499	-0.285463	0.197280
O108	O	1.298499	0.214537	0.697280
O109	O	0.989268	-0.285471	0.006571
O110	O	1.489268	0.214529	0.506571
C111	C	0.945440	-0.526755	0.050382
C112	C	1.445440	-0.026755	0.550382
C113	C	0.893880	-0.553467	0.101908
C114	C	1.393880	-0.053467	0.601908
C115	C	0.842319	-0.526769	0.153439
C116	C	1.342319	-0.026769	0.653439
C117	C	0.893886	-0.606881	0.101907
C118	C	1.393886	-0.106881	0.601907
C119	C	0.945448	-0.633580	0.050375
C120	C	1.445448	-0.133580	0.550375
C121	C	0.997004	-0.606865	-0.001156
C122	C	1.497004	-0.106865	0.498844
C123	C	0.997002	-0.553454	-0.001150
C124	C	1.497002	-0.053454	0.498850
C125	C	0.790763	-0.553484	0.204970
C126	C	1.290763	-0.053484	0.704970
C127	C	0.790769	-0.606895	0.204961
C128	C	1.290769	-0.106895	0.704961
C129	C	0.842331	-0.633594	0.153429
C130	C	1.342331	-0.133594	0.653429
C131	C	1.032268	-0.000072	0.096156
C132	C	1.532268	0.499928	0.596156
C133	C	1.116286	-0.000074	0.097494
C134	C	1.616286	0.499926	0.597494
C135	C	0.899662	-0.000067	-0.036451
C136	C	1.399662	0.499933	0.463549
C137	C	0.898323	-0.000067	-0.120469
C138	C	1.398323	0.499933	0.379531
N139	N	0.893914	0.120699	0.101904
N140	N	1.393914	0.620699	0.601904
C141	C	0.966656	-0.000073	-0.169090
C142	C	1.466656	0.499927	0.330910
C143	C	0.965394	-0.000069	-0.248033
C144	C	1.465394	0.499931	0.251967
C145	C	0.895798	-0.000062	-0.278354
C146	C	1.395798	0.499938	0.221646
C147	C	0.827459	-0.000054	-0.229727
C148	C	1.327459	0.499946	0.270273
C149	C	0.828722	-0.000055	-0.150785
C150	C	1.328722	0.499945	0.349215
C151	C	0.822364	-0.000050	-0.548090
C152	C	1.322364	0.499950	-0.048090
C153	C	0.821106	-0.000050	-0.627038
C154	C	1.321106	0.499950	-0.127038
C155	C	0.959036	-0.000063	-0.645338
C156	C	1.459036	0.499937	-0.145338
C157	C	0.960299	-0.000064	-0.566396
C158	C	1.460299	0.499936	-0.066396
C159	C	0.891961	-0.000054	-0.517776
C160	C	1.391961	0.499946	-0.017776
C161	C	0.893330	-0.000058	-0.432177
C162	C	1.393330	0.499942	0.067823
C163	C	0.894427	-0.000061	-0.363951
C164	C	1.394427	0.499939	0.136049
C165	C	0.888102	-0.000056	0.240322
C166	C	1.388102	0.499944	0.740322
C167	C	0.889440	-0.000053	0.324340
C168	C	1.389440	0.499947	0.824340
H169	H	0.504328	-0.000046	0.229092
H170	H	1.004328	0.499954	0.729092
H171	H	0.140225	-0.000079	-0.027517
H172	H	0.640225	0.499921	0.472483
H173	H	0.770792	-0.000045	-0.254420
H174	H	1.270792	0.499955	0.245580
O175	O	0.099269	-0.000085	0.233406
O176	O	0.599269	0.499915	0.733406
C177	C	0.023090	-0.000079	0.217374
C178	C	0.523090	0.499921	0.717374
H179	H	0.020171	-0.016150	0.157936
H180	H	0.520171	0.483850	0.657936
H181	H	-0.012755	-0.024712	0.260949
H182	H	0.487245	0.475288	0.760949
H183	H	0.000254	0.040631	0.220273
H184	H	0.500254	0.540631	0.720273
H185	H	0.987410	-0.125774	0.008468
H186	H	1.487410	0.374226	0.508468
O187	O	0.792137	-0.226827	0.203565
O188	O	1.292137	0.273173	0.703565
C189	C	0.746641	-0.191805	0.249063
C190	C	1.246641	0.308195	0.749063
H191	H	0.745856	-0.153725	0.218040
H192	H	1.245856	0.346275	0.718040
H193	H	0.686176	-0.207237	0.260673
H194	H	1.186176	0.292763	0.760673
H195	H	0.771101	-0.186135	0.305264
H196	H	1.271101	0.313865	0.805264
O197	O	1.047161	-0.632726	-0.051247
O198	O	1.547161	-0.132726	0.448753
C199	C	1.092658	-0.597701	-0.096749
C200	C	1.592658	-0.097701	0.403251
H201	H	1.093467	-0.559626	-0.065721
H202	H	1.593467	-0.059626	0.434279
H203	H	1.153117	-0.613137	-0.108380
H204	H	1.653117	-0.113137	0.391620
H205	H	1.068183	-0.592017	-0.152940
H206	H	1.568183	-0.092017	0.347060
H207	H	0.283434	-0.000079	-0.025228
H208	H	0.783434	0.499921	0.474772
H209	H	0.537526	-0.000072	-0.021154
H210	H	1.037526	0.499928	0.478846
O211	O	1.025492	-0.000089	-0.692461
O212	O	1.525492	0.499911	-0.192461
C213	C	1.087188	-0.000084	-0.648770
C214	C	1.587188	0.499916	-0.148770
H215	H	1.067862	-0.016150	-0.589814
H216	H	1.567862	0.483850	-0.089814
H217	H	1.135052	-0.024724	-0.677977
H218	H	1.635052	0.475276	-0.177977
H219	H	1.108540	0.040624	-0.643188
H220	H	1.608540	0.540624	-0.143188
H221	H	1.038991	-0.531708	-0.043110
H222	H	1.538991	-0.031708	0.456890
O223	O	0.254909	0.000013	0.236008
O224	O	0.754909	0.500013	0.736008
C225	C	0.230064	0.043969	0.277636
C226	C	0.730064	0.543969	0.777636
H227	H	0.175352	0.058618	0.257102
H228	H	0.675352	0.558618	0.757102
H229	H	0.218985	0.034088	0.340687
H230	H	0.718985	0.534088	0.840687
H231	H	0.275763	0.074745	0.268783
H232	H	0.775763	0.574745	0.768783
O233	O	0.792309	-0.121546	0.203577
O234	O	1.292309	0.378454	0.703577
C235	C	0.832746	-0.090657	0.250234
C236	C	1.332746	0.409343	0.750234
H237	H	0.892029	-0.082655	0.220022
H238	H	1.392029	0.417345	0.720022
H239	H	0.801136	-0.053096	0.262237
H240	H	1.301136	0.446904	0.762237
H241	H	0.837772	-0.111240	0.306172
H242	H	1.337772	0.388760	0.806172
H243	H	0.800351	-0.777454	0.195401
H244	H	1.300351	-0.277454	0.695401
H245	H	1.038982	-0.371473	-0.043093
H246	H	1.538982	0.128527	0.456907
H247	H	0.987411	-0.222668	0.008444
H248	H	1.487411	0.277332	0.508444
H249	H	0.680748	-0.000059	-0.018868
H250	H	1.180748	0.499941	0.481132
H251	H	0.773078	-0.000050	-0.111198
H252	H	1.273078	0.499950	0.388802
H253	H	0.748781	-0.628641	0.246928
H254	H	1.248781	-0.128641	0.746928
H255	H	1.038986	-0.468364	-0.043104
H256	H	1.538986	0.031636	0.456896
O257	O	1.034245	-0.000170	-0.139604
O258	O	1.534245	0.499830	0.360396
C259	C	1.039088	-0.044112	-0.094469
C260	C	1.539088	0.455888	0.405531
H261	H	0.999564	-0.074828	-0.113059
H262	H	1.499564	0.425172	0.386941
H263	H	1.100096	-0.058867	-0.101670
H264	H	1.600096	0.441133	0.398330
H265	H	1.021522	-0.034175	-0.032182
H266	H	1.521522	0.465825	0.467818
O267	O	0.753430	-0.000017	-0.656366
O268	O	1.253430	0.499983	-0.156366
C269	C	0.693382	-0.000019	-0.596526
C270	C	1.193382	0.499981	-0.096526
H271	H	0.714503	0.016044	-0.542937
H272	H	1.214503	0.516044	-0.042937
H273	H	0.644796	0.024625	-0.612942
H274	H	1.144796	0.524625	-0.112942
H275	H	0.672292	-0.040726	-0.585311
H276	H	1.172292	0.459274	-0.085311
O277	O	0.995586	-0.773303	0.000243
O278	O	1.495586	-0.273303	0.500243
C279	C	1.041108	-0.808329	-0.045221
C280	C	1.541108	-0.308329	0.454779
H281	H	1.010082	-0.846406	-0.046032
H282	H	1.510082	-0.346406	0.453968
H283	H	1.052769	-0.792897	-0.105683
H284	H	1.552769	-0.292897	0.394317
H285	H	1.097283	-0.814006	-0.020715
H286	H	1.597283	-0.314006	0.479285
H287	H	0.748743	-0.371503	0.246936
H288	H	1.248743	0.128497	0.746936
H289	H	1.016971	-0.000072	-0.541714
H290	H	1.516971	0.499928	-0.041714
O291	O	0.792195	-0.878469	0.203525
O292	O	1.292195	-0.378469	0.703525
C293	C	0.746699	-0.843443	0.249016
C294	C	1.246699	-0.343443	0.749016
H295	H	0.745906	-0.805367	0.217982
H296	H	1.245906	-0.305367	0.717982
H297	H	0.686236	-0.858877	0.260638
H298	H	1.186236	-0.358877	0.760638
H299	H	0.771165	-0.837762	0.305211
H300	H	1.271165	-0.337762	0.805211
O301	O	0.740576	-0.472516	0.255062
O302	O	1.240576	0.027484	0.755062
C303	C	0.695083	-0.437487	0.300547
C304	C	1.195083	0.062513	0.800547
H305	H	0.694297	-0.399412	0.269510
H306	H	1.194297	0.100588	0.769510
H307	H	0.634617	-0.452917	0.312166
H308	H	1.134617	0.047083	0.812166
H309	H	0.719545	-0.431806	0.356744
H310	H	1.219545	0.068194	0.856744
O311	O	0.740647	-0.527632	0.255106
O312	O	1.240647	-0.027632	0.755106
C313	C	0.695135	-0.562671	0.300568
C314	C	1.195135	-0.062671	0.800568
H315	H	0.726170	-0.600744	0.301370
H316	H	1.226170	-0.100744	0.801370
H317	H	0.683476	-0.547250	0.361033
H318	H	1.183476	-0.047250	0.861033
H319	H	0.638958	-0.568353	0.276065
H320	H	1.138958	-0.068353	0.776065
H321	H	0.987460	-0.874333	0.008412
H322	H	1.487460	-0.374333	0.508412
H323	H	0.647537	-0.000037	0.231384
H324	H	1.147537	0.499963	0.731384
H325	H	1.021038	-0.000075	-0.287617
H326	H	1.521038	0.499925	0.212383
O327	O	0.756001	0.000047	-0.500839
O328	O	1.256001	0.500047	-0.000839
C329	C	0.752618	0.043991	-0.454622
C330	C	1.252618	0.543991	0.045378
H331	H	0.791386	0.074705	-0.483605
H332	H	1.291386	0.574705	0.016395
H333	H	0.691639	0.058748	-0.445642
H334	H	1.191639	0.558748	0.054358
H335	H	0.772092	0.034054	-0.397247
H336	H	1.272092	0.534054	0.102753
