data_functionalizedCrystal
_audit_creation_method	'MofGen! by Chris Wilmer'
_symmetry_space_group_name_H-M	'P1'
_symmetry_Int_Tables_number	1
_symmetry_cell_setting	triclinic
loop_
_symmetry_equiv_pos_as_xyz
  x,y,z
_cell_length_a	18.050591
_cell_length_b	19.121063
_cell_length_c	18.050583
_cell_angle_alpha	87.594704
_cell_angle_beta	90.024235
_cell_angle_gamma	92.465257
loop_
_atom_site_label
_atom_site_type_symbol
_atom_site_fract_x
_atom_site_fract_y
_atom_site_fract_z
Zn1	Zn	1.122704	-0.279663	0.432627
Zn2	Zn	1.117311	-0.397127	0.313727
Zn3	Zn	0.998515	-0.279686	0.308439
Zn4	Zn	0.993177	-0.397069	0.437860
O5	O	1.057927	-0.338386	0.373163
O6	O	1.225913	-0.295259	0.416877
O7	O	1.101529	-0.381582	0.209102
O8	O	1.019481	-0.181399	0.320509
O9	O	1.221950	-0.381559	0.329522
O10	O	1.110722	-0.181382	0.411750
O11	O	1.014251	-0.295299	0.205217
O12	O	0.893883	-0.295243	0.325584
O13	O	1.010382	-0.381461	0.541089
O14	O	0.889961	-0.381484	0.420669
O15	O	1.105546	-0.295204	0.537244
O16	O	1.096352	-0.495403	0.334596
O17	O	1.005152	-0.495361	0.425796
C18	C	0.864976	-0.338360	0.373121
C19	C	0.782430	-0.338366	0.373121
C20	C	1.049608	-0.520866	0.381354
C21	C	1.046117	-0.598931	0.384883
C22	C	0.585093	-0.291414	0.321526
C23	C	0.532783	-0.355476	0.306135
C24	C	0.631299	-0.338387	0.373155
C25	C	0.536526	-0.274347	0.388545
C26	C	0.485313	-0.338402	0.373187
C27	C	0.580074	-0.402483	0.357731
C28	C	0.583823	-0.321311	0.440171
C29	C	0.531534	-0.385418	0.424808
C30	C	0.715397	-0.338378	0.373135
C31	C	0.401215	-0.338419	0.373208
C32	C	1.091997	-0.635605	0.339098
C33	C	1.088718	-0.708956	0.342421
C34	C	1.039555	-0.745632	0.391527
C35	C	0.993673	-0.708953	0.437318
C36	C	0.996956	-0.635603	0.433997
C37	C	1.027268	-0.967100	0.403929
C38	C	1.023986	-1.040455	0.407244
C39	C	1.119033	-1.040453	0.312348
C40	C	1.122308	-0.967102	0.309029
C41	C	1.076429	-0.930430	0.354823
C42	C	1.036200	-0.820608	0.394924
C43	C	1.079788	-0.855455	0.351429
C44	C	1.251631	-0.338413	0.373206
C45	C	1.334176	-0.338425	0.373224
C46	C	1.057970	-0.338324	0.566866
C47	C	1.057988	-0.338297	0.649410
C48	C	1.066299	-0.155194	0.364956
C49	C	1.069866	-0.077129	0.361459
C50	C	1.057929	-0.338398	0.180211
C51	C	1.058063	-0.338227	0.097658
C52	C	1.109787	-0.291342	0.896143
C53	C	1.125018	-0.355429	0.849617
C54	C	1.058038	-0.338252	0.946529
C55	C	1.042817	-0.274191	0.845974
C56	C	1.058016	-0.338271	0.800545
C57	C	1.073304	-0.402372	0.901092
C58	C	0.991073	-0.321092	0.897451
C59	C	1.006276	-0.385222	0.850949
C60	C	1.058053	-0.338241	1.030627
C61	C	1.058000	-0.338290	0.716449
H62	H	0.510390	-0.369931	0.249475
H63	H	1.156386	-1.070320	0.275067
H64	H	0.996170	-0.850478	0.434904
C65	C	1.090828	-0.475579	0.933541
C66	C	1.105069	-0.535275	0.881373
C67	C	1.122620	-0.608473	0.913823
C68	C	1.125931	-0.621976	0.998442
C69	C	1.111689	-0.562278	1.050615
C70	C	1.094138	-0.489080	1.018165
H71	H	1.102619	-0.525281	0.818728
H72	H	1.133163	-0.652665	0.875200
H73	H	1.138923	-0.676161	1.022463
H74	H	1.114140	-0.572272	1.113260
H75	H	1.083596	-0.444888	1.056788
H76	H	0.608538	-0.251733	0.277820
H77	H	0.989910	-0.937247	0.441214
C78	C	0.500030	-0.439146	0.483814
C79	C	0.521071	-0.432060	0.565926
C80	C	0.489566	-0.485789	0.624929
C81	C	0.437019	-0.546604	0.601820
C82	C	0.415975	-0.553693	0.519705
C83	C	0.447480	-0.499964	0.460702
H84	H	0.559972	-0.387038	0.583036
H85	H	0.505144	-0.480541	0.685717
H86	H	0.413696	-0.586378	0.645498
H87	H	0.377074	-0.598715	0.502594
H88	H	0.431902	-0.505212	0.399914
C89	C	1.139183	-0.749302	0.292056
C90	C	1.195217	-0.799661	0.326576
C91	C	1.245685	-0.840008	0.276211
C92	C	1.240117	-0.829997	0.191325
C93	C	1.184081	-0.779637	0.156800
C94	C	1.133613	-0.739289	0.207166
H95	H	1.199341	-0.807073	0.389418
H96	H	1.287167	-0.877289	0.301768
H97	H	1.277476	-0.859865	0.154041
H98	H	1.179957	-0.772224	0.093959
H99	H	1.092131	-0.702009	0.181608
C100	C	1.146079	-0.595266	0.285080
C101	C	1.206624	-0.544775	0.315036
C102	C	1.260710	-0.504439	0.261019
C103	C	1.254251	-0.514593	0.177047
C104	C	1.193703	-0.565086	0.147087
C105	C	1.139617	-0.605423	0.201104
H106	H	1.211408	-0.537256	0.377201
H107	H	1.305532	-0.467060	0.283197
H108	H	1.294289	-0.484734	0.137060
H109	H	1.188919	-0.572605	0.084922
H110	H	1.094795	-0.642802	0.178925
C111	C	1.168954	-0.237809	0.923057
C112	C	1.251213	-0.245766	0.903921
C113	C	1.310381	-0.192237	0.930837
C114	C	1.287291	-0.130751	0.976888
C115	C	1.205029	-0.122791	0.996026
C116	C	1.145861	-0.176320	0.969111
H117	H	1.268308	-0.291284	0.869829
H118	H	1.371277	-0.198129	0.916669
H119	H	1.331092	-0.091125	0.996813
H120	H	1.187934	-0.077273	1.030119
H121	H	1.084965	-0.170427	0.983278
C122	C	0.605917	-0.475677	0.340070
C123	C	0.582949	-0.539590	0.390950
C124	C	0.608793	-0.612781	0.373286
C125	C	0.657606	-0.622059	0.304743
C126	C	0.680576	-0.558144	0.253858
C127	C	0.654732	-0.484953	0.271521
H128	H	0.546813	-0.532724	0.441694
H129	H	0.591789	-0.660095	0.410955
H130	H	0.676737	-0.676239	0.291667
H131	H	0.716713	-0.565010	0.203114
H132	H	0.671736	-0.437639	0.233853
H133	H	0.962503	-0.424946	0.831176
H134	H	0.606235	-0.306837	0.496813
C135	C	0.510553	-0.201177	0.406120
C136	C	0.532905	-0.137383	0.354818
C137	C	0.506934	-0.064212	0.372385
C138	C	0.458612	-0.054835	0.441254
C139	C	0.436257	-0.118630	0.492560
C140	C	0.462227	-0.191801	0.474993
H141	H	0.568678	-0.144323	0.303834
H142	H	0.523483	-0.016986	0.334405
H143	H	0.439387	-0.000669	0.454258
H144	H	0.400483	-0.111690	0.543544
H145	H	0.445679	-0.239027	0.512973
C146	C	0.939591	-0.749292	0.491336
C147	C	0.946057	-0.739141	0.575309
C148	C	0.891972	-0.779477	0.629327
C149	C	0.831422	-0.829964	0.599373
C150	C	0.824954	-0.840117	0.515396
C151	C	0.879039	-0.799781	0.461378
H152	H	0.990882	-0.701765	0.597486
H153	H	0.896761	-0.771961	0.691492
H154	H	0.791385	-0.859823	0.639361
H155	H	0.780129	-0.877493	0.493219
H156	H	0.874250	-0.807297	0.399213
H157	H	1.181640	-0.369955	0.828579
H158	H	1.162341	-0.937243	0.269043
C159	C	0.969905	-1.080800	0.461266
C160	C	0.919439	-1.040463	0.511637
C161	C	0.865359	-1.080809	0.565653
C162	C	0.861744	-1.161490	0.569297
C163	C	0.912212	-1.201831	0.518924
C164	C	0.966292	-1.161486	0.464908
H165	H	0.922113	-0.980734	0.508941
H166	H	0.828000	-1.050945	0.602943
H167	H	0.821711	-1.191356	0.609283
H168	H	0.909538	-1.261561	0.521620
H169	H	1.003651	-1.191349	0.427618
H170	H	1.029952	-0.220009	0.821856
C171	C	0.946485	-0.595258	0.484359
C172	C	0.861608	-0.605403	0.478671
C173	C	0.811138	-0.565059	0.529037
C174	C	0.845545	-0.514568	0.585091
C175	C	0.930426	-0.504421	0.590781
C176	C	0.980896	-0.544765	0.540415
H177	H	0.836135	-0.642781	0.437175
H178	H	0.748304	-0.572571	0.524824
H179	H	0.808184	-0.484703	0.622374
H180	H	0.955900	-0.467043	0.632278
H181	H	1.043731	-0.537253	0.544628
C182	C	0.914606	-0.301442	0.925901
C183	C	0.883797	-0.229799	0.903248
C184	C	0.807331	-0.210140	0.931699
C185	C	0.761674	-0.262125	0.982804
C186	C	0.792482	-0.333772	1.005459
C187	C	0.868948	-0.353431	0.977008
H188	H	0.917596	-0.191313	0.865415
H189	H	0.784526	-0.157102	0.914928
H190	H	0.705069	-0.247572	1.003865
H191	H	0.758683	-0.372258	1.043292
H192	H	0.891753	-0.406470	0.993779
H193	H	1.119820	-0.825591	0.311450
