data_functionalizedCrystal
_audit_creation_method	'MofGen! by Chris Wilmer'
_symmetry_space_group_name_H-M	'P1'
_symmetry_Int_Tables_number	1
_symmetry_cell_setting	triclinic
loop_
_symmetry_equiv_pos_as_xyz
  x,y,z
_cell_length_a	19.188933
_cell_length_b	19.188930
_cell_length_c	18.266242
_cell_angle_alpha	89.989745
_cell_angle_beta	89.992475
_cell_angle_gamma	83.145175
loop_
_atom_site_label
_atom_site_type_symbol
_atom_site_fract_x
_atom_site_fract_y
_atom_site_fract_z
O1	O	0.926148	0.087174	-0.060865
O2	O	0.722837	0.098907	-0.060873
O3	O	0.830360	-0.008615	-0.060854
O4	O	0.818626	0.194696	-0.060883
O5	O	0.830342	-0.008618	0.060908
O6	O	0.722819	0.098904	0.060889
O7	O	0.926130	0.087171	0.060897
Zn8	Zn	0.824472	0.093037	0.080226
Zn9	Zn	0.824496	0.093041	-0.080201
O10	O	0.818607	0.194693	0.060879
C11	C	0.696817	0.098525	0.000008
C12	C	0.619313	0.097384	0.000005
C13	C	0.066067	0.089240	-0.066358
C14	C	0.138892	0.090308	-0.066361
C15	C	0.175299	0.090844	0.000011
C16	C	0.138878	0.090294	0.066391
C17	C	0.066056	0.089218	0.066392
N18	N	0.284311	0.132261	0.049409
N19	N	0.353489	0.133284	0.049403
C20	C	0.394707	0.094082	0.000012
N21	N	0.364134	0.053827	-0.049385
N22	N	0.294949	0.052807	-0.049382
C23	C	0.254262	0.092009	0.000017
C24	C	0.510084	0.095786	-0.066367
C25	C	0.582911	0.096849	-0.066368
C26	C	0.582894	0.096842	0.066386
C27	C	0.510071	0.095771	0.066385
C28	C	0.473669	0.095246	0.000006
C29	C	0.829971	-0.034628	0.000029
C30	C	0.828830	-0.112132	0.000035
C31	C	0.891921	-0.157056	0.000041
C32	C	0.890849	-0.229880	0.000029
C33	C	0.826683	-0.257777	0.000026
C34	C	0.763584	-0.212843	0.000016
C35	C	0.764658	-0.140021	0.000021
N36	N	0.777630	-0.365783	0.041462
N37	N	0.776614	-0.434962	0.041460
C38	C	0.823445	-0.477185	0.000011
N39	N	0.871340	-0.447618	-0.041425
N40	N	0.872358	-0.378434	-0.041419
C41	C	0.825512	-0.336739	0.000021
C42	C	0.885378	-0.601073	0.000004
C43	C	0.884304	-0.673898	-0.000013
C44	C	0.757037	-0.656860	-0.000019
C45	C	0.758113	-0.584037	-0.000010
C46	C	0.822286	-0.556148	0.000005
C47	C	0.952150	0.087553	0.000015
C48	C	1.029655	0.088694	0.000013
C49	C	0.818997	0.220705	-0.000006
C50	C	0.820137	0.298210	-0.000017
N51	N	0.824460	0.093034	0.189713
N52	N	0.824513	0.093038	-0.189688
C53	C	0.866669	0.135279	0.228011
C54	C	0.866681	0.135277	0.304656
C55	C	0.824471	0.093038	0.342999
C56	C	0.782259	0.050784	0.304692
C57	C	0.782254	0.050781	0.228049
N58	N	0.763323	0.091317	0.463350
N59	N	0.763329	0.091323	0.536158
C60	C	0.824484	0.093040	0.573922
N61	N	0.885633	0.094765	0.536127
N62	N	0.885625	0.094763	0.463312
C63	C	0.824472	0.093035	0.426106
C64	C	0.866710	0.135286	0.695327
C65	C	0.866723	0.135279	0.771973
C66	C	0.782294	0.050789	0.772009
C67	C	0.782287	0.050792	0.695364
C68	C	0.824494	0.093045	0.657028
H69	H	0.480423	0.095328	0.120432
Cl70	Cl	0.919784	0.188386	0.647130
H71	H	0.747926	0.016396	0.803227
H72	H	0.706738	-0.547459	-0.000010
Cl73	Cl	0.685337	-0.083543	0.000014
H74	H	0.901040	0.169682	0.196802
H75	H	0.901053	0.169681	0.335844
Cl76	Cl	0.729196	-0.002320	0.352895
H77	H	0.747881	0.016379	0.196867
H78	H	0.901099	0.169679	0.803154
H79	H	0.942227	-0.266463	0.000031
Cl80	Cl	0.729207	-0.002306	0.647215
H81	H	0.937631	-0.578365	0.000012
H82	H	0.711340	-0.235562	0.000012
Cl83	Cl	0.963626	-0.730375	-0.000010
H84	H	0.036434	0.088810	-0.120409
Cl85	Cl	0.676370	-0.691924	-0.000027
Cl86	Cl	0.184677	0.090997	-0.149806
H87	H	0.036409	0.088776	0.120441
Cl88	Cl	0.184646	0.090964	0.149830
H89	H	0.612557	0.097289	-0.120417
Cl90	Cl	0.628658	0.097504	0.149827
Cl91	Cl	0.464320	0.095121	-0.149813
H92	H	0.944175	-0.134354	0.000050
