data_functionalizedCrystal
_audit_creation_method	'MofGen! by Chris Wilmer'
_symmetry_space_group_name_H-M	'P1'
_symmetry_Int_Tables_number	1
_symmetry_cell_setting	triclinic
loop_
_symmetry_equiv_pos_as_xyz
  x,y,z
_cell_length_a	10.723024
_cell_length_b	17.699083
_cell_length_c	16.176319
_cell_angle_alpha	90.000050
_cell_angle_beta	90.002257
_cell_angle_gamma	96.124558
loop_
_atom_site_label
_atom_site_type_symbol
_atom_site_fract_x
_atom_site_fract_y
_atom_site_fract_z
O1	O	0.157791	-1.005073	0.068628
O2	O	0.178321	-0.784824	0.068655
O3	O	-0.013607	-0.900029	0.068638
O4	O	0.349720	-0.889868	0.068646
O5	O	-0.013607	-0.900015	-0.068855
O6	O	0.178321	-0.784810	-0.068838
O7	O	0.157791	-1.005059	-0.068865
Cu8	Cu	0.168056	-0.894934	-0.081406
Cu9	Cu	0.168056	-0.894950	0.081196
O10	O	0.349719	-0.889854	-0.068848
C11	C	0.177585	-0.756616	-0.000088
C12	C	0.175378	-0.672584	-0.000078
N13	N	0.168055	-0.894928	-0.195771
C14	C	-0.060094	-0.899283	-0.000107
C15	C	-0.198610	-0.897070	-0.000104
C16	C	-0.274698	-0.961533	-0.000111
C17	C	-0.417863	-0.959248	-0.000108
C18	C	0.396206	-0.890601	-0.000100
C19	C	0.534723	-0.892813	-0.000098
C20	C	0.158527	-1.033268	-0.000120
C21	C	0.160734	-1.117300	-0.000125
C22	C	0.288036	-0.624673	-0.000076
C23	C	0.285955	-0.545717	-0.000086
C24	C	0.171215	-0.514672	-0.000093
C25	C	0.058549	-0.562589	-0.000098
C26	C	0.060631	-0.641544	-0.000093
C27	C	0.050148	-0.244173	-0.000118
C28	C	0.048075	-0.165212	-0.000121
C29	C	0.275473	-0.148346	-0.000112
C30	C	0.277555	-0.227301	-0.000107
C31	C	0.164889	-0.275210	-0.000116
C32	C	0.167147	-0.360824	-0.000106
C33	C	0.168956	-0.429060	-0.000097
C34	C	0.243643	-0.941219	-0.239036
C35	C	0.243638	-0.941227	-0.325583
C36	C	0.168051	-0.894939	-0.368863
C37	C	0.092454	-0.848646	-0.325592
C38	C	0.092453	-0.848642	-0.239047
C39	C	0.092455	-0.848660	-0.674621
C40	C	0.092465	-0.848665	-0.761172
C41	C	0.243641	-0.941245	-0.761156
C42	C	0.243640	-0.941241	-0.674611
C43	C	0.168038	-0.894951	-0.631348
C44	C	0.168043	-0.894944	-0.537503
C45	C	0.168052	-0.894942	-0.462706
N46	N	0.168048	-0.894961	0.195561
H47	H	-0.233851	-1.018413	-0.000123
H48	H	-0.483241	-1.014433	-0.000117
F49	F	0.012010	-0.799397	-0.807233
F50	F	0.324100	-0.990514	-0.807207
H51	H	0.370988	-0.252572	-0.000098
F52	F	-0.063567	-0.529547	-0.000110
H53	H	0.305195	-0.978931	-0.639376
H54	H	-0.399906	-0.837625	-0.000098
H55	H	-0.239457	-0.840190	-0.000092
F56	F	0.410160	-0.657705	-0.000063
H57	H	0.030901	-0.810947	-0.203822
F58	F	-0.074054	-0.132174	-0.000128
F59	F	-0.059275	-0.692534	-0.000098
H60	H	0.377693	-0.506711	-0.000084
H61	H	0.367210	-0.109328	-0.000109
H62	H	-0.041591	-0.283172	-0.000126
F63	F	0.012005	-0.799384	-0.371657
H64	H	0.305203	-0.978908	-0.203803
F65	F	0.324091	-0.990496	-0.371625
F66	F	0.012032	-0.799371	-0.628588
