data_functionalizedCrystal
_audit_creation_method	'MofGen! by Chris Wilmer'
_symmetry_space_group_name_H-M	'P1'
_symmetry_Int_Tables_number	1
_symmetry_cell_setting	triclinic
loop_
_symmetry_equiv_pos_as_xyz
  x,y,z
_cell_length_a	13.339071
_cell_length_b	14.519709
_cell_length_c	13.596369
_cell_angle_alpha	89.986804
_cell_angle_beta	89.993110
_cell_angle_gamma	80.345289
loop_
_atom_site_label
_atom_site_type_symbol
_atom_site_fract_x
_atom_site_fract_y
_atom_site_fract_z
O1	O	1.343103	-0.462549	0.081883
O2	O	1.048466	-0.401837	0.081872
O3	O	1.203596	-0.299942	0.081850
O4	O	1.187973	-0.564444	0.081905
O5	O	1.203616	-0.299939	-0.081733
O6	O	1.048485	-0.401834	-0.081711
O7	O	1.343122	-0.462546	-0.081699
Zn8	Zn	1.195807	-0.432190	-0.107678
Zn9	Zn	1.195782	-0.432193	0.107850
O10	O	1.187992	-0.564441	-0.081678
C11	C	1.010768	-0.391580	0.000078
C12	C	0.898411	-0.361010	0.000072
C13	C	0.857540	-0.265681	0.000049
C14	C	0.751976	-0.236957	0.000048
C15	C	0.687271	-0.303559	0.000063
C16	C	0.728141	-0.398889	0.000079
C17	C	0.833716	-0.427617	0.000088
C18	C	0.663447	-0.465494	0.000102
C19	C	0.704317	-0.560824	0.000118
C20	C	0.809882	-0.589547	0.000126
C21	C	0.874587	-0.522945	0.000111
C22	C	0.557872	-0.436766	0.000093
C23	C	0.534048	-0.598702	0.000132
C24	C	0.639613	-0.627426	0.000132
C25	C	1.202878	-0.265395	0.000054
C26	C	1.200696	-0.162459	0.000039
C27	C	1.192663	0.214480	0.000012
C28	C	1.194894	0.109605	0.000019
C29	C	1.196679	0.026014	0.000025
C30	C	1.198911	-0.078868	0.000034
C31	C	1.380820	-0.472803	0.000096
C32	C	1.493177	-0.503373	0.000108
C33	C	1.188710	0.401012	0.000085
C34	C	1.190892	0.298076	0.000003
N35	N	1.195765	-0.432189	0.254942
N36	N	1.195831	-0.432188	-0.254770
C37	C	1.195769	-0.432191	0.343940
C38	C	1.195783	-0.432193	0.455591
C39	C	1.195801	-0.432191	0.544581
C40	C	1.195814	-0.432190	0.656240
H41	H	0.524606	-0.359148	0.000080
O42	O	0.920247	-0.200871	0.000086
C43	C	0.861543	-0.110570	0.000041
H44	H	0.782788	-0.113825	0.031002
H45	H	0.854000	-0.082616	-0.078443
C46	C	1.010720	-0.041296	0.026164
C47	C	0.913994	-0.045293	0.064197
H48	H	1.043075	-0.001028	0.065734
H49	H	1.050272	-0.102133	0.026190
H50	H	1.004421	-0.018004	-0.039239
H51	H	0.920295	-0.068596	0.129594
H52	H	0.874445	0.015542	0.064183
H53	H	0.601316	-0.280165	0.000062
O54	O	0.849456	-0.682178	0.000285
C55	C	0.816410	-0.724398	0.085030
H56	H	0.743147	-0.680509	0.113259
H57	H	0.877467	-0.729343	0.144359
C58	C	0.886780	-0.877027	0.024654
C59	C	0.796793	-0.823126	0.059320
H60	H	0.874684	-0.937930	0.008797
H61	H	0.909048	-0.848584	-0.032440
H62	H	0.937653	-0.881138	0.074100
H63	H	0.745927	-0.819006	0.009870
H64	H	0.774516	-0.851572	0.116404
O65	O	0.712232	-0.144371	0.000206
C66	C	0.651852	-0.122914	0.084912
H67	H	0.676896	-0.177520	0.144137
H68	H	0.568643	-0.122891	0.065759
C69	C	0.633707	0.041322	0.050567
C70	C	0.664473	-0.025741	0.123312
H71	H	0.641487	0.101265	0.074253
H72	H	0.674383	0.026867	-0.006503
H73	H	0.564368	0.041329	0.034613
H74	H	0.733813	-0.025756	0.139256
H75	H	0.623808	-0.011284	0.180386
O76	O	0.471060	-0.663284	0.000103
C77	C	0.369119	-0.617488	0.000115
H78	H	0.364946	-0.543984	-0.030877
H79	H	0.338586	-0.613168	0.078593
C80	C	0.309771	-0.762870	-0.025954
C81	C	0.304645	-0.672594	-0.064026
H82	H	0.269998	-0.796863	-0.065515
H83	H	0.378450	-0.793724	-0.025958
H84	H	0.284329	-0.759257	0.039444
H85	H	0.330098	-0.676207	-0.129418
H86	H	0.235968	-0.641741	-0.064035
H87	H	0.960547	-0.546328	0.000107
H88	H	0.672904	-0.705046	0.000146
