data_functionalizedCrystal
_audit_creation_method	'MofGen! by Chris Wilmer'
_symmetry_space_group_name_H-M	'P1'
_symmetry_Int_Tables_number	1
_symmetry_cell_setting	triclinic
loop_
_symmetry_equiv_pos_as_xyz
  x,y,z
_cell_length_a	17.038272
_cell_length_b	17.038272
_cell_length_c	13.596369
_cell_angle_alpha	89.993837
_cell_angle_beta	90.000447
_cell_angle_gamma	91.111556
loop_
_atom_site_label
_atom_site_type_symbol
_atom_site_fract_x
_atom_site_fract_y
_atom_site_fract_z
O1	O	1.048755	0.170538	-0.081669
O2	O	1.382089	0.503871	0.251664
O3	O	1.715422	0.837205	0.584997
O4	O	0.820944	0.167830	-0.081698
O5	O	1.154277	0.501164	0.251635
O6	O	1.487611	0.834497	0.584969
O7	O	0.933496	0.055278	-0.081676
O8	O	1.266829	0.388612	0.251657
O9	O	1.600162	0.721945	0.584991
O10	O	0.936204	0.283090	-0.081691
O11	O	1.269537	0.616423	0.251642
O12	O	1.602870	0.949757	0.584975
O13	O	0.933483	0.055271	0.081907
O14	O	1.266817	0.388605	0.415240
O15	O	1.600150	0.721938	0.748574
O16	O	0.820931	0.167823	0.081885
O17	O	1.154265	0.501156	0.415218
O18	O	1.487598	0.834490	0.748551
O19	O	1.048743	0.170531	0.081914
O20	O	1.382076	0.503864	0.415247
O21	O	1.715410	0.837198	0.748580
Zn22	Zn	0.934835	0.169176	0.107872
Zn23	Zn	1.268169	0.502509	0.441205
Zn24	Zn	1.601502	0.835843	0.774538
Zn25	Zn	0.934852	0.169185	-0.107656
Zn26	Zn	1.268185	0.502519	0.225677
Zn27	Zn	1.601518	0.835852	0.559011
O28	O	0.936191	0.283083	0.081892
O29	O	1.269525	0.616416	0.415225
O30	O	1.602858	0.949749	0.748558
C31	C	0.791645	0.165364	0.000090
C32	C	1.124978	0.498697	0.333423
C33	C	1.458312	0.832030	0.666756
C34	C	0.704361	0.158016	0.000079
C35	C	1.037695	0.491349	0.333412
C36	C	1.371028	0.824682	0.666746
C37	C	0.658752	0.225479	0.000075
C38	C	0.992086	0.558813	0.333408
C39	C	1.325419	0.892146	0.666742
C40	C	0.576740	0.218570	0.000089
C41	C	0.910074	0.551904	0.333422
C42	C	1.243407	0.885237	0.666756
C43	C	0.540339	0.144197	0.000100
C44	C	0.873672	0.477530	0.333433
C45	C	1.207006	0.810864	0.666767
C46	C	0.585954	0.076728	0.000107
C47	C	0.919288	0.410062	0.333440
C48	C	1.252621	0.743395	0.666773
C49	C	0.667965	0.083638	0.000100
C50	C	1.001298	0.416971	0.333433
C51	C	1.334631	0.750305	0.666766
C52	C	0.292951	0.119787	0.000128
C53	C	0.626285	0.453120	0.333461
C54	C	0.959618	0.786453	0.666794
C55	C	0.210935	0.112882	0.000132
C56	C	0.544268	0.446215	0.333465
C57	C	0.877601	0.779549	0.666799
C58	C	0.201726	0.254725	0.000116
C59	C	0.535060	0.588058	0.333450
C60	C	0.868393	0.921391	0.666783
C61	C	0.283739	0.261628	0.000103
C62	C	0.617072	0.594961	0.333437
C63	C	0.950405	0.928294	0.666770
C64	C	0.329347	0.194159	0.000115
C65	C	0.662680	0.527492	0.333449
C66	C	0.996013	0.860826	0.666782
C67	C	0.456510	0.137133	0.000111
C68	C	0.789843	0.470467	0.333444
C69	C	1.123177	0.803800	0.666778
C70	C	0.413174	0.201224	0.000111
C71	C	0.746508	0.534557	0.333444
C72	C	1.079841	0.867890	0.666778
C73	C	0.931027	0.025982	0.000115
C74	C	1.264360	0.359315	0.333448
C75	C	1.597693	0.692649	0.666782
C76	C	0.923679	-0.061301	0.000114
C77	C	1.257012	0.272032	0.333447
C78	C	1.590345	0.605365	0.666780
C79	C	0.991142	-0.106911	0.000123
C80	C	1.324476	0.226423	0.333457
C81	C	1.657809	0.559756	0.666790
C82	C	0.984233	-0.188923	0.000113
C83	C	1.317567	0.144411	0.333446
C84	C	1.650900	0.477744	0.666780
C85	C	0.909860	-0.225324	0.000100
C86	C	1.243193	0.108010	0.333434
C87	C	1.576527	0.441343	0.666767
C88	C	0.842391	-0.179708	0.000088
C89	C	1.175725	0.153625	0.333421
C90	C	1.509058	0.486958	0.666755
C91	C	0.849301	-0.097698	0.000091
C92	C	1.182634	0.235635	0.333424
C93	C	1.515968	0.568969	0.666758
C94	C	0.885449	-0.472712	0.000084
C95	C	1.218783	-0.139378	0.333417
C96	C	1.552116	0.193955	0.666750
C97	C	0.878545	-0.554728	0.000084
C98	C	1.211878	-0.221395	0.333417
C99	C	1.545211	0.111939	0.666750
C100	C	1.020387	-0.563937	0.000107
C101	C	1.353721	-0.230603	0.333440
C102	C	1.687054	0.102730	0.666774
C103	C	1.027291	-0.481924	0.000116
C104	C	1.360624	-0.148591	0.333449
C105	C	1.693957	0.184742	0.666783
C106	C	0.959822	-0.436316	0.000098
C107	C	1.293155	-0.102983	0.333432
C108	C	1.626489	0.230350	0.666765
C109	C	0.902796	-0.309153	0.000093
C110	C	1.236130	0.024180	0.333426
C111	C	1.569463	0.357514	0.666760
C112	C	0.966886	-0.352488	0.000099
C113	C	1.300220	-0.019155	0.333432
C114	C	1.633553	0.314178	0.666765
C115	C	1.078042	0.172997	0.000124
C116	C	1.411375	0.506331	0.333457
C117	C	1.744709	0.839664	0.666790
C118	C	1.165326	0.180346	0.000128
C119	C	1.498659	0.513679	0.333461
C120	C	1.831992	0.847012	0.666795
C121	C	0.938660	0.312379	0.000098
C122	C	1.271994	0.645712	0.333432
C123	C	1.605327	0.979046	0.666765
C124	C	0.946008	0.399663	0.000093
C125	C	1.279342	0.732996	0.333427
C126	C	1.612675	1.066329	0.666760
N127	N	0.934830	0.169169	0.254963
N128	N	1.268163	0.502503	0.588297
N129	N	1.601496	0.835836	0.921630
N130	N	0.934863	0.169186	-0.254748
N131	N	1.268196	0.502519	0.078586
N132	N	1.601530	0.835853	0.411919
C133	C	0.934851	0.169186	0.656254
C134	C	1.268184	0.502519	0.989588
C135	C	1.601517	0.835853	1.322921
C136	C	0.934843	0.169184	0.544603
C137	C	1.268176	0.502517	0.877936
C138	C	1.601509	0.835851	1.211270
C139	C	0.934841	0.169178	0.455612
C140	C	1.268174	0.502512	0.788946
C141	C	1.601507	0.835845	1.122279
C142	C	0.934832	0.169175	0.343954
C143	C	1.268165	0.502508	0.677287
C144	C	1.601499	0.835842	1.010621
H145	H	0.688384	0.286042	0.000066
H146	H	1.021717	0.619375	0.333399
H147	H	1.355050	0.952709	0.666732
Br148	Br	0.514844	0.310133	0.000081
Br149	Br	0.848178	0.643466	0.333414
Br150	Br	1.181511	0.976799	0.666747
Br151	Br	1.092082	-0.057517	0.000155
Br152	Br	1.425416	0.275816	0.333488
Br153	Br	1.758749	0.609149	0.666822
H154	H	1.027441	-0.322847	0.000087
H155	H	1.360774	0.010486	0.333421
H156	H	1.694107	0.343819	0.666754
Br157	Br	0.536554	-0.024208	0.000131
Br158	Br	0.869887	0.309125	0.333464
Br159	Br	1.203221	0.642458	0.666798
Br160	Br	0.729865	-0.007923	0.000113
Br161	Br	1.063198	0.325410	0.333447
Br162	Br	1.396531	0.658743	0.666780
H163	H	0.442816	0.261778	0.000108
H164	H	0.776149	0.595111	0.333441
H165	H	1.109482	0.928445	0.666774
Br166	Br	0.801863	-0.358561	0.000066
Br167	Br	1.135197	-0.025228	0.333400
Br168	Br	1.468530	0.308106	0.666733
Br169	Br	0.741455	-0.229109	0.000054
Br170	Br	1.074788	0.104225	0.333387
Br171	Br	1.408121	0.437558	0.666721
H172	H	0.164583	0.309653	0.000109
H173	H	0.497917	0.642987	0.333442
H174	H	0.831250	0.976320	0.666775
Br175	Br	0.333134	0.362567	0.000078
Br176	Br	0.666468	0.695900	0.333411
Br177	Br	0.999801	1.029233	0.666744
Br178	Br	0.161534	0.011940	0.000167
Br179	Br	0.494867	0.345273	0.333501
Br180	Br	0.828200	0.678607	0.666834
Br181	Br	1.111947	-0.625837	0.000131
Br182	Br	1.445280	-0.292504	0.333464
Br183	Br	1.778613	0.040830	0.666798
Br184	Br	1.075796	-0.250818	0.000126
Br185	Br	1.409129	0.082515	0.333459
Br186	Br	1.742462	0.415848	0.666793
H187	H	0.426863	0.076578	0.000148
H188	H	0.760196	0.409911	0.333481
H189	H	1.093530	0.743245	0.666814
H190	H	0.330076	0.064848	0.000138
H191	H	0.663409	0.398182	0.333472
H192	H	0.996742	0.731515	0.666805
Br193	Br	1.128229	-0.432528	0.000102
Br194	Br	1.461563	-0.099195	0.333435
Br195	Br	1.794896	0.234138	0.666769
H196	H	0.817978	-0.584363	0.000089
H197	H	1.151311	-0.251030	0.333422
H198	H	1.484645	0.082304	0.666756
H199	H	0.830511	-0.435587	0.000070
H200	H	1.163844	-0.102254	0.333403
H201	H	1.497178	0.231080	0.666736
H202	H	0.794365	-0.060564	0.000083
H203	H	1.127698	0.272770	0.333416
H204	H	1.461031	0.606103	0.666750
