data_functionalizedCrystal
_audit_creation_method	'MofGen! by Chris Wilmer'
_symmetry_space_group_name_H-M	'P1'
_symmetry_Int_Tables_number	1
_symmetry_cell_setting	triclinic
loop_
_symmetry_equiv_pos_as_xyz
  x,y,z
_cell_length_a	19.188930
_cell_length_b	19.188930
_cell_length_c	13.101039
_cell_angle_alpha	93.345801
_cell_angle_beta	86.639939
_cell_angle_gamma	83.144779
loop_
_atom_site_label
_atom_site_type_symbol
_atom_site_fract_x
_atom_site_fract_y
_atom_site_fract_z
O1	O	0.930013	0.083287	-0.085556
O2	O	1.180013	0.333287	0.164444
O3	O	1.430013	0.583287	0.414444
O4	O	1.680013	0.833287	0.664444
O5	O	0.726699	0.095024	-0.085488
O6	O	0.976699	0.345024	0.164512
O7	O	1.226699	0.595024	0.414512
O8	O	1.476699	0.845024	0.664512
O9	O	0.834222	-0.012499	-0.085504
O10	O	1.084222	0.237501	0.164496
O11	O	1.334222	0.487501	0.414496
O12	O	1.584222	0.737501	0.664496
O13	O	0.822489	0.190810	-0.085540
O14	O	1.072489	0.440810	0.164460
O15	O	1.322489	0.690810	0.414460
O16	O	1.572489	0.940810	0.664460
O17	O	0.826507	-0.004772	0.084927
O18	O	1.076507	0.245228	0.334927
O19	O	1.326507	0.495228	0.584927
O20	O	1.576507	0.745228	0.834927
O21	O	0.718984	0.102752	0.084943
O22	O	0.968984	0.352752	0.334943
O23	O	1.218984	0.602752	0.584943
O24	O	1.468984	0.852752	0.834943
O25	O	0.922298	0.091014	0.084875
O26	O	1.172298	0.341014	0.334875
O27	O	1.422298	0.591014	0.584875
O28	O	1.672298	0.841014	0.834875
Zn29	Zn	0.819416	0.098110	0.111969
Zn30	Zn	1.069416	0.348110	0.361969
Zn31	Zn	1.319416	0.598110	0.611969
Zn32	Zn	1.569416	0.848110	0.861969
Zn33	Zn	0.829581	0.087929	-0.112582
Zn34	Zn	1.079581	0.337929	0.137418
Zn35	Zn	1.329581	0.587929	0.387418
Zn36	Zn	1.579581	0.837929	0.637418
O37	O	0.814775	0.198538	0.084891
O38	O	1.064775	0.448538	0.334891
O39	O	1.314775	0.698538	0.584891
O40	O	1.564775	0.948538	0.834891
C41	C	0.696830	0.098508	-0.000263
C42	C	0.946830	0.348508	0.249737
C43	C	1.196830	0.598508	0.499737
C44	C	1.446830	0.848508	0.749737
C45	C	0.619324	0.097369	-0.000236
C46	C	0.869324	0.347369	0.249764
C47	C	1.119324	0.597369	0.499764
C48	C	1.369324	0.847369	0.749764
C49	C	0.574401	0.160458	-0.000263
C50	C	0.824401	0.410458	0.249737
C51	C	1.074401	0.660458	0.499737
C52	C	1.324401	0.910458	0.749737
C53	C	0.501578	0.159386	-0.000274
C54	C	0.751578	0.409386	0.249726
C55	C	1.001578	0.659386	0.499726
C56	C	1.251578	0.909386	0.749726
C57	C	0.473682	0.095220	-0.000279
C58	C	0.723682	0.345220	0.249721
C59	C	0.973682	0.595220	0.499721
C60	C	1.223682	0.845220	0.749721
C61	C	0.518614	0.032122	-0.000246
C62	C	0.768614	0.282122	0.249754
C63	C	1.018614	0.532122	0.499754
C64	C	1.268614	0.782122	0.749754
C65	C	0.591435	0.033197	-0.000224
C66	C	0.841435	0.283197	0.249776
C67	C	1.091435	0.533197	0.499776
C68	C	1.341435	0.783197	0.749776
N69	N	0.368329	0.043542	-0.058316
N70	N	0.618329	0.293542	0.191684
N71	N	0.868329	0.543542	0.441684
N72	N	1.118329	0.793542	0.691684
N73	N	0.299151	0.042525	-0.058339
N74	N	0.549151	0.292525	0.191661
N75	N	0.799151	0.542525	0.441661
N76	N	1.049151	0.792525	0.691661
C77	C	0.254276	0.091979	-0.000341
C78	C	0.504276	0.341979	0.249659
C79	C	0.754276	0.591979	0.499659
C80	C	1.004276	0.841979	0.749659
N81	N	0.281191	0.142498	0.057668
N82	N	0.531191	0.392498	0.307668
N83	N	0.781191	0.642498	0.557668
N84	N	1.031191	0.892498	0.807668
N85	N	0.350375	0.143516	0.057686
N86	N	0.600375	0.393516	0.307686
N87	N	0.850375	0.643516	0.557686
N88	N	1.100375	0.893516	0.807686
C89	C	0.394720	0.094048	-0.000301
C90	C	0.644720	0.344048	0.249699
C91	C	0.894720	0.594048	0.499699
C92	C	1.144720	0.844048	0.749699
C93	C	0.130389	0.153911	-0.000379
C94	C	0.380389	0.403911	0.249621
C95	C	0.630389	0.653911	0.499621
C96	C	0.880389	0.903911	0.749621
C97	C	0.057565	0.152836	-0.000383
C98	C	0.307565	0.402836	0.249617
C99	C	0.557565	0.652836	0.499617
C100	C	0.807565	0.902836	0.749617
C101	C	0.074603	0.025570	-0.000365
C102	C	0.324603	0.275570	0.249635
C103	C	0.574603	0.525570	0.499635
C104	C	0.824603	0.775570	0.749635
C105	C	0.147425	0.026647	-0.000350
C106	C	0.397425	0.276647	0.249650
C107	C	0.647425	0.526647	0.499650
C108	C	0.897425	0.776647	0.749650
C109	C	0.175314	0.090819	-0.000362
C110	C	0.425314	0.340819	0.249638
C111	C	0.675314	0.590819	0.499638
C112	C	0.925314	0.840819	0.749638
C113	C	0.829985	-0.034646	-0.000285
C114	C	1.079985	0.215354	0.249715
C115	C	1.329985	0.465354	0.499715
C116	C	1.579985	0.715354	0.749715
C117	C	0.828843	-0.112151	-0.000276
C118	C	1.078843	0.137849	0.249724
C119	C	1.328843	0.387849	0.499724
C120	C	1.578843	0.637849	0.749724
C121	C	0.891935	-0.157075	-0.000293
C122	C	1.141935	0.092925	0.249707
C123	C	1.391935	0.342925	0.499707
C124	C	1.641935	0.592925	0.749707
C125	C	0.890864	-0.229900	-0.000309
C126	C	1.140864	0.020100	0.249691
C127	C	1.390864	0.270100	0.499691
C128	C	1.640864	0.520100	0.749691
C129	C	0.826697	-0.257795	-0.000288
C130	C	1.076697	-0.007795	0.249712
C131	C	1.326697	0.242205	0.499712
C132	C	1.576697	0.492205	0.749712
C133	C	0.763597	-0.212861	-0.000277
C134	C	1.013597	0.037139	0.249723
C135	C	1.263597	0.287139	0.499723
C136	C	1.513597	0.537139	0.749723
C137	C	0.764671	-0.140039	-0.000271
C138	C	1.014671	0.109961	0.249729
C139	C	1.264671	0.359961	0.499729
C140	C	1.514671	0.609961	0.749729
N141	N	0.775024	-0.363170	0.057730
N142	N	1.025024	-0.113170	0.307730
N143	N	1.275024	0.136830	0.557730
N144	N	1.525024	0.386830	0.807730
N145	N	0.774008	-0.432349	0.057727
N146	N	1.024008	-0.182349	0.307727
N147	N	1.274008	0.067651	0.557727
N148	N	1.524008	0.317651	0.807727
C149	C	0.823460	-0.477205	-0.000307
C150	C	1.073460	-0.227205	0.249693
C151	C	1.323460	0.022795	0.499693
C152	C	1.573460	0.272795	0.749693
N153	N	0.873975	-0.450270	-0.058325
N154	N	1.123975	-0.200270	0.191675
N155	N	1.373975	0.049730	0.441675
N156	N	1.623975	0.299730	0.691675
N157	N	0.874992	-0.381085	-0.058317
N158	N	1.124992	-0.131085	0.191683
N159	N	1.374992	0.118915	0.441683
N160	N	1.624992	0.368915	0.691683
C161	C	0.825526	-0.336758	-0.000295
C162	C	1.075526	-0.086758	0.249705
C163	C	1.325526	0.163242	0.499705
C164	C	1.575526	0.413242	0.749705
C165	C	0.885395	-0.601095	-0.000343
C166	C	1.135395	-0.351095	0.249657
C167	C	1.385395	-0.101095	0.499657
C168	C	1.635395	0.148905	0.749657
C169	C	0.884321	-0.673921	-0.000365
C170	C	1.134321	-0.423921	0.249635
C171	C	1.384321	-0.173921	0.499635
C172	C	1.634321	0.076079	0.749635
C173	C	0.757052	-0.656880	-0.000323
C174	C	1.007052	-0.406880	0.249677
C175	C	1.257052	-0.156880	0.499677
C176	C	1.507052	0.093120	0.749677
C177	C	0.758128	-0.584056	-0.000311
C178	C	1.008128	-0.334056	0.249689
C179	C	1.258128	-0.084056	0.499689
C180	C	1.508128	0.165944	0.749689
C181	C	0.822301	-0.556168	-0.000316
C182	C	1.072301	-0.306168	0.249684
C183	C	1.322301	-0.056168	0.499684
C184	C	1.572301	0.193832	0.749684
C185	C	0.952167	0.087530	-0.000352
C186	C	1.202167	0.337530	0.249648
C187	C	1.452167	0.587530	0.499648
C188	C	1.702167	0.837530	0.749648
C189	C	1.029673	0.088669	-0.000386
C190	C	1.279673	0.338669	0.249614
C191	C	1.529673	0.588669	0.499614
C192	C	1.779673	0.838669	0.749614
C193	C	0.819012	0.220685	-0.000330
C194	C	1.069012	0.470685	0.249670
C195	C	1.319012	0.720685	0.499670
C196	C	1.569012	0.970685	0.749670
C197	C	0.820154	0.298189	-0.000346
C198	C	1.070154	0.548189	0.249654
C199	C	1.320154	0.798189	0.499654
C200	C	1.570154	1.048189	0.749654
N201	N	0.812484	0.105058	0.265218
N202	N	1.062484	0.355058	0.515218
N203	N	1.312484	0.605058	0.765218
N204	N	1.562484	0.855058	1.015218
N205	N	0.836518	0.080975	-0.265831
N206	N	1.086518	0.330975	-0.015831
N207	N	1.336518	0.580975	0.234169
N208	N	1.586518	0.830975	0.484169
C209	C	0.803053	0.114517	0.474262
C210	C	1.053053	0.364517	0.724262
C211	C	1.303053	0.614517	0.974262
C212	C	1.553053	0.864517	1.224262
C213	C	0.845947	0.071518	0.525131
C214	C	1.095947	0.321518	0.775131
C215	C	1.345947	0.571518	1.025131
C216	C	1.595947	0.821518	1.275131
C217	C	0.840699	0.076781	0.641451
C218	C	1.090699	0.326781	0.891451
C219	C	1.340699	0.576781	1.141451
C220	C	1.590699	0.826781	1.391451
C221	C	0.808300	0.109255	0.357933
C222	C	1.058300	0.359255	0.607933
C223	C	1.308300	0.609255	0.857933
C224	C	1.558300	0.859255	1.107933
H225	H	0.464995	0.210763	-0.000294
H226	H	0.714995	0.460763	0.249706
H227	H	0.964995	0.710763	0.499706
H228	H	1.214995	0.960763	0.749706
Br229	Br	0.669967	-0.694731	-0.000305
Br230	Br	0.919967	-0.444731	0.249695
Br231	Br	1.169967	-0.194731	0.499695
Br232	Br	1.419967	0.055269	0.749695
Br233	Br	0.676513	-0.250718	-0.000262
Br234	Br	0.926513	-0.000718	0.249738
Br235	Br	1.176513	0.249282	0.499738
Br236	Br	1.426513	0.499282	0.749738
H237	H	0.153097	0.206164	-0.000373
H238	H	0.403097	0.456164	0.249627
H239	H	0.653097	0.706164	0.499627
H240	H	0.903097	0.956164	0.749627
H241	H	0.706752	-0.547477	-0.000292
H242	H	0.956752	-0.297477	0.249708
H243	H	1.206752	-0.047477	0.499708
H244	H	1.456752	0.202523	0.749708
Br245	Br	-0.003405	0.238466	-0.000411
Br246	Br	0.246595	0.488466	0.249589
Br247	Br	0.496595	0.738466	0.499589
Br248	Br	0.746595	0.988466	0.749589
Br249	Br	0.480756	-0.054961	-0.000241
Br250	Br	0.730756	0.195039	0.249759
Br251	Br	0.980756	0.445039	0.499759
Br252	Br	1.230756	0.695039	0.749759
H253	H	0.762393	0.155280	0.518066
H254	H	1.012393	0.405280	0.768066
H255	H	1.262393	0.655280	1.018066
H256	H	1.512393	0.905280	1.268066
H257	H	0.886611	0.030753	0.481323
H258	H	1.136611	0.280753	0.731323
H259	H	1.386611	0.530753	0.981323
H260	H	1.636611	0.780753	1.231323
H261	H	0.713292	-0.103460	-0.000258
H262	H	0.963292	0.146540	0.249742
H263	H	1.213292	0.396540	0.499742
H264	H	1.463292	0.646540	0.749742
H265	H	0.628012	-0.018180	-0.000203
H266	H	0.878012	0.231820	0.249797
H267	H	1.128012	0.481820	0.499797
H268	H	1.378012	0.731820	0.749797
H269	H	0.597103	0.212712	-0.000275
H270	H	0.847103	0.462712	0.249725
H271	H	1.097103	0.712712	0.499725
H272	H	1.347103	0.962712	0.749725
H273	H	0.937648	-0.578388	-0.000351
H274	H	1.187648	-0.328388	0.249649
H275	H	1.437648	-0.078388	0.499649
H276	H	1.687648	0.171612	0.749649
H277	H	0.051893	-0.026679	-0.000432
H278	H	0.301893	0.223321	0.249568
H279	H	0.551893	0.473321	0.499568
H280	H	0.801893	0.723321	0.749568
H281	H	0.184003	-0.024728	-0.000333
H282	H	0.434003	0.225272	0.249667
H283	H	0.684003	0.475272	0.499667
H284	H	0.934003	0.725272	0.749667
H285	H	0.944190	-0.134374	-0.000300
H286	H	1.194190	0.115626	0.249700
H287	H	1.444190	0.365626	0.499700
H288	H	1.694190	0.615626	0.749700
H289	H	0.942243	-0.266485	-0.000326
H290	H	1.192243	-0.016485	0.249674
H291	H	1.442243	0.233515	0.499674
H292	H	1.692243	0.483515	0.749674
H293	H	0.935701	-0.710499	-0.000384
H294	H	1.185701	-0.460499	0.249616
H295	H	1.435701	-0.210499	0.499616
H296	H	1.685701	0.039501	0.749616
