data_functionalizedCrystal
_audit_creation_method	'MofGen! by Chris Wilmer'
_symmetry_space_group_name_H-M	'P1'
_symmetry_Int_Tables_number	1
_symmetry_cell_setting	triclinic
loop_
_symmetry_equiv_pos_as_xyz
  x,y,z
_cell_length_a	19.077105
_cell_length_b	12.645330
_cell_length_c	19.077271
_cell_angle_alpha	87.677602
_cell_angle_beta	89.892926
_cell_angle_gamma	87.714233
loop_
_atom_site_label
_atom_site_type_symbol
_atom_site_fract_x
_atom_site_fract_y
_atom_site_fract_z
Zn1	Zn	1.058309	-0.459543	-0.440450
Zn2	Zn	1.558309	0.040457	0.059550
Zn3	Zn	1.062962	-0.644217	-0.322951
Zn4	Zn	1.562962	-0.144217	0.177049
Zn5	Zn	0.945526	-0.460135	-0.318241
Zn6	Zn	1.445526	0.039865	0.181759
Zn7	Zn	0.940784	-0.629929	-0.435705
Zn8	Zn	1.440784	-0.129929	0.064295
O9	O	1.001895	-0.548456	-0.379337
O10	O	1.501895	-0.048456	0.120663
O11	O	1.157258	-0.489772	-0.428821
O12	O	1.657258	0.010228	0.071179
O13	O	1.051316	-0.626026	-0.223993
O14	O	1.551316	-0.126026	0.276007
O15	O	0.960524	-0.311711	-0.334468
O16	O	1.460524	0.188289	0.165532
O17	O	1.160677	-0.625452	-0.342494
O18	O	1.660677	-0.125452	0.157506
O19	O	1.043385	-0.311276	-0.424254
O20	O	1.543385	0.188724	0.075746
O21	O	0.965036	-0.490782	-0.220533
O22	O	1.465036	0.009218	0.279467
O23	O	0.846565	-0.476927	-0.329866
O24	O	1.346565	0.023073	0.170134
O25	O	0.952442	-0.601099	-0.534667
O26	O	1.452442	-0.101099	-0.034667
O27	O	0.843080	-0.601674	-0.416166
O28	O	1.343080	-0.101674	0.083834
O29	O	1.038787	-0.475918	-0.538154
O30	O	1.538787	0.024082	-0.038154
O31	O	1.046717	-0.790668	-0.337893
O32	O	1.546717	-0.290668	0.162107
O33	O	0.956953	-0.780170	-0.420733
O34	O	1.456953	-0.280170	0.079267
C35	C	0.819326	-0.537815	-0.371991
C36	C	1.319326	-0.037815	0.128009
C37	C	0.741221	-0.533287	-0.368865
C38	C	1.241221	-0.033287	0.131135
C39	C	1.001844	-0.823884	-0.379325
C40	C	1.501844	-0.323884	0.120675
C41	C	1.001886	-0.941715	-0.379346
C42	C	1.501886	-0.441715	0.120654
C43	C	0.702735	-0.596215	-0.412257
C44	C	1.202735	-0.096215	0.087743
C45	C	0.629347	-0.591947	-0.409323
C46	C	1.129347	-0.091947	0.090677
C47	C	0.594448	-0.524755	-0.362993
C48	C	1.094448	-0.024755	0.137007
C49	C	0.632939	-0.461819	-0.319599
C50	C	1.132939	0.038181	0.180401
C51	C	0.706325	-0.466083	-0.322536
C52	C	1.206325	0.033917	0.177464
C53	C	0.375159	-0.505021	-0.349399
C54	C	0.875159	-0.005021	0.150601
C55	C	0.301767	-0.500764	-0.346463
C56	C	0.801767	-0.000764	0.153537
C57	C	0.298180	-0.630891	-0.436189
C58	C	0.798180	-0.130891	0.063811
C59	C	0.371568	-0.635153	-0.439120
C60	C	0.871568	-0.135153	0.060880
C61	C	0.410053	-0.572214	-0.395728
C62	C	0.910053	-0.072214	0.104272
N63	N	0.519434	-0.520392	-0.359991
N64	N	1.019434	-0.020392	0.140009
N65	N	0.485066	-0.576571	-0.398734
N66	N	0.985066	-0.076571	0.101266
C67	C	0.945632	-1.102721	-0.431637
C68	C	1.445632	-0.602721	0.068363
C69	C	0.945363	-0.980157	-0.431451
C70	C	1.445363	-0.480157	0.068549
C71	C	0.984820	-0.989801	-0.304487
C72	C	1.484820	-0.489801	0.195513
C73	C	0.984476	-1.112359	-0.304804
C74	C	1.484476	-0.612359	0.195196
C75	C	1.075560	-1.111940	-0.401327
C76	C	1.575560	-0.611940	0.098673
C77	C	1.075039	-0.989205	-0.402928
C78	C	1.575039	-0.489205	0.097072
C79	C	1.185177	-0.559140	-0.386712
C80	C	1.685177	-0.059140	0.113288
C81	C	1.263281	-0.563693	-0.389855
C82	C	1.763281	-0.063693	0.110145
C83	C	0.994566	-0.536848	-0.562620
C84	C	1.494566	-0.036848	-0.062620
C85	C	0.991443	-0.531902	-0.640725
C86	C	1.491443	-0.031902	-0.140725
C87	C	1.001965	-0.271953	-0.379365
C88	C	1.501965	0.228047	0.120635
C89	C	1.001994	-0.154124	-0.379377
C90	C	1.501994	0.345876	0.120623
C91	C	0.969043	-0.496509	-1.080177
C92	C	1.469043	0.003491	-0.580177
C93	C	0.971981	-0.501153	-1.006790
C94	C	1.471981	-0.001153	-0.506790
C95	C	1.018368	-0.573894	-0.971896
C96	C	1.518368	-0.073894	-0.471896
C97	C	1.061824	-0.641989	-1.010395
C98	C	1.561824	-0.141989	-0.510395
C99	C	1.058889	-0.637339	-1.083781
C100	C	1.558889	-0.137339	-0.583781
C101	C	1.031965	-0.595347	-0.752609
C102	C	1.531965	-0.095347	-0.252609
C103	C	1.034895	-0.599994	-0.679218
C104	C	1.534895	-0.099994	-0.179218
C105	C	0.945053	-0.459155	-0.675618
C106	C	1.445053	0.040845	-0.175618
C107	C	0.942119	-0.454516	-0.749005
C108	C	1.442119	0.045484	-0.249005
C109	C	0.985578	-0.522607	-0.787497
C110	C	1.485578	-0.022607	-0.287497
N111	N	1.021370	-0.578645	-0.896883
N112	N	1.521370	-0.078645	-0.396883
N113	N	0.982578	-0.517850	-0.862509
N114	N	1.482578	-0.017850	-0.362509
C115	C	1.009236	-0.559945	-0.196768
C116	C	1.509236	-0.059945	0.303232
C117	C	1.012495	-0.564600	-0.118670
C118	C	1.512495	-0.064600	0.381330
H119	H	0.731145	-0.650934	-0.449982
H120	H	1.231145	-0.150934	0.050018
C121	C	0.911944	-1.148217	-0.280156
C122	C	1.411944	-0.648217	0.219844
N123	N	0.857310	-1.175219	-0.261594
N124	N	1.357310	-0.675219	0.238406
H125	H	0.737660	-0.414834	-0.287205
H126	H	1.237660	0.085166	0.212795
H127	H	0.904343	-0.395287	-0.777410
H128	H	1.404343	0.104713	-0.277410
C129	C	0.924179	-0.426248	-0.964451
C130	C	1.424179	0.073752	-0.464451
N131	N	0.888172	-0.369827	-0.932561
N132	N	1.388172	0.130173	-0.432561
H133	H	0.955842	-1.129391	-0.487227
H134	H	1.455842	-0.629391	0.012773
C135	C	1.097377	-1.150528	-0.474034
C136	C	1.597377	-0.650528	0.025966
N137	N	1.113800	-1.179591	-0.528799
N138	N	1.613800	-0.679591	-0.028799
C139	C	0.897261	-0.384247	-0.633271
C140	C	1.397261	0.115753	-0.133271
N141	N	0.861266	-0.327816	-0.601375
N142	N	1.361266	0.172184	-0.101375
H143	H	1.072684	-0.659211	-0.650810
H144	H	1.572684	-0.159211	-0.150810
C145	C	0.871588	-0.937390	-0.411538
C146	C	1.371588	-0.437390	0.088462
N147	N	0.816013	-0.905177	-0.396557
N148	N	1.316013	-0.405177	0.103443
H149	H	0.266838	-0.682131	-0.471517
H150	H	0.766838	-0.182131	0.028483
C151	C	1.079765	-0.670258	-0.794940
C152	C	1.579765	-0.170258	-0.294940
N153	N	1.115769	-0.726688	-0.826827
N154	N	1.615769	-0.226688	-0.326827
H155	H	1.023908	-1.146850	-0.264378
H156	H	1.523908	-0.646850	0.235622
H157	H	0.273354	-0.446036	-0.308739
H158	H	0.773354	0.053964	0.191261
C159	C	0.417483	-0.435792	-0.301662
C160	C	0.917483	0.064208	0.198338
N161	N	0.449364	-0.383647	-0.265703
N162	N	0.949364	0.116353	0.234297
C163	C	0.409953	-0.709075	-0.490083
C164	C	0.909953	-0.209075	0.009917
N165	N	0.438864	-0.764759	-0.528467
N166	N	0.938864	-0.264759	-0.028467
H167	H	0.598015	-0.643190	-0.444657
H168	H	1.098015	-0.143190	0.055343
C169	C	0.594547	-0.387904	-0.268636
C170	C	1.094547	0.112096	0.231364
N171	N	0.565631	-0.332232	-0.230249
N172	N	1.065631	0.167768	0.269751
C173	C	1.112850	-0.722006	-0.972010
C174	C	1.612850	-0.222006	-0.472010
N175	N	1.151281	-0.782280	-0.943099
N176	N	1.651281	-0.282280	-0.443099
H177	H	0.891372	-1.131216	-0.417034
H178	H	1.391372	-0.631216	0.082966
C179	C	0.959319	-0.935737	-0.506314
C180	C	1.459319	-0.435737	-0.006314
N181	N	0.969827	-0.902285	-0.562705
N182	N	1.469827	-0.402285	-0.062705
C183	C	1.038693	-0.956946	-0.250266
C184	C	1.538693	-0.456946	0.249734
N185	N	1.079271	-0.932195	-0.209427
N186	N	1.579271	-0.432195	0.290573
C187	C	0.918015	-0.416485	-1.118552
C188	C	1.418015	0.083515	-0.618552
N189	N	0.879581	-0.356206	-1.147455
N190	N	1.379581	0.143794	-0.647455
H191	H	1.094274	-0.692785	-1.115121
H192	H	1.594274	-0.192785	-0.615121
H193	H	0.931709	-0.957090	-0.285971
H194	H	1.431709	-0.457090	0.214029
C195	C	1.134435	-0.954266	-0.355569
C196	C	1.634435	-0.454266	0.144431
N197	N	1.179171	-0.927952	-0.319891
N198	N	1.679171	-0.427952	0.180109
C199	C	1.092518	-0.946338	-0.477361
C200	C	1.592518	-0.446338	0.022639
N201	N	1.105686	-0.914032	-0.533420
N202	N	1.605686	-0.414032	-0.033420
H203	H	1.117515	-1.145770	-0.363300
H204	H	1.617515	-0.645770	0.136700
