data_functionalizedCrystal
_audit_creation_method	'MofGen! by Chris Wilmer'
_symmetry_space_group_name_H-M	'P1'
_symmetry_Int_Tables_number	1
_symmetry_cell_setting	triclinic
loop_
_symmetry_equiv_pos_as_xyz
  x,y,z
_cell_length_a	12.759401
_cell_length_b	14.908520
_cell_length_c	14.908662
_cell_angle_alpha	83.254514
_cell_angle_beta	93.313735
_cell_angle_gamma	93.320696
loop_
_atom_site_label
_atom_site_type_symbol
_atom_site_fract_x
_atom_site_fract_y
_atom_site_fract_z
Zn1	Zn	1.615750	-0.389874	0.532505
Zn2	Zn	1.596459	-0.532518	0.389874
Zn3	Zn	1.430477	-0.381175	0.381168
Zn4	Zn	1.430432	-0.541193	0.541193
O5	O	1.518280	-0.461190	0.461185
O6	O	1.760212	-0.408806	0.513592
O7	O	1.566387	-0.505171	0.262057
O8	O	1.463146	-0.255665	0.393965
O9	O	1.746039	-0.513605	0.408802
O10	O	1.599265	-0.262055	0.505151
O11	O	1.444440	-0.393980	0.255661
O12	O	1.283450	-0.402392	0.402389
O13	O	1.463069	-0.528391	0.666702
O14	O	1.283417	-0.519957	0.519958
O15	O	1.599222	-0.417218	0.660320
O16	O	1.566343	-0.660333	0.417226
O17	O	1.444364	-0.666707	0.528399
C18	C	1.245312	-0.461173	0.461172
C19	C	1.128536	-0.461188	0.461189
C20	C	1.073672	-0.522491	0.522316
C21	C	0.963948	-0.522503	0.522327
C22	C	0.963961	-0.399907	0.400074
C23	C	1.073683	-0.399891	0.400069
C24	C	1.073664	-0.593274	0.592896
C25	C	0.963940	-0.593286	0.592906
C26	C	1.503285	-0.696364	0.474719
C27	C	1.496969	-0.796974	0.480540
C28	C	1.612261	-0.979339	0.375805
C29	C	1.606329	-1.073871	0.381271
C30	C	1.479180	-1.080572	0.496941
C31	C	1.485112	-0.986040	0.491475
C32	C	1.551653	-0.935427	0.430904
C33	C	1.557578	-0.840893	0.425435
C34	C	1.430436	-0.847596	0.541108
C35	C	1.424504	-0.942128	0.546574
C36	C	1.792313	-0.461208	0.461199
C37	C	1.909089	-0.461216	0.461205
C38	C	1.533293	-0.474743	0.697271
C39	C	1.539690	-0.480518	0.797877
C40	C	1.533362	-0.225099	0.447618
C41	C	1.539790	-0.124491	0.441836
C42	C	1.503389	-0.447625	0.226013
C43	C	1.497212	-0.441595	0.125393
C44	C	1.612186	-0.546542	0.943010
C45	C	1.606183	-0.541121	0.848482
C46	C	1.479195	-0.425335	0.841808
C47	C	1.485199	-0.430756	0.936336
C48	C	1.551698	-0.491361	0.986933
C49	C	1.557707	-0.496778	1.081463
C50	C	1.430714	-0.380997	1.074787
C51	C	1.424710	-0.375575	0.980259
H52	H	1.118350	-0.349967	0.350298
C53	C	1.685453	-0.923662	0.309176
N54	N	1.740585	-0.881727	0.258990
C55	C	0.903612	-0.332486	0.332843
N56	N	0.858158	-0.281704	0.282202
C57	C	1.121534	-0.573517	0.686195
N58	N	1.157589	-0.558643	0.756470
H59	H	1.101857	-0.658373	0.571502
C60	C	1.364171	-0.320295	1.123111
N61	N	1.314054	-0.274574	1.159509
H62	H	1.370566	-0.326236	0.939050
H63	H	0.935746	-0.572114	0.658106
H64	H	0.928499	-0.662281	0.578050
C65	C	1.630854	-0.563446	1.137119
N66	N	1.685946	-0.613666	1.179037
H67	H	1.655684	-1.109620	0.336405
C68	C	1.672740	-0.601812	0.800168
N69	N	1.722878	-0.647524	0.763779
H70	H	1.611757	-0.799684	0.376112
C71	C	1.405989	-1.136263	0.563562
N72	N	1.350857	-1.178211	0.613739
H73	H	1.425045	-0.376001	0.800595
C74	C	1.351306	-0.997813	0.613193
N75	N	1.296167	-1.039755	0.663368
H76	H	1.381081	-0.811832	0.585971
C77	C	1.685340	-0.613203	0.998669
N78	N	1.740439	-0.663414	1.040590
