data_functionalizedCrystal
_audit_creation_method	'MofGen! by Chris Wilmer'
_symmetry_space_group_name_H-M	'P1'
_symmetry_Int_Tables_number	1
_symmetry_cell_setting	triclinic
loop_
_symmetry_equiv_pos_as_xyz
  x,y,z
_cell_length_a	11.169417
_cell_length_b	12.759400
_cell_length_c	11.169409
_cell_angle_alpha	89.966264
_cell_angle_beta	89.979436
_cell_angle_gamma	90.015563
loop_
_atom_site_label
_atom_site_type_symbol
_atom_site_fract_x
_atom_site_fract_y
_atom_site_fract_z
Zn1	Zn	1.834935	-0.418157	-0.678531
Zn2	Zn	2.334935	0.081843	-0.178531
Zn3	Zn	1.834806	-0.593883	-0.477842
Zn4	Zn	2.334806	-0.093883	0.022158
Zn5	Zn	1.634218	-0.418221	-0.477865
Zn6	Zn	2.134218	0.081779	0.022135
Zn7	Zn	1.634213	-0.593797	-0.678487
Zn8	Zn	2.134213	-0.093797	-0.178487
O9	O	1.734543	-0.506015	-0.578181
O10	O	2.234543	-0.006015	-0.078181
O11	O	2.002867	-0.441477	-0.651918
O12	O	2.502867	0.058523	-0.151918
O13	O	1.808146	-0.570643	-0.309896
O14	O	2.308146	-0.070643	0.190104
O15	O	1.660900	-0.271192	-0.504511
O16	O	2.160900	0.228808	-0.004511
O17	O	2.002773	-0.570581	-0.504473
O18	O	2.502773	-0.070581	-0.004473
O19	O	1.808365	-0.271145	-0.651939
O20	O	2.308365	0.228855	-0.151939
O21	O	1.660775	-0.441585	-0.309912
O22	O	2.160775	0.058415	0.190088
O23	O	1.466268	-0.441503	-0.504469
O24	O	1.966268	0.058497	-0.004469
O25	O	1.660891	-0.570436	-0.846443
O26	O	2.160891	-0.070436	-0.346443
O27	O	1.466264	-0.570498	-0.651866
O28	O	1.966264	-0.070498	-0.151866
O29	O	1.808360	-0.441394	-0.846475
O30	O	2.308360	0.058606	-0.346475
O31	O	1.808141	-0.740892	-0.504431
O32	O	2.308141	-0.240892	-0.004431
O33	O	1.660766	-0.740830	-0.651844
O34	O	2.160766	-0.240830	-0.151844
C35	C	1.422718	-0.505999	-0.578166
C36	C	1.922718	-0.005999	-0.078166
C37	C	1.289318	-0.506017	-0.578188
C38	C	1.789318	-0.006017	-0.078188
C39	C	1.734472	-0.778982	-0.578156
C40	C	2.234472	-0.278982	-0.078156
C41	C	1.734551	-0.895759	-0.578186
C42	C	2.234551	-0.395759	-0.078186
C43	C	1.811375	-0.950618	-0.501513
C44	C	2.311375	-0.450618	-0.001513
C45	C	1.811448	-1.060342	-0.501550
C46	C	2.311448	-0.560342	-0.001550
C47	C	1.657865	-1.060337	-0.654936
C48	C	2.157865	-0.560337	-0.154936
C49	C	1.657798	-0.950615	-0.654904
C50	C	2.157798	-0.450615	-0.154904
C51	C	1.888128	-0.895762	-0.424794
C52	C	2.388128	-0.395762	0.075206
C53	C	1.964956	-0.950622	-0.348114
C54	C	2.464956	-0.450622	0.151886
C55	C	1.965030	-1.060346	-0.348151
C56	C	2.465030	-0.560346	0.151849
C57	C	1.888275	-1.115210	-0.424868
C58	C	2.388275	-0.615210	0.075132
C59	C	2.047585	-0.506031	-0.578198
C60	C	2.547585	-0.006031	-0.078198
C61	C	2.180985	-0.506038	-0.578204
C62	C	2.680985	-0.006038	-0.078204
C63	C	1.734639	-0.505898	-0.891224
C64	C	2.234639	-0.005898	-0.391224
C65	C	1.734680	-0.505849	-1.024624
C66	C	2.234680	-0.005849	-0.524624
C67	C	1.734647	-0.231981	-0.578233
C68	C	2.234647	0.268019	-0.078233
C69	C	1.734692	-0.115205	-0.578255
C70	C	2.234692	0.384795	-0.078255
C71	C	1.734516	-0.506055	-0.266357
C72	C	2.234516	-0.006055	0.233643
C73	C	1.734708	-0.505808	-0.132957
C74	C	2.234708	-0.005808	0.367043
H75	H	1.888073	-0.806419	-0.424752
H76	H	2.388073	-0.306419	0.075248
H77	H	2.027596	-1.105010	-0.285723
H78	H	2.527596	-0.605010	0.214277
H79	H	1.595374	-1.105016	-0.717395
H80	H	2.095374	-0.605016	-0.217395
H81	H	1.888351	-1.204555	-0.424902
H82	H	2.388351	-0.704555	0.075098
O83	O	1.583067	-0.897480	-0.729428
O84	O	2.083067	-0.397480	-0.229428
C85	C	1.515356	-0.969423	-0.797167
C86	C	2.015356	-0.469423	-0.297167
H87	H	1.511253	-1.047674	-0.748026
H88	H	2.011253	-0.547674	-0.248026
H89	H	1.420776	-0.937769	-0.809899
H90	H	1.920776	-0.437769	-0.309899
H91	H	1.559284	-0.981001	-0.888351
H92	H	2.059284	-0.481001	-0.388351
H93	H	2.027455	-0.905946	-0.285660
H94	H	2.527455	-0.405946	0.214340
