data_functionalizedCrystal
_audit_creation_method	'MofGen! by Chris Wilmer'
_symmetry_space_group_name_H-M	'P1'
_symmetry_Int_Tables_number	1
_symmetry_cell_setting	triclinic
loop_
_symmetry_equiv_pos_as_xyz
  x,y,z
_cell_length_a	19.077409
_cell_length_b	21.295417
_cell_length_c	19.076919
_cell_angle_alpha	92.267699
_cell_angle_beta	94.476475
_cell_angle_gamma	92.331622
loop_
_atom_site_label
_atom_site_type_symbol
_atom_site_fract_x
_atom_site_fract_y
_atom_site_fract_z
Zn1	Zn	1.061651	-0.225214	-0.355434
Zn2	Zn	1.394984	0.108120	-0.022101
Zn3	Zn	1.728317	0.441453	0.311233
Zn4	Zn	1.066295	-0.326080	-0.237548
Zn5	Zn	1.399629	0.007254	0.095786
Zn6	Zn	1.732962	0.340587	0.429119
Zn7	Zn	0.948506	-0.225235	-0.242283
Zn8	Zn	1.281839	0.108099	0.091051
Zn9	Zn	1.615173	0.441432	0.424384
Zn10	Zn	0.943723	-0.334858	-0.360109
Zn11	Zn	1.277057	-0.001525	-0.026776
Zn12	Zn	1.610390	0.331809	0.306558
O13	O	1.005044	-0.277847	-0.298843
O14	O	1.338377	0.055487	0.034490
O15	O	1.671711	0.388820	0.367823
O16	O	1.160915	-0.234911	-0.335858
O17	O	1.494248	0.098422	-0.002525
O18	O	1.827582	0.431755	0.330809
O19	O	1.054616	-0.309037	-0.139529
O20	O	1.387949	0.024296	0.193804
O21	O	1.721282	0.357629	0.527138
O22	O	0.963572	-0.137141	-0.257318
O23	O	1.296906	0.196192	0.076016
O24	O	1.630239	0.529525	0.409349
O25	O	1.164328	-0.309017	-0.249247
O26	O	1.497661	0.024316	0.084086
O27	O	1.830994	0.357649	0.417419
O28	O	1.046699	-0.137126	-0.340449
O29	O	1.380033	0.196207	-0.007116
O30	O	1.713366	0.529541	0.326217
O31	O	0.968076	-0.234947	-0.143008
O32	O	1.301410	0.098386	0.190326
O33	O	1.634743	0.431720	0.523659
O34	O	0.849223	-0.243459	-0.261851
O35	O	1.182556	0.089874	0.071483
O36	O	1.515890	0.423208	0.404816
O37	O	0.955421	-0.323979	-0.458136
O38	O	1.288755	0.009355	-0.124802
O39	O	1.622088	0.342688	0.208531
O40	O	0.845710	-0.323999	-0.348417
O41	O	1.179043	0.009334	-0.015084
O42	O	1.512376	0.342668	0.318249
O43	O	1.042062	-0.243423	-0.454701
O44	O	1.375395	0.089910	-0.121368
O45	O	1.708729	0.423243	0.211966
O46	O	1.049978	-0.415335	-0.253780
O47	O	1.383312	-0.082001	0.079553
O48	O	1.716645	0.251332	0.412886
O49	O	0.959925	-0.421784	-0.343826
O50	O	1.293259	-0.088451	-0.010493
O51	O	1.626592	0.244882	0.322841
C52	C	0.821888	-0.284684	-0.306156
C53	C	1.155221	0.048649	0.027178
C54	C	1.488555	0.381982	0.360511
C55	C	0.743532	-0.287625	-0.309300
C56	C	1.076866	0.045708	0.024033
C57	C	1.410199	0.379041	0.357366
C58	C	1.004955	-0.441400	-0.298811
C59	C	1.338289	-0.108067	0.034522
C60	C	1.671622	0.225266	0.367855
C61	C	1.004981	-0.511368	-0.298819
C62	C	1.338315	-0.178034	0.034515
C63	C	1.671648	0.155299	0.367848
C64	C	0.302277	-0.308670	-0.331890
C65	C	0.635610	0.024664	0.001444
C66	C	0.968944	0.357997	0.334777
C67	C	0.375901	-0.305911	-0.328922
C68	C	0.709234	0.027423	0.004412
C69	C	1.042568	0.360756	0.337745
C70	C	0.414516	-0.262536	-0.282442
C71	C	0.747850	0.070797	0.050891
C72	C	1.081183	0.404130	0.384225
C73	C	0.379504	-0.221923	-0.238922
C74	C	0.712837	0.111411	0.094411
C75	C	1.046171	0.444744	0.427744
C76	C	0.305882	-0.224685	-0.241887
C77	C	0.639215	0.108648	0.091446
C78	C	0.972548	0.441981	0.424779
C79	C	0.634898	-0.249774	-0.268746
C80	C	0.968231	0.083559	0.064587
C81	C	1.301564	0.416893	0.397921
C82	C	0.708525	-0.247013	-0.265786
C83	C	1.041858	0.086320	0.067548
C84	C	1.375192	0.419653	0.400881
C85	C	0.704917	-0.331002	-0.355785
C86	C	1.038250	0.002331	-0.022451
C87	C	1.371584	0.335664	0.310882
C88	C	0.631293	-0.333758	-0.358748
C89	C	0.964626	-0.000425	-0.025415
C90	C	1.297960	0.332908	0.307918
C91	C	0.596287	-0.293147	-0.315226
C92	C	0.929621	0.040186	0.018107
C93	C	1.262954	0.373519	0.351440
N94	N	0.489772	-0.259714	-0.279408
N95	N	0.823105	0.073620	0.053925
N96	N	1.156438	0.406953	0.387258
N97	N	0.521033	-0.295973	-0.318257
N98	N	0.854367	0.037360	0.015077
N99	N	1.187700	0.370693	0.348410
C100	C	1.048238	-0.544171	-0.342139
C101	C	1.381572	-0.210838	-0.008805
C102	C	1.714905	0.122495	0.324528
C103	C	1.048262	-0.609914	-0.342155
C104	C	1.381596	-0.276580	-0.008822
C105	C	1.714929	0.056753	0.324512
C106	C	1.005037	-0.642849	-0.298838
C107	C	1.338371	-0.309516	0.034495
C108	C	1.671704	0.023818	0.367828
C109	C	0.961772	-0.610038	-0.255516
C110	C	1.295105	-0.276704	0.077818
C111	C	1.628438	0.056629	0.411151
C112	C	0.961744	-0.544297	-0.255506
C113	C	1.295077	-0.210964	0.077828
C114	C	1.628410	0.122370	0.411161
N115	N	1.002194	-0.744003	-0.237357
N116	N	1.335528	-0.410670	0.095976
N117	N	1.668861	-0.077337	0.429309
N118	N	1.002225	-0.806454	-0.237369
N119	N	1.335559	-0.473121	0.095965
N120	N	1.668892	-0.139787	0.429298
C121	C	1.005118	-0.840922	-0.298867
C122	C	1.338452	-0.507588	0.034466
C123	C	1.671785	-0.174255	0.367800
N124	N	1.007994	-0.810579	-0.360354
N125	N	1.341327	-0.477246	-0.027021
N126	N	1.674660	-0.143912	0.306312
N127	N	1.007966	-0.748122	-0.360342
N128	N	1.341300	-0.414789	-0.027009
N129	N	1.674633	-0.081456	0.306325
C130	C	1.005063	-0.714134	-0.298845
C131	C	1.338396	-0.380800	0.034489
C132	C	1.671729	-0.047467	0.367822
C133	C	1.048404	-0.945011	-0.342208
C134	C	1.381737	-0.611677	-0.008875
C135	C	1.715071	-0.278344	0.324458
C136	C	1.048423	-1.010754	-0.342226
C137	C	1.381757	-0.677421	-0.008893
C138	C	1.715090	-0.344088	0.324440
C139	C	0.961936	-1.010877	-0.255580
C140	C	1.295270	-0.677543	0.077753
C141	C	1.628603	-0.344210	0.411086
C142	C	0.961913	-0.945135	-0.255569
C143	C	1.295247	-0.611801	0.077764
C144	C	1.628580	-0.278468	0.411098
C145	C	1.005151	-0.912205	-0.298882
C146	C	1.338484	-0.578872	0.034451
C147	C	1.671818	-0.245539	0.367785
C148	C	1.188915	-0.270983	-0.291503
C149	C	1.522248	0.062351	0.041830
C150	C	1.855582	0.395684	0.375164
C151	C	1.267270	-0.268058	-0.288375
C152	C	1.600603	0.065276	0.044958
C153	C	1.933937	0.398609	0.378292
C154	C	0.997690	-0.284678	-0.482712
C155	C	1.331023	0.048656	-0.149378
C156	C	1.664357	0.381989	0.183955
C157	C	0.994556	-0.287589	-0.561065
C158	C	1.327890	0.045744	-0.227732
C159	C	1.661223	0.379078	0.105602
C160	C	1.005151	-0.113654	-0.298890
C161	C	1.338485	0.219679	0.034443
C162	C	1.671818	0.553013	0.367776
C163	C	1.005197	-0.043685	-0.298910
C164	C	1.338530	0.289648	0.034423
C165	C	1.671864	0.622982	0.367756
C166	C	1.038191	-0.247018	-0.596089
C167	C	1.371524	0.086316	-0.262756
C168	C	1.704858	0.419649	0.070578
C169	C	1.035238	-0.249751	-0.669711
C170	C	1.368571	0.083583	-0.336377
C171	C	1.701905	0.416916	-0.003044
C172	C	0.988653	-0.293059	-0.708308
C173	C	1.321987	0.040275	-0.374974
C174	C	1.655320	0.373608	-0.041641
C175	C	0.945014	-0.333632	-0.673279
C176	C	1.278347	-0.000298	-0.339946
C177	C	1.611681	0.333035	-0.006612
C178	C	0.947964	-0.330895	-0.599658
C179	C	1.281297	0.002438	-0.266325
C180	C	1.614631	0.335772	0.067008
C181	C	0.974990	-0.305738	-0.928681
C182	C	1.308324	0.027595	-0.595348
C183	C	1.641657	0.360929	-0.262014
C184	C	0.972045	-0.308473	-1.002307
C185	C	1.305379	0.024861	-0.668973
C186	C	1.638712	0.358194	-0.335640
C187	C	1.062269	-0.224591	-0.998733
C188	C	1.395602	0.108743	-0.665400
C189	C	1.728935	0.442076	-0.332067
C190	C	1.065217	-0.221860	-0.925111
C191	C	1.398551	0.111473	-0.591778
C192	C	1.731884	0.444806	-0.258445
C193	C	1.021576	-0.262431	-0.890089
C194	C	1.354909	0.070902	-0.556756
C195	C	1.688242	0.404236	-0.223423
N196	N	0.985635	-0.295855	-0.783561
N197	N	1.318969	0.037478	-0.450228
N198	N	1.652302	0.370812	-0.116894
N199	N	1.024590	-0.259632	-0.814837
N200	N	1.357924	0.073702	-0.481504
N201	N	1.691257	0.407035	-0.148171
C202	C	1.012410	-0.270995	-0.115689
C203	C	1.345743	0.062338	0.217644
C204	C	1.679076	0.395672	0.550978
C205	C	1.015680	-0.267902	-0.037330
C206	C	1.349013	0.065432	0.296003
C207	C	1.682346	0.398765	0.629336
H208	H	0.270841	-0.343986	-0.369743
H209	H	0.604175	-0.010653	-0.036409
H210	H	0.937508	0.322680	0.296924
H211	H	1.103153	-0.186596	-0.893691
H212	H	1.436487	0.146737	-0.560357
H213	H	1.769820	0.480071	-0.227024
H214	H	0.926518	-0.517588	-0.220229
H215	H	1.259851	-0.184254	0.113105
H216	H	1.593184	0.149079	0.446438
H217	H	1.070772	-0.216715	-0.698224
H218	H	1.404105	0.116619	-0.364890
H219	H	1.737438	0.449952	-0.031557
H220	H	0.739964	-0.211685	-0.227941
H221	H	1.073297	0.121648	0.105392
H222	H	1.406630	0.454982	0.438725
H223	H	1.097798	-0.191560	-1.027256
H224	H	1.431132	0.141774	-0.693923
H225	H	1.764465	0.475107	-0.360590
H226	H	0.912425	-0.363926	-0.571144
H227	H	1.245758	-0.030593	-0.237810
H228	H	1.579092	0.302740	0.095523
H229	H	1.083648	-1.037462	-0.377506
H230	H	1.416981	-0.704129	-0.044173
H231	H	1.750315	-0.370795	0.289161
H232	H	0.926576	-0.636858	-0.220249
H233	H	1.259909	-0.303524	0.113085
H234	H	1.593243	0.029809	0.446418
H235	H	1.083609	-0.918199	-0.377479
H236	H	1.416942	-0.584865	-0.044146
H237	H	1.750275	-0.251532	0.289188
H238	H	0.606405	-0.216708	-0.233304
H239	H	0.939739	0.116626	0.100029
H240	H	1.273072	0.449959	0.433362
H241	H	0.926737	-1.037692	-0.220316
H242	H	1.260070	-0.704359	0.113017
H243	H	1.593404	-0.371025	0.446351
H244	H	0.733427	-0.364066	-0.391217
H245	H	1.066760	-0.030733	-0.057884
H246	H	1.400093	0.302600	0.275449
H247	H	0.404400	-0.338982	-0.364355
H248	H	0.737734	-0.005649	-0.031021
H249	H	1.071067	0.327684	0.302312
H250	H	0.599857	-0.369080	-0.396596
H251	H	0.933191	-0.035746	-0.063262
H252	H	1.266524	0.297587	0.270071
H253	H	0.934108	-0.343741	-1.033730
H254	H	1.267442	-0.010408	-0.700397
H255	H	1.600775	0.322926	-0.367064
H256	H	0.277380	-0.191613	-0.206455
H257	H	0.610713	0.141720	0.126879
H258	H	0.944047	0.475054	0.460212
H259	H	0.907081	-0.368892	-0.704710
H260	H	1.240415	-0.035558	-0.371377
H261	H	1.573748	0.297775	-0.038044
H262	H	0.410951	-0.186609	-0.201074
H263	H	0.744284	0.146724	0.132259
H264	H	1.077617	0.480058	0.465593
H265	H	1.083443	-0.517362	-0.377408
H266	H	1.416776	-0.184029	-0.044075
H267	H	1.750110	0.149304	0.289258
H268	H	1.083481	-0.636628	-0.377440
H269	H	1.416815	-0.303295	-0.044106
H270	H	1.750148	0.030039	0.289227
H271	H	0.926692	-0.918424	-0.220291
H272	H	1.260026	-0.585090	0.113043
H273	H	1.593359	-0.251757	0.446376
H274	H	1.076127	-0.211753	-0.564668
H275	H	1.409461	0.121580	-0.231335
H276	H	1.742794	0.454913	0.101998
H277	H	0.939464	-0.338782	-0.900175
H278	H	1.272798	-0.005449	-0.566841
H279	H	1.606131	0.327884	-0.233508
