data_functionalizedCrystal
_audit_creation_method	'MofGen! by Chris Wilmer'
_symmetry_space_group_name_H-M	'P1'
_symmetry_Int_Tables_number	1
_symmetry_cell_setting	triclinic
loop_
_symmetry_equiv_pos_as_xyz
  x,y,z
_cell_length_a	12.837943
_cell_length_b	19.288864
_cell_length_c	18.366186
_cell_angle_alpha	89.971967
_cell_angle_beta	89.992268
_cell_angle_gamma	88.982594
loop_
_atom_site_label
_atom_site_type_symbol
_atom_site_fract_x
_atom_site_fract_y
_atom_site_fract_z
O1	O	1.374618	0.180513	-0.060609
O2	O	1.072854	0.171596	-0.060610
O3	O	1.232455	0.075520	-0.060564
O4	O	1.215016	0.276590	-0.060654
O5	O	1.232428	0.075513	0.060535
O6	O	1.072827	0.171589	0.060490
O7	O	1.374591	0.180506	0.060490
Zn8	Zn	1.223704	0.176047	0.079717
Zn9	Zn	1.223740	0.176056	-0.079836
O10	O	1.214989	0.276583	0.060445
C11	C	1.034234	0.168581	-0.000059
C12	C	0.919198	0.159596	-0.000057
C13	C	0.677736	0.267602	-0.000095
C14	C	0.569649	0.259164	-0.000093
C15	C	0.594937	0.134283	-0.000045
C16	C	0.703023	0.142721	-0.000047
C17	C	0.744419	0.209383	-0.000073
C18	C	0.852507	0.217820	-0.000081
C19	C	0.877793	0.092940	-0.000028
C20	C	0.769706	0.084501	-0.000025
C21	C	1.231881	0.049602	-0.000005
C22	C	1.230196	-0.027617	0.000025
C23	C	1.413211	0.183522	-0.000062
C24	C	1.528246	0.192506	-0.000068
C25	C	1.215564	0.302501	-0.000116
C26	C	1.217248	0.379720	-0.000151
N27	N	1.223688	0.176040	0.188608
C28	C	1.123601	0.418021	-0.000136
C29	C	1.125184	0.490576	-0.000120
C30	C	1.220418	0.524827	-0.000103
C31	C	1.314078	0.486516	-0.000122
C32	C	1.312493	0.413963	-0.000146
C33	C	1.295274	0.638187	0.042362
C34	C	1.296855	0.710739	0.042390
C35	C	1.225312	0.748607	-0.000033
C36	C	1.152169	0.713913	-0.042476
C37	C	1.150584	0.641360	-0.042499
C38	C	1.222148	0.603499	-0.000078
C39	C	1.133374	0.865581	-0.000002
C40	C	1.134960	0.938138	0.000010
C41	C	1.323857	0.934076	0.000015
C42	C	1.322268	0.861521	-0.000004
C43	C	1.227024	0.827278	-0.000009
N44	N	1.223765	0.176057	-0.188728
C45	C	1.294382	0.133523	0.226729
C46	C	1.294389	0.133520	0.302957
C47	C	1.223711	0.176048	0.341061
C48	C	1.153003	0.218568	0.302931
C49	C	1.152991	0.218565	0.226705
C50	C	1.209838	0.238388	0.461793
C51	C	1.209857	0.238393	0.538018
C52	C	1.223740	0.176058	0.576169
C53	C	1.237626	0.113717	0.538085
C54	C	1.237615	0.113714	0.461858
C55	C	1.223715	0.176056	0.423716
C56	C	1.294446	0.133534	0.696944
C57	C	1.294445	0.133530	0.773173
C58	C	1.153064	0.218585	0.773147
C59	C	1.153060	0.218582	0.696919
C60	C	1.223756	0.176058	0.658822
H61	H	0.932098	0.045533	-0.000015
F62	F	1.371431	0.597892	0.087513
F63	F	1.077778	0.263827	0.343485
F64	F	1.252410	0.047371	0.578681
F65	F	1.077821	0.263839	0.656345
F66	F	0.896561	0.288766	-0.000112
H67	H	0.515359	0.306572	-0.000108
F68	F	1.035283	0.978901	0.000017
F69	F	1.195085	0.304742	0.578543
F70	F	1.252385	0.047367	0.421329
F71	F	1.072747	0.604439	-0.087671
H72	H	1.352008	0.098906	0.665924
H73	H	1.401399	0.961962	-0.000024
F74	F	1.421941	0.820756	-0.000014
H75	H	1.352010	0.098903	0.804212
F76	F	1.022233	0.381582	-0.000148
F77	F	1.374656	0.747656	0.087596
H78	H	1.095512	0.253209	0.804171
H79	H	0.711440	0.321880	-0.000118
F80	F	1.415433	0.522969	-0.000108
F81	F	1.195136	0.304745	0.421198
F82	F	1.369636	0.088264	0.343534
H83	H	1.388754	0.382778	-0.000158
H84	H	1.351945	0.098895	0.195713
F85	F	1.077746	0.263820	0.186133
H86	H	0.735987	0.030227	0.000005
H87	H	0.561214	0.080010	0.000037
H88	H	1.048923	0.521768	-0.000107
H89	H	1.093906	0.744744	-0.077016
F90	F	1.032008	0.829135	-0.000011
