data_functionalizedCrystal
_audit_creation_method	'MofGen! by Chris Wilmer'
_symmetry_space_group_name_H-M	'P1'
_symmetry_Int_Tables_number	1
_symmetry_cell_setting	triclinic
loop_
_symmetry_equiv_pos_as_xyz
  x,y,z
_cell_length_a	16.120542
_cell_length_b	16.120444
_cell_length_c	16.120297
_cell_angle_alpha	84.384883
_cell_angle_beta	90.127087
_cell_angle_gamma	89.835691
loop_
_atom_site_label
_atom_site_type_symbol
_atom_site_fract_x
_atom_site_fract_y
_atom_site_fract_z
Zn1	Zn	-1.224978	-0.422357	0.554850
Zn2	Zn	-0.891645	-0.089023	0.888183
Zn3	Zn	-0.558311	0.244310	1.221516
Zn4	Zn	-1.224871	-0.555041	0.422156
Zn5	Zn	-0.891538	-0.221708	0.755490
Zn6	Zn	-0.558204	0.111626	1.088823
Zn7	Zn	-1.093718	-0.408262	0.408089
Zn8	Zn	-0.760384	-0.074929	0.741422
Zn9	Zn	-0.427051	0.258404	1.074756
Zn10	Zn	-1.078868	-0.554263	0.554085
Zn11	Zn	-0.745535	-0.220929	0.887418
Zn12	Zn	-0.412202	0.112404	1.220752
O13	O	-1.155609	-0.484981	0.484795
O14	O	-0.822275	-0.151647	0.818128
O15	O	-0.488942	0.181686	1.151462
O16	O	-1.340999	-0.446182	0.543455
O17	O	-1.007666	-0.112848	0.876788
O18	O	-0.674333	0.220485	1.210122
O19	O	-1.213643	-0.529998	0.303658
O20	O	-0.880310	-0.196665	0.636991
O21	O	-0.546976	0.136669	0.970324
O22	O	-1.117389	-0.293501	0.421990
O23	O	-0.784056	0.039832	0.755323
O24	O	-0.450722	0.373165	1.088656
O25	O	-1.340921	-0.543664	0.445966
O26	O	-1.007587	-0.210331	0.779299
O27	O	-0.674254	0.123002	1.112632
O28	O	-1.213825	-0.303856	0.529814
O29	O	-0.880492	0.029477	0.863148
O30	O	-0.547159	0.362810	1.196481
O31	O	-1.117285	-0.422160	0.293322
O32	O	-0.783952	-0.088827	0.626656
O33	O	-0.450618	0.244506	0.959989
O34	O	-0.975712	-0.421406	0.421248
O35	O	-0.642379	-0.088072	0.754582
O36	O	-0.309046	0.245261	1.087915
O37	O	-1.092080	-0.542338	0.670819
O38	O	-0.758747	-0.209004	1.004152
O39	O	-0.425414	0.124329	1.337486
O40	O	-0.964803	-0.528671	0.528511
O41	O	-0.631469	-0.195338	0.861844
O42	O	-0.298136	0.137995	1.195178
O43	O	-1.199427	-0.445427	0.671381
O44	O	-0.866093	-0.112093	1.004714
O45	O	-0.532760	0.221240	1.338048
O46	O	-1.199244	-0.671568	0.445224
O47	O	-0.865911	-0.338235	0.778557
O48	O	-0.532578	-0.004902	1.111891
O49	O	-1.091977	-0.670997	0.542152
O50	O	-0.758643	-0.337663	0.875485
O51	O	-0.425310	-0.004330	1.208818
C52	C	-0.940171	-0.473425	0.473271
C53	C	-0.606837	-0.140092	0.806604
C54	C	-0.273504	0.193241	1.139937
C55	C	-0.848003	-0.468503	0.468361
C56	C	-0.514670	-0.135169	0.801695
C57	C	-0.181337	0.198164	1.135028
C58	C	-0.632809	-0.510488	0.510215
C59	C	-0.299475	-0.177155	0.843548
C60	C	0.033858	0.156178	1.176881
C61	C	-0.679257	-0.459523	0.459397
C62	C	-0.345923	-0.126190	0.792730
C63	C	-0.012590	0.207144	1.126064
C64	C	-0.773156	-0.464521	0.464386
C65	C	-0.439823	-0.131188	0.797720
C66	C	-0.106489	0.202146	1.131053
C67	C	-0.538901	-0.505492	0.505227
C68	C	-0.205567	-0.172158	0.838560
C69	C	0.127766	0.161175	1.171893
C70	C	-1.144009	-0.701526	0.495151
C71	C	-0.810676	-0.368192	0.828484
C72	C	-0.477342	-0.034859	1.161817
C73	C	-1.139121	-0.794170	0.499613
C74	C	-0.805788	-0.460836	0.832946
C75	C	-0.472454	-0.127503	1.166280
C76	C	-0.371889	-0.496577	0.496353
C77	C	-0.038556	-0.163244	0.829686
C78	C	0.294778	0.170090	1.163020
C79	C	-0.464057	-0.501506	0.501248
C80	C	-0.130723	-0.168173	0.834581
C81	C	0.202610	0.165161	1.167915
C82	C	-1.181159	-1.005331	0.461837
C83	C	-0.847826	-0.671998	0.795171
C84	C	-0.514492	-0.338664	1.128504
C85	C	-1.130212	-0.963788	0.507769
C86	C	-0.796878	-0.630454	0.841103
C87	C	-0.463545	-0.297121	1.174436
C88	C	-1.135170	-0.869403	0.503230
C89	C	-0.801837	-0.536070	0.836563
C90	C	-0.468504	-0.202737	1.169896
C91	C	-1.176202	-1.099724	0.466376
C92	C	-0.842868	-0.766391	0.799709
C93	C	-0.509535	-0.433057	1.133043
C94	C	-1.144109	-0.495368	0.702187
C95	C	-0.810776	-0.162034	1.035520
C96	C	-0.477442	0.171299	1.368854
C97	C	-1.139209	-0.499794	0.794827
C98	C	-0.805875	-0.166461	1.128160
C99	C	-0.472542	0.166873	1.461493
C100	C	-1.167275	-0.267592	0.474418
C101	C	-0.833942	0.065741	0.807752
C102	C	-0.500609	0.399074	1.141085
C103	C	-1.172247	-0.174954	0.469996
C104	C	-0.838914	0.158379	0.803330
C105	C	-0.505580	0.491712	1.136663
C106	C	-1.167115	-0.474577	0.268248
C107	C	-0.833781	-0.141243	0.601582
C108	C	-0.500448	0.192090	0.934915
C109	C	-1.172188	-0.469924	0.175607
C110	C	-0.838855	-0.136591	0.508940
C111	C	-0.505522	0.196743	0.842273
C112	C	-1.130232	-0.507855	0.964438
C113	C	-0.796899	-0.174522	1.297771
C114	C	-0.463565	0.158812	1.631104
C115	C	-1.181162	-0.461865	1.006001
C116	C	-0.847829	-0.128532	1.339334
C117	C	-0.514495	0.204801	1.672667
C118	C	-1.176168	-0.466351	1.100378
C119	C	-0.842834	-0.133017	1.433712
C120	C	-0.509501	0.200316	1.767045
C121	C	-1.135226	-0.503371	0.870052
C122	C	-0.801892	-0.170037	1.203385
C123	C	-0.468559	0.163296	1.536718
H124	H	-0.663562	-0.557871	0.557464
H125	H	-0.330229	-0.224538	0.890797
H126	H	0.003105	0.108796	1.224131
C127	C	-1.245106	-0.957629	0.404106
C128	C	-0.911773	-0.624295	0.737439
C129	C	-0.578439	-0.290962	1.070773
H130	H	-1.276425	-0.996104	0.375884
H131	H	-0.943091	-0.662771	0.709217
H132	H	-0.609758	-0.329437	1.042551
H133	H	-1.217079	-0.920278	0.364476
H134	H	-0.883745	-0.586945	0.697809
H135	H	-0.550412	-0.253612	1.031142
H136	H	-1.281276	-0.927077	0.436349
H137	H	-0.947943	-0.593743	0.769682
H138	H	-0.614610	-0.260410	1.103016
H139	H	-1.082870	-0.999106	0.550502
H140	H	-0.749536	-0.665773	0.883835
H141	H	-0.416203	-0.332439	1.217169
C142	C	-1.245139	-0.404131	0.958325
C143	C	-0.911805	-0.070798	1.291658
C144	C	-0.578472	0.262535	1.624991
H145	H	-1.240152	-0.408659	0.900228
H146	H	-0.906818	-0.075325	1.233561
H147	H	-0.573485	0.258008	1.566895
H148	H	-1.235280	-0.348141	0.969207
H149	H	-0.901947	-0.014808	1.302541
H150	H	-0.568613	0.318525	1.635874
H151	H	-1.299460	-0.419992	0.976117
H152	H	-0.966126	-0.086659	1.309450
H153	H	-0.632793	0.246674	1.642783
H154	H	-1.082883	-0.550594	0.999732
H155	H	-0.749550	-0.217260	1.333065
H156	H	-0.416216	0.116073	1.666399
H157	H	-0.648501	-0.412137	0.412144
H158	H	-0.315168	-0.078804	0.745477
H159	H	0.018165	0.254529	1.078810
