data_functionalizedCrystal
_audit_creation_method	'MofGen! by Chris Wilmer'
_symmetry_space_group_name_H-M	'P1'
_symmetry_Int_Tables_number	1
_symmetry_cell_setting	triclinic
loop_
_symmetry_equiv_pos_as_xyz
  x,y,z
_cell_length_a	21.395362
_cell_length_b	18.101395
_cell_length_c	21.395364
_cell_angle_alpha	90.001096
_cell_angle_beta	90.036401
_cell_angle_gamma	90.046983
loop_
_atom_site_label
_atom_site_type_symbol
_atom_site_fract_x
_atom_site_fract_y
_atom_site_fract_z
Zn1	Zn	0.957811	-0.294709	0.354598
Zn2	Zn	1.291144	0.038625	0.687931
Zn3	Zn	1.624478	0.371958	1.021264
Zn4	Zn	0.957727	-0.418500	0.249825
Zn5	Zn	1.291060	-0.085167	0.583159
Zn6	Zn	1.624393	0.248166	0.916492
Zn7	Zn	0.853040	-0.294711	0.249799
Zn8	Zn	1.186373	0.038622	0.583132
Zn9	Zn	1.519706	0.371955	0.916466
Zn10	Zn	0.852994	-0.418547	0.354530
Zn11	Zn	1.186328	-0.085214	0.687863
Zn12	Zn	1.519661	0.248120	1.021197
O13	O	0.905393	-0.356617	0.302188
O14	O	1.238726	-0.023284	0.635521
O15	O	1.572060	0.310050	0.968855
O16	O	1.045478	-0.311109	0.340739
O17	O	1.378811	0.022224	0.674072
O18	O	1.712144	0.355558	1.007405
O19	O	0.943823	-0.402061	0.162144
O20	O	1.277157	-0.068728	0.495477
O21	O	1.610490	0.264606	0.828810
O22	O	0.866992	-0.191078	0.263718
O23	O	1.200326	0.142255	0.597051
O24	O	1.533659	0.475589	0.930385
O25	O	1.045416	-0.402058	0.263763
O26	O	1.378749	-0.068725	0.597096
O27	O	1.712082	0.264608	0.930429
O28	O	0.943967	-0.191076	0.340713
O29	O	1.277301	0.142257	0.674046
O30	O	1.610634	0.475591	1.007380
O31	O	0.866910	-0.311114	0.162124
O32	O	1.200244	0.022219	0.495458
O33	O	1.533577	0.355553	0.828791
O34	O	0.765356	-0.311159	0.263652
O35	O	1.098689	0.022174	0.596986
O36	O	1.432023	0.355507	0.930319
O37	O	0.866915	-0.402138	0.442217
O38	O	1.200248	-0.068805	0.775550
O39	O	1.533582	0.264529	1.108883
O40	O	0.765323	-0.402141	0.340598
O41	O	1.098656	-0.068808	0.673931
O42	O	1.431989	0.264526	1.007264
O43	O	0.943923	-0.311154	0.442266
O44	O	1.277257	0.022179	0.775600
O45	O	1.610590	0.355512	1.108933
O46	O	0.943779	-0.522139	0.263697
O47	O	1.277113	-0.188806	0.597031
O48	O	1.610446	0.144527	0.930364
O49	O	0.866833	-0.522174	0.340623
O50	O	1.200166	-0.188841	0.673957
O51	O	1.533500	0.144493	1.007290
C52	C	0.742605	-0.356656	0.302115
C53	C	1.075939	-0.023323	0.635449
C54	C	1.409272	0.310011	0.968782
C55	C	0.672964	-0.356691	0.302099
C56	C	1.006297	-0.023357	0.635432
C57	C	1.339631	0.309976	0.968766
C58	C	0.905309	-0.549027	0.302169
C59	C	1.238642	-0.215694	0.635503
C60	C	1.571976	0.117639	0.968836
C61	C	0.905331	-0.631342	0.302182
C62	C	1.238664	-0.298008	0.635516
C63	C	1.571997	0.035325	0.968849
C64	C	0.640250	-0.404127	0.342104
C65	C	0.973583	-0.070794	0.675438
C66	C	1.306917	0.262539	1.008771
C67	C	0.574815	-0.404109	0.342132
C68	C	0.908148	-0.070776	0.675466
C69	C	1.241481	0.262557	1.008799
C70	C	0.542096	-0.356662	0.302144
C71	C	0.875429	-0.023329	0.635477
C72	C	1.208762	0.310005	0.968810
C73	C	0.574818	-0.309216	0.262135
C74	C	0.908151	0.024117	0.595469
C75	C	1.241484	0.357451	0.928802
C76	C	0.640252	-0.309230	0.262113
C77	C	0.973585	0.024103	0.595446
C78	C	1.306919	0.357436	0.928780
C79	C	0.438378	-0.350679	0.245738
C80	C	0.771712	-0.017346	0.579071
C81	C	1.105045	0.315988	0.912405
C82	C	0.372946	-0.350670	0.245759
C83	C	0.706279	-0.017337	0.579093
C84	C	1.039612	0.315997	0.912426
C85	C	0.340275	-0.356614	0.302213
C86	C	0.673608	-0.023280	0.635546
C87	C	1.006942	0.310053	0.968879
C88	C	0.373046	-0.362582	0.358647
C89	C	0.706379	-0.029249	0.691980
C90	C	1.039712	0.304084	1.025313
C91	C	0.438480	-0.362596	0.358624
C92	C	0.771813	-0.029263	0.691958
C93	C	1.105146	0.304070	1.025291
C94	C	0.471143	-0.356641	0.302164
C95	C	0.804477	-0.023308	0.635497
C96	C	1.137810	0.310026	0.968830
C97	C	0.236608	-0.404033	0.342252
C98	C	0.569942	-0.070700	0.675585
C99	C	0.903275	0.262633	1.008919
C100	C	0.171172	-0.404010	0.342281
C101	C	0.504505	-0.070677	0.675614
C102	C	0.837839	0.262657	1.008948
C103	C	0.171176	-0.309121	0.262278
C104	C	0.504510	0.024213	0.595612
C105	C	0.837843	0.357546	0.928945
C106	C	0.236612	-0.309140	0.262255
C107	C	0.569945	0.024193	0.595588
C108	C	0.903278	0.357526	0.928922
C109	C	0.269324	-0.356601	0.302241
C110	C	0.602657	-0.023267	0.635574
C111	C	0.935990	0.310066	0.968907
C112	C	0.905468	-0.930432	0.302216
C113	C	1.238801	-0.597099	0.635550
C114	C	1.572135	-0.263766	0.968883
C115	C	0.857168	-0.899160	0.350736
C116	C	1.190501	-0.565826	0.684070
C117	C	1.523835	-0.232493	1.017403
C118	C	0.856938	-0.813542	0.350584
C119	C	1.190272	-0.480208	0.683918
C120	C	1.523605	-0.146875	1.017251
C121	C	0.905400	-0.782050	0.302200
C122	C	1.238733	-0.448717	0.635533
C123	C	1.572067	-0.115383	0.968867
C124	C	0.887526	-0.813171	0.236161
C125	C	1.220859	-0.479838	0.569494
C126	C	1.554193	-0.146505	0.902827
C127	C	0.887215	-0.898817	0.236451
C128	C	1.220548	-0.565484	0.569784
C129	C	1.553881	-0.232150	0.903118
C130	C	0.971748	-0.898764	0.319154
C131	C	1.305081	-0.565430	0.652488
C132	C	1.638415	-0.232097	0.985821
C133	C	0.971358	-0.813113	0.320602
C134	C	1.304692	-0.479780	0.653936
C135	C	1.638025	-0.146447	0.987269
C136	C	0.905362	-0.698190	0.302187
C137	C	1.238696	-0.364857	0.635520
C138	C	1.572029	-0.031524	0.968853
C139	C	0.905504	-1.014292	0.302225
C140	C	1.238837	-0.680959	0.635558
C141	C	1.572171	-0.347625	0.968892
C142	C	1.068816	-0.356578	0.302261
C143	C	1.402150	-0.023245	0.635595
C144	C	1.735483	0.310089	0.968928
C145	C	1.138458	-0.356562	0.302292
C146	C	1.471791	-0.023228	0.635626
C147	C	1.805124	0.310105	0.968959
C148	C	0.905423	-0.356651	0.465611
C149	C	1.238757	-0.023318	0.798944
C150	C	1.572090	0.310015	1.132278
C151	C	0.905436	-0.356666	0.535252
C152	C	1.238770	-0.023332	0.868586
C153	C	1.572103	0.310001	1.201919
C154	C	0.905494	-0.163455	0.302220
C155	C	1.238828	0.169878	0.635553
C156	C	1.572161	0.503212	0.968887
C157	C	0.905537	-0.081141	0.302234
C158	C	1.238871	0.252193	0.635567
C159	C	1.572204	0.585526	0.968901
C160	C	0.945529	-0.309299	0.567992
C161	C	1.278862	0.024035	0.901326
C162	C	1.612195	0.357368	1.234659
C163	C	0.945519	-0.309286	0.633428
C164	C	1.278852	0.024047	0.966761
C165	C	1.612186	0.357380	1.300094
C166	C	0.905424	-0.356655	0.666121
C167	C	1.238757	-0.023322	0.999454
C168	C	1.572091	0.310012	1.332787
C169	C	0.865324	-0.404025	0.633373
C170	C	1.198657	-0.070692	0.966706
C171	C	1.531991	0.262641	1.300039
C172	C	0.865330	-0.404031	0.567939
C173	C	1.198664	-0.070698	0.901272
C174	C	1.531997	0.262636	1.234605
C175	C	0.900434	-0.423369	0.769787
C176	C	1.233767	-0.090036	1.103121
C177	C	1.567101	0.243297	1.436454
C178	C	0.900432	-0.423365	0.835220
C179	C	1.233766	-0.090032	1.168554
C180	C	1.567099	0.243302	1.501887
C181	C	0.905401	-0.356638	0.867941
C182	C	1.238735	-0.023304	1.201275
C183	C	1.572068	0.310029	1.534608
C184	C	0.910385	-0.289912	0.835222
C185	C	1.243719	0.043421	1.168555
C186	C	1.577052	0.376754	1.501888
C187	C	0.910392	-0.289918	0.769788
C188	C	1.243725	0.043416	1.103121
C189	C	1.577058	0.376749	1.436454
C190	C	0.905413	-0.356654	0.737073
C191	C	1.238746	-0.023321	1.070406
C192	C	1.572079	0.310013	1.403740
C193	C	0.945485	-0.309253	0.971634
C194	C	1.278819	0.024080	1.304967
C195	C	1.612152	0.357414	1.638301
C196	C	0.945472	-0.309240	1.037071
C197	C	1.278805	0.024094	1.370404
C198	C	1.612138	0.357427	1.703737
C199	C	0.865280	-0.403985	1.037014
C200	C	1.198613	-0.070652	1.370348
C201	C	1.531946	0.262681	1.703681
C202	C	0.865290	-0.403992	0.971579
C203	C	1.198624	-0.070659	1.304912
C204	C	1.531957	0.262674	1.638246
C205	C	0.905397	-0.356627	0.938893
C206	C	1.238730	-0.023294	1.272226
C207	C	1.572063	0.310040	1.605559
C208	C	0.905366	-0.356605	1.139400
C209	C	1.238699	-0.023272	1.472734
C210	C	1.572032	0.310062	1.806067
C211	C	0.905375	-0.356608	1.069759
C212	C	1.238709	-0.023275	1.403092
C213	C	1.572042	0.310059	1.736426
H214	H	0.666880	-0.442772	0.374665
H215	H	1.000214	-0.109439	0.707998
H216	H	1.333547	0.223894	1.041332
F217	F	1.018786	-0.925203	0.272972
F218	F	1.352119	-0.591869	0.606305
F219	F	1.685453	-0.258536	0.939639
H220	H	0.978166	-0.270710	0.660090
H221	H	1.311499	0.062623	0.993423
H222	H	1.644832	0.395956	1.326757
H223	H	0.978118	-0.270663	1.063726
H224	H	1.311452	0.062670	1.397060
H225	H	1.644785	0.396003	1.730393
H226	H	0.807810	-0.793129	0.339363
H227	H	1.141143	-0.459795	0.672696
H228	H	1.474477	-0.126462	1.006030
F229	F	0.931197	-0.925857	0.187583
F230	F	1.264530	-0.592524	0.520916
F231	F	1.597864	-0.259191	0.854249
F232	F	0.823887	-0.925027	0.217701
F233	F	1.157220	-0.591694	0.551034
F234	F	1.490554	-0.258361	0.884367
F235	F	0.895133	-0.494379	0.870037
F236	F	1.228467	-0.161046	1.203370
F237	F	1.561800	0.172287	1.536704
H238	H	0.548174	-0.442738	0.374712
H239	H	0.881507	-0.109404	0.708045
H240	H	1.214840	0.223929	1.041379
F241	F	0.473354	-0.368945	0.418683
F242	F	0.806687	-0.035612	0.752017
F243	F	1.140021	0.297722	1.085350
H244	H	0.868239	-0.919730	0.399862
H245	H	1.201573	-0.586397	0.733195
H246	H	1.534906	-0.253064	1.066528
F247	F	0.993049	-0.926954	0.381026
F248	F	1.326382	-0.593621	0.714360
F249	F	1.659716	-0.260287	1.047693
H250	H	0.832676	-0.442591	0.659996
H251	H	1.166010	-0.109258	0.993329
H252	H	1.499343	0.224076	1.326662
F253	F	0.793345	-0.927401	0.336264
F254	F	1.126679	-0.594067	0.669598
F255	F	1.460012	-0.260734	1.002931
H256	H	0.914448	-0.235588	0.743150
H257	H	1.247781	0.097745	1.076483
H258	H	1.581115	0.431079	1.409816
F259	F	0.136355	-0.454498	0.384866
F260	F	0.469689	-0.121164	0.718199
F261	F	0.803022	0.212169	1.051533
H262	H	0.832680	-0.442602	0.541282
H263	H	1.166013	-0.109269	0.874615
H264	H	1.499346	0.224065	1.207949
H265	H	0.978139	-0.270682	0.945019
H266	H	1.311472	0.062652	1.278353
H267	H	1.644805	0.395985	1.611686
H268	H	0.832627	-0.442546	1.063632
H269	H	1.165961	-0.109213	1.396966
H270	H	1.499294	0.224120	1.730299
F271	F	0.915676	-0.218891	0.870041
F272	F	1.249010	0.114443	1.203374
F273	F	1.582343	0.447776	1.536707
F274	F	0.932061	-0.786507	0.187617
F275	F	1.265394	-0.453174	0.520950
F276	F	1.598727	-0.119840	0.854284
F277	F	0.136359	-0.258620	0.219722
F278	F	0.469692	0.074714	0.553055
F279	F	0.803026	0.408047	0.886389
F280	F	0.895159	-0.494396	0.734969
F281	F	1.228493	-0.161063	1.068303
F282	F	1.561826	0.172271	1.401636
F283	F	0.822620	-0.454410	0.936733
F284	F	1.155954	-0.121077	1.270067
F285	F	1.489287	0.212256	1.603400
F286	F	0.824868	-0.785234	0.217074
F287	F	1.158201	-0.451901	0.550407
F288	F	1.491534	-0.118568	0.883741
H289	H	0.346447	-0.367421	0.404617
H290	H	0.679780	-0.034088	0.737950
H291	H	1.013113	0.299246	1.071283
F292	F	0.675070	-0.258739	0.219532
F293	F	1.008403	0.074594	0.552865
F294	F	1.341736	0.407928	0.886199
F295	F	0.271430	-0.258653	0.219673
F296	F	0.604763	0.074681	0.553007
F297	F	0.938096	0.408014	0.886340
F298	F	1.020886	-0.785082	0.277784
F299	F	1.354219	-0.451749	0.611118
F300	F	1.687552	-0.118415	0.944451
F301	F	0.988211	-0.258885	0.533209
F302	F	1.321544	0.074448	0.866542
F303	F	1.654877	0.407782	1.199876
F304	F	0.271425	-0.454541	0.384811
F305	F	0.604759	-0.121207	0.718144
F306	F	0.938092	0.212126	1.051477
H307	H	0.346269	-0.345815	0.199807
H308	H	0.679602	-0.012481	0.533141
H309	H	1.012935	0.320852	0.866474
H310	H	0.464973	-0.345836	0.199764
H311	H	0.798307	-0.012502	0.533097
H312	H	1.131640	0.320831	0.866431
H313	H	0.868121	-0.792500	0.399551
H314	H	1.201454	-0.459167	0.732884
H315	H	1.534787	-0.125834	1.066218
F316	F	0.539995	-0.258716	0.219579
F317	F	0.873329	0.074617	0.552912
F318	F	1.206662	0.407950	0.886246
H319	H	0.984837	-0.792772	0.369204
H320	H	1.318170	-0.459439	0.702537
H321	H	1.651504	-0.126106	1.035870
