data_functionalizedCrystal
_audit_creation_method	'MofGen! by Chris Wilmer'
_symmetry_space_group_name_H-M	'P1'
_symmetry_Int_Tables_number	1
_symmetry_cell_setting	triclinic
loop_
_symmetry_equiv_pos_as_xyz
  x,y,z
_cell_length_a	18.426585
_cell_length_b	17.053046
_cell_length_c	17.052832
_cell_angle_alpha	62.965768
_cell_angle_beta	77.684430
_cell_angle_gamma	67.551571
loop_
_atom_site_label
_atom_site_type_symbol
_atom_site_fract_x
_atom_site_fract_y
_atom_site_fract_z
Zr1	Zr	0.831158	0.721173	0.052076
O2	O	0.761781	0.858617	-0.046081
O3	O	0.837722	0.583727	0.061360
O4	O	0.891978	0.721176	-0.076088
O5	O	0.681453	0.721166	0.223457
O6	O	1.011406	0.721181	-0.076091
O7	O	0.707525	0.721168	0.091368
O8	O	0.914351	0.475309	0.169780
O9	O	0.778507	0.967037	-0.022413
O10	O	0.947413	0.640264	0.090456
O11	O	0.838828	0.640260	0.189035
O12	O	0.902708	0.802088	0.027207
O13	O	0.794123	0.802083	0.125786
Zr14	Zr	0.980048	0.721177	0.262740
Zr15	Zr	1.021631	0.721180	0.052072
Zr16	Zr	0.789575	0.721170	0.262744
Zr17	Zr	0.857833	0.894091	0.089824
Zr18	Zr	0.953373	0.548259	0.224993
O19	O	0.973484	0.858623	0.253456
O20	O	1.032609	0.858627	-0.046086
O21	O	0.702656	0.858613	0.253462
O22	O	1.049425	0.583733	0.360898
O23	O	1.108550	0.583737	0.061355
O24	O	0.778597	0.583723	0.360903
O25	O	1.129753	0.721184	0.091359
O26	O	0.919227	0.721174	0.390905
O27	O	0.799800	0.721170	0.390907
O28	O	1.103681	0.721182	0.223449
O29	O	0.929907	0.967043	-0.022416
O30	O	0.881299	0.475307	0.337233
O31	O	1.032699	0.475313	0.337230
O32	O	1.065752	0.475315	0.169777
O33	O	0.745454	0.967035	0.145040
O34	O	0.896854	0.967041	0.145037
O35	O	0.908498	0.640262	0.287610
O36	O	1.017083	0.640267	0.189031
O37	O	0.972377	0.802090	0.125782
O38	O	0.863793	0.802086	0.224361
C39	C	0.872236	0.504881	0.110192
C40	C	0.860912	0.431473	0.094167
C41	C	0.997837	-0.014376	0.287909
C42	C	1.008491	0.054587	0.302965
C43	C	0.971597	0.148811	0.250767
C44	C	0.924048	0.174066	0.183510
C45	C	0.913398	0.105096	0.168449
C46	C	0.887158	0.268284	0.131306
C47	C	0.839609	0.293539	0.064050
C48	C	0.828961	0.224574	0.048992
C49	C	0.865855	0.130350	0.101189
C50	C	0.897807	0.337254	0.146368
C51	C	0.813368	0.456726	0.026908
C52	C	0.802715	0.387763	0.011852
C53	C	0.667351	0.721166	0.157413
C54	C	0.586490	0.721163	0.157415
C55	C	0.290383	0.721191	0.157404
C56	C	0.372768	0.721187	0.157405
C57	C	0.438434	0.721177	0.157408
C58	C	0.520824	0.721173	0.157411
C59	C	1.143855	0.721184	0.157404
C60	C	1.224716	0.721187	0.157402
C61	C	0.957617	0.721179	-0.106105
C62	C	0.975270	0.721180	-0.195539
C63	C	0.938970	0.937469	0.204625
C64	C	0.950294	1.010877	0.220650
C65	C	0.761846	0.721165	-0.447627
C66	C	0.745261	0.721157	-0.363597
C67	C	0.802761	0.721163	-0.321579
C68	C	0.876851	0.721176	-0.363598
C69	C	0.893440	0.721175	-0.447634
C70	C	0.934355	0.721174	-0.321585
C71	C	1.008445	0.721187	-0.363605
C72	C	1.025031	0.721187	-0.447632
C73	C	0.967530	0.721181	-0.489651
C74	C	0.917766	0.721175	-0.237550
C75	C	1.049359	0.721185	-0.237556
C76	C	1.065945	0.721193	-0.321586
C77	C	0.853589	0.721171	0.420922
C78	C	0.835936	0.721170	0.510356
C79	C	1.110488	0.504890	0.110187
C80	C	1.180025	0.431485	0.094161
C81	C	0.820222	0.504877	0.373705
C82	C	0.791245	0.431468	0.447115
C83	C	1.058475	0.504886	0.373701
C84	C	1.110358	0.431480	0.447108
C85	C	0.752731	0.937464	-0.058884
C86	C	0.700848	1.010870	-0.132292
C87	C	0.700717	0.937460	0.204629
C88	C	0.631181	1.010865	0.220656
C89	C	0.990983	0.937473	-0.058889
C90	C	1.019961	1.010882	-0.132298
C91	C	1.176315	0.397012	0.035170
C92	C	1.241649	0.328050	0.020094
C93	C	1.310692	0.293557	0.064014
C94	C	1.314401	0.328036	0.123007
C95	C	1.249069	0.397002	0.138078
C96	C	0.814002	0.396995	0.533053
C97	C	0.786771	0.328029	0.602039
C98	C	0.736788	0.293532	0.585084
C99	C	0.714028	0.328011	0.499137
C100	C	0.741255	0.396981	0.430154
C101	C	1.191411	0.397010	0.430124
C102	C	1.240171	0.328047	0.499093
C103	C	1.207876	0.293550	0.585043
C104	C	1.126816	0.328026	0.602027
C105	C	1.078058	0.396993	0.533060
C106	C	0.619796	1.045348	-0.115306
C107	C	0.571039	1.114333	-0.184269
C108	C	0.603335	1.148834	-0.270219
C109	C	0.684395	1.114353	-0.287204
C110	C	0.733151	1.045374	-0.218240
C111	C	0.634894	1.045345	0.279639
C112	C	0.569567	1.114327	0.294696
C113	C	0.500525	1.148822	0.250774
C114	C	0.496815	1.114339	0.191784
C115	C	0.562143	1.045364	0.176723
C116	C	1.069943	1.045357	-0.115316
C117	C	1.097185	1.114324	-0.184286
C118	C	1.074439	1.148819	-0.270236
C119	C	1.024453	1.114337	-0.287217
C120	C	0.997217	1.045367	-0.218249
H121	H	0.980273	0.204961	0.263029
Br122	Br	1.125585	0.721183	-0.504653
H123	H	0.673329	0.299914	0.485345
H124	H	0.799147	1.017302	-0.232082
H125	H	0.936522	0.316682	0.201130
Br126	Br	0.683821	0.721141	-0.504645
Br127	Br	0.817219	0.721156	-0.180533
Br128	Br	1.166492	0.721211	-0.378622
Br129	Br	1.073017	0.020311	0.394239
Br130	Br	0.929375	0.998595	-0.241310
H131	H	0.789254	0.721158	-0.253158
H132	H	0.563626	1.205000	-0.326366
Br133	Br	1.236597	0.281269	-0.059968
H134	H	0.805313	0.299964	0.672013
H135	H	0.710683	1.142452	-0.357192
H136	H	0.790250	0.245144	-0.005779
H137	H	1.363883	0.237400	0.051735
Br138	Br	0.968054	0.443762	0.556126
H139	H	0.783328	0.533448	-0.015597
Br140	Br	0.575945	0.998539	0.001333
Br141	Br	0.738184	0.422026	-0.079419
Br142	Br	1.082998	0.281199	0.718680
Br143	Br	1.408106	0.281212	0.182609
H144	H	0.722722	0.425040	0.360181
Br145	Br	0.881840	0.443793	0.556086
Br146	Br	1.254115	0.443774	0.218146
Br147	Br	0.728585	0.998548	0.339257
H148	H	0.714624	0.237372	0.641262
Br149	Br	0.574619	1.161108	0.374758
Br150	Br	1.274059	0.199951	0.678633
H151	H	0.447337	1.204986	0.263046
Br152	Br	1.165017	1.161110	-0.161219
Br153	Br	0.851388	0.036749	0.080768
H154	H	0.684938	0.721146	-0.329387
H155	H	1.217721	0.425088	0.360144
Br156	Br	1.047910	-0.142246	0.358733
H157	H	1.306172	0.299983	0.485248
Br158	Br	0.403109	1.161162	0.132184
H159	H	0.559109	1.017292	0.128696
Br160	Br	0.461034	1.161112	-0.161199
H161	H	1.088471	1.017282	-0.045337
Br162	Br	1.111409	1.242424	-0.363826
H163	H	1.005938	1.142434	-0.357206
Br164	Br	1.127402	0.721184	-0.180534
Br165	Br	0.990039	0.721200	-0.603700
H166	H	1.120107	0.425095	-0.000607
