data_functionalizedCrystal
_audit_creation_method	'MofGen! by Chris Wilmer'
_symmetry_space_group_name_H-M	'P1'
_symmetry_Int_Tables_number	1
_symmetry_cell_setting	triclinic
loop_
_symmetry_equiv_pos_as_xyz
  x,y,z
_cell_length_a	18.215405
_cell_length_b	21.395364
_cell_length_c	21.395355
_cell_angle_alpha	90.025600
_cell_angle_beta	89.983159
_cell_angle_gamma	89.979767
loop_
_atom_site_label
_atom_site_type_symbol
_atom_site_fract_x
_atom_site_fract_y
_atom_site_fract_z
Zn1	Zn	-0.293119	-0.957894	-0.354286
Zn2	Zn	-0.416167	-0.957811	-0.249512
Zn3	Zn	-0.293113	-0.853109	-0.249521
Zn4	Zn	-0.416143	-0.853093	-0.354250
O5	O	-0.354635	-0.905476	-0.301892
O6	O	-0.309454	-1.045561	-0.340399
O7	O	-0.399852	-0.943894	-0.161835
O8	O	-0.190130	-0.867050	-0.263437
O9	O	-0.399857	-1.045500	-0.263422
O10	O	-0.190134	-0.944035	-0.340408
O11	O	-0.309445	-0.866970	-0.161842
O12	O	-0.309421	-0.765429	-0.263402
O13	O	-0.399815	-0.867023	-0.441933
O14	O	-0.399810	-0.765417	-0.340346
O15	O	-0.309430	-0.944020	-0.441959
O16	O	-0.519148	-0.943878	-0.263387
O17	O	-0.519130	-0.866942	-0.340337
C18	C	-0.354613	-0.742689	-0.301872
C19	C	-0.354621	-0.673048	-0.301878
C20	C	-0.401775	-0.171262	-0.341907
C21	C	-0.401776	-0.236697	-0.341902
C22	C	-0.354641	-0.269409	-0.301902
C23	C	-0.307514	-0.236681	-0.261895
C24	C	-0.307519	-0.171247	-0.261897
C25	C	-0.288320	-0.373090	-0.297051
C26	C	-0.288313	-0.438523	-0.297053
C27	C	-0.354625	-0.471230	-0.301892
C28	C	-0.420945	-0.438496	-0.306741
C29	C	-0.420950	-0.373062	-0.306744
C30	C	-0.354630	-0.340362	-0.301895
C31	C	-0.401753	-0.574903	-0.341888
C32	C	-0.401756	-0.640340	-0.341878
C33	C	-0.307487	-0.640322	-0.261874
C34	C	-0.307491	-0.574887	-0.261881
C35	C	-0.354623	-0.542181	-0.301891
C36	C	-0.545842	-0.905416	-0.301871
C37	C	-0.627640	-0.905448	-0.301882
C38	C	-0.815775	-0.945553	-0.342015
C39	C	-0.892634	-0.945576	-0.342027
C40	C	-0.892743	-0.865477	-0.261808
C41	C	-0.815886	-0.865452	-0.261800
C42	C	-0.777404	-0.905493	-0.301903
C43	C	-0.931120	-0.905541	-0.301923
C44	C	-1.014454	-0.905566	-0.301935
C45	C	-0.694065	-0.905468	-0.301891
C46	C	-0.162682	-0.905554	-0.301928
C47	C	-0.080883	-0.905587	-0.301943
C48	C	-0.354620	-0.905528	-0.465316
C49	C	-0.354614	-0.905551	-0.534957
C50	C	-0.354654	-0.068900	-0.301909
C51	C	-0.354651	-0.138541	-0.301907
C52	C	-0.307549	-0.945641	-0.567685
C53	C	-0.307517	-0.945640	-0.633120
C54	C	-0.354564	-0.905556	-0.665825
C55	C	-0.401633	-0.865457	-0.633089
C56	C	-0.401658	-0.865455	-0.567655
C57	C	-0.420828	-0.900587	-0.769492
C58	C	-0.420804	-0.900594	-0.834925
C59	C	-0.354486	-0.905559	-0.867646
C60	C	-0.288190	-0.910531	-0.834926
C61	C	-0.288215	-0.910528	-0.769492
C62	C	-0.354542	-0.905553	-0.736778
C63	C	-0.307382	-0.945651	-0.971327
C64	C	-0.307349	-0.945646	-1.036763
C65	C	-0.401472	-0.865466	-1.036731
C66	C	-0.401498	-0.865468	-0.971296
C67	C	-0.354454	-0.905564	-0.938597
C68	C	-0.354597	-0.905461	-0.139105
C69	C	-0.354396	-0.905560	-0.069464
H70	H	-0.269116	-0.548245	-0.229311
H71	H	-0.474941	-0.465124	-0.310686
H72	H	-0.923873	-0.978195	-0.374692
Br73	Br	-0.944973	-0.811135	-0.207388
Br74	Br	-0.198318	-0.328709	-0.290474
Br75	Br	-0.243537	-1.000064	-0.926947
Br76	Br	-0.465478	-0.811051	-0.677473
H77	H	-0.474786	-0.896550	-0.861561
Br78	Br	-0.465314	-0.811056	-1.081109
H79	H	-0.269111	-0.666956	-0.229304
H80	H	-0.784642	-0.832827	-0.229135
Br81	Br	-0.510951	-0.328638	-0.313323
H82	H	-0.234188	-0.914575	-0.861566
H83	H	-0.234311	-0.465170	-0.293112
H84	H	-0.234235	-0.914575	-0.742854
H85	H	-0.440135	-0.666980	-0.374449
H86	H	-0.269137	-0.263319	-0.229326
Br87	Br	-0.465734	-0.281114	-0.396191
Br88	Br	-0.763552	-0.999894	-0.396441
Br89	Br	-0.243561	-0.126837	-0.207607
Br90	Br	-0.243701	-1.000054	-0.523311
Br91	Br	-0.243480	-1.000069	-1.081182
H92	H	-0.474818	-0.896377	-0.742857
Br93	Br	-0.465378	-0.811057	-0.926876
Br94	Br	-0.465536	-0.811041	-0.523235
Br95	Br	-0.465742	-0.126878	-0.396203
Br96	Br	-0.465719	-0.530513	-0.396184
H97	H	-0.269186	-0.978286	-0.659773
