data_functionalizedCrystal
_audit_creation_method	'MofGen! by Chris Wilmer'
_symmetry_space_group_name_H-M	'P1'
_symmetry_Int_Tables_number	1
_symmetry_cell_setting	triclinic
loop_
_symmetry_equiv_pos_as_xyz
  x,y,z
_cell_length_a	9.198806
_cell_length_b	9.065218
_cell_length_c	9.065218
_cell_angle_alpha	85.015885
_cell_angle_beta	90.001336
_cell_angle_gamma	90.004029
loop_
_atom_site_label
_atom_site_type_symbol
_atom_site_fract_x
_atom_site_fract_y
_atom_site_fract_z
O1	O	-0.120890	-1.960401	-0.216354
O2	O	-0.120891	-1.531116	-0.234100
O3	O	-0.120887	-1.754631	-0.010584
O4	O	-0.120893	-1.736885	-0.439869
O5	O	0.120898	-1.754614	-0.010584
O6	O	0.120894	-1.531098	-0.234099
O7	O	0.120895	-1.960383	-0.216353
Cu8	Cu	0.142971	-1.745739	-0.225226
Cu9	Cu	-0.142967	-1.745760	-0.225227
O10	O	0.120892	-1.736867	-0.439868
C11	C	0.000001	-1.476120	-0.232394
C12	C	0.000000	-1.312277	-0.227294
N13	N	0.344085	-1.745735	-0.225225
N14	N	-0.344081	-1.745776	-0.225217
C15	C	0.416284	-1.839580	-0.130961
C16	C	0.583696	-1.839603	-0.130956
C17	C	0.000003	-1.752917	0.044403
C18	C	-0.000004	-1.747817	0.208245
C19	C	-0.000000	-2.015378	-0.218059
C20	C	-0.000009	-2.179221	-0.223158
C21	C	-0.000002	-1.738582	-0.494855
C22	C	-0.000004	-1.743681	-0.658698
H23	H	0.354159	-1.919904	-0.050256
Br24	Br	0.687172	-1.973537	0.003550
Br25	Br	0.552453	-1.611861	-0.359751
H26	H	0.406212	-1.665401	-0.305918
