data_functionalizedCrystal
_audit_creation_method	'MofGen! by Chris Wilmer'
_symmetry_space_group_name_H-M	'P1'
_symmetry_Int_Tables_number	1
_symmetry_cell_setting	triclinic
loop_
_symmetry_equiv_pos_as_xyz
  x,y,z
_cell_length_a	16.959455
_cell_length_b	12.759387
_cell_length_c	12.759394
_cell_angle_alpha	89.968340
_cell_angle_beta	90.011784
_cell_angle_gamma	89.978228
loop_
_atom_site_label
_atom_site_type_symbol
_atom_site_fract_x
_atom_site_fract_y
_atom_site_fract_z
Zn1	Zn	1.208471	-0.594034	-0.418297
Zn2	Zn	1.208388	-0.418352	-0.594014
Zn3	Zn	1.076282	-0.418367	-0.418340
Zn4	Zn	1.076276	-0.593987	-0.593925
O5	O	1.142354	-0.506185	-0.506144
O6	O	1.319071	-0.570743	-0.441625
O7	O	1.190832	-0.271333	-0.570765
O8	O	1.093854	-0.441696	-0.271313
O9	O	1.319010	-0.441670	-0.570723
O10	O	1.190973	-0.570758	-0.271281
O11	O	1.093774	-0.271344	-0.441699
O12	O	0.965670	-0.441650	-0.441613
O13	O	1.093844	-0.741015	-0.570572
O14	O	0.965666	-0.570677	-0.570614
O15	O	1.190967	-0.741049	-0.441539
O16	O	1.190826	-0.441624	-0.741023
O17	O	1.093764	-0.570663	-0.740958
C18	C	0.936988	-0.506161	-0.506109
C19	C	0.849131	-0.506176	-0.506120
C20	C	1.142414	-0.780219	-0.506041
C21	C	1.142439	-0.896995	-0.505997
C22	C	1.142307	-0.506160	-0.779111
C23	C	1.142359	-0.506184	-0.895888
C24	C	0.477634	-0.439141	-0.438918
C25	C	0.477678	-0.573289	-0.573456
C26	C	0.560224	-0.573283	-0.573441
C27	C	0.601478	-0.506203	-0.506164
C28	C	0.560187	-0.439130	-0.438903
C29	C	0.601521	-0.640347	-0.640709
C30	C	0.684072	-0.640343	-0.640698
C31	C	0.725328	-0.573268	-0.573415
C32	C	0.684032	-0.506193	-0.506150
C33	C	0.725287	-0.439113	-0.438873
C34	C	0.683992	-0.372043	-0.371601
C35	C	0.601443	-0.372055	-0.371620
C36	C	0.807877	-0.573255	-0.573396
C37	C	0.807840	-0.439102	-0.438858
C38	C	1.348522	-0.506210	-0.506179
C39	C	1.436379	-0.506220	-0.506194
C40	C	1.243580	-0.897051	-0.371643
C41	C	1.294162	-0.951940	-0.304451
C42	C	1.294181	-1.061662	-0.304413
C43	C	1.243612	-1.116497	-0.371572
C44	C	1.193030	-1.061608	-0.438764
C45	C	1.193018	-0.951884	-0.438798
C46	C	1.091886	-1.061553	-0.573111
C47	C	1.091870	-0.951831	-0.573156
C48	C	1.041317	-1.116388	-0.640270
C49	C	0.990738	-1.061500	-0.707470
C50	C	0.990722	-0.951771	-0.707506
C51	C	1.041288	-0.896942	-0.640349
C52	C	1.142340	-0.233218	-0.506171
C53	C	1.142468	-0.116441	-0.505918
C54	C	1.243505	-0.371917	-0.895903
C55	C	1.294099	-0.304796	-0.950771
C56	C	1.294146	-0.304824	-1.060492
C57	C	1.243594	-0.371983	-1.115348
C58	C	1.193000	-0.439105	-1.060480
C59	C	1.192958	-0.439067	-0.950756
C60	C	1.091859	-0.573375	-1.060466
C61	C	1.091807	-0.573343	-0.950744
C62	C	1.041307	-0.640535	-1.115322
C63	C	0.990708	-0.707652	-1.060453
C64	C	0.990663	-0.707620	-0.950725
C65	C	1.041213	-0.640464	-0.895876
C66	C	1.142423	-0.506234	-0.232110
C67	C	1.142453	-0.506254	-0.115334
H68	H	0.841424	-0.384484	-0.384066
H69	H	1.335260	-0.250117	-0.906097
H70	H	0.717687	-0.694957	-0.695474
H71	H	1.243577	-0.807710	-0.371678
C72	C	1.349781	-0.891625	-0.230574
H73	H	1.379902	-0.940030	-0.190545
H74	H	1.384203	-0.848817	-0.270782
H75	H	1.319545	-0.848830	-0.184799
H76	H	1.335364	-1.106352	-0.249692
H77	H	1.243625	-1.205838	-0.371526
H78	H	1.243643	-0.372010	-1.204689
C79	C	1.041338	-1.237079	-0.640231
H80	H	1.078710	-1.261917	-0.590604
H81	H	0.990342	-1.261897	-0.622040
H82	H	1.054993	-1.261881	-0.708032
C83	C	0.935081	-0.891397	-0.781415
H84	H	0.942307	-0.818196	-0.771819
H85	H	0.946624	-0.909369	-0.852003
H86	H	0.881978	-0.909370	-0.766004
C87	C	0.935117	-1.121813	-0.781335
H88	H	0.904988	-1.073412	-0.821358
H89	H	0.965344	-1.164621	-0.827100
H90	H	0.900692	-1.164608	-0.741109
H91	H	1.041283	-0.807601	-0.640376
H92	H	1.041352	-0.640558	-1.204663
H93	H	0.444083	-0.627896	-0.628236
H94	H	0.567925	-0.694952	-0.695490
H95	H	1.335348	-0.250174	-1.105166
C96	C	1.243453	-0.371878	-0.775212
H97	H	1.280807	-0.322273	-0.750401
H98	H	1.192440	-0.353652	-0.750458
H99	H	1.257097	-0.439686	-0.750319
H100	H	0.949557	-0.762332	-1.105126
C101	C	1.041166	-0.640433	-0.775185
H102	H	1.003793	-0.690022	-0.750361
H103	H	1.092160	-0.658645	-0.750303
H104	H	1.027503	-0.572610	-0.750433
C105	C	0.729377	-0.298260	-0.297601
H106	H	0.784453	-0.307867	-0.307229
H107	H	0.715823	-0.227643	-0.312887
H108	H	0.715865	-0.313771	-0.227025
C109	C	0.556018	-0.298272	-0.297645
H110	H	0.500947	-0.307876	-0.307302
H111	H	0.569548	-0.313757	-0.227065
H112	H	0.569525	-0.227653	-0.312951
H113	H	0.949467	-0.762282	-0.906057
C114	C	0.432215	-0.365366	-0.364928
H115	H	0.377142	-0.374972	-0.374572
H116	H	0.445756	-0.380859	-0.294354
H117	H	0.445717	-0.294744	-0.380229
C118	C	0.853297	-0.647023	-0.647384
H119	H	0.816905	-0.686976	-0.687452
H120	H	0.885486	-0.606750	-0.693103
H121	H	0.885514	-0.692874	-0.607237
