data_functionalizedCrystal
_audit_creation_method	'MofGen! by Chris Wilmer'
_symmetry_space_group_name_H-M	'P1'
_symmetry_Int_Tables_number	1
_symmetry_cell_setting	triclinic
loop_
_symmetry_equiv_pos_as_xyz
  x,y,z
_cell_length_a	12.645331
_cell_length_b	12.645330
_cell_length_c	12.645324
_cell_angle_alpha	90.030760
_cell_angle_beta	89.977874
_cell_angle_gamma	89.973599
loop_
_atom_site_label
_atom_site_type_symbol
_atom_site_fract_x
_atom_site_fract_y
_atom_site_fract_z
Zn1	Zn	1.620661	0.421954	-0.599457
Zn2	Zn	1.620519	0.599263	-0.422200
Zn3	Zn	1.443378	0.422015	-0.422201
Zn4	Zn	1.443332	0.599176	-0.599415
O5	O	1.531973	0.510602	-0.510818
O6	O	1.768990	0.445485	-0.575961
O7	O	1.596981	0.575812	-0.273853
O8	O	1.466974	0.273659	-0.445732
O9	O	1.768885	0.575753	-0.445731
O10	O	1.597224	0.273615	-0.575962
O11	O	1.466836	0.445588	-0.273853
O12	O	1.295025	0.445505	-0.445692
O13	O	1.466895	0.575606	-0.747768
O14	O	1.294990	0.575665	-0.575890
O15	O	1.597178	0.445401	-0.747799
O16	O	1.596936	0.747599	-0.445690
O17	O	1.466757	0.747535	-0.575889
C18	C	1.256543	0.510583	-0.510787
C19	C	1.138713	0.510600	-0.510799
C20	C	1.093817	0.428589	-0.429024
C21	C	0.971257	0.428286	-0.429304
C22	C	0.970887	0.480794	-0.622706
C23	C	1.093484	0.480182	-0.622195
C24	C	1.093481	0.622661	-0.481722
C25	C	0.970874	0.622077	-0.479296
C26	C	1.531854	0.786032	-0.510808
C27	C	1.531901	0.903862	-0.510839
C28	C	1.450318	1.071430	-0.593002
C29	C	1.449919	0.948870	-0.592736
C30	C	1.501650	0.948469	-0.399117
C31	C	1.501134	1.071068	-0.399618
C32	C	1.644177	1.070947	-0.539496
C33	C	1.643507	0.948340	-0.541937
C34	C	1.808478	0.510622	-0.510850
C35	C	1.926308	0.510631	-0.510864
C36	C	1.532047	0.510487	-0.787324
C37	C	1.532079	0.510438	-0.905154
C38	C	1.532083	1.234097	-0.510856
C39	C	1.532035	1.116267	-0.510882
C40	C	1.614059	0.428509	-0.950055
C41	C	1.614411	0.428723	-1.072615
C42	C	1.562018	0.622208	-1.073037
C43	C	1.562583	0.621762	-0.950439
C44	C	1.420018	0.481516	-0.950323
C45	C	1.420650	0.479024	-1.072930
C46	C	1.531959	0.510640	-0.235388
C47	C	1.532133	0.510390	-0.117559
H48	H	1.122511	0.683758	-0.541282
C49	C	1.589134	0.316175	-0.910260
N50	N	1.570357	0.231562	-0.880281
C51	C	1.726426	1.110124	-0.458699
N52	N	1.788369	1.139640	-0.397841
C53	C	0.929535	0.709007	-0.553856
N54	N	0.898399	0.774482	-0.610022
C55	C	1.383141	0.373247	-0.908582
N56	N	1.355377	0.291693	-0.877142
C57	C	1.589219	0.316725	-1.113293
N58	N	1.570251	0.232363	-1.143928
C59	C	1.681439	1.112596	-0.647690
N60	N	1.709492	1.143965	-0.729186
H61	H	1.666319	0.919180	-0.624159
C62	C	1.578039	1.111146	-0.314130
N63	N	1.635957	1.141328	-0.249736
H64	H	1.707606	0.917696	-0.486480
H65	H	0.941777	0.538710	-0.685327
C66	C	1.725602	0.454095	-0.908457
N67	N	1.809615	0.473370	-0.877124
H68	H	1.697462	0.447883	-1.101957
C69	C	0.929443	0.371386	-0.656514
N70	N	0.898224	0.288980	-0.681976
H71	H	1.559291	0.919318	-0.336258
H72	H	1.644486	0.646224	-0.921855
C73	C	1.485410	0.707077	-0.910303
N74	N	1.427294	0.771344	-0.880077
C75	C	1.392065	0.907131	-0.365779
N76	N	1.309521	0.875998	-0.340676
H77	H	1.356351	0.534303	-1.103520
C78	C	1.483848	0.706914	-1.112361
N79	N	1.424969	0.770713	-1.141984
H80	H	1.643022	0.647094	-1.103777
H81	H	1.122115	0.398281	-0.646774
H82	H	1.358944	0.541185	-0.921281
C83	C	0.930530	0.453416	-0.317284
N84	N	0.899859	0.472334	-0.232903
C85	C	1.133653	0.453360	-0.316647
N86	N	1.163697	0.471996	-0.232008
C87	C	1.133618	0.557393	-0.707362
N88	N	1.163842	0.615540	-0.771516
H89	H	1.398105	0.396735	-1.102033
H90	H	0.941960	0.345258	-0.448614
C91	C	1.135164	0.659457	-0.373370
N92	N	1.166560	0.687159	-0.291755
C93	C	1.135463	0.317042	-0.454776
N94	N	1.166828	0.233025	-0.474179
H95	H	1.469062	1.100832	-0.676115
C96	C	0.931497	0.652489	-0.368101
N97	N	0.901830	0.675393	-0.284349
H98	H	1.468846	0.918707	-0.675577
H99	H	1.366791	0.919638	-0.573778
C100	C	1.338702	1.113164	-0.567711
N101	N	1.254632	1.144596	-0.548656
H102	H	1.419158	1.099762	-0.375378
