data_functionalizedCrystal
_audit_creation_method	'MofGen! by Chris Wilmer'
_symmetry_space_group_name_H-M	'P1'
_symmetry_Int_Tables_number	1
_symmetry_cell_setting	triclinic
loop_
_symmetry_equiv_pos_as_xyz
  x,y,z
_cell_length_a	17.639617
_cell_length_b	17.637651
_cell_length_c	13.032268
_cell_angle_alpha	84.482255
_cell_angle_beta	84.495502
_cell_angle_gamma	109.613464
loop_
_atom_site_label
_atom_site_type_symbol
_atom_site_fract_x
_atom_site_fract_y
_atom_site_fract_z
Zn1	Zn	1.092852	-0.174454	-0.836766
Zn2	Zn	1.089696	-0.287545	-0.630922
Zn3	Zn	0.979816	-0.177540	-0.630952
Zn4	Zn	0.937203	-0.330052	-0.753409
O5	O	1.024892	-0.242398	-0.713012
O6	O	1.203559	-0.170375	-0.844332
O7	O	1.091634	-0.256455	-0.493531
O8	O	1.013966	-0.065975	-0.693152
O9	O	1.201240	-0.253462	-0.693100
O10	O	1.097013	-0.063708	-0.844362
O11	O	1.010905	-0.175635	-0.493553
O12	O	0.863038	-0.216852	-0.612324
O13	O	0.941337	-0.325909	-0.901861
O14	O	0.831730	-0.328902	-0.702292
O15	O	1.055692	-0.211592	-0.963103
O16	O	1.050313	-0.404339	-0.612272
O17	O	0.938277	-0.435569	-0.702263
C18	C	0.818571	-0.277825	-0.648267
C19	C	0.730300	-0.293003	-0.620586
C20	C	0.989347	-0.448775	-0.648247
C21	C	0.974210	-0.537055	-0.620596
C22	C	0.445867	-0.127105	-0.923550
C23	C	0.362922	-0.141385	-0.897514
C24	C	0.360580	-0.227714	-0.739907
C25	C	0.443526	-0.213445	-0.765933
C26	C	0.486163	-0.163139	-0.857755
C27	C	0.483822	-0.249478	-0.700138
C28	C	0.566762	-0.235207	-0.726160
C29	C	0.609405	-0.184902	-0.817976
C30	C	0.569103	-0.148868	-0.883777
C31	C	0.441184	-0.299779	-0.608313
C32	C	0.481481	-0.335812	-0.542518
C33	C	0.564420	-0.321546	-0.568543
C34	C	0.607064	-0.271241	-0.660359
C35	C	0.604723	-0.357580	-0.502742
C36	C	0.687662	-0.343308	-0.528763
C37	C	0.690003	-0.256969	-0.686381
C38	C	1.140369	-0.821275	-0.923547
C39	C	1.126122	-0.904231	-0.897539
C40	C	1.039727	-0.906673	-0.739984
C41	C	1.053970	-0.823715	-0.765976
C42	C	1.104291	-0.781023	-0.857759
C43	C	1.017892	-0.783463	-0.700188
C44	C	1.032131	-0.700514	-0.726181
C45	C	1.082448	-0.657817	-0.817961
C46	C	1.118530	-0.698074	-0.883752
C47	C	0.967567	-0.826158	-0.608409
C48	C	0.931489	-0.785905	-0.542621
C49	C	0.945732	-0.702953	-0.568610
C50	C	0.996049	-0.660256	-0.660390
C51	C	0.909650	-0.662696	-0.502820
C52	C	0.923889	-0.579747	-0.528812
C53	C	1.010288	-0.577307	-0.686383
C54	C	1.232019	-0.206833	-0.778011
C55	C	1.320284	-0.191677	-0.805709
C56	C	0.994113	-0.273148	-0.969103
C57	C	0.980997	-0.286252	-1.078234
C58	C	1.060595	-0.035214	-0.778059
C59	C	1.075809	0.053075	-0.805777
C60	C	1.031730	-0.235532	-1.157189
C61	C	1.018175	-0.249075	-1.269982
C62	C	1.055607	-0.211702	-0.457950
C63	C	1.068915	-0.198348	-0.348938
H64	H	0.724720	-0.216009	-0.761154
Cl65	Cl	0.312268	-0.096074	-0.980235
H66	H	0.998753	-0.941444	-0.665256
Cl67	Cl	0.551115	-0.420808	-0.387305
H68	H	1.085197	-0.182081	-1.141281
H69	H	0.964698	-0.302523	-1.285883
Cl70	Cl	1.151485	-0.115829	-1.324398
H71	H	0.603820	-0.107907	-0.958551
Cl72	Cl	0.898437	-0.368772	-1.102783
Cl73	Cl	0.306972	-0.290950	-0.624476
Cl74	Cl	0.499473	-0.063871	-1.038992
Cl75	Cl	0.336918	-0.317714	-0.575596
Cl76	Cl	0.713676	-0.166952	-0.850686
Cl77	Cl	1.100062	-0.553617	-0.850871
Cl78	Cl	0.427873	-0.399049	-0.427087
Cl79	Cl	0.738322	-0.388617	-0.446056
H80	H	1.051271	-0.542544	-0.761117
H81	H	1.159513	-0.663311	-0.958486
H82	H	1.155491	-0.937004	-0.951129
Cl83	Cl	0.949804	-0.930400	-0.575623
Cl84	Cl	1.203642	-0.767596	-1.038924
Cl85	Cl	0.878536	-0.529139	-0.446105
H86	H	0.890515	-0.820677	-0.467893
H87	H	0.868673	-0.697470	-0.428095
