data_functionalizedCrystal
_audit_creation_method	'MofGen! by Chris Wilmer'
_symmetry_space_group_name_H-M	'P1'
_symmetry_Int_Tables_number	1
_symmetry_cell_setting	triclinic
loop_
_symmetry_equiv_pos_as_xyz
  x,y,z
_cell_length_a	10.540535
_cell_length_b	17.019294
_cell_length_c	9.616153
_cell_angle_alpha	86.118767
_cell_angle_beta	89.995499
_cell_angle_gamma	83.957792
loop_
_atom_site_label
_atom_site_type_symbol
_atom_site_fract_x
_atom_site_fract_y
_atom_site_fract_z
O1	O	1.684073	0.111146	-0.128877
O2	O	1.314488	0.121624	-0.130151
O3	O	1.509590	0.001611	-0.115763
O4	O	1.488971	0.231160	-0.143266
O5	O	1.509563	0.001613	0.115529
O6	O	1.314461	0.121627	0.101140
O7	O	1.684047	0.111149	0.102414
Zn8	Zn	1.499250	0.116388	0.138499
Zn9	Zn	1.499285	0.116385	-0.166237
O10	O	1.488944	0.231162	0.088025
C11	C	1.267184	0.120840	-0.014414
C12	C	1.126274	0.118492	-0.014140
C13	C	1.508795	-0.027781	0.003402
C14	C	1.506449	-0.115365	0.013886
C15	C	1.091040	0.030867	-0.003636
C16	C	0.944480	0.028396	-0.002801
C17	C	0.916268	0.158492	0.112906
C18	C	1.063002	0.160357	0.112779
C19	C	1.062896	0.161629	-0.150404
C20	C	0.916616	0.157576	-0.151637
C21	C	1.505364	-0.156508	-0.107264
C22	C	1.503151	-0.238802	-0.097409
C23	C	1.502033	-0.279950	0.033598
C24	C	1.503114	-0.238801	0.154758
C25	C	1.505317	-0.156508	0.144901
C26	C	1.495371	-0.528420	0.069667
C27	C	1.493171	-0.610718	0.079515
C28	C	1.493206	-0.610714	-0.172653
C29	C	1.495417	-0.528420	-0.182498
C30	C	1.496491	-0.487277	-0.061339
C31	C	1.499775	-0.364068	0.043675
C32	C	1.498740	-0.403161	-0.071417
C33	C	1.731350	0.111933	-0.013326
C34	C	1.872260	0.114281	-0.013609
C35	C	1.489740	0.260554	-0.031142
C36	C	1.492086	0.348138	-0.041635
N37	N	1.499235	0.116390	0.346474
N38	N	1.499310	0.116377	-0.374210
C39	C	1.394556	0.180374	0.559173
C40	C	1.394780	0.180613	0.397976
C41	C	1.631652	0.135113	0.402687
C42	C	1.631080	0.135566	0.563850
C43	C	1.472822	0.033473	0.576318
C44	C	1.469767	0.034011	0.415027
H45	H	0.915720	-0.006180	-0.093127
O46	O	0.879432	0.114974	-0.275718
H47	H	0.830280	0.062891	-0.239201
O48	O	1.501931	-0.283178	0.296064
H49	H	1.500239	-0.347316	0.282568
O50	O	0.852137	0.242248	0.108893
H51	H	0.877390	0.274937	0.010700
H52	H	1.496330	-0.494923	-0.289178
H53	H	1.411671	0.242121	0.352028
O54	O	1.264387	0.165711	0.347407
H55	H	1.264415	0.165870	0.231964
O56	O	1.496546	-0.484061	0.200352
H57	H	1.411068	-0.440031	0.201127
O58	O	1.498588	-0.408463	0.184966
H59	H	1.412530	-0.386138	0.242757
O60	O	1.499935	-0.358782	-0.212715
H61	H	1.585991	-0.381119	-0.270499
O62	O	0.876021	0.118309	0.248170
H63	H	0.824686	0.066860	0.225622
H64	H	1.133572	-0.002782	-0.094116
O65	O	1.340734	0.015208	0.366700
H66	H	1.297763	0.064321	0.294149
O67	O	1.662025	0.215681	0.604062
H68	H	1.677250	0.253737	0.508441
O69	O	1.263753	0.165700	0.612348
H70	H	1.271999	0.112640	0.686832
H71	H	1.506282	-0.123012	-0.213945
H72	H	1.541112	-0.015900	0.380715
O73	O	1.737358	0.075058	0.359088
H74	H	1.829859	0.089624	0.400122
O75	O	1.492026	-0.655085	-0.303329
H76	H	1.490293	-0.719220	-0.274472
H77	H	0.916581	-0.006008	0.096368
O78	O	1.416617	0.261391	0.603097
H79	H	1.512154	0.275871	0.567624
O80	O	1.737426	0.076233	0.622628
H81	H	1.789042	0.047348	0.535921
O82	O	1.506489	-0.112128	0.275571
H83	H	1.593960	-0.081174	0.277894
O84	O	1.663340	0.214330	0.339724
H85	H	1.584992	0.240488	0.268398
H86	H	1.378377	0.015653	0.619185
H87	H	1.135030	-0.002217	0.094714
H88	H	1.103652	0.130501	0.215266
H89	H	1.084980	0.224592	0.110715
O90	O	1.491951	-0.655105	0.220821
H91	H	1.493053	-0.612670	0.303416
O92	O	1.573995	-0.029630	0.634380
H93	H	1.642820	-0.002132	0.698169
H94	H	1.105815	0.134285	-0.247072
O95	O	0.850326	0.240617	-0.172646
H96	H	0.745680	0.238156	-0.178789
O97	O	1.090868	0.247028	-0.162358
H98	H	1.195611	0.249505	-0.166652
O99	O	1.501918	-0.283177	-0.228077
H100	H	1.503058	-0.240737	-0.320829
