data_functionalizedCrystal
_audit_creation_method	'MofGen! by Chris Wilmer'
_symmetry_space_group_name_H-M	'P1'
_symmetry_Int_Tables_number	1
_symmetry_cell_setting	triclinic
loop_
_symmetry_equiv_pos_as_xyz
  x,y,z
_cell_length_a	15.297979
_cell_length_b	15.299816
_cell_length_c	12.759393
_cell_angle_alpha	99.650122
_cell_angle_beta	80.288921
_cell_angle_gamma	91.635460
loop_
_atom_site_label
_atom_site_type_symbol
_atom_site_fract_x
_atom_site_fract_y
_atom_site_fract_z
Zn1	Zn	1.399661	-0.117113	-0.900301
Zn2	Zn	1.424900	-0.263595	-0.759267
Zn3	Zn	1.253162	-0.142478	-0.700168
Zn4	Zn	1.278460	-0.288832	-0.910422
O5	O	1.339046	-0.203004	-0.817539
O6	O	1.525604	-0.115367	-0.902090
O7	O	1.402094	-0.247581	-0.604412
O8	O	1.251445	-0.016560	-0.697748
O9	O	1.544148	-0.222986	-0.798473
O10	O	1.359077	0.002075	-0.844785
O11	O	1.275919	-0.158597	-0.560992
O12	O	1.133922	-0.183069	-0.707561
O13	O	1.294563	-0.266000	-1.056095
O14	O	1.152509	-0.290595	-0.862034
O15	O	1.383608	-0.139839	-1.048659
O16	O	1.426625	-0.389495	-0.808286
O17	O	1.319036	-0.408037	-0.919339
C18	C	1.111428	-0.242324	-0.779483
C19	C	1.014056	-0.259166	-0.763233
C20	C	0.977948	-0.323022	-0.701522
C21	C	0.886463	-0.338847	-0.686259
C22	C	0.831075	-0.290815	-0.732699
C23	C	0.867181	-0.226953	-0.794405
C24	C	0.958677	-0.211131	-0.809676
C25	C	0.811803	-0.178924	-0.840854
C26	C	0.847910	-0.115063	-0.902560
C27	C	0.939396	-0.099243	-0.917827
C28	C	0.994784	-0.147275	-0.871387
C29	C	0.720307	-0.194747	-0.825582
C30	C	0.701036	-0.082856	-0.933737
C31	C	0.792522	-0.067030	-0.949000
C32	C	1.378338	-0.430539	-0.871351
C33	C	1.395228	-0.527865	-0.894420
C34	C	1.218907	-0.841282	-0.653114
C35	C	1.203034	-0.749839	-0.631441
C36	C	1.251081	-0.694341	-0.697184
C37	C	1.315004	-0.730294	-0.784603
C38	C	1.330874	-0.821746	-0.806283
C39	C	1.363048	-0.674806	-0.850353
C40	C	1.426971	-0.710759	-0.937772
C41	C	1.442838	-0.802202	-0.959448
C42	C	1.394791	-0.857700	-0.893705
C43	C	1.347178	-0.583354	-0.828673
C44	C	1.459145	-0.563819	-0.981842
C45	C	1.475018	-0.655261	-1.003515
C46	C	1.567552	-0.163532	-0.855745
C47	C	1.664928	-0.146711	-0.872026
C48	C	1.339092	-0.202906	-1.091562
C49	C	1.339111	-0.202863	-1.208334
C50	C	1.299624	0.025423	-0.763545
C51	C	1.282824	0.122765	-0.740536
C52	C	1.385484	-0.137164	-1.259327
C53	C	1.385499	-0.137129	-1.369047
C54	C	1.292768	-0.268500	-1.376774
C55	C	1.292748	-0.268531	-1.267054
C56	C	1.431847	-0.071497	-1.200607
C57	C	1.478224	-0.005794	-1.251599
C58	C	1.478240	-0.005758	-1.361319
C59	C	1.431878	-0.071427	-1.420047
C60	C	1.339039	-0.203031	-0.544576
C61	C	1.339147	-0.202797	-0.427775
H62	H	0.690919	-0.246744	-0.775342
H63	H	1.295131	-0.554090	-0.757495
H64	H	0.968792	-0.047250	-0.968084
C65	C	1.233628	-0.593756	-0.673338
H66	H	1.188684	-0.580291	-0.611853
H67	H	1.214860	-0.575653	-0.733671
H68	H	1.286579	-0.563267	-0.659751
C69	C	1.095420	-0.129872	-0.888189
H70	H	1.108994	-0.084962	-0.931590
H71	H	1.125889	-0.182825	-0.923065
H72	H	1.113462	-0.111079	-0.820268
H73	H	1.494885	-0.831473	-1.030634
H74	H	1.431882	-0.071384	-1.509384
C75	C	0.640122	-0.030015	-0.984827
H76	H	0.674730	0.010274	-1.023777
H77	H	0.597815	0.002007	-0.929723
H78	H	0.610250	-0.069738	-1.032521
H79	H	0.821933	-0.015034	-0.999242
H80	H	1.179790	-0.886476	-0.599600
C81	C	1.241786	-0.340735	-1.441376
H82	H	1.248448	-0.331312	-1.514027
H83	H	1.180707	-0.338097	-1.410530
H84	H	1.264769	-0.397368	-1.439439
C85	C	1.241742	-0.340796	-1.210954
H86	H	1.248363	-0.331402	-1.137197
H87	H	1.264716	-0.397422	-1.244976
H88	H	1.180666	-0.338133	-1.216062
C89	C	0.730442	-0.308216	-0.715901
H90	H	0.716869	-0.353121	-0.672492
H91	H	0.712393	-0.326996	-0.783813
H92	H	0.699975	-0.255260	-0.681007
H93	H	1.527065	-0.684547	-1.074693
H94	H	0.857071	-0.390844	-0.636018
C95	C	1.512002	-0.502780	-1.054160
H96	H	1.493403	-0.443168	-1.028721
H97	H	1.501747	-0.519949	-1.126135
H98	H	1.573468	-0.507554	-1.052218
H99	H	1.407715	-0.932160	-0.911344
H100	H	1.431842	-0.071520	-1.111268
C101	C	1.529250	0.066511	-1.417408
H102	H	1.556862	0.105609	-1.366721
H103	H	1.489164	0.098898	-1.445591
H104	H	1.573212	0.039608	-1.474508
H105	H	1.023053	-0.362127	-0.663722
C106	C	1.132733	-0.710295	-0.535281
H107	H	1.106397	-0.756441	-0.499225
H108	H	1.088353	-0.681225	-0.560590
H109	H	1.160084	-0.668830	-0.486686
H110	H	1.515964	0.047676	-1.203774
