data_functionalizedCrystal
_audit_creation_method	'MofGen! by Chris Wilmer'
_symmetry_space_group_name_H-M	'P1'
_symmetry_Int_Tables_number	1
_symmetry_cell_setting	triclinic
loop_
_symmetry_equiv_pos_as_xyz
  x,y,z
_cell_length_a	21.395364
_cell_length_b	19.120786
_cell_length_c	21.395355
_cell_angle_alpha	92.459295
_cell_angle_beta	90.024516
_cell_angle_gamma	92.460890
loop_
_atom_site_label
_atom_site_type_symbol
_atom_site_fract_x
_atom_site_fract_y
_atom_site_fract_z
Zn1	Zn	0.947234	-0.279788	0.343608
Zn2	Zn	1.197234	-0.029788	0.593608
Zn3	Zn	1.447234	0.220212	0.843608
Zn4	Zn	1.697234	0.470212	1.093608
Zn5	Zn	0.942676	-0.397226	0.234359
Zn6	Zn	1.192676	-0.147226	0.484359
Zn7	Zn	1.442676	0.102774	0.734359
Zn8	Zn	1.692676	0.352774	0.984359
Zn9	Zn	0.842449	-0.279779	0.238845
Zn10	Zn	1.092449	-0.029779	0.488845
Zn11	Zn	1.342449	0.220221	0.738845
Zn12	Zn	1.592449	0.470221	0.988845
Zn13	Zn	0.837959	-0.397200	0.339100
Zn14	Zn	1.087959	-0.147200	0.589100
Zn15	Zn	1.337959	0.102800	0.839100
Zn16	Zn	1.587959	0.352800	1.089100
O17	O	0.892579	-0.338498	0.288978
O18	O	1.142579	-0.088498	0.538978
O19	O	1.392579	0.161502	0.788978
O20	O	1.642579	0.411502	1.038978
O21	O	1.034306	-0.295381	0.329125
O22	O	1.284306	-0.045381	0.579125
O23	O	1.534306	0.204619	0.829125
O24	O	1.784306	0.454619	1.079125
O25	O	0.929353	-0.381654	0.147275
O26	O	1.179353	-0.131654	0.397275
O27	O	1.429353	0.118346	0.647275
O28	O	1.679353	0.368346	0.897275
O29	O	0.860135	-0.181491	0.256506
O30	O	1.110135	0.068509	0.506506
O31	O	1.360135	0.318509	0.756506
O32	O	1.610135	0.568509	1.006506
O33	O	1.030958	-0.381663	0.248860
O34	O	1.280958	-0.131663	0.498860
O35	O	1.530958	0.118337	0.748860
O36	O	1.780958	0.368337	0.998860
O37	O	0.937120	-0.181498	0.333475
O38	O	1.187120	0.068502	0.583475
O39	O	1.437120	0.318502	0.833475
O40	O	1.687120	0.568502	1.083475
O41	O	0.855716	-0.295367	0.150571
O42	O	1.105716	-0.045367	0.400571
O43	O	1.355716	0.204633	0.650571
O44	O	1.605716	0.454633	0.900571
O45	O	0.754176	-0.295341	0.252135
O46	O	1.004176	-0.045341	0.502135
O47	O	1.254176	0.204659	0.752135
O48	O	1.504176	0.454659	1.002135
O49	O	0.852483	-0.381617	0.427376
O50	O	1.102483	-0.131617	0.677376
O51	O	1.352483	0.118383	0.927376
O52	O	1.602483	0.368383	1.177376
O53	O	0.750877	-0.381609	0.325792
O54	O	1.000877	-0.131609	0.575792
O55	O	1.250877	0.118391	0.825792
O56	O	1.500877	0.368391	1.075792
O57	O	0.932766	-0.295355	0.430688
O58	O	1.182766	-0.045355	0.680688
O59	O	1.432766	0.204645	0.930688
O60	O	1.682766	0.454645	1.180688
O61	O	0.924999	-0.495512	0.244489
O62	O	1.174999	-0.245512	0.494489
O63	O	1.424999	0.004488	0.744489
O64	O	1.674999	0.254488	0.994489
O65	O	0.848063	-0.495492	0.321442
O66	O	1.098063	-0.245492	0.571442
O67	O	1.348063	0.004508	0.821442
O68	O	1.598063	0.254508	1.071442
C69	C	0.729793	-0.338471	0.288961
C70	C	0.979793	-0.088471	0.538961
C71	C	1.229793	0.161529	0.788961
C72	C	1.479793	0.411529	1.038961
C73	C	0.660151	-0.338477	0.288968
C74	C	0.910151	-0.088477	0.538968
C75	C	1.160151	0.161523	0.788968
C76	C	1.410151	0.411523	1.038968
C77	C	0.160093	-0.293678	0.330842
C78	C	0.410093	-0.043678	0.580842
C79	C	0.660093	0.206322	0.830842
C80	C	0.910093	0.456322	1.080842
C81	C	0.225529	-0.293672	0.330842
C82	C	0.475529	-0.043672	0.580842
C83	C	0.725529	0.206328	0.830842
C84	C	0.975529	0.456328	1.080842
C85	C	0.256511	-0.338520	0.288991
C86	C	0.506511	-0.088520	0.538991
C87	C	0.756511	0.161480	0.788991
C88	C	1.006511	0.411480	1.038991
C89	C	0.222052	-0.383389	0.247148
C90	C	0.472052	-0.133389	0.497148
C91	C	0.722052	0.116611	0.747148
C92	C	0.972052	0.366611	0.997148
C93	C	0.156618	-0.383398	0.247153
C94	C	0.406618	-0.133398	0.497153
C95	C	0.656618	0.116602	0.747153
C96	C	0.906618	0.366602	0.997153
C97	C	0.359941	-0.343959	0.232317
C98	C	0.609941	-0.093959	0.482317
C99	C	0.859941	0.156041	0.732317
C100	C	1.109941	0.406041	0.982317
C101	C	0.425375	-0.343945	0.232310
C102	C	0.675375	-0.093945	0.482310
C103	C	0.925375	0.156055	0.732310
C104	C	1.175375	0.406055	0.982310
C105	C	0.458333	-0.338496	0.288975
C106	C	0.708333	-0.088496	0.538975
C107	C	0.958333	0.161504	0.788975
C108	C	1.208333	0.411504	1.038975
C109	C	0.425850	-0.333047	0.345647
C110	C	0.675850	-0.083047	0.595647
C111	C	0.925850	0.166953	0.845647
C112	C	1.175850	0.416953	1.095647
C113	C	0.360416	-0.333056	0.345653
C114	C	0.610416	-0.083056	0.595653
C115	C	0.860416	0.166944	0.845653
C116	C	1.110416	0.416944	1.095653
C117	C	0.327464	-0.338515	0.288981
C118	C	0.577464	-0.088515	0.538981
C119	C	0.827464	0.161485	0.788981
C120	C	1.077464	0.411485	1.038981
C121	C	0.563737	-0.293628	0.330818
C122	C	0.813737	-0.043628	0.580818
C123	C	1.063737	0.206372	0.830818
C124	C	1.313737	0.456372	1.080818
C125	C	0.629173	-0.293628	0.330819
C126	C	0.879173	-0.043628	0.580819
C127	C	1.129173	0.206372	0.830819
C128	C	1.379173	0.456372	1.080819
C129	C	0.625696	-0.383341	0.247120
C130	C	0.875696	-0.133341	0.497120
C131	C	1.125696	0.116659	0.747120
C132	C	1.375696	0.366659	0.997120
C133	C	0.560260	-0.383345	0.247124
C134	C	0.810260	-0.133345	0.497124
C135	C	1.060260	0.116655	0.747124
C136	C	1.310260	0.366655	0.997124
C137	C	0.529285	-0.338485	0.288973
C138	C	0.779285	-0.088485	0.538973
C139	C	1.029285	0.161515	0.788973
C140	C	1.279285	0.411515	1.038973
C141	C	0.885566	-0.520988	0.282003
C142	C	1.135566	-0.270988	0.532003
C143	C	1.385566	-0.020988	0.782003
C144	C	1.635566	0.229012	1.032003
C145	C	0.882623	-0.599057	0.279040
C146	C	1.132623	-0.349057	0.529040
C147	C	1.382623	-0.099057	0.779040
C148	C	1.632623	0.150943	1.029040
C149	C	0.921293	-0.635677	0.317754
C150	C	1.171293	-0.385677	0.567754
C151	C	1.421293	-0.135677	0.817754
C152	C	1.671293	0.114323	1.067754
C153	C	0.918525	-0.709032	0.314971
C154	C	1.168525	-0.459032	0.564971
C155	C	1.418525	-0.209032	0.814971
C156	C	1.668525	0.040968	1.064971
C157	C	0.877091	-0.745765	0.273471
C158	C	1.127091	-0.495765	0.523471
C159	C	1.377091	-0.245765	0.773471
C160	C	1.627091	0.004235	1.023471
C161	C	0.838417	-0.709140	0.234755
C162	C	1.088417	-0.459140	0.484755
C163	C	1.338417	-0.209140	0.734755
C164	C	1.588417	0.040860	0.984755
C165	C	0.841182	-0.635787	0.237541
C166	C	1.091182	-0.385787	0.487541
C167	C	1.341182	-0.135787	0.737541
C168	C	1.591182	0.114213	0.987541
C169	C	0.866736	-0.967248	0.263054
C170	C	1.116736	-0.717248	0.513054
C171	C	1.366736	-0.467248	0.763054
C172	C	1.616736	-0.217248	1.013054
C173	C	0.863975	-1.040607	0.260269
C174	C	1.113975	-0.790607	0.510269
C175	C	1.363975	-0.540607	0.760269
C176	C	1.613975	-0.290607	1.010269
C177	C	0.944083	-1.040494	0.340486
C178	C	1.194083	-0.790494	0.590486
C179	C	1.444083	-0.540494	0.840486
C180	C	1.694083	-0.290494	1.090486
C181	C	0.946846	-0.967139	0.343267
C182	C	1.196846	-0.717139	0.593267
C183	C	1.446846	-0.467139	0.843267
C184	C	1.696846	-0.217139	1.093267
C185	C	0.908171	-0.930520	0.304553
C186	C	1.158171	-0.680520	0.554553
C187	C	1.408171	-0.430520	0.804553
C188	C	1.658171	-0.180520	1.054553
C189	C	0.874262	-0.820746	0.270624
C190	C	1.124262	-0.570746	0.520624
C191	C	1.374262	-0.320746	0.770624
C192	C	1.624262	-0.070746	1.020624
C193	C	0.910996	-0.855541	0.307404
C194	C	1.160996	-0.605541	0.557404
C195	C	1.410996	-0.355541	0.807404
C196	C	1.660996	-0.105541	1.057404
C197	C	1.056002	-0.338526	0.288995
C198	C	1.306002	-0.088526	0.538995
C199	C	1.556002	0.161474	0.788995
C200	C	1.806002	0.411474	1.038995
C201	C	1.125642	-0.338538	0.289002
C202	C	1.375642	-0.088538	0.539002
C203	C	1.625642	0.161462	0.789002
C204	C	1.875642	0.411462	1.039002
C205	C	0.892632	-0.338484	0.452402
C206	C	1.142632	-0.088484	0.702402
C207	C	1.392632	0.161516	0.952402
C208	C	1.642632	0.411516	1.202402
C209	C	0.892654	-0.338478	0.522043
C210	C	1.142654	-0.088478	0.772043
C211	C	1.392654	0.161522	1.022043
C212	C	1.642654	0.411522	1.272043
C213	C	0.899637	-0.155296	0.295993
C214	C	1.149637	0.094704	0.545993
C215	C	1.399637	0.344704	0.795993
C216	C	1.649637	0.594704	1.045993
C217	C	0.902644	-0.077227	0.298983
C218	C	1.152644	0.172773	0.548983
C219	C	1.402644	0.422773	0.798983
C220	C	1.652644	0.672773	1.048983
C221	C	0.892565	-0.338462	0.126192
C222	C	1.142565	-0.088462	0.376192
C223	C	1.392565	0.161538	0.626192
C224	C	1.642565	0.411538	0.876192
C225	C	0.892672	-0.338270	0.056558
C226	C	1.142672	-0.088270	0.306558
C227	C	1.392672	0.161730	0.556558
C228	C	1.642672	0.411730	0.806558
C229	C	0.934456	-0.293560	0.556482
C230	C	1.184456	-0.043560	0.806482
C231	C	1.434456	0.206440	1.056482
C232	C	1.684456	0.456440	1.306482
C233	C	0.934457	-0.293529	0.621918
C234	C	1.184457	-0.043529	0.871918
C235	C	1.434457	0.206471	1.121918
C236	C	1.684457	0.456471	1.371918
C237	C	0.892661	-0.338430	0.652913
C238	C	1.142661	-0.088430	0.902913
C239	C	1.392661	0.161570	1.152913
C240	C	1.642661	0.411570	1.402913
C241	C	0.850851	-0.383352	0.618467
C242	C	1.100851	-0.133352	0.868467
C243	C	1.350851	0.116648	1.118467
C244	C	1.600851	0.366648	1.368467
C245	C	0.850848	-0.383376	0.553032
C246	C	1.100848	-0.133376	0.803032
C247	C	1.350848	0.116624	1.053032
C248	C	1.600848	0.366624	1.303032
C249	C	0.885283	-0.401673	0.754171
C250	C	1.135283	-0.151673	1.004171
C251	C	1.385283	0.098327	1.254171
C252	C	1.635283	0.348327	1.504171
C253	C	0.885291	-0.401650	0.819605
C254	C	1.135291	-0.151650	1.069605
C255	C	1.385291	0.098350	1.319605
C256	C	1.635291	0.348350	1.569605
C257	C	0.892668	-0.338356	0.854737
C258	C	1.142668	-0.088356	1.104737
C259	C	1.392668	0.161644	1.354737
C260	C	1.642668	0.411644	1.604737
C261	C	0.900050	-0.275083	0.824427
C262	C	1.150050	-0.025083	1.074427
C263	C	1.400050	0.224917	1.324427
C264	C	1.650050	0.474917	1.574427
C265	C	0.900047	-0.275107	0.758992
C266	C	1.150047	-0.025107	1.008992
C267	C	1.400047	0.224893	1.258992
C268	C	1.650047	0.474893	1.508992
C269	C	0.892660	-0.338409	0.723867
C270	C	1.142660	-0.088409	0.973867
C271	C	1.392660	0.161591	1.223867
C272	C	1.642660	0.411591	1.473867
C273	C	0.934472	-0.293401	0.960130
C274	C	1.184472	-0.043401	1.210130
C275	C	1.434472	0.206599	1.460130
C276	C	1.684472	0.456599	1.710130
C277	C	0.934468	-0.293370	1.025567
C278	C	1.184468	-0.043370	1.275567
C279	C	1.434468	0.206630	1.525567
C280	C	1.684468	0.456630	1.775567
C281	C	0.850866	-0.383198	1.022114
C282	C	1.100866	-0.133198	1.272114
C283	C	1.350866	0.116802	1.522114
C284	C	1.600866	0.366802	1.772114
C285	C	0.850867	-0.383223	0.956678
C286	C	1.100867	-0.133223	1.206678
C287	C	1.350867	0.116777	1.456678
C288	C	1.600867	0.366777	1.706678
C289	C	0.892673	-0.338326	0.925689
C290	C	1.142673	-0.088326	1.175689
C291	C	1.392673	0.161674	1.425689
C292	C	1.642673	0.411674	1.675689
H293	H	0.650921	-0.419862	0.213049
H294	H	0.900921	-0.169862	0.463049
H295	H	1.150921	0.080138	0.713049
H296	H	1.400921	0.330138	0.963049
H297	H	0.980586	-0.937232	0.377060
H298	H	1.230586	-0.687232	0.627060
H299	H	1.480586	-0.437232	0.877060
H300	H	1.730586	-0.187232	1.127060
H301	H	0.955036	-0.605774	0.351546
H302	H	1.205036	-0.355774	0.601546
H303	H	1.455036	-0.105774	0.851546
H304	H	1.705036	0.144226	1.101546
H305	H	0.835245	-0.937439	0.231531
H306	H	1.085245	-0.687439	0.481531
H307	H	1.335245	-0.437439	0.731531
H308	H	1.585245	-0.187439	0.981531
H309	H	0.816830	-0.419805	0.928637
H310	H	1.066830	-0.169805	1.178637
H311	H	1.316830	0.080195	1.428637
H312	H	1.566830	0.330195	1.678637
H313	H	0.944730	-0.825631	0.341196
H314	H	1.194730	-0.575631	0.591196
H315	H	1.444730	-0.325631	0.841196
H316	H	1.694730	-0.075631	1.091196
H317	H	0.906058	-0.223543	0.853031
H318	H	1.156058	0.026457	1.103031
H319	H	1.406058	0.276457	1.353031
H320	H	1.656058	0.526457	1.603031
H321	H	0.451817	-0.348378	0.186164
H322	H	0.701817	-0.098378	0.436164
H323	H	0.951817	0.151622	0.686164
H324	H	1.201817	0.401622	0.936164
H325	H	0.532210	-0.419872	0.213051
H326	H	0.782210	-0.169872	0.463051
H327	H	1.032210	0.080128	0.713051
H328	H	1.282210	0.330128	0.963051
H329	H	0.840528	-0.850662	0.236832
H330	H	1.090528	-0.600662	0.486832
H331	H	1.340528	-0.350662	0.736832
H332	H	1.590528	-0.100662	0.986832
H333	H	0.879284	-0.453171	0.844278
H334	H	1.129284	-0.203171	1.094278
H335	H	1.379284	0.046829	1.344278
H336	H	1.629284	0.296829	1.594278
H337	H	0.968498	-0.256999	0.531255
H338	H	1.218498	-0.006999	0.781255
H339	H	1.468498	0.243001	1.031255
H340	H	1.718498	0.493001	1.281255
H341	H	0.968496	-0.256948	0.649964
H342	H	1.218496	-0.006948	0.899964
H343	H	1.468496	0.243052	1.149964
H344	H	1.718496	0.493052	1.399964
H345	H	0.906056	-0.223587	0.734317
H346	H	1.156056	0.026413	0.984317
H347	H	1.406056	0.276413	1.234317
H348	H	1.656056	0.526413	1.484317
H349	H	0.975570	-1.070317	0.372005
H350	H	1.225570	-0.820317	0.622005
H351	H	1.475570	-0.570317	0.872005
H352	H	1.725570	-0.320317	1.122005
H353	H	0.452684	-0.328607	0.391789
H354	H	0.702684	-0.078607	0.641789
H355	H	0.952684	0.171393	0.891789
H356	H	1.202684	0.421393	1.141789
H357	H	0.134877	-0.257152	0.364921
H358	H	0.384877	-0.007152	0.614921
H359	H	0.634877	0.242848	0.864921
H360	H	0.884877	0.492848	1.114921
H361	H	0.968510	-0.256839	0.934898
H362	H	1.218510	-0.006839	1.184898
H363	H	1.468510	0.243161	1.434898
H364	H	1.718510	0.493161	1.684898
H365	H	0.253584	-0.257139	0.364912
H366	H	0.503584	-0.007139	0.614912
H367	H	0.753584	0.242861	0.864912
H368	H	1.003584	0.492861	1.114912
H369	H	0.879109	-0.453201	0.725572
H370	H	1.129109	-0.203201	0.975572
H371	H	1.379109	0.046799	1.225572
H372	H	1.629109	0.296799	1.475572
H373	H	0.968508	-0.256787	1.053607
H374	H	1.218508	-0.006787	1.303607
H375	H	1.468508	0.243213	1.553607
H376	H	1.718508	0.493213	1.803607
H377	H	0.816829	-0.419750	1.047350
H378	H	1.066829	-0.169750	1.297350
H379	H	1.316829	0.080250	1.547350
H380	H	1.566829	0.330250	1.797350
H381	H	0.816819	-0.419908	0.643707
H382	H	1.066819	-0.169908	0.893707
H383	H	1.316819	0.080092	1.143707
H384	H	1.566819	0.330092	1.393707
H385	H	0.950019	-0.738845	0.346492
H386	H	1.200019	-0.488845	0.596492
H387	H	1.450019	-0.238845	0.846492
H388	H	1.700019	0.011155	1.096492
H389	H	0.816805	-0.419953	0.524992
H390	H	1.066805	-0.169953	0.774992
H391	H	1.316805	0.080047	1.024992
H392	H	1.566805	0.330047	1.274992
H393	H	0.333971	-0.328620	0.391797
H394	H	0.583971	-0.078620	0.641797
H395	H	0.833971	0.171380	0.891797
H396	H	1.083971	0.421380	1.141797
H397	H	0.830231	-1.070513	0.226474
H398	H	1.080231	-0.820513	0.476474
H399	H	1.330231	-0.570513	0.726474
H400	H	1.580231	-0.320513	0.976474
H401	H	0.247282	-0.419906	0.213074
H402	H	0.497282	-0.169906	0.463074
H403	H	0.747282	0.080094	0.713074
H404	H	0.997282	0.330094	0.963074
H405	H	0.538515	-0.257101	0.364894
H406	H	0.788515	-0.007101	0.614894
H407	H	1.038515	0.242899	0.864894
H408	H	1.288515	0.492899	1.114894
H409	H	0.809692	-0.605971	0.206017
H410	H	1.059692	-0.355971	0.456017
H411	H	1.309692	-0.105971	0.706017
H412	H	1.559692	0.144029	0.956017
H413	H	0.333112	-0.348398	0.186171
H414	H	0.583112	-0.098398	0.436171
H415	H	0.833112	0.151602	0.686171
H416	H	1.083112	0.401602	0.936171
H417	H	0.128568	-0.419929	0.213081
H418	H	0.378568	-0.169929	0.463081
H419	H	0.628568	0.080071	0.713081
H420	H	0.878568	0.330071	0.963081
H421	H	0.804678	-0.739054	0.200967
H422	H	1.054678	-0.489054	0.450967
H423	H	1.304678	-0.239054	0.700967
H424	H	1.554678	0.010946	0.950967
H425	H	0.657222	-0.257100	0.364894
H426	H	0.907222	-0.007100	0.614894
H427	H	1.157222	0.242900	0.864894
H428	H	1.407222	0.492900	1.114894
