data_functionalizedCrystal
_audit_creation_method	'MofGen! by Chris Wilmer'
_symmetry_space_group_name_H-M	'P1'
_symmetry_Int_Tables_number	1
_symmetry_cell_setting	triclinic
loop_
_symmetry_equiv_pos_as_xyz
  x,y,z
_cell_length_a	14.519709
_cell_length_b	10.654550
_cell_length_c	9.730223
_cell_angle_alpha	90.000073
_cell_angle_beta	89.997715
_cell_angle_gamma	84.082524
loop_
_atom_site_label
_atom_site_type_symbol
_atom_site_fract_x
_atom_site_fract_y
_atom_site_fract_z
O1	O	0.129528	1.666589	-0.114284
O2	O	0.141869	1.300991	-0.114289
O3	O	0.001510	1.493483	-0.114274
O4	O	0.269887	1.474097	-0.114299
O5	O	0.001514	1.493481	0.114306
O6	O	0.141873	1.300989	0.114291
O7	O	0.129532	1.666586	0.114296
Zn8	Zn	0.135703	1.483787	0.150585
Zn9	Zn	0.135698	1.483790	-0.150579
O10	O	0.269890	1.474094	0.114281
C11	C	0.140965	1.254201	0.000000
C12	C	0.138254	1.114784	-0.000001
C13	C	-0.032852	1.492579	0.000016
C14	C	-0.135247	1.489871	0.000016
C15	C	0.130436	1.713377	0.000003
C16	C	0.133147	1.852794	-0.000004
C17	C	-0.510195	1.479904	-0.000019
C18	C	-0.405873	1.482672	-0.000009
C19	C	-0.322725	1.484887	-0.000000
C20	C	-0.218396	1.487656	0.000008
C21	C	0.304253	1.474999	-0.000013
C22	C	0.406648	1.477707	-0.000022
N23	N	0.135705	1.483795	0.356121
C24	C	0.050506	1.933074	-0.000002
C25	C	0.053059	2.064070	0.000004
C26	C	0.220901	2.034493	0.000000
C27	C	0.218347	1.903500	0.000004
C28	C	-0.034694	1.882369	-0.000010
C29	C	-0.117342	1.962650	-0.000009
C30	C	-0.114789	2.093646	-0.000003
C31	C	-0.029588	2.144361	0.000003
N32	N	0.135688	1.483793	-0.356115
C33	C	0.073576	1.569052	0.428054
C34	C	0.073565	1.569048	0.571937
C35	C	0.197821	1.398527	0.571942
C36	C	0.197827	1.398525	0.428062
C37	C	0.011455	1.654321	0.356114
C38	C	-0.050679	1.739586	0.428047
C39	C	-0.050691	1.739583	0.571930
C40	C	0.011432	1.654315	0.643880
H41	H	-0.186709	1.921349	-0.000025
H42	H	-0.182085	2.159009	0.000011
C43	C	-0.118081	1.832331	0.350081
C44	C	-0.102318	1.955778	0.385077
C45	C	-0.164401	2.041236	0.313286
H46	H	-0.109229	1.820275	0.254074
H47	H	-0.179746	1.818629	0.373675
H48	H	-0.040668	1.969474	0.361474
H49	H	-0.111178	1.967873	0.481072
H50	H	-0.226066	2.027534	0.336879
H51	H	-0.155544	2.029169	0.217282
H52	H	-0.153720	2.125004	0.337029
H53	H	-0.101288	1.809000	0.630496
C54	C	0.011643	1.654176	0.199899
C55	C	0.079367	1.561281	0.152299
C56	C	0.079581	1.561125	0.008404
H57	H	-0.047360	1.636823	0.167162
H58	H	0.024871	1.734440	0.167313
H59	H	0.066134	1.481035	0.184871
H60	H	0.138381	1.578613	0.184998
H61	H	0.092808	1.641389	-0.024182
H62	H	0.020574	1.543775	-0.024320
H63	H	0.125536	1.498105	-0.023911
H64	H	0.248418	1.329100	0.369493
H65	H	-0.036782	1.775707	-0.000019
C66	C	0.313307	2.089795	-0.000082
C67	C	0.297855	2.221697	-0.000126
C68	C	0.382958	2.272682	-0.000228
H69	H	0.347446	2.062397	0.079603
H70	H	0.347375	2.062318	-0.079829
H71	H	0.263802	2.249163	0.079613
H72	H	0.263730	2.249130	-0.079805
H73	H	0.417026	2.245205	-0.079975
H74	H	0.417091	2.245274	0.079458
H75	H	0.372486	2.362181	-0.000270
H76	H	0.285641	1.838133	0.000007
C77	C	0.265122	1.305902	0.650233
C78	C	0.215465	1.228951	0.732864
C79	C	0.277434	1.143624	0.805018
H80	H	0.302152	1.255000	0.586945
H81	H	0.303804	1.351130	0.706440
H82	H	0.176798	1.183726	0.676662
H83	H	0.178437	1.279817	0.796178
H84	H	0.316117	1.188851	0.861225
H85	H	0.314461	1.092731	0.741720
H86	H	0.243751	1.091410	0.861100
H87	H	-0.027516	2.251028	0.000021
H88	H	0.011411	1.654311	0.761039
