data_functionalizedCrystal
_audit_creation_method	'MofGen! by Chris Wilmer'
_symmetry_space_group_name_H-M	'P1'
_symmetry_Int_Tables_number	1
_symmetry_cell_setting	triclinic
loop_
_symmetry_equiv_pos_as_xyz
  x,y,z
_cell_length_a	6.817900
_cell_length_b	12.840964
_cell_length_c	11.020342
_cell_angle_alpha	97.545741
_cell_angle_beta	108.079143
_cell_angle_gamma	88.344333
loop_
_atom_site_label
_atom_site_type_symbol
_atom_site_fract_x
_atom_site_fract_y
_atom_site_fract_z
V1	V	-3.919400	0.283191	-0.178808
O2	O	-3.887649	0.320321	0.005538
O3	O	-3.892145	0.240359	-0.351608
O4	O	-3.814826	0.425357	-0.177397
O5	O	-3.965504	0.134042	-0.169879
V6	V	-4.407567	0.270319	-0.156599
O7	O	-4.170472	0.311426	-0.227523
O8	O	-4.606693	0.242084	-0.107884
O9	O	-4.211616	0.313151	0.016201
O10	O	-4.556716	0.233189	-0.340946
O11	O	-4.478861	0.419468	-0.165528
O12	O	-4.288935	0.128153	-0.158010
C13	C	-3.744108	0.225339	-0.393692
C14	C	-3.802736	0.191267	-0.534967
C15	C	-4.011112	0.178944	-0.607839
C16	C	-4.066228	0.146944	-0.740587
C17	C	-3.912965	0.127262	-0.800458
C18	C	-3.704572	0.139590	-0.727576
C19	C	-3.649459	0.171596	-0.594833
C20	C	-3.641346	0.579450	-0.171481
C21	C	-3.645480	0.461318	-0.171478
C22	C	-4.121612	0.092182	-0.163942
C23	C	-4.104618	-0.025951	-0.163951
V24	V	-3.902344	0.769350	-0.178827
O25	O	-3.937836	0.922657	-0.169901
O26	O	-3.807910	0.622497	-0.177414
O27	O	-3.873552	0.770125	-0.351626
O28	O	-3.871740	0.774006	0.005518
V29	V	-4.388568	0.812017	-0.156628
O30	O	-4.155353	0.742369	-0.227546
O31	O	-4.584964	0.861684	-0.107916
O32	O	-4.260189	0.947623	-0.158037
O33	O	-4.470266	0.664626	-0.165556
O34	O	-4.536362	0.813277	-0.340975
O35	O	-4.194547	0.799994	0.016175
C36	C	-4.022997	0.328166	0.058278
C37	C	-3.943605	0.362245	0.199552
C38	C	-3.725064	0.767767	-0.393700
C39	C	-3.782358	0.771543	-0.534974
C40	C	-4.006967	0.785386	0.058262
C41	C	-3.928948	0.780574	0.199538
C42	C	-3.719028	0.764355	0.259400
C43	C	-3.645730	0.759843	0.392146
C44	C	-3.992296	0.787767	0.405156
C45	C	-4.065588	0.792286	0.272414
C46	C	-3.317646	0.797400	0.577965
C47	C	-3.107720	0.781161	0.637828
C48	C	-2.998263	0.709787	0.576777
C49	C	-3.098733	0.654624	0.455861
C50	C	-3.308661	0.670853	0.396003
C51	C	-3.418104	0.742251	0.457057
C52	C	-4.393663	0.754719	0.086590
C53	C	-4.603598	0.770941	0.026728
C54	C	-4.713074	0.842311	0.087776
C55	C	-4.612626	0.897459	0.208694
C56	C	-4.402692	0.881238	0.268556
C57	C	-4.293219	0.809870	0.207500
C58	C	-4.080216	0.374571	0.272423
C59	C	-4.005641	0.406575	0.405170
C60	C	-3.794457	0.426260	0.465041
C61	C	-3.657837	0.413929	0.392160
C62	C	-3.732410	0.381918	0.259418
H63	H	-4.135934	0.194959	-0.559109
F64	F	-3.971653	0.093197	-0.941737
F65	F	-4.288025	0.133825	-0.818128
F66	F	-3.586990	0.368807	0.181875
H67	H	-3.579799	0.123560	-0.776344
H68	H	-3.479777	0.181622	-0.535508
F69	F	-2.982231	0.578642	0.390903
F70	F	-3.573599	0.751895	0.181845
F71	F	-4.151074	0.419694	0.482711
F72	F	-2.774847	0.692499	0.640498
F73	F	-4.137703	0.800225	0.482726
F74	F	-3.415588	0.612152	0.267323
H75	H	-3.025928	0.826082	0.736281
F76	F	-3.434122	0.873383	0.642941
H77	H	-3.733761	0.452324	0.573129
H78	H	-4.884147	0.855309	0.039174
F79	F	-4.295700	0.940075	0.397146
H80	H	-4.252180	0.358548	0.223695
F81	F	-3.433079	0.434878	0.455899
H82	H	-4.701778	0.955565	0.258409
F83	F	-4.710500	0.712247	-0.101968
H84	H	-4.304526	0.696608	0.036866
