data_functionalizedCrystal
_audit_creation_method	'MofGen! by Chris Wilmer'
_symmetry_space_group_name_H-M	'P1'
_symmetry_Int_Tables_number	1
_symmetry_cell_setting	triclinic
loop_
_symmetry_equiv_pos_as_xyz
  x,y,z
_cell_length_a	14.853567
_cell_length_b	10.654550
_cell_length_c	9.730223
_cell_angle_alpha	90.003749
_cell_angle_beta	90.002458
_cell_angle_gamma	95.940083
loop_
_atom_site_label
_atom_site_type_symbol
_atom_site_fract_x
_atom_site_fract_y
_atom_site_fract_z
O1	O	0.126622	-1.666519	-0.114390
O2	O	0.138686	-1.300915	-0.114367
O3	O	0.001477	-1.493482	-0.114383
O4	O	0.263832	-1.473951	-0.114374
O5	O	0.001480	-1.493480	0.114197
O6	O	0.138690	-1.300912	0.114213
O7	O	0.126625	-1.666516	0.114190
Zn8	Zn	0.132658	-1.483714	0.150493
Zn9	Zn	0.132654	-1.483717	-0.150671
O10	O	0.263835	-1.473949	0.114206
C11	C	0.137802	-1.254125	-0.000074
C12	C	0.135152	-1.114709	-0.000066
C13	C	-0.032115	-1.492596	-0.000097
C14	C	-0.132213	-1.489944	-0.000109
N15	N	0.132661	-1.483721	0.356030
C16	C	-0.545419	-1.364344	-0.000075
C17	C	-0.565475	-1.593119	-0.000090
C18	C	-0.471428	-1.595613	-0.000098
C19	C	-0.414372	-1.482470	-0.000093
C20	C	-0.451363	-1.366834	-0.000079
C21	C	-0.434430	-1.711247	-0.000097
C22	C	-0.340378	-1.713745	-0.000104
C23	C	-0.283320	-1.600601	-0.000109
C24	C	-0.320316	-1.484961	-0.000097
C25	C	-0.263260	-1.371818	-0.000091
C26	C	-0.300254	-1.256176	-0.000089
C27	C	-0.394305	-1.253691	-0.000084
C28	C	-0.189269	-1.603087	-0.000114
C29	C	-0.169204	-1.374308	-0.000096
C30	C	0.297427	-1.474835	-0.000083
C31	C	0.397525	-1.477487	-0.000080
C32	C	0.127510	-1.713306	-0.000106
C33	C	0.130160	-1.852722	-0.000123
C34	C	0.215939	-1.034384	-0.000083
C35	C	0.213443	-0.903389	-0.000107
C36	C	0.049367	-0.933057	-0.000102
C37	C	0.051863	-1.064050	-0.000068
C38	C	0.310667	-1.017254	-0.000091
C39	C	0.308171	-0.886260	-0.000115
N40	N	0.132644	-1.483720	-0.356207
C41	C	0.071925	-1.569012	0.427949
C42	C	0.071914	-1.569009	0.571832
C43	C	0.193382	-1.398420	0.571864
C44	C	0.193388	-1.398418	0.427984
C45	C	0.001799	-1.667504	0.427931
C46	C	0.001788	-1.667501	0.571814
H47	H	-0.122754	-1.282173	-0.000097
H48	H	-0.159152	-1.697240	-0.000107
O49	O	0.354873	-1.052009	0.113934
C50	C	0.357287	-1.183950	0.113766
H51	H	0.349154	-1.220970	0.004068
H52	H	0.424852	-1.207556	0.156999
H53	H	0.299808	-1.230015	0.180096
H54	H	-0.063695	-1.637668	0.616429
H55	H	-0.575545	-1.270191	-0.000079
H56	H	-0.013921	-1.129447	-0.000035
O57	O	-0.031458	-0.883635	-0.000173
C58	C	-0.016341	-0.750793	-0.000166
H59	H	0.053820	-0.720163	-0.043444
H60	H	-0.069685	-0.710498	-0.066538
H61	H	-0.020935	-0.714297	0.109488
H62	H	-0.067496	-1.646781	0.388876
O63	O	0.346806	-1.059340	-0.117740
C64	C	0.436158	-1.002162	-0.133200
H65	H	0.464256	-0.970049	-0.028496
H66	H	0.480090	-1.073081	-0.179255
H67	H	0.436383	-0.917123	-0.204351
O68	O	-0.244788	-1.146307	-0.000326
C69	C	-0.189769	-1.140932	-0.118688
H70	H	-0.223810	-1.205090	-0.201436
H71	H	-0.179821	-1.039793	-0.158422
H72	H	-0.121189	-1.173564	-0.091918
O73	O	-0.430201	-1.141336	-0.000317
C74	C	-0.401113	-1.072339	-0.118680
H75	H	-0.381128	-1.139949	-0.201432
H76	H	-0.458423	-1.018824	-0.158406
H77	H	-0.340269	-1.002453	-0.091917
H78	H	0.242824	-1.328968	0.630465
H79	H	0.336801	-0.840290	0.098570
H80	H	0.023756	-1.758459	0.383300
H81	H	0.017235	-1.763852	0.610859
H82	H	-0.310265	-1.807907	-0.000108
O83	O	-0.621025	-1.702903	-0.000149
C84	C	-0.711969	-1.675908	-0.000099
H85	H	-0.716196	-1.577262	-0.043366
H86	H	-0.754127	-1.748015	-0.066460
H87	H	-0.739124	-1.680621	0.109566
O88	O	-0.489811	-1.821182	0.000140
C89	C	-0.472916	-1.891391	0.118503
H90	H	-0.441193	-1.825146	0.201253
H91	H	-0.539317	-1.941640	0.158232
H92	H	-0.424577	-1.964161	0.091738
H93	H	0.242836	-1.328957	0.369429
H94	H	0.343862	-0.844157	-0.095782
