data_functionalizedCrystal
_audit_creation_method	'MofGen! by Chris Wilmer'
_symmetry_space_group_name_H-M	'P1'
_symmetry_Int_Tables_number	1
_symmetry_cell_setting	triclinic
loop_
_symmetry_equiv_pos_as_xyz
  x,y,z
_cell_length_a	29.839131
_cell_length_b	12.827893
_cell_length_c	29.839125
_cell_angle_alpha	90.010269
_cell_angle_beta	89.982291
_cell_angle_gamma	89.958609
loop_
_atom_site_label
_atom_site_type_symbol
_atom_site_fract_x
_atom_site_fract_y
_atom_site_fract_z
Zn1	Zn	-0.178917	-1.597388	-0.253985
Zn2	Zn	-0.254029	-1.597230	-0.178855
Zn3	Zn	-0.178913	-1.422657	-0.178870
Zn4	Zn	-0.254020	-1.422535	-0.253958
O5	O	-0.216470	-1.509952	-0.216417
O6	O	-0.188885	-1.743603	-0.244023
O7	O	-0.244067	-1.574057	-0.115989
O8	O	-0.116047	-1.445952	-0.188851
O9	O	-0.244070	-1.743487	-0.188826
O10	O	-0.116049	-1.574326	-0.244038
O11	O	-0.188880	-1.445799	-0.116000
O12	O	-0.188872	-1.276404	-0.188826
O13	O	-0.244056	-1.445745	-0.316829
O14	O	-0.244052	-1.276315	-0.243993
O15	O	-0.188877	-1.574208	-0.316848
O16	O	-0.316895	-1.573939	-0.188800
O17	O	-0.316889	-1.445592	-0.243978
C18	C	-0.333192	-1.509764	-0.216395
C19	C	-0.383127	-1.509778	-0.216400
C20	C	-0.216461	-1.238442	-0.216408
C21	C	-0.216468	-1.122289	-0.216415
C22	C	-0.216466	-1.509981	-0.333595
C23	C	-0.216464	-1.509993	-0.383530
C24	C	-0.692761	-1.576904	-0.187727
C25	C	-0.880434	-1.577033	-0.187745
O26	O	-0.904691	-1.633956	-0.163349
N27	N	-0.903912	-1.510169	-0.216451
C28	C	-0.880469	-1.443272	-0.245156
O29	O	-0.904745	-1.386411	-0.269576
C30	C	-0.692797	-1.443149	-0.245141
C31	C	-0.669321	-1.510011	-0.216430
C32	C	-0.669285	-1.643761	-0.159019
C33	C	-0.622370	-1.643724	-0.159013
C34	C	-0.598930	-1.576830	-0.187716
C35	C	-0.622406	-1.509974	-0.216424
C36	C	-0.669354	-1.376259	-0.273848
C37	C	-0.622433	-1.376236	-0.273843
C38	C	-0.598958	-1.443097	-0.245132
C39	C	-0.552050	-1.443043	-0.245121
N40	N	-0.528572	-1.509908	-0.216415
C41	C	-0.552012	-1.576801	-0.187712
C42	C	-0.978999	-1.443340	-0.245162
C43	C	-1.025917	-1.443369	-0.245165
C44	C	-1.025879	-1.577132	-0.187754
C45	C	-0.978960	-1.577097	-0.187749
C46	C	-0.955521	-1.510205	-0.216456
C47	C	-0.453486	-1.576718	-0.187702
C48	C	-0.406567	-1.576672	-0.187698
C49	C	-0.406609	-1.442914	-0.245110
C50	C	-0.453524	-1.442955	-0.245113
C51	C	-0.476962	-1.509866	-0.216408
O52	O	-0.527765	-1.386158	-0.269507
O53	O	-0.527728	-1.633671	-0.163303
C54	C	-0.739676	-1.576941	-0.187733
C55	C	-0.763152	-1.510085	-0.216441
C56	C	-0.739712	-1.443191	-0.245144
C57	C	-0.810070	-1.510114	-0.216445
C58	C	-0.833509	-1.577007	-0.187742
C59	C	-0.810031	-1.643872	-0.159037
C60	C	-0.763116	-1.643835	-0.159031
C61	C	-0.763190	-1.376327	-0.273850
C62	C	-0.810106	-1.376368	-0.273853
C63	C	-0.833545	-1.443262	-0.245150
C64	C	-0.099291	-1.510170	-0.216449
C65	C	-0.049357	-1.510263	-0.216463
C66	C	-0.216479	-1.782522	-0.216426
C67	C	-0.216483	-1.898675	-0.216429
C68	C	-0.243816	-1.070488	-0.243672
C69	C	-0.243824	-0.950438	-0.243680
C70	C	-0.187657	-1.576954	-0.693186
C71	C	-0.187619	-1.577006	-0.880859
O72	O	-0.163169	-1.633861	-0.905135
N73	N	-0.216344	-1.510131	-0.904315
C74	C	-0.245078	-1.443234	-0.880849
O75	O	-0.269506	-1.386347	-0.905106
C76	C	-0.245114	-1.443178	-0.693177
C77	C	-0.216390	-1.510064	-0.669724
C78	C	-0.158936	-1.643834	-0.669733
C79	C	-0.158948	-1.643824	-0.622818
C80	C	-0.187681	-1.576935	-0.599355
C81	C	-0.216402	-1.510055	-0.622808
C82	C	-0.273845	-1.376276	-0.669712
C83	C	-0.273851	-1.376266	-0.622791
C84	C	-0.245127	-1.443152	-0.599338
C85	C	-0.245146	-1.443155	-0.552431
N86	N	-0.216422	-1.510030	-0.528975
C87	C	-0.187689	-1.576919	-0.552437
C88	C	-0.245058	-1.443270	-0.979380
C89	C	-0.245049	-1.443285	-1.026298
C90	C	-0.187590	-1.577056	-1.026305
C91	C	-0.187601	-1.577045	-0.979386
C92	C	-0.216333	-1.510144	-0.955924
C93	C	-0.187716	-1.576895	-0.453912
C94	C	-0.187731	-1.576882	-0.406992
C95	C	-0.245189	-1.443108	-0.406989
C96	C	-0.245175	-1.443124	-0.453905
C97	C	-0.216435	-1.510021	-0.477365
O98	O	-0.269580	-1.386321	-0.528126
O99	O	-0.163258	-1.633782	-0.528173
C100	C	-0.187646	-1.576963	-0.740102
C101	C	-0.216367	-1.510083	-0.763555
C102	C	-0.245100	-1.443194	-0.740093
C103	C	-0.216359	-1.510099	-0.810473
C104	C	-0.187626	-1.576988	-0.833935
C105	C	-0.158901	-1.643863	-0.810479
C106	C	-0.158913	-1.643853	-0.763564
C107	C	-0.273825	-1.376319	-0.763548
C108	C	-0.273811	-1.376335	-0.810464
C109	C	-0.245078	-1.443225	-0.833926
C110	C	-0.216441	-1.509984	-0.099694
C111	C	-0.216317	-1.510175	-0.049760
H112	H	-0.387454	-1.631118	-0.164316
H113	H	-0.193059	-1.077762	-0.193088
C114	C	-0.479348	-1.369401	-0.276695
N115	N	-0.498796	-1.314007	-0.300486
C116	C	-0.156130	-1.650460	-0.381196
N117	N	-0.132327	-1.705875	-0.361769
H118	H	-0.135508	-1.698330	-0.829591
C119	C	-0.380816	-1.369338	-0.276683
N120	N	-0.361388	-1.313927	-0.300467
H121	H	-0.164311	-1.631365	-0.473007
H122	H	-0.164195	-1.631521	-1.045416
H123	H	-0.135557	-1.698288	-0.603726
H124	H	-0.268444	-1.388831	-1.045389
C125	C	-0.305411	-1.302748	-0.836257
N126	N	-0.329208	-1.247316	-0.855683
H127	H	-0.135536	-1.698304	-0.688831
H128	H	-0.744109	-1.321855	-0.297223
H129	H	-0.268458	-1.388792	-0.960282
H130	H	-0.959918	-1.388866	-0.268539
H131	H	-0.297223	-1.321849	-0.744450
H132	H	-0.267239	-0.905890	-0.267014
C133	C	-0.695167	-1.302708	-0.305435
N134	N	-0.714608	-1.247306	-0.329228
H135	H	-0.297244	-1.321775	-0.603691
H136	H	-0.603352	-1.321765	-0.297221
C137	C	-0.276775	-1.369553	-0.479704
N138	N	-0.300573	-1.314130	-0.499133
H139	H	-0.164211	-1.631508	-0.960293
C140	C	-0.275441	-1.130638	-0.275189
N141	N	-0.299262	-1.175941	-0.298928
H142	H	-0.472563	-1.631205	-0.164328
H143	H	-0.297235	-1.321810	-0.688800
H144	H	-0.193070	-0.943217	-0.193091
C145	C	-0.953142	-1.650652	-0.156166
N146	N	-0.933697	-1.706058	-0.132378
C147	C	-0.276791	-1.369528	-0.381172
N148	N	-0.300591	-1.314099	-0.361725
H149	H	-0.829216	-1.321912	-0.297232
C150	C	-0.596553	-1.717269	-0.127425
N151	N	-0.577110	-1.772664	-0.103630
C152	C	-0.695061	-1.717350	-0.127439
N153	N	-0.714473	-1.772775	-0.103647
H154	H	-1.044972	-1.631600	-0.164384
C155	C	-0.835824	-1.717454	-0.127463
N156	N	-0.855254	-1.772876	-0.103685
C157	C	-1.051735	-1.369807	-0.276745
N158	N	-1.071180	-1.314401	-0.300534
C159	C	-0.127311	-1.717426	-0.737772
N160	N	-0.103506	-1.772841	-0.718348
H161	H	-0.744005	-1.698280	-0.135652
