data_functionalizedCrystal
_audit_creation_method	'MofGen! by Chris Wilmer'
_symmetry_space_group_name_H-M	'P1'
_symmetry_Int_Tables_number	1
_symmetry_cell_setting	triclinic
loop_
_symmetry_equiv_pos_as_xyz
  x,y,z
_cell_length_a	11.792241
_cell_length_b	11.792254
_cell_length_c	10.868271
_cell_angle_alpha	90.005308
_cell_angle_beta	90.000107
_cell_angle_gamma	84.196007
loop_
_atom_site_label
_atom_site_type_symbol
_atom_site_fract_x
_atom_site_fract_y
_atom_site_fract_z
O1	O	-1.506915	-0.155568	-0.102203
O2	O	-1.173582	0.177766	0.231130
O3	O	-0.840249	0.511099	0.564463
O4	O	-1.176575	-0.171600	-0.102232
O5	O	-0.843242	0.161733	0.231101
O6	O	-0.509908	0.495066	0.564435
O7	O	-1.349754	0.001586	-0.102208
O8	O	-1.016421	0.334919	0.231125
O9	O	-0.683088	0.668252	0.564458
O10	O	-1.333736	-0.328754	-0.102227
O11	O	-1.000403	0.004580	0.231106
O12	O	-0.667070	0.337913	0.564440
O13	O	-1.349740	0.001592	0.102436
O14	O	-1.016407	0.334926	0.435770
O15	O	-0.683073	0.668259	0.769103
O16	O	-1.176561	-0.171594	0.102413
O17	O	-0.843227	0.161740	0.435746
O18	O	-0.509894	0.495073	0.769079
O19	O	-1.506901	-0.155561	0.102441
O20	O	-1.173568	0.177773	0.435775
O21	O	-0.840234	0.511106	0.769108
Zn22	Zn	-1.341729	-0.163576	0.134919
Zn23	Zn	-1.008395	0.169757	0.468252
Zn24	Zn	-0.675062	0.503091	0.801585
Zn25	Zn	-1.341748	-0.163585	-0.134709
Zn26	Zn	-1.008414	0.169748	0.198624
Zn27	Zn	-0.675081	0.503082	0.531957
O28	O	-1.333722	-0.328747	0.102418
O29	O	-1.000389	0.004587	0.435751
O30	O	-0.667055	0.337920	0.769084
C31	C	-1.134277	-0.170590	0.000087
C32	C	-0.800944	0.162743	0.333420
C33	C	-0.467610	0.496077	0.666753
C34	C	-1.008263	-0.167576	0.000076
C35	C	-0.674930	0.165758	0.333409
C36	C	-0.341596	0.499091	0.666743
C37	C	-1.348738	0.043880	0.000114
C38	C	-1.015405	0.377213	0.333447
C39	C	-0.682071	0.710546	0.666780
C40	C	-1.345718	0.169893	0.000112
C41	C	-1.012385	0.503226	0.333445
C42	C	-0.679051	0.836559	0.666779
C43	C	-1.549199	-0.156571	0.000120
C44	C	-1.215866	0.176762	0.333453
C45	C	-0.882533	0.510095	0.666787
C46	C	-1.675213	-0.159586	0.000123
C47	C	-1.341880	0.173748	0.333456
C48	C	-1.008546	0.507081	0.666789
C49	C	-1.334738	-0.371041	0.000093
C50	C	-1.001405	-0.037708	0.333426
C51	C	-0.668071	0.295626	0.666760
C52	C	-1.337758	-0.497054	0.000086
C53	C	-1.004425	-0.163721	0.333420
C54	C	-0.671092	0.169613	0.666753
C55	C	-0.777551	-0.162033	0.000112
C56	C	-0.444217	0.171301	0.333445
C57	C	-0.110884	0.504634	0.666778
C58	C	-0.905936	-0.165112	0.000092
C59	C	-0.572603	0.168221	0.333425
C60	C	-0.239269	0.501554	0.666759
N61	N	-1.341724	-0.163569	0.318933
N62	N	-1.008391	0.169764	0.652266
N63	N	-0.675057	0.503097	0.985599
C64	C	-1.343264	0.272229	0.000108
C65	C	-1.009931	0.605563	0.333441
C66	C	-0.676597	0.938896	0.666774
C67	C	-1.340196	0.400616	0.000096
C68	C	-1.006862	0.733949	0.333429
C69	C	-0.673529	1.067283	0.666763
N70	N	-1.341761	-0.163583	-0.318724
N71	N	-1.008428	0.169750	0.014610
N72	N	-0.675094	0.503084	0.347943
C73	C	-1.341742	-0.163583	0.569939
C74	C	-1.008408	0.169751	0.903272
C75	C	-0.675075	0.503084	1.236605
C76	C	-1.341728	-0.163579	0.430261
C77	C	-1.008395	0.169755	0.763595
C78	C	-0.675062	0.503088	1.096928
