data_functionalizedCrystal
_audit_creation_method	'MofGen! by Chris Wilmer'
_symmetry_space_group_name_H-M	'P1'
_symmetry_Int_Tables_number	1
_symmetry_cell_setting	triclinic
loop_
_symmetry_equiv_pos_as_xyz
  x,y,z
_cell_length_a	18.050591
_cell_length_b	29.839131
_cell_length_c	18.050582
_cell_angle_alpha	89.974523
_cell_angle_beta	89.979078
_cell_angle_gamma	90.037426
loop_
_atom_site_label
_atom_site_type_symbol
_atom_site_fract_x
_atom_site_fract_y
_atom_site_fract_z
Zn1	Zn	1.135224	-0.178930	-0.420016
Zn2	Zn	1.635224	0.321070	0.079984
Zn3	Zn	1.135106	-0.254052	-0.295820
Zn4	Zn	1.635106	0.245948	0.204180
Zn5	Zn	1.011044	-0.178932	-0.295827
Zn6	Zn	1.511044	0.321068	0.204173
Zn7	Zn	1.010963	-0.254028	-0.419956
Zn8	Zn	1.510963	0.245972	0.080044
O9	O	1.073084	-0.216485	-0.357905
O10	O	1.573084	0.283515	0.142095
O11	O	1.239133	-0.188904	-0.403564
O12	O	1.739133	0.311096	0.096436
O13	O	1.118634	-0.244098	-0.191896
O14	O	1.618634	0.255902	0.308104
O15	O	1.027600	-0.116064	-0.312330
O16	O	1.527600	0.383936	0.187670
O17	O	1.239047	-0.244096	-0.312317
O18	O	1.739047	0.255904	0.187683
O19	O	1.118835	-0.116063	-0.403571
O20	O	1.618835	0.383937	0.096429
O21	O	1.027485	-0.188907	-0.191902
O22	O	1.527485	0.311093	0.308098
O23	O	0.907108	-0.188884	-0.312271
O24	O	1.407108	0.311116	0.187729
O25	O	1.027462	-0.244056	-0.523888
O26	O	1.527462	0.255944	-0.023888
O27	O	0.907049	-0.244057	-0.403467
O28	O	1.407049	0.255943	0.096533
O29	O	1.118756	-0.188881	-0.523933
O30	O	1.618756	0.311119	-0.023933
O31	O	1.118555	-0.316916	-0.312258
O32	O	1.618555	0.183084	0.187742
O33	O	1.027348	-0.316898	-0.403460
O34	O	1.527348	0.183102	0.096540
C35	C	0.880132	-0.216469	-0.357864
C36	C	1.380132	0.283531	0.142136
C37	C	0.797586	-0.216472	-0.357864
C38	C	1.297586	0.283528	0.142136
C39	C	0.598146	-0.186434	-0.308386
C40	C	1.098146	0.313566	0.191614
C41	C	0.548711	-0.227410	-0.290106
C42	C	1.048711	0.272590	0.209894
C43	C	0.646456	-0.216486	-0.357897
C44	C	1.146456	0.283514	0.142103
C45	C	0.548810	-0.175525	-0.376175
C46	C	1.048810	0.324475	0.123825
C47	C	0.500471	-0.216495	-0.357928
C48	C	1.000471	0.283505	0.142072
C49	C	0.598108	-0.257483	-0.339583
C50	C	1.098108	0.242517	0.160417
C51	C	0.598211	-0.205570	-0.425683
C52	C	1.098211	0.294430	0.074317
C53	C	0.548798	-0.246574	-0.407429
C54	C	1.048798	0.253426	0.092571
C55	C	0.730554	-0.216480	-0.357878
C56	C	1.230554	0.283520	0.142122
C57	C	0.416374	-0.216506	-0.357948
C58	C	0.916374	0.283494	0.142052
C59	C	1.072950	-0.333208	-0.357868
C60	C	1.572950	0.166792	0.142132
C61	C	1.072961	-0.383142	-0.357877
C62	C	1.572961	0.116858	0.142123
C63	C	1.120663	-0.692782	-0.310485
C64	C	1.620663	-0.192782	0.189515
C65	C	1.120754	-0.880455	-0.310514
C66	C	1.620754	-0.380455	0.189486
O67	O	1.161206	-0.904717	-0.270192
O68	O	1.661206	-0.404717	0.229808
N69	N	1.073238	-0.903927	-0.357961
N70	N	1.573238	-0.403927	0.142039
C71	C	1.025700	-0.880478	-0.405407
C72	C	1.525700	-0.380478	0.094593
O73	O	0.985292	-0.904749	-0.445769
O74	O	1.485292	-0.404749	0.054231
C75	C	1.025612	-0.692806	-0.405381
C76	C	1.525612	-0.192806	0.094619
C77	C	1.073126	-0.669337	-0.357926
C78	C	1.573126	-0.169337	0.142074
C79	C	1.168173	-0.669312	-0.263035
C80	C	1.668173	-0.169312	0.236965
C81	C	1.168147	-0.622397	-0.263025
C82	C	1.668147	-0.122397	0.236975
C83	C	1.120610	-0.598951	-0.310466
C84	C	1.620610	-0.098951	0.189534
C85	C	1.073100	-0.622421	-0.357917
C86	C	1.573100	-0.122421	0.142083
C87	C	0.978078	-0.669358	-0.452831
C88	C	1.478078	-0.169358	0.047169
C89	C	0.978062	-0.622437	-0.452822
C90	C	1.478062	-0.122437	0.047178
C91	C	1.025575	-0.598967	-0.405367
C92	C	1.525575	-0.098967	0.094633
C93	C	1.025537	-0.552060	-0.405348
C94	C	1.525537	-0.052060	0.094652
N95	N	1.073053	-0.528588	-0.357902
N96	N	1.573053	-0.028588	0.142098
C97	C	1.120589	-0.552033	-0.310461
C98	C	1.620589	-0.052033	0.189539
C99	C	1.025748	-0.979009	-0.405416
C100	C	1.525748	-0.479009	0.094584
C101	C	1.025769	-1.025927	-0.405422
C102	C	1.525769	-0.525927	0.094578
C103	C	1.120824	-1.025900	-0.310530
C104	C	1.620824	-0.525900	0.189470
C105	C	1.120799	-0.978982	-0.310521
C106	C	1.620799	-0.478982	0.189479
C107	C	1.073264	-0.955537	-0.357970
C108	C	1.573264	-0.455537	0.142030
C109	C	1.120530	-0.453508	-0.310444
C110	C	1.620530	0.046492	0.189556
C111	C	1.120497	-0.406588	-0.310436
C112	C	1.620497	0.093412	0.189564
C113	C	1.025445	-0.406619	-0.405331
C114	C	1.525445	0.093381	0.094669
C115	C	1.025474	-0.453534	-0.405336
C116	C	1.525474	0.046466	0.094664
C117	C	1.073023	-0.476977	-0.357890
C118	C	1.573023	0.023023	0.142110
O119	O	0.985113	-0.527769	-0.445655
O120	O	1.485113	-0.027769	0.054345
O121	O	1.161002	-0.527755	-0.270116
O122	O	1.661002	-0.027755	0.229884
C123	C	1.120689	-0.739698	-0.310495
C124	C	1.620689	-0.239698	0.189505
C125	C	1.073178	-0.763167	-0.357946
C126	C	1.573178	-0.263167	0.142054
C127	C	1.025642	-0.739722	-0.405387
C128	C	1.525642	-0.239722	0.094613
C129	C	1.073199	-0.810085	-0.357951
C130	C	1.573199	-0.310085	0.142049
C131	C	1.120736	-0.833531	-0.310510
C132	C	1.620736	-0.333531	0.189490
C133	C	1.168252	-0.810059	-0.263064
C134	C	1.668252	-0.310059	0.236936
C135	C	1.168225	-0.763143	-0.263054
C136	C	1.668225	-0.263143	0.236946
C137	C	0.978126	-0.763194	-0.452833
C138	C	1.478126	-0.263194	0.047167
C139	C	0.978155	-0.810109	-0.452838
C140	C	1.478155	-0.310109	0.047162
C141	C	1.025692	-0.833555	-0.405397
C142	C	1.525692	-0.333555	0.094603
C143	C	1.266790	-0.216502	-0.357947
C144	C	1.766790	0.283498	0.142053
C145	C	1.349336	-0.216510	-0.357964
C146	C	1.849336	0.283490	0.142036
C147	C	1.073113	-0.216465	-0.551611
C148	C	1.573113	0.283535	-0.051611
C149	C	1.073126	-0.216457	-0.634156
C150	C	1.573126	0.283543	-0.134156
C151	C	1.073239	-0.099307	-0.357958
C152	C	1.573239	0.400693	0.142042
C153	C	1.073305	-0.049373	-0.357981
C154	C	1.573305	0.450627	0.142019
C155	C	1.023518	-0.246420	-0.833583
C156	C	1.523518	0.253580	-0.333583
C157	C	1.091269	-0.257404	-0.882980
C158	C	1.591269	0.242596	-0.382980
C159	C	1.073162	-0.216423	-0.785287
C160	C	1.573162	0.283577	-0.285287
C161	C	1.005449	-0.205426	-0.882971
C162	C	1.505449	0.294574	-0.382971
C163	C	1.073192	-0.216390	-0.931272
C164	C	1.573192	0.283610	-0.431272
C165	C	1.140949	-0.227429	-0.833597
C166	C	1.640949	0.272571	-0.333597
C167	C	1.055083	-0.175431	-0.833584
C168	C	1.555083	0.324569	-0.333584
C169	C	1.122881	-0.186400	-0.882959
C170	C	1.622881	0.313600	-0.382959
C171	C	1.073145	-0.216442	-0.701189
C172	C	1.573145	0.283558	-0.201189
C173	C	1.073218	-0.216371	-1.015369
C174	C	1.573218	0.283629	-0.515369
C175	C	1.073098	-0.216473	-0.164953
C176	C	1.573098	0.283527	0.335047
C177	C	1.073230	-0.216355	-0.082407
C178	C	1.573230	0.283645	0.417593
H179	H	1.159189	-0.387480	-0.271790
H180	H	1.659189	0.112520	0.228210
O181	O	0.626864	-0.152809	-0.252870
O182	O	1.126864	0.347191	0.247130
H183	H	0.607039	-0.161985	-0.196656
H184	H	1.107039	0.338015	0.303344
O185	O	1.219454	-0.694591	-0.211859
O186	O	1.719454	-0.194591	0.288141
H187	H	1.257238	-0.715931	-0.245133
H188	H	1.757238	-0.215931	0.254867
O189	O	0.967961	-0.280064	-0.804861
O190	O	1.467961	0.219936	-0.304861
H191	H	0.925596	-0.262527	-0.771031
H192	H	1.425596	0.237473	-0.271031
H193	H	0.619970	-0.196318	-0.482978
H194	H	1.119970	0.303682	0.017022
O195	O	1.178566	-0.152776	-0.911498
O196	O	1.678566	0.347224	-0.411498
H197	H	1.177848	-0.152793	-0.972984
H198	H	1.677848	0.347207	-0.472984
O199	O	0.626663	-0.303387	-0.319022
O200	O	1.126663	0.196613	0.180978
H201	H	0.688151	-0.303017	-0.319139
H202	H	1.188151	0.196983	0.180861
H203	H	0.948172	-0.196138	-0.904660
H204	H	1.448172	0.303862	-0.404660
H205	H	1.106579	-0.292056	-0.904678
H206	H	1.606579	0.207944	-0.404678
O207	O	1.216944	-0.239558	-0.805000
O208	O	1.716944	0.260442	-0.305000
H209	H	1.216364	-0.239408	-0.743513
H210	H	1.716364	0.260592	-0.243513
H211	H	0.527267	-0.272021	-0.449313
H212	H	1.027267	0.227979	0.050687
H213	H	0.987071	-1.045032	-0.444057
H214	H	1.487071	-0.545032	0.055943
O215	O	1.034763	-0.129550	-0.804800
O216	O	1.534763	0.370450	-0.304800
H217	H	1.024116	-0.106748	-0.852209
H218	H	1.524116	0.393252	-0.352209
O219	O	0.519901	-0.239651	-0.214196
O220	O	1.019901	0.260349	0.285804
H221	H	0.539659	-0.214654	-0.173181
H222	H	1.039659	0.285346	0.326819
H223	H	0.527115	-0.140885	-0.391596
H224	H	1.027115	0.359115	0.108404
O225	O	1.219399	-0.597086	-0.211846
O226	O	1.719399	-0.097086	0.288154
H227	H	1.257148	-0.575677	-0.245122
H228	H	1.757148	-0.075677	0.254878
O229	O	1.171807	-0.478790	-0.259266
O230	O	1.671807	0.021210	0.240734
H231	H	1.204829	-0.454582	-0.226267
H232	H	1.704829	0.045418	0.273733
H233	H	0.939458	-0.829214	-0.491481
H234	H	1.439458	-0.329214	0.008519
O235	O	1.172056	-0.953667	-0.259351
O236	O	1.672056	-0.453667	0.240649
H237	H	1.159370	-0.962697	-0.201051
H238	H	1.659370	-0.462697	0.298949
O239	O	1.172112	-1.051192	-0.259372
O240	O	1.672112	-0.551192	0.240628
H241	H	1.164147	-1.087759	-0.267362
H242	H	1.664147	-0.587759	0.232638
O243	O	0.974457	-0.953724	-0.456578
O244	O	1.474457	-0.453724	0.043422
H245	H	0.941414	-0.977932	-0.489557
H246	H	1.441414	-0.477932	0.010443
O247	O	0.926835	-0.694666	-0.504020
O248	O	1.426835	-0.194666	-0.004020
H249	H	0.893790	-0.670473	-0.537009
H250	H	1.393790	-0.170473	-0.037009
H251	H	0.939353	-0.603351	-0.491462
H252	H	1.439353	-0.103351	0.008538
H253	H	0.986787	-0.472644	-0.443980
H254	H	1.486787	0.027356	0.056020
H255	H	0.986739	-0.387522	-0.443954
H256	H	1.486739	0.112478	0.056046
H257	H	1.206956	-0.829156	-0.224433
H258	H	1.706956	-0.329156	0.275567
O259	O	1.219480	-0.737831	-0.211878
O260	O	1.719480	-0.237831	0.288122
H261	H	1.252540	-0.762023	-0.178902
H262	H	1.752540	-0.262023	0.321098
H263	H	0.939417	-0.744108	-0.491466
H264	H	1.439417	-0.244108	0.008534
