data_functionalizedCrystal
_audit_creation_method	'MofGen! by Chris Wilmer'
_symmetry_space_group_name_H-M	'P1'
_symmetry_Int_Tables_number	1
_symmetry_cell_setting	triclinic
loop_
_symmetry_equiv_pos_as_xyz
  x,y,z
_cell_length_a	17.917603
_cell_length_b	21.606444
_cell_length_c	21.606444
_cell_angle_alpha	59.999490
_cell_angle_beta	90.001745
_cell_angle_gamma	57.022104
loop_
_atom_site_label
_atom_site_type_symbol
_atom_site_fract_x
_atom_site_fract_y
_atom_site_fract_z
Zr1	Zr	0.755096	0.620361	-0.052673
O2	O	0.630008	0.758905	-0.156210
O3	O	0.793414	0.488370	-0.020941
O4	O	0.793446	0.617471	-0.150052
O5	O	0.629982	0.629798	0.074756
O6	O	0.922400	0.607739	-0.145186
O7	O	0.629976	0.629803	-0.027099
O8	O	0.922343	0.376800	0.085770
O9	O	0.630039	0.860738	-0.156200
O10	O	0.906027	0.532970	-0.003767
O11	O	0.809795	0.540230	0.068614
O12	O	0.809832	0.692230	-0.083397
O13	O	0.713600	0.699490	-0.011016
Zr14	Zr	0.960774	0.604832	0.117535
Zr15	Zr	0.960763	0.604840	-0.044911
Zr16	Zr	0.755106	0.620354	0.109773
Zr17	Zr	0.755146	0.782773	-0.052658
Zr18	Zr	0.960723	0.442420	0.117520
O19	O	0.922455	0.736824	0.085803
O20	O	0.922440	0.736835	-0.145174
O21	O	0.630023	0.758894	0.074768
O22	O	1.085862	0.466289	0.221071
O23	O	1.085847	0.466300	-0.009906
O24	O	0.793429	0.488359	0.210036
O25	O	1.085887	0.595396	-0.009894
O26	O	0.922423	0.607722	0.214914
O27	O	0.793469	0.617454	0.210048
O28	O	1.085893	0.595391	0.091961
O29	O	0.793518	0.848400	-0.150031
O30	O	0.922352	0.376793	0.214893
O31	O	1.085830	0.364456	0.221062
O32	O	1.085822	0.364462	0.091939
O33	O	0.630048	0.860731	-0.027077
O34	O	0.793526	0.848394	-0.020908
O35	O	0.906037	0.532963	0.148259
O36	O	1.002269	0.525704	0.075878
O37	O	0.906074	0.684964	-0.003753
O38	O	0.809842	0.692223	0.068628
C39	C	0.857872	0.409444	0.032412
C40	C	0.857850	0.340496	0.032406
C41	C	0.929035	-0.144346	0.091243
C42	C	0.929015	-0.079537	0.091235
C43	C	0.857973	0.014316	0.032441
C44	C	0.786953	0.043360	-0.026352
C45	C	0.786979	-0.021450	-0.026346
C46	C	0.786850	0.304730	-0.026379
C47	C	0.786829	0.369540	-0.026379
C48	C	0.928887	0.246643	0.091201
C49	C	0.928912	0.181834	0.091208
C50	C	0.857896	0.210882	0.032413
C51	C	0.857920	0.140608	0.032422
C52	C	0.857944	0.084591	0.032434
C53	C	0.600676	0.632012	0.022723
C54	C	0.513365	0.638601	0.019428
C55	C	0.353524	0.650637	0.013410
C56	C	0.362338	0.574560	0.051449
C57	C	0.273398	0.581257	0.048101
C58	C	0.442471	0.643942	0.016758
C59	C	1.115193	0.593182	0.042139
C60	C	1.202505	0.586592	0.045434
C61	C	0.857922	0.612606	-0.170764
C62	C	0.857917	0.612610	-0.239727
C63	C	0.857998	0.815749	0.032450
C64	C	0.858019	0.884697	0.032456
C65	C	0.807704	0.695741	-0.313692
C66	C	0.807712	0.695738	-0.378486
C67	C	0.857929	0.612603	-0.369314
C68	C	0.908148	0.529465	-0.295342
C69	C	0.908145	0.529469	-0.230549
C70	C	0.908163	0.529449	-0.556644
C71	C	0.908160	0.529452	-0.621445
C72	C	0.807731	0.695718	-0.704582
C73	C	0.807727	0.695722	-0.639789
C74	C	0.857951	0.612584	-0.565822
C75	C	0.857943	0.612588	-0.495565
C76	C	0.857932	0.612598	-0.439570
C77	C	0.857948	0.612587	0.235626
C78	C	0.857952	0.612584	0.304589
C79	C	1.115130	0.390029	0.042120
C80	C	1.202420	0.314492	0.045409
C81	C	0.857885	0.409435	0.235607
C82	C	0.857868	0.340483	0.304563
C83	C	1.115143	0.390020	0.245315
C84	C	1.202438	0.314479	0.317567
C85	C	0.600726	0.835174	-0.180454
C86	C	0.513432	0.910715	-0.252705
C87	C	0.600739	0.835164	0.022741
C88	C	0.513449	0.910702	0.019453
C89	C	0.857985	0.815759	-0.170745
C90	C	0.858002	0.884710	-0.239702
C91	C	1.193175	0.282812	0.005373
C92	C	1.275185	0.211846	0.008447
C93	C	1.366439	0.172557	0.051563
C94	C	1.375683	0.204244	0.091600
C95	C	1.293674	0.275213	0.088521
C96	C	0.908097	0.304310	0.378526
C97	C	0.908077	0.239532	0.443324
C98	C	0.857833	0.210924	0.434157
C99	C	0.807598	0.247104	0.360187
C100	C	0.807612	0.311886	0.295390
C101	C	1.293673	0.275214	0.313715
C102	C	1.375703	0.204244	0.381596
C103	C	1.366496	0.172536	0.453329
C104	C	1.275251	0.211807	0.457179
C105	C	1.193223	0.282781	0.389298
C106	C	0.422197	0.949987	-0.248853
C107	C	0.340166	1.020977	-0.316735
C108	C	0.349374	1.052689	-0.388467
C109	C	0.440619	1.013413	-0.392317
C110	C	0.522647	0.942429	-0.324437
C111	C	0.522694	0.942388	0.059482
C112	C	0.440684	1.013372	0.056390
C113	C	0.349430	1.052663	0.013272
C114	C	0.340186	1.020974	-0.026762
C115	C	0.422196	0.949996	-0.023674
C116	C	0.908255	0.913297	-0.230510
C117	C	0.908290	0.978074	-0.295295
C118	C	0.858065	1.014268	-0.369271
C119	C	0.807810	0.985675	-0.378461
C120	C	0.807781	0.920894	-0.313676
H121	H	0.728972	0.445964	-0.074256
H122	H	0.986759	0.105416	0.139085
H123	H	1.433296	0.114744	0.508596
H124	H	0.279186	0.720793	-0.021668
H125	H	0.766854	0.897627	-0.321171
O126	O	0.450545	1.047614	-0.469688
H127	H	0.378172	1.103563	-0.516236
H128	H	0.766690	0.223802	0.352734
H129	H	0.986882	-0.220764	0.139123
H130	H	0.986846	-0.103193	0.139104
O131	O	0.753636	1.024702	-0.458244
H132	H	0.698130	1.100357	-0.491751
H133	H	0.766713	0.341330	0.235169
O134	O	0.962268	0.200511	0.523102
H135	H	1.017763	0.124854	0.556614
O136	O	0.858095	1.084144	-0.439142
H137	H	0.783306	1.148823	-0.476176
H138	H	0.436681	0.504398	0.086530
H139	H	0.282660	1.110458	0.010764
H140	H	0.729022	0.328394	-0.074251
O141	O	1.265196	0.177681	-0.034738
H142	H	1.337548	0.121740	-0.025368
O143	O	1.265325	0.177592	0.534550
H144	H	1.337697	0.121634	0.581098
O145	O	0.241758	1.063354	-0.073261
H146	H	0.233402	1.093513	-0.134561
H147	H	0.766805	0.763440	-0.321169
O148	O	1.474097	0.161926	0.377411
H149	H	1.513865	0.171390	0.406510
O150	O	1.303615	0.309417	0.236350
H151	H	1.380844	0.270191	0.245088
O152	O	0.241759	1.063327	-0.312574
H153	H	0.201967	1.053911	-0.341710
H154	H	1.118938	0.314742	0.392445
O155	O	1.094755	0.325189	-0.041141
H156	H	1.102120	0.291237	-0.068469
O157	O	0.753551	0.785401	-0.458265
H158	H	0.718621	0.843211	-0.453758
H159	H	1.433209	0.114769	0.054064
H160	H	0.986714	0.222996	0.139073
H161	H	0.949213	1.001347	-0.287797
O162	O	0.710326	0.144586	-0.089768
H163	H	0.722232	0.184775	-0.079893
H164	H	0.949012	0.327595	0.386005
H165	H	0.596932	0.910454	-0.327582
O166	O	0.710380	0.009870	-0.089748
H167	H	0.660970	0.086020	-0.130629
H168	H	0.766839	0.763413	-0.764816
O169	O	0.753564	0.785388	-0.649679
H170	H	0.718654	0.843196	-0.711998
O171	O	0.412254	0.915796	-0.171488
H172	H	0.335026	0.955048	-0.180227
H173	H	0.949056	0.461749	-0.613968
O174	O	1.303650	0.309367	0.131718
H175	H	1.380884	0.270111	0.162221
H176	H	0.282573	1.110490	-0.443734
H177	H	1.449993	0.172244	0.126703
H178	H	0.857829	0.158174	0.486925
O179	O	0.621114	0.900030	0.105977
H180	H	0.613749	0.934010	0.133277
O181	O	0.450664	1.047533	0.099582
H182	H	0.527898	1.008269	0.130095
H183	H	0.414655	0.924199	-0.056269
H184	H	0.949059	0.461753	-0.496425
O185	O	0.962310	0.439794	-0.285442
H186	H	0.953868	0.453756	-0.342923
O187	O	0.962446	0.874257	-0.150727
H188	H	0.933451	0.930825	-0.145225
O189	O	0.962297	0.439807	-0.150768
H190	H	0.997208	0.381997	-0.155274
