data_functionalizedCrystal
_audit_creation_method	'MofGen! by Chris Wilmer'
_symmetry_space_group_name_H-M	'P1'
_symmetry_Int_Tables_number	1
_symmetry_cell_setting	triclinic
loop_
_symmetry_equiv_pos_as_xyz
  x,y,z
_cell_length_a	16.992695
_cell_length_b	16.992695
_cell_length_c	16.053789
_cell_angle_alpha	87.278479
_cell_angle_beta	92.719492
_cell_angle_gamma	89.331777
loop_
_atom_site_label
_atom_site_type_symbol
_atom_site_fract_x
_atom_site_fract_y
_atom_site_fract_z
O1	O	1.053995	-0.170061	0.069398
O2	O	1.553995	0.329939	0.569398
O3	O	0.825595	-0.168230	0.069407
O4	O	1.325595	0.331770	0.569407
O5	O	0.938879	-0.054945	0.069396
O6	O	1.438879	0.445055	0.569396
O7	O	0.940711	-0.283346	0.069409
O8	O	1.440711	0.216654	0.569409
O9	O	0.932577	-0.048650	-0.069464
O10	O	1.432577	0.451350	0.430536
O11	O	0.819293	-0.161934	-0.069453
O12	O	1.319293	0.338066	0.430547
O13	O	1.047693	-0.163765	-0.069462
O14	O	1.547693	0.336235	0.430538
Zn15	Zn	0.932492	-0.161850	-0.091504
Zn16	Zn	1.432492	0.338150	0.408496
Zn17	Zn	0.940796	-0.170145	0.091449
Zn18	Zn	1.440796	0.329855	0.591449
O19	O	0.934409	-0.277050	-0.069451
O20	O	1.434409	0.222950	0.430549
C21	C	0.793084	-0.162726	-0.000022
C22	C	1.293084	0.337274	0.499978
C23	C	0.705600	-0.155698	-0.000019
C24	C	1.205600	0.344302	0.499981
C25	C	0.933372	-0.022437	-0.000034
C26	C	1.433372	0.477563	0.499966
C27	C	0.926344	0.065048	-0.000033
C28	C	1.426344	0.565048	0.499967
N29	N	0.926830	-0.156190	-0.216365
N30	N	1.426830	0.343810	0.283635
C31	C	1.080204	-0.169269	-0.000031
C32	C	1.580204	0.330731	0.499969
C33	C	1.167689	-0.176298	-0.000029
C34	C	1.667689	0.323702	0.499971
C35	C	1.213680	-0.108480	-0.000030
C36	C	1.713680	0.391520	0.499970
C37	C	1.295880	-0.115088	-0.000033
C38	C	1.795880	0.384912	0.499967
C39	C	1.332089	-0.189516	-0.000028
C40	C	1.832089	0.310484	0.499972
C41	C	1.286092	-0.257339	-0.000030
C42	C	1.786092	0.242661	0.499970
C43	C	1.203892	-0.250729	-0.000033
C44	C	1.703892	0.249271	0.499967
C45	C	1.577403	-0.216911	-0.000023
C46	C	2.077403	0.283089	0.499977
C47	C	1.659609	-0.223516	-0.000018
C48	C	2.159609	0.276484	0.499982
C49	C	1.669392	-0.081264	-0.000022
C50	C	2.169392	0.418736	0.499978
C51	C	1.587190	-0.074661	-0.000020
C52	C	2.087190	0.425339	0.499980
C53	C	1.541200	-0.142484	-0.000026
C54	C	2.041200	0.357516	0.499974
N55	N	1.416111	-0.196273	-0.000028
N56	N	1.916111	0.303727	0.499972
N57	N	1.457179	-0.135726	-0.000032
N58	N	1.957179	0.364274	0.499968
C59	C	0.939916	-0.309558	-0.000019
C60	C	1.439916	0.190442	0.499981
C61	C	0.946945	-0.397043	-0.000014
C62	C	1.446945	0.102957	0.499986
C63	C	0.994161	0.111039	-0.000037
C64	C	1.494161	0.611039	0.499963
C65	C	0.987553	0.193239	-0.000029
C66	C	1.487553	0.693239	0.499971
C67	C	0.913125	0.229447	-0.000023
C68	C	1.413125	0.729447	0.499977
C69	C	0.845303	0.183450	-0.000017
C70	C	1.345303	0.683450	0.499983
C71	C	0.851912	0.101251	-0.000019
C72	C	1.351912	0.601251	0.499981
C73	C	0.885732	0.474761	-0.000010
C74	C	1.385732	0.974761	0.499990
C75	C	0.879127	0.556966	-0.000011
C76	C	1.379127	1.056966	0.499989
C77	C	1.021378	0.566750	-0.000021
C78	C	1.521378	1.066750	0.499979
C79	C	1.027981	0.484549	-0.000028
C80	C	1.527981	0.984549	0.499972
C81	C	0.960158	0.438558	-0.000018
C82	C	1.460158	0.938558	0.499982
N83	N	0.906369	0.313469	-0.000017
N84	N	1.406369	0.813469	0.499983
N85	N	0.966916	0.354538	-0.000017
N86	N	1.466916	0.854538	0.499983
C87	C	0.975584	-0.204974	-0.260054
C88	C	1.475584	0.295026	0.239946
C89	C	0.971634	-0.201010	-0.347462
C90	C	1.471634	0.298990	0.152538
C91	C	0.918926	-0.148264	-0.391178
C92	C	1.418926	0.351736	0.108822
C93	C	0.870170	-0.099474	-0.347482
C94	C	1.370170	0.400526	0.152518
C95	C	0.874125	-0.103435	-0.260076
C96	C	1.374125	0.396565	0.239924
C97	C	0.901663	-0.130971	-0.652589
C98	C	1.401663	0.369029	-0.152589
C99	C	0.897710	-0.127015	-0.740000
C100	C	1.397710	0.372985	-0.240000
C101	C	0.999175	-0.228550	-0.739974
C102	C	1.499175	0.271450	-0.239974
C103	C	1.003121	-0.232510	-0.652567
C104	C	1.503121	0.267490	-0.152567
C105	C	0.954369	-0.183717	-0.608879
C106	C	1.454369	0.316283	-0.108879
N107	N	0.914885	-0.144213	-0.480522
N108	N	1.414885	0.355787	0.019478
N109	N	0.958414	-0.187765	-0.519536
N110	N	1.458414	0.312235	-0.019536
N111	N	0.946463	-0.175800	0.216310
N112	N	1.446463	0.324200	0.716310
H113	H	1.184205	-0.047873	-0.000028
H114	H	1.684205	0.452127	0.499972
C115	C	1.699436	-0.305396	-0.000014
C116	C	2.199436	0.194604	0.499986
N117	N	1.729434	-0.367065	-0.000009
N118	N	2.229434	0.132935	0.499991
C119	C	1.076038	0.071218	-0.000043
C120	C	1.576038	0.571218	0.499957
N121	N	1.137710	0.041227	-0.000044
N122	N	1.637710	0.541227	0.499956
C123	C	0.763431	0.223282	-0.000018
C124	C	1.263431	0.723282	0.499982
N125	N	0.701763	0.253283	-0.000024
N126	N	1.201763	0.753283	0.499976
H127	H	0.827258	-0.056524	-0.383082
H128	H	1.327258	0.443476	0.116918
C129	C	1.062158	0.243826	-0.000046
C130	C	1.562158	0.743826	0.499954
N131	N	1.118354	0.281929	-0.000063
N132	N	1.618354	0.781929	0.499937
C133	C	1.061109	-0.290528	-0.604486
C134	C	1.561109	0.209472	-0.104486
N135	N	1.104787	-0.334229	-0.568271
N136	N	1.604787	0.165771	-0.068271
C137	C	1.346467	-0.040483	-0.000033
C138	C	1.846467	0.459517	0.499967
N139	N	1.384568	0.015714	-0.000034
N140	N	1.884568	0.515714	0.499966
H141	H	0.796688	0.063805	-0.000016
H142	H	1.296688	0.563805	0.499984
C143	C	1.526824	-0.291519	-0.000041
C144	C	2.026824	0.208481	0.499959
N145	N	1.488725	-0.347717	-0.000059
N146	N	1.988725	0.152283	0.499941
C147	C	0.820490	-0.049770	-0.212018
C148	C	1.320490	0.450230	0.287982
N149	N	0.780092	-0.009346	-0.175822
N150	N	1.280092	0.490654	0.324178
H151	H	1.557716	-0.014054	-0.000024
H152	H	2.057716	0.485946	0.499976
H153	H	1.018500	-0.247930	-0.224467
H154	H	1.518500	0.252070	0.275533
H155	H	1.166447	-0.305954	-0.000035
H156	H	1.666447	0.194046	0.499965
H157	H	1.706845	-0.026047	-0.000019
H158	H	2.206845	0.473953	0.499981
H159	H	1.076595	0.604203	-0.000028
H160	H	1.576595	1.104203	0.499972
H161	H	1.088587	0.455074	-0.000033
H162	H	1.588587	0.955074	0.499967
C163	C	1.052805	-0.282212	-0.788038
C164	C	1.552805	0.217788	-0.288038
N165	N	1.093204	-0.322630	-0.824240
N166	N	1.593204	0.177370	-0.324240
H167	H	1.315579	-0.317940	-0.000031
H168	H	1.815579	0.182060	0.499969
H169	H	0.818516	0.586444	-0.000020
H170	H	1.318516	1.086444	0.499980
H171	H	0.830505	0.437325	-0.000002
H172	H	1.330505	0.937325	0.499998
H173	H	0.854785	-0.084063	-0.775592
H174	H	1.354785	0.415937	-0.275592
H175	H	1.011335	-0.240734	-0.383030
H176	H	1.511335	0.259266	0.116970
H177	H	0.861965	-0.091240	-0.617028
H178	H	1.361965	0.408760	-0.117028
