data_functionalizedCrystal
_audit_creation_method	'MofGen! by Chris Wilmer'
_symmetry_space_group_name_H-M	'P1'
_symmetry_Int_Tables_number	1
_symmetry_cell_setting	triclinic
loop_
_symmetry_equiv_pos_as_xyz
  x,y,z
_cell_length_a	16.776229
_cell_length_b	17.699099
_cell_length_c	17.699083
_cell_angle_alpha	83.286183
_cell_angle_beta	89.992455
_cell_angle_gamma	89.993452
loop_
_atom_site_label
_atom_site_type_symbol
_atom_site_fract_x
_atom_site_fract_y
_atom_site_fract_z
O1	O	-0.066279	1.004071	0.095769
O2	O	0.267055	1.337404	0.429102
O3	O	0.600388	1.670738	0.762436
O4	O	-0.066283	0.783694	0.108209
O5	O	0.267051	1.117028	0.441542
O6	O	0.600384	1.450361	0.774876
O7	O	-0.066274	0.900109	-0.008200
O8	O	0.267060	1.233442	0.325133
O9	O	0.600393	1.566776	0.658467
O10	O	-0.066288	0.887657	0.212178
O11	O	0.267046	1.220990	0.545511
O12	O	0.600379	1.554323	0.878845
O13	O	0.066303	0.900093	-0.008207
O14	O	0.399636	1.233427	0.325126
O15	O	0.732970	1.566760	0.658460
O16	O	0.066294	0.783679	0.108202
O17	O	0.399627	1.117012	0.441535
O18	O	0.732960	1.450346	0.774869
O19	O	0.066298	1.004056	0.095762
O20	O	0.399631	1.337389	0.429095
O21	O	0.732965	1.670722	0.762428
Zn22	Zn	0.087345	0.893865	0.101981
Zn23	Zn	0.420679	1.227198	0.435314
Zn24	Zn	0.754012	1.560532	0.768647
Zn25	Zn	-0.087330	0.893885	0.101990
Zn26	Zn	0.246003	1.227218	0.435323
Zn27	Zn	0.579337	1.560552	0.768657
O28	O	0.066289	0.887641	0.212171
O29	O	0.399622	1.220974	0.545504
O30	O	0.732955	1.554308	0.878837
C31	C	0.000005	0.755490	0.107758
C32	C	0.333338	1.088823	0.441091
C33	C	0.666672	1.422156	0.774424
C34	C	0.000004	0.671472	0.106414
C35	C	0.333337	1.004806	0.439748
C36	C	0.666670	1.338139	0.773081
N37	N	0.206556	0.893857	0.101974
N38	N	0.539890	1.227190	0.435307
N39	N	0.873223	1.560523	0.768641
C40	C	0.000015	0.899655	-0.036400
C41	C	0.333348	1.232988	0.296933
C42	C	0.666682	1.566322	0.630266
C43	C	0.000015	0.898316	-0.120419
C44	C	0.333348	1.231650	0.212915
C45	C	0.666682	1.564983	0.546248
N46	N	-0.206541	0.893899	0.101991
N47	N	0.126792	1.227233	0.435324
N48	N	0.460125	1.560566	0.768658
C49	C	0.248278	0.945421	0.050449
C50	C	0.581611	1.278754	0.383782
C51	C	0.914944	1.612087	0.717116
C52	C	0.331730	0.945425	0.050448
C53	C	0.665063	1.278758	0.383782
C54	C	0.998397	1.612091	0.717115
C55	C	0.373459	0.893868	0.101977
C56	C	0.706793	1.227201	0.435310
C57	C	1.040126	1.560535	0.768643
C58	C	0.331732	0.842298	0.153504
C59	C	0.665066	1.175632	0.486837
C60	C	0.998399	1.508965	0.820171
C61	C	0.248282	0.842291	0.153500
C62	C	0.581615	1.175625	0.486834
C63	C	0.914948	1.508958	0.820167
C64	C	0.668280	0.842326	0.153519
C65	C	1.001613	1.175659	0.486852
C66	C	1.334946	1.508992	0.820186
C67	C	0.751736	0.842338	0.153520
C68	C	1.085069	1.175672	0.486853
C69	C	1.418403	1.509005	0.820187
C70	C	0.751728	0.945459	0.050467
C71	C	1.085061	1.278793	0.383800
C72	C	1.418394	1.612126	0.717134
C73	C	0.668277	0.945452	0.050463
C74	C	1.001610	1.278785	0.383797
C75	C	1.334944	1.612119	0.717130
C76	C	0.626557	0.893880	0.101987
C77	C	0.959891	1.227214	0.435321
C78	C	1.293224	1.560547	0.768654
C79	C	0.536069	0.893875	0.101987
C80	C	0.869402	1.227209	0.435320
C81	C	1.202736	1.560542	0.768653
C82	C	0.463946	0.893876	0.101982
C83	C	0.797279	1.227209	0.435315
C84	C	1.130613	1.560543	0.768649
C85	C	0.000008	1.032260	0.096213
C86	C	0.333342	1.365593	0.429546
C87	C	0.666675	1.698927	0.762880
C88	C	0.000005	1.116278	0.097556
C89	C	0.333338	1.449611	0.430890
C90	C	0.666671	1.782944	0.764223
C91	C	-0.072264	1.155753	0.098192
C92	C	0.261070	1.489086	0.431526
C93	C	0.594403	1.822420	0.764859
C94	C	-0.072265	1.234697	0.099448
C95	C	0.261069	1.568031	0.432781
C96	C	0.594402	1.901364	0.766115
C97	C	0.000004	1.274164	0.100073
C98	C	0.333337	1.607497	0.433407
C99	C	0.666670	1.940830	0.766740
C100	C	0.072277	1.234683	0.099435
C101	C	0.405611	1.568016	0.432769
C102	C	0.738944	1.901350	0.766102
C103	C	0.072278	1.155741	0.098174
C104	C	0.405611	1.489074	0.431507
C105	C	0.738944	1.822408	0.764841
C106	C	0.072278	1.553048	0.104520
C107	C	0.405612	1.886381	0.437854
C108	C	0.738945	2.219714	0.771187
C109	C	0.072273	1.631995	0.105784
C110	C	0.405606	1.965328	0.439117
C111	C	0.738939	2.298661	0.772451
C112	C	-0.072264	1.632004	0.105795
C113	C	0.261070	1.965337	0.439128
C114	C	0.594403	2.298670	0.772461
C115	C	-0.072264	1.553062	0.104533
C116	C	0.261070	1.886395	0.437867
C117	C	0.594403	2.219728	0.771200
C118	C	0.000010	1.513588	0.103891
C119	C	0.333343	1.846922	0.437225
C120	C	0.666676	2.180255	0.770558
C121	C	0.000010	1.427988	0.102528
C122	C	0.333343	1.761322	0.435861
C123	C	0.666677	2.094655	0.769195
C124	C	0.000004	1.359762	0.101442
C125	C	0.333338	1.693095	0.434775
C126	C	0.666671	2.026428	0.768109
C127	C	0.000018	0.966649	-0.169036
C128	C	0.333351	1.299983	0.164298
C129	C	0.666684	1.633316	0.497631
C130	C	0.000011	0.965387	-0.247979
C131	C	0.333344	1.298720	0.085354
C132	C	0.666677	1.632054	0.418688
C133	C	0.000007	0.895791	-0.278304
C134	C	0.333340	1.229124	0.055030
C135	C	0.666673	1.562458	0.388363
C136	C	0.000002	0.827453	-0.229680
C137	C	0.333335	1.160786	0.103653
C138	C	0.666669	1.494120	0.436986
C139	C	0.000003	0.828716	-0.150739
C140	C	0.333337	1.162049	0.182595
C141	C	0.666670	1.495383	0.515928
C142	C	-0.000005	0.822358	-0.548044
C143	C	0.333329	1.155691	-0.214710
C144	C	0.666662	1.489024	0.118623
C145	C	-0.000004	0.821100	-0.626992
C146	C	0.333330	1.154433	-0.293659
C147	C	0.666663	1.487767	0.039675
C148	C	0.000003	0.959029	-0.645284
C149	C	0.333336	1.292362	-0.311951
C150	C	0.666669	1.625695	0.021382
C151	C	0.000004	0.960292	-0.566342
C152	C	0.333337	1.293625	-0.233009
C153	C	0.666671	1.626958	0.100324
C154	C	-0.000005	0.891954	-0.517726
C155	C	0.333328	1.225287	-0.184393
C156	C	0.666662	1.558621	0.148941
C157	C	0.000001	0.893324	-0.432127
C158	C	0.333334	1.226657	-0.098793
C159	C	0.666668	1.559990	0.234540
C160	C	0.000006	0.894421	-0.363902
C161	C	0.333340	1.227754	-0.030568
C162	C	0.666673	1.561087	0.302765
C163	C	-0.000001	0.888095	0.240371
C164	C	0.333332	1.221428	0.573705
C165	C	0.666665	1.554762	0.907038
C166	C	-0.000007	0.889434	0.324389
C167	C	0.333326	1.222767	0.657723
C168	C	0.666660	1.556100	0.991056
H169	H	0.214307	0.987407	0.008492
H170	H	0.547640	1.320740	0.341825
H171	H	0.880974	1.654074	0.675159
Cl172	Cl	0.384181	1.010248	-0.014327
Cl173	Cl	0.717514	1.343582	0.319006
Cl174	Cl	1.050848	1.676915	0.652339
H175	H	-0.131113	1.266835	0.099961
H176	H	0.202220	1.600169	0.433294
H177	H	0.535554	1.933502	0.766628
H178	H	0.000014	1.021031	-0.287561
H179	H	0.333348	1.354364	0.045773
H180	H	0.666681	1.687697	0.379106
Cl181	Cl	0.000011	1.044941	-0.706407
Cl182	Cl	0.333344	1.378274	-0.373074
Cl183	Cl	0.666677	1.711607	-0.039740
H184	H	-0.131112	1.520931	0.104028
H185	H	0.202221	1.854265	0.437361
H186	H	0.535555	2.187598	0.770695
Cl187	Cl	-0.163121	1.106145	0.097411
Cl188	Cl	0.170212	1.439478	0.430745
Cl189	Cl	0.503546	1.772812	0.764078
H190	H	0.000011	1.016964	-0.541657
H191	H	0.333344	1.350297	-0.208324
H192	H	0.666678	1.683631	0.125010
Cl193	Cl	-0.163124	1.681633	0.106596
Cl194	Cl	0.170210	2.014966	0.439929
Cl195	Cl	0.503543	2.348299	0.773263
Cl196	Cl	0.384190	0.777479	0.218280
Cl197	Cl	0.717524	1.110813	0.551614
Cl198	Cl	1.050857	1.444146	0.884947
H199	H	-0.000005	0.764423	-0.651678
H200	H	0.333328	1.097757	-0.318345
H201	H	0.666661	1.431090	0.014988
H202	H	-0.000006	0.770787	-0.254377
H203	H	0.333327	1.104120	0.078956
H204	H	0.666660	1.437453	0.412290
Cl205	Cl	0.163132	1.681609	0.106569
Cl206	Cl	0.496465	2.014943	0.439902
Cl207	Cl	0.829798	2.348276	0.773236
Cl208	Cl	0.000031	1.054147	-0.130922
Cl209	Cl	0.333364	1.387480	0.202412
Cl210	Cl	0.666697	1.720813	0.535745
Cl211	Cl	0.163137	1.503432	0.103734
Cl212	Cl	0.496470	1.836765	0.437067
Cl213	Cl	0.829804	2.170098	0.770401
Cl214	Cl	-0.000018	0.736447	-0.486936
Cl215	Cl	0.333315	1.069780	-0.153603
Cl216	Cl	0.666649	1.403114	0.179730
H217	H	0.000001	0.773072	-0.111155
H218	H	0.333334	1.106406	0.222179
H219	H	0.666668	1.439739	0.555512
Cl220	Cl	0.163130	1.284299	0.100220
Cl221	Cl	0.496463	1.617632	0.433553
Cl222	Cl	0.829796	1.950965	0.766887
Cl223	Cl	0.615820	1.010270	-0.014315
Cl224	Cl	0.949154	1.343604	0.319018
Cl225	Cl	1.282487	1.676937	0.652352
H226	H	0.785705	0.987450	0.008511
H227	H	1.119038	1.320783	0.341844
H228	H	1.452372	1.654116	0.675177
Cl229	Cl	0.615837	0.777498	0.218293
Cl230	Cl	0.949171	1.110831	0.551626
Cl231	Cl	1.282504	1.444164	0.884960
Cl232	Cl	0.804195	0.777518	0.218303
Cl233	Cl	1.137529	1.110851	0.551636
Cl234	Cl	1.470862	1.444185	0.884969
H235	H	0.214313	0.800302	0.195456
H236	H	0.547646	1.133635	0.528790
H237	H	0.880980	1.466968	0.862123
H238	H	0.131126	1.123600	0.097664
H239	H	0.464459	1.456934	0.430997
H240	H	0.797793	1.790267	0.764331
