data_functionalizedCrystal
_audit_creation_method	'MofGen! by Chris Wilmer'
_symmetry_space_group_name_H-M	'P1'
_symmetry_Int_Tables_number	1
_symmetry_cell_setting	triclinic
loop_
_symmetry_equiv_pos_as_xyz
  x,y,z
_cell_length_a	6.817900
_cell_length_b	19.452420
_cell_length_c	19.453114
_cell_angle_alpha	96.328802
_cell_angle_beta	101.709288
_cell_angle_gamma	101.696715
loop_
_atom_site_label
_atom_site_type_symbol
_atom_site_fract_x
_atom_site_fract_y
_atom_site_fract_z
V1	V	-3.997947	-0.097915	-0.219345
O2	O	-3.995100	0.003953	-0.214816
O3	O	-3.940917	-0.193426	-0.218185
O4	O	-3.940968	-0.096739	-0.314854
O5	O	-3.995048	-0.093403	-0.117478
V6	V	-4.483804	-0.085692	-0.207120
O7	O	-4.254084	-0.124729	-0.246163
O8	O	-4.677865	-0.058878	-0.180302
O9	O	-4.317628	0.009819	-0.208280
O10	O	-4.604048	-0.187560	-0.211649
O11	O	-4.604099	-0.090204	-0.308987
O12	O	-4.317576	-0.086868	-0.111611
C13	C	-3.784096	-0.216699	-0.214813
C14	C	-3.818697	-0.294782	-0.214501
C15	C	-3.801490	-0.321196	-0.149986
C16	C	-3.834075	-0.394562	-0.149672
C17	C	-3.883827	-0.441511	-0.213874
C18	C	-3.901045	-0.415090	-0.278397
C19	C	-3.868480	-0.341726	-0.278711
N20	N	-3.846563	-0.562110	-0.259091
N21	N	-3.877492	-0.631802	-0.258789
C22	C	-3.981949	-0.662553	-0.212935
N23	N	-4.054279	-0.620977	-0.167383
N24	N	-4.023337	-0.551278	-0.167682
C25	C	-3.919143	-0.521063	-0.213542
C26	C	-4.000075	-0.768518	-0.148075
C27	C	-4.032674	-0.841885	-0.147764
C28	C	-4.099624	-0.862412	-0.276491
C29	C	-4.067045	-0.789046	-0.276801
C30	C	-4.017262	-0.742102	-0.212591
C31	C	-3.784160	-0.093365	-0.338123
C32	C	-3.818800	-0.093035	-0.416204
C33	C	-4.016538	-0.096406	-0.456473
C34	C	-4.049086	-0.096097	-0.529838
C35	C	-3.883893	-0.092431	-0.562934
C36	C	-3.686126	-0.089055	-0.522655
C37	C	-3.653579	-0.089358	-0.449290
N38	N	-3.820798	-0.129525	-0.681855
N39	N	-3.851729	-0.129240	-0.751549
C40	C	-3.981942	-0.091517	-0.783979
N41	N	-4.080090	-0.054101	-0.744084
N42	N	-4.049164	-0.054390	-0.674384
C43	C	-3.919164	-0.092102	-0.642486
C44	C	-4.214984	-0.094552	-0.903800
C45	C	-4.247523	-0.094238	-0.977166
C46	C	-3.884560	-0.087203	-0.969983
C47	C	-3.852023	-0.087510	-0.896617
C48	C	-4.017244	-0.091188	-0.863531
C49	C	-4.137790	0.033088	-0.211650
C50	C	-4.082427	0.111171	-0.211967
C51	C	-4.137726	-0.090245	-0.088339
C52	C	-4.082325	-0.090570	-0.010257
H53	H	-4.151076	-0.099398	-0.429538
O54	O	-3.817134	-0.420307	-0.087038
C55	C	-3.642446	-0.487793	-0.008628
C56	C	-3.661459	-0.458698	-0.079587
H57	H	-3.516561	-0.518826	-0.002574
H58	H	-3.795242	-0.524413	-0.007943
H59	H	-3.601369	-0.441629	0.037194
H60	H	-3.702464	-0.504817	-0.125449
H61	H	-3.508639	-0.422058	-0.080211
H62	H	-4.210115	-0.098846	-0.562632
O63	O	-3.461630	-0.086208	-0.410125
C64	C	-3.246051	-0.143714	-0.332954
C65	C	-3.463542	-0.147345	-0.377258
H66	H	-3.247515	-0.193144	-0.306382
H67	H	-3.195949	-0.094312	-0.290498
H68	H	-3.133630	-0.141014	-0.369231
H69	H	-3.576112	-0.150072	-0.341038
H70	H	-3.513471	-0.196739	-0.419721
H71	H	-3.551625	-0.086068	-0.549606
O72	O	-3.752795	-0.275560	-0.087629
C73	C	-3.504776	-0.177393	-0.009955
C74	C	-3.559640	-0.229044	-0.080586
H75	H	-3.348629	-0.139762	-0.004246
H76	H	-3.497921	-0.208837	0.036242
H77	H	-3.627258	-0.145308	-0.009597
H78	H	-3.437219	-0.261142	-0.081015
H79	H	-3.566566	-0.197559	-0.126753
O80	O	-3.949646	-0.460768	-0.340723
C81	C	-4.197785	-0.558878	-0.418437
C82	C	-4.142963	-0.507203	-0.347822
H83	H	-4.354102	-0.596425	-0.424206
H84	H	-4.075508	-0.591048	-0.418820
H85	H	-4.204379	-0.527378	-0.464590
H86	H	-4.136396	-0.538648	-0.301630
H87	H	-4.265255	-0.475033	-0.347500
H88	H	-3.882500	-0.320222	-0.331248
H89	H	-4.349516	-0.097544	-0.876859
O90	O	-3.951868	-0.723014	-0.085644
C91	C	-3.888852	-0.710395	0.042067
C92	C	-3.943485	-0.762004	-0.028584
H93	H	-3.882015	-0.741897	0.088219
H94	H	-4.011275	-0.678290	0.042476
H95	H	-3.732662	-0.672779	0.047810
H96	H	-4.099623	-0.799664	-0.034373
H97	H	-3.820935	-0.794058	-0.028961
O98	O	-3.724195	-0.083547	-1.002186
C99	C	-3.518432	-0.017927	-1.071062
C100	C	-3.700128	-0.021993	-1.034634
H101	H	-3.498888	0.031844	-1.097292
H102	H	-3.550232	-0.066984	-1.113145
H103	H	-3.371555	-0.015608	-1.029666
H104	H	-3.847082	-0.024290	-1.075977
H105	H	-3.668150	0.027063	-0.992537
H106	H	-4.408546	-0.096978	-1.009952
H107	H	-4.018672	-0.863389	-0.095226
O108	O	-3.659957	-0.084159	-0.857434
C109	C	-3.380847	-0.019366	-0.760615
C110	C	-3.598331	-0.023043	-0.804951
H111	H	-3.330973	0.030034	-0.718162
H112	H	-3.268193	-0.016662	-0.796808
H113	H	-3.382430	-0.068786	-0.734020
H114	H	-3.596948	0.026365	-0.831551
H115	H	-3.710892	-0.025783	-0.768723
O116	O	-4.147885	-0.908106	-0.338793
C117	C	-4.227875	-1.030228	-0.395364
C118	C	-4.173167	-0.978553	-0.324753
H119	H	-4.248374	-1.087196	-0.384039
H120	H	-4.098666	-1.018181	-0.424475
H121	H	-4.377242	-1.023558	-0.429862
H122	H	-4.023855	-0.985194	-0.290200
H123	H	-4.302498	-0.990613	-0.295698
O124	O	-4.084061	-0.763475	-0.339522
C125	C	-4.303819	-0.761935	-0.452965
C126	C	-4.284803	-0.790956	-0.381967
H127	H	-4.466120	-0.784130	-0.487295
H128	H	-4.187542	-0.778706	-0.481991
H129	H	-4.271894	-0.701435	-0.442144
H130	H	-4.316769	-0.851457	-0.392724
H131	H	-4.401054	-0.774130	-0.352962
