data_functionalizedCrystal
_audit_creation_method	'MofGen! by Chris Wilmer'
_symmetry_space_group_name_H-M	'P1'
_symmetry_Int_Tables_number	1
_symmetry_cell_setting	triclinic
loop_
_symmetry_equiv_pos_as_xyz
  x,y,z
_cell_length_a	10.686220
_cell_length_b	19.121063
_cell_length_c	10.686551
_cell_angle_alpha	88.212799
_cell_angle_beta	90.308082
_cell_angle_gamma	96.652836
loop_
_atom_site_label
_atom_site_type_symbol
_atom_site_fract_x
_atom_site_fract_y
_atom_site_fract_z
Zn1	Zn	1.960178	-0.171149	-0.576393
Zn2	Zn	1.934959	-0.298212	-0.377034
Zn3	Zn	1.733026	-0.189107	-0.384180
Zn4	Zn	1.741490	-0.296789	-0.602695
O5	O	1.842413	-0.238814	-0.485075
O6	O	2.132864	-0.181084	-0.535949
O7	O	1.894076	-0.291850	-0.203100
O8	O	1.770171	-0.088483	-0.401661
O9	O	2.114336	-0.274436	-0.389481
O10	O	1.937058	-0.075289	-0.542879
O11	O	1.745717	-0.211691	-0.208351
O12	O	1.558117	-0.210311	-0.427165
O13	O	1.784596	-0.272012	-0.774087
O14	O	1.564336	-0.289425	-0.587707
O15	O	1.945265	-0.179704	-0.754764
O16	O	1.902282	-0.396264	-0.414984
O17	O	1.760141	-0.395219	-0.580777
C18	C	1.515583	-0.251663	-0.511066
C19	C	1.375765	-0.257175	-0.522216
C20	C	1.829430	-0.421212	-0.499984
C21	C	1.823994	-0.499236	-0.506394
C22	C	1.895514	-0.536407	-0.423148
C23	C	1.890409	-0.609719	-0.429183
C24	C	1.813778	-0.645858	-0.518461
C25	C	1.742256	-0.608681	-0.601716
C26	C	1.747368	-0.535371	-0.595685
C27	C	1.794644	-0.867182	-0.540991
C28	C	1.789534	-0.940498	-0.547013
C29	C	1.937690	-0.941530	-0.374481
C30	C	1.942789	-0.868219	-0.368454
C31	C	1.871272	-0.831048	-0.451713
C32	C	1.808556	-0.720794	-0.524630
C33	C	1.876502	-0.756113	-0.445549
C34	C	2.170519	-0.225915	-0.458984
C35	C	2.310339	-0.220419	-0.447865
C36	C	1.868688	-0.223696	-0.811038
C37	C	1.879884	-0.217254	-0.949944
C38	C	1.855484	-0.055701	-0.470134
C39	C	1.861053	0.022331	-0.463766
C40	C	1.816317	-0.253820	-0.160371
C41	C	1.805378	-0.260055	-0.021430
H42	H	1.957909	-0.506988	-0.350444
O43	O	1.966380	-0.167723	-1.003640
C44	C	2.088122	-0.179582	-0.963086
H45	H	2.087608	-0.237065	-0.931190
H46	H	2.157546	-0.167153	-1.043555
H47	H	2.117658	-0.144119	-0.881722
H48	H	1.948647	-0.639981	-0.361394
O49	O	1.371240	-0.177937	-0.361684
C50	C	1.437854	-0.218627	-0.278106
H51	H	1.457180	-0.269067	-0.324837
H52	H	1.530983	-0.187188	-0.251820
H53	H	1.379267	-0.232526	-0.190080
O54	O	1.314793	-0.299698	-0.608307
C55	C	1.184080	-0.295935	-0.600635
H56	H	1.166807	-0.244309	-0.556837
H57	H	1.141277	-0.298387	-0.698566
H58	H	1.138458	-0.342065	-0.540301
O59	O	2.017160	-0.833206	-0.281572
C60	C	1.978462	-0.858006	-0.160648
H61	H	1.926177	-0.913281	-0.166243
H62	H	2.064614	-0.859511	-0.097670
H63	H	1.913307	-0.821282	-0.120247
O64	O	2.007135	-0.977742	-0.293753
C65	C	1.986177	-1.050198	-0.318198
H66	H	1.951958	-1.057360	-0.418710
H67	H	2.077799	-1.074695	-0.304608
H68	H	1.911830	-1.077130	-0.251044
O69	O	1.715076	-0.975492	-0.633862
C70	C	1.653029	-0.926966	-0.706039
H71	H	1.708543	-0.872452	-0.702010
H72	H	1.646004	-0.944099	-0.807305
H73	H	1.554367	-0.925109	-0.667170
O74	O	1.677822	-0.499195	-0.676376
C75	C	1.593820	-0.463354	-0.608142
H76	H	1.631393	-0.455013	-0.509032
H77	H	1.584621	-0.410103	-0.656141
H78	H	1.497523	-0.495961	-0.604079
O79	O	1.718899	-0.309622	-0.967830
C80	C	1.597149	-0.297745	-1.008330
H81	H	1.604016	-0.266510	-1.101145
H82	H	1.537480	-0.350432	-1.021292
H83	H	1.551499	-0.266689	-0.935306
H84	H	1.736409	-0.836924	-0.608781
O85	O	1.667991	-0.643853	-0.688494
C86	C	1.743104	-0.679632	-0.767079
H87	H	1.834160	-0.688870	-0.716396
H88	H	1.689600	-0.732446	-0.792100
H89	H	1.766287	-0.646515	-0.856285
O90	O	1.951125	-0.721030	-0.358945
C91	C	2.077443	-0.732686	-0.377820
H92	H	2.090373	-0.747936	-0.478815
H93	H	2.142090	-0.682496	-0.358192
H94	H	2.102010	-0.777048	-0.311717
O95	O	1.733936	-0.755833	-0.611294
C96	C	1.607613	-0.744207	-0.592358
H97	H	1.604876	-0.693321	-0.540145
H98	H	1.558570	-0.739749	-0.686790
H99	H	1.557244	-0.790151	-0.534832
