data_functionalizedCrystal
_audit_creation_method	'MofGen! by Chris Wilmer'
_symmetry_space_group_name_H-M	'P1'
_symmetry_Int_Tables_number	1
_symmetry_cell_setting	triclinic
loop_
_symmetry_equiv_pos_as_xyz
  x,y,z
_cell_length_a	19.188933
_cell_length_b	19.188930
_cell_length_c	13.101039
_cell_angle_alpha	93.345801
_cell_angle_beta	86.655175
_cell_angle_gamma	83.145175
loop_
_atom_site_label
_atom_site_type_symbol
_atom_site_fract_x
_atom_site_fract_y
_atom_site_fract_z
O1	O	0.929996	0.083310	-0.085191
O2	O	0.726685	0.095042	-0.085202
O3	O	0.834206	-0.012479	-0.085176
O4	O	0.822474	0.190831	-0.085217
O5	O	0.826492	-0.004751	0.085252
O6	O	0.718970	0.102769	0.085226
O7	O	0.922281	0.091037	0.085237
Zn8	Zn	0.819401	0.098130	0.112290
Zn9	Zn	0.829565	0.087949	-0.112256
O10	O	0.814759	0.198558	0.085211
C11	C	0.696817	0.098526	0.000011
C12	C	0.619312	0.097384	0.000007
C13	C	0.070262	0.085027	-0.092880
C14	C	0.143086	0.086095	-0.092885
C15	C	0.175298	0.090845	0.000015
C16	C	0.134681	0.094508	0.092926
C17	C	0.061859	0.093433	0.092928
N18	N	0.281188	0.135398	0.069157
N19	N	0.350366	0.136421	0.069149
C20	C	0.394707	0.094083	0.000016
N21	N	0.367255	0.050692	-0.069124
N22	N	0.298071	0.049672	-0.069119
C23	C	0.254261	0.092011	0.000024
C24	C	0.514279	0.091572	-0.092893
C25	C	0.587106	0.092636	-0.092894
C26	C	0.578698	0.101056	0.092920
C27	C	0.505875	0.099985	0.092918
C28	C	0.473669	0.095246	0.000008
C29	C	0.829969	-0.034626	0.000040
C30	C	0.828828	-0.112130	0.000049
C31	C	0.891918	-0.157053	0.000058
C32	C	0.890847	-0.229878	0.000041
C33	C	0.826682	-0.257775	0.000037
C34	C	0.763583	-0.212842	0.000023
C35	C	0.764656	-0.140020	0.000029
N36	N	0.775009	-0.363151	0.058034
N37	N	0.773994	-0.432330	0.058030
C38	C	0.823444	-0.477185	0.000016
N39	N	0.873959	-0.450248	-0.057982
N40	N	0.874976	-0.381063	-0.057974
C41	C	0.825511	-0.336738	0.000029
C42	C	0.885378	-0.601073	0.000005
C43	C	0.884305	-0.673899	-0.000018
C44	C	0.757038	-0.656861	-0.000026
C45	C	0.758114	-0.584038	-0.000013
C46	C	0.822285	-0.556148	0.000007
C47	C	0.952149	0.087554	0.000022
C48	C	1.029654	0.088695	0.000018
C49	C	0.818997	0.220705	-0.000008
C50	C	0.820138	0.298209	-0.000024
N51	N	0.812469	0.105078	0.265537
N52	N	0.836502	0.080996	-0.265503
C53	C	0.803038	0.114537	0.474577
C54	C	0.845931	0.071539	0.525463
C55	C	0.840684	0.076802	0.641781
C56	C	0.808285	0.109275	0.358250
H57	H	0.160913	0.098374	0.168566
H58	H	0.044045	0.081166	-0.168535
N59	N	0.899804	0.017547	0.467471
H60	H	0.891010	-0.031138	0.486083
H61	H	0.895943	0.021454	0.391412
N62	N	0.694372	-0.242921	0.000020
H63	H	0.693950	-0.275614	-0.063158
H64	H	0.688268	-0.269860	0.063239
H65	H	0.935683	-0.710476	-0.000017
H66	H	0.944172	-0.134351	0.000071
H67	H	0.762378	0.155299	0.518365
H68	H	0.176155	0.083113	-0.168536
H69	H	0.028796	0.096422	0.168579
H70	H	0.488057	0.087711	-0.168546
H71	H	0.604925	0.104921	0.168561
H72	H	0.620169	0.089644	-0.168546
H73	H	0.942225	-0.266461	0.000044
H74	H	0.472811	0.102974	0.168566
H75	H	0.937631	-0.578364	0.000017
N76	N	0.696606	-0.091561	0.000019
H77	H	0.655793	-0.120281	0.000011
H78	H	0.691419	-0.058121	0.063204
H79	H	0.704793	-0.679575	-0.000034
H80	H	0.706738	-0.547460	-0.000014
