data_functionalizedCrystal
_audit_creation_method	'MofGen! by Chris Wilmer'
_symmetry_space_group_name_H-M	'P1'
_symmetry_Int_Tables_number	1
_symmetry_cell_setting	triclinic
loop_
_symmetry_equiv_pos_as_xyz
  x,y,z
_cell_length_a	10.868271
_cell_length_b	11.026607
_cell_length_c	10.967829
_cell_angle_alpha	83.619437
_cell_angle_beta	102.133011
_cell_angle_gamma	89.996513
loop_
_atom_site_label
_atom_site_type_symbol
_atom_site_fract_x
_atom_site_fract_y
_atom_site_fract_z
O1	O	0.213326	-1.614528	0.523517
O2	O	0.200688	-1.260725	0.463904
O3	O	0.168874	-1.445785	0.313892
O4	O	0.245140	-1.429468	0.673529
O5	O	-0.035773	-1.445770	0.313881
O6	O	-0.003959	-1.260709	0.463893
O7	O	0.008679	-1.614513	0.523506
Zn8	Zn	-0.030132	-1.437609	0.493698
Zn9	Zn	0.239499	-1.437629	0.493712
O10	O	0.040493	-1.429452	0.673518
C11	C	0.096033	-1.215415	0.452901
C12	C	0.089082	-1.080427	0.420117
N13	N	-0.214148	-1.437604	0.493689
C14	C	0.056637	-1.444589	0.267130
C15	C	0.027100	-1.441033	0.127806
C16	C	-0.465150	-1.437622	0.493708
C17	C	-0.325474	-1.437608	0.493700
N18	N	0.423513	-1.437643	0.493713
C19	C	0.113337	-1.659823	0.534509
C20	C	0.120296	-1.794810	0.567293
C21	C	0.108279	-1.007376	0.510639
C22	C	0.101096	-0.867860	0.476758
C23	C	0.119945	-1.439456	0.065703
C24	C	0.089419	-1.435781	-0.078296
C25	C	0.152732	-1.430649	0.720280
C26	C	0.182278	-1.434204	0.859604
H27	H	0.079372	-0.827118	0.374168
O28	O	0.304115	-1.435969	-0.076745
C29	C	0.505336	-1.542131	-0.026738
C30	C	0.367410	-1.540286	-0.098937
H31	H	0.556543	-1.626476	-0.044633
H32	H	0.553390	-1.456590	-0.060062
H33	H	0.508157	-1.544730	0.078015
H34	H	0.364475	-1.537730	-0.203703
H35	H	0.319416	-1.625822	-0.065510
H36	H	0.222033	-1.440821	0.119140
H37	H	-0.012676	-1.434403	-0.131729
H38	H	0.142043	-0.835550	0.669882
O39	O	0.134442	-1.056034	0.633003
C40	C	0.274987	-1.183778	0.796040
C41	C	0.245524	-1.128735	0.657443
H42	H	0.364782	-1.242588	0.815836
H43	H	0.288416	-1.107129	0.858991
H44	H	0.193508	-1.242436	0.815878
H45	H	0.326963	-1.070089	0.637486
H46	H	0.232046	-1.205442	0.594565
O47	O	0.063199	-1.031628	0.297798
C48	C	0.032315	-0.848082	0.152501
C49	C	0.061666	-0.903180	0.291081
H50	H	0.031040	-0.744224	0.147025
H51	H	0.107677	-0.879548	0.103917
H52	H	-0.063601	-0.879699	0.103961
H53	H	0.157547	-0.871589	0.339728
H54	H	-0.013772	-0.871719	0.339571
O55	O	-0.094624	-1.439435	0.063878
C56	C	-0.236036	-1.434171	-0.137943
C57	C	-0.098126	-1.436014	-0.065702
H58	H	-0.238913	-1.431379	-0.242723
H59	H	-0.284067	-1.519770	-0.104724
H60	H	-0.287235	-1.349903	-0.119858
H61	H	-0.046821	-1.520224	-0.083754
H62	H	-0.050191	-1.350358	-0.098932
