data_functionalizedCrystal
_audit_creation_method	'MofGen! by Chris Wilmer'
_symmetry_space_group_name_H-M	'P1'
_symmetry_Int_Tables_number	1
_symmetry_cell_setting	triclinic
loop_
_symmetry_equiv_pos_as_xyz
  x,y,z
_cell_length_a	12.645331
_cell_length_b	19.121063
_cell_length_c	12.645323
_cell_angle_alpha	92.406114
_cell_angle_beta	89.978207
_cell_angle_gamma	92.467980
loop_
_atom_site_label
_atom_site_type_symbol
_atom_site_fract_x
_atom_site_fract_y
_atom_site_fract_z
Zn1	Zn	1.602645	-0.279613	-0.617387
Zn2	Zn	1.935979	0.053720	-0.284054
Zn3	Zn	2.269312	0.387054	0.049279
Zn4	Zn	1.594936	-0.397075	-0.447664
Zn5	Zn	1.928269	-0.063742	-0.114331
Zn6	Zn	2.261602	0.269591	0.219002
Zn7	Zn	1.425361	-0.279641	-0.440134
Zn8	Zn	1.758694	0.053693	-0.106800
Zn9	Zn	2.092027	0.387026	0.226533
Zn10	Zn	1.417751	-0.397025	-0.624877
Zn11	Zn	1.751084	-0.063692	-0.291543
Zn12	Zn	2.084418	0.269641	0.041790
O13	O	1.510173	-0.338339	-0.532515
O14	O	1.843507	-0.005005	-0.199182
O15	O	2.176840	0.328328	0.134151
O16	O	1.749969	-0.295204	-0.594891
O17	O	2.083303	0.038129	-0.261557
O18	O	2.416636	0.371463	0.071776
O19	O	1.572400	-0.381530	-0.298320
O20	O	1.905733	-0.048197	0.035013
O21	O	2.239066	0.285137	0.368347
O22	O	1.455289	-0.181353	-0.457361
O23	O	1.788622	0.151981	-0.124027
O24	O	2.121956	0.485314	0.209306
O25	O	1.744305	-0.381503	-0.470196
O26	O	2.077638	-0.048170	-0.136863
O27	O	2.410972	0.285164	0.196471
O28	O	1.585539	-0.181332	-0.587588
O29	O	1.918873	0.152001	-0.254255
O30	O	2.252206	0.485334	0.079078
O31	O	1.447814	-0.295251	-0.292787
O32	O	1.781147	0.038082	0.040546
O33	O	2.114480	0.371415	0.373879
O34	O	1.276005	-0.295203	-0.464623
O35	O	1.609338	0.038130	-0.131289
O36	O	1.942671	0.371464	0.202044
O37	O	1.442319	-0.381418	-0.772228
O38	O	1.775653	-0.048085	-0.438895
O39	O	2.108986	0.285249	-0.105562
O40	O	1.270414	-0.381445	-0.600353
O41	O	1.603747	-0.048112	-0.267019
O42	O	1.937080	0.285222	0.066314
O43	O	1.578160	-0.295155	-0.766726
O44	O	1.911494	0.038178	-0.433393
O45	O	2.244827	0.371511	-0.100059
O46	O	1.565021	-0.495353	-0.477458
O47	O	1.898354	-0.162020	-0.144125
O48	O	2.231687	0.171314	0.189209
O49	O	1.434844	-0.495316	-0.607655
O50	O	1.768177	-0.161983	-0.274322
O51	O	2.101510	0.171350	0.059012
C52	C	1.234745	-0.338322	-0.532484
C53	C	1.568078	-0.004989	-0.199150
C54	C	1.901411	0.328345	0.134183
C55	C	1.116914	-0.338332	-0.532496
C56	C	1.450247	-0.004998	-0.199163
C57	C	1.783581	0.328335	0.134170
C58	C	0.952848	-0.283827	-0.447545
C59	C	1.286181	0.049506	-0.114211
C60	C	1.619514	0.382839	0.219122
C61	C	1.075398	-0.283968	-0.447195
C62	C	1.408732	0.049365	-0.113861
C63	C	1.742065	0.382698	0.219472
C64	C	1.067611	-0.412320	-0.506729
C65	C	1.400944	-0.078986	-0.173396
C66	C	1.734277	0.254347	0.159938
C67	C	0.945032	-0.412022	-0.506154
C68	C	1.278365	-0.078689	-0.172821
C69	C	1.611698	0.254645	0.160513
C70	C	0.950977	-0.319552	-0.643575
C71	C	1.284310	0.013781	-0.310242
C72	C	1.617644	0.347114	0.023091
C73	C	1.073689	-0.317900	-0.642846
C74	C	1.407023	0.015434	-0.309512
C75	C	1.740356	0.348767	0.023821
C76	C	1.498299	-0.520819	-0.544209
C77	C	1.831632	-0.187485	-0.210876
C78	C	2.164965	0.145848	0.122457
C79	C	1.493316	-0.598884	-0.549247
C80	C	1.826649	-0.265551	-0.215914
C81	C	2.159982	0.067782	0.117419
C82	C	1.558803	-0.635556	-0.483884
C83	C	1.892137	-0.302222	-0.150551
C84	C	2.225470	0.031111	0.182783
C85	C	1.554123	-0.708907	-0.488629
C86	C	1.887457	-0.375573	-0.155295
C87	C	2.220790	-0.042240	0.178038
C88	C	1.483949	-0.745585	-0.558732
C89	C	1.817282	-0.412252	-0.225399
C90	C	2.150616	-0.078919	0.107935
C91	C	1.418459	-0.708909	-0.624103
C92	C	1.751792	-0.375575	-0.290769
C93	C	2.085125	-0.042242	0.042564
C94	C	1.423145	-0.635559	-0.619363
C95	C	1.756478	-0.302226	-0.286029
C96	C	2.089812	0.031108	0.047304
C97	C	1.466411	-0.967054	-0.576437
C98	C	1.799744	-0.633721	-0.243104
C99	C	2.133078	-0.300387	0.090230
C100	C	1.461727	-1.040409	-0.581170
C101	C	1.795061	-0.707076	-0.247837
C102	C	2.128394	-0.373742	0.085497
C103	C	1.597394	-1.040402	-0.445697
C104	C	1.930727	-0.707068	-0.112363
C105	C	2.264061	-0.373735	0.220970
C106	C	1.602070	-0.967051	-0.440958
C107	C	1.935403	-0.633717	-0.107625
C108	C	2.268736	-0.300384	0.225708
C109	C	1.536583	-0.930381	-0.506333
C110	C	1.869916	-0.597047	-0.172999
C111	C	2.203250	-0.263714	0.160334
C112	C	1.479161	-0.820562	-0.563581
C113	C	1.812495	-0.487228	-0.230248
C114	C	2.145828	-0.153895	0.103086
C115	C	1.541377	-0.855406	-0.501488
C116	C	1.874711	-0.522072	-0.168155
C117	C	2.208044	-0.188739	0.165178
C118	C	1.786677	-0.338356	-0.532548
C119	C	2.120011	-0.005023	-0.199215
C120	C	2.453344	0.328311	0.134119
C121	C	1.904507	-0.338363	-0.532562
C122	C	2.237840	-0.005030	-0.199228
C123	C	2.571174	0.328303	0.134105
C124	C	1.510251	-0.338278	-0.809017
C125	C	1.843584	-0.004945	-0.475684
C126	C	2.176918	0.328389	-0.142350
C127	C	1.510284	-0.338252	-0.926846
C128	C	1.843617	-0.004919	-0.593512
C129	C	2.176951	0.328414	-0.260179
C130	C	1.522123	-0.155146	-0.520799
C131	C	1.855456	0.178187	-0.187466
C132	C	2.188790	0.511521	0.145868
C133	C	1.527215	-0.077080	-0.515806
C134	C	1.860549	0.256253	-0.182473
C135	C	2.193882	0.589586	0.150860
C136	C	1.424832	-0.392509	-0.975188
C137	C	1.758165	-0.059175	-0.641855
C138	C	2.091499	0.274158	-0.308522
C139	C	1.424557	-0.392305	-1.097735
C140	C	1.757890	-0.058971	-0.764402
C141	C	2.091223	0.274362	-0.431068
C142	C	1.485208	-0.264116	-1.089991
C143	C	1.818541	0.069217	-0.756657
C144	C	2.151874	0.402551	-0.423324
C145	C	1.484557	-0.264474	-0.967415
C146	C	1.817891	0.068859	-0.634082
C147	C	2.151224	0.402193	-0.300749
C148	C	1.621135	-0.357392	-0.973265
C149	C	1.954468	-0.024059	-0.639931
C150	C	2.287802	0.309274	-0.306598
C151	C	1.620464	-0.358981	-1.095973
C152	C	1.953797	-0.025648	-0.762639
C153	C	2.287131	0.307685	-0.429306
C154	C	1.510160	-0.338348	-0.257086
C155	C	1.843493	-0.005015	0.076247
C156	C	2.176827	0.328318	0.409580
C157	C	1.510345	-0.338176	-0.139246
C158	C	1.843678	-0.004843	0.194088
C159	C	2.177012	0.328490	0.527421
H160	H	0.923507	-0.266542	-0.667926
H161	H	1.256840	0.066791	-0.334592
H162	H	1.590173	0.400124	-0.001259
H163	H	1.404596	-1.070271	-0.638275
H164	H	1.737929	-0.736937	-0.304942
H165	H	2.071263	-0.403604	0.028392
H166	H	1.650711	-1.070266	-0.392474
H167	H	1.984044	-0.736933	-0.059141
H168	H	2.317378	-0.403600	0.274193
H169	H	1.342339	-0.379596	-1.126246
H170	H	1.675672	-0.046263	-0.792912
H171	H	2.009005	0.287070	-0.459579
H172	H	1.343060	-0.379976	-0.943572
H173	H	1.676393	-0.046642	-0.610238
H174	H	2.009726	0.286691	-0.276905
H175	H	1.413087	-0.937203	-0.629666
H176	H	1.746421	-0.603870	-0.296332
H177	H	2.079754	-0.270537	0.037001
H178	H	1.361326	-0.738778	-0.681187
H179	H	1.694659	-0.405445	-0.347854
H180	H	2.027993	-0.072112	-0.014520
H181	H	1.639510	-0.413487	-1.128554
H182	H	1.972844	-0.080154	-0.795221
H183	H	2.306177	0.253179	-0.461887
H184	H	1.439690	-0.447215	-1.131348
H185	H	1.773023	-0.113881	-0.798015
H186	H	2.106356	0.219452	-0.464682
H187	H	1.659211	-0.937189	-0.383874
H188	H	1.992544	-0.603855	-0.050541
H189	H	2.325878	-0.270522	0.282792
H190	H	1.422023	-0.850434	-0.620657
H191	H	1.755356	-0.517100	-0.287324
H192	H	2.088690	-0.183767	0.046009
H193	H	1.545766	-0.222563	-1.116461
H194	H	1.879099	0.110770	-0.783128
H195	H	2.212433	0.444104	-0.449794
H196	H	1.094082	-0.454039	-0.566916
H197	H	1.427416	-0.120706	-0.233583
H198	H	1.760749	0.212628	0.099750
H199	H	1.615942	-0.605697	-0.426794
H200	H	1.949275	-0.272364	-0.093460
H201	H	2.282609	0.060970	0.239873
H202	H	1.439716	-0.447612	-0.949248
H203	H	1.773049	-0.114279	-0.615914
H204	H	2.106383	0.219055	-0.282581
H205	H	1.403683	-0.248279	-0.937778
H206	H	1.737016	0.085055	-0.604445
H207	H	2.070350	0.418388	-0.271111
H208	H	1.607450	-0.738761	-0.435402
H209	H	1.940783	-0.405428	-0.102068
H210	H	2.274116	-0.072095	0.231265
H211	H	1.544370	-0.222655	-0.935055
H212	H	1.877704	0.110679	-0.601721
H213	H	2.211037	0.444012	-0.268388
H214	H	1.369819	-0.605702	-0.672590
H215	H	1.703153	-0.272369	-0.339257
H216	H	2.036486	0.060965	-0.005923
H217	H	1.644997	-0.410504	-0.945757
H218	H	1.978330	-0.077170	-0.612424
H219	H	2.311664	0.256163	-0.279090
H220	H	1.097218	-0.428546	-0.426612
H221	H	1.430552	-0.095212	-0.093278
H222	H	1.763885	0.238121	0.240055
H223	H	1.687141	-0.322346	-1.124247
H224	H	2.020474	0.010987	-0.790914
H225	H	2.353807	0.344321	-0.457581
H226	H	1.405269	-0.247620	-1.119634
H227	H	1.738602	0.085713	-0.786301
H228	H	2.071935	0.419047	-0.452967
H229	H	1.106313	-0.263453	-0.662362
H230	H	1.439646	0.069880	-0.329029
H231	H	1.772980	0.403214	0.004305
H232	H	0.912670	-0.454031	-0.565635
H233	H	1.246004	-0.120698	-0.232301
H234	H	1.579337	0.212636	0.101032
H235	H	1.109046	-0.229103	-0.462801
H236	H	1.442379	0.104230	-0.129467
H237	H	1.775712	0.437563	0.203866
H238	H	0.926941	-0.228797	-0.462935
H239	H	1.260274	0.104536	-0.129601
H240	H	1.593608	0.437869	0.203732
H241	H	1.598517	-0.825540	-0.444414
H242	H	1.931850	-0.492206	-0.111081
H243	H	2.265184	-0.158873	0.222253
H244	H	0.921206	-0.296123	-0.365663
H245	H	1.254540	0.037211	-0.032329
H246	H	1.587873	0.370544	0.301004
H247	H	1.103874	-0.296401	-0.364832
H248	H	1.437207	0.036932	-0.031499
H249	H	1.770541	0.370265	0.301834
H250	H	0.915356	-0.427974	-0.425139
H251	H	1.248689	-0.094641	-0.091805
H252	H	1.582023	0.238693	0.241528
H253	H	1.101966	-0.354723	-0.709194
H254	H	1.435299	-0.021390	-0.375860
H255	H	1.768632	0.311943	-0.042527
H256	H	0.919429	-0.359274	-0.706862
H257	H	1.252762	-0.025941	-0.373529
H258	H	1.586096	0.307393	-0.040196
H259	H	1.684739	-0.317872	-0.941724
H260	H	2.018072	0.015461	-0.608391
H261	H	2.351405	0.348795	-0.275058
