data_functionalizedCrystal
_audit_creation_method	'MofGen! by Chris Wilmer'
_symmetry_space_group_name_H-M	'P1'
_symmetry_Int_Tables_number	1
_symmetry_cell_setting	triclinic
loop_
_symmetry_equiv_pos_as_xyz
  x,y,z
_cell_length_a	10.489746
_cell_length_b	8.965430
_cell_length_c	10.489711
_cell_angle_alpha	89.995872
_cell_angle_beta	84.534155
_cell_angle_gamma	90.000925
loop_
_atom_site_label
_atom_site_type_symbol
_atom_site_fract_x
_atom_site_fract_y
_atom_site_fract_z
O1	O	1.694030	0.123926	0.179992
O2	O	1.322834	0.123949	0.196878
O3	O	1.516898	0.123941	0.002835
O4	O	1.499966	0.123934	0.374036
O5	O	1.516882	-0.124138	0.002848
O6	O	1.322817	-0.124130	0.196891
O7	O	1.694014	-0.124153	0.180005
Cu8	Cu	1.508414	-0.146793	0.188449
Cu9	Cu	1.508434	0.146589	0.188434
O10	O	1.499949	-0.124145	0.374048
C11	C	1.275294	-0.000087	0.195608
C12	C	1.133665	-0.000077	0.191788
C13	C	0.980821	-0.000096	0.066063
C14	C	1.058200	-0.122409	0.128927
C15	C	1.058172	0.122178	0.128944
C16	C	0.958696	-0.122527	0.247910
C17	C	0.958662	0.122169	0.247909
C18	C	1.035992	-0.000174	0.310861
N19	N	1.508410	-0.353142	0.188459
C20	C	1.418633	-0.450444	0.278168
C21	C	1.534127	-0.549866	0.303981
C22	C	1.392965	-0.549848	0.162657
C23	C	1.623962	-0.450375	0.214331
C24	C	1.482724	-0.450348	0.072956
C25	C	1.598300	-0.549725	0.098721
C26	C	1.741554	-0.000114	0.181276
C27	C	1.883182	-0.000114	0.185095
C28	C	1.515619	-0.000094	-0.044691
C29	C	1.511817	-0.000081	-0.186322
N30	N	1.508448	0.352938	0.188414
C31	C	1.628522	-0.000104	-0.368706
C32	C	1.570218	-0.122415	-0.276557
C33	C	1.570203	0.122172	-0.276594
C34	C	1.446676	-0.122521	-0.346510
C35	C	1.446678	0.122175	-0.346557
C36	C	1.388284	-0.000166	-0.254435
C37	C	1.501229	-0.000106	0.421574
C38	C	1.505031	-0.000110	0.563206
H39	H	1.101675	-0.225816	0.078683
H40	H	1.295320	-0.593546	0.140854
O41	O	1.384381	0.245430	-0.383795
C42	C	1.380627	0.242974	-0.517780
H43	H	1.391695	0.123267	-0.553774
H44	H	1.285086	0.289687	-0.542909
H45	H	1.462063	0.313983	-0.565001
H46	H	0.915163	0.225580	0.298108
H47	H	0.956111	-0.000217	-0.037440
H48	H	1.622484	0.225574	-0.245638
O49	O	0.907234	-0.246199	0.307701
C50	C	0.959209	-0.374791	0.245225
H51	H	1.055557	-0.346276	0.191124
H52	H	0.973081	-0.465108	0.319151
H53	H	0.891019	-0.416971	0.174882
O54	O	1.065128	-0.000512	0.434447
C55	C	1.013976	-0.129629	0.496736
H56	H	0.999275	-0.219359	0.422545
H57	H	1.083140	-0.172315	0.565910
H58	H	0.918153	-0.101621	0.552120
H59	H	1.555879	-0.593578	0.401640
H60	H	1.101627	0.225586	0.078667
O61	O	1.328284	-0.398490	0.368917
C62	C	1.355864	-0.449233	0.490518
H63	H	1.462114	-0.477109	0.487895
H64	H	1.330948	-0.358312	0.564698
H65	H	1.296834	-0.553305	0.517291
H66	H	1.721630	-0.406865	0.236252
O67	O	1.456510	-0.398214	-0.043463
C68	C	1.334641	-0.448839	-0.070283
H69	H	1.274950	-0.476806	0.023203
H70	H	1.284683	-0.357811	-0.122844
H71	H	1.345741	-0.552831	-0.132896
H72	H	1.674321	-0.593043	0.022834
O73	O	1.749673	-0.000052	-0.427832
C74	C	1.815236	0.127707	-0.390683
H75	H	1.768518	0.169905	-0.294874
H76	H	1.919537	0.098094	-0.380862
H77	H	1.810670	0.218430	-0.466271
H78	H	1.286693	-0.000227	-0.204971
H79	H	1.622464	-0.225826	-0.245563
H80	H	1.394459	-0.226042	-0.377315
