data_functionalizedCrystal
_audit_creation_method	'MofGen! by Chris Wilmer'
_symmetry_space_group_name_H-M	'P1'
_symmetry_Int_Tables_number	1
_symmetry_cell_setting	triclinic
loop_
_symmetry_equiv_pos_as_xyz
  x,y,z
_cell_length_a	23.532355
_cell_length_b	23.532407
_cell_length_c	22.610064
_cell_angle_alpha	90.000603
_cell_angle_beta	90.004331
_cell_angle_gamma	82.838075
loop_
_atom_site_label
_atom_site_type_symbol
_atom_site_fract_x
_atom_site_fract_y
_atom_site_fract_z
O1	O	-0.755283	-0.068986	-0.049137
O2	O	-0.255283	0.431014	0.450863
O3	O	-0.589415	-0.079020	-0.049151
O4	O	-0.089415	0.420980	0.450849
O5	O	-0.677351	0.008929	-0.049133
O6	O	-0.177351	0.508929	0.450867
O7	O	-0.667347	-0.156936	-0.049155
O8	O	-0.167347	0.343064	0.450845
O9	O	-0.677335	0.008917	0.049236
O10	O	-0.177335	0.508917	0.549236
O11	O	-0.589400	-0.079033	0.049218
O12	O	-0.089400	0.420967	0.549218
O13	O	-0.755267	-0.068999	0.049232
O14	O	-0.255267	0.431001	0.549232
Zn15	Zn	-0.672331	-0.074018	0.064843
Zn16	Zn	-0.172331	0.425982	0.564843
Zn17	Zn	-0.672351	-0.074001	-0.064762
Zn18	Zn	-0.172351	0.425999	0.435238
O19	O	-0.667332	-0.156949	0.049214
O20	O	-0.167332	0.343051	0.549214
C21	C	-0.568191	-0.078776	0.000032
C22	C	-0.068191	0.421224	0.500032
C23	C	-0.504972	-0.078022	0.000027
C24	C	-0.004972	0.421978	0.500027
C25	C	-0.231736	-0.074717	-0.053588
C26	C	0.268264	0.425283	0.446412
C27	C	-0.291136	-0.075431	-0.053590
C28	C	0.208864	0.424569	0.446410
O29	O	-0.321869	-0.075774	-0.099191
O30	O	0.178131	0.424226	0.400809
N31	N	-0.320833	-0.075798	0.000031
N32	N	0.179167	0.424202	0.500031
C33	C	-0.291128	-0.075446	0.053658
C34	C	0.208872	0.424554	0.553658
O35	O	-0.321843	-0.075824	0.099267
O36	O	0.178157	0.424176	0.599267
C37	C	-0.231730	-0.074728	0.053659
C38	C	0.268270	0.425272	0.553659
C39	C	-0.202035	-0.074366	0.000035
C40	C	0.297965	0.425634	0.500035
C41	C	-0.202041	-0.074354	-0.107208
C42	C	0.297959	0.425646	0.392792
C43	C	-0.142645	-0.073642	-0.107205
C44	C	0.357355	0.426358	0.392795
C45	C	-0.112944	-0.073291	-0.053583
C46	C	0.387056	0.426709	0.446417
C47	C	-0.142639	-0.073654	0.000037
C48	C	0.357361	0.426346	0.500037
C49	C	-0.202027	-0.074372	0.107285
C50	C	0.297973	0.425628	0.607285
C51	C	-0.142625	-0.073654	0.107282
C52	C	0.357375	0.426346	0.607282
C53	C	-0.112930	-0.073292	0.053658
C54	C	0.387070	0.426708	0.553658
C55	C	-0.053542	-0.072591	0.053662
C56	C	0.446458	0.427409	0.553662
N57	N	-0.023845	-0.072223	0.000041
N58	N	0.476155	0.427777	0.500041
C59	C	-0.053546	-0.072574	-0.053582
C60	C	0.446454	0.427426	0.446418
C61	C	-0.415869	-0.076953	0.053651
C62	C	0.084131	0.423047	0.553651
C63	C	-0.475266	-0.077675	0.053650
C64	C	0.024734	0.422325	0.553650
C65	C	-0.475269	-0.077658	-0.053598
C66	C	0.024731	0.422342	0.446402
C67	C	-0.415871	-0.076940	-0.053596
C68	C	0.084129	0.423060	0.446404
C69	C	-0.386172	-0.076585	0.000030
C70	C	0.113828	0.423415	0.500030
C71	C	0.071190	-0.071077	-0.053573
C72	C	0.571190	0.428923	0.446427
C73	C	0.130591	-0.070367	-0.053566
C74	C	0.630591	0.429633	0.446434
C75	C	0.130590	-0.070381	0.053681
C76	C	0.630590	0.429619	0.553681
C77	C	0.071194	-0.071094	0.053675
C78	C	0.571194	0.428906	0.553675
C79	C	0.041495	-0.071440	0.000043
C80	C	0.541495	0.428560	0.500043
O81	O	-0.022772	-0.072245	0.099240
O82	O	0.477228	0.427755	0.599240
O83	O	-0.022825	-0.072188	-0.099183
O84	O	0.477175	0.427812	0.400817
C85	C	-0.677088	0.030139	0.000053
C86	C	-0.177088	0.530139	0.500053
C87	C	-0.676322	0.093356	0.000058
C88	C	-0.176322	0.593356	0.500058
C89	C	0.223509	-0.069248	0.000050
C90	C	0.723509	0.430752	0.500050
C91	C	0.160292	-0.070017	0.000056
C92	C	0.660292	0.429983	0.500056
C93	C	-0.667594	-0.178158	0.000027
C94	C	-0.167594	0.321842	0.500027
C95	C	-0.668360	-0.241375	0.000018
C96	C	-0.168360	0.258625	0.500018
N97	N	-0.672321	-0.074029	0.153296
N98	N	-0.172321	0.425971	0.653296
C99	C	-0.723557	0.492468	0.000029
C100	C	-0.223557	0.992468	0.500029
C101	C	-0.722845	0.551868	0.000025
C102	C	-0.222845	1.051868	0.500025
O103	O	-0.766632	0.588621	0.000007
O104	O	-0.266632	1.088621	0.500007
N105	N	-0.670568	0.574484	0.000021
N106	N	-0.170568	1.074484	0.500021
C107	C	-0.618998	0.537697	0.000015
C108	C	-0.118998	1.037697	0.500015
O109	O	-0.574467	0.562388	0.000011
O110	O	-0.074467	1.062388	0.500011
C111	C	-0.619710	0.478298	0.000016
C112	C	-0.119710	0.978298	0.500016
C113	C	-0.671991	0.455685	0.000026
C114	C	-0.171991	0.955685	0.500026
C115	C	-0.775834	0.469854	0.000039
C116	C	-0.275834	0.969854	0.500039
C117	C	-0.776545	0.410458	0.000044
C118	C	-0.276545	0.910458	0.500044
C119	C	-0.724979	0.373676	0.000041
C120	C	-0.224979	0.873676	0.500041
C121	C	-0.672703	0.396289	0.000031
C122	C	-0.172703	0.896289	0.500031
C123	C	-0.568141	0.441512	0.000006
C124	C	-0.068141	0.941512	0.500006
C125	C	-0.568858	0.382110	0.000006
C126	C	-0.068858	0.882110	0.500006
C127	C	-0.621139	0.359497	0.000016
C128	C	-0.121139	0.859497	0.500016
C129	C	-0.621848	0.300111	0.000033
C130	C	-0.121848	0.800111	0.500033
N131	N	-0.674126	0.277494	0.000037
N132	N	-0.174126	0.777494	0.500037
C133	C	-0.725691	0.314277	0.000041
C134	C	-0.225691	0.814277	0.500041
C135	C	-0.617507	0.662439	0.000014
C136	C	-0.117507	1.162439	0.500014
C137	C	-0.616794	0.721837	0.000018
C138	C	-0.116794	1.221837	0.500018
C139	C	-0.720642	0.736004	0.000026
C140	C	-0.220642	1.236004	0.500026
C141	C	-0.721354	0.676605	0.000026
C142	C	-0.221354	1.176605	0.500026
C143	C	-0.669784	0.639823	0.000018
C144	C	-0.169784	1.139823	0.500018
C145	C	-0.727181	0.189540	0.000053
C146	C	-0.227181	0.689540	0.500053
C147	C	-0.727888	0.130138	0.000061
C148	C	-0.227888	0.630138	0.500061
C149	C	-0.624041	0.115977	0.000050
C150	C	-0.124041	0.615977	0.500050
C151	C	-0.623334	0.175374	0.000045
C152	C	-0.123334	0.675374	0.500045
C153	C	-0.674909	0.212154	0.000045
C154	C	-0.174909	0.712154	0.500045
O155	O	-0.578084	0.263323	0.000049
O156	O	-0.078084	0.763323	0.500049
O157	O	-0.770216	0.289577	0.000037
O158	O	-0.270216	0.789577	0.500037
N159	N	-0.672366	-0.073986	-0.153215
N160	N	-0.172366	0.426014	0.346785
C161	C	-0.711291	-0.035063	0.561945
C162	C	-0.211291	0.464937	1.061945
C163	C	-0.711294	-0.035059	0.623865
C164	C	-0.211294	0.464941	1.123865
O165	O	-0.744403	-0.001937	0.655891
O166	O	-0.244403	0.498063	1.155891
N167	N	-0.672351	-0.073989	0.654833
N168	N	-0.172351	0.426011	1.154833
C169	C	-0.633399	-0.112923	0.623878
C170	C	-0.133399	0.387077	1.123878
O171	O	-0.600275	-0.146035	0.655904
O172	O	-0.100275	0.353965	1.155904
C173	C	-0.633394	-0.112924	0.561959
C174	C	-0.133394	0.387076	1.061959
C175	C	-0.672343	-0.073995	0.530994
C176	C	-0.172343	0.426005	1.030994
C177	C	-0.750237	0.003863	0.530981
C178	C	-0.250237	0.503863	1.030981
C179	C	-0.750234	0.003858	0.469065
C180	C	-0.250234	0.503858	0.969065
C181	C	-0.711286	-0.035073	0.438114
C182	C	-0.211286	0.464927	0.938114
C183	C	-0.672341	-0.074000	0.469079
C184	C	-0.172341	0.426000	0.969079
C185	C	-0.594439	-0.151854	0.531005
C186	C	-0.094439	0.348146	1.031005
C187	C	-0.594437	-0.151851	0.469082
C188	C	-0.094437	0.348149	0.969082
C189	C	-0.633386	-0.112922	0.438117
C190	C	-0.133386	0.387078	0.938117
C191	C	-0.633390	-0.112936	0.376212
C192	C	-0.133390	0.387064	0.876212
N193	N	-0.672333	-0.074005	0.345244
N194	N	-0.172333	0.425995	0.845244
C195	C	-0.711281	-0.035074	0.376195
C196	C	-0.211281	0.464926	0.876195
C197	C	-0.633412	-0.112917	0.753911
C198	C	-0.133412	0.387083	1.253911
C199	C	-0.633419	-0.112919	0.815829
C200	C	-0.133419	0.387081	1.315829
C201	C	-0.711314	-0.035055	0.815812
C202	C	-0.211314	0.464945	1.315812
C203	C	-0.711309	-0.035055	0.753893
C204	C	-0.211309	0.464945	1.253893
C205	C	-0.672355	-0.073987	0.722943
C206	C	-0.172355	0.426013	1.222943
C207	C	-0.711273	-0.035088	0.246168
C208	C	-0.211273	0.464912	0.746168
C209	C	-0.711269	-0.035098	0.184247
C210	C	-0.211269	0.464902	0.684247
C211	C	-0.633373	-0.112960	0.184269
C212	C	-0.133373	0.387040	0.684269
C213	C	-0.633379	-0.112953	0.246185
C214	C	-0.133379	0.387047	0.746185
C215	C	-0.672331	-0.074012	0.277133
C216	C	-0.172331	0.425988	0.777133
O217	O	-0.600296	-0.146040	0.344147
O218	O	-0.100296	0.353960	0.844147
O219	O	-0.744395	-0.001962	0.344161
O220	O	-0.244395	0.498038	0.844161
H221	H	0.047016	-0.071360	-0.097245
H222	H	0.547016	0.428640	0.402755
H223	H	-0.582057	0.086018	0.000049
H224	H	-0.082057	0.586018	0.500049
O225	O	-0.595631	-0.150822	0.723876
O226	O	-0.095631	0.349178	1.223876
C227	C	-0.561676	-0.250033	0.704982
C228	C	-0.061676	0.249967	1.204982
C229	C	-0.604502	-0.207170	0.739018
C230	C	-0.104502	0.292830	1.239018
H231	H	-0.568824	-0.295599	0.717220
H232	H	-0.068824	0.204401	1.217220
H233	H	-0.568354	-0.243404	0.655399
H234	H	-0.068354	0.256596	1.155399
H235	H	-0.516110	-0.242823	0.717160
H236	H	-0.016110	0.257177	1.217160
H237	H	-0.650084	-0.214353	0.726889
H238	H	-0.150084	0.285647	1.226889
H239	H	-0.597774	-0.213809	0.788592
H240	H	-0.097774	0.286191	1.288592
O241	O	-0.749034	0.002793	0.276253
O242	O	-0.249034	0.502793	0.776253
C243	C	-0.761618	0.080625	0.346175
C244	C	-0.261618	0.580625	0.846175
C245	C	-0.718790	0.037771	0.312130
C246	C	-0.218790	0.537771	0.812130
H247	H	-0.737183	0.108908	0.375199
H248	H	-0.237183	0.608908	0.875199
H249	H	-0.789444	0.108485	0.313427
H250	H	-0.289444	0.608485	0.813427
H251	H	-0.789940	0.056176	0.375134
H252	H	-0.289940	0.556176	0.875134
H253	H	-0.690430	0.062174	0.283169
H254	H	-0.190430	0.562174	0.783169
H255	H	-0.691004	0.009912	0.344909
H256	H	-0.191004	0.509912	0.844909
O257	O	-0.770720	0.771763	-0.000082
O258	O	-0.270720	1.271763	0.499918
C259	C	-0.830164	0.847075	-0.051034
C260	C	-0.330164	1.347075	0.448966
C261	C	-0.773441	0.806600	-0.050992
C262	C	-0.273441	1.306600	0.449008
H263	H	-0.832378	0.875259	-0.092184
H264	H	-0.332378	1.375259	0.407816
H265	H	-0.867677	0.820741	-0.051069
H266	H	-0.367677	1.320741	0.448931
H267	H	-0.832414	0.875215	-0.009851
H268	H	-0.332414	1.375215	0.490149
H269	H	-0.771135	0.778451	-0.092168
H270	H	-0.271135	1.278451	0.407832
H271	H	-0.735955	0.832968	-0.050926
H272	H	-0.235955	1.332968	0.449074
H273	H	-0.601663	-0.144660	0.159059
H274	H	-0.101663	0.355340	0.659059
O275	O	-0.788087	0.041734	0.439082
O276	O	-0.288087	0.541734	0.939082
C277	C	-0.865365	0.118947	0.445624
C278	C	-0.365365	0.618947	0.945624
C279	C	-0.822519	0.076088	0.479647
C280	C	-0.322519	0.576088	0.979647
H281	H	-0.893222	0.146725	0.478406
H282	H	-0.393222	0.646725	0.978406
H283	H	-0.840968	0.147310	0.416656
H284	H	-0.340968	0.647310	0.916656
H285	H	-0.893652	0.094503	0.416614
H286	H	-0.393652	0.594503	0.916614
H287	H	-0.794220	0.100486	0.508689
H288	H	-0.294220	0.600486	1.008689
H289	H	-0.846951	0.047726	0.508577
H290	H	-0.346951	0.547726	1.008577
H291	H	-0.226218	-0.074638	-0.150876
H292	H	0.273782	0.425362	0.349124
H293	H	-0.580762	0.193786	0.000054
H294	H	-0.080762	0.693786	0.500054
H295	H	-0.817827	0.499797	0.000039
H296	H	-0.317827	0.999797	0.500039
H297	H	-0.574222	0.740243	0.000020
H298	H	-0.074222	1.240243	0.500020
O299	O	-0.113702	-0.073386	0.159339
O300	O	0.386298	0.426614	0.659339
C301	C	-0.039929	-0.121949	0.221599
C302	C	0.460071	0.378051	0.721599
C303	C	-0.072628	-0.122315	0.162620
C304	C	0.427372	0.377685	0.662620
H305	H	-0.006722	-0.161510	0.224277
H306	H	0.493278	0.338490	0.724277
H307	H	-0.017519	-0.081779	0.224296
H308	H	0.482481	0.418221	0.724296
H309	H	-0.071375	-0.122302	0.259911
H310	H	0.428625	0.377698	0.759911
H311	H	-0.041220	-0.121982	0.124275
H312	H	0.458780	0.378018	0.624275
H313	H	-0.095047	-0.162481	0.159975
H314	H	0.404953	0.337519	0.659975
O315	O	-0.787997	0.041739	0.561067
O316	O	-0.287997	0.541739	1.061067
C317	C	-0.800593	0.119572	0.630988
C318	C	-0.300593	0.619572	1.130988
C319	C	-0.757760	0.076719	0.596949
C320	C	-0.257760	0.576719	1.096949
H321	H	-0.776163	0.147856	0.660016
H322	H	-0.276163	0.647856	1.160016
H323	H	-0.828416	0.147430	0.598238
H324	H	-0.328416	0.647430	1.098238
H325	H	-0.828919	0.095122	0.659943
H326	H	-0.328919	0.595122	1.159943
H327	H	-0.729397	0.101123	0.567993
H328	H	-0.229397	0.601123	1.067993
H329	H	-0.729977	0.048861	0.629731
H330	H	-0.229977	0.548861	1.129731
O331	O	0.042429	-0.071422	0.105817
O332	O	0.542429	0.428578	0.605817
C333	C	0.048713	-0.071389	0.212192
C334	C	0.548713	0.428611	0.712192
C335	C	0.081352	-0.071013	0.153183
C336	C	0.581352	0.428987	0.653183
H337	H	0.080170	-0.071070	0.250503
H338	H	0.580170	0.428930	0.750503
H339	H	0.015483	-0.031847	0.214917
H340	H	0.515483	0.468153	0.714917
H341	H	0.026322	-0.111572	0.214838
H342	H	0.526322	0.388428	0.714838
H343	H	0.103778	-0.030856	0.150498
H344	H	0.603778	0.469144	0.650498
H345	H	0.114550	-0.110581	0.150483
H346	H	0.614550	0.389419	0.650483
H347	H	-0.226195	-0.074665	0.150952
H348	H	0.273805	0.425335	0.650952
H349	H	-0.391697	-0.076645	-0.097262
H350	H	0.108303	0.423355	0.402738
H351	H	-0.743027	-0.003354	0.841024
H352	H	-0.243027	0.496646	1.341024
H353	H	-0.575510	0.632494	0.000012
H354	H	-0.075510	1.132494	0.500012
O355	O	-0.749127	0.002776	0.154260
O356	O	-0.249127	0.502776	0.654260
C357	C	-0.826410	0.079985	0.160790
C358	C	-0.326410	0.579985	0.660790
C359	C	-0.783562	0.037134	0.194820
C360	C	-0.283562	0.537134	0.694820
H361	H	-0.854270	0.107766	0.193567
H362	H	-0.354270	0.607766	0.693567
H363	H	-0.802015	0.108346	0.131818
H364	H	-0.302015	0.608346	0.631818
H365	H	-0.854695	0.055534	0.131783
H366	H	-0.354695	0.555534	0.631783
H367	H	-0.755266	0.061538	0.223858
H368	H	-0.255266	0.561538	0.723858
H369	H	-0.807993	0.008773	0.223754
H370	H	-0.307993	0.508773	0.723754
H371	H	0.154783	-0.070098	0.097339
H372	H	0.654783	0.429902	0.597339
H373	H	-0.743024	-0.003356	0.728686
H374	H	-0.243024	0.496644	1.228686
H375	H	-0.601668	-0.144658	0.271397
H376	H	-0.101668	0.355342	0.771397
O377	O	-0.595510	-0.150683	0.845878
O378	O	-0.095510	0.349317	1.345878
C379	C	-0.496293	-0.184599	0.864797
C380	C	0.003707	0.315401	1.364797
C381	C	-0.539167	-0.141793	0.830744
C382	C	-0.039167	0.358207	1.330744
H383	H	-0.450730	-0.177434	0.852564
H384	H	0.049270	0.322566	1.352564
H385	H	-0.502930	-0.177915	0.914377
H386	H	-0.002930	0.322085	1.414377
H387	H	-0.503483	-0.230171	0.852628
H388	H	-0.003483	0.269829	1.352628
H389	H	-0.532002	-0.096204	0.842863
H390	H	-0.032002	0.403796	1.342863
H391	H	-0.532519	-0.148527	0.781172
H392	H	-0.032519	0.351473	1.281172
H393	H	-0.499463	-0.077943	-0.097260
H394	H	0.000537	0.422057	0.402740
H395	H	-0.562714	-0.183553	0.443885
H396	H	-0.062714	0.316447	0.943885
O397	O	0.159345	-0.069990	-0.105712
O398	O	0.659345	0.430010	0.394288
C399	C	0.153066	-0.070085	-0.212087
C400	C	0.653066	0.429915	0.287913
C401	C	0.120434	-0.070500	-0.153077
C402	C	0.620434	0.429500	0.346923
H403	H	0.121623	-0.070509	-0.250397
H404	H	0.621623	0.429491	0.249603
H405	H	0.175418	-0.029880	-0.214804
H406	H	0.675418	0.470120	0.285196
H407	H	0.186329	-0.109604	-0.214742
H408	H	0.686329	0.390396	0.285258
H409	H	0.087144	-0.031009	-0.150382
H410	H	0.587144	0.468991	0.349618
H411	H	0.098121	-0.110731	-0.150385
H412	H	0.598121	0.389269	0.349615
H413	H	-0.562723	-0.183553	0.556208
H414	H	-0.062723	0.316447	1.056208
H415	H	-0.526863	0.352164	-0.000002
H416	H	-0.026863	0.852164	0.499998
O417	O	-0.113896	-0.073257	-0.159350
O418	O	0.386104	0.426743	0.340650
C419	C	-0.120188	-0.073338	-0.265723
C420	C	0.379812	0.426662	0.234277
C421	C	-0.152813	-0.073766	-0.206710
C422	C	0.347187	0.426234	0.293290
H423	H	-0.151636	-0.073762	-0.304029
H424	H	0.348364	0.426238	0.195971
H425	H	-0.097842	-0.033129	-0.268438
H426	H	0.402158	0.466871	0.231562
H427	H	-0.086921	-0.112853	-0.268388
H428	H	0.413079	0.387147	0.231612
H429	H	-0.186107	-0.034279	-0.204005
H430	H	0.313893	0.465721	0.295995
H431	H	-0.175119	-0.114001	-0.204020
H432	H	0.324881	0.385999	0.295980
H433	H	-0.525569	0.459912	-0.000005
H434	H	-0.025569	0.959912	0.499995
O435	O	-0.777332	0.225183	0.000081
O436	O	-0.277332	0.725183	0.500081
C437	C	-0.880409	0.232949	0.000062
C438	C	-0.380409	0.732949	0.500062
C439	C	-0.823656	0.192520	0.000039
C440	C	-0.323656	0.692520	0.500039
H441	H	-0.917876	0.206558	0.000016
H442	H	-0.417876	0.706558	0.500016
H443	H	-0.882707	0.261104	0.041238
H444	H	-0.382707	0.761104	0.541238
H445	H	-0.882654	0.261122	-0.041097
H446	H	-0.382654	0.761122	0.458903
H447	H	-0.821373	0.164311	0.041171
H448	H	-0.321373	0.664311	0.541171
H449	H	-0.821381	0.164404	-0.041163
H450	H	-0.321381	0.664404	0.458837
O451	O	-0.504095	-0.077930	0.105756
O452	O	-0.004095	0.422070	0.605756
C453	C	-0.528957	-0.028832	0.197445
C454	C	-0.028957	0.471168	0.697445
C455	C	-0.496296	-0.028469	0.138448
C456	C	0.003704	0.471531	0.638448
H457	H	-0.522653	0.011148	0.223899
H458	H	-0.022653	0.511148	0.723899
H459	H	-0.576526	-0.029365	0.188276
H460	H	-0.076526	0.470635	0.688276
H461	H	-0.511837	-0.068575	0.223856
H462	H	-0.011837	0.431425	0.723856
H463	H	-0.513368	0.011269	0.112008
H464	H	-0.013368	0.511269	0.612008
H465	H	-0.448731	-0.027965	0.147659
H466	H	0.051269	0.472035	0.647659
O467	O	-0.386946	-0.076690	0.105709
O468	O	0.113054	0.423310	0.605709
C469	C	-0.313173	-0.125254	0.167969
C470	C	0.186827	0.374746	0.667969
C471	C	-0.345869	-0.125617	0.108988
C472	C	0.154131	0.374383	0.608988
H473	H	-0.279963	-0.164813	0.170644
H474	H	0.220037	0.335187	0.670644
H475	H	-0.290765	-0.085083	0.170669
H476	H	0.209235	0.414917	0.670669
H477	H	-0.344619	-0.125612	0.206279
H478	H	0.155381	0.374388	0.706279
H479	H	-0.314461	-0.125280	0.070644
H480	H	0.185539	0.374720	0.570644
H481	H	-0.368286	-0.165785	0.106339
H482	H	0.131714	0.334215	0.606339
O483	O	-0.778641	0.108106	-0.000011
O484	O	-0.278641	0.608106	0.499989
C485	C	-0.839739	0.049296	-0.050982
C486	C	-0.339739	0.549296	0.449018
C487	C	-0.782239	0.074196	-0.050965
C488	C	-0.282239	0.574196	0.449035
H489	H	-0.842672	0.021885	-0.092181
H490	H	-0.342672	0.521885	0.407819
H491	H	-0.842674	0.021807	-0.009840
H492	H	-0.342674	0.521807	0.490160
H493	H	-0.876460	0.085802	-0.050954
H494	H	-0.376460	0.585802	0.449046
H495	H	-0.745484	0.037727	-0.051014
H496	H	-0.245484	0.537727	0.448986
H497	H	-0.779354	0.101700	-0.092103
H498	H	-0.279354	0.601700	0.407897
H499	H	-0.763925	0.658198	0.000034
H500	H	-0.263925	1.158198	0.500034
O501	O	-0.827381	0.388591	0.000023
O502	O	-0.327381	0.888591	0.500023
C503	C	-0.930307	0.408934	0.000063
C504	C	-0.430307	0.908934	0.500063
C505	C	-0.872772	0.433769	0.000075
C506	C	-0.372772	0.933769	0.500075
H507	H	-0.967021	0.445448	0.000118
H508	H	-0.467021	0.945448	0.500118
H509	H	-0.933285	0.381501	-0.041114
H510	H	-0.433285	0.881501	0.458886
H511	H	-0.933205	0.381461	0.041221
H512	H	-0.433205	0.881461	0.541221
H513	H	-0.869835	0.461267	-0.041055
H514	H	-0.369835	0.961267	0.458945
H515	H	-0.869818	0.461169	0.041279
H516	H	-0.369818	0.961169	0.541279
