data_functionalizedCrystal
_audit_creation_method	'MofGen! by Chris Wilmer'
_symmetry_space_group_name_H-M	'P1'
_symmetry_Int_Tables_number	1
_symmetry_cell_setting	triclinic
loop_
_symmetry_equiv_pos_as_xyz
  x,y,z
_cell_length_a	19.805407
_cell_length_b	12.827892
_cell_length_c	19.805407
_cell_angle_alpha	90.008263
_cell_angle_beta	90.009221
_cell_angle_gamma	90.015392
loop_
_atom_site_label
_atom_site_type_symbol
_atom_site_fract_x
_atom_site_fract_y
_atom_site_fract_z
Zn1	Zn	1.034718	-0.416204	0.382743
Zn2	Zn	1.034675	-0.590916	0.269565
Zn3	Zn	0.921553	-0.416190	0.269568
Zn4	Zn	0.921518	-0.590904	0.382712
O5	O	0.978116	-0.503554	0.326147
O6	O	1.129429	-0.439391	0.367742
O7	O	1.019666	-0.567737	0.174849
O8	O	0.936598	-0.269956	0.284595
O9	O	1.129398	-0.567751	0.284590
O10	O	1.019739	-0.269966	0.367745
O11	O	0.936556	-0.439366	0.174851
O12	O	0.826832	-0.439355	0.284565
O13	O	0.936538	-0.567731	0.477432
O14	O	0.826806	-0.567717	0.367691
O15	O	1.019705	-0.439380	0.477456
O16	O	1.019632	-0.737151	0.284560
O17	O	0.936496	-0.737142	0.367688
C18	C	0.802260	-0.503534	0.326125
C19	C	0.727028	-0.503550	0.326132
C20	C	0.691688	-0.570489	0.369346
C21	C	0.621000	-0.570491	0.369355
C22	C	0.585653	-0.503558	0.326147
C23	C	0.620998	-0.436612	0.282931
C24	C	0.691685	-0.436606	0.282926
C25	C	0.335924	-0.436635	0.282954
C26	C	0.265232	-0.436649	0.282961
C27	C	0.265240	-0.570520	0.369383
C28	C	0.335927	-0.570514	0.369377
C29	C	0.371265	-0.503564	0.326165
C30	C	0.447914	-0.503562	0.326156
C31	C	0.509006	-0.503565	0.326152
C32	C	0.978074	-0.775063	0.326135
C33	C	0.978118	-0.891217	0.326153
C34	C	1.019305	-0.942971	0.285064
C35	C	1.019351	-1.063021	0.285081
C36	C	1.154659	-0.503574	0.326169
C37	C	1.229891	-0.503583	0.326179
C38	C	0.978122	-0.503556	0.502690
C39	C	0.978125	-0.503557	0.577922
C40	C	0.978177	-0.230983	0.326174
C41	C	0.978203	-0.114830	0.326185
C42	C	1.021425	-0.436734	0.613279
C43	C	1.021419	-0.436731	0.683967
C44	C	0.978116	-0.503556	0.719297
C45	C	0.934811	-0.570381	0.683935
C46	C	0.934814	-0.570378	0.613248
C47	C	0.934798	-0.570394	0.969008
C48	C	0.934800	-0.570394	1.039700
C49	C	1.021403	-0.436746	1.039728
C50	C	1.021406	-0.436743	0.969041
C51	C	0.978099	-0.503564	0.933685
C52	C	0.978105	-0.503565	0.857036
C53	C	0.978113	-0.503561	0.795944
C54	C	0.978104	-0.503573	1.150291
C55	C	0.978097	-0.503565	1.075059
H56	H	0.720458	-0.382092	0.247740
Cl57	Cl	0.923753	-1.046126	0.380498
H58	H	0.899545	-0.624818	0.940230
H59	H	0.236458	-0.625030	0.404572
H60	H	0.942893	-0.935784	0.361346
Cl61	Cl	0.576576	-0.654646	0.423684
Cl62	Cl	1.075870	-0.352726	0.568871
H63	H	0.899551	-0.624788	0.712706
H64	H	1.056680	-0.382320	0.712752
Cl65	Cl	1.073701	-0.874171	0.230734
Cl66	Cl	1.073792	-1.131732	0.230762
Cl67	Cl	0.880376	-0.654384	0.568798
Cl68	Cl	1.075844	-0.352737	1.084180
Cl69	Cl	0.380359	-0.654664	0.423696
Cl70	Cl	0.736118	-0.654642	0.423665
Cl71	Cl	0.220796	-0.352497	0.228639
Cl72	Cl	1.075848	-0.352735	0.924630
H73	H	0.899535	-0.624813	1.068464
H74	H	0.364689	-0.382129	0.247762
H75	H	0.592212	-0.382110	0.247753
