data_functionalizedCrystal
_audit_creation_method	'MofGen! by Chris Wilmer'
_symmetry_space_group_name_H-M	'P1'
_symmetry_Int_Tables_number	1
_symmetry_cell_setting	triclinic
loop_
_symmetry_equiv_pos_as_xyz
  x,y,z
_cell_length_a	14.908571
_cell_length_b	19.121063
_cell_length_c	19.120915
_cell_angle_alpha	94.738654
_cell_angle_beta	89.271765
_cell_angle_gamma	89.303906
loop_
_atom_site_label
_atom_site_type_symbol
_atom_site_fract_x
_atom_site_fract_y
_atom_site_fract_z
Zn1	Zn	1.333519	-0.359754	-0.472234
Zn2	Zn	1.333413	-0.472402	-0.359580
Zn3	Zn	1.190127	-0.348023	-0.347870
Zn4	Zn	1.176695	-0.470012	-0.469859
O5	O	1.258438	-0.412548	-0.412386
O6	O	1.459101	-0.380607	-0.463185
O7	O	1.319983	-0.451993	-0.259828
O8	O	1.214814	-0.251383	-0.360461
O9	O	1.459024	-0.463369	-0.380418
O10	O	1.320163	-0.260002	-0.451830
O11	O	1.214712	-0.360612	-0.251225
O12	O	1.062749	-0.358295	-0.358158
O13	O	1.191921	-0.459295	-0.568373
O14	O	1.052880	-0.447920	-0.447783
O15	O	1.307138	-0.378289	-0.570118
O16	O	1.306958	-0.570281	-0.378116
O17	O	1.191818	-0.568525	-0.459137
C18	C	1.025248	-0.401575	-0.401442
C19	C	0.925487	-0.396899	-0.396778
C20	C	0.727795	-0.481572	-0.481225
C21	C	0.634060	-0.477181	-0.476845
C22	C	0.644279	-0.383721	-0.383642
C23	C	0.738015	-0.388113	-0.388022
C24	C	0.779769	-0.437041	-0.436814
C25	C	0.873506	-0.441435	-0.441190
C26	C	0.883724	-0.347973	-0.347992
C27	C	0.789988	-0.343581	-0.343612
C28	C	1.247942	-0.594866	-0.419656
C29	C	1.243533	-0.672867	-0.422793
C30	C	1.301451	-0.710407	-0.382123
C31	C	1.297309	-0.783698	-0.385078
C32	C	1.235244	-0.819447	-0.428700
C33	C	1.177323	-0.781903	-0.469375
C34	C	1.181470	-0.708613	-0.466423
C35	C	1.219725	-1.040689	-0.439724
C36	C	1.215581	-1.113983	-0.442671
C37	C	1.335568	-1.115774	-0.358375
C38	C	1.339706	-1.042483	-0.355424
C39	C	1.281789	-1.004945	-0.396102
C40	C	1.231007	-0.894362	-0.431720
C41	C	1.286031	-0.930031	-0.393085
C42	C	1.492539	-0.423563	-0.423372
C43	C	1.592299	-0.428257	-0.428054
C44	C	1.248043	-0.419834	-0.595419
C45	C	1.243613	-0.422939	-0.673417
C46	C	1.268999	-0.229519	-0.405104
C47	C	1.273499	-0.151523	-0.402001
C48	C	1.215556	-0.442657	-1.114514
C49	C	1.219715	-0.439729	-1.041226
C50	C	1.281787	-0.396093	-1.005494
C51	C	1.339697	-0.355378	-1.043054
C52	C	1.335532	-0.358303	-1.116340
C53	C	1.297358	-0.385149	-0.784263
C54	C	1.301520	-0.382229	-0.710971
C55	C	1.181537	-0.466579	-0.709149
C56	C	1.177382	-0.469503	-0.782436
C57	C	1.235288	-0.428785	-0.819989
C58	C	1.286042	-0.393101	-0.930582
C59	C	1.231028	-0.431774	-0.894899
C60	C	1.268848	-0.405241	-0.230065
C61	C	1.273463	-0.401946	-0.152068
H62	H	0.761792	-0.521415	-0.520949
Cl63	Cl	0.925996	-0.502945	-0.502527
H64	H	1.126837	-0.505036	-0.811524
Cl65	Cl	1.408322	-0.307113	-1.163550
Cl66	Cl	1.408380	-1.162969	-0.307246
Cl67	Cl	1.108658	-0.661420	-0.517556
Cl68	Cl	0.737488	-0.282073	-0.282279
H69	H	0.926051	-0.311713	-0.311828
H70	H	1.165014	-0.478192	-1.143601
H71	H	0.591746	-0.513441	-0.513009
Cl72	Cl	1.108741	-0.517759	-0.661935
Cl73	Cl	1.379474	-0.665472	-0.327276
Cl74	Cl	1.379561	-0.327371	-0.666053
Cl75	Cl	1.417710	-0.300505	-0.998132
H76	H	1.336568	-0.900922	-0.357570
H77	H	1.344514	-0.351998	-0.814830
Cl78	Cl	1.152984	-0.939311	-0.486557
Cl79	Cl	0.591772	-0.322207	-0.322319
H80	H	1.336583	-0.357575	-0.901482
H81	H	1.344472	-0.814260	-0.351959
H82	H	1.180485	-0.467298	-0.923995
Cl83	Cl	1.417746	-0.997547	-0.300593
Cl84	Cl	1.137539	-1.158924	-0.497505
H85	H	1.172565	-1.010131	-0.472844
H86	H	1.126792	-0.811016	-0.504896
H87	H	1.172570	-0.472887	-1.010653
