data_functionalizedCrystal
_audit_creation_method	'MofGen! by Chris Wilmer'
_symmetry_space_group_name_H-M	'P1'
_symmetry_Int_Tables_number	1
_symmetry_cell_setting	triclinic
loop_
_symmetry_equiv_pos_as_xyz
  x,y,z
_cell_length_a	10.723024
_cell_length_b	10.723022
_cell_length_c	8.140239
_cell_angle_alpha	89.997644
_cell_angle_beta	89.997577
_cell_angle_gamma	84.467548
loop_
_atom_site_label
_atom_site_type_symbol
_atom_site_fract_x
_atom_site_fract_y
_atom_site_fract_z
O1	O	1.657184	0.175025	-0.136598
O2	O	2.157184	0.675025	0.363402
O3	O	1.294032	0.191779	-0.136603
O4	O	1.794032	0.691779	0.363397
O5	O	1.483986	0.001826	-0.136595
O6	O	1.983986	0.501826	0.363405
O7	O	1.467231	0.364978	-0.136607
O8	O	1.967231	0.864978	0.363393
O9	O	1.483975	0.001824	0.136632
O10	O	1.983975	0.501824	0.636632
O11	O	1.294021	0.191777	0.136624
O12	O	1.794021	0.691777	0.636624
O13	O	1.657174	0.175023	0.136629
O14	O	2.157174	0.675023	0.636629
Zn15	Zn	1.475596	0.183400	0.180007
Zn16	Zn	1.975596	0.683400	0.680007
Zn17	Zn	1.475610	0.183402	-0.179982
Zn18	Zn	1.975610	0.683402	0.320018
O19	O	1.467220	0.364976	0.136620
O20	O	1.967220	0.864976	0.636620
C21	C	1.247527	0.190558	0.000009
C22	C	1.747527	0.690558	0.500009
C23	C	1.108973	0.186911	0.000007
C24	C	1.608973	0.686911	0.500007
C25	C	1.033990	0.293199	0.000003
C26	C	1.533990	0.793199	0.500003
C27	C	0.890786	0.289431	0.000001
C28	C	1.390786	0.789431	0.500001
C29	C	1.482762	-0.044675	0.000017
C30	C	1.982762	0.455325	0.500017
C31	C	1.479115	-0.183229	0.000011
C32	C	1.979115	0.316771	0.500011
C33	C	1.581631	-0.401408	0.000004
C34	C	2.081631	0.098592	0.500004
C35	C	1.585403	-0.258205	0.000010
C36	C	2.085403	0.241795	0.500010
C37	C	1.703679	0.176243	0.000012
C38	C	2.203679	0.676243	0.500012
C39	C	1.842233	0.179891	0.000004
C40	C	2.342233	0.679891	0.500004
C41	C	1.468444	0.411477	0.000005
C42	C	1.968444	0.911477	0.500005
C43	C	1.472091	0.550031	-0.000000
C44	C	1.972091	1.050031	0.500000
N45	N	1.475596	0.183397	0.425689
N46	N	1.975596	0.683397	0.925689
N47	N	1.475620	0.183395	-0.425664
N48	N	1.975620	0.683395	0.074336
H49	H	0.826353	0.380421	-0.000010
H50	H	1.326353	0.880421	0.499990
H51	H	1.381103	-0.385526	0.000012
H52	H	1.881103	0.114474	0.500012
O53	O	1.367140	-0.232944	0.000223
O54	O	1.867140	0.267056	0.500223
C55	C	1.298858	-0.192792	0.141751
C56	C	1.798858	0.307208	0.641751
H57	H	1.333513	-0.102171	0.188937
H58	H	1.833513	0.397829	0.688937
H59	H	1.195083	-0.175748	0.109922
H60	H	1.695083	0.324252	0.609922
H61	H	1.312760	-0.267988	0.240833
H62	H	1.812760	0.232012	0.740833
H63	H	1.075811	0.386984	0.000009
H64	H	1.575811	0.886984	0.500009
O65	O	0.919211	0.071412	-0.000212
O66	O	1.419211	0.571412	0.499788
C67	C	0.995325	0.066682	-0.141741
C68	C	1.495325	0.566682	0.358259
H69	H	1.002631	0.165811	-0.188922
H70	H	1.502631	0.665811	0.311078
H71	H	1.092800	0.021149	-0.109916
H72	H	1.592800	0.521149	0.390084
H73	H	0.952093	0.009261	-0.240826
H74	H	1.452093	0.509261	0.259174
H75	H	1.067151	0.093125	-0.000031
H76	H	1.567151	0.593125	0.499969
H77	H	1.672620	-0.465850	0.000013
H78	H	2.172620	0.034150	0.500013
O79	O	1.697189	-0.208129	0.000085
O80	O	2.197189	0.291871	0.500085
C81	C	1.676069	-0.076297	0.000044
C82	C	2.176069	0.423703	0.500044
H83	H	1.578917	-0.046690	0.051771
H84	H	2.078917	0.453310	0.551771
H85	H	1.749831	-0.035602	0.079370
H86	H	2.249831	0.464398	0.579370
H87	H	1.682382	-0.039996	-0.131037
H88	H	2.182382	0.460004	0.368963
