data_functionalizedCrystal
_audit_creation_method	'MofGen! by Chris Wilmer'
_symmetry_space_group_name_H-M	'P1'
_symmetry_Int_Tables_number	1
_symmetry_cell_setting	triclinic
loop_
_symmetry_equiv_pos_as_xyz
  x,y,z
_cell_length_a	12.594516
_cell_length_b	21.395364
_cell_length_c	21.395356
_cell_angle_alpha	90.024334
_cell_angle_beta	89.979423
_cell_angle_gamma	89.967246
loop_
_atom_site_label
_atom_site_type_symbol
_atom_site_fract_x
_atom_site_fract_y
_atom_site_fract_z
Zn1	Zn	-0.423295	-0.957917	-0.354305
Zn2	Zn	-0.089961	-0.624584	-0.020972
Zn3	Zn	0.243372	-0.291250	0.312362
Zn4	Zn	-0.601288	-0.957848	-0.249540
Zn5	Zn	-0.267954	-0.624515	0.083793
Zn6	Zn	0.065379	-0.291181	0.417126
Zn7	Zn	-0.423375	-0.853134	-0.249540
Zn8	Zn	-0.090042	-0.519800	0.083793
Zn9	Zn	0.243291	-0.186467	0.417126
Zn10	Zn	-0.601283	-0.853128	-0.354279
Zn11	Zn	-0.267950	-0.519795	-0.020946
Zn12	Zn	0.065383	-0.186461	0.312387
O13	O	-0.512310	-0.905507	-0.301916
O14	O	-0.178977	-0.572173	0.031417
O15	O	0.154356	-0.238840	0.364750
O16	O	-0.446874	-1.045586	-0.340418
O17	O	-0.113540	-0.712252	-0.007085
O18	O	0.219793	-0.378919	0.326248
O19	O	-0.577722	-0.943931	-0.161862
O20	O	-0.244389	-0.610598	0.171471
O21	O	0.088944	-0.277264	0.504804
O22	O	-0.274419	-0.867065	-0.263448
O23	O	0.058915	-0.533731	0.069885
O24	O	0.392248	-0.200398	0.403218
O25	O	-0.577644	-1.045535	-0.263448
O26	O	-0.244311	-0.712202	0.069885
O27	O	0.089022	-0.378868	0.403218
O28	O	-0.274360	-0.944049	-0.340418
O29	O	0.058974	-0.610715	-0.007085
O30	O	0.392307	-0.277382	0.326248
O31	O	-0.447011	-0.866998	-0.161862
O32	O	-0.113678	-0.533665	0.171471
O33	O	0.219656	-0.200331	0.504804
O34	O	-0.447007	-0.765455	-0.263423
O35	O	-0.113674	-0.432122	0.069910
O36	O	0.219659	-0.098788	0.403243
O37	O	-0.577637	-0.867055	-0.441961
O38	O	-0.244304	-0.533722	-0.108627
O39	O	0.089029	-0.200388	0.224706
O40	O	-0.577716	-0.765451	-0.340375
O41	O	-0.244382	-0.432118	-0.007041
O42	O	0.088951	-0.098784	0.326292
O43	O	-0.446870	-0.944043	-0.441979
O44	O	-0.113537	-0.610710	-0.108646
O45	O	0.219797	-0.277376	0.224687
O46	O	-0.750233	-0.943926	-0.263424
O47	O	-0.416899	-0.610592	0.069910
O48	O	-0.083566	-0.277259	0.403243
O49	O	-0.750230	-0.866988	-0.340375
O50	O	-0.416897	-0.533655	-0.007041
O51	O	-0.083563	-0.200321	0.326292
C52	C	-0.512371	-0.742719	-0.301896
C53	C	-0.179037	-0.409386	0.031437
C54	C	0.154296	-0.076052	0.364770
C55	C	-0.512422	-0.673078	-0.301903
C56	C	-0.179089	-0.339745	0.031430
C57	C	0.154245	-0.006411	0.364764
C58	C	-0.444443	-0.640414	-0.342043
C59	C	-0.111109	-0.307080	-0.008709
C60	C	0.222224	0.026253	0.324624
C61	C	-0.444418	-0.574978	-0.342044
C62	C	-0.111085	-0.241645	-0.008711
C63	C	0.222249	0.091689	0.324622
C64	C	-0.512391	-0.542210	-0.301913
C65	C	-0.179058	-0.208876	0.031421
C66	C	0.154276	0.124457	0.364754
C67	C	-0.580375	-0.574882	-0.261765
C68	C	-0.247042	-0.241548	0.071568
C69	C	0.086292	0.091785	0.404902
C70	C	-0.580390	-0.640316	-0.261760
C71	C	-0.247057	-0.306983	0.071573
C72	C	0.086276	0.026351	0.404906
C73	C	-0.608251	-0.438500	-0.296881
C74	C	-0.274918	-0.105166	0.036453
C75	C	0.058416	0.228167	0.369786
C76	C	-0.608238	-0.373067	-0.296890
C77	C	-0.274904	-0.039733	0.036443
C78	C	0.058429	0.293600	0.369777
C79	C	-0.512343	-0.340389	-0.301924
C80	C	-0.179010	-0.007055	0.031409
C81	C	0.154324	0.326278	0.364743
C82	C	-0.416459	-0.373152	-0.306962
C83	C	-0.083126	-0.039819	0.026372
C84	C	0.250208	0.293515	0.359705
C85	C	-0.416474	-0.438586	-0.306957
C86	C	-0.083141	-0.105253	0.026376
C87	C	0.250192	0.228081	0.359710
C88	C	-0.512381	-0.471257	-0.301913
C89	C	-0.179048	-0.137924	0.031420
C90	C	0.154285	0.195409	0.364754
C91	C	-0.444331	-0.236772	-0.342068
C92	C	-0.110998	0.096561	-0.008734
C93	C	0.222336	0.429895	0.324599
C94	C	-0.444304	-0.171335	-0.342065
C95	C	-0.110971	0.161998	-0.008731
C96	C	0.222362	0.495331	0.324602
C97	C	-0.580271	-0.171240	-0.261789
C98	C	-0.246938	0.162093	0.071545
C99	C	0.086396	0.495426	0.404878
C100	C	-0.580288	-0.236676	-0.261788
C101	C	-0.246955	0.096658	0.071545
C102	C	0.086379	0.429991	0.404878
C103	C	-0.512320	-0.269438	-0.301931
C104	C	-0.178986	0.063896	0.031402
C105	C	0.154347	0.397229	0.364736
C106	C	-0.788851	-0.905466	-0.301910
C107	C	-0.455518	-0.572132	0.031423
C108	C	-0.122185	-0.238799	0.364757
C109	C	-0.907157	-0.905505	-0.301928
C110	C	-0.573823	-0.572172	0.031405
C111	C	-0.240490	-0.238839	0.364738
C112	C	-0.976447	-0.863655	-0.343753
C113	C	-0.643114	-0.530322	-0.010419
C114	C	-0.309780	-0.196988	0.322914
C115	C	-1.047310	-0.848387	-0.286580
C116	C	-0.713977	-0.515053	0.046753
C117	C	-0.380644	-0.181720	0.380086
C118	C	-1.047092	-0.920831	-0.359110
C119	C	-0.713759	-0.587498	-0.025777
C120	C	-0.380426	-0.254164	0.307556
C121	C	-0.976462	-0.890207	-0.244726
C122	C	-0.643129	-0.556873	0.088607
C123	C	-0.309795	-0.223540	0.421941
C124	C	-0.976238	-0.962678	-0.317294
C125	C	-0.642904	-0.629344	0.016039
C126	C	-0.309571	-0.296011	0.349372
C127	C	-1.047069	-0.947431	-0.260083
C128	C	-0.713736	-0.614098	0.073251
C129	C	-0.380402	-0.280764	0.406584
C130	C	-0.234689	-0.905565	-0.301936
C131	C	0.098644	-0.572232	0.031397
C132	C	0.431977	-0.238898	0.364731
C133	C	-0.116384	-0.905590	-0.301945
C134	C	0.216949	-0.572257	0.031389
C135	C	0.550283	-0.238923	0.364722
C136	C	-0.512244	-0.905556	-0.465340
C137	C	-0.178911	-0.572223	-0.132006
C138	C	0.154422	-0.238889	0.201327
C139	C	-0.512216	-0.905577	-0.534981
C140	C	-0.178883	-0.572244	-0.201648
C141	C	0.154451	-0.238910	0.131686
C142	C	-0.512264	-0.068930	-0.301933
C143	C	-0.178930	0.264403	0.031400
C144	C	0.154403	0.597737	0.364734
C145	C	-0.512277	-0.138571	-0.301932
C146	C	-0.178944	0.194762	0.031401
C147	C	0.154390	0.528095	0.364735
C148	C	-0.444147	-0.865529	-0.567684
C149	C	-0.110814	-0.532195	-0.234351
C150	C	0.222520	-0.198862	0.098983
C151	C	-0.444127	-0.865527	-0.633119
C152	C	-0.110794	-0.532193	-0.299786
C153	C	0.222539	-0.198860	0.033547
C154	C	-0.512166	-0.905584	-0.665849
C155	C	-0.178832	-0.572251	-0.332516
C156	C	0.154501	-0.238917	0.000817
C157	C	-0.580248	-0.945635	-0.633138
C158	C	-0.246914	-0.612302	-0.299805
C159	C	0.086419	-0.278968	0.033529
C160	C	-0.580273	-0.945632	-0.567704
C161	C	-0.246940	-0.612298	-0.234371
C162	C	0.086394	-0.278965	0.098963
C163	C	-0.520506	-0.962037	-0.769537
C164	C	-0.187172	-0.628704	-0.436204
C165	C	0.146161	-0.295371	-0.102870
C166	C	-0.520473	-0.962042	-0.834970
C167	C	-0.187140	-0.628708	-0.501637
C168	C	0.146194	-0.295375	-0.168303
C169	C	-0.512094	-0.905594	-0.867670
C170	C	-0.178760	-0.572261	-0.534337
C171	C	0.154573	-0.238928	-0.201003
C172	C	-0.503725	-0.849141	-0.834929
C173	C	-0.170391	-0.515807	-0.501596
C174	C	0.162942	-0.182474	-0.168263
C175	C	-0.503750	-0.849137	-0.769495
C176	C	-0.170417	-0.515804	-0.436162
C177	C	0.162917	-0.182470	-0.102828
C178	C	-0.512146	-0.905592	-0.736802
C179	C	-0.178813	-0.572259	-0.403468
C180	C	0.154521	-0.238925	-0.070135
C181	C	-0.444000	-0.865540	-0.971326
C182	C	-0.110666	-0.532207	-0.637993
C183	C	0.222667	-0.198874	-0.304659
C184	C	-0.443987	-0.865537	-1.036762
C185	C	-0.110654	-0.532204	-0.703429
C186	C	0.222679	-0.198870	-0.370096
C187	C	-0.580102	-0.945651	-1.036780
C188	C	-0.246769	-0.612318	-0.703447
C189	C	0.086565	-0.278985	-0.370113
C190	C	-0.580120	-0.945649	-0.971344
C191	C	-0.246787	-0.612315	-0.638011
C192	C	0.086547	-0.278982	-0.304678
C193	C	-0.512063	-0.905594	-0.938621
C194	C	-0.178730	-0.572261	-0.605288
C195	C	0.154604	-0.238928	-0.271955
C196	C	-0.512299	-0.905494	-0.139129
C197	C	-0.178966	-0.572160	0.194205
C198	C	0.154367	-0.238827	0.527538
C199	C	-0.512027	-0.905594	-0.069488
C200	C	-0.178694	-0.572261	0.263846
C201	C	0.154639	-0.238927	0.597179
H202	H	-0.338372	-0.346547	-0.311061
H203	H	-0.005039	-0.013214	0.022272
H204	H	0.328294	0.320120	0.355606
H205	H	-0.945436	-0.828200	-0.379071
H206	H	-0.612102	-0.494867	-0.045737
H207	H	-0.278769	-0.161534	0.287596
H208	H	-1.077883	-0.982859	-0.224679
H209	H	-0.744550	-0.649525	0.108654
H210	H	-0.411217	-0.316192	0.441987
H211	H	-0.635718	-0.548198	-0.229089
H212	H	-0.302385	-0.214864	0.104244
H213	H	0.030948	0.118469	0.437578
H214	H	-0.635498	-0.978268	-1.063428
H215	H	-0.302165	-0.644935	-0.730094
H216	H	0.031169	-0.311601	-0.396761
H217	H	-1.078551	-0.800077	-0.273597
H218	H	-0.745218	-0.466743	0.059736
H219	H	-0.411884	-0.133410	0.393070
H220	H	-0.388980	-0.263448	-0.374750
H221	H	-0.055647	0.069885	-0.041417
H222	H	0.277686	0.403219	0.291916
H223	H	-0.945000	-1.010977	-0.330305
H224	H	-0.611666	-0.677643	0.003028
H225	H	-0.278333	-0.344310	0.336361
H226	H	-0.388734	-0.832911	-0.541045
H227	H	-0.055400	-0.499577	-0.207712
H228	H	0.277933	-0.166244	0.125622
H229	H	-0.496938	-0.803171	-0.742840
H230	H	-0.163605	-0.469837	-0.409507
H231	H	0.169729	-0.136504	-0.076173
H232	H	-1.078118	-0.933759	-0.407462
H233	H	-0.744784	-0.600426	-0.074129
H234	H	-0.411451	-0.267093	0.259204
H235	H	-0.388692	-0.832915	-0.659752
H236	H	-0.055359	-0.499582	-0.326418
H237	H	0.277975	-0.166249	0.006915
H238	H	-0.527320	-1.008007	-0.742918
H239	H	-0.193987	-0.674674	-0.409584
H240	H	0.139347	-0.341341	-0.076251
H241	H	-0.388941	-0.144741	-0.374750
H242	H	-0.055608	0.188592	-0.041417
H243	H	0.277725	0.521926	0.291916
H244	H	-0.389056	-0.548378	-0.374730
H245	H	-0.055723	-0.215044	-0.041397
H246	H	0.277611	0.118289	0.291937
H247	H	-0.635616	-0.144561	-0.229113
H248	H	-0.302283	0.188773	0.104221
H249	H	0.031051	0.522106	0.437554
H250	H	-0.388584	-0.832925	-0.944681
H251	H	-0.055251	-0.499592	-0.611348
H252	H	0.278082	-0.166258	-0.278015
H253	H	-0.945565	-0.877223	-0.196361
H254	H	-0.612231	-0.543889	0.136972
H255	H	-0.278898	-0.210556	0.470306
H256	H	-0.635649	-0.263271	-0.229105
H257	H	-0.302315	0.070062	0.104229
H258	H	0.031018	0.403395	0.437562
H259	H	-0.496894	-0.803176	-0.861552
H260	H	-0.163561	-0.469843	-0.528219
H261	H	0.169772	-0.136509	-0.194886
H262	H	-0.686312	-0.346396	-0.292791
H263	H	-0.352979	-0.013063	0.040543
H264	H	-0.019645	0.320271	0.373876
H265	H	-0.388561	-0.832920	-1.063388
H266	H	-0.055227	-0.499587	-0.730055
H267	H	0.278106	-0.166254	-0.396722
H268	H	-0.635547	-0.978262	-0.944717
H269	H	-0.302213	-0.644929	-0.611384
H270	H	0.031120	-0.311595	-0.278051
H271	H	-0.527282	-1.008010	-0.861622
H272	H	-0.193949	-0.674676	-0.528289
H273	H	0.139385	-0.341343	-0.194956
H274	H	-0.635645	-0.978250	-0.659791
H275	H	-0.302312	-0.644917	-0.326458
H276	H	0.031021	-0.311583	0.006876
H277	H	-0.635702	-0.978247	-0.541077
H278	H	-0.302369	-0.644913	-0.207744
H279	H	0.030965	-0.311580	0.125589
H280	H	-0.635749	-0.666911	-0.229073
H281	H	-0.302416	-0.333578	0.104261
H282	H	0.030918	-0.000244	0.437594
H283	H	-0.338403	-0.465259	-0.311057
H284	H	-0.005069	-0.131926	0.022276
H285	H	0.328264	0.201408	0.355610
H286	H	-0.686346	-0.465101	-0.292781
H287	H	-0.353012	-0.131767	0.040552
H288	H	-0.019679	0.201566	0.373886
H289	H	-0.389097	-0.667084	-0.374730
H290	H	-0.055763	-0.333751	-0.041396
H291	H	0.277570	-0.000418	0.291937
