data_functionalizedCrystal
_audit_creation_method	'MofGen! by Chris Wilmer'
_symmetry_space_group_name_H-M	'P1'
_symmetry_Int_Tables_number	1
_symmetry_cell_setting	triclinic
loop_
_symmetry_equiv_pos_as_xyz
  x,y,z
_cell_length_a	16.974897
_cell_length_b	14.519709
_cell_length_c	15.455450
_cell_angle_alpha	87.021976
_cell_angle_beta	89.339242
_cell_angle_gamma	96.460201
loop_
_atom_site_label
_atom_site_type_symbol
_atom_site_fract_x
_atom_site_fract_y
_atom_site_fract_z
O1	O	1.043084	-0.110355	-0.145287
O2	O	1.293084	0.139645	0.104713
O3	O	1.543084	0.389645	0.354713
O4	O	1.793084	0.639645	0.604713
O5	O	0.813590	-0.126115	-0.129198
O6	O	1.063590	0.123885	0.120802
O7	O	1.313590	0.373885	0.370802
O8	O	1.563590	0.623885	0.620802
O9	O	0.934422	0.016042	-0.137645
O10	O	1.184422	0.266042	0.112355
O11	O	1.434422	0.516042	0.362355
O12	O	1.684422	0.766042	0.612355
O13	O	0.922251	-0.252513	-0.136840
O14	O	1.172251	-0.002513	0.113160
O15	O	1.422251	0.247487	0.363160
O16	O	1.672251	0.497487	0.613160
O17	O	0.940566	0.008867	0.006182
O18	O	1.190566	0.258867	0.256182
O19	O	1.440566	0.508867	0.506182
O20	O	1.690566	0.758867	0.756182
O21	O	0.819733	-0.133291	0.014628
O22	O	1.069733	0.116709	0.264628
O23	O	1.319733	0.366709	0.514628
O24	O	1.569733	0.616709	0.764628
O25	O	1.049227	-0.117531	-0.001460
O26	O	1.299227	0.132469	0.248540
O27	O	1.549227	0.382469	0.498540
O28	O	1.799227	0.632469	0.748540
Cu29	Cu	0.935041	-0.126066	0.019717
Cu30	Cu	1.185041	0.123934	0.269717
Cu31	Cu	1.435041	0.373934	0.519717
Cu32	Cu	1.685041	0.623934	0.769717
Cu33	Cu	0.927776	-0.117580	-0.150375
Cu34	Cu	1.177776	0.132420	0.099625
Cu35	Cu	1.427776	0.382420	0.349625
Cu36	Cu	1.677776	0.632420	0.599625
O37	O	0.928394	-0.259688	0.006986
O38	O	1.178394	-0.009688	0.256986
O39	O	1.428394	0.240312	0.506986
O40	O	1.678394	0.490312	0.756986
C41	C	0.787291	-0.129234	-0.055226
C42	C	1.037291	0.120766	0.194774
C43	C	1.287291	0.370766	0.444774
C44	C	1.537291	0.620766	0.694774
C45	C	0.699775	-0.127827	-0.049089
C46	C	0.949775	0.122173	0.200911
C47	C	1.199775	0.372173	0.450911
C48	C	1.449775	0.622173	0.700911
C49	C	0.655304	-0.123258	-0.124600
C50	C	0.905304	0.126742	0.125400
C51	C	1.155304	0.376742	0.375400
C52	C	1.405304	0.626742	0.625400
C53	C	0.573073	-0.121951	-0.118821
C54	C	0.823073	0.128049	0.131179
C55	C	1.073073	0.378049	0.381179
C56	C	1.323073	0.628049	0.631179
C57	C	0.535315	-0.125207	-0.037531
C58	C	0.785315	0.124793	0.212469
C59	C	1.035315	0.374793	0.462469
C60	C	1.285315	0.624793	0.712469
C61	C	0.579792	-0.129780	0.037985
C62	C	0.829792	0.120220	0.287985
C63	C	1.079792	0.370220	0.537985
C64	C	1.329792	0.620220	0.787985
C65	C	0.662021	-0.131093	0.032206
C66	C	0.912021	0.118907	0.282206
C67	C	1.162021	0.368907	0.532206
C68	C	1.412021	0.618907	0.782206
C69	C	0.289747	-0.121705	-0.011840
C70	C	0.539747	0.128295	0.238160
C71	C	0.789747	0.378295	0.488160
C72	C	1.039747	0.628295	0.738160
C73	C	0.207512	-0.120388	-0.006066
C74	C	0.457512	0.129612	0.243934
C75	C	0.707512	0.379612	0.493934
C76	C	0.957512	0.629612	0.743934
C77	C	0.200799	-0.112561	-0.162873
C78	C	0.450799	0.137439	0.087127
C79	C	0.700799	0.387439	0.337127
C80	C	0.950799	0.637439	0.587127
C81	C	0.283030	-0.113869	-0.168645
C82	C	0.533030	0.136131	0.081355
C83	C	0.783030	0.386131	0.331355
C84	C	1.033030	0.636131	0.581355
C85	C	0.327499	-0.118447	-0.093129
C86	C	0.577499	0.131553	0.156871
C87	C	0.827499	0.381553	0.406871
C88	C	1.077499	0.631553	0.656871
N89	N	0.451262	-0.123868	-0.031623
N90	N	0.701262	0.126132	0.218377
N91	N	0.951262	0.376132	0.468377
N92	N	1.201262	0.626132	0.718377
N93	N	0.411550	-0.119792	-0.099038
N94	N	0.661550	0.130208	0.150962
N95	N	0.911550	0.380208	0.400962
N96	N	1.161550	0.630208	0.650962
C97	C	0.936927	0.046810	-0.065688
C98	C	1.186927	0.296810	0.184312
C99	C	1.436927	0.546810	0.434312
C100	C	1.686927	0.796810	0.684312
C101	C	0.935228	0.149180	-0.065555
C102	C	1.185228	0.399180	0.184445
C103	C	1.435228	0.649180	0.434445
C104	C	1.685228	0.899180	0.684445
C105	C	0.928973	0.524033	-0.065093
C106	C	1.178973	0.774033	0.184907
C107	C	1.428973	1.024033	0.434907
C108	C	1.678973	1.274033	0.684907
C109	C	0.930710	0.419737	-0.065221
C110	C	1.180710	0.669737	0.184779
C111	C	1.430710	0.919737	0.434779
C112	C	1.680710	1.169737	0.684779
C113	C	0.932100	0.336610	-0.065323
C114	C	1.182100	0.586610	0.184677
C115	C	1.432100	0.836610	0.434677
C116	C	1.682100	1.086610	0.684677
C117	C	0.933838	0.232307	-0.065453
C118	C	1.183838	0.482307	0.184547
C119	C	1.433838	0.732307	0.434547
C120	C	1.683838	0.982307	0.684547
C121	C	1.075526	-0.114411	-0.075435
C122	C	1.325526	0.135589	0.174565
C123	C	1.575526	0.385589	0.424565
C124	C	1.825526	0.635589	0.674565
C125	C	1.163041	-0.115818	-0.081577
C126	C	1.413041	0.134182	0.168423
C127	C	1.663041	0.384182	0.418423
C128	C	1.913041	0.634182	0.668423
C129	C	0.925891	0.709542	-0.064942
C130	C	1.175891	0.959542	0.185058
C131	C	1.425891	1.209542	0.435058
C132	C	1.675891	1.459542	0.685058
C133	C	0.927593	0.607169	-0.064988
C134	C	1.177593	0.857169	0.185012
C135	C	1.427593	1.107169	0.435012
C136	C	1.677593	1.357169	0.685012
N137	N	0.940157	-0.132033	0.139350
N138	N	1.190157	0.117967	0.389350
N139	N	1.440157	0.367967	0.639350
N140	N	1.690157	0.617967	0.889350
N141	N	0.922666	-0.111605	-0.270009
N142	N	1.172666	0.138395	-0.020009
N143	N	1.422666	0.388395	0.229991
N144	N	1.672666	0.638395	0.479991
C145	C	0.894221	-0.078551	0.187999
C146	C	1.144221	0.171449	0.437999
C147	C	1.394221	0.421449	0.687999
C148	C	1.644221	0.671449	0.937999
C149	C	0.898109	-0.083075	0.278532
C150	C	1.148109	0.166925	0.528532
C151	C	1.398109	0.416925	0.778532
C152	C	1.648109	0.666925	1.028532
C153	C	0.947938	-0.141076	0.320412
C154	C	1.197938	0.108924	0.570412
C155	C	1.447938	0.358924	0.820412
C156	C	1.697938	0.608924	1.070412
C157	C	0.993876	-0.194564	0.271756
C158	C	1.243876	0.055436	0.521756
C159	C	1.493876	0.305436	0.771756
C160	C	1.743876	0.555436	1.021756
C161	C	0.989983	-0.190045	0.181226
C162	C	1.239983	0.059955	0.431226
C163	C	1.489983	0.309955	0.681226
C164	C	1.739983	0.559955	0.931226
C165	C	0.964711	-0.160574	0.590805
C166	C	1.214711	0.089426	0.840805
C167	C	1.464711	0.339426	1.090805
C168	C	1.714711	0.589426	1.340805
C169	C	0.968602	-0.165087	0.681342
C170	C	1.218602	0.084913	0.931342
C171	C	1.468602	0.334913	1.181342
C172	C	1.718602	0.584913	1.431342
C173	C	0.872833	-0.053599	0.688111
C174	C	1.122833	0.196401	0.938111
C175	C	1.372833	0.446401	1.188111
C176	C	1.622833	0.696401	1.438111
C177	C	0.868949	-0.049081	0.597578
C178	C	1.118949	0.200919	0.847578
C179	C	1.368949	0.450919	1.097578
C180	C	1.618949	0.700919	1.347578
C181	C	0.914884	-0.102572	0.548930
C182	C	1.164884	0.147428	0.798930
C183	C	1.414884	0.397428	1.048930
C184	C	1.664884	0.647428	1.298930
N185	N	0.951915	-0.145699	0.412951
N186	N	1.201915	0.104301	0.662951
N187	N	1.451915	0.354301	0.912951
N188	N	1.701915	0.604301	1.162951
N189	N	0.910901	-0.097953	0.456394
N190	N	1.160901	0.152047	0.706394
N191	N	1.410901	0.402047	0.956394
N192	N	1.660901	0.652047	1.206394
H193	H	0.325944	-0.125426	0.049651
H194	H	0.575944	0.124574	0.299651
H195	H	0.825944	0.374574	0.549651
H196	H	1.075944	0.624574	0.799651
Cl197	Cl	1.047736	-0.257280	0.120065
Cl198	Cl	1.297736	-0.007280	0.370065
Cl199	Cl	1.547736	0.242720	0.620065
Cl200	Cl	1.797736	0.492720	0.870065
Cl201	Cl	0.831582	-0.005623	0.135358
Cl202	Cl	1.081582	0.244377	0.385358
Cl203	Cl	1.331582	0.494377	0.635358
Cl204	Cl	1.581582	0.744377	0.885358
H205	H	0.313768	-0.111211	-0.234840
H206	H	0.563768	0.138789	0.015160
H207	H	0.813768	0.388789	0.265160
H208	H	1.063768	0.638789	0.515160
H209	H	0.860703	-0.039524	0.318138
H210	H	1.110703	0.210476	0.568138
H211	H	1.360703	0.460476	0.818138
H212	H	1.610703	0.710476	1.068138
Cl213	Cl	0.160048	-0.124463	0.096135
Cl214	Cl	0.410048	0.125537	0.346135
Cl215	Cl	0.660048	0.375537	0.596135
Cl216	Cl	0.910048	0.625537	0.846135
Cl217	Cl	0.532323	-0.133881	0.140179
Cl218	Cl	0.782323	0.116119	0.390179
Cl219	Cl	1.032323	0.366119	0.640179
Cl220	Cl	1.282323	0.616119	0.890179
H221	H	0.828375	-0.001847	0.563486
H222	H	1.078375	0.248153	0.813486
H223	H	1.328375	0.498153	1.063486
H224	H	1.578375	0.748153	1.313486
H225	H	1.002118	-0.204127	0.551206
H226	H	1.252118	0.045873	0.801206
H227	H	1.502118	0.295873	1.051206
H228	H	1.752118	0.545873	1.301206
H229	H	0.698228	-0.134818	0.093695
H230	H	0.948228	0.115182	0.343695
H231	H	1.198228	0.365182	0.593695
H232	H	1.448228	0.615182	0.843695
H233	H	1.009180	-0.212322	0.715438
H234	H	1.259180	0.037678	0.965438
H235	H	1.509180	0.287678	1.215438
H236	H	1.759180	0.537678	1.465438
H237	H	0.686041	-0.120603	-0.190795
H238	H	0.936041	0.129397	0.059205
H239	H	1.186041	0.379397	0.309205
H240	H	1.436041	0.629397	0.559205
Cl241	Cl	0.815086	0.013637	0.749274
Cl242	Cl	1.065086	0.263637	0.999274
Cl243	Cl	1.315086	0.513637	1.249274
Cl244	Cl	1.565086	0.763637	1.499274
Cl245	Cl	1.056512	-0.267488	0.324407
Cl246	Cl	1.306512	-0.017488	0.574407
Cl247	Cl	1.556512	0.232512	0.824407
Cl248	Cl	1.806512	0.482512	1.074407
H249	H	0.164584	-0.108836	-0.224354
H250	H	0.414584	0.141164	0.025646
H251	H	0.664584	0.391164	0.275646
H252	H	0.914584	0.641164	0.525646
Cl253	Cl	0.517170	-0.116206	-0.213754
Cl254	Cl	0.767170	0.133794	0.036246
Cl255	Cl	1.017170	0.383794	0.286246
Cl256	Cl	1.267170	0.633794	0.536246
