data_functionalizedCrystal
_audit_creation_method	'MofGen! by Chris Wilmer'
_symmetry_space_group_name_H-M	'P1'
_symmetry_Int_Tables_number	1
_symmetry_cell_setting	triclinic
loop_
_symmetry_equiv_pos_as_xyz
  x,y,z
_cell_length_a	21.395362
_cell_length_b	12.594516
_cell_length_c	21.395355
_cell_angle_alpha	90.011407
_cell_angle_beta	90.043940
_cell_angle_gamma	90.031933
loop_
_atom_site_label
_atom_site_type_symbol
_atom_site_fract_x
_atom_site_fract_y
_atom_site_fract_z
Zn1	Zn	0.957923	-0.423414	0.354617
Zn2	Zn	0.957853	-0.601379	0.249852
Zn3	Zn	0.853138	-0.423464	0.249818
Zn4	Zn	0.853134	-0.601400	0.354557
O5	O	0.905512	-0.512414	0.302211
O6	O	1.045592	-0.446992	0.340759
O7	O	0.943934	-0.577789	0.162170
O8	O	0.867069	-0.274511	0.263730
O9	O	1.045540	-0.577741	0.263789
O10	O	0.944055	-0.274475	0.340725
O11	O	0.867001	-0.447076	0.162144
O12	O	0.765460	-0.447097	0.263672
O13	O	0.867063	-0.577779	0.442243
O14	O	0.765457	-0.577827	0.340624
O15	O	0.944051	-0.447013	0.442287
O16	O	0.943930	-0.750327	0.263731
O17	O	0.866994	-0.750343	0.340657
C18	C	0.742724	-0.512471	0.302138
C19	C	0.673083	-0.512520	0.302122
C20	C	0.640385	-0.580681	0.342130
C21	C	0.574949	-0.580655	0.342158
C22	C	0.542215	-0.512479	0.302167
C23	C	0.574921	-0.444305	0.262155
C24	C	0.640355	-0.444326	0.262133
C25	C	0.438489	-0.503905	0.245761
C26	C	0.373056	-0.503892	0.245782
C27	C	0.340394	-0.512410	0.302236
C28	C	0.373173	-0.520963	0.358670
C29	C	0.438608	-0.520984	0.358648
C30	C	0.471262	-0.512449	0.302187
C31	C	0.236743	-0.580546	0.342278
C32	C	0.171307	-0.580513	0.342307
C33	C	0.171280	-0.444168	0.262298
C34	C	0.236715	-0.444196	0.262275
C35	C	0.269443	-0.512391	0.302264
C36	C	0.905471	-0.788955	0.302205
C37	C	0.905511	-0.907261	0.302223
C38	C	0.863661	-0.976561	0.344034
C39	C	0.848392	-1.047409	0.286856
C40	C	0.920837	-1.047212	0.359410
C41	C	0.890211	-0.976550	0.245015
C42	C	0.962683	-0.976347	0.317608
C43	C	0.947436	-1.047163	0.260391
C44	C	1.068935	-0.512359	0.302284
C45	C	1.138577	-0.512335	0.302315
C46	C	0.905564	-0.512393	0.465634
C47	C	0.905586	-0.512384	0.535275
C48	C	0.905570	-0.234793	0.302231
C49	C	0.905595	-0.116488	0.302239
C50	C	0.905496	-0.512359	0.139423
C51	C	0.905596	-0.512068	0.069782
C52	C	0.945672	-0.444291	0.568012
C53	C	0.945671	-0.444245	0.633448
C54	C	0.905591	-0.512311	0.666144
C55	C	0.865497	-0.580408	0.633399
C56	C	0.865495	-0.580445	0.567965
C57	C	0.900630	-0.608151	0.769815
C58	C	0.900636	-0.608116	0.835248
C59	C	0.905595	-0.512199	0.867965
C60	C	0.910560	-0.416312	0.835241
C61	C	0.910557	-0.416349	0.769806
C62	C	0.905589	-0.512279	0.737096
C63	C	0.945682	-0.444051	0.971654
C64	C	0.945677	-0.444003	1.037091
C65	C	0.865506	-0.580176	1.037041
C66	C	0.865508	-0.580214	0.971605
C67	C	0.905599	-0.512153	0.938916
H68	H	0.667028	-0.636209	0.374694
H69	H	0.832870	-0.635669	0.944951
C70	C	0.676328	-0.369351	0.218121
H71	H	0.719985	-0.379125	0.223837
H72	H	0.665550	-0.384813	0.176011
H73	H	0.665648	-0.297852	0.227371
C74	C	0.538919	-0.369311	0.218165
H75	H	0.567767	-0.328712	0.194336
H76	H	0.513345	-0.409947	0.190833
H77	H	0.513440	-0.322985	0.242192
C78	C	0.538974	-0.655573	0.386206
H79	H	0.567837	-0.696173	0.410027
H80	H	0.513514	-0.614861	0.413542
H81	H	0.513383	-0.701902	0.362229
H82	H	0.800081	-1.078645	0.273857
H83	H	0.877226	-0.945639	0.196646
H84	H	1.010983	-0.945114	0.330634
H85	H	0.982863	-1.077968	0.224999
C86	C	0.938307	-1.089141	0.424732
H87	H	0.908501	-1.064955	0.454379
H88	H	0.938588	-1.164558	0.424180
H89	H	0.978606	-1.063754	0.435942
C90	C	0.821415	-0.655045	1.072995
H91	H	0.797539	-0.695603	1.044124
H92	H	0.845371	-0.701399	1.098545
H93	H	0.794122	-0.614314	1.098495
H94	H	0.144685	-0.636015	0.374891
C95	C	0.821413	-0.655284	0.669362
H96	H	0.827161	-0.645519	0.713021
H97	H	0.779318	-0.639730	0.658609
H98	H	0.830573	-0.726804	0.658648
H99	H	0.465294	-0.527945	0.404598
C100	C	0.989766	-0.369419	0.532058
H101	H	1.013636	-0.328852	0.560930
H102	H	1.017055	-0.410136	0.506553
H103	H	0.965803	-0.323057	0.506513
C104	C	0.989772	-0.369349	0.669466
H105	H	1.013651	-0.328826	0.640626
H106	H	0.965821	-0.322964	0.694975
H107	H	1.017063	-0.410061	0.695011
H108	H	0.914598	-0.338275	0.743165
C109	C	0.916422	-0.310860	0.871220
H110	H	0.915829	-0.324585	0.914876
H111	H	0.954672	-0.277286	0.860370
H112	H	0.882492	-0.265679	0.860617
H113	H	0.263338	-0.388697	0.229692
C114	C	0.337255	-0.530330	0.420773
H115	H	0.293590	-0.529080	0.412707
H116	H	0.347970	-0.595180	0.440741
H117	H	0.348037	-0.472491	0.447179
H118	H	0.978323	-0.388625	0.945037
H119	H	0.978319	-0.388548	1.063744
H120	H	0.896598	-0.686193	0.861887
C121	C	0.272747	-0.655544	0.386270
H122	H	0.243898	-0.696124	0.410109
H123	H	0.298225	-0.701871	0.362249
H124	H	0.298321	-0.614896	0.413601
H125	H	0.346372	-0.496933	0.199830
C126	C	0.895038	-0.713647	0.733832
H127	H	0.892050	-0.770740	0.762691
H128	H	0.858686	-0.712138	0.708330
H129	H	0.930899	-0.723145	0.708283
H130	H	0.832849	-0.635892	0.541311
C131	C	0.815773	-0.934672	0.391731
H132	H	0.836652	-0.893108	0.422374
H133	H	0.785612	-0.892205	0.370836
H134	H	0.795516	-0.992868	0.411418
C135	C	0.135279	-0.369163	0.218316
H136	H	0.091625	-0.378911	0.224058
H137	H	0.146050	-0.297679	0.227558
H138	H	0.145945	-0.384634	0.176194
H139	H	0.465077	-0.496964	0.199786
