data_functionalizedCrystal
_audit_creation_method	'MofGen! by Chris Wilmer'
_symmetry_space_group_name_H-M	'P1'
_symmetry_Int_Tables_number	1
_symmetry_cell_setting	triclinic
loop_
_symmetry_equiv_pos_as_xyz
  x,y,z
_cell_length_a	19.288864
_cell_length_b	17.038272
_cell_length_c	17.766277
_cell_angle_alpha	89.993732
_cell_angle_beta	89.976791
_cell_angle_gamma	87.123901
loop_
_atom_site_label
_atom_site_type_symbol
_atom_site_fract_x
_atom_site_fract_y
_atom_site_fract_z
O1	O	0.927386	0.097514	-0.062838
O2	O	0.725940	0.110668	-0.062787
O3	O	0.825466	-0.009720	-0.062806
O4	O	0.827860	0.217903	-0.062819
O5	O	0.825447	-0.009726	0.062382
O6	O	0.725920	0.110662	0.062402
O7	O	0.927367	0.097508	0.062351
Cu8	Cu	0.826642	0.104085	0.073807
Cu9	Cu	0.826665	0.104092	-0.074243
O10	O	0.827841	0.217897	0.062370
C11	C	0.700027	0.110242	-0.000186
C12	C	0.622845	0.108972	-0.000166
C13	C	0.823278	-0.038845	-0.000211
C14	C	0.816781	-0.125616	-0.000210
C15	C	0.582519	0.179610	-0.000182
C16	C	0.509998	0.178417	-0.000190
C17	C	0.477806	0.106580	-0.000198
C18	C	0.518141	0.035932	-0.000178
C19	C	0.590661	0.037128	-0.000162
C20	C	0.366057	0.050111	-0.044079
C21	C	0.293539	0.048918	-0.044100
C22	C	0.254132	0.102889	-0.000243
C23	C	0.287252	0.158066	0.043624
C24	C	0.359772	0.159262	0.043640
C25	C	0.399172	0.105276	-0.000214
C26	C	0.135171	0.172238	-0.000267
C27	C	0.062649	0.171042	-0.000270
C28	C	0.070793	0.028556	-0.000266
C29	C	0.143314	0.029754	-0.000254
C30	C	0.175498	0.101598	-0.000259
C31	C	0.876437	-0.175923	-0.000224
C32	C	0.870327	-0.257454	-0.000230
C33	C	0.804561	-0.288677	-0.000216
C34	C	0.744901	-0.238363	-0.000204
C35	C	0.751011	-0.156834	-0.000203
C36	C	0.782976	-0.534365	-0.000221
C37	C	0.776870	-0.615900	-0.000219
C38	C	0.902297	-0.634985	-0.000246
C39	C	0.908402	-0.553454	-0.000241
C40	C	0.848741	-0.503148	-0.000233
C41	C	0.798315	-0.372014	-0.000219
C42	C	0.854988	-0.419812	-0.000235
C43	C	0.953279	0.097934	-0.000252
C44	C	1.030462	0.099205	-0.000277
C45	C	0.830029	0.247021	-0.000227
C46	C	0.836526	0.333793	-0.000233
N47	N	0.826631	0.104079	0.177937
N48	N	0.826681	0.104091	-0.178373
C49	C	0.870718	0.050797	0.217315
C50	C	0.870722	0.050793	0.296117
C51	C	0.826646	0.104085	0.335538
C52	C	0.782551	0.157371	0.296150
C53	C	0.782543	0.157368	0.217350
C54	C	0.821754	0.175309	0.460373
C55	C	0.821767	0.175313	0.539172
C56	C	0.826665	0.104095	0.578584
C57	C	0.831566	0.032869	0.539188
C58	C	0.831559	0.032866	0.460387
C59	C	0.826649	0.104094	0.420983
C60	C	0.870759	0.050804	0.703408
C61	C	0.870758	0.050800	0.782212
C62	C	0.782590	0.157384	0.782243
C63	C	0.782587	0.157382	0.703441
C64	C	0.826676	0.104093	0.664028
H65	H	0.608719	0.238111	-0.000187
C66	C	0.257114	-0.011782	-0.092349
N67	N	0.229681	-0.057505	-0.128688
C68	C	0.734074	0.216019	0.174032
N69	N	0.697578	0.260209	0.141404
C70	C	0.927329	-0.385464	-0.000247
N71	N	0.981816	-0.359587	-0.000251
H72	H	0.044583	-0.029935	-0.000318
H73	H	0.477159	0.235941	-0.000201
C74	C	0.725974	-0.406367	-0.000188
N75	N	0.671486	-0.432245	-0.000161
H76	H	0.906624	0.007403	0.328185
C77	C	0.396202	0.219948	0.091901
N78	N	0.423641	0.265655	0.128255
C79	C	0.948785	-0.141587	-0.000240
N80	N	1.003280	-0.115727	-0.000255
H81	H	0.491926	-0.022557	-0.000194
H82	H	0.176148	-0.027768	-0.000246
H83	H	0.746662	0.200761	0.328250
H84	H	0.950869	-0.675953	-0.000254
C85	C	0.243911	0.217437	0.091873
N86	N	0.211263	0.262154	0.128212
C87	C	0.672557	-0.272711	-0.000182
N88	N	0.618066	-0.298581	-0.000160
H89	H	0.746700	0.200773	0.814338
H90	H	0.817780	0.233309	0.571243
C91	C	0.816365	0.253660	0.417028
N92	N	0.812306	0.312672	0.384381
C93	C	0.919210	-0.007831	0.173966
N94	N	0.955731	-0.051992	0.141315
C95	C	0.980749	-0.519116	-0.000256
N96	N	1.035243	-0.493253	-0.000264
C97	C	0.836941	-0.045481	0.417054
N98	N	0.840990	-0.104493	0.384416
C99	C	0.836954	-0.045478	0.582535
N100	N	0.841012	-0.104486	0.615187
H101	H	0.734396	-0.493415	-0.000214
H102	H	0.702432	-0.115875	-0.000192
H103	H	0.161377	0.230738	-0.000259
C104	C	0.409397	-0.009262	-0.092331
N105	N	0.442040	-0.053980	-0.128675
H106	H	0.746691	0.200773	0.671377
H107	H	0.029816	0.228567	-0.000279
H108	H	0.623494	-0.020396	-0.000150
C109	C	0.704519	-0.650242	-0.000209
N110	N	0.650028	-0.676109	-0.000201
H111	H	0.918906	-0.298411	-0.000240
H112	H	0.906656	0.007410	0.671317
H113	H	0.906656	0.007407	0.814274
