data_functionalizedCrystal
_audit_creation_method	'MofGen! by Chris Wilmer'
_symmetry_space_group_name_H-M	'P1'
_symmetry_Int_Tables_number	1
_symmetry_cell_setting	triclinic
loop_
_symmetry_equiv_pos_as_xyz
  x,y,z
_cell_length_a	10.540510
_cell_length_b	16.974813
_cell_length_c	16.053802
_cell_angle_alpha	88.912550
_cell_angle_beta	87.392914
_cell_angle_gamma	83.953113
loop_
_atom_site_label
_atom_site_type_symbol
_atom_site_fract_x
_atom_site_fract_y
_atom_site_fract_z
O1	O	1.690018	0.107672	-0.076708
O2	O	2.190018	0.607672	0.423292
O3	O	1.320483	0.118162	-0.077417
O4	O	1.820483	0.618162	0.422583
O5	O	1.514955	-0.001761	-0.069310
O6	O	2.014955	0.498239	0.430690
O7	O	1.495546	0.227594	-0.084815
O8	O	1.995546	0.727594	0.415185
O9	O	1.504251	0.004813	0.069104
O10	O	2.004251	0.504813	0.569104
O11	O	1.309779	0.124735	0.060998
O12	O	1.809779	0.624735	0.560998
O13	O	1.679314	0.114245	0.061707
O14	O	2.179314	0.614245	0.561707
Zn15	Zn	1.492847	0.120534	0.083328
Zn16	Zn	1.992847	0.620534	0.583328
Zn17	Zn	1.506950	0.111873	-0.099039
Zn18	Zn	2.006950	0.611873	0.400961
O19	O	1.484842	0.234168	0.053600
O20	O	1.984842	0.734168	0.553600
C21	C	1.508666	-0.027843	0.001880
C22	C	2.008666	0.472157	0.501880
C23	C	1.505858	-0.115352	0.007791
C24	C	2.005858	0.384648	0.507791
C25	C	1.267836	0.120667	-0.008157
C26	C	1.767836	0.620667	0.491843
C27	C	1.126912	0.118328	-0.007999
C28	C	1.626912	0.618328	0.492001
C29	C	1.510377	-0.160043	-0.064882
C30	C	2.010377	0.339957	0.435118
C31	C	1.507731	-0.242266	-0.059326
C32	C	2.007731	0.257734	0.440674
C33	C	1.500575	-0.279798	0.018903
C34	C	2.000575	0.220202	0.518903
C35	C	1.496052	-0.235101	0.091581
C36	C	1.996052	0.264899	0.591581
C37	C	1.498689	-0.152878	0.086025
C38	C	1.998689	0.347122	0.586025
C39	C	1.492053	-0.525322	0.043613
C40	C	1.992053	-0.025322	0.543613
C41	C	1.489420	-0.607551	0.049164
C42	C	1.989420	-0.107551	0.549164
C43	C	1.501097	-0.614710	-0.101744
C44	C	2.001097	-0.114710	0.398256
C45	C	1.503741	-0.532486	-0.107294
C46	C	2.003741	-0.032486	0.392706
C47	C	1.499212	-0.487796	-0.034616
C48	C	1.999212	0.012204	0.465384
N49	N	1.497874	-0.363844	0.024584
N50	N	1.997874	0.136156	0.524584
N51	N	1.501904	-0.403751	-0.040297
N52	N	2.001904	0.096249	0.459703
C53	C	0.908554	0.201622	-0.013949
C54	C	1.408554	0.701622	0.486051
C55	C	1.055098	0.204132	-0.013800
C56	C	1.555098	0.704132	0.486200
C57	C	1.076529	0.078158	0.074010
C58	C	1.576529	0.578158	0.574010
C59	C	0.929784	0.076274	0.074198
C60	C	1.429784	0.576274	0.574198
C61	C	0.942171	0.067012	-0.083084
C62	C	1.442171	0.567012	0.416916
C63	C	1.088547	0.071032	-0.084399
C64	C	1.588547	0.571032	0.415601
C65	C	1.731961	0.111740	-0.007555
C66	C	2.231961	0.611740	0.492445
C67	C	1.872885	0.114079	-0.007719
C68	C	2.372885	0.614079	0.492281
C69	C	1.491131	0.260250	-0.017593
C70	C	1.991131	0.760250	0.482407
C71	C	1.493939	0.347758	-0.023508
C72	C	1.993939	0.847758	0.476492
N73	N	1.483231	0.126444	0.207789
N74	N	1.983231	0.626444	0.707789
N75	N	1.516576	0.105957	-0.223499
N76	N	2.016576	0.605957	0.276501
C77	C	1.566009	0.075435	0.254931
C78	C	2.066009	0.575435	0.754931
C79	C	1.559294	0.079577	0.342058
C80	C	2.059294	0.579577	0.842058
C81	C	1.469807	0.134732	0.382041
C82	C	1.969807	0.634732	0.882041
C83	C	1.387020	0.185743	0.334892
C84	C	1.887020	0.685743	0.834892
C85	C	1.393729	0.181597	0.247768
C86	C	1.893729	0.681597	0.747768
C87	C	1.440499	0.152821	0.642228
C88	C	1.940499	0.652821	1.142228
C89	C	1.433798	0.156965	0.729359
C90	C	1.933798	0.656965	1.229359
C91	C	1.606072	0.050798	0.736518
C92	C	2.106072	0.550798	1.236518
C93	C	1.612779	0.046660	0.649391
C94	C	2.112779	0.546660	1.149391
C95	C	1.529987	0.097668	0.602251
C96	C	2.029987	0.597668	1.102251
N97	N	1.462944	0.138969	0.471098
N98	N	1.962944	0.638969	0.971098
N99	N	1.536845	0.093427	0.513195
N100	N	2.036845	0.593427	1.013195
H101	H	1.516211	-0.129491	-0.128585
H102	H	2.016211	0.370509	0.371415
Cl103	Cl	1.663359	0.015450	0.401324
Cl104	Cl	2.163359	0.515450	0.901324
H105	H	0.884665	0.109097	0.131253
H106	H	1.384665	0.609097	0.631253
H107	H	1.638885	0.030526	0.222383
H108	H	2.138885	0.530526	0.722383
H109	H	1.360922	0.201882	0.761908
H110	H	1.860922	0.701882	1.261908
H111	H	1.314150	0.230649	0.367452
H112	H	1.814150	0.730649	0.867452
H113	H	1.326321	0.223133	0.209385
H114	H	1.826321	0.723133	0.709385
H115	H	1.373088	0.194356	0.603852
H116	H	1.873088	0.694356	1.103852
H117	H	1.511416	-0.278650	-0.118504
H118	H	2.011416	0.221350	0.381496
Cl119	Cl	1.150414	-0.019156	0.085141
Cl120	Cl	1.650414	0.480844	0.585141
H121	H	1.509570	-0.501934	-0.170996
H122	H	2.009570	-0.001934	0.329004
Cl123	Cl	1.506788	-0.670896	-0.193104
Cl124	Cl	2.006788	-0.170896	0.306896
H125	H	1.490218	-0.265665	0.155277
H126	H	1.990218	0.234335	0.655277
H127	H	1.483586	-0.638106	0.112871
H128	H	1.983586	-0.138106	0.612871
H129	H	1.494991	-0.116491	0.145202
H130	H	1.994991	0.383509	0.645202
Cl131	Cl	0.894944	-0.022538	0.086489
Cl132	Cl	1.394944	0.477462	0.586489
H133	H	1.685647	0.001748	0.616839
H134	H	2.185647	0.501748	1.116839
H135	H	1.673476	0.009269	0.774908
H136	H	2.173476	0.509269	1.274908
Cl137	Cl	1.486339	-0.469149	0.134980
Cl138	Cl	1.986339	0.030851	0.634980
Cl139	Cl	0.849974	0.249083	-0.104954
Cl140	Cl	1.349974	0.749083	0.395046
H141	H	0.920775	0.002565	-0.079264
H142	H	1.420775	0.502565	0.420736
Cl143	Cl	1.091591	0.261662	0.070220
Cl144	Cl	1.591591	0.761662	0.570220
H145	H	1.102495	0.111456	0.130769
H146	H	1.602495	0.611456	0.630769
H147	H	1.121332	0.100214	-0.145032
H148	H	1.621332	0.600214	0.354968
Cl149	Cl	0.883187	0.104406	-0.178404
Cl150	Cl	1.383187	0.604406	0.321596
H151	H	1.088443	0.235804	-0.072784
H152	H	1.588443	0.735804	0.427216
H153	H	0.860318	0.237535	0.040167
H154	H	1.360318	0.737535	0.540167
H155	H	1.138681	0.008162	-0.084937
H156	H	1.638681	0.508162	0.415063
