data_functionalizedCrystal
_audit_creation_method	'MofGen! by Chris Wilmer'
_symmetry_space_group_name_H-M	'P1'
_symmetry_Int_Tables_number	1
_symmetry_cell_setting	triclinic
loop_
_symmetry_equiv_pos_as_xyz
  x,y,z
_cell_length_a	12.811445
_cell_length_b	14.853559
_cell_length_c	11.892095
_cell_angle_alpha	93.896703
_cell_angle_beta	80.666316
_cell_angle_gamma	83.839672
loop_
_atom_site_label
_atom_site_type_symbol
_atom_site_fract_x
_atom_site_fract_y
_atom_site_fract_z
O1	O	1.409854	0.106900	-0.238517
O2	O	1.102039	0.122023	-0.206966
O3	O	1.264174	-0.016798	-0.223584
O4	O	1.247720	0.245721	-0.221900
O5	O	1.250655	-0.005241	-0.034191
O6	O	1.088521	0.133580	-0.017573
O7	O	1.396336	0.118457	-0.049124
Zn8	Zn	1.240282	0.127853	-0.003278
Zn9	Zn	1.258093	0.112627	-0.252812
O10	O	1.234201	0.257278	-0.032507
C11	C	1.055887	0.127308	-0.108232
C12	C	0.938508	0.125824	-0.096200
C13	C	0.732675	0.110453	-0.280089
C14	C	0.622387	0.109059	-0.268790
C15	C	0.607642	0.121649	-0.062303
C16	C	0.717930	0.123043	-0.073602
C17	C	0.780443	0.117443	-0.182499
C18	C	0.890733	0.118830	-0.193798
C19	C	0.875985	0.131427	0.012689
C20	C	0.765698	0.130033	0.023988
C21	C	1.256671	-0.044606	-0.128813
C22	C	1.254442	-0.144682	-0.128591
C23	C	1.252353	-0.574123	-0.230860
C24	C	1.237615	-0.561518	-0.024376
C25	C	1.239718	-0.467492	-0.024591
C26	C	1.248138	-0.426778	-0.127941
C27	C	1.254454	-0.480089	-0.231077
C28	C	1.233391	-0.414173	0.078544
C29	C	1.235493	-0.320141	0.078334
C30	C	1.243920	-0.279426	-0.025019
C31	C	1.250238	-0.332743	-0.128159
C32	C	1.258658	-0.292028	-0.231509
C33	C	1.264983	-0.345345	-0.334652
C34	C	1.262881	-0.439373	-0.334430
C35	C	1.246022	-0.185397	-0.025240
C36	C	1.260758	-0.197993	-0.231727
C37	C	1.442488	0.113172	-0.147861
C38	C	1.559868	0.114655	-0.159900
C39	C	1.241705	0.285086	-0.127280
C40	C	1.243934	0.385162	-0.127509
N41	N	1.228134	0.138245	0.167021
N42	N	1.270249	0.102228	-0.423112
C43	C	1.354780	0.029869	0.390688
C44	C	1.346297	0.037139	0.509899
C45	C	1.202679	0.160050	0.524658
C46	C	1.211162	0.152780	0.405446
C47	C	1.287217	0.087688	0.338465
C48	C	1.295705	0.080423	0.219251
C49	C	1.152082	0.203329	0.234012
C50	C	1.143599	0.210599	0.353223
H51	H	0.783575	0.105889	-0.368758
O52	O	1.128655	0.223171	0.589704
C53	C	1.026049	0.206961	0.571303
H54	H	1.027775	0.132787	0.538571
H55	H	0.967424	0.222201	0.655155
H56	H	0.999979	0.252788	0.505307
H57	H	1.271830	-0.312181	-0.418799
O58	O	0.575883	0.102148	-0.363507
C59	C	0.524415	0.022893	-0.364388
H60	H	0.505445	0.002123	-0.273465
H61	H	0.447314	0.036805	-0.399864
H62	H	0.578865	-0.034337	-0.420547
O63	O	1.086504	0.259406	0.183101
C64	C	1.110321	0.239056	0.063516
H65	H	1.150883	0.166301	0.043179
H66	H	1.033495	0.246502	0.026428
H67	H	1.165843	0.287907	0.024242
O68	O	1.069581	0.273731	0.418259
C69	C	0.966971	0.257532	0.399860
H70	H	0.968683	0.183355	0.367146
H71	H	0.908344	0.272789	0.483709
H72	H	0.940914	0.303351	0.333851
H73	H	0.556724	0.126216	0.026356
H74	H	0.941630	0.114270	-0.282467
H75	H	0.714784	0.134595	0.112649
H76	H	0.914889	0.137117	0.092154
O77	O	1.225356	-0.453625	0.178996
C78	C	1.312901	-0.437264	0.232350
H79	H	1.347018	-0.374265	0.199697
H80	H	1.285656	-0.425927	0.328899
H81	H	1.376818	-0.498367	0.211597
O82	O	1.369508	0.017235	0.154015
C83	C	1.362472	0.023179	0.037600
H84	H	1.324283	0.093962	0.025343
H85	H	1.445738	0.010148	-0.015954
H86	H	1.311707	-0.029764	0.009275
O87	O	1.269022	-0.491029	-0.434715
C88	C	1.276851	-0.434928	-0.525979
H89	H	1.309692	-0.369890	-0.499331
H90	H	1.332632	-0.472375	-0.603410
H91	H	1.194563	-0.417156	-0.548995
H92	H	1.267619	-0.164852	-0.315889
O93	O	1.229174	-0.268298	0.178510
C94	C	1.138469	-0.203065	0.193937
H95	H	1.078058	-0.227669	0.141974
H96	H	1.101267	-0.192922	0.288396
H97	H	1.162733	-0.135857	0.163918
O98	O	1.258296	-0.625935	-0.330990
C99	C	1.166032	-0.670275	-0.327632
H100	H	1.098535	-0.631057	-0.262555
H101	H	1.141804	-0.673420	-0.415789
H102	H	1.183148	-0.742203	-0.301838
O103	O	1.229306	-0.601158	0.075951
C104	C	1.136138	-0.644710	0.091654
H105	H	1.111704	-0.660776	0.005180
H106	H	1.152130	-0.710520	0.133379
H107	H	1.069245	-0.598055	0.149102
H108	H	1.240848	-0.141989	0.058739
H109	H	1.416714	-0.023125	0.336150
H110	H	1.401312	-0.009944	0.552416
