data_functionalizedCrystal
_audit_creation_method	'MofGen! by Chris Wilmer'
_symmetry_space_group_name_H-M	'P1'
_symmetry_Int_Tables_number	1
_symmetry_cell_setting	triclinic
loop_
_symmetry_equiv_pos_as_xyz
  x,y,z
_cell_length_a	16.793024
_cell_length_b	16.793047
_cell_length_c	33.586455
_cell_angle_alpha	113.253857
_cell_angle_beta	66.219990
_cell_angle_gamma	112.758327
loop_
_atom_site_label
_atom_site_type_symbol
_atom_site_fract_x
_atom_site_fract_y
_atom_site_fract_z
O1	O	0.005016	-0.570216	-0.583573
O2	O	-0.034529	-0.474528	-0.453458
O3	O	0.114723	-0.474535	-0.528082
O4	O	-0.144235	-0.570209	-0.508949
O5	O	0.108729	-0.346329	-0.530229
O6	O	-0.040523	-0.346322	-0.455605
O7	O	-0.000977	-0.442010	-0.585721
Zn8	Zn	-0.021701	-0.373810	-0.521004
Zn9	Zn	-0.013805	-0.542728	-0.518175
O10	O	-0.150229	-0.442003	-0.511097
C11	C	0.005100	-0.790970	-0.238461
C12	C	-0.040584	-0.395375	-0.435637
C13	C	-0.044693	-0.353446	-0.386631
C14	C	-0.039275	-0.401741	-0.363054
C15	C	-0.040566	-0.125547	-0.300731
C16	C	-0.044689	-0.223451	-0.321635
C17	C	-0.039266	-0.270752	-0.297563
C18	C	0.005118	-0.521142	-0.103554
C19	C	-0.046224	-0.263935	-0.366370
C20	C	-0.036476	-0.360146	-0.318399
C21	C	-0.030850	-0.408530	-0.294565
C22	C	-0.028014	-0.367522	-0.249895
C23	C	-0.030804	-0.278128	-0.229058
C24	C	-0.036430	-0.229743	-0.252892
C25	C	-0.027971	-0.237122	-0.184383
C26	C	-0.022345	-0.285507	-0.160550
C27	C	-0.019555	-0.374900	-0.181386
C28	C	-0.022391	-0.415909	-0.226057
C29	C	-0.019601	-0.505302	-0.246894
C30	C	-0.013975	-0.553687	-0.223060
C31	C	-0.011142	-0.512684	-0.178391
C32	C	-0.013932	-0.423291	-0.157554
C33	C	-0.005516	-0.561069	-0.154557
C34	C	-0.002726	-0.650463	-0.175394
C35	C	-0.005562	-0.691471	-0.220064
C36	C	-0.011185	-0.643081	-0.243897
C37	C	-0.022434	-0.546309	-0.291568
C38	C	-0.019644	-0.635702	-0.312405
C39	C	-0.014021	-0.684089	-0.288567
C40	C	-0.022480	-0.676711	-0.357076
C41	C	-0.028106	-0.628326	-0.380910
C42	C	-0.030896	-0.538933	-0.360073
C43	C	-0.028060	-0.497924	-0.315402
C44	C	-0.036522	-0.490548	-0.383907
C45	C	0.815184	-0.521162	-0.508596
C46	C	0.415541	-0.125553	-0.528781
C47	C	0.375032	-0.223457	-0.531493
C48	C	0.423813	-0.270761	-0.529101
C49	C	0.149318	-0.395376	-0.530584
C50	C	0.246774	-0.353455	-0.532364
C51	C	0.294574	-0.401748	-0.529976
C52	C	0.548961	-0.790984	-0.510398
C53	C	0.286104	-0.263940	-0.532530
C54	C	0.383336	-0.360149	-0.528302
C55	C	0.432207	-0.407971	-0.525810
C56	C	0.392316	-0.497392	-0.524993
C57	C	0.303554	-0.538991	-0.526667
C58	C	0.254683	-0.491169	-0.529159
C59	C	0.263666	-0.628421	-0.525851
C60	C	0.312537	-0.676243	-0.523359
C61	C	0.401299	-0.634644	-0.521685
C62	C	0.441190	-0.545223	-0.522502
C63	C	0.529952	-0.503624	-0.520828
C64	C	0.578823	-0.551446	-0.518336
C65	C	0.538939	-0.640864	-0.517520
C66	C	0.450177	-0.682463	-0.519194
C67	C	0.587810	-0.688687	-0.515028
C68	C	0.676572	-0.647088	-0.513354
C69	C	0.716463	-0.557666	-0.514172
C70	C	0.667586	-0.509847	-0.516662
C71	C	0.569840	-0.414195	-0.521644
C72	C	0.658602	-0.372596	-0.519970
C73	C	0.707476	-0.420426	-0.517480
C74	C	0.698493	-0.283174	-0.520788
C75	C	0.649622	-0.235352	-0.523280
C76	C	0.560860	-0.276951	-0.524954
C77	C	0.520969	-0.366372	-0.524136
C78	C	0.511989	-0.229129	-0.527446
C79	C	-0.040530	-0.395407	-0.935652
C80	C	0.005063	-0.791004	-0.738448
C81	C	0.009186	-0.693099	-0.717543
C82	C	0.003779	-0.645796	-0.741620
C83	C	0.005077	-0.521171	-0.603544
C84	C	0.009198	-0.563096	-0.652550
C85	C	0.003786	-0.514804	-0.676131
C86	C	-0.040516	-0.125574	-0.800747
C87	C	0.010719	-0.652613	-0.672809
C88	C	0.000994	-0.556406	-0.720789
C89	C	-0.004621	-0.508585	-0.744908
C90	C	-0.007444	-0.419162	-0.724369
C91	C	-0.004651	-0.377560	-0.679711
C92	C	0.000964	-0.425381	-0.655592
C93	C	-0.007471	-0.288129	-0.659174
C94	C	-0.013086	-0.240308	-0.683293
C95	C	-0.015878	-0.281910	-0.727951
C96	C	-0.013056	-0.371333	-0.748490
C97	C	-0.015848	-0.412935	-0.793148
C98	C	-0.021463	-0.365114	-0.817267
C99	C	-0.024282	-0.275694	-0.796731
C100	C	-0.021490	-0.234092	-0.752073
C101	C	-0.029897	-0.227873	-0.820850
C102	C	-0.032690	-0.269476	-0.865508
C103	C	-0.029867	-0.358899	-0.886047
C104	C	-0.024255	-0.406717	-0.861925
C105	C	-0.013028	-0.502367	-0.813685
C106	C	-0.015821	-0.543969	-0.858343
C107	C	-0.021433	-0.496140	-0.882464
C108	C	-0.012998	-0.633392	-0.878882
C109	C	-0.007383	-0.681213	-0.854763
C110	C	-0.004591	-0.639611	-0.810105
C111	C	-0.007414	-0.550188	-0.789566
C112	C	0.001024	-0.687432	-0.785986
O113	O	-0.000965	0.173549	-0.277957
O114	O	-0.040516	-0.085616	-0.325254
O115	O	0.108737	0.059592	-0.327284
O116	O	-0.150219	0.028341	-0.275927
O117	O	0.114753	0.055151	-0.263265
O118	O	-0.034500	-0.090057	-0.261234
O119	O	0.005051	0.169108	-0.213937
Zn120	Zn	-0.013769	0.038820	-0.227421
Zn121	Zn	-0.021696	0.044672	-0.311770
O122	O	-0.144202	0.023900	-0.211907
O123	O	-0.034458	-0.474571	0.046517
O124	O	0.005076	-0.570190	-0.083599
O125	O	-0.144170	-0.570237	-0.008972
O126	O	0.114787	-0.474523	-0.028110
O127	O	-0.150200	-0.442024	-0.011093
O128	O	-0.000954	-0.441976	-0.085720
O129	O	-0.040488	-0.346357	0.044396
Zn130	Zn	-0.021679	-0.373810	-0.020999
Zn131	Zn	-0.013734	-0.542737	-0.018204
O132	O	0.108757	-0.346309	-0.030231
C133	C	-0.850734	0.086244	-0.289716
C134	C	-0.450996	0.035117	-0.097351
C135	C	-0.410501	0.028587	-0.146852
C136	C	-0.459292	0.034683	-0.169840
C137	C	-0.184802	0.024283	-0.235878
C138	C	-0.282257	0.023363	-0.213592
C139	C	-0.330068	0.029423	-0.237088
C140	C	-0.584541	0.075410	-0.428242
C141	C	-0.321573	0.024104	-0.168302
C142	C	-0.418828	0.035176	-0.215083
C143	C	-0.467711	0.041476	-0.238329
C144	C	-0.427833	0.042022	-0.283580
C145	C	-0.339073	0.036269	-0.305586
C146	C	-0.290190	0.029970	-0.282340
C147	C	-0.299198	0.036812	-0.350842
C148	C	-0.348081	0.043111	-0.374088
C149	C	-0.436841	0.048864	-0.352082
C150	C	-0.476719	0.048318	-0.306830
C151	C	-0.565480	0.054071	-0.284825
C152	C	-0.614362	0.060370	-0.308071
C153	C	-0.574491	0.060913	-0.353321
C154	C	-0.485730	0.055160	-0.375326
C155	C	-0.623374	0.067212	-0.376567
C156	C	-0.712134	0.072965	-0.354561
C157	C	-0.752012	0.072419	-0.309309
C158	C	-0.703123	0.066123	-0.286065
C159	C	-0.605355	0.053528	-0.239569
C160	C	-0.694115	0.059281	-0.217564
C161	C	-0.743001	0.065577	-0.240813
C162	C	-0.733993	0.058735	-0.172312
C163	C	-0.685110	0.052436	-0.149066
C164	C	-0.596350	0.046683	-0.171072
C165	C	-0.556472	0.047229	-0.216323
C166	C	-0.547467	0.040383	-0.147826
O167	O	0.585213	0.169090	-0.504004
O168	O	0.494056	-0.090076	-0.525516
O169	O	0.488081	0.055124	-0.449918
O170	O	0.591189	0.023889	-0.579602
O171	O	0.359978	0.059584	-0.452885
O172	O	0.365953	-0.085616	-0.528483
O173	O	0.457110	0.173550	-0.506971
Zn174	Zn	0.391193	0.044675	-0.518198
Zn175	Zn	0.559974	0.038798	-0.514289
O176	O	0.463086	0.028349	-0.582569
C177	C	0.815354	-0.521094	-0.008709
C178	C	0.415547	-0.125494	-0.028771
C179	C	0.375059	-0.223405	-0.031498
C180	C	0.423859	-0.270708	-0.029121
C181	C	0.149365	-0.395355	-0.030599
C182	C	0.246820	-0.353421	-0.032381
C183	C	0.294640	-0.401713	-0.030008
C184	C	0.549171	-0.790955	-0.010537
C185	C	0.286131	-0.263897	-0.032533
C186	C	0.383402	-0.360104	-0.028335
C187	C	0.432293	-0.407926	-0.025859
C188	C	0.392422	-0.497356	-0.025055
C189	C	0.303660	-0.538965	-0.026727
C190	C	0.254769	-0.491143	-0.029204
C191	C	0.263791	-0.628403	-0.025925
C192	C	0.312683	-0.676224	-0.023448
C193	C	0.401445	-0.634615	-0.021775
C194	C	0.441316	-0.545185	-0.022579
C195	C	0.530078	-0.503576	-0.020906
C196	C	0.578969	-0.551398	-0.018429
C197	C	0.539104	-0.640825	-0.017627
C198	C	0.450342	-0.682434	-0.019300
C199	C	0.587995	-0.688646	-0.015150
C200	C	0.676757	-0.647037	-0.013477
C201	C	0.716628	-0.557607	-0.014281
C202	C	0.667731	-0.509789	-0.016757
C203	C	0.569946	-0.414138	-0.021709
C204	C	0.658708	-0.372530	-0.020036
C205	C	0.707602	-0.420359	-0.017561
C206	C	0.698579	-0.283100	-0.020840
C207	C	0.649688	-0.235278	-0.023317
C208	C	0.560926	-0.276887	-0.024990
C209	C	0.521055	-0.366317	-0.024186
C210	C	0.512035	-0.229066	-0.027467
O211	O	-0.620614	0.089309	0.052274
O212	O	-0.529507	0.043784	-0.078544
O213	O	-0.523494	0.194833	-0.006033
O214	O	-0.626628	-0.061740	-0.020236
O215	O	-0.395386	0.185419	-0.005549
O216	O	-0.401400	0.034370	-0.078059
O217	O	-0.492507	0.079895	0.052758
Zn218	Zn	-0.426614	0.055638	-0.012574
Zn219	Zn	-0.595401	0.068041	-0.013212
O220	O	-0.498521	-0.071154	-0.019752
C221	C	-0.437537	0.048335	0.402491
C222	C	-0.837226	0.099430	0.210091
C223	C	-0.739773	0.100339	0.187806
C224	C	-0.691967	0.094287	0.211308
C225	C	-0.571027	0.088563	0.071568
C226	C	-0.611521	0.095108	0.121070
C227	C	-0.562739	0.089011	0.144061
C228	C	-0.171338	0.037467	0.263967
C229	C	-0.700452	0.099593	0.142516
C230	C	-0.603213	0.088528	0.189308
C231	C	-0.554892	0.082255	0.212848
C232	C	-0.466098	0.076466	0.191141
C233	C	-0.425624	0.076949	0.145894
C234	C	-0.473945	0.083222	0.122354
C235	C	-0.336822	0.071163	0.124188
C236	C	-0.288502	0.064890	0.147728
C237	C	-0.328975	0.064407	0.192975
C238	C	-0.417770	0.070196	0.214682
C239	C	-0.458244	0.069713	0.259929
C240	C	-0.409923	0.063441	0.283469
C241	C	-0.321132	0.057655	0.261765
C242	C	-0.280658	0.058138	0.216518
C243	C	-0.272811	0.051382	0.285305
C244	C	-0.313285	0.050899	0.330552
C245	C	-0.402079	0.056688	0.352259
C246	C	-0.450397	0.062957	0.328716
C247	C	-0.547046	0.075500	0.281635
C248	C	-0.587520	0.075016	0.326882
C249	C	-0.539191	0.068747	0.350423
C250	C	-0.676314	0.080806	0.348589
C251	C	-0.724634	0.087078	0.325049
C252	C	-0.684160	0.087561	0.279802
C253	C	-0.595366	0.081772	0.258095
C254	C	-0.732481	0.093834	0.256262
O255	O	-0.040608	-1.085661	-0.825229
O256	O	-0.001018	-0.826491	-0.777938
O257	O	-0.150287	-0.971682	-0.775894
O258	O	0.108661	-0.940470	-0.827272
O259	O	-0.144253	-0.976123	-0.711878
O260	O	0.005016	-0.830932	-0.713922
O261	O	-0.034575	-1.090102	-0.761213
Zn262	Zn	-0.013821	-0.961222	-0.727403
Zn263	Zn	-0.021771	-0.955371	-0.811747
O264	O	0.114695	-0.944911	-0.763256
O265	O	-0.049243	-0.216379	-0.390196
C266	C	0.024043	-0.159524	-0.455515
C267	C	0.027559	-0.213421	-0.428581
H268	H	0.086139	-0.157099	-0.486550
H269	H	-0.039639	-0.193429	-0.466872
H270	H	0.023050	-0.088083	-0.433041
H271	H	0.028587	-0.284868	-0.451028
H272	H	0.091234	-0.179444	-0.417219
O273	O	0.717455	-0.691631	-0.004667
C274	C	0.714260	-0.758073	0.047961
C275	C	0.668061	-0.707627	0.038017
H276	H	0.674355	-0.771004	0.082474
H277	H	0.716669	-0.825025	0.020598
H278	H	0.786006	-0.715472	0.048183
H279	H	0.596295	-0.750153	0.037801
H280	H	0.665723	-0.640668	0.065381
H281	H	0.780178	-0.386331	-0.016193
O282	O	0.238036	-0.216289	-0.033844
C283	C	0.227248	-0.132162	-0.074444
C284	C	0.281791	-0.186081	-0.073027
H285	H	0.262612	-0.107707	-0.106115
H286	H	0.156419	-0.177033	-0.075249
H287	H	0.222363	-0.071770	-0.042994
H288	H	0.286747	-0.246475	-0.104471
H289	H	0.352589	-0.141148	-0.072199
O290	O	0.238029	-0.216330	-0.533856
C291	C	0.227278	-0.132228	-0.574481
C292	C	0.281799	-0.186148	-0.573047
H293	H	0.262654	-0.107795	-0.606158
H294	H	0.156446	-0.177090	-0.575284
H295	H	0.222400	-0.071822	-0.543037
H296	H	0.286749	-0.246557	-0.604484
H297	H	0.352601	-0.141224	-0.572220
O298	O	0.168189	-0.531853	-0.030814
C299	C	0.045279	-0.667447	-0.031447
C300	C	0.143331	-0.621448	-0.029613
H301	H	0.025157	-0.739898	-0.030486
H302	H	-0.001844	-0.629416	-0.001094
H303	H	0.039955	-0.667093	-0.064156
H304	H	0.148743	-0.621791	0.003076
H305	H	0.190408	-0.659493	-0.059988
H306	H	-0.315470	0.043557	-0.411085
H307	H	-0.038841	-0.524079	-0.420431
O308	O	-0.811298	0.092577	0.346188
C309	C	-0.967262	0.025473	0.347179
C310	C	-0.869167	0.019116	0.323195
H311	H	-1.014074	-0.033901	0.328594
H312	H	-0.988018	0.023992	0.383706
H313	H	-0.972304	0.091082	0.346977
H314	H	-0.864051	-0.046485	0.323362
H315	H	-0.848454	0.020649	0.286680
O316	O	-0.004505	-0.768407	-0.874767
C317	C	0.079659	-0.875551	-0.898205
C318	C	0.076503	-0.776781	-0.875530
H319	H	0.145156	-0.882350	-0.898839
H320	H	0.019539	-0.920265	-0.878191
H321	H	0.076641	-0.897149	-0.934406
H322	H	0.079549	-0.755099	-0.839332
H323	H	0.136617	-0.732125	-0.895579
H324	H	-0.023809	-0.160979	-0.735279
H325	H	-0.020027	-0.251971	-0.124027
H326	H	0.182115	-0.525189	-0.530531
H327	H	-0.440845	0.083623	0.085362
O328	O	-0.297222	0.071588	0.080053
C329	C	-0.163329	0.065715	0.015878
C330	C	-0.208081	0.065195	0.065859
H331	H	-0.091245	0.060565	0.004389
H332	H	-0.203612	0.006018	-0.006064
H333	H	-0.161985	0.131017	0.012317
H334	H	-0.209434	-0.000066	0.069464
H335	H	-0.167784	0.124936	0.087777
O336	O	-0.011347	-0.383277	-0.113953
C337	C	-0.087348	-0.309576	-0.037667
C338	C	-0.090390	-0.354894	-0.087024
H339	H	-0.151238	-0.286599	-0.015882
H340	H	-0.082894	-0.359676	-0.024105
H341	H	-0.025617	-0.248842	-0.036481
H342	H	-0.152115	-0.415621	-0.088249
H343	H	-0.094797	-0.304734	-0.100565
H344	H	-0.215904	0.060157	0.129977
O345	O	-0.820543	0.064396	-0.150772
C346	C	-0.943484	0.068910	-0.081325
C347	C	-0.845463	0.062493	-0.105664
H348	H	-0.963668	0.067354	-0.044854
H349	H	-0.948825	0.134522	-0.081362
H350	H	-0.990552	0.009533	-0.099757
H351	H	-0.798335	0.121821	-0.087251
H352	H	-0.840196	-0.003156	-0.105632
O353	O	0.177087	-0.669117	-0.527460
C354	C	0.054158	-0.804696	-0.528080
C355	C	0.152209	-0.758704	-0.526242
H356	H	0.034020	-0.877139	-0.527105
H357	H	0.007040	-0.766647	-0.497734
H358	H	0.048846	-0.804361	-0.560795
H359	H	0.157608	-0.759027	-0.493546
H360	H	0.199282	-0.796767	-0.556610
O361	O	-0.015740	-0.674113	-0.922434
C362	C	-0.015038	-0.809651	-0.984825
C363	C	-0.011947	-0.763651	-0.935497
H364	H	-0.011953	-0.882044	-0.995405
H365	H	-0.080496	-0.809444	-0.987511
H366	H	0.045118	-0.771489	-1.008088
H367	H	-0.072057	-0.801776	-0.912204
H368	H	0.053550	-0.763847	-0.932848
O369	O	0.013689	-0.700230	-0.648998
C370	C	-0.059461	-0.756811	-0.583591
C371	C	-0.062943	-0.702884	-0.610521
H372	H	-0.121400	-0.758958	-0.552472
H373	H	-0.058724	-0.828348	-0.605992
H374	H	0.004365	-0.722992	-0.572359
H375	H	-0.126760	-0.736625	-0.621758
H376	H	-0.063630	-0.631349	-0.588103
H377	H	-0.208057	0.053400	0.198770
O378	O	-0.273451	0.020427	-0.145088
C379	C	-0.212871	0.093807	-0.081589
C380	C	-0.267404	0.098072	-0.107829
H381	H	-0.207948	0.156583	-0.051466
H382	H	-0.248172	0.031414	-0.068887
H383	H	-0.142060	0.090289	-0.105012
H384	H	-0.338221	0.101623	-0.084434
H385	H	-0.232032	0.160455	-0.120538
O386	O	-0.203612	0.024401	-0.303867
C387	C	-0.080696	0.019822	-0.373324
C388	C	-0.178747	0.026151	-0.348997
H389	H	-0.060568	0.021216	-0.409819
H390	H	-0.033573	0.079242	-0.354942
H391	H	-0.075380	-0.045749	-0.373226
H392	H	-0.184150	0.091686	-0.349088
H393	H	-0.225824	-0.033315	-0.367387
H394	H	-0.038719	-0.156659	-0.235851
H395	H	0.280077	-0.749342	-0.022791
H396	H	0.417746	-0.755558	-0.018645
H397	H	0.771156	-0.249077	-0.019476
O398	O	-0.212620	0.031248	-0.372366
C399	C	-0.089706	0.026671	-0.441825
C400	C	-0.187757	0.033001	-0.417496
H401	H	-0.069580	0.028066	-0.478319
H402	H	-0.042582	0.086090	-0.423443
H403	H	-0.084390	-0.038902	-0.441728
H404	H	-0.193160	0.098536	-0.417587
H405	H	-0.234835	-0.026465	-0.435886
O406	O	0.015365	-0.691284	-0.153405
C407	C	0.035624	-0.826870	-0.154768
C408	C	0.015149	-0.780743	-0.179724
H409	H	0.035437	-0.899211	-0.176032
H410	H	0.104798	-0.788714	-0.149199
H411	H	-0.018274	-0.826848	-0.120577
H412	H	0.068989	-0.780755	-0.213928
H413	H	-0.054052	-0.818914	-0.185257
H414	H	0.682238	-0.162236	-0.523943
O415	O	-0.723913	0.052061	-0.104902
C416	C	-0.717588	0.125289	-0.028003
C417	C	-0.673562	0.125833	-0.077998
H418	H	-0.676888	0.184917	-0.006237
H419	H	-0.789707	0.130563	-0.016187
H420	H	-0.718733	0.059936	-0.024578
H421	H	-0.672352	0.191173	-0.081461
H422	H	-0.601467	0.120511	-0.089790
O423	O	-0.446839	0.055532	-0.419489
C424	C	-0.377241	-0.024336	-0.495704
C425	C	-0.421281	-0.024886	-0.445710
H426	H	-0.356548	-0.089338	-0.516916
H427	H	-0.427613	-0.018881	-0.508626
H428	H	-0.314898	0.035659	-0.498574
H429	H	-0.483617	-0.084874	-0.442801
H430	H	-0.370850	-0.030295	-0.432810
H431	H	0.682288	-0.162154	-0.023969
O432	O	0.551044	-0.141829	-0.028229
C433	C	0.684257	-0.016314	-0.026988
C434	C	0.640211	-0.115131	-0.026155
H435	H	0.756348	0.005307	-0.025302
H436	H	0.685457	-0.009327	-0.059652
H437	H	0.643539	0.028256	0.003408
H438	H	0.680892	-0.159762	-0.056529
H439	H	0.638997	-0.122047	0.006528
H440	H	-0.805083	0.098565	0.274011
H441	H	0.003251	-0.391359	-0.619081
O442	O	-0.050588	-0.224762	-0.885623
C443	C	-0.004290	-0.091449	-0.909271
C444	C	0.016095	-0.141998	-0.886492
H445	H	0.049600	-0.024517	-0.909972
H446	H	-0.004149	-0.133938	-0.945445
H447	H	-0.073461	-0.078449	-0.889230
H448	H	0.085267	-0.155007	-0.906496
H449	H	0.015894	-0.099484	-0.850315
O450	O	-0.030738	-0.149936	-0.164122
C451	C	-0.039361	-0.017039	-0.171848
C452	C	-0.036254	-0.115779	-0.194847
H453	H	-0.043802	0.010612	-0.196681
H454	H	-0.101067	-0.013183	-0.140623
H455	H	0.024557	0.024575	-0.161218
H456	H	-0.100127	-0.157453	-0.205506
H457	H	0.025494	-0.119565	-0.226052
H458	H	-0.709407	0.080425	0.385586
O459	O	0.411281	-0.769736	-0.518482
C460	C	0.341688	-0.920282	-0.557477
C461	C	0.385727	-0.821484	-0.558346
H462	H	0.320998	-0.962144	-0.589699
H463	H	0.392058	-0.947490	-0.555431
H464	H	0.279342	-0.924337	-0.526638
H465	H	0.448066	-0.817350	-0.589182
H466	H	0.335298	-0.794319	-0.560368
H467	H	-0.740818	0.102779	0.123104
O468	O	-0.268588	0.032054	0.350232
C469	C	-0.204921	-0.075741	0.348760
C470	C	-0.255522	-0.054507	0.326421
H471	H	-0.194358	-0.145733	0.329524
H472	H	-0.136514	-0.023738	0.347829
H473	H	-0.246491	-0.073492	0.385489
H474	H	-0.214027	-0.056769	0.289684
H475	H	-0.323934	-0.106513	0.327388
H476	H	-0.580066	0.039960	-0.110823
H477	H	-0.011748	-0.757184	-0.305606
H478	H	-0.030422	-0.661858	-0.417434
O479	O	0.717250	-0.691678	-0.504529
C480	C	0.714020	-0.758086	-0.451879
C481	C	0.667843	-0.707645	-0.461840
H482	H	0.674104	-0.770994	-0.417361
H483	H	0.716419	-0.825050	-0.479233
H484	H	0.785769	-0.715494	-0.451657
H485	H	0.596075	-0.750162	-0.462054
H486	H	0.665515	-0.640674	-0.434484
O487	O	-0.752815	0.091656	-0.376328
C488	C	-0.749605	0.196741	-0.409647
C489	C	-0.703431	0.175674	-0.385010
H490	H	-0.709708	0.264678	-0.416666
H491	H	-0.751974	0.142051	-0.443085
H492	H	-0.821366	0.199114	-0.387397
H493	H	-0.631651	0.173315	-0.407224
H494	H	-0.701134	0.230369	-0.351568
O495	O	-0.004796	-0.247429	-0.615613
C496	C	-0.005360	-0.111845	-0.553248
C497	C	-0.008420	-0.157841	-0.602580
H498	H	-0.008269	-0.039400	-0.542699
H499	H	-0.065546	-0.149889	-0.529942
H500	H	0.060074	-0.112183	-0.550593
H501	H	-0.073814	-0.157514	-0.605279
H502	H	0.051811	-0.119783	-0.625863
H503	H	-0.572284	0.068372	0.387422
O504	O	0.794006	-0.379781	-0.515772
C505	C	0.893643	-0.258616	-0.475266
C506	C	0.795607	-0.304551	-0.477135
H507	H	0.894972	-0.197773	-0.444036
H508	H	0.921842	-0.308326	-0.473309
H509	H	0.936707	-0.235708	-0.507092
H510	H	0.752472	-0.327460	-0.445316
H511	H	0.767481	-0.254811	-0.479115
H512	H	-0.020209	-0.749804	-0.374113
H513	H	-0.815575	0.070280	-0.222817
H514	H	-0.015393	-0.167196	-0.666497
H515	H	0.279916	-0.749353	-0.522691
H516	H	0.771070	-0.249160	-0.519423
H517	H	-0.023718	-0.530163	-0.918978
H518	H	0.544602	-0.156012	-0.528109
H519	H	0.003321	-0.760550	-0.802778
H520	H	0.191224	-0.662427	-0.027294
