data_functionalizedCrystal
_audit_creation_method	'MofGen! by Chris Wilmer'
_symmetry_space_group_name_H-M	'P1'
_symmetry_Int_Tables_number	1
_symmetry_cell_setting	triclinic
loop_
_symmetry_equiv_pos_as_xyz
  x,y,z
_cell_length_a	10.723023
_cell_length_b	14.044190
_cell_length_c	9.198806
_cell_angle_alpha	89.991997
_cell_angle_beta	89.996191
_cell_angle_gamma	88.829662
loop_
_atom_site_label
_atom_site_type_symbol
_atom_site_fract_x
_atom_site_fract_y
_atom_site_fract_z
O1	O	1.670503	0.133036	-0.120907
O2	O	2.170503	0.633036	0.379093
O3	O	1.308625	0.145772	-0.120912
O4	O	1.808625	0.645772	0.379088
O5	O	1.484127	0.001384	-0.120881
O6	O	1.984127	0.501384	0.379119
O7	O	1.495000	0.277424	-0.120938
O8	O	1.995000	0.777424	0.379062
O9	O	1.484112	0.001384	0.120904
O10	O	1.984112	0.501384	0.620904
O11	O	1.308609	0.145771	0.120873
O12	O	1.808609	0.645771	0.620873
O13	O	1.670487	0.133036	0.120878
O14	O	2.170487	0.633036	0.620878
Cu15	Cu	1.489547	0.139404	0.142952
Cu16	Cu	1.989547	0.639404	0.642952
Cu17	Cu	1.489565	0.139404	-0.142986
Cu18	Cu	1.989565	0.639404	0.357014
O19	O	1.494985	0.277424	0.120847
O20	O	1.994985	0.777424	0.620847
C21	C	1.262025	0.144845	-0.000020
C22	C	1.762025	0.644845	0.499980
C23	C	1.123193	0.142073	-0.000021
C24	C	1.623193	0.642073	0.499979
C25	C	1.061305	0.140837	-0.125273
C26	C	1.561305	0.640837	0.374727
C27	C	0.917816	0.137971	-0.125277
C28	C	1.417816	0.637971	0.374723
C29	C	1.479363	-0.033962	0.000016
C30	C	1.979363	0.466038	0.500016
C31	C	1.465175	-0.139280	0.000028
C32	C	1.965175	0.360720	0.500028
C33	C	1.539861	-0.389081	-0.000028
C34	C	2.039861	0.110919	0.499972
C35	C	1.439257	-0.332106	-0.000019
C36	C	1.939257	0.167894	0.499981
C37	C	1.453681	-0.224808	0.000007
C38	C	1.953681	0.275192	0.500007
C39	C	1.525438	-0.496389	-0.000054
C40	C	2.025438	0.003611	0.499946
C41	C	1.717087	0.133963	-0.000017
C42	C	2.217087	0.633963	0.499983
C43	C	1.855919	0.136735	-0.000026
C44	C	2.355919	0.636735	0.499974
C45	C	1.499749	0.312769	-0.000053
C46	C	1.999749	0.812769	0.499947
C47	C	1.513937	0.418088	-0.000075
C48	C	2.013937	0.918088	0.499925
N49	N	1.489543	0.139403	0.344066
N50	N	1.989543	0.639403	0.844066
N51	N	1.489578	0.139398	-0.344100
N52	N	1.989578	0.639398	0.155900
C53	C	1.563205	0.078511	0.416277
C54	C	2.063205	0.578511	0.916277
C55	C	1.563224	0.078508	0.583689
C56	C	2.063224	0.578508	1.083689
H57	H	0.909133	0.137794	0.107213
H58	H	1.409133	0.637794	0.607213
H59	H	1.114551	0.141905	-0.232503
H60	H	1.614551	0.641905	0.267497
Cl61	Cl	0.835653	0.136323	-0.290845
Cl62	Cl	1.335653	0.636323	0.209155
H63	H	1.626252	0.026378	0.354162
H64	H	2.126252	0.526378	0.854162
H65	H	1.342294	-0.363911	-0.000029
H66	H	1.842294	0.136089	0.499971
Cl67	Cl	1.689556	-0.339978	-0.000002
Cl68	Cl	2.189556	0.160022	0.499998
H69	H	1.069947	0.141015	0.107209
H70	H	1.569947	0.641015	0.607209
Cl71	Cl	1.392186	0.219885	0.439960
Cl72	Cl	1.892186	0.719885	0.939960
H73	H	1.626294	0.026379	0.645786
H74	H	2.126294	0.526379	1.145786
Cl75	Cl	1.392209	0.219897	0.560041
Cl76	Cl	1.892209	0.719897	1.060041
