data_functionalizedCrystal
_audit_creation_method	'MofGen! by Chris Wilmer'
_symmetry_space_group_name_H-M	'P1'
_symmetry_Int_Tables_number	1
_symmetry_cell_setting	triclinic
loop_
_symmetry_equiv_pos_as_xyz
  x,y,z
_cell_length_a	27.780692
_cell_length_b	27.781107
_cell_length_c	27.780936
_cell_angle_alpha	90.003384
_cell_angle_beta	120.002600
_cell_angle_gamma	60.000171
loop_
_atom_site_label
_atom_site_type_symbol
_atom_site_fract_x
_atom_site_fract_y
_atom_site_fract_z
O1	O	-0.424555	-0.330249	-0.014310
O2	O	-0.325994	-0.260242	0.014259
O3	O	-0.424557	-0.260249	-0.084308
O4	O	-0.325992	-0.330243	0.084257
O5	O	-0.344494	-0.340305	-0.084308
O6	O	-0.245931	-0.340299	0.014260
O7	O	-0.344492	-0.410306	-0.014310
Zn8	Zn	-0.282500	-0.388013	-0.000025
Zn9	Zn	-0.387986	-0.282535	-0.000026
O10	O	-0.245929	-0.410300	0.084258
C11	C	-0.177688	-0.207635	0.029879
C12	C	-0.211481	-0.237337	0.025794
C13	C	-0.206382	-0.149704	0.030285
C14	C	-0.090521	-0.207639	0.029875
C15	C	-0.031115	-0.237345	0.025786
C16	C	-0.119347	-0.149708	0.030281
C17	C	-0.177685	-0.120471	0.029875
C18	C	-0.211474	-0.056977	0.025786
C19	C	-0.119350	-0.236740	0.030285
C20	C	-0.238774	-0.005679	0.022482
C21	C	-0.238783	-0.261333	0.022492
C22	C	0.016879	-0.261344	0.022480
C23	C	-0.273021	0.058676	0.018337
C24	C	-0.273034	-0.291436	0.018351
C25	C	0.077089	-0.291452	0.018335
C26	C	-0.492790	-0.462925	-0.029946
C27	C	-0.458999	-0.433220	-0.025856
C28	C	-0.551129	-0.433825	-0.030355
C29	C	-0.492786	-0.550093	-0.029949
C30	C	-0.458993	-0.613587	-0.025862
C31	C	-0.551126	-0.520860	-0.030357
C32	C	-0.579956	-0.462930	-0.029949
C33	C	-0.639365	-0.433229	-0.025863
C34	C	-0.464092	-0.520856	-0.030354
C35	C	-0.687360	-0.409234	-0.022561
C36	C	-0.431699	-0.409221	-0.022550
C37	C	-0.431690	-0.664884	-0.022559
C38	C	-0.747573	-0.379130	-0.018418
C39	C	-0.397451	-0.379113	-0.018404
C40	C	-0.397438	-0.729238	-0.018416
C41	C	-0.492798	-0.207640	-0.372384
C42	C	-0.459005	-0.237342	-0.402088
C43	C	-0.551138	-0.149712	-0.401487
C44	C	-0.492798	-0.207641	-0.285218
C45	C	-0.459005	-0.237343	-0.221723
C46	C	-0.551138	-0.149712	-0.314453
C47	C	-0.579967	-0.120478	-0.372384
C48	C	-0.639376	-0.056986	-0.402087
C49	C	-0.464101	-0.236742	-0.314454
C50	C	-0.687372	-0.005690	-0.426083
C51	C	-0.431704	-0.261338	-0.426085
C52	C	-0.431704	-0.261339	-0.170425
C53	C	-0.747586	0.058663	-0.456188
C54	C	-0.397453	-0.291442	-0.456191
C55	C	-0.397453	-0.291443	-0.106070
O56	O	0.234755	-0.410325	-0.014324
O57	O	0.094757	-0.340316	0.014243
O58	O	0.094752	-0.340326	-0.084323
O59	O	0.234760	-0.410316	0.084242
O60	O	0.094755	-0.260268	-0.084327
O61	O	0.094760	-0.260259	0.014240
O62	O	0.234759	-0.330267	-0.014328
Zn63	Zn	0.164760	-0.282552	-0.000044
Zn64	Zn	0.164755	-0.388032	-0.000040
O65	O	0.234764	-0.330258	0.084239
O66	O	-0.344479	0.248999	-0.014325
O67	O	-0.245919	0.080436	0.014242
O68	O	-0.344485	0.178993	-0.084325
O69	O	-0.245913	0.150442	0.084241
O70	O	-0.424545	0.178996	-0.084321
O71	O	-0.325979	0.080439	0.014245
O72	O	-0.424540	0.249002	-0.014321
Zn73	Zn	-0.387970	0.164721	-0.000037
Zn74	Zn	-0.282488	0.164717	-0.000042
O75	O	-0.325973	0.150445	0.084245
O76	O	-0.905262	0.248982	-0.494987
O77	O	-0.765255	0.080423	-0.424992
O78	O	-0.765258	0.178988	-0.424987
O79	O	-0.905258	0.150417	-0.494993
O80	O	-0.765260	0.178991	-0.505047
O81	O	-0.765257	0.080425	-0.505053
O82	O	-0.905264	0.248984	-0.575048
Zn83	Zn	-0.835261	0.164705	-0.552762
Zn84	Zn	-0.835258	0.164702	-0.447278
O85	O	-0.905260	0.150419	-0.575054
O86	O	-0.325987	-0.330248	-0.575053
O87	O	-0.424556	-0.260249	-0.505056
O88	O	-0.325991	-0.260245	-0.505051
O89	O	-0.424552	-0.330252	-0.575058
O90	O	-0.245930	-0.340300	-0.424991
O91	O	-0.344495	-0.340304	-0.424996
O92	O	-0.245926	-0.410303	-0.494993
Zn93	Zn	-0.282499	-0.388014	-0.447283
Zn94	Zn	-0.387983	-0.282538	-0.552766
O95	O	-0.344491	-0.410307	-0.494998
C96	C	-0.090517	-0.550072	0.372332
C97	C	-0.031108	-0.613564	0.402035
C98	C	-0.119346	-0.520839	0.401436
C99	C	-0.177687	-0.462909	0.285167
C100	C	-0.211479	-0.433207	0.221673
C101	C	-0.206383	-0.433808	0.314403
C102	C	-0.177686	-0.462910	0.372334
C103	C	-0.211477	-0.433209	0.402038
C104	C	-0.119347	-0.520838	0.314402
C105	C	-0.238779	-0.409213	0.426036
C106	C	0.016888	-0.664860	0.426031
C107	C	-0.238782	-0.409210	0.170375
C108	C	-0.273029	-0.379110	0.456142
C109	C	0.077102	-0.729213	0.456136
C110	C	-0.273033	-0.379106	0.106020
C111	C	-0.177705	-0.120506	-0.372403
C112	C	-0.211495	-0.057014	-0.402108
C113	C	-0.206404	-0.149741	-0.401505
C114	C	-0.090538	-0.207666	-0.285236
C115	C	-0.031128	-0.237367	-0.221741
C116	C	-0.119369	-0.236769	-0.314470
C117	C	-0.177710	-0.207669	-0.372401
C118	C	-0.211505	-0.237372	-0.402103
C119	C	-0.119364	-0.149738	-0.314472
C120	C	-0.238809	-0.261369	-0.426099
C121	C	-0.238795	-0.005718	-0.426106
C122	C	0.016869	-0.261361	-0.170443
C123	C	-0.273062	-0.291474	-0.456203
C124	C	-0.273043	0.058634	-0.456213
C125	C	0.077083	-0.291464	-0.106087
C126	C	0.507226	-0.462917	0.372317
C127	C	0.541021	-0.433215	0.402020
C128	C	0.535920	-0.520846	0.401420
C129	C	0.420053	-0.462919	0.285151
C130	C	0.360643	-0.433218	0.221656
C131	C	0.448879	-0.520847	0.314387
C132	C	0.507220	-0.550080	0.372318
C133	C	0.541009	-0.613572	0.402022
C134	C	0.448885	-0.433817	0.314386
C135	C	0.568309	-0.664868	0.426020
C136	C	0.568325	-0.409218	0.426016
C137	C	0.312647	-0.409224	0.170358
C138	C	0.602556	-0.729220	0.456126
C139	C	0.602579	-0.379113	0.456121
C140	C	0.252432	-0.379120	0.106003
C141	C	-0.579946	0.194572	-0.372389
C142	C	-0.639352	0.190481	-0.402089
C143	C	-0.551117	0.194972	-0.401493
C144	C	-0.492781	0.194586	-0.285228
C145	C	-0.458991	0.190510	-0.221735
C146	C	-0.464085	0.194986	-0.314464
C147	C	-0.492779	0.194568	-0.372393
C148	C	-0.458987	0.190473	-0.402097
C149	C	-0.551119	0.194990	-0.314460
C150	C	-0.431685	0.187163	-0.426095
C151	C	-0.687346	0.187174	-0.426083
C152	C	-0.431691	0.187216	-0.170438
C153	C	-0.397434	0.183012	-0.456201
C154	C	-0.747557	0.183026	-0.456185
C155	C	-0.397443	0.183084	-0.106085
O156	O	-0.424573	0.248956	-0.575073
O157	O	-0.326003	0.080395	-0.505077
O158	O	-0.424562	0.178954	-0.505068
O159	O	-0.326013	0.150398	-0.575082
O160	O	-0.344497	0.178956	-0.425009
O161	O	-0.245937	0.080397	-0.425019
O162	O	-0.344508	0.248959	-0.495014
Zn163	Zn	-0.282510	0.164678	-0.447305
Zn164	Zn	-0.388000	0.164675	-0.552786
O165	O	-0.245948	0.150400	-0.495023
C166	C	-0.177678	0.134868	0.372314
C167	C	-0.211470	0.138961	0.402018
C168	C	-0.119342	0.134466	0.401413
C169	C	-0.177677	0.134852	0.285148
C170	C	-0.211467	0.138928	0.221655
C171	C	-0.119340	0.134450	0.314380
C172	C	-0.090514	0.134867	0.372309
C173	C	-0.031108	0.138961	0.402008
C174	C	-0.206373	0.134450	0.314385
C175	C	0.016884	0.142269	0.426002
C176	C	-0.238771	0.142270	0.426016
C177	C	-0.238767	0.142222	0.170359
C178	C	0.077094	0.146418	0.456104
C179	C	-0.273021	0.146419	0.456123
C180	C	-0.273015	0.146354	0.106005
H181	H	-0.095214	-0.126242	0.030939
H182	H	-0.417144	-0.284333	-0.290979
H183	H	-0.417138	0.195640	-0.290991
H184	H	-0.575247	0.195648	-0.290989
O185	O	-0.262389	0.133687	0.286291
C186	C	-0.345078	0.132467	0.197052
C187	C	-0.281653	0.133346	0.228794
H188	H	-0.360663	0.132179	0.150565
H189	H	-0.388632	0.173292	0.194580
H190	H	-0.332861	0.091232	0.222535
H191	H	-0.293803	0.174553	0.203339
H192	H	-0.238117	0.092493	0.231274
O193	O	-0.090609	-0.293573	-0.286560
C194	C	-0.038470	-0.393768	-0.286368
C195	C	-0.071032	-0.329464	-0.318039
H196	H	-0.022620	-0.422806	-0.311799
H197	H	-0.076874	-0.396489	-0.283986
H198	H	0.008239	-0.409618	-0.239843
H199	H	-0.117734	-0.313573	-0.364579
H200	H	-0.032583	-0.326779	-0.320374
O201	O	0.420052	-0.377001	0.286441
C202	C	0.367963	-0.276816	0.286283
C203	C	0.400591	-0.341132	0.317983
H204	H	0.352232	-0.247800	0.311778
H205	H	0.321192	-0.260910	0.239779
H206	H	0.406357	-0.274135	0.283842
H207	H	0.362248	-0.343863	0.320467
H208	H	0.447373	-0.357010	0.364468
O209	O	-0.262399	-0.121777	0.031045
C210	C	-0.345107	-0.128306	0.032241
C211	C	-0.281683	-0.159997	0.031365
H212	H	-0.360709	-0.159198	0.032512
H213	H	-0.388654	-0.087219	-0.008578
H214	H	-0.332883	-0.115050	0.073485
H215	H	-0.293841	-0.173293	-0.009851
H216	H	-0.238155	-0.201059	0.072212
H217	H	-0.253355	-0.126266	-0.449101
O218	O	-0.090626	0.133640	0.286302
C219	C	-0.096025	0.132522	0.197032
C220	C	-0.128602	0.133422	0.228763
H221	H	-0.126723	0.132357	0.150502
H222	H	-0.041543	0.091263	0.222436
H223	H	-0.095717	0.173325	0.194656
H224	H	-0.128959	0.092647	0.231147
H225	H	-0.183066	0.174707	0.203347
H226	H	-0.095216	-0.544309	0.290932
O227	O	-0.580023	-0.548771	-0.031213
C228	C	-0.680027	-0.548967	-0.083171
C229	C	-0.647391	-0.517296	-0.082274
H230	H	-0.734494	-0.523539	-0.124455
H231	H	-0.680371	-0.551348	-0.042387
H232	H	-0.649352	-0.595492	-0.083352
H233	H	-0.678039	-0.470757	-0.082113
H234	H	-0.647036	-0.514962	-0.123055
O235	O	-0.090638	-0.293531	0.031090
C236	C	-0.096041	-0.377400	0.032197
C237	C	-0.128616	-0.313093	0.031301
H238	H	-0.126740	-0.393231	0.032355
H239	H	-0.041559	-0.406476	0.073459
H240	H	-0.095731	-0.380085	-0.008606
H241	H	-0.128974	-0.310352	0.072075
H242	H	-0.183079	-0.284046	-0.009987
O243	O	-0.579951	-0.121620	-0.458250
C244	C	-0.612889	-0.039067	-0.525842
C245	C	-0.580248	-0.070816	-0.461537
H246	H	-0.613127	0.002007	-0.528518
H247	H	-0.667395	-0.025796	-0.554888
H248	H	-0.582265	-0.069939	-0.541722
H249	H	-0.610819	-0.039977	-0.445603
H250	H	-0.525737	-0.084097	-0.432530
H251	H	-0.095238	-0.126264	-0.291003
O252	O	-0.579969	0.195723	-0.458269
C253	C	-0.670404	0.196907	-0.542165
C254	C	-0.637791	0.196040	-0.477865
H255	H	-0.717167	0.197176	-0.558033
H256	H	-0.632040	0.156087	-0.544890
H257	H	-0.686173	0.238147	-0.571190
H258	H	-0.622022	0.154827	-0.448802
H259	H	-0.676175	0.236888	-0.475187
H260	H	-0.253328	-0.386212	0.290930
H261	H	-0.095208	-0.544308	0.449038
O262	O	-0.579813	-0.377050	-0.031108
C263	C	-0.574468	-0.293153	-0.032287
C264	C	-0.541907	-0.357450	-0.031421
H265	H	-0.543844	-0.277282	-0.032553
H266	H	-0.574737	-0.290430	0.008533
H267	H	-0.628967	-0.264130	-0.073530
H268	H	-0.487396	-0.386511	0.009795
H269	H	-0.541691	-0.360126	-0.072269
O270	O	-0.090677	0.133745	0.458179
C271	C	-0.096061	0.132632	0.542058
C272	C	-0.128591	0.133446	0.477776
H273	H	-0.126693	0.132378	0.557925
H274	H	-0.095815	0.173465	0.544746
H275	H	-0.041556	0.091404	0.571107
H276	H	-0.183108	0.174647	0.448688
H277	H	-0.128784	0.092586	0.475134
H278	H	-0.575257	-0.126241	-0.290976
O279	O	-0.408114	-0.548758	-0.031172
C280	C	-0.325370	-0.542239	-0.032307
C281	C	-0.388765	-0.510569	-0.031387
H282	H	-0.309699	-0.511381	-0.032468
H283	H	-0.337572	-0.555448	-0.073576
H284	H	-0.281875	-0.583355	0.008488
H285	H	-0.432288	-0.469431	-0.072153
H286	H	-0.376507	-0.497403	0.009909
H287	H	0.424747	-0.544316	0.290914
H288	H	0.582864	-0.544313	0.449019
