data_functionalizedCrystal
_audit_creation_method	'MofGen! by Chris Wilmer'
_symmetry_space_group_name_H-M	'P1'
_symmetry_Int_Tables_number	1
_symmetry_cell_setting	triclinic
loop_
_symmetry_equiv_pos_as_xyz
  x,y,z
_cell_length_a	8.559649
_cell_length_b	8.559649
_cell_length_c	14.048226
_cell_angle_alpha	89.995035
_cell_angle_beta	89.993095
_cell_angle_gamma	69.778664
loop_
_atom_site_label
_atom_site_type_symbol
_atom_site_fract_x
_atom_site_fract_y
_atom_site_fract_z
O1	O	2.126885	-0.055032	-0.079157
O2	O	1.651400	0.028749	-0.079158
O3	O	1.931033	-0.250884	-0.079157
O4	O	1.847252	0.224601	-0.079159
O5	O	1.931005	-0.250895	0.079165
O6	O	1.651372	0.028738	0.079163
O7	O	2.126857	-0.055043	0.079164
Zn8	Zn	1.889110	-0.013154	0.104300
Zn9	Zn	1.889147	-0.013140	-0.104295
O10	O	1.847224	0.224590	0.079162
C11	C	1.591077	0.035093	0.000002
C12	C	1.411378	0.053992	0.000002
C13	C	1.937369	-0.311198	0.000002
C14	C	1.956268	-0.490898	-0.000003
C15	C	2.187180	-0.061387	0.000001
C16	C	2.366879	-0.080286	-0.000004
C17	C	1.840889	0.284904	0.000001
C18	C	1.821990	0.464604	0.000000
N19	N	1.889097	-0.013167	0.246661
N20	N	1.889175	-0.013142	-0.246655
C21	C	2.012947	-0.136947	0.296480
C22	C	2.012958	-0.136949	0.396137
C23	C	1.889124	-0.013163	0.445975
C24	C	1.765261	0.110624	0.396149
C25	C	1.765245	0.110618	0.296493
C26	C	1.765307	0.110630	0.603863
C27	C	1.765325	0.110638	0.703526
C28	C	2.013020	-0.136937	0.703508
C29	C	2.013004	-0.136943	0.603852
C30	C	1.889142	-0.013154	0.554033
H31	H	1.312000	0.183411	-0.000008
H32	H	2.085696	-0.590286	0.000005
O33	O	1.667500	-0.417001	-0.000132
C34	C	1.580456	-0.435314	-0.082140
H35	H	1.635898	-0.568575	-0.109471
H36	H	1.443663	-0.406638	-0.063700
H37	H	1.591418	-0.345541	-0.139560
H38	H	2.113793	-0.237742	0.255909
H39	H	1.466268	-0.209714	-0.000004
O40	O	2.133447	-0.257253	0.444383
C41	C	2.242731	-0.366521	0.379027
H42	H	2.236362	-0.300232	0.307982
H43	H	2.375316	-0.407058	0.407801
H44	H	2.204888	-0.480626	0.368448
O45	O	2.133376	-0.257349	0.555586
C46	C	2.242726	-0.366585	0.620924
H47	H	2.176468	-0.360301	0.691973
H48	H	2.283371	-0.499165	0.592132
H49	H	2.356759	-0.328623	0.631500
H50	H	2.113872	-0.237730	0.744076
O51	O	1.644851	0.230942	0.751792
C52	C	1.535531	0.340208	0.686454
H53	H	1.541870	0.273923	0.615416
H54	H	1.402960	0.380736	0.715264
H55	H	1.573360	0.454319	0.675847
H56	H	1.664441	0.211428	0.563304
H57	H	1.664426	0.211409	0.436732
O58	O	1.644860	0.231026	0.248243
C59	C	1.535540	0.340264	0.313598
H60	H	1.601831	0.333982	0.384627
H61	H	1.494880	0.472843	0.284796
H62	H	1.421513	0.302301	0.324218
