data_functionalizedCrystal
_audit_creation_method	'MofGen! by Chris Wilmer'
_symmetry_space_group_name_H-M	'P1'
_symmetry_Int_Tables_number	1
_symmetry_cell_setting	triclinic
loop_
_symmetry_equiv_pos_as_xyz
  x,y,z
_cell_length_a	18.101398
_cell_length_b	18.101395
_cell_length_c	16.625539
_cell_angle_alpha	89.972352
_cell_angle_beta	89.974087
_cell_angle_gamma	90.026371
loop_
_atom_site_label
_atom_site_type_symbol
_atom_site_fract_x
_atom_site_fract_y
_atom_site_fract_z
Zn1	Zn	1.132133	-0.294922	-0.456028
Zn2	Zn	1.632133	0.205078	0.043972
Zn3	Zn	1.132025	-0.418771	-0.321197
Zn4	Zn	1.632025	0.081229	0.178803
Zn5	Zn	1.008288	-0.294937	-0.321196
Zn6	Zn	1.508288	0.205063	0.178804
Zn7	Zn	1.008242	-0.418716	-0.455974
Zn8	Zn	1.508242	0.081284	0.044026
O9	O	1.070172	-0.356836	-0.388599
O10	O	1.570172	0.143164	0.111401
O11	O	1.235751	-0.311367	-0.438165
O12	O	1.735751	0.188633	0.061835
O13	O	1.115585	-0.402374	-0.208364
O14	O	1.615585	0.097626	0.291636
O15	O	1.024781	-0.191302	-0.339104
O16	O	1.524781	0.308698	0.160896
O17	O	1.235672	-0.402358	-0.339105
O18	O	1.735672	0.097642	0.160895
O19	O	1.115769	-0.191291	-0.438164
O20	O	1.615769	0.308709	0.061836
O21	O	1.024676	-0.311394	-0.208364
O22	O	1.524676	0.188606	0.291636
O23	O	0.904649	-0.311340	-0.339052
O24	O	1.404649	0.188660	0.160948
O25	O	1.024702	-0.402265	-0.568814
O26	O	1.524702	0.097735	-0.068814
O27	O	0.904615	-0.402280	-0.438072
O28	O	1.404615	0.097720	0.061928
O29	O	1.115724	-0.311314	-0.568853
O30	O	1.615724	0.188686	-0.068853
O31	O	1.115541	-0.522396	-0.339053
O32	O	1.615541	-0.022396	0.160947
O33	O	1.024598	-0.522356	-0.438073
O34	O	1.524598	-0.022356	0.061927
C35	C	0.877761	-0.356806	-0.388557
C36	C	1.377761	0.143194	0.111443
C37	C	0.795447	-0.356811	-0.388558
C38	C	1.295447	0.143189	0.111442
C39	C	0.496356	-0.356858	-0.388625
C40	C	0.996356	0.143142	0.111375
C41	C	0.527678	-0.299355	-0.326628
C42	C	1.027678	0.200645	0.173372
C43	C	0.613296	-0.299509	-0.326364
C44	C	1.113296	0.200491	0.173636
C45	C	0.644739	-0.356834	-0.388592
C46	C	1.144739	0.143166	0.111408
C47	C	0.613620	-0.434846	-0.365377
C48	C	1.113620	0.065154	0.134623
C49	C	0.527975	-0.434526	-0.364946
C50	C	1.027975	0.065474	0.135054
C51	C	0.527973	-0.337026	-0.473984
C52	C	1.027973	0.162974	0.026016
C53	C	0.613624	-0.335289	-0.473518
C54	C	1.113624	0.164711	0.026482
C55	C	0.728598	-0.356825	-0.388574
C56	C	1.228598	0.143175	0.111426
C57	C	0.412497	-0.356871	-0.388641
C58	C	0.912497	0.143129	0.111359
C59	C	1.070073	-0.549247	-0.388575
C60	C	1.570073	-0.049247	0.111425
C61	C	1.070098	-0.631561	-0.388592
C62	C	1.570098	-0.131561	0.111408
C63	C	1.070261	-0.930652	-0.388635
C64	C	1.570261	-0.430652	0.111365
C65	C	1.013175	-0.899332	-0.451091
C66	C	1.513175	-0.399332	0.048909
C67	C	1.012904	-0.813714	-0.450895
C68	C	1.512904	-0.313714	0.049105
C69	C	1.070180	-0.782270	-0.388614
C70	C	1.570180	-0.282270	0.111386
C71	C	1.049049	-0.813420	-0.303634
C72	C	1.549049	-0.313420	0.196366
C73	C	1.048681	-0.899065	-0.304008
C74	C	1.548681	-0.399065	0.195992
C75	C	1.148603	-0.899002	-0.410412
C76	C	1.648603	-0.399002	0.089588
C77	C	1.148142	-0.813351	-0.412275
C78	C	1.648142	-0.313351	0.087725
C79	C	1.070136	-0.698410	-0.388597
C80	C	1.570136	-0.198410	0.111403
C81	C	1.070303	-1.014511	-0.388646
C82	C	1.570303	-0.514511	0.111354
C83	C	1.263334	-0.356867	-0.388641
C84	C	1.763334	0.143133	0.111359
C85	C	1.345648	-0.356880	-0.388660
C86	C	1.845648	0.143120	0.111340
C87	C	1.070220	-0.356781	-0.598908
C88	C	1.570220	0.143219	-0.098908
C89	C	1.070241	-0.356758	-0.688529
C90	C	1.570241	0.143242	-0.188529
C91	C	1.070292	-0.163675	-0.388640
C92	C	1.570292	0.336325	0.111360
C93	C	1.070343	-0.081360	-0.388658
C94	C	1.570343	0.418640	0.111342
C95	C	1.070275	-0.356675	-1.016705
C96	C	1.570275	0.143325	-0.516705
C97	C	1.070263	-0.356700	-0.925396
C98	C	1.570263	0.143300	-0.425396
C99	C	1.070258	-0.356717	-0.852620
C100	C	1.570258	0.143283	-0.352620
C101	C	1.070246	-0.356741	-0.761305
C102	C	1.570246	0.143259	-0.261305
C103	C	1.070167	-0.356838	-0.179108
C104	C	1.570167	0.143162	0.320892
C105	C	1.070290	-0.356653	-0.089487
C106	C	1.570290	0.143347	0.410513
H107	H	0.507108	-0.241329	-0.341019
H108	H	1.007108	0.258671	0.158981
C109	C	1.208643	-0.784432	-0.355299
C110	C	1.708643	-0.284432	0.144701
N111	N	1.254210	-0.762652	-0.312377
N112	N	1.754210	-0.262652	0.187623
C113	C	0.971313	-0.926137	-0.279094
C114	C	1.471313	-0.426137	0.220906
N115	N	0.913037	-0.946525	-0.260331
N116	N	1.413037	-0.446525	0.239669
C117	C	1.030762	-0.785257	-0.536022
C118	C	1.530762	-0.285257	-0.036022
N119	N	1.044210	-0.763826	-0.600144
N120	N	1.544210	-0.263826	-0.100144
H121	H	1.088456	-0.919786	-0.255886
H122	H	1.588456	-0.419786	0.244114
C123	C	0.935200	-0.928478	-0.431843
C124	C	1.435200	-0.428478	0.068157
N125	N	0.876469	-0.950429	-0.417340
N126	N	1.376469	-0.450429	0.082660
H127	H	1.164078	-0.792989	-0.474816
H128	H	1.664078	-0.292989	0.025184
H129	H	1.026265	-0.919881	-0.514306
H130	H	1.526265	-0.419881	-0.014306
H131	H	0.506127	-0.312317	-0.263746
H132	H	1.006127	0.187683	0.236254
C133	C	0.934442	-0.786114	-0.431466
C134	C	1.434442	-0.286114	0.068534
N135	N	0.875337	-0.765326	-0.416852
N136	N	1.375337	-0.265326	0.083148
H137	H	1.191134	-0.919256	-0.364923
H138	H	1.691134	-0.419256	0.135077
H139	H	0.634337	-0.241660	-0.340915
H140	H	1.134337	0.258340	0.159085
C141	C	0.640929	-0.317225	-0.240916
C142	C	1.140929	0.182775	0.259084
N143	N	0.661741	-0.330571	-0.176554
N144	N	1.161741	0.169429	0.323446
H145	H	0.633986	-0.478838	-0.409119
H146	H	1.133986	0.021162	0.090881
H147	H	0.507962	-0.451344	-0.302545
H148	H	1.007962	0.048656	0.197455
H149	H	0.507254	-0.478821	-0.408133
H150	H	1.007254	0.021179	0.091867
H151	H	0.992388	-0.792030	-0.284858
H152	H	1.492388	-0.292030	0.215142
C153	C	0.642541	-0.457958	-0.281982
C154	C	1.142541	0.042042	0.218018
N155	N	0.664321	-0.475362	-0.219166
N156	N	1.164321	0.024638	0.280834
C157	C	0.498838	-0.261509	-0.502495
C158	C	0.998838	0.238491	-0.002495
N159	N	0.476896	-0.204624	-0.523960
N160	N	0.976896	0.295376	-0.023960
H161	H	0.633968	-0.277881	-0.491023
H162	H	1.133968	0.222119	0.008977
H163	H	0.635030	-0.374119	-0.522186
H164	H	1.135030	0.125881	-0.022186
C165	C	0.500605	-0.393605	-0.536391
C166	C	1.000605	0.106395	-0.036391
N167	N	0.479987	-0.436221	-0.583390
N168	N	0.979987	0.063779	-0.083390
C169	C	1.103447	-0.785901	-0.239050
C170	C	1.603447	-0.285901	0.260950
N171	N	1.144420	-0.765170	-0.190406
N172	N	1.644420	-0.265170	0.309594
C173	C	1.174627	-0.928109	-0.492704
C174	C	1.674627	-0.428109	0.007296
N175	N	1.194220	-0.950032	-0.554691
N176	N	1.694220	-0.450032	-0.054691
