data_functionalizedCrystal
_audit_creation_method	'MofGen! by Chris Wilmer'
_symmetry_space_group_name_H-M	'P1'
_symmetry_Int_Tables_number	1
_symmetry_cell_setting	triclinic
loop_
_symmetry_equiv_pos_as_xyz
  x,y,z
_cell_length_a	12.759401
_cell_length_b	21.295417
_cell_length_c	12.759393
_cell_angle_alpha	89.962952
_cell_angle_beta	89.980198
_cell_angle_gamma	90.028788
loop_
_atom_site_label
_atom_site_type_symbol
_atom_site_fract_x
_atom_site_fract_y
_atom_site_fract_z
Zn1	Zn	1.606157	-0.250594	-0.593940
Zn2	Zn	1.606002	-0.355876	-0.418240
Zn3	Zn	1.430456	-0.250623	-0.418279
Zn4	Zn	1.430401	-0.355828	-0.593881
O5	O	1.518254	-0.303230	-0.506085
O6	O	1.753157	-0.264568	-0.570642
O7	O	1.582673	-0.341947	-0.271224
O8	O	1.453850	-0.162530	-0.441622
O9	O	1.753043	-0.341918	-0.441556
O10	O	1.582937	-0.162509	-0.570680
O11	O	1.453700	-0.264618	-0.271253
O12	O	1.283427	-0.264571	-0.441564
O13	O	1.453758	-0.341836	-0.740910
O14	O	1.283388	-0.341864	-0.570578
O15	O	1.582885	-0.264521	-0.740954
O16	O	1.582621	-0.443959	-0.441499
O17	O	1.453608	-0.443924	-0.570541
C18	C	1.245287	-0.303216	-0.506070
C19	C	1.128510	-0.303225	-0.506088
C20	C	0.963971	-0.263036	-0.573414
C21	C	1.073695	-0.263023	-0.573407
C22	C	1.073595	-0.343445	-0.438779
C23	C	0.963873	-0.343460	-0.438792
C24	C	1.518120	-0.466782	-0.506032
C25	C	1.518159	-0.536750	-0.506044
C26	C	1.585336	-0.569548	-0.573293
C27	C	1.585373	-0.635291	-0.573319
C28	C	1.518244	-0.668233	-0.506078
C29	C	1.451054	-0.635426	-0.438824
C30	C	1.451011	-0.569685	-0.438808
N31	N	1.510303	-0.771501	-0.414131
N32	N	1.510350	-0.833952	-0.414150
C33	C	1.518367	-0.866307	-0.506125
N34	N	1.526356	-0.833852	-0.598083
N35	N	1.526315	-0.771394	-0.598063
C36	C	1.518282	-0.739518	-0.506088
C37	C	1.585588	-0.970391	-0.573407
C38	C	1.585617	-1.036135	-0.573435
C39	C	1.451304	-1.036269	-0.438931
C40	C	1.451268	-0.970526	-0.438913
C41	C	1.518416	-0.937591	-0.506149
C42	C	1.792287	-0.303245	-0.506101
C43	C	1.909064	-0.303252	-0.506108
C44	C	1.518333	-0.303170	-0.780119
C45	C	1.518366	-0.303144	-0.896895
C46	C	1.518417	-0.139040	-0.506162
C47	C	1.518486	-0.069072	-0.506194
C48	C	1.585607	-0.262880	-0.951782
C49	C	1.585625	-0.262853	-1.061506
C50	C	1.451157	-0.343359	-1.061448
C51	C	1.451135	-0.343383	-0.951726
C52	C	1.518236	-0.303245	-0.233118
C53	C	1.518406	-0.303093	-0.116342
H54	H	0.919348	-0.230295	-0.628227
O55	O	1.378654	-0.386762	-1.120590
H56	H	1.296205	-0.375958	-1.099529
O57	O	1.132920	-0.219641	-0.645990
H58	H	1.076370	-0.191681	-0.692790
O59	O	1.132709	-0.386804	-0.366161
H60	H	1.218231	-0.380031	-0.377448
O61	O	1.657839	-0.670679	-0.645845
H62	H	1.704528	-0.636732	-0.692589
H63	H	0.919167	-0.376213	-0.383983
O64	O	1.378577	-0.386794	-0.892514
H65	H	1.331831	-0.414771	-0.949072
H66	H	1.640260	-0.943574	-0.628159
O67	O	1.657774	-0.534024	-0.645790
H68	H	1.704497	-0.567880	-0.692554
H69	H	1.640378	-0.230065	-1.106190
H70	H	1.396395	-0.662251	-0.384079
H71	H	1.396306	-0.542980	-0.384045
H72	H	1.640321	-1.062838	-0.628201
H73	H	1.396639	-1.063089	-0.384189
O74	O	1.378833	-0.935144	-0.366361
H75	H	1.332168	-0.969093	-0.319597
H76	H	1.640348	-0.230113	-0.907142
