data_functionalizedCrystal
_audit_creation_method	'MofGen! by Chris Wilmer'
_symmetry_space_group_name_H-M	'P1'
_symmetry_Int_Tables_number	1
_symmetry_cell_setting	triclinic
loop_
_symmetry_equiv_pos_as_xyz
  x,y,z
_cell_length_a	10.489741
_cell_length_b	10.489746
_cell_length_c	16.176319
_cell_angle_alpha	89.995532
_cell_angle_beta	90.003219
_cell_angle_gamma	95.459763
loop_
_atom_site_label
_atom_site_type_symbol
_atom_site_fract_x
_atom_site_fract_y
_atom_site_fract_z
O1	O	-0.180003	1.694055	-0.068684
O2	O	-0.196889	1.322860	-0.068697
O3	O	-0.002848	1.516904	-0.068692
O4	O	-0.374043	1.500011	-0.068689
O5	O	-0.002835	1.516877	0.068801
O6	O	-0.196876	1.322833	0.068796
O7	O	-0.179990	1.694028	0.068809
Cu8	Cu	-0.188432	1.508428	0.081357
Cu9	Cu	-0.188447	1.508460	-0.081245
O10	O	-0.374031	1.499984	0.068804
C11	C	-0.195606	1.275315	0.000048
C12	C	-0.191786	1.133686	0.000043
C13	C	-0.066062	0.980828	0.000053
C14	C	-0.128913	1.058209	0.067843
C15	C	-0.128955	1.058191	-0.067715
C16	C	-0.247894	0.958717	0.067908
C17	C	-0.247919	0.958694	-0.067710
C18	C	-0.310856	1.036025	0.000096
C19	C	-0.421569	1.501273	0.000058
C20	C	-0.563198	1.505091	0.000060
C21	C	-0.631341	1.628555	0.000058
C22	C	-0.723454	1.570218	0.067846
C23	C	-0.723445	1.570216	-0.067711
C24	C	-0.653446	1.446703	0.067904
C25	C	-0.653427	1.446718	-0.067714
C26	C	-0.745513	1.388291	0.000091
C27	C	0.044690	1.515614	0.000052
C28	C	0.186320	1.511797	0.000045
C29	C	-0.181273	1.741573	0.000063
C30	C	-0.185093	1.883202	0.000063
N31	N	-0.188421	1.508415	0.195722
N32	N	-0.188448	1.508483	-0.195610
C33	C	-0.102535	1.594364	0.238989
C34	C	-0.102534	1.594370	0.325536
C35	C	-0.188425	1.508433	0.368815
C36	C	-0.274315	1.422475	0.325542
C37	C	-0.274309	1.422463	0.238997
C38	C	-0.274339	1.422518	0.674571
C39	C	-0.274341	1.422539	0.761122
C40	C	-0.102564	1.594426	0.761109
C41	C	-0.102558	1.594414	0.674564
C42	C	-0.188442	1.508452	0.631299
C43	C	-0.188441	1.508444	0.537455
C44	C	-0.188434	1.508446	0.462657
H45	H	-0.414436	1.060501	0.000134
C46	C	-0.564258	1.765688	0.000156
N47	N	-0.513728	1.868974	0.000234
H48	H	-0.344244	1.352473	0.203770
H49	H	-0.032628	1.664417	0.796345
H50	H	-0.754459	1.622447	0.125161
C51	C	-0.368824	1.327989	0.808728
N52	N	-0.439985	1.256776	0.844584
C53	C	-0.061022	1.116934	0.145267
N54	N	-0.009880	1.161163	0.203580
C55	C	-0.315743	0.899931	-0.145140
N56	N	-0.366817	0.855667	-0.203466
H57	H	-0.344245	1.352496	0.360785
C58	C	-0.812298	1.251037	0.000140
N59	N	-0.862607	1.147660	0.000183
H60	H	-0.344271	1.352527	0.639351
H61	H	-0.078689	1.101645	-0.125027
C62	C	0.073759	0.947419	0.000146
N63	N	0.179069	0.922250	0.000220
H64	H	-0.298103	0.915426	0.125285
H65	H	-0.622607	1.394493	0.125278
H66	H	-0.622390	1.394532	-0.125031
H67	H	-0.754434	1.622490	-0.125019
H68	H	-0.032598	1.664349	0.203756
C69	C	-0.008022	1.688890	0.373125
N70	N	0.063181	1.760075	0.408968
C71	C	-0.008068	1.688949	0.626962
N72	N	0.063108	1.760150	0.591109
