data_functionalizedCrystal
_audit_creation_method	'MofGen! by Chris Wilmer'
_symmetry_space_group_name_H-M	'P1'
_symmetry_Int_Tables_number	1
_symmetry_cell_setting	triclinic
loop_
_symmetry_equiv_pos_as_xyz
  x,y,z
_cell_length_a	10.489746
_cell_length_b	10.540539
_cell_length_c	9.565339
_cell_angle_alpha	89.998218
_cell_angle_beta	89.999320
_cell_angle_gamma	95.466604
loop_
_atom_site_label
_atom_site_type_symbol
_atom_site_fract_x
_atom_site_fract_y
_atom_site_fract_z
O1	O	0.179754	-1.685912	0.116195
O2	O	0.196691	-1.316501	0.116213
O3	O	0.002624	-1.509609	0.116193
O4	O	0.373821	-1.492804	0.116215
O5	O	0.002639	-1.509592	-0.116327
O6	O	0.196706	-1.316485	-0.116307
O7	O	0.179769	-1.685895	-0.116325
Zn8	Zn	0.188240	-1.501187	-0.153234
Zn9	Zn	0.188220	-1.501209	0.153122
O10	O	0.373836	-1.492788	-0.116305
C11	C	0.195428	-1.269190	-0.000045
C12	C	0.191628	-1.128241	-0.000039
N13	N	0.188252	-1.501182	-0.362313
C14	C	-0.044900	-1.508330	-0.000067
C15	C	-0.186529	-1.504529	-0.000065
C16	C	-0.339371	-1.379410	-0.000042
C17	C	-0.261994	-1.441972	0.114597
C18	C	-0.262020	-1.441985	-0.114650
C19	C	-0.361500	-1.560382	0.114699
C20	C	-0.361532	-1.560377	-0.114650
C21	C	-0.284204	-1.623027	0.000016
C22	C	0.421360	-1.494067	-0.000043
C23	C	0.562988	-1.497868	-0.000034
C24	C	0.181031	-1.733207	-0.000064
C25	C	0.184832	-1.874155	-0.000061
C26	C	0.046011	-0.944794	-0.000590
C27	C	0.049863	-1.091413	-0.000052
C28	C	0.259843	-1.066587	0.132740
C29	C	0.255004	-0.920042	0.132837
C30	C	0.257906	-0.919535	-0.131582
C31	C	0.259211	-1.066518	-0.133322
C32	C	0.278702	-1.412619	-0.546677
C33	C	0.163561	-1.385891	-0.453456
C34	C	0.303383	-1.527854	-0.453465
C35	C	0.072998	-1.474438	-0.546630
C36	C	0.212896	-1.616453	-0.546647
C37	C	0.097672	-1.589771	-0.453468
N38	N	0.188197	-1.501225	0.362201
H39	H	-0.218519	-1.391972	0.211522
C40	C	-0.005795	-1.690971	-0.398514
H41	H	-0.087512	-1.671827	-0.430587
H42	H	0.011035	-1.772619	-0.431833
H43	H	-0.004756	-1.690876	-0.299203
H44	H	-0.009988	-0.916194	-0.095814
H45	H	-0.259741	-1.726109	0.000074
H46	H	0.233810	-1.713885	-0.587615
C47	C	0.135356	-1.254236	-0.398137
H48	H	0.059401	-1.262943	-0.343486
H49	H	0.204945	-1.219624	-0.342117
H50	H	0.124305	-1.198922	-0.474696
H51	H	-0.024411	-1.451783	-0.587383
C52	C	-0.022645	-1.148969	-0.128630
H53	H	-0.054732	-1.082747	-0.181661
H54	H	0.033970	-1.192371	-0.184794
H55	H	-0.091929	-1.207279	-0.098755
C56	C	0.434937	-1.558315	-0.398171
H57	H	0.424858	-1.633856	-0.343504
H58	H	0.490211	-1.570303	-0.474728
H59	H	0.470892	-1.489568	-0.342144
H60	H	0.204575	-0.891832	0.232085
H61	H	-0.364078	-1.276405	0.000077
C62	C	0.392726	-0.855247	0.140999
H63	H	0.390705	-0.765329	0.141104
H64	H	0.432252	-0.880766	0.224429
H65	H	0.440179	-0.879662	0.062480
C66	C	-0.419973	-1.627890	0.245784
H67	H	-0.510220	-1.625028	0.245021
H68	H	-0.400755	-1.714155	0.246113
H69	H	-0.385033	-1.586108	0.327096
H70	H	-0.405030	-1.610333	-0.211580
C71	C	-0.203313	-1.374405	-0.245583
H72	H	-0.160644	-1.433094	-0.299579
H73	H	-0.269311	-1.343033	-0.299918
H74	H	-0.143745	-1.305396	-0.218014
C75	C	-0.029345	-0.903985	0.127312
H76	H	0.023429	-0.844088	0.181037
H77	H	-0.103107	-0.866100	0.096771
H78	H	-0.054823	-0.976595	0.183056
C79	C	-0.023158	-1.147814	0.128752
H80	H	-0.055284	-1.081103	0.180959
H81	H	-0.092423	-1.206260	0.099147
H82	H	0.033201	-1.190858	0.185635
H83	H	0.363951	-1.088955	0.137687
H84	H	0.212444	-1.109176	0.231552
C85	C	0.195941	-0.876905	-0.267546
H86	H	0.124915	-0.831029	-0.245369
H87	H	0.257008	-0.823685	-0.319382
H88	H	0.167642	-0.949709	-0.321755
H89	H	0.362568	-1.090757	-0.141333
C90	C	0.396232	-0.855763	-0.132788
H91	H	0.409439	-0.801736	-0.053578
H92	H	0.454424	-0.919467	-0.129862
H93	H	0.410159	-0.806719	-0.215658
H94	H	0.209378	-1.107466	-0.231552
H95	H	0.355127	-1.337655	-0.587603
