data_functionalizedCrystal
_audit_creation_method	'MofGen! by Chris Wilmer'
_symmetry_space_group_name_H-M	'P1'
_symmetry_Int_Tables_number	1
_symmetry_cell_setting	triclinic
loop_
_symmetry_equiv_pos_as_xyz
  x,y,z
_cell_length_a	19.805407
_cell_length_b	21.295417
_cell_length_c	19.805398
_cell_angle_alpha	89.968132
_cell_angle_beta	89.986879
_cell_angle_gamma	90.030507
loop_
_atom_site_label
_atom_site_type_symbol
_atom_site_fract_x
_atom_site_fract_y
_atom_site_fract_z
Zn1	Zn	1.034673	-0.250617	-0.382704
Zn2	Zn	1.368007	0.082716	-0.049371
Zn3	Zn	1.701340	0.416049	0.283962
Zn4	Zn	1.034593	-0.355888	-0.269510
Zn5	Zn	1.367926	-0.022555	0.063824
Zn6	Zn	1.701259	0.310779	0.397157
Zn7	Zn	0.921501	-0.250637	-0.269529
Zn8	Zn	1.254834	0.082697	0.063804
Zn9	Zn	1.588167	0.416030	0.397138
Zn10	Zn	0.921443	-0.355853	-0.382656
Zn11	Zn	1.254777	-0.022519	-0.049323
Zn12	Zn	1.588110	0.310814	0.284010
O13	O	0.978053	-0.303249	-0.326100
O14	O	1.311386	0.030085	0.007234
O15	O	1.644719	0.363418	0.340567
O16	O	1.129379	-0.264589	-0.367701
O17	O	1.462713	0.068745	-0.034367
O18	O	1.796046	0.402078	0.298966
O19	O	1.019581	-0.341949	-0.174796
O20	O	1.352915	-0.008616	0.158538
O21	O	1.686248	0.324718	0.491871
O22	O	0.936571	-0.162545	-0.284570
O23	O	1.269904	0.170789	0.048763
O24	O	1.603238	0.504122	0.382097
O25	O	1.129320	-0.341930	-0.284537
O26	O	1.462653	-0.008597	0.048796
O27	O	1.795987	0.324736	0.382130
O28	O	1.019718	-0.162531	-0.367719
O29	O	1.353052	0.170803	-0.034386
O30	O	1.686385	0.504136	0.298947
O31	O	0.936493	-0.264621	-0.174810
O32	O	1.269826	0.068712	0.158524
O33	O	1.603160	0.402045	0.491857
O34	O	0.826777	-0.264587	-0.284523
O35	O	1.160110	0.068746	0.048810
O36	O	1.493443	0.402080	0.382143
O37	O	0.936473	-0.341870	-0.477379
O38	O	1.269807	-0.008537	-0.144046
O39	O	1.603140	0.324796	0.189287
O40	O	0.826734	-0.341889	-0.367638
O41	O	1.160068	-0.008556	-0.034304
O42	O	1.493401	0.324778	0.299029
O43	O	1.019663	-0.264554	-0.477415
O44	O	1.352996	0.068779	-0.144081
O45	O	1.686329	0.402112	0.189252
O46	O	1.019526	-0.443973	-0.284491
O47	O	1.352859	-0.110639	0.048843
O48	O	1.686192	0.222694	0.382176
O49	O	0.936395	-0.443947	-0.367619
O50	O	1.269729	-0.110613	-0.034286
O51	O	1.603062	0.222720	0.299048
C52	C	0.802197	-0.303237	-0.326078
C53	C	1.135530	0.030097	0.007255
C54	C	1.468863	0.363430	0.340589
C55	C	0.726965	-0.303247	-0.326085
C56	C	1.060298	0.030087	0.007249
C57	C	1.393631	0.363420	0.340582
C58	C	0.691616	-0.343558	-0.369292
C59	C	1.024950	-0.010225	-0.035959
C60	C	1.358283	0.323108	0.297375
C61	C	0.620928	-0.343559	-0.369302
C62	C	0.954261	-0.010226	-0.035968
C63	C	1.287594	0.323107	0.297365
C64	C	0.585589	-0.303252	-0.326100
C65	C	0.918922	0.030082	0.007234
C66	C	1.252256	0.363415	0.340567
C67	C	0.620942	-0.262936	-0.282890
C68	C	0.954276	0.070398	0.050443
C69	C	1.287609	0.403731	0.383776
C70	C	0.691629	-0.262932	-0.282885
C71	C	1.024963	0.070402	0.050449
C72	C	1.358296	0.403735	0.383782
C73	C	0.335869	-0.262949	-0.282913
C74	C	0.669202	0.070384	0.050421
C75	C	1.002536	0.403717	0.383754
C76	C	0.265177	-0.262958	-0.282920
C77	C	0.598510	0.070376	0.050413
C78	C	0.931844	0.403709	0.383746
C79	C	0.265167	-0.343577	-0.369330
C80	C	0.598501	-0.010244	-0.035996
C81	C	0.931834	0.323090	0.297337
C82	C	0.335854	-0.343573	-0.369324
C83	C	0.669188	-0.010240	-0.035991
C84	C	1.002521	0.323093	0.297343
C85	C	0.371202	-0.303255	-0.326117
C86	C	0.704535	0.030078	0.007216
C87	C	1.037868	0.363411	0.340549
C88	C	0.447850	-0.303254	-0.326109
C89	C	0.781183	0.030080	0.007225
C90	C	1.114517	0.363413	0.340558
C91	C	0.508942	-0.303256	-0.326105
C92	C	0.842275	0.030077	0.007229
C93	C	1.175608	0.363411	0.340562
C94	C	0.977964	-0.466800	-0.326062
C95	C	1.311297	-0.133467	0.007271
C96	C	1.644630	0.199866	0.340604
C97	C	0.977988	-0.536768	-0.326069
C98	C	1.311321	-0.203435	0.007264
C99	C	1.644654	0.129898	0.340598
C100	C	1.021312	-0.569628	-0.282828
C101	C	1.354646	-0.236294	0.050505
C102	C	1.687979	0.097039	0.383838
C103	C	1.021344	-0.635370	-0.282844
C104	C	1.354677	-0.302037	0.050490
C105	C	1.688011	0.031296	0.383823
C106	C	0.978039	-0.668251	-0.326092
C107	C	1.311372	-0.334918	0.007241
C108	C	1.644706	-0.001584	0.340574
C109	C	0.934712	-0.635384	-0.369341
C110	C	1.268045	-0.302050	-0.036008
C111	C	1.601378	0.031283	0.297325
C112	C	0.934686	-0.569643	-0.369330
C113	C	1.268019	-0.236309	-0.035996
C114	C	1.601353	0.097024	0.297337
N115	N	0.918828	-0.771517	-0.331245
N116	N	1.252161	-0.438183	0.002089
N117	N	1.585495	-0.104850	0.335422
N118	N	0.918854	-0.833968	-0.331252
N119	N	1.252188	-0.500635	0.002081
N120	N	1.585521	-0.167301	0.335415
C121	C	0.978115	-0.866326	-0.326131
C122	C	1.311448	-0.532992	0.007202
C123	C	1.644782	-0.199659	0.340536
N124	N	1.037349	-0.833872	-0.320989
N125	N	1.370683	-0.500539	0.012344
N126	N	1.704016	-0.167206	0.345677
N127	N	1.037322	-0.771415	-0.320979
N128	N	1.370656	-0.438082	0.012354
N129	N	1.703989	-0.104749	0.345688
C130	C	0.978062	-0.739536	-0.326110
C131	C	1.311396	-0.406203	0.007223
C132	C	1.644729	-0.072870	0.340557
C133	C	1.021477	-0.970470	-0.282905
C134	C	1.354811	-0.637137	0.050429
C135	C	1.688144	-0.303804	0.383762
C136	C	1.021510	-1.036214	-0.282925
C137	C	1.354844	-0.702881	0.050409
C138	C	1.688177	-0.369547	0.383742
C139	C	0.934872	-1.036226	-0.369419
C140	C	1.268205	-0.702893	-0.036085
C141	C	1.601539	-0.369560	0.297248
C142	C	0.934845	-0.970484	-0.369402
C143	C	1.268178	-0.637151	-0.036069
C144	C	1.601512	-0.303817	0.297264
C145	C	0.978147	-0.937610	-0.326142
C146	C	1.311480	-0.604277	0.007192
C147	C	1.644814	-0.270943	0.340525
C148	C	1.154595	-0.303261	-0.326122
C149	C	1.487929	0.030072	0.007211
C150	C	1.821262	0.363405	0.340545
C151	C	1.229827	-0.303267	-0.326132
C152	C	1.563161	0.030067	0.007202
C153	C	1.896494	0.363400	0.340535
C154	C	0.978071	-0.303206	-0.502643
C155	C	1.311404	0.030127	-0.169309
C156	C	1.644737	0.363461	0.164024
C157	C	0.978078	-0.303188	-0.577875
C158	C	1.311412	0.030145	-0.244541
C159	C	1.644745	0.363479	0.088792
C160	C	0.978160	-0.139058	-0.326152
C161	C	1.311493	0.194275	0.007181
C162	C	1.644827	0.527608	0.340514
C163	C	0.978206	-0.069090	-0.326175
C164	C	1.311539	0.264243	0.007159
C165	C	1.644873	0.597576	0.340492
C166	C	1.021449	-0.343352	-1.039656
C167	C	1.354782	-0.010019	-0.706323
C168	C	1.688116	0.323314	-0.372989
C169	C	1.021430	-0.343370	-0.968968
C170	C	1.354764	-0.010036	-0.635634
C171	C	1.688097	0.323297	-0.302301
C172	C	0.978162	-0.303117	-0.933637
C173	C	1.311496	0.030216	-0.600303
C174	C	1.644829	0.363550	-0.266970
C175	C	0.934905	-0.262849	-0.968998
C176	C	1.268239	0.070484	-0.635664
C177	C	1.601572	0.403817	-0.302331
C178	C	0.934921	-0.262836	-1.039685
C179	C	1.268255	0.070497	-0.706352
C180	C	1.601588	0.403831	-0.373018
C181	C	0.934840	-0.262903	-0.683924
C182	C	1.268173	0.070430	-0.350591
C183	C	1.601507	0.403763	-0.017258
C184	C	0.934829	-0.262918	-0.613232
C185	C	1.268162	0.070415	-0.279899
C186	C	1.601496	0.403748	0.053435
C187	C	1.021349	-0.343437	-0.613207
C188	C	1.354683	-0.010104	-0.279874
C189	C	1.688016	0.323230	0.053460
C190	C	1.021365	-0.343423	-0.683894
C191	C	1.354698	-0.010090	-0.350561
C192	C	1.688032	0.323243	-0.017227
C193	C	0.978106	-0.303158	-0.719249
C194	C	1.311439	0.030175	-0.385916
C195	C	1.644773	0.363508	-0.052582
C196	C	0.978126	-0.303141	-0.795898
C197	C	1.311459	0.030192	-0.462564
C198	C	1.644792	0.363525	-0.129231
C199	C	0.978145	-0.303131	-0.856989
C200	C	1.311479	0.030203	-0.523656
C201	C	1.644812	0.363536	-0.190323
C202	C	0.978073	-0.303246	-0.150244
C203	C	1.311407	0.030088	0.183090
C204	C	1.644740	0.363421	0.516423
C205	C	0.978197	-0.303087	-0.075012
C206	C	1.311530	0.030247	0.258321
C207	C	1.644864	0.363580	0.591654
H208	H	0.592164	-0.230113	-0.247718
H209	H	0.925497	0.103220	0.085616
H210	H	1.258830	0.436553	0.418949
H211	H	1.056626	-0.662129	-0.247632
H212	H	1.389960	-0.328796	0.085701
H213	H	1.723293	0.004537	0.419035
Br214	Br	0.876107	-1.080843	-0.428122
Br215	Br	1.209440	-0.747510	-0.094788
Br216	Br	1.542773	-0.414176	0.238545
Br217	Br	0.876043	-0.925886	-0.428088
Br218	Br	1.209376	-0.592553	-0.094755
Br219	Br	1.542709	-0.259219	0.238579
H220	H	1.056739	-0.943703	-0.247681
H221	H	1.390072	-0.610370	0.085652
H222	H	1.723405	-0.277037	0.418986
H223	H	0.720409	-0.230103	-0.247704
H224	H	1.053743	0.103231	0.085629
H225	H	1.387076	0.436564	0.418962
Br226	Br	0.876096	-0.208291	-0.731897
Br227	Br	1.209429	0.125043	-0.398564
Br228	Br	1.542762	0.458376	-0.065230
Br229	Br	0.876222	-0.208185	-1.087669
Br230	Br	1.209555	0.125148	-0.754336
Br231	Br	1.542888	0.458482	-0.421003
H232	H	1.056794	-1.062967	-0.247714
H233	H	1.390128	-0.729634	0.085619
H234	H	1.723461	-0.396300	0.418952
Br235	Br	0.383831	-0.208228	-0.224279
Br236	Br	0.717165	0.125105	0.109054
Br237	Br	1.050498	0.458438	0.442388
Br238	Br	0.383811	-0.398282	-0.427953
Br239	Br	0.717144	-0.064949	-0.094620
Br240	Br	1.050478	0.268384	0.238714
Br241	Br	1.080088	-0.525016	-0.224127
Br242	Br	1.413421	-0.191682	0.109206
Br243	Br	1.746755	0.141651	0.442540
H244	H	1.056571	-0.376225	-0.584412
H245	H	1.389904	-0.042891	-0.251079
H246	H	1.723238	0.290442	0.082254
H247	H	0.899593	-0.230138	-0.584467
H248	H	1.232926	0.103195	-0.251134
H249	H	1.566259	0.436529	0.082199
H250	H	0.720384	-0.376384	-0.404470
H251	H	1.053717	-0.043050	-0.071137
H252	H	1.387051	0.290283	0.262197
Br253	Br	0.572957	-0.398269	-0.427945
Br254	Br	0.906291	-0.064936	-0.094611
Br255	Br	1.239624	0.268398	0.238722
Br256	Br	0.875946	-0.680006	-0.428042
Br257	Br	1.209279	-0.346672	-0.094709
Br258	Br	1.542612	-0.013339	0.238625
H259	H	0.899673	-0.230078	-0.940225
H260	H	1.233006	0.103255	-0.606892
H261	H	1.566339	0.436589	-0.273559
Br262	Br	0.217193	-0.398297	-0.427967
Br263	Br	0.550526	-0.064964	-0.094634
Br264	Br	0.883859	0.268370	0.238699
H265	H	0.236406	-0.230130	-0.247740
H266	H	0.569739	0.103203	0.085593
H267	H	0.903073	0.436536	0.418927
H268	H	0.899405	-0.542888	-0.404542
H269	H	1.232739	-0.209555	-0.071209
H270	H	1.566072	0.123779	0.262125
H271	H	1.056686	-0.376128	-1.068418
H272	H	1.390020	-0.042795	-0.735084
H273	H	1.723353	0.290539	-0.401751
H274	H	1.056642	-0.376166	-0.940184
H275	H	1.389976	-0.042832	-0.606850
H276	H	1.723309	0.290501	-0.273517
H277	H	1.056601	-0.376199	-0.712657
H278	H	1.389934	-0.042866	-0.379324
H279	H	1.723267	0.290468	-0.045990
