data_functionalizedCrystal
_audit_creation_method	'MofGen! by Chris Wilmer'
_symmetry_space_group_name_H-M	'P1'
_symmetry_Int_Tables_number	1
_symmetry_cell_setting	triclinic
loop_
_symmetry_equiv_pos_as_xyz
  x,y,z
_cell_length_a	16.625539
_cell_length_b	12.759401
_cell_length_c	12.759399
_cell_angle_alpha	90.015938
_cell_angle_beta	90.026183
_cell_angle_gamma	90.020340
loop_
_atom_site_label
_atom_site_type_symbol
_atom_site_fract_x
_atom_site_fract_y
_atom_site_fract_z
Zn1	Zn	-0.455916	-1.606241	0.418241
Zn2	Zn	0.044084	-1.106241	0.918241
Zn3	Zn	-0.321089	-1.606137	0.593942
Zn4	Zn	0.178911	-1.106137	1.093942
Zn5	Zn	-0.321097	-1.430546	0.418281
Zn6	Zn	0.178903	-0.930546	0.918281
Zn7	Zn	-0.455879	-1.430530	0.593881
Zn8	Zn	0.044121	-0.930530	1.093881
O9	O	-0.388495	-1.518364	0.506086
O10	O	0.111505	-1.018364	1.006086
O11	O	-0.438043	-1.753248	0.441558
O12	O	0.061957	-1.253248	0.941558
O13	O	-0.208257	-1.582808	0.570683
O14	O	0.291743	-1.082808	1.070683
O15	O	-0.339001	-1.453903	0.271254
O16	O	0.160999	-0.953903	0.771254
O17	O	-0.338986	-1.753172	0.570644
O18	O	0.161014	-1.253172	1.070644
O19	O	-0.438052	-1.582985	0.271226
O20	O	0.061948	-1.082985	0.771226
O21	O	-0.208264	-1.453802	0.441625
O22	O	0.291736	-0.953802	0.941625
O23	O	-0.338965	-1.283523	0.441565
O24	O	0.161035	-0.783523	0.941565
O25	O	-0.568716	-1.453875	0.570540
O26	O	-0.068716	-0.953875	1.070540
O27	O	-0.437988	-1.283511	0.570578
O28	O	0.062012	-0.783511	1.070578
O29	O	-0.568744	-1.582969	0.441498
O30	O	-0.068744	-1.082969	0.941498
O31	O	-0.338949	-1.582793	0.740955
O32	O	0.161051	-1.082793	1.240955
O33	O	-0.437979	-1.453775	0.740911
O34	O	0.062021	-0.953775	1.240911
C35	C	-0.388474	-1.245396	0.506070
C36	C	0.111526	-0.745396	1.006070
C37	C	-0.388483	-1.128620	0.506089
C38	C	0.111517	-0.628620	1.006089
C39	C	-0.439963	-1.073779	0.573367
C40	C	0.060037	-0.573779	1.073367
C41	C	-0.439976	-0.964055	0.573370
C42	C	0.060024	-0.464055	1.073370
C43	C	-0.337025	-0.964022	0.438812
C44	C	0.162975	-0.464022	0.938812
C45	C	-0.337016	-1.073744	0.438805
C46	C	0.162984	-0.573744	0.938805
C47	C	-0.598804	-1.518432	0.506008
C48	C	-0.098804	-1.018432	1.006008
C49	C	-0.688425	-1.518461	0.505975
C50	C	-0.188425	-1.018461	1.005975
C51	C	-1.016601	-1.518510	0.505857
C52	C	-0.516601	-1.018510	1.005857
C53	C	-0.925293	-1.518493	0.505893
C54	C	-0.425293	-1.018493	1.005893
C55	C	-0.852516	-1.518486	0.505917
C56	C	-0.352516	-1.018486	1.005917
C57	C	-0.761202	-1.518468	0.505951
C58	C	-0.261202	-1.018468	1.005951
C59	C	-0.179004	-1.518356	0.506089
C60	C	0.320996	-1.018356	1.006089
C61	C	-0.089384	-1.518531	0.505826
C62	C	0.410616	-1.018531	1.005826
C63	C	-0.388477	-1.518299	0.779054
C64	C	0.111523	-1.018299	1.279054
C65	C	-0.388496	-1.518368	0.895830
C66	C	0.111504	-1.018368	1.395830
C67	C	-0.388512	-0.792397	0.506100
C68	C	0.111488	-0.292397	1.006100
C69	C	-0.388506	-0.909174	0.506098
C70	C	0.111494	-0.409174	1.006098
C71	C	-0.388531	-1.518457	0.232053
C72	C	0.111469	-1.018457	0.732053
C73	C	-0.388547	-1.518497	0.115276
C74	C	0.111453	-1.018497	0.615276
C75	C	-0.336990	-1.585624	0.950681
C76	C	0.163010	-1.085624	1.450681
C77	C	-0.337017	-1.585692	1.060405
C78	C	0.162983	-1.085692	1.560405
C79	C	-0.440059	-1.451238	1.060418
C80	C	0.059941	-0.951238	1.560418
C81	C	-0.440035	-1.451176	0.950696
C82	C	0.059965	-0.951176	1.450696
H83	H	-0.481873	-1.118456	0.628151
H84	H	0.018127	-0.618456	1.128151
H85	H	-0.481897	-0.919409	0.628154
H86	H	0.018103	-0.419409	1.128154
C87	C	-0.280300	-1.659543	0.890332
C88	C	0.219700	-1.159543	1.390332
N89	N	-0.237601	-1.715223	0.844881
N90	N	0.262399	-1.215223	1.344881
H91	H	-0.295120	-0.919329	0.384034
H92	H	0.204880	-0.419329	0.884034
C93	C	-0.280381	-1.134072	0.364790
C94	C	0.219619	-0.634072	0.864790
N95	N	-0.237727	-1.179511	0.309042
N96	N	0.262273	-0.679511	0.809042
C97	C	-0.280352	-1.659675	1.120735
C98	C	0.219648	-1.159675	1.620735
N99	N	-0.237670	-1.715401	1.166176
N100	N	0.262330	-1.215401	1.666176
C101	C	-0.496740	-1.377319	1.120781
C102	C	0.003260	-0.877319	1.620781
N103	N	-0.539429	-1.321637	1.166245
N104	N	-0.039429	-0.821637	1.666245
H105	H	-0.481982	-1.396408	0.906034
H106	H	0.018018	-0.896408	1.406034
