data_functionalizedCrystal
_audit_creation_method	'MofGen! by Chris Wilmer'
_symmetry_space_group_name_H-M	'P1'
_symmetry_Int_Tables_number	1
_symmetry_cell_setting	triclinic
loop_
_symmetry_equiv_pos_as_xyz
  x,y,z
_cell_length_a	6.817900
_cell_length_b	16.417825
_cell_length_c	11.102228
_cell_angle_alpha	93.887652
_cell_angle_beta	108.604565
_cell_angle_gamma	103.385495
loop_
_atom_site_label
_atom_site_type_symbol
_atom_site_fract_x
_atom_site_fract_y
_atom_site_fract_z
V1	V	-4.084993	-0.115887	-0.396702
O2	O	-4.071824	0.005567	-0.388692
O3	O	-4.035703	-0.229783	-0.394429
O4	O	-4.062176	-0.114105	-0.569516
O5	O	-4.045167	-0.110911	-0.212393
V6	V	-4.565422	-0.101360	-0.374603
O7	O	-4.353040	-0.147754	-0.445176
O8	O	-4.747572	-0.069493	-0.326129
O9	O	-4.391506	0.012536	-0.376876
O10	O	-4.695988	-0.222814	-0.382613
O11	O	-4.722645	-0.106335	-0.558912
O12	O	-4.365032	-0.103142	-0.201789
C13	C	-3.879659	-0.257548	-0.388285
C14	C	-3.920815	-0.350660	-0.387579
C15	C	-3.958127	-0.552923	-0.269549
C16	C	-3.996822	-0.640413	-0.268895
C17	C	-4.111669	-0.664324	-0.501771
C18	C	-4.072989	-0.576836	-0.502423
C19	C	-3.996207	-0.521138	-0.386308
C20	C	-4.073582	-0.696115	-0.385002
C21	C	-4.115537	-0.790975	-0.384294
C22	C	-3.954253	-0.426272	-0.387015
C23	C	-3.913427	-0.109989	-0.611624
C24	C	-3.976049	-0.109286	-0.752903
C25	C	-4.048079	-0.185658	-0.837721
C26	C	-4.106931	-0.184996	-0.970468
C27	C	-4.021708	-0.031582	-0.933566
C28	C	-3.962871	-0.032245	-0.800822
C29	C	-4.356191	-0.278930	-1.178218
C30	C	-4.428190	-0.355305	-1.263040
C31	C	-4.329040	-0.420556	-1.232077
C32	C	-4.157845	-0.409433	-1.116292
C33	C	-4.085830	-0.333056	-1.031476
C34	C	-4.185028	-0.267809	-1.062440
C35	C	-3.713596	0.061684	-0.593070
C36	C	-3.641566	0.138062	-0.508251
C37	C	-3.740698	0.203321	-0.539209
C38	C	-3.911860	0.192207	-0.654995
C39	C	-3.983891	0.115829	-0.739814
C40	C	-3.884758	0.050570	-0.708847
C41	C	-4.210891	0.040297	-0.383017
C42	C	-4.148974	0.133408	-0.383731
C43	C	-4.177122	-0.107261	-0.159675
C44	C	-4.093738	-0.107960	-0.018394
H45	H	-4.104012	-0.550958	-0.597509
C46	C	-3.604537	-0.010103	-0.559003
N47	N	-3.522384	-0.064170	-0.533343
H48	H	-3.895608	-0.507575	-0.175000
H49	H	-4.387668	-0.482742	-1.301150
H50	H	-3.992580	0.245346	-0.680203
C51	C	-4.048766	-0.481214	-1.082249
N52	N	-3.966610	-0.535282	-1.056603
C53	C	-3.954920	-0.675372	-0.140450
N54	N	-3.923355	-0.701702	-0.043700
C55	C	-4.062603	-0.270405	-0.785017
N56	N	-4.073555	-0.334240	-0.745325
H57	H	-4.123266	0.106783	-0.834094
H58	H	-4.174185	-0.709684	-0.596307
C59	C	-3.897537	-0.320821	-0.904116
N60	N	-3.755721	-0.311611	-0.808182
H61	H	-4.010982	0.031142	-0.972598
C62	C	-3.661447	0.287340	-0.445901
N63	N	-3.601766	0.350622	-0.375624
H64	H	-4.567587	-0.364356	-1.357312
H65	H	-4.436960	-0.225806	-1.203433
C66	C	-3.453279	0.150285	-0.380882
N67	N	-3.311469	0.159490	-0.284947
