data_functionalizedCrystal
_audit_creation_method	'MofGen! by Chris Wilmer'
_symmetry_space_group_name_H-M	'P1'
_symmetry_Int_Tables_number	1
_symmetry_cell_setting	triclinic
loop_
_symmetry_equiv_pos_as_xyz
  x,y,z
_cell_length_a	16.120530
_cell_length_b	21.395361
_cell_length_c	21.395355
_cell_angle_alpha	90.021511
_cell_angle_beta	87.079043
_cell_angle_gamma	92.874023
loop_
_atom_site_label
_atom_site_type_symbol
_atom_site_fract_x
_atom_site_fract_y
_atom_site_fract_z
Zn1	Zn	1.274542	0.298157	-0.402756
Zn2	Zn	1.607875	0.631490	-0.069422
Zn3	Zn	1.941208	0.964823	0.263911
Zn4	Zn	1.274412	0.402911	-0.297968
Zn5	Zn	1.607745	0.736245	0.035366
Zn6	Zn	1.941079	1.069578	0.368699
Zn7	Zn	1.135113	0.292835	-0.292686
Zn8	Zn	1.468447	0.626168	0.040647
Zn9	Zn	1.801780	0.959502	0.373981
Zn10	Zn	1.135072	0.397577	-0.397405
Zn11	Zn	1.468406	0.730910	-0.064071
Zn12	Zn	1.801739	1.064244	0.269262
O13	O	1.204785	0.347870	-0.347704
O14	O	1.538118	0.681203	-0.014370
O15	O	1.871451	1.014537	0.318963
O16	O	1.391190	0.316512	-0.393305
O17	O	1.724523	0.649845	-0.059972
O18	O	2.057857	0.983179	0.273362
O19	O	1.255897	0.388315	-0.209588
O20	O	1.589230	0.721648	0.123746
O21	O	1.922563	1.054982	0.457079
O22	O	1.153680	0.205866	-0.307316
O23	O	1.487014	0.539199	0.026018
O24	O	1.820347	0.872533	0.359351
O25	O	1.391095	0.393475	-0.316318
O26	O	1.724428	0.726808	0.017015
O27	O	2.057761	1.060142	0.350349
O28	O	1.256118	0.209776	-0.388183
O29	O	1.589451	0.543109	-0.054850
O30	O	1.922784	0.876442	0.278483
O31	O	1.153554	0.307442	-0.205707
O32	O	1.486888	0.640776	0.127626
O33	O	1.820221	0.974109	0.460959
O34	O	1.018442	0.302270	-0.302127
O35	O	1.351776	0.635603	0.031206
O36	O	1.685109	0.968937	0.364539
O37	O	1.153610	0.384383	-0.485794
O38	O	1.486944	0.717717	-0.152461
O39	O	1.820277	1.051050	0.180873
O40	O	1.018412	0.379223	-0.379064
O41	O	1.351745	0.712557	-0.045731
O42	O	1.685079	1.045890	0.287603
O43	O	1.256078	0.311340	-0.489725
O44	O	1.589411	0.644673	-0.156392
O45	O	1.922745	0.978006	0.176942
O46	O	1.255857	0.489879	-0.311129
O47	O	1.589190	0.823212	0.022204
O48	O	1.922523	1.156546	0.355537
O49	O	1.153484	0.485960	-0.384185
O50	O	1.486818	0.819293	-0.050852
O51	O	1.820151	1.152627	0.282481
C52	C	0.988177	0.339591	-0.339442
C53	C	1.321510	0.672924	-0.006109
C54	C	1.654844	1.006257	0.327225
C55	C	0.895511	0.336064	-0.335923
C56	C	1.228845	0.669397	-0.002589
C57	C	1.562178	1.002731	0.330744
C58	C	1.204675	0.510654	-0.347664
C59	C	1.538008	0.843987	-0.014331
C60	C	1.871341	1.177320	0.319002
C61	C	1.204704	0.580296	-0.347672
C62	C	1.538037	0.913629	-0.014338
C63	C	1.871371	1.246963	0.318995
C64	C	1.204854	0.347860	-0.511129
C65	C	1.538187	0.681193	-0.177796
C66	C	1.871521	1.014527	0.155537
C67	C	1.204884	0.347856	-0.580772
C68	C	1.538217	0.681189	-0.247439
C69	C	1.871550	1.014522	0.085895
C70	C	0.725850	0.329610	-0.329503
C71	C	1.059183	0.662944	0.003831
C72	C	1.392517	0.996277	0.337164
C73	C	0.684560	0.366176	-0.365950
C74	C	1.017893	0.699509	-0.032617
C75	C	1.351227	1.032843	0.300717
C76	C	0.590155	0.362585	-0.362378
C77	C	0.923488	0.695918	-0.029045
C78	C	1.256821	1.029252	0.304289
C79	C	0.820264	0.333200	-0.333074
C80	C	1.153597	0.666534	0.000259
C81	C	1.486931	0.999867	0.333593
C82	C	1.422238	0.356182	-0.355998
C83	C	1.755572	0.689515	-0.022664
C84	C	2.088905	1.022849	0.310669
C85	C	1.514904	0.359724	-0.359532
C86	C	1.848237	0.693058	-0.026199
C87	C	2.181571	1.026391	0.307135
C88	C	1.204918	0.184452	-0.347757
C89	C	1.538251	0.517785	-0.014424
C90	C	1.871585	0.851119	0.318909
C91	C	1.204975	0.114813	-0.347780
C92	C	1.538308	0.448146	-0.014447
C93	C	1.871641	0.781479	0.318886
C94	C	1.258056	0.615031	-0.309674
C95	C	1.591390	0.948364	0.023659
C96	C	1.924723	1.281697	0.356992
C97	C	1.258095	0.680468	-0.309690
C98	C	1.591429	1.013801	0.023644
C99	C	1.924762	1.347134	0.356977
C100	C	1.204767	0.711167	-0.347695
C101	C	1.538100	1.044500	-0.014362
C102	C	1.871433	1.377833	0.318971
C103	C	1.151410	0.676424	-0.385701
C104	C	1.484744	1.009757	-0.052367
C105	C	1.818077	1.343090	0.280966
C106	C	1.151379	0.610988	-0.385689
C107	C	1.484712	0.944322	-0.052355
C108	C	1.818046	1.277655	0.280978
C109	C	1.129700	0.812017	-0.349748
C110	C	1.463034	1.145350	-0.016415
C111	C	1.796367	1.478683	0.316918
C112	C	1.129730	0.877451	-0.349756
C113	C	1.463064	1.210784	-0.016423
C114	C	1.796397	1.544117	0.316911
C115	C	1.204864	0.912991	-0.347736
C116	C	1.538197	1.246324	-0.014403
C117	C	1.871530	1.579658	0.318931
C118	C	1.279969	0.883089	-0.345695
C119	C	1.613303	1.216423	-0.012362
C120	C	1.946636	1.549756	0.320971
C121	C	1.279938	0.817654	-0.345683
C122	C	1.613271	1.150987	-0.012350
C123	C	1.946605	1.484321	0.320983
C124	C	1.204795	0.782120	-0.347713
C125	C	1.538128	1.115453	-0.014380
C126	C	1.871462	1.448787	0.318954
C127	C	1.258263	1.018680	-0.309753
C128	C	1.591596	1.352013	0.023580
C129	C	1.924929	1.685347	0.356913
C130	C	1.258303	1.084118	-0.309773
C131	C	1.591636	1.417452	0.023560
C132	C	1.924970	1.750785	0.356893
C133	C	1.151611	1.080073	-0.385781
C134	C	1.484944	1.413406	-0.052447
C135	C	1.818277	1.746740	0.280886
C136	C	1.151578	1.014636	-0.385764
C137	C	1.484911	1.347970	-0.052431
C138	C	1.818245	1.681303	0.280902
C139	C	1.204903	0.983944	-0.347747
C140	C	1.538236	1.317277	-0.014414
C141	C	1.871569	1.650610	0.318919
C142	C	1.258236	0.309820	-0.615533
C143	C	1.591569	0.643153	-0.282200
C144	C	1.924903	0.976487	0.051134
C145	C	1.258235	0.309793	-0.680968
C146	C	1.591568	0.643126	-0.347635
C147	C	1.924902	0.976460	-0.014302
C148	C	1.204890	0.347813	-0.711641
C149	C	1.538223	0.681147	-0.378307
C150	C	1.871557	1.014480	-0.044974
C151	C	1.151527	0.385851	-0.676871
C152	C	1.484860	0.719185	-0.343538
C153	C	1.818194	1.052518	-0.010205
C154	C	1.151524	0.385873	-0.611437
C155	C	1.484857	0.719206	-0.278104
C156	C	1.818190	1.052539	0.055230
C157	C	1.198269	0.403976	-0.815051
C158	C	1.531602	0.737309	-0.481718
C159	C	1.864936	1.070643	-0.148384
C160	C	1.198278	0.403956	-0.880484
C161	C	1.531611	0.737289	-0.547151
C162	C	1.864945	1.070623	-0.213818
C163	C	1.204895	0.347747	-0.913462
C164	C	1.538229	0.681081	-0.580128
C165	C	1.871562	1.014414	-0.246795
C166	C	1.211521	0.291558	-0.880998
C167	C	1.544854	0.624891	-0.547665
C168	C	1.878187	0.958224	-0.214331
C169	C	1.211517	0.291579	-0.815564
C170	C	1.544851	0.624912	-0.482230
C171	C	1.878184	0.958245	-0.148897
C172	C	1.204887	0.347794	-0.782593
C173	C	1.538221	0.681128	-0.449260
C174	C	1.871554	1.014461	-0.115926
C175	C	1.258249	0.309679	-1.019175
C176	C	1.591583	0.643012	-0.685842
C177	C	1.924916	0.976346	-0.352509
C178	C	1.258242	0.309651	-1.084612
C179	C	1.591576	0.642984	-0.751278
C180	C	1.924909	0.976317	-0.417945
C181	C	1.151539	0.385715	-1.080513
C182	C	1.484872	0.719048	-0.747180
C183	C	1.818206	1.052382	-0.413847
C184	C	1.151541	0.385737	-1.015078
C185	C	1.484875	0.719071	-0.681745
C186	C	1.818208	1.052404	-0.348412
C187	C	1.204901	0.347721	-0.984413
C188	C	1.538235	0.681054	-0.651080
C189	C	1.871568	1.014387	-0.317746
C190	C	1.204764	0.347837	-0.184915
C191	C	1.538097	0.681170	0.148418
C192	C	1.871431	1.014503	0.481752
C193	C	1.204896	0.347671	-0.115279
C194	C	1.538229	0.681004	0.218054
C195	C	1.871563	1.014337	0.551387
H196	H	0.690301	0.295612	-0.295619
H197	H	1.023635	0.628945	0.037715
H198	H	1.356968	0.962279	0.371048
N199	N	1.315581	0.581927	-0.268682
N200	N	1.648914	0.915260	0.064652
N201	N	1.982247	1.248594	0.397985
H202	H	1.349389	0.613865	-0.244616
H203	H	1.682723	0.947199	0.088718
H204	H	2.016056	1.280532	0.422051
H205	H	1.354131	0.556215	-0.295682
H206	H	1.687464	0.889548	0.037651
H207	H	2.020798	1.222882	0.370984
N208	N	1.315784	0.268766	-0.718467
N209	N	1.649118	0.602100	-0.385134
N210	N	1.982451	0.935433	-0.051801
H211	H	1.375342	0.280783	-0.709364
H212	H	1.708675	0.614117	-0.376030
H213	H	2.042009	0.947450	-0.042697
H214	H	1.307620	0.274540	-0.764559
H215	H	1.640953	0.607873	-0.431226
H216	H	1.974286	0.941206	-0.097892
H217	H	1.107932	0.582706	-0.416631
H218	H	1.441266	0.916040	-0.083298
H219	H	1.774599	1.249373	0.250035
N220	N	1.093883	0.709528	-0.426689
N221	N	1.427217	1.042861	-0.093356
N222	N	1.760550	1.376194	0.239978
H223	H	1.106797	0.698603	-0.471955
H224	H	1.440130	1.031936	-0.138622
H225	H	1.773463	1.365269	0.194712
H226	H	1.102020	0.756242	-0.420878
H227	H	1.435353	1.089575	-0.087544
H228	H	1.768687	1.422908	0.245789
H229	H	1.301544	0.708754	-0.278748
H230	H	1.634878	1.042088	0.054585
H231	H	1.968211	1.375421	0.387919
H232	H	1.108074	0.416845	-0.583134
H233	H	1.441407	0.750178	-0.249801
H234	H	1.774740	1.083512	0.083532
H235	H	1.068513	0.783086	-0.351396
H236	H	1.401846	1.116419	-0.018062
H237	H	1.735179	1.449752	0.315271
H238	H	1.216910	0.245827	-0.789134
H239	H	1.550243	0.579160	-0.455801
H240	H	1.883577	0.912494	-0.122468
H241	H	1.301754	1.112399	-0.278833
H242	H	1.635087	1.445732	0.054501
H243	H	1.968421	1.779065	0.387834
H244	H	1.108091	0.416806	-0.701849
H245	H	1.441424	0.750139	-0.368515
H246	H	1.774757	1.083472	-0.035182
H247	H	1.216910	0.245787	-0.907847
H248	H	1.550244	0.579120	-0.574513
H249	H	1.883577	0.912454	-0.241180
H250	H	1.341091	0.793309	-0.344024
H251	H	1.674424	1.126643	-0.010690
H252	H	2.007758	1.459976	0.322643
N253	N	1.093983	0.426760	-0.977592
N254	N	1.427316	0.760094	-0.644258
N255	N	1.760649	1.093427	-0.310925
H256	H	1.106885	0.472018	-0.989471
H257	H	1.440218	0.805352	-0.656137
H258	H	1.773552	1.138685	-0.322804
H259	H	1.102088	0.420955	-0.931496
H260	H	1.435421	0.754289	-0.598162
H261	H	1.768755	1.087622	-0.264829
N262	N	1.361014	0.921411	-0.343514
N263	N	1.694347	1.254744	-0.010180
N264	N	2.027681	1.588078	0.323153
H265	H	1.349641	0.967401	-0.343834
H266	H	1.682975	1.300735	-0.010501
H267	H	2.016308	1.634068	0.322833
H268	H	1.398256	0.911347	-0.381187
H269	H	1.731590	1.244680	-0.047854
H270	H	2.064923	1.578013	0.285480
N271	N	1.315775	0.985570	-0.268753
N272	N	1.649108	1.318903	0.064580
N273	N	1.982442	1.652237	0.397913
H274	H	1.349586	1.017507	-0.244687
H275	H	1.682919	1.350840	0.088646
H276	H	2.016252	1.684174	0.421979
H277	H	1.354325	0.959849	-0.295746
H278	H	1.687658	1.293183	0.037588
H279	H	2.020991	1.626516	0.370921
H280	H	0.720111	0.400177	-0.399837
H281	H	1.053444	0.733510	-0.066504
H282	H	1.386778	1.066844	0.266829
H283	H	1.108193	1.105067	-0.416729
H284	H	1.441526	1.438401	-0.083395
H285	H	1.774860	1.771734	0.249938
H286	H	1.301693	0.278720	-0.994206
H287	H	1.635027	0.612053	-0.660873
H288	H	1.968360	0.945386	-0.327540
N289	N	1.094027	0.977167	-0.426743
N290	N	1.427360	1.310500	-0.093409
N291	N	1.760694	1.643834	0.239924
H292	H	1.060247	1.006542	-0.450821
H293	H	1.393580	1.339875	-0.117488
H294	H	1.726914	1.673209	0.215845
H295	H	1.055450	0.948587	-0.399736
H296	H	1.388784	1.281920	-0.066403
H297	H	1.722117	1.615253	0.266930
N298	N	1.048723	0.909693	-0.351950
N299	N	1.382056	1.243026	-0.018617
N300	N	1.715390	1.576359	0.314716
H301	H	1.020327	0.897220	-0.391399
H302	H	1.353660	1.230553	-0.058066
H303	H	1.686993	1.563886	0.275267
H304	H	1.060201	0.956530	-0.351621
H305	H	1.393535	1.289863	-0.018288
H306	H	1.726868	1.623196	0.315046
H307	H	1.301685	0.278863	-0.590570
H308	H	1.635018	0.612196	-0.257236
H309	H	1.968352	0.945530	0.076097
H310	H	1.301687	0.278674	-1.112913
H311	H	1.635021	0.612007	-0.779580
H312	H	1.968354	0.945341	-0.446247
H313	H	1.108096	0.416665	-1.105486
H314	H	1.441429	0.749998	-0.772152
H315	H	1.774762	1.083332	-0.438819
N316	N	1.191139	0.464557	-0.915497
N317	N	1.524472	0.797891	-0.582163
N318	N	1.857805	1.131224	-0.248830
H319	H	1.186936	0.500167	-0.884678
H320	H	1.520269	0.833501	-0.551345
H321	H	1.853602	1.166834	-0.218011
H322	H	1.139773	0.461680	-0.940677
H323	H	1.473106	0.795014	-0.607344
H324	H	1.806440	1.128347	-0.274011
H325	H	1.192657	0.449728	-0.788198
H326	H	1.525991	0.783061	-0.454865
H327	H	1.859324	1.116394	-0.121532
