data_functionalizedCrystal
_audit_creation_method	'MofGen! by Chris Wilmer'
_symmetry_space_group_name_H-M	'P1'
_symmetry_Int_Tables_number	1
_symmetry_cell_setting	triclinic
loop_
_symmetry_equiv_pos_as_xyz
  x,y,z
_cell_length_a	8.597339
_cell_length_b	10.654545
_cell_length_c	7.681481
_cell_angle_alpha	84.204528
_cell_angle_beta	76.526797
_cell_angle_gamma	95.088465
loop_
_atom_site_label
_atom_site_type_symbol
_atom_site_fract_x
_atom_site_fract_y
_atom_site_fract_z
O1	O	-2.101747	0.173712	0.172378
O2	O	-1.637912	0.193712	0.102020
O3	O	-1.880493	0.000899	0.138817
O4	O	-1.859166	0.366525	0.135580
O5	O	-1.910351	-0.022887	0.436204
O6	O	-1.667770	0.169926	0.399407
O7	O	-2.131604	0.149926	0.469764
Zn8	Zn	-1.904428	0.156150	0.481802
Zn9	Zn	-1.865089	0.187488	0.089982
O10	O	-1.889024	0.342739	0.432967
C11	C	-1.593449	0.180994	0.241704
C12	C	-1.416479	0.178521	0.214860
C13	C	-1.893855	-0.057781	0.287270
C14	C	-1.889168	-0.197191	0.286549
C15	C	-1.856636	-0.171268	-0.037669
C16	C	-1.838174	-0.223801	-0.200110
C17	C	-1.833772	-0.354789	-0.200780
C18	C	-1.847827	-0.433248	-0.038992
C19	C	-1.866289	-0.380715	0.123449
C20	C	-1.870695	-0.249723	0.124102
C21	C	-1.898809	-0.406637	0.447661
C22	C	-1.903224	-0.275650	0.448336
C23	C	-1.912864	-0.485096	0.609449
C24	C	-1.931338	-0.432564	0.771895
C25	C	-1.935742	-0.301567	0.772559
C26	C	-1.921685	-0.223117	0.610777
C27	C	-1.176069	0.162638	0.330085
C28	C	-1.353043	0.165093	0.356944
C29	C	-1.875661	0.401419	0.284510
C30	C	-1.880347	0.540830	0.285220
N31	N	-1.838243	0.208867	-0.177425
N32	N	-1.931286	0.134761	0.749211
H33	H	-1.860238	-0.064611	-0.037137
Cl34	Cl	-1.691599	0.325653	0.684235
H35	H	-1.434130	0.155488	0.499145
H36	H	-1.826729	-0.159905	-0.331834
Cl37	Cl	-2.077954	0.017983	0.887561
H38	H	-1.335402	0.188116	0.072668
H39	H	-1.818724	-0.397559	-0.333056
H40	H	-1.844221	-0.539903	-0.039555
H41	H	-1.909269	-0.591752	0.608890
Cl42	Cl	-1.958941	-0.235537	0.976782
H43	H	-1.925277	-0.116458	0.611303
H44	H	-1.942769	-0.496454	0.903608
