data_functionalizedCrystal
_audit_creation_method	'MofGen! by Chris Wilmer'
_symmetry_space_group_name_H-M	'P1'
_symmetry_Int_Tables_number	1
_symmetry_cell_setting	triclinic
loop_
_symmetry_equiv_pos_as_xyz
  x,y,z
_cell_length_a	27.732048
_cell_length_b	17.699083
_cell_length_c	26.210047
_cell_angle_alpha	89.996398
_cell_angle_beta	89.996535
_cell_angle_gamma	97.037165
loop_
_atom_site_label
_atom_site_type_symbol
_atom_site_fract_x
_atom_site_fract_y
_atom_site_fract_z
O1	O	0.641255	-0.090047	-0.042364
O2	O	0.500511	-0.103740	-0.042380
O3	O	0.574859	0.013331	-0.042367
O4	O	0.566906	-0.207118	-0.042377
O5	O	0.574845	0.013313	0.042491
O6	O	0.500496	-0.103758	0.042478
O7	O	0.641241	-0.090065	0.042494
Cu8	Cu	0.570867	-0.096913	0.050234
Cu9	Cu	0.570884	-0.096892	-0.050120
O10	O	0.566892	-0.207136	0.042481
C11	C	0.482496	-0.103462	0.000047
C12	C	0.428838	-0.102596	0.000041
N13	N	0.570859	-0.096928	0.120818
C14	C	0.574567	0.041516	0.000062
C15	C	0.573712	0.125527	0.000062
C16	C	0.090252	-0.166329	0.000061
C17	C	-0.111419	-0.163117	0.000065
O18	O	-0.142466	-0.221396	0.000085
N19	N	-0.130793	-0.093699	0.000067
C20	C	-0.099745	-0.025079	0.000072
O21	O	-0.120851	0.034039	0.000079
C22	C	0.101925	-0.028291	0.000071
C23	C	0.121296	-0.097714	0.000063
C24	C	0.109623	-0.235746	0.000054
C25	C	0.160037	-0.236548	0.000050
C26	C	0.191081	-0.167933	0.000053
C27	C	0.171710	-0.098516	0.000059
C28	C	0.132972	0.040329	0.000079
C29	C	0.183392	0.039519	0.000080
C30	C	0.202763	-0.029903	0.000073
C31	C	0.253169	-0.030703	0.000058
N32	N	0.272543	-0.100121	0.000056
C33	C	0.241499	-0.168736	0.000053
C34	C	-0.205625	-0.023397	0.000071
C35	C	-0.256042	-0.022594	0.000071
C36	C	-0.267713	-0.160633	0.000065
C37	C	-0.217295	-0.161435	0.000062
C38	C	-0.186252	-0.092815	0.000069
C39	C	0.347374	-0.170415	0.000045
C40	C	0.397794	-0.171211	0.000039
C41	C	0.409460	-0.033173	0.000047
C42	C	0.359045	-0.032376	0.000050
C43	C	0.328002	-0.101004	0.000051
O44	O	0.284244	0.027545	0.000045
O45	O	0.262614	-0.227845	0.000057
C46	C	0.039837	-0.165526	0.000065
C47	C	0.020466	-0.096109	0.000071
C48	C	0.051510	-0.027494	0.000074
C49	C	-0.029951	-0.095306	0.000071
C50	C	-0.060995	-0.163921	0.000068
C51	C	-0.041622	-0.233339	0.000066
C52	C	0.008793	-0.234141	0.000062
C53	C	0.032137	0.041924	0.000076
C54	C	-0.018279	0.042720	0.000080
C55	C	-0.049323	-0.025895	0.000077
C56	C	0.659256	-0.090343	0.000065
C57	C	0.712914	-0.091209	0.000068
C58	C	0.567184	-0.235321	0.000051
C59	C	0.568039	-0.319332	0.000047
C60	C	0.617353	0.174532	0.000068
C61	C	0.616547	0.253469	0.000063
C62	C	0.572099	0.283398	0.000056
C63	C	0.528455	0.234386	0.000049
C64	C	0.529262	0.155451	0.000050
C65	C	0.525201	0.552720	0.000045
C66	C	0.524398	0.631661	0.000045
C67	C	0.612486	0.650738	0.000057
C68	C	0.613293	0.571803	0.000058
C69	C	0.569649	0.522798	0.000049
C70	C	0.570524	0.437206	0.000053
C71	C	0.571224	0.368987	0.000056
N72	N	0.570896	-0.096871	-0.120704
C73	C	0.603802	-0.045064	0.473338
C74	C	0.603813	-0.045054	0.686996
O75	O	0.631804	-0.000961	0.714623
N76	N	0.570887	-0.096875	0.713712
C77	C	0.537953	-0.148699	0.687010
O78	O	0.509945	-0.192771	0.714635
C79	C	0.537941	-0.148706	0.473352
C80	C	0.570872	-0.096886	0.446639
C81	C	0.636731	0.006751	0.446625
C82	C	0.636730	0.006746	0.393213
C83	C	0.603800	-0.045076	0.366515
C84	C	0.570871	-0.096892	0.393228
C85	C	0.505006	-0.200526	0.446651
C86	C	0.505005	-0.200522	0.393233
C87	C	0.537936	-0.148702	0.366520
C88	C	0.537940	-0.148720	0.313118
N89	N	0.570866	-0.096899	0.286402
C90	C	0.603796	-0.045077	0.313101
C91	C	0.537963	-0.148693	0.799183
C92	C	0.537967	-0.148693	0.852597
C93	C	0.603826	-0.045046	0.852580
C94	C	0.603824	-0.045051	0.799165
C95	C	0.570889	-0.096872	0.772467
C96	C	0.603791	-0.045094	0.200933
C97	C	0.603789	-0.045106	0.147517
C98	C	0.537928	-0.148750	0.147538
C99	C	0.537932	-0.148740	0.200950
C100	C	0.570866	-0.096906	0.227646
O101	O	0.509960	-0.192784	0.285458
O102	O	0.631794	-0.001000	0.285466
C103	C	0.603804	-0.045059	0.526749
C104	C	0.570875	-0.096874	0.553462
C105	C	0.537945	-0.148696	0.526764
C106	C	0.570879	-0.096874	0.606876
C107	C	0.603808	-0.045052	0.633575
C108	C	0.636735	0.006769	0.606859
C109	C	0.636733	0.006763	0.553448
C110	C	0.505019	-0.200518	0.553479
C111	C	0.505023	-0.200508	0.606891
C112	C	0.537953	-0.148686	0.633589
H113	H	0.413562	-0.227746	0.000032
F114	F	0.658937	0.702899	0.000066
F115	F	0.638873	0.010103	0.770740
H116	H	0.488201	0.656025	0.000041
F117	F	0.502922	-0.203855	0.881022
F118	F	0.065170	0.114958	0.000080
H119	H	0.489663	0.512829	0.000037
H120	H	0.652084	0.293367	0.000069
F121	F	-0.074670	-0.306364	0.000060
H122	H	0.492265	0.258760	0.000041
H123	H	0.208666	0.095399	0.000086
F124	F	-0.196685	-0.235323	0.000055
F125	F	0.502887	-0.203901	0.229379
H126	H	0.493725	0.115550	0.000046
F127	F	0.469973	-0.255669	0.635315
H128	H	0.511143	-0.190895	0.777449
F129	F	0.442508	0.039848	0.000051
F130	F	0.638872	0.010106	0.881004
H131	H	-0.034045	0.099257	0.000082
H132	H	0.630607	-0.002908	0.125769
H133	H	0.511118	-0.190945	0.125792
H134	H	0.630608	-0.002884	0.222663
H135	H	0.663544	0.048944	0.371467
F136	F	0.469969	-0.255676	0.525071
F137	F	-0.172592	0.049643	0.000078
F138	F	0.660600	0.539955	0.000065
F139	F	0.671782	0.061913	0.475032
F140	F	0.469955	-0.255678	0.475071
H141	H	0.653548	0.150171	0.000076
H142	H	0.663549	0.048960	0.531702
F143	F	0.671783	0.061920	0.635283
F144	F	0.314343	-0.243456	0.000046
F145	F	0.180646	-0.310437	0.000044
F146	F	0.469949	-0.255677	0.364823
H147	H	-0.271809	0.033937	0.000069
H148	H	-0.292998	-0.216502	0.000063
F149	F	0.076590	-0.308782	0.000051
H150	H	0.343273	0.024153	0.000049
F151	F	0.112368	0.114219	0.000080
H152	H	0.024559	-0.290672	0.000056
