data_functionalizedCrystal
_audit_creation_method	'MofGen! by Chris Wilmer'
_symmetry_space_group_name_H-M	'P1'
_symmetry_Int_Tables_number	1
_symmetry_cell_setting	triclinic
loop_
_symmetry_equiv_pos_as_xyz
  x,y,z
_cell_length_a	12.827892
_cell_length_b	12.759401
_cell_length_c	12.759393
_cell_angle_alpha	89.980324
_cell_angle_beta	89.970028
_cell_angle_gamma	90.015628
loop_
_atom_site_label
_atom_site_type_symbol
_atom_site_fract_x
_atom_site_fract_y
_atom_site_fract_z
Zn1	Zn	-0.415971	1.606263	-0.593989
Zn2	Zn	0.084029	2.106263	-0.093989
Zn3	Zn	-0.590748	1.606152	-0.418310
Zn4	Zn	-0.090748	2.106152	0.081690
Zn5	Zn	-0.416023	1.430561	-0.418328
Zn6	Zn	0.083977	1.930561	0.081672
Zn7	Zn	-0.590672	1.430552	-0.593951
Zn8	Zn	-0.090672	1.930552	-0.093951
O9	O	-0.503353	1.518382	-0.506144
O10	O	-0.003353	2.018382	-0.006144
O11	O	-0.439165	1.753269	-0.570693
O12	O	0.060835	2.253269	-0.070693
O13	O	-0.567624	1.582818	-0.271291
O14	O	-0.067624	2.082818	0.228709
O15	O	-0.269780	1.453919	-0.441652
O16	O	0.230220	1.953919	0.058348
O17	O	-0.567573	1.753188	-0.441623
O18	O	-0.067573	2.253188	0.058377
O19	O	-0.269741	1.583006	-0.570710
O20	O	0.230259	2.083006	-0.070710
O21	O	-0.439254	1.453812	-0.271304
O22	O	0.060746	1.953812	0.228696
O23	O	-0.439180	1.283539	-0.441616
O24	O	0.060820	1.783539	0.058384
O25	O	-0.567443	1.453902	-0.740977
O26	O	-0.067443	1.953902	-0.240977
O27	O	-0.567494	1.283532	-0.570646
O28	O	-0.067494	1.783532	-0.070646
O29	O	-0.439091	1.582996	-0.741005
O30	O	0.060909	2.082996	-0.241005
O31	O	-0.736974	1.582808	-0.441587
O32	O	-0.236974	2.082808	0.058413
O33	O	-0.736918	1.453795	-0.570629
O34	O	-0.236918	1.953795	-0.070629
C35	C	-0.503335	1.245415	-0.506130
C36	C	-0.003335	1.745415	-0.006130
C37	C	-0.503353	1.128638	-0.506148
C38	C	-0.003353	1.628638	-0.006148
C39	C	-0.436611	1.073819	-0.573459
C40	C	0.063389	1.573819	-0.073459
C41	C	-0.436622	0.964095	-0.573466
C42	C	0.063378	1.464095	-0.073466
C43	C	-0.570124	0.964019	-0.438849
C44	C	-0.070124	1.464019	0.061151
C45	C	-0.570108	1.073741	-0.438837
C46	C	-0.070108	1.573741	0.061163
C47	C	-0.774863	1.518317	-0.506125
C48	C	-0.274863	2.018317	-0.006125
C49	C	-0.891016	1.518386	-0.506152
C50	C	-0.391016	2.018386	-0.006152
C51	C	-0.942808	1.454531	-0.569959
C52	C	-0.442808	1.954531	-0.069959
C53	C	-1.062858	1.454600	-0.569989
C54	C	-0.562858	1.954600	-0.069989
C55	C	-0.230783	1.518476	-0.506187
C56	C	0.269217	2.018476	-0.006187
C57	C	-0.114630	1.518516	-0.506205
C58	C	0.385370	2.018516	-0.006205
C59	C	-0.503253	1.518461	-0.780178
C60	C	-0.003253	2.018461	-0.280178
C61	C	-0.503210	1.518494	-0.896955
C62	C	-0.003210	2.018494	-0.396955
C63	C	-0.503372	1.792415	-0.506160
C64	C	-0.003372	2.292415	-0.006160
C65	C	-0.503380	1.909192	-0.506167
C66	C	-0.003380	2.409192	-0.006167
C67	C	-0.436367	1.585718	-0.951833
C68	C	0.063633	2.085718	-0.451833
C69	C	-0.436322	1.585736	-1.061557
C70	C	0.063678	2.085736	-0.561557
C71	C	-0.569973	1.451303	-1.061515
C72	C	-0.069973	1.951303	-0.561515
C73	C	-0.570012	1.451280	-0.951793
C74	C	-0.070012	1.951280	-0.451793
C75	C	-0.503378	1.518364	-0.233177
C76	C	-0.003378	2.018364	0.266823
C77	C	-0.503126	1.518534	-0.116401
C78	C	-0.003126	2.018534	0.383599
H79	H	-0.624475	0.919308	-0.384048
H80	H	-0.124475	1.419308	0.115952
C81	C	-0.363170	1.134202	-0.647493
C82	C	0.136830	1.634202	-0.147493
N83	N	-0.307848	1.179680	-0.703255
N84	N	0.192152	1.679680	-0.203255
C85	C	-0.643545	1.377321	-0.891424
C86	C	-0.143545	1.877321	-0.391424
N87	N	-0.698926	1.321615	-0.845954
N88	N	-0.198926	1.821615	-0.345954
C89	C	-0.362874	1.659646	-0.891514
C90	C	0.137126	2.159646	-0.391514
N91	N	-0.307513	1.715327	-0.846085
N92	N	0.192487	2.215327	-0.346085
H93	H	-0.381889	1.640475	-1.106233
H94	H	0.118111	2.140475	-0.606233
H95	H	-1.070098	1.573191	-0.451578
H96	H	-0.570098	2.073191	0.048422
H97	H	-1.107397	1.399936	-0.624621
H98	H	-0.607397	1.899936	-0.124621
C99	C	-0.882647	1.380605	-0.643734
C100	C	-0.382647	1.880605	-0.143734
N101	N	-0.837334	1.324923	-0.699304
N102	N	-0.337334	1.824923	-0.199304
H103	H	-0.624362	1.396582	-1.106178
H104	H	-0.124362	1.896582	-0.606178
H105	H	-0.624457	1.118376	-0.384019
H106	H	-0.124457	1.618376	0.115981
H107	H	-0.382273	0.919466	-0.628275
H108	H	0.117727	1.419466	-0.128275
C109	C	-0.951177	1.592310	-0.432375
C110	C	-0.451177	2.092310	0.067625
N111	N	-0.996490	1.647992	-0.376805
N112	N	-0.496490	2.147992	0.123195
