data_functionalizedCrystal
_audit_creation_method	'MofGen! by Chris Wilmer'
_symmetry_space_group_name_H-M	'P1'
_symmetry_Int_Tables_number	1
_symmetry_cell_setting	triclinic
loop_
_symmetry_equiv_pos_as_xyz
  x,y,z
_cell_length_a	10.967926
_cell_length_b	19.188930
_cell_length_c	10.065875
_cell_angle_alpha	98.754308
_cell_angle_beta	93.120479
_cell_angle_gamma	83.946584
loop_
_atom_site_label
_atom_site_type_symbol
_atom_site_fract_x
_atom_site_fract_y
_atom_site_fract_z
O1	O	1.612253	0.121734	0.265677
O2	O	2.112253	0.621734	0.765677
O3	O	1.262199	0.123728	0.183344
O4	O	1.762199	0.623728	0.683344
O5	O	1.447324	0.021359	0.226912
O6	O	1.947324	0.521359	0.726912
O7	O	1.427128	0.224103	0.222109
O8	O	1.927128	0.724103	0.722109
O9	O	1.412022	0.040961	0.445593
O10	O	1.912022	0.540961	0.945593
O11	O	1.226897	0.143330	0.402024
O12	O	1.726897	0.643330	0.902024
O13	O	1.576952	0.141337	0.484358
O14	O	2.076952	0.641337	0.984358
Zn15	Zn	1.396320	0.145446	0.477911
Zn16	Zn	1.896320	0.645446	0.977911
Zn17	Zn	1.442831	0.119619	0.189790
Zn18	Zn	1.942831	0.619619	0.689790
O19	O	1.391827	0.243706	0.440789
O20	O	1.891827	0.743706	0.940789
C21	C	1.199763	0.131903	0.282151
C22	C	1.699763	0.631903	0.782151
C23	C	1.066318	0.127049	0.250765
C24	C	1.566318	0.627049	0.750765
C25	C	0.988537	0.135039	0.350056
C26	C	1.488537	0.635039	0.850056
C27	C	0.850614	0.130023	0.317620
C28	C	1.350614	0.630023	0.817620
C29	C	1.429018	0.005131	0.336102
C30	C	1.929018	0.505131	0.836102
C31	C	1.427052	-0.072427	0.335652
C32	C	1.927052	0.427573	0.835652
C33	C	1.535679	-0.114328	0.361207
C34	C	2.035679	0.385672	0.861207
C35	C	1.533837	-0.187205	0.360752
C36	C	2.033837	0.312795	0.860752
C37	C	1.423358	-0.218176	0.334766
C38	C	1.923358	0.281824	0.834766
C39	C	1.314719	-0.176266	0.309200
C40	C	1.814719	0.323734	0.809200
C41	C	1.316566	-0.103392	0.309642
C42	C	1.816566	0.396608	0.809642
N43	N	1.326897	-0.321860	0.389325
N44	N	1.826897	0.178140	0.889325
N45	N	1.325149	-0.391087	0.388909
N46	N	1.825149	0.108913	0.888909
C47	C	1.417787	-0.437742	0.333429
C48	C	1.917787	0.062258	0.833429
N49	N	1.512255	-0.412553	0.278400
N50	N	2.012255	0.087447	0.778400
N51	N	1.514005	-0.343319	0.278823
N52	N	2.014005	0.156681	0.778823
C53	C	1.421343	-0.297195	0.334283
C54	C	1.921343	0.202805	0.834283
C55	C	1.524425	-0.558665	0.358491
C56	C	2.024425	-0.058665	0.858491
C57	C	1.522580	-0.631544	0.358027
C58	C	2.022580	-0.131544	0.858027
C59	C	1.303456	-0.620602	0.306487
C60	C	1.803456	-0.120602	0.806487
C61	C	1.305306	-0.547726	0.306938
C62	C	1.805306	-0.047726	0.806938
C63	C	1.415793	-0.516761	0.332948
C64	C	1.915793	-0.016761	0.832948
C65	C	1.639388	0.133161	0.385548
C66	C	2.139388	0.633161	0.885548
C67	C	1.772834	0.138015	0.416925
C68	C	2.272834	0.638015	0.916925
C69	C	1.410133	0.259933	0.331596
C70	C	1.910133	0.759933	0.831596
C71	C	1.412100	0.337490	0.332038
C72	C	1.912100	0.837490	0.832038
N73	N	1.364586	0.163072	0.674548
N74	N	1.864586	0.663072	1.174548
N75	N	1.474574	0.101987	-0.006845
N76	N	1.974574	0.601987	0.493155
C77	C	1.431782	0.125747	0.758142
C78	C	1.931782	0.625747	1.258142
C79	C	1.407368	0.139318	0.909563
C80	C	1.907368	0.639318	1.409563
H81	H	1.625646	-0.089121	0.382382
H82	H	2.125646	0.410879	0.882382
H83	H	1.622298	-0.221327	0.381558
H84	H	2.122298	0.278673	0.881558
H85	H	1.213503	-0.645819	0.285322
H86	H	1.713503	-0.145819	0.785322
H87	H	0.808344	0.148568	0.525952
H88	H	1.308344	0.648568	1.025952
Br89	Br	1.164784	-0.218298	0.273916
Br90	Br	1.664784	0.281702	0.773916
H91	H	1.024055	0.145590	0.459075
H92	H	1.524055	0.645590	0.959075
Br93	Br	1.674364	-0.516635	0.393801
Br94	Br	2.174364	-0.016635	0.893801
Br95	Br	1.670018	-0.688412	0.392699
Br96	Br	2.170018	-0.188412	0.892699
Br97	Br	1.007138	0.109448	0.069052
Br98	Br	1.507138	0.609448	0.569052
Br99	Br	1.169132	-0.046523	0.274953
Br100	Br	1.669132	0.453477	0.774953
Br101	Br	0.791440	0.112421	0.135900
Br102	Br	1.291440	0.612421	0.635900
Br103	Br	1.157875	-0.490857	0.272255
Br104	Br	1.657875	0.009143	0.772255
H105	H	1.507381	0.083741	0.717609
H106	H	2.007381	0.583741	1.217609
Br107	Br	1.281339	0.209324	0.977099
Br108	Br	1.781339	0.709324	1.477099
H109	H	1.550178	0.059979	0.952627
H110	H	2.050178	0.559979	1.452627
H111	H	1.288978	0.205071	0.715081
H112	H	1.788978	0.705071	1.215081
