data_functionalizedCrystal
_audit_creation_method	'MofGen! by Chris Wilmer'
_symmetry_space_group_name_H-M	'P1'
_symmetry_Int_Tables_number	1
_symmetry_cell_setting	triclinic
loop_
_symmetry_equiv_pos_as_xyz
  x,y,z
_cell_length_a	19.805407
_cell_length_b	29.839131
_cell_length_c	19.805407
_cell_angle_alpha	90.023761
_cell_angle_beta	90.002724
_cell_angle_gamma	90.035228
loop_
_atom_site_label
_atom_site_type_symbol
_atom_site_fract_x
_atom_site_fract_y
_atom_site_fract_z
Zn1	Zn	1.034582	-0.178923	0.382674
Zn2	Zn	1.367915	0.154410	0.716007
Zn3	Zn	1.701248	0.487743	1.049341
Zn4	Zn	1.034512	-0.254033	0.269467
Zn5	Zn	1.367846	0.079300	0.602800
Zn6	Zn	1.701179	0.412633	0.936134
Zn7	Zn	0.921430	-0.178918	0.269499
Zn8	Zn	1.254763	0.154415	0.602832
Zn9	Zn	1.588096	0.487748	0.936165
Zn10	Zn	0.921342	-0.254027	0.382614
Zn11	Zn	1.254676	0.079306	0.715947
Zn12	Zn	1.588009	0.412640	1.049280
O13	O	0.977966	-0.216476	0.326063
O14	O	1.311300	0.116858	0.659397
O15	O	1.644633	0.450191	0.992730
O16	O	1.129289	-0.188892	0.367669
O17	O	1.462622	0.144442	0.701002
O18	O	1.795956	0.477775	1.034336
O19	O	1.019519	-0.244070	0.174755
O20	O	1.352852	0.089264	0.508088
O21	O	1.686186	0.422597	0.841421
O22	O	0.936505	-0.116052	0.284550
O23	O	1.269838	0.217282	0.617884
O24	O	1.603172	0.550615	0.951217
O25	O	1.129238	-0.244075	0.284496
O26	O	1.462571	0.089259	0.617829
O27	O	1.795905	0.422592	0.951163
O28	O	1.019637	-0.116056	0.367700
O29	O	1.352971	0.217278	0.701033
O30	O	1.686304	0.550611	1.034366
O31	O	0.936438	-0.188883	0.174778
O32	O	1.269771	0.144451	0.508111
O33	O	1.603104	0.477784	0.841445
O34	O	0.826701	-0.188877	0.284492
O35	O	1.160035	0.144457	0.617825
O36	O	1.493368	0.477790	0.951158
O37	O	0.936356	-0.244064	0.477338
O38	O	1.269690	0.089269	0.810671
O39	O	1.603023	0.422603	1.144005
O40	O	0.826637	-0.244059	0.367597
O41	O	1.159971	0.089274	0.700930
O42	O	1.493304	0.422608	1.034263
O43	O	1.019553	-0.188886	0.477383
O44	O	1.352886	0.144448	0.810716
O45	O	1.686219	0.477781	1.144049
O46	O	1.019435	-0.316900	0.284437
O47	O	1.352768	0.016434	0.617771
O48	O	1.686101	0.349767	0.951104
O49	O	0.936289	-0.316895	0.367566
O50	O	1.269622	0.016438	0.700899
O51	O	1.602956	0.349772	1.034232
C52	C	0.802110	-0.216467	0.326041
C53	C	1.135444	0.116866	0.659375
C54	C	1.468777	0.450200	0.992708
C55	C	0.726878	-0.216474	0.326048
C56	C	1.060212	0.116859	0.659381
C57	C	1.393545	0.450193	0.992715
C58	C	0.977863	-0.333198	0.326006
C59	C	1.311197	0.000135	0.659340
C60	C	1.644530	0.333469	0.992673
C61	C	0.977881	-0.383133	0.326004
C62	C	1.311214	-0.049799	0.659338
C63	C	1.644548	0.283534	0.992671
C64	C	0.691519	-0.245251	0.369251
C65	C	1.024852	0.088083	0.702584
C66	C	1.358185	0.421416	1.035917
C67	C	0.620830	-0.245251	0.369260
C68	C	0.954164	0.088082	0.702594
C69	C	1.287497	0.421415	1.035927
C70	C	0.585503	-0.216478	0.326063
C71	C	0.918836	0.116856	0.659397
C72	C	1.252170	0.450189	0.992730
C73	C	0.620868	-0.187698	0.282859
C74	C	0.954201	0.145636	0.616192
C75	C	1.287534	0.478969	0.949525
C76	C	0.691555	-0.187695	0.282853
C77	C	1.024888	0.145638	0.616186
C78	C	1.358221	0.478972	0.949520
C79	C	0.335794	-0.187708	0.282881
C80	C	0.669128	0.145626	0.616214
C81	C	1.002461	0.478959	0.949548
C82	C	0.265102	-0.187714	0.282889
C83	C	0.598436	0.145620	0.616222
C84	C	0.931769	0.478953	0.949555
C85	C	0.265070	-0.245264	0.369288
C86	C	0.598403	0.088069	0.702622
C87	C	0.931736	0.421403	1.035955
C88	C	0.335757	-0.245261	0.369283
C89	C	0.669090	0.088072	0.702616
C90	C	1.002424	0.421405	1.035949
C91	C	0.371115	-0.216480	0.326081
C92	C	0.704449	0.116853	0.659414
C93	C	1.037782	0.450186	0.992748
C94	C	0.447764	-0.216479	0.326072
C95	C	0.781097	0.116854	0.659405
C96	C	1.114431	0.450188	0.992739
C97	C	0.508856	-0.216481	0.326068
C98	C	0.842189	0.116853	0.659402
C99	C	1.175522	0.450186	0.992735
C100	C	1.021244	-0.692743	0.369421
C101	C	1.354577	-0.359410	0.702754
C102	C	1.687911	-0.026076	1.036088
C103	C	1.021317	-0.880416	0.369462
C104	C	1.354651	-0.547083	0.702795
C105	C	1.687984	-0.213749	1.036128
O106	O	1.058085	-0.904653	0.406333
O107	O	1.391418	-0.571320	0.739667
O108	O	1.724752	-0.237986	1.073000
N109	N	0.978081	-0.903918	0.326138
N110	N	1.311415	-0.570584	0.659472
N111	N	1.644748	-0.237251	0.992805
C112	C	0.934821	-0.880498	0.282805
C113	C	1.268154	-0.547165	0.616138
C114	C	1.601487	-0.213831	0.949472
O115	O	0.898043	-0.904794	0.245962
O116	O	1.231376	-0.571460	0.579295
O117	O	1.564709	-0.238127	0.912629
C118	C	0.934744	-0.692826	0.282768
C119	C	1.268078	-0.359492	0.616102
C120	C	1.601411	-0.026159	0.949435
C121	C	0.977988	-0.669327	0.326090
C122	C	1.311321	-0.335993	0.659423
C123	C	1.644655	-0.002660	0.992756
C124	C	1.064484	-0.669244	0.412739
C125	C	1.397817	-0.335911	0.746072
C126	C	1.731150	-0.002577	1.079406
C127	C	1.064467	-0.622328	0.412726
C128	C	1.397801	-0.288995	0.746059
C129	C	1.731134	0.044338	1.079393
C130	C	1.021212	-0.598912	0.369394
C131	C	1.354545	-0.265579	0.702728
C132	C	1.687878	0.067755	1.036061
C133	C	0.977972	-0.622411	0.326076
C134	C	1.311305	-0.289078	0.659410
C135	C	1.644639	0.044255	0.992743
C136	C	0.891481	-0.669407	0.239439
C137	C	1.224814	-0.336074	0.572772
C138	C	1.558147	-0.002740	0.906106
C139	C	0.891464	-0.622486	0.239435
C140	C	1.224798	-0.289153	0.572768
C141	C	1.558131	0.044181	0.906102
C142	C	0.934708	-0.598987	0.282756
C143	C	1.268041	-0.265654	0.616089
C144	C	1.601375	0.067680	0.949423
C145	C	0.934700	-0.552079	0.282732
C146	C	1.268033	-0.218746	0.616065
C147	C	1.601367	0.114587	0.949398
N148	N	0.977936	-0.528578	0.326055
N149	N	1.311269	-0.195245	0.659388
N150	N	1.644603	0.138089	0.992722
C151	C	1.021192	-0.551994	0.369386
C152	C	1.354525	-0.218661	0.702720
C153	C	1.687858	0.114672	1.036053
C154	C	0.934865	-0.979029	0.282827
C155	C	1.268198	-0.645695	0.616160
C156	C	1.601531	-0.312362	0.949493
C157	C	0.934885	-1.025946	0.282835
C158	C	1.268218	-0.692613	0.616168
C159	C	1.601551	-0.359280	0.949501
C160	C	1.021381	-1.025861	0.369492
C161	C	1.354714	-0.692528	0.702826
C162	C	1.688047	-0.359195	1.036159
C163	C	1.021364	-0.978943	0.369480
C164	C	1.354697	-0.645609	0.702813
C165	C	1.688030	-0.312276	1.036147
C166	C	0.978101	-0.955527	0.326150
C167	C	1.311434	-0.622194	0.659483
C168	C	1.644768	-0.288860	0.992816
C169	C	1.021155	-0.453468	0.369355
C170	C	1.354488	-0.120135	0.702688
C171	C	1.687822	0.213198	1.036022
C172	C	1.021137	-0.406549	0.369336
C173	C	1.354470	-0.073216	0.702669
C174	C	1.687804	0.260118	1.036002
C175	C	0.934639	-0.406638	0.282681
C176	C	1.267972	-0.073305	0.616014
C177	C	1.601305	0.260029	0.949348
C178	C	0.934659	-0.453554	0.282697
C179	C	1.267992	-0.120220	0.616031
C180	C	1.601326	0.213113	0.949364
C181	C	0.977919	-0.476968	0.326040
C182	C	1.311253	-0.143634	0.659373
C183	C	1.644586	0.189699	0.992706
O184	O	0.897946	-0.527814	0.245885
O185	O	1.231279	-0.194480	0.579218
O186	O	1.564613	0.138853	0.912551
O187	O	1.057954	-0.527690	0.406235
O188	O	1.391287	-0.194357	0.739568
O189	O	1.724621	0.138976	1.072901
C190	C	1.021260	-0.739658	0.369434
C191	C	1.354594	-0.406325	0.702767
C192	C	1.687927	-0.072992	1.036101
C193	C	0.978020	-0.763158	0.326116
C194	C	1.311354	-0.429824	0.659449
C195	C	1.644687	-0.096491	0.992783
C196	C	0.934765	-0.739741	0.282785
C197	C	1.268098	-0.406408	0.616118
C198	C	1.601431	-0.073075	0.949451
C199	C	0.978040	-0.810075	0.326124
C200	C	1.311374	-0.476742	0.659457
C201	C	1.644707	-0.143409	0.992791
C202	C	1.021296	-0.833492	0.369456
C203	C	1.354630	-0.500158	0.702789
C204	C	1.687963	-0.166825	1.036122
C205	C	1.064532	-0.809990	0.412779
C206	C	1.397866	-0.476657	0.746112
C207	C	1.731199	-0.143324	1.079445
C208	C	1.064516	-0.763075	0.412765
C209	C	1.397849	-0.429741	0.746099
C210	C	1.731183	-0.096408	1.079432
C211	C	0.891529	-0.763243	0.239461
C212	C	1.224862	-0.429909	0.572795
C213	C	1.558195	-0.096576	0.906128
C214	C	0.891549	-0.810158	0.239478
C215	C	1.224882	-0.476825	0.572811
C216	C	1.558215	-0.143492	0.906144
C217	C	0.934805	-0.833575	0.282809
C218	C	1.268138	-0.500241	0.616142
C219	C	1.601471	-0.166908	0.949476
C220	C	1.154509	-0.216484	0.326086
C221	C	1.487842	0.116849	0.659419
C222	C	1.821176	0.450182	0.992752
C223	C	1.229741	-0.216488	0.326095
C224	C	1.563074	0.116845	0.659429
C225	C	1.896408	0.450178	0.992762
C226	C	0.977952	-0.216475	0.502606
C227	C	1.311286	0.116859	0.835939
C228	C	1.644619	0.450192	1.169273
C229	C	0.977947	-0.216474	0.577838
C230	C	1.311280	0.116859	0.911171
C231	C	1.644613	0.450192	1.244505
C232	C	0.978088	-0.099297	0.326135
C233	C	1.311422	0.234036	0.659469
C234	C	1.644755	0.567370	0.992802
C235	C	0.978141	-0.049363	0.326166
C236	C	1.311474	0.283971	0.659499
C237	C	1.644807	0.617304	0.992833
C238	C	1.021230	-0.245216	1.039614
C239	C	1.354563	0.088117	1.372948
C240	C	1.687897	0.421450	1.706281
C241	C	1.021224	-0.245217	0.968926
C242	C	1.354557	0.088117	1.302259
C243	C	1.687891	0.421450	1.635593
C244	C	0.977966	-0.216484	0.933600
C245	C	1.311299	0.116850	1.266933
C246	C	1.644633	0.450183	1.600266
C247	C	0.934706	-0.187751	0.968966
C248	C	1.268039	0.145582	1.302299
C249	C	1.601373	0.478915	1.635632
C250	C	0.934709	-0.187754	1.039653
C251	C	1.268042	0.145580	1.372986
C252	C	1.601376	0.478913	1.706319
C253	C	0.934693	-0.187742	0.683892
C254	C	1.268026	0.145591	1.017226
C255	C	1.601359	0.478925	1.350559
C256	C	0.934694	-0.187741	0.613200
C257	C	1.268028	0.145592	0.946534
C258	C	1.601361	0.478926	1.279867
C259	C	1.021207	-0.245205	0.613165
C260	C	1.354541	0.088128	0.946499
C261	C	1.687874	0.421462	1.279832
C262	C	1.021210	-0.245207	0.683853
C263	C	1.354544	0.088126	1.017186
C264	C	1.687877	0.421459	1.350519
C265	C	0.977948	-0.216477	0.719212
C266	C	1.311282	0.116856	1.052546
C267	C	1.644615	0.450190	1.385879
C268	C	0.977954	-0.216478	0.795861
C269	C	1.311288	0.116856	1.129194
C270	C	1.644621	0.450189	1.462527
C271	C	0.977963	-0.216480	0.856953
C272	C	1.311296	0.116853	1.190286
C273	C	1.644630	0.450186	1.523619
C274	C	0.977974	-0.216486	1.150207
C275	C	1.311307	0.116847	1.483541
C276	C	1.644640	0.450181	1.816874
C277	C	0.977975	-0.216485	1.074975
C278	C	1.311308	0.116848	1.408309
C279	C	1.644642	0.450181	1.741642
H280	H	0.720277	-0.268683	0.404425
H281	H	1.053610	0.064650	0.737758
H282	H	1.386944	0.397983	1.071091
F283	F	0.888650	-0.157158	0.575605
F284	F	1.221984	0.176175	0.908938
F285	F	1.555317	0.509509	1.242271
H286	H	0.592043	-0.268685	0.404440
H287	H	0.925377	0.064649	0.737773
H288	H	1.258710	0.397982	1.071106
H289	H	0.899634	-0.959967	0.247540
H290	H	1.232967	-0.626633	0.580873
H291	H	1.566301	-0.293300	0.914207
H292	H	0.364517	-0.268694	0.404456
H293	H	0.697850	0.064640	0.737789
H294	H	1.031184	0.397973	1.071123
H295	H	0.720344	-0.164260	0.247677
H296	H	1.053677	0.169074	0.581010
H297	H	1.387010	0.502407	0.914343
F298	F	0.888606	-0.381708	0.236566
F299	F	1.221939	-0.048375	0.569900
F300	F	1.555273	0.284958	0.903233
F301	F	0.888625	-0.157181	0.721516
F302	F	1.221958	0.176153	1.054849
F303	F	1.555292	0.509486	1.388182
F304	F	0.845452	-0.694406	0.193332
F305	F	1.178786	-0.361073	0.526665
F306	F	1.512119	-0.027740	0.859998
H307	H	0.856232	-0.603423	0.204151
H308	H	1.189566	-0.270090	0.537484
H309	H	1.522899	0.063243	0.870817
H310	H	1.056353	-0.387417	0.404613
H311	H	1.389687	-0.054084	0.737946
H312	H	1.723020	0.279249	1.071280
H313	H	0.364575	-0.164276	0.247698
H314	H	0.697908	0.169058	0.581032
H315	H	1.031241	0.502391	0.914365
H316	H	0.236272	-0.268698	0.404468
H317	H	0.569606	0.064636	0.737801
H318	H	0.902939	0.397969	1.071135
H319	H	0.236341	-0.164280	0.247712
H320	H	0.569674	0.169054	0.581046
H321	H	0.903007	0.502387	0.914379
H322	H	0.899452	-0.472688	0.247416
H323	H	1.232785	-0.139354	0.580750
H324	H	1.566118	0.193979	0.914083
F325	F	0.583268	-0.157071	0.236889
F326	F	0.916601	0.176262	0.570223
F327	F	1.249934	0.509595	0.903556
F328	F	1.067263	-0.275795	0.931295
F329	F	1.400596	0.057538	1.264629
F330	F	1.733930	0.390871	1.597962
F331	F	1.067198	-0.478381	0.415484
F332	F	1.400532	-0.145048	0.748817
F333	F	1.733865	0.188286	1.082150
F334	F	1.110542	-0.738071	0.458875
F335	F	1.443875	-0.404738	0.792208
F336	F	1.777208	-0.071405	1.125542
H337	H	0.899487	-0.164358	1.068443
H338	H	1.232820	0.168976	1.401776
H339	H	1.566154	0.502309	1.735109
H340	H	1.099755	-0.829064	0.448058
H341	H	1.433088	-0.495731	0.781392
H342	H	1.766422	-0.162397	1.114725
H343	H	0.856336	-0.829287	0.204194
H344	H	1.189669	-0.495954	0.537527
H345	H	1.523002	-0.162621	0.870861
H346	H	1.056602	-1.044935	0.404774
H347	H	1.389935	-0.711601	0.738107
H348	H	1.723269	-0.378268	1.071440
H349	H	1.056438	-0.268603	0.712612
H350	H	1.389771	0.064730	1.045945
H351	H	1.723105	0.398064	1.379278
F352	F	0.888674	-0.157167	0.931367
F353	F	1.222007	0.176166	1.264700
F354	F	1.555341	0.509500	1.598034
H355	H	1.099678	-0.603198	0.448004
H356	H	1.433012	-0.269865	0.781337
H357	H	1.766345	0.063468	1.114670
F358	F	1.067388	-0.953937	0.415589
F359	F	1.400722	-0.620604	0.748922
F360	F	1.734055	-0.287271	1.082255
H361	H	1.099708	-0.688305	0.448029
H362	H	1.433041	-0.354971	0.781362
H363	H	1.766374	-0.021638	1.114695
H364	H	1.056459	-0.268612	1.068372
H365	H	1.389792	0.064721	1.401705
H366	H	1.723126	0.398055	1.735039
F367	F	0.888867	-1.050951	0.236718
F368	F	1.222201	-0.717617	0.570051
F369	F	1.555534	-0.384284	0.903385
F370	F	0.845484	-0.738328	0.193343
F371	F	1.178817	-0.404994	0.526676
F372	F	1.512151	-0.071661	0.860009
F373	F	1.067250	-0.275784	0.575528
F374	F	1.400583	0.057550	0.908861
F375	F	1.733916	0.390883	1.242194
