data_functionalizedCrystal
_audit_creation_method	'MofGen! by Chris Wilmer'
_symmetry_space_group_name_H-M	'P1'
_symmetry_Int_Tables_number	1
_symmetry_cell_setting	triclinic
loop_
_symmetry_equiv_pos_as_xyz
  x,y,z
_cell_length_a	18.215407
_cell_length_b	16.625546
_cell_length_c	18.215407
_cell_angle_alpha	90.016192
_cell_angle_beta	90.002522
_cell_angle_gamma	90.019912
loop_
_atom_site_label
_atom_site_type_symbol
_atom_site_fract_x
_atom_site_fract_y
_atom_site_fract_z
Zn1	Zn	1.124976	-0.321168	0.416061
Zn2	Zn	1.124922	-0.455978	0.292992
Zn3	Zn	1.001941	-0.321157	0.293014
Zn4	Zn	1.001880	-0.455957	0.416022
O5	O	1.063430	-0.388565	0.354522
O6	O	1.227953	-0.339065	0.399743
O7	O	1.108611	-0.438098	0.190011
O8	O	1.018310	-0.208326	0.309361
O9	O	1.227913	-0.438109	0.309325
O10	O	1.108704	-0.208334	0.399764
O11	O	1.018257	-0.339046	0.190027
O12	O	0.898949	-0.339025	0.309324
O13	O	1.018206	-0.438072	0.519012
O14	O	0.898904	-0.438061	0.399698
O15	O	1.108645	-0.339044	0.519040
O16	O	1.108552	-0.568808	0.309287
O17	O	1.018154	-0.568792	0.399677
C18	C	0.872224	-0.388540	0.354509
C19	C	0.790425	-0.388549	0.354521
C20	C	0.602251	-0.337083	0.401676
C21	C	0.525392	-0.337090	0.401679
C22	C	0.525361	-0.440070	0.307381
C23	C	0.602218	-0.440058	0.307375
C24	C	0.640661	-0.388566	0.354527
C25	C	0.486945	-0.388584	0.354535
C26	C	0.403611	-0.388592	0.354538
C27	C	0.724000	-0.388557	0.354524
C28	C	1.063360	-0.598056	0.354491
C29	C	1.063398	-0.687677	0.354503
C30	C	1.063526	-1.015852	0.354579
C31	C	1.063488	-0.924544	0.354560
C32	C	1.063461	-0.851768	0.354541
C33	C	1.063424	-0.760453	0.354522
C34	C	1.255383	-0.388590	0.354536
C35	C	1.337182	-0.388601	0.354541
C36	C	1.063425	-0.388557	0.546475
C37	C	1.063423	-0.388554	0.628274
C38	C	1.063520	-0.178256	0.354569
C39	C	1.063558	-0.088635	0.354589
C40	C	1.016377	-0.336998	0.816477
C41	C	1.016373	-0.337004	0.893336
C42	C	1.110463	-0.440147	0.893309
C43	C	1.110462	-0.440144	0.816451
C44	C	1.063420	-0.388565	0.778037
C45	C	1.063418	-0.388574	0.931754
C46	C	1.063415	-0.388581	1.015087
C47	C	1.063422	-0.388558	0.694699
C48	C	1.063425	-0.388589	1.163316
C49	C	1.063415	-0.388585	1.081517
H50	H	0.978072	-0.294999	0.785203
O51	O	0.639675	-0.287021	0.447371
C52	C	0.726434	-0.178128	0.457439
C53	C	0.684114	-0.234788	0.405607
H54	H	0.762361	-0.135872	0.423693
H55	H	0.762463	-0.215157	0.495849
H56	H	0.685760	-0.141370	0.491152
H57	H	0.724735	-0.271558	0.371846
H58	H	0.648074	-0.197713	0.367246
H59	H	0.978065	-0.295014	0.924630
O60	O	0.487983	-0.490177	0.261691
C61	C	0.401154	-0.599004	0.251625
C62	C	0.443450	-0.542317	0.303452
H63	H	0.365127	-0.641162	0.285368
H64	H	0.441777	-0.635858	0.217936
H65	H	0.365204	-0.561913	0.213193
H66	H	0.479400	-0.579346	0.341929
H67	H	0.402787	-0.505461	0.337089
O68	O	0.488194	-0.287056	0.447551
C69	C	0.496340	-0.184882	0.541052
C70	C	0.538558	-0.241521	0.489151
H71	H	0.537041	-0.148040	0.574689
H72	H	0.460373	-0.221929	0.579524
H73	H	0.460344	-0.142703	0.507324
H74	H	0.574594	-0.283711	0.522820
H75	H	0.574478	-0.204424	0.450677
H76	H	0.633493	-0.481982	0.268977
H77	H	1.148764	-0.482140	0.924594
O78	O	1.156233	-0.490265	0.779220
C79	C	1.249524	-0.592605	0.787297
C80	C	1.197746	-0.535872	0.829553
H81	H	1.283090	-0.629506	0.827973
H82	H	1.288067	-0.555628	0.751345
H83	H	1.215704	-0.634725	0.751282
H84	H	1.231507	-0.493742	0.865607
H85	H	1.159201	-0.572899	0.865459
