data_functionalizedCrystal
_audit_creation_method	'MofGen! by Chris Wilmer'
_symmetry_space_group_name_H-M	'P1'
_symmetry_Int_Tables_number	1
_symmetry_cell_setting	triclinic
loop_
_symmetry_equiv_pos_as_xyz
  x,y,z
_cell_length_a	18.101398
_cell_length_b	12.645329
_cell_length_c	12.645331
_cell_angle_alpha	90.001706
_cell_angle_beta	90.011652
_cell_angle_gamma	89.976427
loop_
_atom_site_label
_atom_site_type_symbol
_atom_site_fract_x
_atom_site_fract_y
_atom_site_fract_z
Zn1	Zn	1.132052	0.422372	0.599605
Zn2	Zn	1.131988	0.599578	0.422346
Zn3	Zn	1.008239	0.422322	0.422333
Zn4	Zn	1.008173	0.599587	0.599544
O5	O	1.070113	0.510965	0.510957
O6	O	1.235676	0.445896	0.576123
O7	O	1.115573	0.576040	0.273997
O8	O	1.024718	0.273981	0.445868
O9	O	1.235629	0.576088	0.445891
O10	O	1.115683	0.274018	0.576110
O11	O	1.024656	0.445811	0.273987
O12	O	0.904598	0.445819	0.445809
O13	O	1.024605	0.576103	0.747899
O14	O	0.904549	0.576055	0.576005
O15	O	1.115618	0.445904	0.747945
O16	O	1.115509	0.747926	0.445832
O17	O	1.024543	0.747933	0.576018
C18	C	0.877702	0.510933	0.510899
C19	C	0.795388	0.510946	0.510900
C20	C	0.644680	0.510967	0.510948
C21	C	0.613332	0.428909	0.429168
C22	C	0.527714	0.428601	0.429436
C23	C	0.496297	0.510989	0.510993
C24	C	0.527417	0.481216	0.622838
C25	C	0.613062	0.480608	0.622339
C26	C	0.613088	0.623011	0.481868
C27	C	0.527437	0.622419	0.479431
C28	C	0.412438	0.511003	0.511025
C29	C	0.728539	0.510951	0.510923
C30	C	1.070032	0.786394	0.510943
C31	C	1.070064	0.904224	0.510972
C32	C	1.012807	0.949155	0.592826
C33	C	1.013032	1.071714	0.593185
C34	C	1.148230	1.072010	0.541095
C35	C	1.147842	0.949412	0.541652
C36	C	1.049958	0.949462	0.398869
C37	C	1.048293	1.072070	0.399503
C38	C	1.263275	0.510997	0.511015
C39	C	1.345589	0.511010	0.511040
C40	C	1.070111	0.511010	0.787462
C41	C	1.070111	0.511030	0.905292
C42	C	1.070191	1.234459	0.511001
C43	C	1.070162	1.116629	0.511037
C44	C	1.012644	0.592629	1.072828
C45	C	1.012819	0.592976	0.950268
C46	C	1.148130	0.541373	0.949823
C47	C	1.147790	0.541941	1.072421
C48	C	1.050219	0.398806	1.072487
C49	C	1.048503	0.399422	0.949880
C50	C	1.070106	0.510959	1.235527
C51	C	1.070098	0.510986	1.117697
H52	H	0.634871	0.346356	0.448226
H53	H	0.505988	0.400237	0.647852
H54	H	1.086963	1.102656	0.335290
O55	O	0.641653	0.659040	0.375634
H56	H	0.678690	0.597482	0.342372
O57	O	0.639549	0.372138	0.654886
H58	H	0.673710	0.378847	0.727477
O59	O	1.171202	1.112611	0.648472
H60	H	1.223280	1.158282	0.640841
O61	O	0.640544	0.556360	0.705846
H62	H	0.592660	0.593258	0.746413
H63	H	0.507243	0.345582	0.448742
O64	O	1.170858	0.648820	0.909175
H65	H	1.226109	0.669393	0.941200
H66	H	1.191970	0.919680	0.484612
O67	O	0.499841	0.453193	0.319599
H68	H	0.465661	0.526049	0.321921
H69	H	1.092067	0.337976	1.101506
H70	H	1.192098	0.483761	0.920694
H71	H	0.633356	0.684142	0.541433
O72	O	0.975796	0.908637	0.362533
H73	H	0.952437	0.855643	0.423978
O74	O	0.500462	0.557958	0.705798
H75	H	0.464510	0.618275	0.668102
H76	H	0.994306	0.371181	1.103383
H77	H	0.991087	0.376541	0.920773
H78	H	0.955149	1.101890	0.574397
H79	H	0.954605	0.573849	1.102293
O80	O	0.500495	0.652180	0.370398
H81	H	0.439207	0.654960	0.370199
H82	H	0.506044	0.686795	0.534613
O83	O	0.936187	0.567792	0.910385
H84	H	0.896801	0.628309	0.939807
H85	H	0.954713	0.919769	0.574243
H86	H	1.087306	0.335347	0.919264
O87	O	1.030233	0.908314	0.702236
H88	H	1.079500	0.856157	0.698570
H89	H	1.026407	1.101008	0.676260
O90	O	1.170352	0.911467	0.650201
H91	H	1.181412	0.980682	0.701803
O92	O	1.206226	1.111174	0.464759
H93	H	1.192197	1.084725	0.383507
O94	O	0.640588	0.453192	0.318973
H95	H	0.622177	0.533643	0.295746
H96	H	0.990840	1.101247	0.376830
H97	H	1.091657	0.920389	0.337884
O98	O	1.029822	0.702095	1.113693
H99	H	1.079108	0.698608	1.165813
H100	H	1.025953	0.676111	0.920956
O101	O	1.170101	0.650565	1.110337
H102	H	1.181029	0.702196	1.041108
O103	O	1.206427	0.466615	1.111756
H104	H	1.234904	0.429951	1.043209
