data_functionalizedCrystal
_audit_creation_method	'MofGen! by Chris Wilmer'
_symmetry_space_group_name_H-M	'P1'
_symmetry_Int_Tables_number	1
_symmetry_cell_setting	triclinic
loop_
_symmetry_equiv_pos_as_xyz
  x,y,z
_cell_length_a	16.959455
_cell_length_b	16.959453
_cell_length_c	21.395355
_cell_angle_alpha	89.982675
_cell_angle_beta	89.970528
_cell_angle_gamma	90.017008
loop_
_atom_site_label
_atom_site_type_symbol
_atom_site_fract_x
_atom_site_fract_y
_atom_site_fract_z
Zn1	Zn	1.208455	-0.314836	-0.354349
Zn2	Zn	1.708455	0.185164	0.145651
Zn3	Zn	1.208357	-0.446997	-0.249574
Zn4	Zn	1.708357	0.053003	0.250426
Zn5	Zn	1.076263	-0.314829	-0.249577
Zn6	Zn	1.576263	0.185171	0.250423
Zn7	Zn	1.076249	-0.446969	-0.354305
Zn8	Zn	1.576249	0.053031	0.145695
O9	O	1.142331	-0.380908	-0.301951
O10	O	1.642331	0.119092	0.198049
O11	O	1.319053	-0.332382	-0.340467
O12	O	1.819053	0.167618	0.159533
O13	O	1.190799	-0.429473	-0.161896
O14	O	1.690799	0.070527	0.338104
O15	O	1.093845	-0.204219	-0.263495
O16	O	1.593845	0.295781	0.236505
O17	O	1.318981	-0.429479	-0.263489
O18	O	1.818981	0.070521	0.236511
O19	O	1.190967	-0.204224	-0.340470
O20	O	1.690967	0.295776	0.159530
O21	O	1.093750	-0.332370	-0.161898
O22	O	1.593750	0.167630	0.338102
O23	O	0.965650	-0.332344	-0.263452
O24	O	1.465650	0.167656	0.236548
O25	O	1.093821	-0.429433	-0.441989
O26	O	1.593821	0.070567	0.058011
O27	O	0.965640	-0.429427	-0.340395
O28	O	1.465640	0.070573	0.159605
O29	O	1.190953	-0.332355	-0.442021
O30	O	1.690953	0.167645	0.057979
O31	O	1.190785	-0.557604	-0.263447
O32	O	1.690785	-0.057604	0.236553
O33	O	1.093726	-0.557584	-0.340392
O34	O	1.593726	-0.057584	0.159608
C35	C	0.936965	-0.380882	-0.301919
C36	C	1.436965	0.119118	0.198081
C37	C	0.849108	-0.380890	-0.301921
C38	C	1.349108	0.119110	0.198079
C39	C	0.477584	-0.431417	-0.261848
C40	C	0.977584	0.068583	0.238152
C41	C	0.477681	-0.330465	-0.342130
C42	C	0.977681	0.169535	0.157870
C43	C	0.560227	-0.330452	-0.342115
C44	C	1.060227	0.169548	0.157885
C45	C	0.601455	-0.380923	-0.301966
C46	C	1.101455	0.119077	0.198034
C47	C	0.560138	-0.431407	-0.261833
C48	C	1.060138	0.068593	0.238167
C49	C	0.601550	-0.279974	-0.382252
C50	C	1.101550	0.220026	0.117748
C51	C	0.684101	-0.279960	-0.382239
C52	C	1.184101	0.220040	0.117761
C53	C	0.725331	-0.330427	-0.342087
C54	C	1.225331	0.169573	0.157913
C55	C	0.684009	-0.380913	-0.301951
C56	C	1.184009	0.119087	0.198049
C57	C	0.725237	-0.431384	-0.261803
C58	C	1.225237	0.068616	0.238197
C59	C	0.683916	-0.481866	-0.221663
C60	C	1.183916	0.018134	0.278337
C61	C	0.601368	-0.481875	-0.221681
C62	C	1.101368	0.018125	0.278319
C63	C	0.807880	-0.330419	-0.342069
C64	C	1.307880	0.169581	0.157931
C65	C	0.807791	-0.431374	-0.261787
C66	C	1.307791	0.068626	0.238213
C67	C	1.142265	-0.586274	-0.301928
C68	C	1.642265	-0.086274	0.198072
C69	C	1.142309	-0.674131	-0.301939
C70	C	1.642309	-0.174131	0.198061
C71	C	1.192967	-1.045550	-0.342108
C72	C	1.692967	-0.545550	0.157892
C73	C	1.091916	-1.045662	-0.261887
C74	C	1.591916	-0.545662	0.238113
C75	C	1.091887	-0.963116	-0.261873
C76	C	1.591887	-0.463116	0.238127
C77	C	1.142397	-0.921784	-0.301977
C78	C	1.642397	-0.421784	0.198023
C79	C	1.192937	-0.962997	-0.342096
C80	C	1.692937	-0.462997	0.157904
C81	C	1.041342	-0.921897	-0.221759
C82	C	1.541342	-0.421897	0.278241
C83	C	1.041310	-0.839346	-0.221744
C84	C	1.541310	-0.339346	0.278256
C85	C	1.091825	-0.798012	-0.261845
C86	C	1.591825	-0.298012	0.238155
C87	C	1.142368	-0.839230	-0.301965
C88	C	1.642368	-0.339230	0.198035
C89	C	1.192879	-0.797897	-0.342070
C90	C	1.692879	-0.297897	0.157930
C91	C	1.243426	-0.839114	-0.382187
C92	C	1.743426	-0.339114	0.117813
C93	C	1.243453	-0.921663	-0.382198
C94	C	1.743453	-0.421663	0.117802
C95	C	1.091798	-0.715463	-0.261835
C96	C	1.591798	-0.215463	0.238165
C97	C	1.192849	-0.715344	-0.342058
C98	C	1.692849	-0.215344	0.157942
C99	C	1.348499	-0.380934	-0.301983
C100	C	1.848499	0.119066	0.198017
C101	C	1.436356	-0.380946	-0.301997
C102	C	1.936356	0.119054	0.198003
C103	C	1.142396	-0.380892	-0.465374
C104	C	1.642396	0.119108	0.034626
C105	C	1.142424	-0.380885	-0.535016
C106	C	1.642424	0.119115	-0.035016
C107	C	1.142419	-0.174740	-0.301988
C108	C	1.642419	0.325260	0.198012
C109	C	1.142456	-0.086883	-0.302003
C110	C	1.642456	0.413117	0.197997
C111	C	1.192999	-0.330334	-0.567747
C112	C	1.692999	0.169666	-0.067747
C113	C	1.192998	-0.330300	-0.633182
C114	C	1.692998	0.169700	-0.133182
C115	C	1.142431	-0.380831	-0.665884
C116	C	1.642431	0.119169	-0.165884
C117	C	1.091846	-0.431385	-0.633145
C118	C	1.591846	0.068615	-0.133145
C119	C	1.091843	-0.431412	-0.567711
C120	C	1.591843	0.068588	-0.067711
C121	C	1.136166	-0.452002	-0.769550
C122	C	1.636166	0.047998	-0.269550
C123	C	1.136175	-0.451976	-0.834983
C124	C	1.636175	0.048024	-0.334983
C125	C	1.142435	-0.380748	-0.867705
C126	C	1.642435	0.119252	-0.367705
C127	C	1.148704	-0.309542	-0.834985
C128	C	1.648704	0.190458	-0.334985
C129	C	1.148701	-0.309569	-0.769551
C130	C	1.648701	0.190431	-0.269551
C131	C	1.142428	-0.380807	-0.736836
C132	C	1.642428	0.119193	-0.236836
C133	C	1.193011	-0.330156	-0.971388
C134	C	1.693011	0.169844	-0.471388
C135	C	1.193005	-0.330121	-1.036825
C136	C	1.693005	0.169879	-0.536825
C137	C	1.091858	-0.431213	-1.036787
C138	C	1.591858	0.068787	-0.536787
C139	C	1.091860	-0.431241	-0.971351
C140	C	1.591860	0.068759	-0.471351
C141	C	1.142441	-0.380714	-0.938656
C142	C	1.642441	0.119286	-0.438656
C143	C	1.142311	-0.380867	-0.139163
C144	C	1.642311	0.119133	0.360837
C145	C	1.142436	-0.380651	-0.069522
C146	C	1.642436	0.119349	0.430478
H147	H	0.841353	-0.472472	-0.229091
H148	H	1.341353	0.027528	0.270909
H149	H	0.717495	-0.522964	-0.188978
H150	H	1.217495	-0.022964	0.311022
Br151	Br	1.023201	-0.659529	-0.207397
Br152	Br	1.523201	-0.159529	0.292603
H153	H	0.443937	-0.472516	-0.229166
H154	H	0.943937	0.027484	0.270834
H155	H	1.050789	-1.079320	-0.229238
H156	H	1.550789	-0.579320	0.270762
H157	H	1.000217	-0.955556	-0.189110
H158	H	1.500217	-0.455556	0.310890
H159	H	1.153803	-0.251591	-0.742914
H160	H	1.653803	0.248409	-0.242914
Br161	Br	0.545285	-0.550380	-0.167212
Br162	Br	1.045285	-0.050380	0.332788
H163	H	1.131076	-0.509956	-0.861618
H164	H	1.631076	-0.009956	-0.361618
Br165	Br	1.261619	-0.261672	-0.677613
Br166	Br	1.761619	0.238328	-0.177613
H167	H	1.233984	-0.681696	-0.374714
H168	H	1.733984	-0.181696	0.125286
Br169	Br	1.127693	-0.548681	-0.725149
Br170	Br	1.627693	-0.048681	-0.225149
Br171	Br	1.311963	-0.783010	-0.436620
Br172	Br	1.811963	-0.283010	0.063380
Br173	Br	1.157207	-0.212868	-0.879384
Br174	Br	1.657207	0.287132	-0.379384
Br175	Br	1.261652	-0.261583	-0.927012
Br176	Br	1.761652	0.238417	-0.427012
Br177	Br	1.261568	-1.101483	-0.396547
Br178	Br	1.761568	-0.601483	0.103453
H179	H	0.717738	-0.238854	-0.414922
H180	H	1.217738	0.261146	0.085078
Br181	Br	1.261660	-0.261522	-1.081247
Br182	Br	1.761660	0.238478	-0.581247
Br183	Br	1.312044	-0.977604	-0.436639
Br184	Br	1.812044	-0.477604	0.063361
Br185	Br	0.972708	-0.783416	-0.167303
Br186	Br	1.472708	-0.283416	0.332697
H187	H	1.050677	-0.472348	-1.063412
H188	H	1.550677	0.027652	-0.563412
Br189	Br	1.261641	-0.261759	-0.523377
Br190	Br	1.761641	0.238241	-0.023377
H191	H	1.050682	-0.472409	-0.944702
H192	H	1.550682	0.027591	-0.444702
Br193	Br	1.023214	-0.499958	-0.677524
Br194	Br	1.523214	0.000042	-0.177524
Br195	Br	1.023200	-0.500021	-0.523287
Br196	Br	1.523200	-0.000021	-0.023287
H197	H	0.444108	-0.289378	-0.374821
H198	H	0.944108	0.210622	0.125179
Br199	Br	0.863955	-0.261920	-0.396544
Br200	Br	1.363955	0.238080	0.103456
Br201	Br	0.545595	-0.211496	-0.436746
Br202	Br	1.045595	0.288504	0.063254
