data_functionalizedCrystal
_audit_creation_method	'MofGen! by Chris Wilmer'
_symmetry_space_group_name_H-M	'P1'
_symmetry_Int_Tables_number	1
_symmetry_cell_setting	triclinic
loop_
_symmetry_equiv_pos_as_xyz
  x,y,z
_cell_length_a	15.944551
_cell_length_b	15.944551
_cell_length_c	15.021413
_cell_angle_alpha	89.996935
_cell_angle_beta	89.997174
_cell_angle_gamma	96.501262
loop_
_atom_site_label
_atom_site_type_symbol
_atom_site_fract_x
_atom_site_fract_y
_atom_site_fract_z
O1	O	1.114529	-0.108321	-0.073941
O2	O	1.614529	0.391679	0.426059
O3	O	0.869979	-0.121677	-0.073964
O4	O	1.369979	0.378323	0.426036
O5	O	0.998932	0.007276	-0.073944
O6	O	1.498932	0.507276	0.426056
O7	O	0.985576	-0.237274	-0.073961
O8	O	1.485576	0.262726	0.426039
O9	O	0.998912	0.007257	0.074121
O10	O	1.498912	0.507257	0.574121
O11	O	0.869959	-0.121695	0.074101
O12	O	1.369959	0.378305	0.574101
O13	O	1.114508	-0.108339	0.074123
O14	O	1.614508	0.391661	0.574123
Zn15	Zn	0.992230	-0.115020	0.097620
Zn16	Zn	1.492230	0.384980	0.597620
Zn17	Zn	0.992257	-0.114996	-0.097461
Zn18	Zn	1.492257	0.385004	0.402539
O19	O	0.985555	-0.237292	0.074103
O20	O	1.485555	0.262708	0.574103
C21	C	0.838675	-0.121132	0.000066
C22	C	1.338675	0.378868	0.500066
C23	C	0.745429	-0.119470	0.000057
C24	C	1.245429	0.380530	0.500057
C25	C	0.530572	-0.035565	0.000081
C26	C	1.030572	0.464435	0.500081
C27	C	0.469562	-0.074518	-0.072926
C28	C	0.969562	0.425482	0.427074
C29	C	0.574703	-0.116462	0.000068
C30	C	1.074703	0.383538	0.500068
C31	C	0.469564	-0.074556	0.073054
C32	C	0.969564	0.425444	0.573054
C33	C	0.409790	-0.113551	0.000083
C34	C	0.909790	0.386449	0.500083
C35	C	0.514921	-0.155438	-0.072998
C36	C	1.014921	0.344562	0.427002
C37	C	0.514930	-0.155464	0.073047
C38	C	1.014930	0.344536	0.573047
C39	C	0.453937	-0.194476	0.000023
C40	C	0.953937	0.305524	0.500023
C41	C	0.669705	-0.118137	0.000059
C42	C	1.169705	0.381863	0.500059
C43	C	0.314789	-0.111883	0.000085
C44	C	0.814789	0.388117	0.500085
C45	C	0.998367	0.038561	0.000089
C46	C	1.498367	0.538561	0.500089
C47	C	0.996705	0.131807	0.000089
C48	C	1.496705	0.631807	0.500089
C49	C	1.145813	-0.108885	0.000092
C50	C	1.645813	0.391115	0.500092
C51	C	1.239059	-0.110547	0.000094
C52	C	1.739059	0.389453	0.500094
C53	C	0.986120	-0.268577	0.000069
C54	C	1.486120	0.231423	0.500069
C55	C	0.987782	-0.361823	0.000063
C56	C	1.487782	0.138177	0.500063
N57	N	0.992218	-0.115036	0.230758
N58	N	1.492218	0.384964	0.730758
C59	C	0.912801	0.346663	0.000069
C60	C	1.412801	0.846663	0.500069
C61	C	0.951753	0.407672	0.073077
C62	C	1.451753	0.907672	0.573077
C63	C	0.993698	0.302533	0.000082
C64	C	1.493698	0.802533	0.500082
C65	C	0.951792	0.407673	-0.072903
C66	C	1.451792	0.907673	0.427097
C67	C	0.990787	0.467445	0.000071
C68	C	1.490787	0.967445	0.500071
C69	C	1.032672	0.362313	0.073150
C70	C	1.532672	0.862313	0.573150
C71	C	1.032700	0.362308	-0.072895
C72	C	1.532700	0.862308	0.427105
C73	C	1.071711	0.423298	0.000131
C74	C	1.571711	0.923298	0.500131
C75	C	0.995372	0.207530	0.000089
C76	C	1.495372	0.707530	0.500089
C77	C	0.989119	0.562446	0.000070
C78	C	1.489119	1.062446	0.500070
N79	N	0.992276	-0.114973	-0.230598
N80	N	1.492276	0.385027	0.269402
C81	C	0.932581	-0.174636	0.470432
C82	C	1.432581	0.325364	0.970432
C83	C	1.008481	-0.190943	0.529772
C84	C	1.508481	0.309057	1.029772
C85	C	0.992239	-0.115015	0.412365
C86	C	1.492239	0.384985	0.912365
C87	C	0.916360	-0.098727	0.529766
C88	C	1.416360	0.401273	1.029766
C89	C	0.992253	-0.114997	0.587789
C90	C	1.492253	0.385003	1.087789
C91	C	1.068178	-0.131360	0.470398
C92	C	1.568178	0.368640	0.970398
C93	C	0.976006	-0.039111	0.470387
C94	C	1.476006	0.460889	0.970387
C95	C	1.051962	-0.055386	0.529701
C96	C	1.551962	0.444614	1.029701
C97	C	0.992230	-0.115028	0.311307
C98	C	1.492230	0.384972	0.811307
C99	C	0.992271	-0.114984	0.688844
C100	C	1.492271	0.385016	1.188844
H101	H	0.535052	-0.189659	0.134767
H102	H	1.035052	0.310341	0.634767
H103	H	0.420779	-0.261683	-0.000023
H104	H	0.920779	0.238317	0.499977
C105	C	0.541933	-0.201610	-0.156477
C106	C	1.041933	0.298390	0.343523
N107	N	0.562281	-0.236383	-0.219354
N108	N	1.062281	0.263617	0.280646
C109	C	0.442399	-0.028282	-0.156298
C110	C	0.942399	0.471718	0.343702
N111	N	0.421941	0.006548	-0.219091
N112	N	0.921941	0.506548	0.280909
C113	C	0.442419	-0.028323	0.156435
C114	C	0.942419	0.471677	0.656435
N115	N	0.421976	0.006505	0.219234
N116	N	0.921976	0.506505	0.719234
C117	C	1.027042	-0.277649	0.565021
C118	C	1.527042	0.222351	1.065021
N119	N	1.041015	-0.342957	0.591570
N120	N	1.541015	0.157043	1.091570
H121	H	0.882181	-0.225096	0.444409
H122	H	1.382181	0.274904	0.944409
H123	H	1.066851	0.342314	0.134941
H124	H	1.566851	0.842314	0.634941
H125	H	0.917528	0.427772	0.134794
H126	H	1.417528	0.927772	0.634794
C127	C	1.120201	0.012736	0.564652
C128	C	1.620201	0.512736	1.064652
N129	N	1.171602	0.064039	0.590984
N130	N	1.671602	0.564039	1.090984
C131	C	1.154896	-0.150069	0.435320
C132	C	1.654896	0.349931	0.935320
N133	N	1.220208	-0.164165	0.408896
N134	N	1.720208	0.335835	0.908896
H135	H	1.066896	0.342185	-0.134615
H136	H	1.566896	0.842185	0.365385
C137	C	1.162502	0.468103	0.000197
C138	C	1.662502	0.968103	0.500197
N139	N	1.230884	0.501853	0.000252
N140	N	1.730884	1.001853	0.500252
H141	H	0.962240	0.025051	0.444283
H142	H	1.462240	0.525051	0.944283
H143	H	0.563905	0.031573	-0.000005
H144	H	1.063905	0.531573	0.499995
C145	C	0.822090	0.301659	0.000160
C146	C	1.322090	0.801659	0.500160
N147	N	0.753769	0.267759	0.000235
N148	N	1.253769	0.767759	0.500235
C149	C	0.905562	0.434819	-0.156285
C150	C	1.405562	0.934819	0.343715
N151	N	0.870735	0.455260	-0.219086
N152	N	1.370735	0.955260	0.280914
H153	H	0.852184	-0.084959	0.555847
H154	H	1.352184	0.415041	1.055847
