data_functionalizedCrystal
_audit_creation_method	'MofGen! by Chris Wilmer'
_symmetry_space_group_name_H-M	'P1'
_symmetry_Int_Tables_number	1
_symmetry_cell_setting	triclinic
loop_
_symmetry_equiv_pos_as_xyz
  x,y,z
_cell_length_a	18.050591
_cell_length_b	18.050589
_cell_length_c	18.050582
_cell_angle_alpha	90.018005
_cell_angle_beta	89.980240
_cell_angle_gamma	89.968854
loop_
_atom_site_label
_atom_site_type_symbol
_atom_site_fract_x
_atom_site_fract_y
_atom_site_fract_z
Zn1	Zn	1.135259	0.295777	-0.420032
Zn2	Zn	1.135156	0.419960	-0.295852
Zn3	Zn	1.011078	0.295781	-0.295846
Zn4	Zn	1.011012	0.419922	-0.419990
O5	O	1.073126	0.357860	-0.357930
O6	O	1.239170	0.312265	-0.403579
O7	O	1.118681	0.403505	-0.191926
O8	O	1.027622	0.191856	-0.312334
O9	O	1.239094	0.403502	-0.312345
O10	O	1.118857	0.191853	-0.403573
O11	O	1.027522	0.312271	-0.191922
O12	O	0.907145	0.312234	-0.312293
O13	O	1.027509	0.403436	-0.523920
O14	O	0.907096	0.403440	-0.403502
O15	O	1.118793	0.312227	-0.523951
O16	O	1.118617	0.523880	-0.312304
O17	O	1.027409	0.523852	-0.403508
C18	C	0.880174	0.357834	-0.357893
C19	C	0.797628	0.357841	-0.357894
C20	C	1.073015	0.550812	-0.357918
C21	C	1.073035	0.633358	-0.357938
C22	C	0.548808	0.308192	-0.308413
C23	C	0.598242	0.290110	-0.376187
C24	C	0.500508	0.357879	-0.357955
C25	C	0.598156	0.375906	-0.290154
C26	C	0.646493	0.357858	-0.357922
C27	C	0.548855	0.339763	-0.425766
C28	C	0.548764	0.425589	-0.339687
C29	C	0.598176	0.407534	-0.407509
C30	C	0.416410	0.357888	-0.357973
C31	C	0.730590	0.357848	-0.357911
C32	C	1.023463	0.832820	-0.407518
C33	C	1.005359	0.882253	-0.339749
C34	C	1.073091	0.784488	-0.357948
C35	C	1.091214	0.882137	-0.425725
C36	C	1.073144	0.930473	-0.357964
C37	C	1.054952	0.832834	-0.290144
C38	C	1.140839	0.832714	-0.376165
C39	C	1.122761	0.882124	-0.308350
C40	C	1.073059	0.700390	-0.357940
C41	C	1.073176	1.014570	-0.357965
C42	C	1.266832	0.357887	-0.357968
C43	C	1.349378	0.357898	-0.357984
C44	C	1.073155	0.357827	-0.551635
C45	C	1.073168	0.357813	-0.634181
C46	C	1.073230	1.164154	-0.357959
C47	C	1.073202	1.081609	-0.357973
C48	C	1.023566	0.407345	-0.833615
C49	C	1.091319	0.425502	-0.883014
C50	C	1.073204	0.357756	-0.785312
C51	C	1.005489	0.339578	-0.882995
C52	C	1.073234	0.357703	-0.931297
C53	C	1.140993	0.375950	-0.833623
C54	C	1.055117	0.289994	-0.833600
C55	C	1.122917	0.308126	-0.882976
C56	C	1.073187	0.357789	-0.701213
C57	C	1.073259	0.357670	-1.015394
C58	C	1.073140	0.357839	-0.164978
C59	C	1.073272	0.357644	-0.082432
H60	H	0.527133	0.266150	-0.266582
H61	H	0.527016	0.482844	-0.324226
Cl62	Cl	0.631788	0.201689	-0.400035
H63	H	0.527289	0.324440	-0.483106
H64	H	0.619715	0.449544	-0.449439
H65	H	1.039781	0.232728	-0.811879
Cl66	Cl	0.631595	0.399461	-0.201652
H67	H	0.981439	0.811171	-0.449378
Cl68	Cl	1.031216	0.799541	-0.201633
Cl69	Cl	0.958816	0.472170	-0.800150
H70	H	0.948092	0.904030	-0.324355
Cl71	Cl	0.917056	0.315873	-0.916480
H72	H	1.164956	0.266168	-0.904513
H73	H	1.164753	0.903636	-0.266389
H74	H	1.106635	0.482785	-0.904719
Cl75	Cl	1.229235	0.799091	-0.399983
H76	H	1.106522	0.903794	-0.483037
H77	H	1.198289	0.391368	-0.812027
