data_functionalizedCrystal
_audit_creation_method	'MofGen! by Chris Wilmer'
_symmetry_space_group_name_H-M	'P1'
_symmetry_Int_Tables_number	1
_symmetry_cell_setting	triclinic
loop_
_symmetry_equiv_pos_as_xyz
  x,y,z
_cell_length_a	17.699104
_cell_length_b	17.699083
_cell_length_c	13.448316
_cell_angle_alpha	89.992503
_cell_angle_beta	89.992351
_cell_angle_gamma	83.287266
loop_
_atom_site_label
_atom_site_type_symbol
_atom_site_fract_x
_atom_site_fract_y
_atom_site_fract_z
O1	O	1.004068	0.095788	-0.082714
O2	O	1.504068	0.595788	0.417286
O3	O	0.783692	0.108224	-0.082712
O4	O	1.283692	0.608224	0.417288
O5	O	0.900106	-0.008183	-0.082704
O6	O	1.400106	0.491817	0.417296
O7	O	0.887654	0.212195	-0.082722
O8	O	1.387654	0.712195	0.417278
O9	O	0.900092	-0.008190	0.082680
O10	O	1.400092	0.491810	0.582680
O11	O	0.783677	0.108217	0.082672
O12	O	1.283677	0.608217	0.582672
O13	O	1.004054	0.095781	0.082670
O14	O	1.504054	0.595781	0.582670
Cu15	Cu	0.893864	0.101998	0.097772
Cu16	Cu	1.393864	0.601998	0.597772
Cu17	Cu	0.893881	0.102007	-0.097814
Cu18	Cu	1.393881	0.602007	0.402186
O19	O	0.887639	0.212188	0.082662
O20	O	1.387639	0.712188	0.582662
C21	C	0.755488	0.107772	-0.000019
C22	C	1.255488	0.607772	0.499981
C23	C	0.671471	0.106427	-0.000018
C24	C	1.171471	0.606427	0.499982
C25	C	0.146600	0.167171	-0.000034
C26	C	0.646600	0.667171	0.499966
C27	C	0.225543	0.168430	-0.000037
C28	C	0.725543	0.668430	0.499963
C29	C	0.274161	0.100095	-0.000031
C30	C	0.774161	0.600095	0.499969
C31	C	0.243831	0.030496	-0.000032
C32	C	0.743831	0.530496	0.499968
C33	C	0.164889	0.029238	-0.000037
C34	C	0.664889	0.529238	0.499963
C35	C	0.562197	0.035569	-0.000017
C36	C	1.062197	0.535569	0.499983
C37	C	0.641144	0.036833	-0.000010
C38	C	1.141144	0.536833	0.499990
C39	C	0.622852	0.174762	-0.000017
C40	C	1.122852	0.674762	0.499983
C41	C	0.543909	0.173503	-0.000021
C42	C	1.043909	0.673503	0.499979
C43	C	0.513587	0.103905	-0.000028
C44	C	1.013587	0.603905	0.499972
C45	C	0.427987	0.102541	-0.000027
C46	C	0.927987	0.602541	0.499973
C47	C	0.359759	0.101459	-0.000025
C48	C	0.859759	0.601459	0.499975
C49	C	0.899653	-0.036383	-0.000012
C50	C	1.399653	0.463617	0.499988
C51	C	0.898314	-0.120402	-0.000012
C52	C	1.398314	0.379598	0.499988
C53	C	0.966647	-0.169017	-0.000011
C54	C	1.466647	0.330983	0.499989
C55	C	0.965385	-0.247961	-0.000020
C56	C	1.465385	0.252039	0.499980
C57	C	0.895789	-0.278287	-0.000022
C58	C	1.395789	0.221713	0.499978
C59	C	0.827451	-0.229665	-0.000026
C60	C	1.327451	0.270335	0.499974
C61	C	0.828714	-0.150723	-0.000024
C62	C	1.328714	0.349277	0.499976
C63	C	0.822356	-0.548028	-0.000034
C64	C	1.322356	-0.048028	0.499966
C65	C	0.821098	-0.626976	-0.000033
C66	C	1.321098	-0.126976	0.499967
C67	C	0.959026	-0.645266	-0.000029
C68	C	1.459026	-0.145266	0.499971
C69	C	0.960289	-0.566324	-0.000028
C70	C	1.460289	-0.066324	0.499972
C71	C	0.891952	-0.517709	-0.000037
C72	C	1.391952	-0.017709	0.499963
C73	C	0.893321	-0.432110	-0.000029
C74	C	1.393321	0.067890	0.499971
C75	C	0.894419	-0.363885	-0.000023
C76	C	1.394419	0.136115	0.499977
C77	C	1.032258	0.096233	-0.000025
C78	C	1.532258	0.596233	0.499975
C79	C	1.116275	0.097578	-0.000032
C80	C	1.616275	0.597578	0.499968
C81	C	0.888093	0.240388	-0.000032
C82	C	1.388093	0.740388	0.499968
C83	C	0.889431	0.324406	-0.000039
C84	C	1.389431	0.824406	0.499961
N85	N	0.893858	0.101992	0.235336
N86	N	1.393858	0.601992	0.735336
N87	N	0.893894	0.102007	-0.235378
N88	N	1.393894	0.602007	0.264622
C89	C	0.945422	0.050468	0.287380
C90	C	1.445422	0.550468	0.787380
C91	C	0.945426	0.050467	0.391483
C92	C	1.445426	0.550467	0.891483
C93	C	0.893870	0.101995	0.443541
C94	C	1.393870	0.601995	0.943541
C95	C	0.842300	0.153521	0.391490
C96	C	1.342300	0.653521	0.891490
C97	C	0.842293	0.153517	0.287388
C98	C	1.342293	0.653517	0.787388
C99	C	0.842321	0.153526	0.608470
C100	C	1.342321	0.653526	1.108470
C101	C	0.842330	0.153531	0.712578
C102	C	1.342330	0.653531	1.212578
C103	C	0.945455	0.050476	0.712565
C104	C	1.445455	0.550476	1.212565
C105	C	0.945447	0.050472	0.608463
C106	C	1.445447	0.550472	1.108463
C107	C	0.893878	0.102000	0.556419
C108	C	1.393878	0.602000	1.056419
H109	H	0.107020	0.222818	-0.000031
H110	H	0.607020	0.722818	0.499969
H111	H	0.987444	0.008521	0.754945
H112	H	1.487444	0.508521	1.254945
H113	H	0.987432	0.008519	0.566078
H114	H	1.487432	0.508519	1.066078
H115	H	0.680728	-0.018817	-0.000008
H116	H	1.180728	0.481183	0.499992
F117	F	0.755985	-0.098982	-0.000028
F118	F	1.255985	0.401018	0.499972
F119	F	1.000300	-0.004372	0.231986
F120	F	1.500300	0.495628	0.731986
F121	F	0.787455	0.208373	0.767975
F122	F	1.287455	0.708373	1.267975
H123	H	0.504328	0.229149	-0.000021
H124	H	1.004328	0.729149	0.499979
H125	H	0.987413	0.008512	0.433857
H126	H	1.487413	0.508512	0.933857
F127	F	0.749624	-0.496298	-0.000046
F128	F	1.249624	0.003702	0.499954
H129	H	0.537518	-0.021102	-0.000020
H130	H	1.037518	0.478898	0.499980
F131	F	0.787433	0.208366	0.553085
F132	F	1.287433	0.708366	1.053085
H133	H	0.250230	0.225100	-0.000047
H134	H	0.750230	0.725100	0.499953
F135	F	0.753381	-0.261942	-0.000040
F136	F	1.253381	0.238058	0.499960
H137	H	0.647550	0.231432	-0.000016
H138	H	1.147550	0.731432	0.499984
H139	H	1.014670	-0.684858	-0.000027
H140	H	1.514670	-0.184858	0.499973
H141	H	0.283422	-0.025143	-0.000034
H142	H	0.783422	0.474857	0.499966
H143	H	0.800318	0.195473	0.433881
H144	H	1.300318	0.695473	0.933881
H145	H	0.140200	-0.027432	-0.000037
H146	H	0.640200	0.472568	0.499963
H147	H	0.800303	0.195472	0.245015
H148	H	1.300303	0.695472	0.745015
H149	H	1.021028	-0.287541	-0.000017
H150	H	1.521028	0.212459	0.499983
F151	F	1.034362	-0.534054	-0.000026
F152	F	1.534362	-0.034054	0.499974
F153	F	1.040721	-0.136750	0.000001
F154	F	1.540721	0.363250	0.500001
H155	H	0.764421	-0.651664	-0.000033
H156	H	1.264421	-0.151664	0.499967
