data_functionalizedCrystal
_audit_creation_method	'MofGen! by Chris Wilmer'
_symmetry_space_group_name_H-M	'P1'
_symmetry_Int_Tables_number	1
_symmetry_cell_setting	triclinic
loop_
_symmetry_equiv_pos_as_xyz
  x,y,z
_cell_length_a	23.532355
_cell_length_b	22.010155
_cell_length_c	15.944551
_cell_angle_alpha	89.990023
_cell_angle_beta	83.163118
_cell_angle_gamma	89.995928
loop_
_atom_site_label
_atom_site_type_symbol
_atom_site_fract_x
_atom_site_fract_y
_atom_site_fract_z
O1	O	0.755672	0.050444	0.101738
O2	O	0.589862	0.050463	0.116537
O3	O	0.677295	0.050448	-0.013177
O4	O	0.668239	0.050460	0.231452
O5	O	0.677289	-0.050603	-0.013143
O6	O	0.589856	-0.050587	0.116571
O7	O	0.755666	-0.050606	0.101772
Cu8	Cu	0.672760	-0.059823	0.109174
Cu9	Cu	0.672768	0.059680	0.109134
O10	O	0.668233	-0.050591	0.231486
C11	C	0.568641	-0.000059	0.116184
C12	C	0.505418	-0.000052	0.115072
C13	C	0.113374	-0.055160	0.108102
C14	C	0.053970	-0.055163	0.107044
O15	O	0.023247	-0.102008	0.106484
N16	N	0.024263	-0.000081	0.106501
C17	C	0.053963	0.055008	0.107007
O18	O	0.023240	0.101859	0.106447
C19	C	0.113366	0.055010	0.108059
C20	C	0.143069	-0.000076	0.108611
C21	C	0.143077	-0.110242	0.108653
C22	C	0.202476	-0.110239	0.109713
C23	C	0.232172	-0.055155	0.110222
C24	C	0.202469	-0.000074	0.109671
C25	C	0.143066	0.110097	0.108560
C26	C	0.202473	0.110094	0.109611
C27	C	0.232176	0.055008	0.110163
C28	C	0.291564	0.055013	0.111239
N29	N	0.321271	-0.000069	0.111782
C30	C	0.291575	-0.055153	0.111274
C31	C	-0.070787	0.055000	0.104796
C32	C	-0.130189	0.054999	0.103750
C33	C	-0.130178	-0.055172	0.103786
C34	C	-0.070775	-0.055170	0.104838
C35	C	-0.041080	-0.000082	0.105340
C36	C	0.416318	-0.055144	0.113500
C37	C	0.475722	-0.055136	0.114563
C38	C	0.475706	0.055034	0.114523
C39	C	0.416307	0.055027	0.113464
C40	C	0.386614	-0.000067	0.112950
O41	O	0.322325	0.101834	0.111796
O42	O	0.322306	-0.101997	0.111823
N43	N	0.672759	-0.143876	0.109202
C44	C	0.634031	-0.436481	0.166573
C45	C	0.634029	-0.372873	0.166580
O46	O	0.601084	-0.339976	0.215393
N47	N	0.672755	-0.341060	0.109170
C48	C	0.711481	-0.372858	0.051743
O49	O	0.744419	-0.339958	0.002912
C50	C	0.711479	-0.436464	0.051732
C51	C	0.672755	-0.468274	0.109152
C52	C	0.595309	-0.468291	0.223987
C53	C	0.595311	-0.531894	0.223980
C54	C	0.634035	-0.563687	0.166559
C55	C	0.672757	-0.531877	0.109145
C56	C	0.750202	-0.468261	-0.005698
C57	C	0.750196	-0.531872	-0.005704
C58	C	0.711472	-0.563681	0.051715
C59	C	0.711483	-0.627274	0.051718
N60	N	0.672758	-0.659087	0.109127
C61	C	0.634034	-0.627294	0.166548
C62	C	0.711481	-0.239280	0.051770
C63	C	0.711486	-0.175675	0.051784
C64	C	0.634033	-0.175695	0.166620
C65	C	0.634032	-0.239301	0.166609
C66	C	0.672755	-0.271093	0.109180
C67	C	0.634042	-0.760865	0.166530
C68	C	0.634049	-0.824474	0.166521
C69	C	0.711499	-0.824449	0.051682
C70	C	0.711494	-0.760845	0.051694
C71	C	0.672761	-0.729055	0.109121
O72	O	0.744410	-0.660212	0.002927
O73	O	0.601095	-0.660202	0.215364
C74	C	0.776887	-0.000082	0.102125
C75	C	0.840110	-0.000086	0.103237
C76	C	0.676916	-0.000078	-0.044451
C77	C	0.675789	-0.000078	-0.137687
N78	N	0.672773	0.143733	0.109100
C79	C	0.618900	-0.000063	-0.352049
C80	C	0.645314	-0.049890	-0.413279
C81	C	0.673750	-0.000073	-0.308395
C82	C	0.645333	0.049738	-0.413296
C83	C	0.671776	-0.000066	-0.473290
C84	C	0.700179	-0.049941	-0.368397
C85	C	0.700191	0.049731	-0.368408
C86	C	0.726645	-0.000108	-0.429621
C87	C	0.674885	-0.000078	-0.213402
C88	C	0.670645	-0.000065	-0.568282
C89	C	0.668612	-0.000064	0.262759
C90	C	0.669739	-0.000060	0.355995
H91	H	0.226656	-0.155096	0.110157
Cl92	Cl	0.548609	-0.000127	-0.300012
H93	H	-0.046595	-0.100026	0.105288
Cl94	Cl	0.513049	0.124279	0.115158
Cl95	Cl	0.735965	-0.115050	-0.337829
H96	H	-0.046613	0.099862	0.105213
H97	H	0.772213	-0.000141	-0.463176
Cl98	Cl	0.609494	-0.114919	-0.443992
H99	H	0.118891	0.154954	0.108110
H100	H	0.723373	0.091853	-0.348493
H101	H	0.499904	-0.099996	0.115015
H102	H	0.602501	-0.734989	0.213292
H103	H	0.563777	-0.557790	0.270733
Cl104	Cl	0.379000	-0.124406	0.112853
Cl105	Cl	0.105756	-0.179500	0.108018
H106	H	0.743025	-0.149779	0.005037
H107	H	0.602515	-0.850372	0.213281
Cl108	Cl	0.546621	-0.428333	0.296183
Cl109	Cl	0.585347	-0.279284	0.238794
Cl110	Cl	0.585351	-0.135713	0.238804
H111	H	-0.154367	-0.100025	0.103370
H112	H	0.743019	-0.265162	0.005006
Cl113	Cl	-0.167525	0.124253	0.103074
H114	H	0.622129	0.091866	-0.433185
H115	H	0.226648	0.154955	0.110020
H116	H	0.392120	0.099883	0.113029
Cl117	Cl	0.798880	-0.571834	-0.077908
Cl118	Cl	0.798884	-0.428284	-0.077887
H119	H	0.743032	-0.734945	0.004946
Cl120	Cl	0.760179	-0.864427	-0.020501
