data_functionalizedCrystal
_audit_creation_method	'MofGen! by Chris Wilmer'
_symmetry_space_group_name_H-M	'P1'
_symmetry_Int_Tables_number	1
_symmetry_cell_setting	triclinic
loop_
_symmetry_equiv_pos_as_xyz
  x,y,z
_cell_length_a	16.994748
_cell_length_b	17.639617
_cell_length_c	17.640968
_cell_angle_alpha	109.666032
_cell_angle_beta	101.226758
_cell_angle_gamma	101.191496
loop_
_atom_site_label
_atom_site_type_symbol
_atom_site_fract_x
_atom_site_fract_y
_atom_site_fract_z
Zn1	Zn	0.104323	1.354349	0.721225
Zn2	Zn	-0.061019	1.326438	0.583412
Zn3	Zn	0.037482	1.188662	0.555508
Zn4	Zn	-0.060943	1.216528	0.693295
O5	O	0.004961	1.271495	0.638360
O6	O	0.110330	1.465986	0.726310
O7	O	-0.075958	1.284819	0.464372
O8	O	0.156735	1.210660	0.577501
O9	O	-0.011146	1.445480	0.625060
O10	O	0.205843	1.332390	0.699253
O11	O	-0.003590	1.183596	0.443870
O12	O	-0.003515	1.077020	0.550419
O13	O	-0.011015	1.258153	0.812339
O14	O	-0.075827	1.097493	0.651651
O15	O	0.110405	1.359410	0.832859
O16	O	-0.171396	1.311840	0.597978
O17	O	-0.171340	1.231089	0.678708
C18	C	-0.046917	1.057350	0.594977
C19	C	-0.069124	0.965743	0.576436
C20	C	0.210710	1.271523	0.638376
C21	C	0.300037	1.271539	0.638385
C22	C	-0.199989	1.271469	0.638340
C23	C	-0.289313	1.271480	0.638318
C24	C	0.173735	0.717885	0.779411
C25	C	0.152844	0.631802	0.761973
C26	C	0.026481	0.610440	0.656390
C27	C	0.047360	0.696524	0.673822
C28	C	0.120988	0.750240	0.735333
C29	C	-0.005387	0.728878	0.629743
C30	C	0.015492	0.814953	0.647171
C31	C	0.089119	0.868674	0.708677
C32	C	0.141868	0.836315	0.752760
C33	C	-0.079012	0.675160	0.568228
C34	C	-0.131759	0.707515	0.524149
C35	C	-0.110883	0.793592	0.541581
C36	C	-0.037257	0.847313	0.603087
C37	C	-0.163632	0.825951	0.497498
C38	C	-0.142752	0.912027	0.514925
C39	C	-0.016377	0.933388	0.620515
Zn40	Zn	0.570788	1.326284	0.583215
Zn41	Zn	0.570997	1.216714	0.693437
Zn42	Zn	0.472479	1.354476	0.721098
Zn43	Zn	0.405573	1.188563	0.555607
O44	O	0.504959	1.271509	0.638339
O45	O	0.681189	1.311732	0.597814
O46	O	0.586016	1.258568	0.812493
O47	O	0.513433	1.466027	0.725937
O48	O	0.681343	1.231231	0.678794
O49	O	0.585660	1.445314	0.624635
O50	O	0.513635	1.359781	0.832815
O51	O	0.353231	1.332485	0.699167
O52	O	0.399401	1.183253	0.443882
O53	O	0.304075	1.210589	0.577582
O54	O	0.520784	1.284436	0.464165
O55	O	0.521140	1.097689	0.652024
O56	O	0.399604	1.077007	0.550761
C57	C	0.057160	1.315003	0.853341
C58	C	0.079404	1.333544	0.944954
C59	C	0.057040	1.486475	0.681913
C60	C	0.079233	1.578087	0.700473
C61	C	-0.046967	1.228203	0.424224
C62	C	-0.068950	1.209821	0.332645
C63	C	-0.163520	1.130958	1.192844
C64	C	-0.142604	1.148398	1.278931
C65	C	-0.016181	1.253827	1.300286
C66	C	-0.037084	1.236394	1.214198
C67	C	-0.110756	1.174959	1.160483
C68	C	0.015681	1.280395	1.181838
C69	C	-0.005224	1.262966	1.095758
C70	C	-0.078893	1.201536	1.042039
C71	C	-0.131660	1.157530	1.074404
C72	C	0.089348	1.341834	1.235555
C73	C	0.142113	1.385835	1.203195
C74	C	0.121212	1.368402	1.117113
C75	C	0.047543	1.306972	1.063393
C76	C	0.173979	1.412408	1.084748
C77	C	0.153075	1.394979	0.998668
C78	C	0.026639	1.289543	0.977314
C79	C	0.453137	1.057455	0.595397
C80	C	0.430997	0.965887	0.577050
C81	C	0.452606	1.227559	0.423269
C82	C	0.430296	1.208830	0.331618
C83	C	0.556986	1.486400	0.681451
C84	C	0.579157	1.577973	0.699823
C85	C	0.557167	1.315346	0.852584
C86	C	0.579679	1.334302	0.944280
C87	C	0.483919	0.933669	0.621119
C88	C	0.463131	0.847630	0.603881
C89	C	0.389417	0.793812	0.542577
C90	C	0.336492	0.826035	0.498504
C91	C	0.357284	0.912071	0.515738
C92	C	0.483018	1.252721	0.299136
C93	C	0.462059	1.235140	0.213024
C94	C	0.388382	1.173664	0.159396
C95	C	0.335656	1.129772	0.191884
C96	C	0.356612	1.147358	0.277995
C97	C	0.551959	1.631766	0.761194
C98	C	0.572775	1.717809	0.778456
C99	C	0.620795	1.750059	0.734351
C100	C	0.647992	1.696259	0.672972
C101	C	0.627171	1.610217	0.655707
C102	C	0.552101	1.395515	0.997810
C103	C	0.573258	1.413343	1.083971
C104	C	0.621989	1.369952	1.116599
C105	C	0.649570	1.308735	1.063062
C106	C	0.628418	1.290913	0.976904
H107	H	0.043576	0.977128	0.670606
Br108	Br	0.359954	1.149808	0.042531
Br109	Br	0.713165	1.740041	0.613125
H110	H	0.649327	1.566425	0.605735
H111	H	0.202095	1.435857	1.246941
H112	H	-0.223575	0.782202	0.447410
Br113	Br	0.535815	1.496422	1.156610
Br114	Br	0.650688	1.394151	1.233532
Br115	Br	0.285450	0.955783	0.455919
Br116	Br	0.285051	1.087780	0.322066
H117	H	0.650875	1.241063	0.933324
H118	H	-0.095914	1.187350	0.971948
Br119	Br	0.235671	1.046337	0.119090
H120	H	-0.191636	1.107484	1.030662
Br121	Br	0.117465	0.985491	0.732323
Br122	Br	0.583023	1.336146	0.371897
H123	H	0.512431	1.430862	0.971259
H124	H	0.505002	1.270886	0.186585
H125	H	0.689248	1.273411	1.089641
H126	H	0.512861	1.605521	0.797118
Br127	Br	0.273654	0.790795	0.862901
Br128	Br	0.241786	0.909225	0.836250
Br129	Br	0.224443	0.587894	0.821794
H130	H	0.550625	1.761602	0.828438
Br131	Br	0.273949	1.495792	1.157658
H132	H	-0.033465	0.566693	0.606305
H133	H	0.637743	1.820122	0.748418
H134	H	-0.223497	1.080912	1.149101
H135	H	-0.033337	1.239497	0.933572
Br136	Br	-0.107344	0.558340	0.544568
Br137	Br	0.361212	0.677050	0.519197
H138	H	-0.191705	0.663767	0.474065
H139	H	0.276474	0.782204	0.448589
H140	H	-0.185578	1.112562	1.305273
Br141	Br	-0.214342	0.955943	0.455111
H142	H	0.106365	1.356024	1.305646
Br143	Br	0.083795	1.337204	1.373191
H144	H	0.543945	0.977477	0.671037
Br145	Br	0.224681	1.454700	0.954747
H146	H	0.506234	0.821408	0.639776
