data_functionalizedCrystal
_audit_creation_method	'MofGen! by Chris Wilmer'
_symmetry_space_group_name_H-M	'P1'
_symmetry_Int_Tables_number	1
_symmetry_cell_setting	triclinic
loop_
_symmetry_equiv_pos_as_xyz
  x,y,z
_cell_length_a	17.640280
_cell_length_b	15.298001
_cell_length_c	15.296720
_cell_angle_alpha	91.647471
_cell_angle_beta	90.295581
_cell_angle_gamma	93.441332
loop_
_atom_site_label
_atom_site_type_symbol
_atom_site_fract_x
_atom_site_fract_y
_atom_site_fract_z
Zn1	Zn	-0.220214	-1.311295	-0.686710
Zn2	Zn	0.279786	-0.811295	-0.186710
Zn3	Zn	-0.319622	-1.362701	-0.521865
Zn4	Zn	0.180378	-0.862701	-0.021865
Zn5	Zn	-0.213020	-1.188283	-0.516201
Zn6	Zn	0.286980	-0.688283	-0.016201
Zn7	Zn	-0.361113	-1.201841	-0.635211
Zn8	Zn	0.138887	-0.701841	-0.135211
O9	O	-0.278492	-1.266030	-0.589997
O10	O	0.221508	-0.766030	-0.089997
O11	O	-0.219048	-1.436915	-0.688766
O12	O	0.280952	-0.936915	-0.188766
O13	O	-0.285106	-1.355403	-0.402320
O14	O	0.214894	-0.855403	0.097680
O15	O	-0.110394	-1.177413	-0.558002
O16	O	0.389606	-0.677413	-0.058002
O17	O	-0.292082	-1.474683	-0.567655
O18	O	0.207918	-0.974683	-0.067655
O19	O	-0.115680	-1.267789	-0.683274
O20	O	0.384320	-0.767789	-0.183274
O21	O	-0.206786	-1.227259	-0.398158
O22	O	0.293214	-0.727259	0.101842
O23	O	-0.247018	-1.071280	-0.508065
O24	O	0.252982	-0.571280	-0.008065
O25	O	-0.362798	-1.200522	-0.760836
O26	O	0.137202	-0.700522	-0.260836
O27	O	-0.355822	-1.081242	-0.595501
O28	O	0.144178	-0.581242	-0.095501
O29	O	-0.259280	-1.280937	-0.798672
O30	O	0.240720	-0.780937	-0.298672
O31	O	-0.428706	-1.368550	-0.517719
O32	O	0.071294	-0.868550	-0.017719
O33	O	-0.459190	-1.250367	-0.600993
O34	O	0.040810	-0.750367	-0.100993
C35	C	-0.305142	-1.045457	-0.545581
C36	C	0.194858	-0.545457	-0.045581
C37	C	-0.316564	-0.951097	-0.526596
C38	C	0.183436	-0.451097	-0.026596
C39	C	-0.359866	-0.926421	-0.454548
C40	C	0.140134	-0.426421	0.045452
C41	C	-0.370600	-0.837765	-0.436715
C42	C	0.129400	-0.337765	0.063285
C43	C	-0.338028	-0.773776	-0.490924
C44	C	0.161972	-0.273776	0.009076
C45	C	-0.294721	-0.798451	-0.562970
C46	C	0.205279	-0.298451	-0.062970
C47	C	-0.283991	-0.887116	-0.580809
C48	C	0.216009	-0.387116	-0.080809
C49	C	-0.262154	-0.734471	-0.617185
C50	C	0.237846	-0.234471	-0.117185
C51	C	-0.218847	-0.759146	-0.689231
C52	C	0.281153	-0.259146	-0.189231
C53	C	-0.208118	-0.847803	-0.707066
C54	C	0.291882	-0.347803	-0.207066
C55	C	-0.240690	-0.911792	-0.652857
C56	C	0.259310	-0.411792	-0.152857
C57	C	-0.272884	-0.645806	-0.599346
C58	C	0.227116	-0.145806	-0.099346
C59	C	-0.197010	-0.606501	-0.725607
C60	C	0.302990	-0.106501	-0.225607
C61	C	-0.186276	-0.695157	-0.743440
C62	C	0.313724	-0.195157	-0.243440
C63	C	-0.470805	-1.316529	-0.554405
C64	C	0.029195	-0.816529	-0.054405
C65	C	-0.553073	-1.338206	-0.539223
C66	C	-0.053073	-0.838206	-0.039223
C67	C	-0.903108	-1.101655	-0.705712
C68	C	-0.403108	-0.601655	-0.205712
C69	C	-0.980407	-1.122030	-0.691420
C70	C	-0.480407	-0.622030	-0.191420
C71	C	-0.948610	-1.245146	-0.604829
C72	C	-0.448610	-0.745146	-0.104829
C73	C	-0.871307	-1.224784	-0.619118
C74	C	-0.371307	-0.724784	-0.119118
C75	C	-0.848563	-1.153037	-0.669560
C76	C	-0.348563	-0.653037	-0.169560
C77	C	-0.816762	-1.276167	-0.582965
C78	C	-0.316762	-0.776167	-0.082965
C79	C	-0.739466	-1.255803	-0.597249
C80	C	-0.239466	-0.755803	-0.097249
C81	C	-0.716716	-1.184058	-0.647686
C82	C	-0.216716	-0.684058	-0.147686
C83	C	-0.771267	-1.132674	-0.683844
C84	C	-0.271267	-0.632674	-0.183844
C85	C	-0.839507	-1.347910	-0.532519
C86	C	-0.339507	-0.847910	-0.032519
C87	C	-0.784962	-1.399292	-0.496366
C88	C	-0.284962	-0.899292	0.003634
C89	C	-0.707665	-1.378933	-0.510655
C90	C	-0.207665	-0.878933	-0.010655
C91	C	-0.684914	-1.307187	-0.561092
C92	C	-0.184914	-0.807187	-0.061092
C93	C	-0.653113	-1.430316	-0.474498
C94	C	-0.153113	-0.930316	0.025502
C95	C	-0.575817	-1.409953	-0.488782
C96	C	-0.075817	-0.909953	0.011218
C97	C	-0.607618	-1.286824	-0.575376
C98	C	-0.107618	-0.786824	-0.075376
C99	C	-0.085429	-1.215355	-0.625750
C100	C	0.414571	-0.715355	-0.125750
C101	C	-0.003156	-1.193760	-0.640986
C102	C	0.496844	-0.693760	-0.140986
C103	C	-0.316470	-1.236507	-0.811418
C104	C	0.183530	-0.736507	-0.311418
C105	C	-0.332653	-1.223927	-0.905774
C106	C	0.167347	-0.723927	-0.405774
C107	C	-0.251732	-0.487464	-0.634579
C108	C	0.248268	0.012536	-0.134579
C109	C	-0.240311	-0.581825	-0.653559
C110	C	0.259689	-0.081825	-0.153559
C111	C	-0.162692	-1.355944	-1.250546
C112	C	0.337308	-0.855944	-0.750546
C113	C	-0.147487	-1.367770	-1.161895
C114	C	0.352513	-0.867770	-0.661895
C115	C	-0.193777	-1.331810	-1.097860
C116	C	0.306223	-0.831810	-0.597860
C117	C	-0.255275	-1.284022	-1.122486
C118	C	0.244725	-0.784022	-0.622486
C119	C	-0.270485	-1.272201	-1.211147
C120	C	0.229515	-0.772201	-0.711147
C121	C	-0.301570	-1.248067	-1.058461
C122	C	0.198430	-0.748067	-0.558461
C123	C	-0.363068	-1.200280	-1.083086
C124	C	0.136932	-0.700280	-0.583086
C125	C	-0.378274	-1.188460	-1.171739
C126	C	0.121726	-0.688460	-0.671739
C127	C	-0.331984	-1.224420	-1.235773
C128	C	0.168016	-0.724420	-0.735773
C129	C	-0.286360	-1.259888	-0.969800
C130	C	0.213640	-0.759888	-0.469800
C131	C	-0.394153	-1.176146	-0.930400
C132	C	0.105847	-0.676146	-0.430400
C133	C	-0.409358	-1.164320	-1.019052
C134	C	0.090642	-0.664320	-0.519052
C135	C	-0.240603	-1.295472	-0.369457
C136	C	0.259397	-0.795472	0.130543
C137	C	-0.224192	-1.308163	-0.275173
C138	C	0.275808	-0.808163	0.224827
H139	H	-0.346770	-0.701589	-0.476400
H140	H	0.153230	-0.201589	0.023600
H141	H	-0.405860	-0.817681	-0.378056
H142	H	0.094140	-0.317681	0.121944
C143	C	-0.348715	-1.211429	-1.333298
C144	C	0.151285	-0.711429	-0.833298
N145	N	-0.361319	-1.201651	-1.406756
N146	N	0.138681	-0.701651	-0.906756
H147	H	-0.097417	-1.406681	-1.141851
H148	H	0.402583	-0.906681	-0.641851
H149	H	-0.125013	-1.385223	-1.302689
H150	H	0.374987	-0.885223	-0.802689
H151	H	-0.231950	-0.983985	-0.667371
H152	H	0.268050	-0.483985	-0.167371
C153	C	-0.320515	-0.618673	-0.520092
C154	C	0.179485	-0.118673	-0.020092
N155	N	-0.356390	-0.598238	-0.460391
N156	N	0.143610	-0.098238	0.039609
H157	H	-0.386384	-0.978527	-0.410422
H158	H	0.113616	-0.478527	0.089578
H159	H	-0.172863	-0.867891	-0.765737
H160	H	0.327137	-0.367891	-0.265737
H161	H	-0.151015	-0.715261	-0.802100
H162	H	0.348985	-0.215261	-0.302100
H163	H	-0.428355	-1.149557	-1.191785
H164	H	0.071645	-0.649557	-0.691785
H165	H	-0.170488	-0.554400	-0.769749
H166	H	0.329512	-0.054400	-0.269749
C167	C	-0.477003	-1.111753	-1.046153
C168	C	0.022997	-0.611753	-0.546153
N169	N	-0.527952	-1.072158	-1.066566
N170	N	-0.027952	-0.572158	-0.566566
C171	C	-0.582596	-1.207889	-0.630851
C172	C	-0.082596	-0.707889	-0.130851
N173	N	-0.563748	-1.148431	-0.672625
N174	N	-0.063748	-0.648431	-0.172625
C175	C	-0.746245	-1.053739	-0.739319
C176	C	-0.246245	-0.553739	-0.239319
N177	N	-0.727397	-0.994281	-0.781092
N178	N	-0.227397	-0.494281	-0.281092
H179	H	-0.653775	-1.167475	-0.659308
H180	H	-0.153775	-0.667475	-0.159308
C181	C	-0.445074	-1.136585	-0.859965
C182	C	0.054926	-0.636585	-0.359965
N183	N	-0.483425	-1.106791	-0.806909
N184	N	0.016575	-0.606791	-0.306909
H185	H	-0.884591	-1.043237	-0.746795
H186	H	-0.384591	-0.543237	-0.246795
C187	C	-1.040406	-1.065503	-0.731200
C188	C	-0.540406	-0.565503	-0.231200
N189	N	-1.085598	-1.022928	-0.761163
N190	N	-0.585598	-0.522928	-0.261163
H191	H	-0.967139	-1.303560	-0.563757
H192	H	-0.467139	-0.803560	-0.063757
C193	C	-0.177044	-1.344812	-1.000341
C194	C	0.322956	-0.844812	-0.500341
N195	N	-0.164435	-1.354602	-0.926887
N196	N	0.335565	-0.854602	-0.426887
C197	C	-0.924536	-1.370310	-0.516811
C198	C	-0.424536	-0.870310	-0.016811
N199	N	-0.988581	-1.387183	-0.504983
N200	N	-0.488581	-0.887183	-0.004983
C201	C	-0.809990	-1.478208	-0.440878
C202	C	-0.309990	-0.978208	0.059122
N203	N	-0.828840	-1.537650	-0.399084
N204	N	-0.328840	-1.037650	0.100916
H205	H	-0.671643	-1.488727	-0.433421
H206	H	-0.171643	-0.988727	0.066579
C207	C	-0.515815	-1.466482	-0.449020
C208	C	-0.015815	-0.966482	0.050980
N209	N	-0.470620	-1.509062	-0.419071
N210	N	0.029380	-1.009062	0.080929
H211	H	-0.236287	-1.298797	-0.949759
H212	H	0.263713	-0.798797	-0.449759
