data_functionalizedCrystal
_audit_creation_method	'MofGen! by Chris Wilmer'
_symmetry_space_group_name_H-M	'P1'
_symmetry_Int_Tables_number	1
_symmetry_cell_setting	triclinic
loop_
_symmetry_equiv_pos_as_xyz
  x,y,z
_cell_length_a	8.597340
_cell_length_b	11.792241
_cell_length_c	7.088638
_cell_angle_alpha	83.745773
_cell_angle_beta	88.672147
_cell_angle_gamma	84.766049
loop_
_atom_site_label
_atom_site_type_symbol
_atom_site_fract_x
_atom_site_fract_y
_atom_site_fract_z
O1	O	2.065585	0.182509	-0.181282
O2	O	1.616225	0.190159	-0.107252
O3	O	1.851808	0.021368	-0.146077
O4	O	1.830001	0.351300	-0.142457
O5	O	1.820285	0.043958	-0.458872
O6	O	1.584702	0.212749	-0.420047
O7	O	2.034062	0.205099	-0.494077
Cu8	Cu	1.806504	0.210987	-0.485623
Cu9	Cu	1.843783	0.184272	-0.115706
O10	O	1.798479	0.373890	-0.455252
C11	C	1.542936	0.199374	-0.254172
C12	C	1.371521	0.193162	-0.225933
C13	C	1.834677	-0.009654	-0.302248
C14	C	1.830577	-0.135744	-0.301571
C15	C	1.823040	-0.366599	-0.300297
C16	C	1.827228	-0.238134	-0.301004
C17	C	2.107351	0.195884	-0.347153
C18	C	2.278768	0.202096	-0.375380
C19	C	1.815610	0.404912	-0.299077
C20	C	1.819712	0.531001	-0.299742
N21	N	1.780295	0.229776	-0.745804
N22	N	1.870004	0.165474	0.144473
H23	H	1.687358	0.296398	-0.812177
H24	H	1.330496	0.214490	-0.524939
C25	C	1.301645	0.176413	-0.023876
H26	H	1.191736	0.174305	-0.030752
H27	H	1.346253	0.106424	0.040039
H28	H	1.323818	0.238200	0.043728
H29	H	1.962936	0.098839	-0.789143
