data_functionalizedCrystal
_audit_creation_method	'MofGen! by Chris Wilmer'
_symmetry_space_group_name_H-M	'P1'
_symmetry_Int_Tables_number	1
_symmetry_cell_setting	triclinic
loop_
_symmetry_equiv_pos_as_xyz
  x,y,z
_cell_length_a	15.297327
_cell_length_b	12.827893
_cell_length_c	12.827885
_cell_angle_alpha	89.980728
_cell_angle_beta	99.642715
_cell_angle_gamma	99.706751
loop_
_atom_site_label
_atom_site_type_symbol
_atom_site_fract_x
_atom_site_fract_y
_atom_site_fract_z
Zn1	Zn	-0.359113	1.525602	-0.662773
Zn2	Zn	-0.509998	1.495217	-0.518253
Zn3	Zn	-0.359158	1.350835	-0.488056
Zn4	Zn	-0.509932	1.320563	-0.692940
O5	O	-0.434550	1.423054	-0.590506
O6	O	-0.379138	1.667806	-0.643615
O7	O	-0.490035	1.476017	-0.368021
O8	O	-0.232906	1.399404	-0.485970
O9	O	-0.489992	1.645482	-0.537437
O10	O	-0.232874	1.527805	-0.614334
O11	O	-0.379213	1.369940	-0.345835
O12	O	-0.379149	1.200585	-0.515221
O13	O	-0.489879	1.347809	-0.835165
O14	O	-0.489922	1.178344	-0.665749
O15	O	-0.379073	1.498451	-0.813002
O16	O	-0.636235	1.446663	-0.566689
O17	O	-0.636186	1.318345	-0.695030
C18	C	-0.434533	1.151548	-0.590482
C19	C	-0.434548	1.035392	-0.590502
C20	C	-0.379791	0.994634	-0.643160
C21	C	-0.379805	0.874581	-0.643181
C22	C	-0.668944	1.375950	-0.637433
C23	C	-0.769219	1.355895	-0.657543
C24	C	-1.051853	1.566825	-0.447129
C25	C	-0.957640	1.585668	-0.428229
C26	C	-0.910530	1.528227	-0.485556
C27	C	-0.957643	1.451939	-0.561786
C28	C	-1.051865	1.433088	-0.580682
C29	C	-0.910542	1.394490	-0.619109
C30	C	-0.957654	1.318202	-0.695339
C31	C	-1.051868	1.299355	-0.714232
C32	C	-1.098978	1.356797	-0.656906
C33	C	-0.816320	1.413340	-0.600213
C34	C	-0.816331	1.279603	-0.733766
C35	C	-0.910544	1.260760	-0.752666
C36	C	-0.199241	1.470370	-0.543418
C37	C	-0.098966	1.490534	-0.523353
C38	C	-0.434463	1.423143	-0.863059
C39	C	-0.434427	1.423180	-0.979204
C40	C	-0.434567	1.695621	-0.590530
C41	C	-0.434575	1.811772	-0.590540
C42	C	-0.379586	1.497732	-1.020020
C43	C	-0.379546	1.497772	-1.140062
C44	C	-0.434571	1.423039	-0.319000
C45	C	-0.434354	1.423255	-0.202804
H46	H	-0.332928	0.839487	-0.688269
H47	H	-0.833818	1.543572	-0.470162
C48	C	-1.103677	1.629998	-0.384075
C49	C	-1.168534	1.571771	-0.315007
C50	C	-1.220359	1.634946	-0.251947
C51	C	-1.207328	1.756350	-0.257954
C52	C	-1.142468	1.814584	-0.327025
C53	C	-1.090643	1.751408	-0.390086
H54	H	-1.178183	1.481895	-0.310557
H55	H	-1.268373	1.591837	-0.200816
H56	H	-1.245693	1.803116	-0.211273
H57	H	-1.132819	1.904460	-0.331475
H58	H	-1.042629	1.794518	-0.441217
H59	H	-0.777975	1.232827	-0.780445
C60	C	-0.962375	1.176840	-0.836511
C61	C	-0.949517	1.060617	-0.825306
C62	C	-1.001349	0.976698	-0.909150
C63	C	-1.066038	1.009002	-1.004200
C64	C	-1.078900	1.125230	-1.015410
C65	C	-1.027068	1.209149	-0.931566
H66	H	-0.901627	1.036699	-0.754940
H67	H	-0.991828	0.890658	-0.900851
H68	H	-1.104407	0.946880	-1.066267
H69	H	-1.126789	1.149148	-1.085776
H70	H	-1.036589	1.295189	-0.939864
H71	H	-0.332660	1.561525	-0.966092
C72	C	-0.905824	1.669584	-0.344384
C73	C	-0.918869	1.658509	-0.228196
C74	C	-0.867054	1.742431	-0.144346
C75	C	-0.802193	1.837429	-0.176684
C76	C	-0.789145	1.848508	-0.292878
C77	C	-0.840961	1.764585	-0.376728
H78	H	-0.966886	1.588183	-0.204252
H79	H	-0.876714	1.734229	-0.058331
H80	H	-0.763837	1.899553	-0.114613
H81	H	-0.741129	1.918834	-0.316822
H82	H	-0.831301	1.772787	-0.462742
H83	H	-0.332598	1.561602	-1.175205
H84	H	-1.090224	1.237224	-0.776292
H85	H	-1.175694	1.341461	-0.672292
C86	C	-0.497820	1.336990	-1.052046
C87	C	-0.568568	1.368134	-1.141269
C88	C	-0.631963	1.281941	-1.214108
C89	C	-0.624610	1.164603	-1.197724
C90	C	-0.553860	1.133454	-1.108497
C91	C	-0.490464	1.219647	-1.035658
H92	H	-0.574013	1.455000	-1.153401
H93	H	-0.684337	1.305001	-1.280160
H94	H	-0.671539	1.100798	-1.251644
H95	H	-0.548414	1.046588	-1.096365
H96	H	-0.438090	1.196587	-0.969606
H97	H	-0.481462	0.846857	-0.545461
C98	C	-0.316434	1.067554	-0.704038
C99	C	-0.316505	1.187585	-0.703922
C100	C	-0.253142	1.260504	-0.764797
C101	C	-0.189708	1.213391	-0.825787
C102	C	-0.189635	1.093354	-0.825905
C103	C	-0.252998	1.020435	-0.765030
H104	H	-0.363465	1.222467	-0.658771
H105	H	-0.253197	1.349364	-0.764709
H106	H	-0.142803	1.267370	-0.870850
H107	H	-0.142675	1.058473	-0.871056
H108	H	-0.252943	0.931576	-0.765118
H109	H	-0.481436	0.981407	-0.545432
C110	C	-0.764502	1.497258	-0.516370
C111	C	-0.777543	1.486186	-0.400180
C112	C	-0.725727	1.570111	-0.316334
C113	C	-0.660869	1.665109	-0.348678
C114	C	-0.647825	1.676185	-0.464873
C115	C	-0.699642	1.592259	-0.548720
H116	H	-0.825558	1.415860	-0.376233
H117	H	-0.735383	1.561912	-0.230318
H118	H	-0.622511	1.727235	-0.286610
H119	H	-0.599811	1.746511	-0.488821
H120	H	-0.689986	1.600459	-0.634736
H121	H	-0.481311	1.359429	-1.167669
