data_functionalizedCrystal
_audit_creation_method	'MofGen! by Chris Wilmer'
_symmetry_space_group_name_H-M	'P1'
_symmetry_Int_Tables_number	1
_symmetry_cell_setting	triclinic
loop_
_symmetry_equiv_pos_as_xyz
  x,y,z
_cell_length_a	27.732048
_cell_length_b	27.732048
_cell_length_c	26.210047
_cell_angle_alpha	90.011237
_cell_angle_beta	90.018945
_cell_angle_gamma	82.642655
loop_
_atom_site_label
_atom_site_type_symbol
_atom_site_fract_x
_atom_site_fract_y
_atom_site_fract_z
O1	O	0.640941	0.057516	0.042369
O2	O	0.974274	0.390850	0.375702
O3	O	1.307608	0.724183	0.709035
O4	O	0.500148	0.066262	0.042385
O5	O	0.833481	0.399595	0.375718
O6	O	1.166814	0.732928	0.709052
O7	O	0.574917	-0.008508	0.042367
O8	O	0.908251	0.324826	0.375700
O9	O	1.241584	0.658159	0.709033
O10	O	0.566172	0.132286	0.042387
O11	O	0.899505	0.465619	0.375720
O12	O	1.232838	0.798952	0.709054
O13	O	0.574883	-0.008509	-0.042491
O14	O	0.908216	0.324825	0.290842
O15	O	1.241549	0.658158	0.624175
O16	O	0.500113	0.066261	-0.042473
O17	O	0.833447	0.399594	0.290860
O18	O	1.166780	0.732928	0.624194
O19	O	0.640907	0.057515	-0.042489
O20	O	0.974240	0.390849	0.290844
O21	O	1.307573	0.724182	0.624177
Cu22	Cu	0.570507	0.061888	-0.050229
Cu23	Cu	0.903840	0.395221	0.283104
Cu24	Cu	1.237173	0.728555	0.616437
Cu25	Cu	0.570548	0.061889	0.050125
Cu26	Cu	0.903881	0.395222	0.383458
Cu27	Cu	1.237214	0.728556	0.716792
O28	O	0.566137	0.132285	-0.042471
O29	O	0.899471	0.465618	0.290862
O30	O	1.232804	0.798952	0.624196
C31	C	0.482124	0.066078	-0.000042
C32	C	0.815457	0.399411	0.333291
C33	C	1.148790	0.732744	0.666624
C34	C	0.428469	0.065525	-0.000036
C35	C	0.761802	0.398858	0.333297
C36	C	1.095135	0.732192	0.666630
C37	C	0.574716	-0.026515	-0.000064
C38	C	0.908050	0.306818	0.333269
C39	C	1.241383	0.640152	0.666603
C40	C	0.574164	-0.080170	-0.000068
C41	C	0.907497	0.253163	0.333265
C42	C	1.240830	0.586497	0.666599
C43	C	0.089654	0.106229	-0.000053
C44	C	0.422987	0.439562	0.333281
C45	C	0.756320	0.772895	0.666614
C46	C	-0.112006	0.104178	-0.000057
C47	C	0.221327	0.437511	0.333276
C48	C	0.554661	0.770844	0.666609
O49	O	-0.143262	0.141398	-0.000074
O50	O	0.190072	0.474732	0.333259
O51	O	0.523405	0.808065	0.666592
N52	N	-0.131130	0.059843	-0.000063
N53	N	0.202204	0.393176	0.333270
N54	N	0.535537	0.726509	0.666604
C55	C	-0.099835	0.016017	-0.000071
C56	C	0.233498	0.349350	0.333263
C57	C	0.566832	0.682684	0.666596
O58	O	-0.120728	-0.021740	-0.000081
O59	O	0.212605	0.311593	0.333253
O60	O	0.545938	0.644927	0.666586
C61	C	0.101824	0.018068	-0.000069
C62	C	0.435157	0.351402	0.333264
C63	C	0.768490	0.684735	0.666597
C64	C	0.120944	0.062407	-0.000059
C65	C	0.454278	0.395740	0.333275
C66	C	0.787611	0.729073	0.666608
C67	C	0.108775	0.150563	-0.000043
C68	C	0.442108	0.483897	0.333291
C69	C	0.775442	0.817230	0.666624
C70	C	0.159187	0.151075	-0.000039
C71	C	0.492520	0.484409	0.333295
C72	C	0.825853	0.817742	0.666628
C73	C	0.190477	0.107253	-0.000045
C74	C	0.523811	0.440587	0.333289
C75	C	0.857144	0.773920	0.666622
C76	C	0.171356	0.062919	-0.000055
C77	C	0.504690	0.396252	0.333279
C78	C	0.838023	0.729585	0.666612
C79	C	0.133117	-0.025757	-0.000081
C80	C	0.466451	0.307577	0.333253
C81	C	0.799784	0.640910	0.666586
C82	C	0.183534	-0.025240	-0.000082
C83	C	0.516868	0.308094	0.333252
C84	C	0.850201	0.641427	0.666585
C85	C	0.202655	0.019098	-0.000071
C86	C	0.535989	0.352432	0.333262
C87	C	0.869322	0.685765	0.666596
C88	C	0.253059	0.019609	-0.000057
C89	C	0.586392	0.352942	0.333276
C90	C	0.919725	0.686276	0.666610
N91	N	0.272183	0.063944	-0.000051
N92	N	0.605516	0.397277	0.333282
N93	N	0.938849	0.730611	0.666615
C94	C	0.240892	0.107766	-0.000045
C95	C	0.574225	0.441100	0.333288
C96	C	0.907559	0.774433	0.666621
C97	C	-0.205709	0.014943	-0.000070
C98	C	0.127624	0.348276	0.333263
C99	C	0.460957	0.681610	0.666596
C100	C	-0.256124	0.014430	-0.000070
C101	C	0.077210	0.347763	0.333264
C102	C	0.410543	0.681097	0.666597
C103	C	-0.268291	0.102591	-0.000057
C104	C	0.065042	0.435924	0.333276
C105	C	0.398376	0.769258	0.666609
C106	C	-0.217876	0.103104	-0.000054
C107	C	0.115458	0.436437	0.333279
C108	C	0.448791	0.769770	0.666612
C109	C	-0.186585	0.059278	-0.000065
C110	C	0.146748	0.392612	0.333269
C111	C	0.480081	0.725945	0.666602
C112	C	0.346761	0.108839	-0.000036
C113	C	0.680094	0.442172	0.333297
C114	C	1.013428	0.775505	0.666630
C115	C	0.397178	0.109347	-0.000030
C116	C	0.730511	0.442681	0.333303
C117	C	1.063845	0.776014	0.666636
C118	C	0.409341	0.021186	-0.000045
C119	C	0.742674	0.354520	0.333288
C120	C	1.076008	0.687853	0.666621
C121	C	0.358929	0.020678	-0.000049
C122	C	0.692262	0.354011	0.333285
C123	C	1.025595	0.687344	0.666618
C124	C	0.327639	0.064508	-0.000046
C125	C	0.660973	0.397841	0.333287
C126	C	0.994306	0.731175	0.666621
O127	O	0.284343	-0.017592	-0.000046
O128	O	0.617676	0.315741	0.333287
O129	O	0.951009	0.649075	0.666621
O130	O	0.261794	0.145518	-0.000047
O131	O	0.595128	0.478851	0.333287
O132	O	0.928461	0.812184	0.666620
C133	C	0.039242	0.105716	-0.000057
C134	C	0.372575	0.439050	0.333277
C135	C	0.705908	0.772383	0.666610
C136	C	0.020120	0.061382	-0.000067
C137	C	0.353454	0.394715	0.333267
C138	C	0.686787	0.728049	0.666600
C139	C	0.051411	0.017560	-0.000073
C140	C	0.384744	0.350893	0.333260
C141	C	0.718078	0.684226	0.666594
C142	C	-0.030294	0.060869	-0.000066
C143	C	0.303039	0.394202	0.333267
C144	C	0.636373	0.727536	0.666601
C145	C	-0.061585	0.104691	-0.000060
C146	C	0.271749	0.438025	0.333273
C147	C	0.605082	0.771358	0.666607
C148	C	-0.042461	0.149026	-0.000054
C149	C	0.290872	0.482360	0.333279
C150	C	0.624206	0.815693	0.666612
C151	C	0.007951	0.149539	-0.000050
C152	C	0.341284	0.482872	0.333283
C153	C	0.674618	0.816205	0.666616
C154	C	0.032287	-0.026775	-0.000078
C155	C	0.365621	0.306558	0.333255
C156	C	0.698954	0.639891	0.666588
C157	C	-0.018125	-0.027284	-0.000082
C158	C	0.315208	0.306049	0.333251
C159	C	0.648541	0.639383	0.666585
C160	C	-0.049416	0.016538	-0.000076
C161	C	0.283917	0.349871	0.333258
C162	C	0.617251	0.683205	0.666591
C163	C	0.614867	-0.418985	-0.000046
C164	C	0.948201	-0.085652	0.333287
C165	C	1.281534	0.247682	0.666620
C166	C	0.612816	-0.620645	-0.000039
C167	C	0.946150	-0.287311	0.333294
C168	C	1.279483	0.046022	0.666628
O169	O	0.650037	-0.651900	-0.000021
O170	O	0.983370	-0.318567	0.333312
O171	O	1.316704	0.014766	0.666646
N172	N	0.568481	-0.639768	-0.000034
N173	N	0.901814	-0.306435	0.333299
N174	N	1.235148	0.026898	0.666632
C175	C	0.524656	-0.608474	-0.000028
C176	C	0.857989	-0.275140	0.333305
C177	C	1.191322	0.058193	0.666638
O178	O	0.486899	-0.629367	-0.000019
O179	O	0.820232	-0.296033	0.333314
O180	O	1.153565	0.037300	0.666648
C181	C	0.526707	-0.406815	-0.000032
C182	C	0.860040	-0.073482	0.333301
C183	C	1.193374	0.259852	0.666635
C184	C	0.571045	-0.387694	-0.000042
C185	C	0.904378	-0.054361	0.333291
C186	C	1.237712	0.278972	0.666625
C187	C	0.659202	-0.399864	-0.000056
C188	C	0.992535	-0.066530	0.333278
C189	C	1.325868	0.266803	0.666611
C190	C	0.659714	-0.349452	-0.000060
C191	C	0.993047	-0.016118	0.333273
C192	C	1.326381	0.317215	0.666606
C193	C	0.615892	-0.318161	-0.000056
C194	C	0.949225	0.015172	0.333278
C195	C	1.282559	0.348506	0.666611
C196	C	0.571557	-0.337282	-0.000046
C197	C	0.904891	-0.003949	0.333287
C198	C	1.238224	0.329384	0.666620
C199	C	0.482882	-0.375521	-0.000022
C200	C	0.816215	-0.042188	0.333311
C201	C	1.149549	0.291145	0.666644
C202	C	0.483399	-0.325104	-0.000022
C203	C	0.816732	0.008229	0.333311
C204	C	1.150065	0.341563	0.666645
C205	C	0.527737	-0.305983	-0.000032
C206	C	0.861070	0.027350	0.333302
C207	C	1.194404	0.360683	0.666635
C208	C	0.528247	-0.255580	-0.000046
C209	C	0.861581	0.077754	0.333287
C210	C	1.194914	0.411087	0.666620
N211	N	0.572583	-0.236456	-0.000051
N212	N	0.905916	0.096877	0.333282
N213	N	1.239249	0.430211	0.666616
C214	C	0.616405	-0.267747	-0.000056
C215	C	0.949738	0.065587	0.333278
C216	C	1.283072	0.398920	0.666611
C217	C	0.523582	-0.714348	-0.000027
C218	C	0.856915	-0.381014	0.333306
C219	C	1.190248	-0.047681	0.666639
C220	C	0.523069	-0.764762	-0.000027
C221	C	0.856402	-0.431429	0.333306
C222	C	1.189735	-0.098096	0.666639
C223	C	0.611230	-0.776930	-0.000037
C224	C	0.944563	-0.443596	0.333296
C225	C	1.277896	-0.110263	0.666629
C226	C	0.611742	-0.726514	-0.000041
C227	C	0.945075	-0.393181	0.333292
C228	C	1.278409	-0.059848	0.666626
C229	C	0.567917	-0.695224	-0.000032
C230	C	0.901250	-0.361891	0.333301
C231	C	1.234583	-0.028557	0.666635
C232	C	0.617477	-0.161878	-0.000066
C233	C	0.950811	0.171456	0.333267
C234	C	1.284144	0.504789	0.666601
C235	C	0.617986	-0.111461	-0.000073
C236	C	0.951319	0.221873	0.333261
C237	C	1.284652	0.555206	0.666594
C238	C	0.529825	-0.099298	-0.000060
C239	C	0.863158	0.234036	0.333273
C240	C	1.196492	0.567369	0.666607
C241	C	0.529316	-0.149710	-0.000056
C242	C	0.862650	0.183623	0.333277
C243	C	1.195983	0.516957	0.666611
C244	C	0.573146	-0.180999	-0.000057
C245	C	0.906480	0.152334	0.333276
C246	C	1.239813	0.485667	0.666609
O247	O	0.491047	-0.224296	-0.000059
O248	O	0.824380	0.109038	0.333275
O249	O	1.157713	0.442371	0.666608
O250	O	0.654156	-0.246844	-0.000054
O251	O	0.987490	0.086489	0.333280
O252	O	1.320823	0.419823	0.666613
C253	C	0.614355	-0.469397	-0.000042
C254	C	0.947688	-0.136064	0.333291
C255	C	1.281022	0.197270	0.666625
C256	C	0.570021	-0.488518	-0.000033
C257	C	0.903354	-0.155185	0.333301
C258	C	1.236687	0.178148	0.666634
C259	C	0.526198	-0.457228	-0.000028
C260	C	0.859532	-0.123894	0.333305
C261	C	1.192865	0.209439	0.666639
C262	C	0.569508	-0.538933	-0.000033
C263	C	0.902841	-0.205599	0.333301
C264	C	1.236174	0.127734	0.666634
C265	C	0.613330	-0.570223	-0.000037
C266	C	0.946663	-0.236890	0.333296
C267	C	1.279996	0.096443	0.666629
C268	C	0.657665	-0.551100	-0.000042
C269	C	0.990998	-0.217766	0.333291
C270	C	1.324332	0.115567	0.666625
C271	C	0.658177	-0.500688	-0.000046
C272	C	0.991511	-0.167354	0.333287
C273	C	1.324844	0.165979	0.666620
C274	C	0.481863	-0.476351	-0.000023
C275	C	0.815197	-0.143018	0.333310
C276	C	1.148530	0.190315	0.666643
C277	C	0.481355	-0.526764	-0.000019
C278	C	0.814688	-0.193430	0.333314
C279	C	1.148021	0.139903	0.666647
C280	C	0.525177	-0.558054	-0.000024
C281	C	0.858510	-0.224721	0.333309
C282	C	1.191843	0.108612	0.666643
C283	C	0.658931	0.057699	-0.000061
C284	C	0.992264	0.391033	0.333272
C285	C	1.325597	0.724366	0.666606
C286	C	0.712586	0.058252	-0.000064
C287	C	1.045919	0.391586	0.333270
C288	C	1.379252	0.724919	0.666603
C289	C	0.566338	0.150292	-0.000040
C290	C	0.899671	0.483626	0.333294
C291	C	1.233005	0.816959	0.666627
C292	C	0.566891	0.203947	-0.000032
C293	C	0.900224	0.537280	0.333301
C294	C	1.233557	0.870614	0.666635
N295	N	0.570482	0.061887	-0.120813
N296	N	0.903815	0.395220	0.212520
N297	N	1.237148	0.728554	0.545853
C298	C	0.537408	0.094981	-0.526773
C299	C	0.870741	0.428315	-0.193439
C300	C	1.204075	0.761648	0.139894
C301	C	0.537385	0.094982	-0.313114
C302	C	0.870718	0.428315	0.020219
C303	C	1.204051	0.761648	0.353553
O304	O	0.509207	0.123115	-0.285489
O305	O	0.842540	0.456448	0.047845
O306	O	1.175874	0.789782	0.381178
N307	N	0.570497	0.061885	-0.286397
N308	N	0.903830	0.395219	0.046936
N309	N	1.237164	0.728552	0.380269
C310	C	0.603615	0.028785	-0.313098
C311	C	0.936949	0.362118	0.020235
C312	C	1.270282	0.695451	0.353569
O313	O	0.631775	0.000631	-0.285471
O314	O	0.965109	0.333964	0.047862
O315	O	1.298442	0.667298	0.381195
C316	C	0.603636	0.028783	-0.526756
C317	C	0.936969	0.362116	-0.193422
C318	C	1.270303	0.695449	0.139911
C319	C	0.570525	0.061884	-0.553470
C320	C	0.903858	0.395218	-0.220137
C321	C	1.237191	0.728551	0.113197
C322	C	0.504299	0.128080	-0.553487
C323	C	0.837633	0.461413	-0.220154
C324	C	1.170966	0.794747	0.113180
C325	C	0.504307	0.128081	-0.606898
C326	C	0.837641	0.461415	-0.273565
C327	C	1.170974	0.794748	0.059768
C328	C	0.537424	0.094984	-0.633596
C329	C	0.870757	0.428317	-0.300262
C330	C	1.204091	0.761651	0.033071
C331	C	0.570533	0.061886	-0.606881
C332	C	0.903866	0.395219	-0.273548
C333	C	1.237199	0.728552	0.059785
C334	C	0.636752	-0.004320	-0.553456
C335	C	0.970085	0.329013	-0.220122
C336	C	1.303418	0.662347	0.113211
C337	C	0.636753	-0.004319	-0.606873
C338	C	0.970086	0.329015	-0.273540
C339	C	1.303420	0.662348	0.059793
C340	C	0.603642	0.028783	-0.633588
C341	C	0.936975	0.362116	-0.300254
C342	C	1.270308	0.695450	0.033079
C343	C	0.603657	0.028790	-0.686990
C344	C	0.936991	0.362123	-0.353657
C345	C	1.270324	0.695456	-0.020323
N346	N	0.570545	0.061886	-0.713707
N347	N	0.903878	0.395219	-0.380374
N348	N	1.237212	0.728553	-0.047040
C349	C	0.537428	0.094983	-0.687010
C350	C	0.870762	0.428316	-0.353676
C351	C	1.204095	0.761650	-0.020343
C352	C	0.603603	0.028789	-0.200925
C353	C	0.936936	0.362122	0.132409
C354	C	1.270269	0.695456	0.465742
C355	C	0.603598	0.028790	-0.147511
C356	C	0.936932	0.362123	0.185823
C357	C	1.270265	0.695457	0.519156
C358	C	0.537367	0.094986	-0.147530
C359	C	0.870700	0.428320	0.185803
C360	C	1.204034	0.761653	0.519136
C361	C	0.537374	0.094987	-0.200945
C362	C	0.870708	0.428321	0.132388
C363	C	1.204041	0.761654	0.465721
C364	C	0.570491	0.061885	-0.227642
C365	C	0.903824	0.395218	0.105692
C366	C	1.237157	0.728552	0.439025
C367	C	0.537448	0.094984	-0.799178
C368	C	0.870781	0.428317	-0.465844
C369	C	1.204114	0.761650	-0.132511
C370	C	0.537460	0.094983	-0.852594
C371	C	0.870793	0.428317	-0.519261
C372	C	1.204127	0.761650	-0.185927
C373	C	0.603689	0.028786	-0.852569
C374	C	0.937023	0.362119	-0.519236
C375	C	1.270356	0.695452	-0.185903
C376	C	0.603679	0.028787	-0.799158
C377	C	0.937012	0.362121	-0.465825
C378	C	1.270346	0.695454	-0.132491
C379	C	0.570554	0.061888	-0.772463
C380	C	0.903888	0.395222	-0.439130
C381	C	1.237221	0.728555	-0.105797
O382	O	0.631817	0.000667	-0.714649
O383	O	0.965150	0.334001	-0.381315
O384	O	1.298483	0.667334	-0.047982
O385	O	0.509265	0.123125	-0.714646
O386	O	0.842599	0.456459	-0.381313
O387	O	1.175932	0.789792	-0.047979
C388	C	0.537400	0.094980	-0.473361
C389	C	0.870734	0.428313	-0.140028
C390	C	1.204067	0.761647	0.193305
C391	C	0.570509	0.061881	-0.446647
C392	C	0.903842	0.395215	-0.113314
C393	C	1.237176	0.728548	0.220020
C394	C	0.603626	0.028784	-0.473344
C395	C	0.936959	0.362118	-0.140011
C396	C	1.270292	0.695451	0.193322
C397	C	0.570504	0.061883	-0.393233
C398	C	0.903838	0.395216	-0.059900
C399	C	1.237171	0.728549	0.273434
C400	C	0.537388	0.094980	-0.366536
C401	C	0.870721	0.428313	-0.033202
C402	C	1.204054	0.761646	0.300131
C403	C	0.504276	0.128076	-0.393253
C404	C	0.837609	0.461409	-0.059919
C405	C	1.170942	0.794743	0.273414
C406	C	0.504283	0.128077	-0.446664
C407	C	0.837617	0.461411	-0.113331
C408	C	1.170950	0.794744	0.220003
C409	C	0.636738	-0.004312	-0.446627
C410	C	0.970071	0.329021	-0.113294
C411	C	1.303405	0.662355	0.220039
C412	C	0.636728	-0.004310	-0.393216
C413	C	0.970061	0.329023	-0.059882
C414	C	1.303394	0.662356	0.273451
C415	C	0.603611	0.028787	-0.366519
C416	C	0.936944	0.362120	-0.033185
C417	C	1.270278	0.695454	0.300148
N418	N	0.570577	0.061886	0.120709
N419	N	0.903910	0.395220	0.454042
N420	N	1.237243	0.728553	0.787376
H421	H	0.412743	0.145454	-0.000021
H422	H	0.746076	0.478787	0.333312
H423	H	1.079410	0.812121	0.666645
Cl424	Cl	0.462662	0.169694	-0.519934
Cl425	Cl	0.795995	0.503027	-0.186600
Cl426	Cl	1.129328	0.836360	0.146733
Cl427	Cl	-0.193844	0.158845	-0.000043
Cl428	Cl	0.139490	0.492178	0.333291
Cl429	Cl	0.472823	0.825511	0.666624
Cl430	Cl	0.428300	-0.285770	-0.000010
Cl431	Cl	0.761634	0.047563	0.333323
Cl432	Cl	1.094967	0.380896	0.666656
Cl433	Cl	0.462677	0.169693	-0.640476
Cl434	Cl	0.796010	0.503026	-0.307143
Cl435	Cl	1.129344	0.836360	0.026190
H436	H	0.510403	0.121936	-0.125785
H437	H	0.843736	0.455270	0.207549
H438	H	1.177069	0.788603	0.540882
Cl439	Cl	0.672579	-0.201205	-0.000068
Cl440	Cl	1.005912	0.132128	0.333265
Cl441	Cl	1.339246	0.465462	0.666599
H442	H	-0.180236	-0.020747	-0.000079
H443	H	0.153097	0.312586	0.333255
H444	H	0.486430	0.645920	0.666588
H445	H	0.695819	-0.333889	-0.000066
H446	H	1.029152	-0.000555	0.333267
H447	H	1.362485	0.332778	0.666600
H448	H	0.209009	-0.060929	-0.000091
H449	H	0.542343	0.272405	0.333243
H450	H	0.875676	0.605738	0.666576
H451	H	0.630646	0.001838	-0.777407
H452	H	0.963979	0.335171	-0.444074
H453	H	1.297312	0.668504	-0.110740
Cl454	Cl	0.334890	-0.035062	-0.000065
Cl455	Cl	0.668224	0.298271	0.333269
Cl456	Cl	1.001557	0.631605	0.666602
H457	H	0.510412	0.121941	-0.222693
H458	H	0.843745	0.455274	0.110640
H459	H	1.177079	0.788608	0.443974
Cl460	Cl	0.678359	-0.045926	-0.359638
Cl461	Cl	1.011692	0.287407	-0.026305
Cl462	Cl	1.345026	0.620741	0.307029
Cl463	Cl	0.069446	0.205662	-0.000033
Cl464	Cl	0.402779	0.538995	0.333300
Cl465	Cl	0.736113	0.872329	0.666633
Cl466	Cl	0.426766	-0.437021	-0.000017
Cl467	Cl	0.760100	-0.103688	0.333317
Cl468	Cl	1.093433	0.229645	0.666650
H469	H	0.487892	-0.688875	-0.000020
H470	H	0.821225	-0.355542	0.333313
H471	H	1.154558	-0.022208	0.666646
Cl472	Cl	-0.042156	-0.083029	-0.000089
Cl473	Cl	0.291178	0.250304	0.333245
Cl474	Cl	0.624511	0.583637	0.666578
H475	H	0.646911	-0.802415	-0.000041
H476	H	0.980245	-0.469082	0.333292
H477	H	1.313578	-0.135749	0.666625
Cl478	Cl	0.645232	-0.012819	-0.113933
Cl479	Cl	0.978565	0.320515	0.219400
Cl480	Cl	1.311898	0.653848	0.552734
Cl481	Cl	0.473577	-0.173748	-0.000053
Cl482	Cl	0.806910	0.159585	0.333280
Cl483	Cl	1.140243	0.492918	0.666613
H484	H	0.477321	0.155032	-0.468411
H485	H	0.810655	0.488365	-0.135078
H486	H	1.143988	0.821698	0.198256
Cl487	Cl	0.467327	-0.788793	-0.000025
Cl488	Cl	0.800660	-0.455460	0.333308
Cl489	Cl	1.133994	-0.122127	0.666642
Cl490	Cl	0.462645	0.169685	-0.359680
Cl491	Cl	0.795978	0.503018	-0.026347
Cl492	Cl	1.129311	0.836351	0.306986
H493	H	0.174750	0.187180	-0.000030
H494	H	0.508083	0.520513	0.333304
H495	H	0.841416	0.853847	0.666637
Cl496	Cl	0.714300	-0.439193	-0.000062
Cl497	Cl	1.047634	-0.105859	0.333271
Cl498	Cl	1.380967	0.227474	0.666604
H499	H	0.023514	0.185643	-0.000042
H500	H	0.356847	0.518977	0.333291
H501	H	0.690181	0.852310	0.666624
Cl502	Cl	0.678375	-0.045923	-0.480183
Cl503	Cl	1.011708	0.287410	-0.146849
Cl504	Cl	1.345041	0.620743	0.186484
Cl505	Cl	-0.081807	0.204116	-0.000045
Cl506	Cl	0.251526	0.537450	0.333289
Cl507	Cl	0.584859	0.870783	0.666622
Cl508	Cl	0.071617	-0.081872	-0.000086
Cl509	Cl	0.404951	0.251461	0.333247
Cl510	Cl	0.738284	0.584794	0.666580
H511	H	0.434827	-0.014492	-0.000048
H512	H	0.768160	0.318841	0.333285
H513	H	1.101493	0.652174	0.666618
H514	H	0.510497	0.121940	-0.874343
H515	H	0.843830	0.455274	-0.541010
H516	H	1.177163	0.788607	-0.207676
H517	H	0.654093	-0.095896	-0.000082
H518	H	0.987426	0.237438	0.333251
H519	H	1.320759	0.570771	0.666585
H520	H	0.117558	-0.061861	-0.000090
H521	H	0.450892	0.271472	0.333243
H522	H	0.784225	0.604805	0.666577
H523	H	0.630571	0.001832	-0.222657
H524	H	0.963905	0.335166	0.110676
H525	H	1.297238	0.668499	0.444009
H526	H	0.630654	0.001839	-0.874315
H527	H	0.963987	0.335173	-0.540981
H528	H	1.297321	0.668506	-0.207648
H529	H	0.663713	-0.031275	-0.531712
H530	H	0.997047	0.302059	-0.198379
H531	H	1.330380	0.635392	0.134954
Cl532	Cl	0.474737	-0.059952	-0.000053
Cl533	Cl	0.808071	0.273382	0.333280
Cl534	Cl	1.141404	0.606715	0.666614
Cl535	Cl	0.667483	-0.702482	-0.000053
Cl536	Cl	1.000817	-0.369149	0.333281
Cl537	Cl	1.334150	-0.035816	0.666614
H538	H	0.446777	-0.391080	-0.000011
H539	H	0.780111	-0.057747	0.333322
H540	H	1.113444	0.275586	0.666655
H541	H	0.663720	-0.031276	-0.628607
H542	H	0.997053	0.302057	-0.295274
H543	H	1.330386	0.635391	0.038060
H544	H	0.321291	0.144530	-0.000036
H545	H	0.654624	0.477863	0.333297
H546	H	0.987957	0.811196	0.666631
H547	H	0.510474	0.121937	-0.777449
H548	H	0.843807	0.455270	-0.444116
H549	H	1.177141	0.788604	-0.110782
Cl550	Cl	0.712755	-0.590446	-0.000050
Cl551	Cl	1.046088	-0.257113	0.333283
Cl552	Cl	1.379422	0.076221	0.666617
Cl553	Cl	-0.307637	0.157681	-0.000052
Cl554	Cl	0.025696	0.491015	0.333282
Cl555	Cl	0.359030	0.824348	0.666615
H556	H	0.694282	-0.485125	-0.000054
H557	H	1.027615	-0.151791	0.333279
H558	H	1.360949	0.181542	0.666612
Cl559	Cl	-0.280155	-0.041312	-0.000070
Cl560	Cl	0.053179	0.292022	0.333263
Cl561	Cl	0.386512	0.625355	0.666596
H562	H	0.445246	-0.542327	-0.000016
H563	H	0.778580	-0.208993	0.333318
H564	H	1.111913	0.124340	0.666651
