data_functionalizedCrystal
_audit_creation_method	'MofGen! by Chris Wilmer'
_symmetry_space_group_name_H-M	'P1'
_symmetry_Int_Tables_number	1
_symmetry_cell_setting	triclinic
loop_
_symmetry_equiv_pos_as_xyz
  x,y,z
_cell_length_a	17.038275
_cell_length_b	12.996460
_cell_length_c	14.519731
_cell_angle_alpha	90.007128
_cell_angle_beta	92.600437
_cell_angle_gamma	89.993941
loop_
_atom_site_label
_atom_site_type_symbol
_atom_site_fract_x
_atom_site_fract_y
_atom_site_fract_z
O1	O	-1.037706	0.085591	0.200274
O2	O	-0.537706	0.585591	0.700274
O3	O	-0.810070	0.085588	0.197097
O4	O	-0.310070	0.585588	0.697097
O5	O	-0.929914	0.085580	0.064909
O6	O	-0.429914	0.585580	0.564909
O7	O	-0.917861	0.085599	0.332462
O8	O	-0.417861	0.585599	0.832462
O9	O	-0.929902	-0.085553	0.064901
O10	O	-0.429902	0.414447	0.564901
O11	O	-0.810057	-0.085545	0.197088
O12	O	-0.310057	0.414455	0.697088
O13	O	-1.037693	-0.085543	0.200265
O14	O	-0.537693	0.414457	0.700265
Cu15	Cu	-0.923874	-0.101170	0.198676
Cu16	Cu	-0.423874	0.398830	0.698676
Cu17	Cu	-0.923889	0.101216	0.198686
Cu18	Cu	-0.423889	0.601216	0.698686
O19	O	-0.917848	-0.085535	0.332453
O20	O	-0.417848	0.414465	0.832453
C21	C	-0.780930	0.000021	0.194200
C22	C	-0.280930	0.500021	0.694200
C23	C	-0.694123	0.000020	0.185572
C24	C	-0.194123	0.500020	0.685572
N25	N	-0.923869	-0.243517	0.198668
N26	N	-0.423869	0.256483	0.698668
C27	C	-0.203622	0.000014	0.132561
C28	C	0.296378	0.500014	0.632561
C29	C	-0.285186	0.000010	0.140676
C30	C	0.214814	0.500010	0.640676
C31	C	-0.316766	0.000021	0.228023
C32	C	0.183234	0.500021	0.728023
C33	C	-0.266778	0.000026	0.307261
C34	C	0.233222	0.500026	0.807261
C35	C	-0.185216	0.000024	0.299146
C36	C	0.314784	0.500024	0.799146
C37	C	-0.562572	0.000023	0.256694
C38	C	-0.062572	0.500023	0.756694
C39	C	-0.644141	0.000028	0.264804
C40	C	-0.144141	0.500028	0.764804
C41	C	-0.662543	0.000010	0.098217
C42	C	-0.162543	0.500010	0.598217
C43	C	-0.580978	0.000014	0.090109
C44	C	-0.080978	0.500014	0.590109
C45	C	-0.530997	0.000013	0.169347
C46	C	-0.030997	0.500013	0.669347
C47	C	-0.400138	0.000019	0.236320
C48	C	0.099862	0.500019	0.736320
C49	C	-0.447627	0.000008	0.161050
C50	C	0.052373	0.500008	0.661050
C51	C	-0.066833	0.000024	0.203162
C52	C	0.433167	0.500024	0.703162
C53	C	-0.153640	0.000023	0.211793
C54	C	0.346360	0.500023	0.711793
C55	C	-0.923888	-0.663331	0.198687
C56	C	-0.423888	-0.163331	0.698687
C57	C	-0.923880	-0.546526	0.198685
C58	C	-0.423880	-0.046526	0.698685
C59	C	-0.923879	-0.453428	0.198679
C60	C	-0.423879	0.046572	0.698679
C61	C	-0.923871	-0.336615	0.198675
C62	C	-0.423871	0.163385	0.698675
N63	N	-0.923900	0.243563	0.198687
N64	N	-0.423900	0.743563	0.698687
C65	C	-0.929343	0.000013	0.030502
C66	C	-0.429343	0.500013	0.530502
C67	C	-0.927651	0.000013	-0.072007
C68	C	-0.427651	0.500013	0.427993
C69	C	-0.926276	0.000015	-0.155257
C70	C	-0.426276	0.500015	0.344743
C71	C	-0.924557	0.000023	-0.259697
C72	C	-0.424557	0.500023	0.240303
C73	C	-0.923194	0.000029	-0.342940
C74	C	-0.423194	0.500029	0.157060
C75	C	-0.921476	0.000035	-0.447387
C76	C	-0.421476	0.500035	0.052613
C77	C	-0.918419	0.000035	0.366860
C78	C	-0.418419	0.500035	0.866860
C79	C	-0.920112	0.000042	0.469370
C80	C	-0.420112	0.500042	0.969370
H81	H	-0.177916	0.000012	0.061433
H82	H	0.322084	0.500012	0.561433
H83	H	-0.421911	0.000010	0.089932
H84	H	0.078089	0.500010	0.589932
O85	O	-0.550207	-0.000134	0.005311
O86	O	-0.050207	0.499866	0.505311
C87	C	-0.503584	-0.088777	-0.004376
C88	C	-0.003584	0.411223	0.495624
H89	H	-0.483378	-0.118323	0.066724
H90	H	0.016622	0.381677	0.566724
H91	H	-0.539550	-0.150843	-0.042361
H92	H	-0.039550	0.349157	0.457639
C93	C	-0.456184	-0.025565	-0.147020
C94	C	0.043816	0.474435	0.352980
C95	C	-0.431361	-0.061848	-0.059693
C96	C	0.068639	0.438152	0.440307
H97	H	-0.411635	-0.008956	-0.181145
H98	H	0.088365	0.491044	0.318855
H99	H	-0.487596	0.034154	-0.140496
H100	H	0.012404	0.534154	0.359504
H101	H	-0.486155	-0.077293	-0.178662
H102	H	0.013845	0.422707	0.321338
H103	H	-0.401398	-0.010116	-0.028048
H104	H	0.098602	0.489884	0.471952
H105	H	-0.399942	-0.121558	-0.066213
H106	H	0.100058	0.378442	0.433787
H107	H	-0.669850	0.000023	0.335936
H108	H	-0.169850	0.500023	0.835936
O109	O	-0.297362	0.000173	0.392161
O110	O	0.202638	0.500173	0.892161
C111	C	-0.271853	0.088823	0.440840
C112	C	0.228147	0.588823	0.940840
H113	H	-0.215251	0.118365	0.411266
H114	H	0.284749	0.618365	0.911266
H115	H	-0.319036	0.150888	0.433860
H116	H	0.180964	0.650888	0.933860
C117	C	-0.326232	0.025629	0.579718
C118	C	0.173768	0.525629	1.079718
C119	C	-0.256708	0.061908	0.543399
C120	C	0.243292	0.561908	1.043399
H121	H	-0.316893	0.009029	0.642981
H122	H	0.183107	0.509029	1.142981
H123	H	-0.343420	-0.034095	0.546921
H124	H	0.156580	0.465905	1.046921
H125	H	-0.365544	0.077356	0.573892
H126	H	0.134456	0.577356	1.073892
H127	H	-0.217401	0.010176	0.549214
H128	H	0.282599	0.510176	1.049214
H129	H	-0.239513	0.121622	0.576200
H130	H	0.260487	0.621622	1.076200
O131	O	-0.430776	-0.000144	0.321190
O132	O	0.069224	0.499856	0.821190
C133	C	-0.405224	-0.088752	0.369892
C134	C	0.094776	0.411248	0.869892
H135	H	-0.388179	-0.150711	0.318931
H136	H	0.111821	0.349289	0.818931
H137	H	-0.352146	-0.068703	0.417118
H138	H	0.147854	0.431297	0.917118
C139	C	-0.492972	-0.052833	0.490728
C140	C	0.007028	0.447167	0.990728
C141	C	-0.472044	-0.128935	0.428137
C142	C	0.027956	0.371065	0.928137
H143	H	-0.534188	-0.077618	0.526660
H144	H	-0.034188	0.422382	1.026660
H145	H	-0.510186	0.006866	0.457919
H146	H	-0.010186	0.506866	0.957919
H147	H	-0.448735	-0.036132	0.530074
H148	H	0.051265	0.463868	1.030074
H149	H	-0.516278	-0.145625	0.388785
H150	H	-0.016278	0.354375	0.888785
H151	H	-0.454839	-0.188638	0.460941
H152	H	0.045161	0.311362	0.960941
O153	O	-0.136549	-0.000009	0.376017
O154	O	0.363451	0.499991	0.876017
C155	C	-0.057789	0.000009	0.350126
C156	C	0.442211	0.500009	0.850126
H157	H	-0.054557	-0.032399	0.277435
H158	H	0.445443	0.467601	0.777435
H159	H	-0.034211	0.082110	0.351771
H160	H	0.465789	0.582110	0.851771
C161	C	-0.011939	-0.027292	0.507093
C162	C	0.488061	0.472708	1.007093
C163	C	-0.007969	-0.067105	0.417816
C164	C	0.492031	0.432895	0.917816
H165	H	0.018794	-0.068687	0.548849
H166	H	0.518794	0.431313	1.048849
H167	H	-0.065001	-0.027301	0.524538
H168	H	0.434999	0.472699	1.024538
H169	H	0.007708	0.041124	0.508451
H170	H	0.507708	0.541124	1.008451
H171	H	-0.027624	-0.135515	0.416456
H172	H	0.472376	0.364485	0.916456
H173	H	0.045091	-0.067109	0.400372
H174	H	0.545091	0.432891	0.900372
O175	O	-0.710983	0.000049	0.021156
O176	O	-0.210983	0.500049	0.521156
C177	C	-0.665618	0.000010	-0.057677
C178	C	-0.165618	0.500010	0.442323
H179	H	-0.604782	0.032410	-0.039042
H180	H	-0.104782	0.532410	0.460958
H181	H	-0.659768	-0.082095	-0.084150
H182	H	-0.159768	0.417905	0.415850
C183	C	-0.780867	0.027319	-0.156093
C184	C	-0.280867	0.527319	0.343907
C185	C	-0.706149	0.067121	-0.133206
C186	C	-0.206149	0.567121	0.366794
H187	H	-0.805870	0.068711	-0.202685
H188	H	-0.305870	0.568711	0.297315
H189	H	-0.811431	0.027341	-0.102982
H190	H	-0.311431	0.527341	0.397018
H191	H	-0.775981	-0.041102	-0.178147
H192	H	-0.275981	0.458898	0.321853
H193	H	-0.711037	0.135535	-0.111141
H194	H	-0.211037	0.635535	0.388859
H195	H	-0.675587	0.067112	-0.186316
H196	H	-0.175587	0.567112	0.313684
O197	O	-0.513951	0.000175	0.333598
O198	O	-0.013951	0.500175	0.833598
C199	C	-0.466243	0.088821	0.333900
C200	C	0.033757	0.588821	0.833900
H201	H	-0.462008	0.118351	0.260367
H202	H	0.037992	0.618351	0.760367
H203	H	-0.493147	0.150895	0.378120
H204	H	0.006853	0.650895	0.878120
C205	C	-0.388709	0.025638	0.464144
C206	C	0.111291	0.525638	0.964144
C207	C	-0.383502	0.061904	0.373827
C208	C	0.116498	0.561904	0.873827
H209	H	-0.337671	0.009038	0.488776
H210	H	0.162329	0.509038	0.988776
H211	H	-0.420853	-0.034082	0.463943
H212	H	0.079147	0.465918	0.963943
H213	H	-0.411132	0.077373	0.500982
H214	H	0.088868	0.577373	1.000982
H215	H	-0.361089	0.010165	0.336989
H216	H	0.138911	0.510165	0.836989
H217	H	-0.351353	0.121615	0.374023
H218	H	0.148647	0.621615	0.874023
H219	H	-0.325878	-0.000001	0.076156
H220	H	0.174122	0.499999	0.576156
