data_functionalizedCrystal
_audit_creation_method	'MofGen! by Chris Wilmer'
_symmetry_space_group_name_H-M	'P1'
_symmetry_Int_Tables_number	1
_symmetry_cell_setting	triclinic
loop_
_symmetry_equiv_pos_as_xyz
  x,y,z
_cell_length_a	27.732048
_cell_length_b	23.532407
_cell_length_c	22.010155
_cell_angle_alpha	90.000423
_cell_angle_beta	90.002893
_cell_angle_gamma	82.745667
loop_
_atom_site_label
_atom_site_type_symbol
_atom_site_fract_x
_atom_site_fract_y
_atom_site_fract_z
O1	O	-0.641035	-0.067758	-0.050453
O2	O	-0.141035	0.432242	0.449547
O3	O	-0.500257	-0.078062	-0.050472
O4	O	-0.000257	0.421938	0.449528
O5	O	-0.574891	0.010031	-0.050451
O6	O	-0.074891	0.510031	0.449549
O7	O	-0.566401	-0.155851	-0.050474
O8	O	-0.066401	0.344149	0.449526
O9	O	-0.574878	0.010018	0.050599
O10	O	-0.074878	0.510018	0.550599
O11	O	-0.500244	-0.078075	0.050578
O12	O	-0.000244	0.421925	0.550578
O13	O	-0.641021	-0.067771	0.050597
O14	O	-0.141021	0.432229	0.550597
Cu15	Cu	-0.570631	-0.072924	0.059814
Cu16	Cu	-0.070631	0.427076	0.559814
Cu17	Cu	-0.570647	-0.072909	-0.059689
Cu18	Cu	-0.070647	0.427091	0.440311
O19	O	-0.566387	-0.155864	0.050576
O20	O	-0.066387	0.344136	0.550576
C21	C	-0.482243	-0.077852	0.000051
C22	C	0.017757	0.422148	0.500051
C23	C	-0.428587	-0.077201	0.000044
C24	C	0.071413	0.422799	0.500044
C25	C	-0.574668	0.031240	0.000076
C26	C	-0.074668	0.531240	0.500076
C27	C	-0.574018	0.094455	0.000080
C28	C	-0.074018	0.594455	0.500080
C29	C	-0.659035	-0.067981	0.000073
C30	C	-0.159035	0.432019	0.500073
C31	C	-0.712691	-0.068632	0.000076
C32	C	-0.212691	0.431368	0.500076
C33	C	-0.089846	-0.125158	0.000063
C34	C	0.410154	0.374842	0.500063
C35	C	0.111817	-0.122741	0.000069
C36	C	0.611817	0.377259	0.500069
O37	O	0.143005	-0.166594	0.000089
O38	O	0.643005	0.333406	0.500089
N39	N	0.131021	-0.070506	0.000075
N40	N	0.631021	0.429494	0.500075
C41	C	0.099806	-0.018871	0.000084
C42	C	0.599806	0.481129	0.500084
O43	O	0.120768	0.025614	0.000096
O44	O	0.620768	0.525614	0.500096
C45	C	-0.101856	-0.021288	0.000083
C46	C	0.398144	0.478712	0.500083
C47	C	-0.121057	-0.073527	0.000070
C48	C	0.378943	0.426473	0.500070
C49	C	-0.109048	-0.177392	0.000052
C50	C	0.390952	0.322608	0.500052
C51	C	-0.159461	-0.177996	0.000047
C52	C	0.340539	0.322004	0.500047
C53	C	-0.190672	-0.126365	0.000054
C54	C	0.309328	0.373635	0.500054
C55	C	-0.171470	-0.074130	0.000066
C56	C	0.328530	0.425870	0.500066
C57	C	-0.133071	0.030346	0.000096
C58	C	0.366929	0.530346	0.500096
C59	C	-0.183489	0.029737	0.000097
C60	C	0.316511	0.529737	0.500097
C61	C	-0.202690	-0.022501	0.000085
C62	C	0.297310	0.477499	0.500085
C63	C	-0.253094	-0.023103	0.000068
C64	C	0.246906	0.476897	0.500068
N65	N	-0.272298	-0.075338	0.000062
N66	N	0.227702	0.424662	0.500062
C67	C	-0.241087	-0.126969	0.000055
C68	C	0.258913	0.373031	0.500055
C69	C	0.205682	-0.017606	0.000084
C70	C	0.705682	0.482394	0.500084
C71	C	0.256097	-0.017001	0.000083
C72	C	0.756097	0.482999	0.500083
C73	C	0.268105	-0.120872	0.000069
C74	C	0.768105	0.379128	0.500069
C75	C	0.217689	-0.121476	0.000065
C76	C	0.717689	0.378524	0.500065
C77	C	0.186478	-0.069841	0.000078
C78	C	0.686478	0.430159	0.500078
C79	C	-0.346958	-0.128233	0.000044
C80	C	0.153042	0.371767	0.500044
C81	C	-0.397376	-0.128832	0.000037
C82	C	0.102624	0.371168	0.500037
C83	C	-0.409379	-0.024962	0.000054
C84	C	0.090621	0.475038	0.500054
C85	C	-0.358966	-0.024362	0.000058
C86	C	0.141034	0.475638	0.500058
C87	C	-0.327756	-0.076003	0.000055
C88	C	0.172244	0.423997	0.500055
O89	O	-0.284311	0.020727	0.000055
O90	O	0.215689	0.520727	0.500055
O91	O	-0.262058	-0.171448	0.000056
O92	O	0.237942	0.328552	0.500056
C93	C	-0.039433	-0.124554	0.000068
C94	C	0.460567	0.375446	0.500068
C95	C	-0.020232	-0.072320	0.000080
C96	C	0.479768	0.427680	0.500080
C97	C	-0.051443	-0.020689	0.000087
C98	C	0.448557	0.479311	0.500087
C99	C	0.030184	-0.071715	0.000079
C100	C	0.530184	0.428285	0.500079
C101	C	0.061395	-0.123346	0.000072
C102	C	0.561395	0.376654	0.500072
C103	C	0.042191	-0.175581	0.000066
C104	C	0.542191	0.324419	0.500066
C105	C	-0.008222	-0.176185	0.000061
C106	C	0.491778	0.323815	0.500061
C107	C	-0.032239	0.031547	0.000093
C108	C	0.467761	0.531547	0.500093
C109	C	0.018175	0.032146	0.000097
C110	C	0.518175	0.532146	0.500097
C111	C	0.049386	-0.019485	0.000090
C112	C	0.549386	0.480515	0.500090
C113	C	-0.566610	-0.177073	0.000048
C114	C	-0.066610	0.322927	0.500048
C115	C	-0.567260	-0.240289	0.000039
C116	C	-0.067260	0.259711	0.500039
N117	N	-0.570624	-0.072935	0.143867
N118	N	-0.070624	0.427065	0.643867
C119	C	-0.614108	0.493644	0.000053
C120	C	-0.114108	0.993644	0.500053
C121	C	-0.613504	0.553043	0.000048
C122	C	-0.113504	1.053043	0.500048
O123	O	-0.650668	0.589867	0.000031
O124	O	-0.150668	1.089867	0.500031
N125	N	-0.569134	0.575574	0.000042
N126	N	-0.069134	1.075574	0.500042
C127	C	-0.525365	0.538703	0.000035
C128	C	-0.025365	1.038703	0.500035
O129	O	-0.487570	0.563322	0.000029
O130	O	0.012430	1.063322	0.500029
C131	C	-0.525970	0.479306	0.000036
C132	C	-0.025970	0.979306	0.500036
C133	C	-0.570342	0.456778	0.000047
C134	C	-0.070342	0.956778	0.500047
C135	C	-0.658477	0.471116	0.000064
C136	C	-0.158477	0.971116	0.500064
C137	C	-0.659081	0.411721	0.000070
C138	C	-0.159081	0.911721	0.500070
C139	C	-0.615315	0.374854	0.000064
C140	C	-0.115315	0.874854	0.500064
C141	C	-0.570946	0.397383	0.000053
C142	C	-0.070946	0.897383	0.500053
C143	C	-0.482201	0.442436	0.000024
C144	C	0.017799	0.942436	0.500024
C145	C	-0.482810	0.383035	0.000024
C146	C	0.017190	0.883035	0.500024
C147	C	-0.527182	0.360507	0.000036
C148	C	-0.027182	0.860507	0.500036
C149	C	-0.527784	0.301122	0.000054
C150	C	-0.027784	0.801122	0.500054
N151	N	-0.572154	0.278590	0.000059
N152	N	-0.072154	0.778590	0.500059
C153	C	-0.615920	0.315457	0.000065
C154	C	-0.115920	0.815457	0.500065
C155	C	-0.524100	0.663443	0.000033
C156	C	-0.024100	1.163443	0.500033
C157	C	-0.523495	0.722840	0.000037
C158	C	-0.023495	1.222840	0.500037
C159	C	-0.611634	0.737175	0.000049
C160	C	-0.111634	1.237175	0.500049
C161	C	-0.612238	0.677778	0.000049
C162	C	-0.112238	1.177778	0.500049
C163	C	-0.568469	0.640912	0.000039
C164	C	-0.068469	1.140912	0.500039
C165	C	-0.617184	0.190723	0.000077
C166	C	-0.117184	0.690723	0.500077
C167	C	-0.617784	0.131322	0.000086
C168	C	-0.117784	0.631322	0.500086
C169	C	-0.529645	0.116991	0.000071
C170	C	-0.029645	0.616991	0.500071
C171	C	-0.529045	0.176387	0.000066
C172	C	-0.029045	0.676387	0.500066
C173	C	-0.572818	0.213252	0.000067
C174	C	-0.072818	0.713252	0.500067
O175	O	-0.490640	0.264263	0.000069
O176	O	0.009360	0.764263	0.500069
O177	O	-0.653709	0.290829	0.000062
O178	O	-0.153709	0.790829	0.500062
N179	N	-0.570659	-0.072894	-0.143742
N180	N	-0.070659	0.427106	0.356258
C181	C	-0.603697	-0.033907	0.563656
C182	C	-0.103697	0.466093	1.063656
C183	C	-0.603699	-0.033903	0.627263
C184	C	-0.103699	0.466097	1.127263
O185	O	-0.631800	-0.000727	0.660163
O186	O	-0.131800	0.499273	1.160163
N187	N	-0.570647	-0.072897	0.659074
N188	N	-0.070647	0.427103	1.159074
C189	C	-0.537587	-0.111893	0.627274
C190	C	-0.037587	0.388107	1.127274
O191	O	-0.509474	-0.145060	0.660172
O192	O	-0.009474	0.354940	1.160172
C193	C	-0.537583	-0.111894	0.563667
C194	C	-0.037583	0.388106	1.063667
C195	C	-0.570641	-0.072901	0.531860
C196	C	-0.070641	0.427099	1.031860
C197	C	-0.636752	0.005083	0.531848
C198	C	-0.136752	0.505083	1.031848
C199	C	-0.636750	0.005078	0.468245
C200	C	-0.136750	0.505078	0.968245
C201	C	-0.603694	-0.033916	0.436449
C202	C	-0.103694	0.466084	0.936449
C203	C	-0.570639	-0.072906	0.468257
C204	C	-0.070639	0.427094	0.968257
C205	C	-0.504521	-0.150888	0.531868
C206	C	-0.004521	0.349112	1.031868
C207	C	-0.504520	-0.150885	0.468258
C208	C	-0.004520	0.349115	0.968258
C209	C	-0.537577	-0.111892	0.436450
C210	C	-0.037577	0.388108	0.936450
C211	C	-0.537581	-0.111906	0.372858
C212	C	-0.037581	0.388094	0.872858
N213	N	-0.570633	-0.072912	0.341047
N214	N	-0.070633	0.427088	0.841047
C215	C	-0.603689	-0.033917	0.372843
C216	C	-0.103689	0.466083	0.872843
C217	C	-0.537598	-0.111888	0.760852
C218	C	-0.037598	0.388112	1.260852
C219	C	-0.537604	-0.111891	0.824457
C220	C	-0.037604	0.388109	1.324457
C221	C	-0.603716	-0.033899	0.824442
C222	C	-0.103716	0.466101	1.324442
C223	C	-0.603712	-0.033900	0.760836
C224	C	-0.103712	0.466100	1.260836
C225	C	-0.570650	-0.072894	0.729041
C226	C	-0.070650	0.427106	1.229041
C227	C	-0.603683	-0.033930	0.239272
C228	C	-0.103683	0.466070	0.739272
C229	C	-0.603680	-0.033940	0.175663
C230	C	-0.103680	0.466060	0.675663
C231	C	-0.537567	-0.111929	0.175683
C232	C	-0.037567	0.388071	0.675683
C233	C	-0.537572	-0.111922	0.239286
C234	C	-0.037572	0.388078	0.739286
C235	C	-0.570632	-0.072918	0.271079
C236	C	-0.070632	0.427082	0.771079
O237	O	-0.509493	-0.145063	0.339918
O238	O	-0.009493	0.354937	0.839918
O239	O	-0.631794	-0.000751	0.339937
O240	O	-0.131794	0.499249	0.839937
H241	H	-0.413007	-0.171373	0.000026
H242	H	0.086993	0.328627	0.500026
H243	H	-0.488456	0.633430	0.000030
H244	H	0.011544	1.133430	0.500030
O245	O	0.274689	0.033779	0.000007
O246	O	0.774689	0.533779	0.500007
C247	C	0.258720	0.065226	-0.052330
C248	C	0.758720	0.565226	0.447670
H249	H	0.223824	0.050017	-0.069781
H250	H	0.723824	0.550017	0.430219
H251	H	0.251496	0.112714	-0.040552
H252	H	0.751496	0.612714	0.459448
H253	H	0.287925	0.058377	-0.088978
H254	H	0.787925	0.558377	0.411022
O255	O	-0.439055	0.464215	-0.000017
O256	O	0.060945	0.964215	0.499983
C257	C	-0.400562	0.418928	-0.000011
C258	C	0.099438	0.918928	0.499989
H259	H	-0.413924	0.378692	-0.019134
H260	H	0.086076	0.878692	0.480866
H261	H	-0.369570	0.431066	-0.029359
H262	H	0.130430	0.931066	0.470641
H263	H	-0.387066	0.410405	0.048465
H264	H	0.112934	0.910405	0.548465
H265	H	-0.510690	-0.143648	0.850350
H266	H	-0.010690	0.356352	1.350350
O267	O	-0.505551	-0.149800	0.729902
O268	O	-0.005551	0.350200	1.229902
C269	C	-0.531265	-0.184739	0.693121
C270	C	-0.031265	0.315261	1.193121
H271	H	-0.569195	-0.161747	0.683578
H272	H	-0.069195	0.338253	1.183578
H273	H	-0.511041	-0.193923	0.648399
H274	H	-0.011041	0.306077	1.148399
H275	H	-0.534352	-0.226800	0.717640
H276	H	-0.034352	0.273200	1.217640
H277	H	-0.208899	0.071785	0.000107
H278	H	0.291101	0.571785	0.500107
O279	O	-0.505390	-0.149784	0.144858
O280	O	-0.005390	0.350216	0.644858
C281	C	-0.457588	-0.140898	0.160393
C282	C	0.042412	0.359102	0.660393
H283	H	-0.457756	-0.118946	0.206577
H284	H	0.042244	0.381054	0.706577
H285	H	-0.433573	-0.183899	0.162568
H286	H	0.066427	0.316101	0.662568
H287	H	-0.442782	-0.112665	0.124597
H288	H	0.057218	0.387335	0.624597
O289	O	-0.659736	0.226470	0.000000
O290	O	-0.159736	0.726470	0.500000
C291	C	-0.686696	0.216320	-0.052335
C292	C	-0.186696	0.716320	0.447665
H293	H	-0.674601	0.171156	-0.069783
H294	H	-0.174601	0.671156	0.430217
H295	H	-0.727029	0.220838	-0.040554
H296	H	-0.227029	0.720838	0.459446
H297	H	-0.680259	0.248757	-0.088985
H298	H	-0.180259	0.748757	0.411015
O299	O	-0.668787	0.042954	0.437240
O300	O	-0.168787	0.542954	0.937240
C301	C	-0.698469	0.012834	0.400309
C302	C	-0.198469	0.512834	0.900309
H303	H	-0.699266	-0.032044	0.419469
H304	H	-0.199266	0.467956	0.919469
H305	H	-0.736939	0.036547	0.399429
H306	H	-0.236939	0.536547	0.899429
H307	H	-0.683203	0.009644	0.352166
H308	H	-0.183203	0.509644	0.852166
O309	O	-0.635806	0.004063	0.855268
O310	O	-0.135806	0.504063	1.355268
C311	C	-0.628212	0.060378	0.839739
C312	C	-0.128212	0.560378	1.339739
H313	H	-0.609581	0.060157	0.793556
H314	H	-0.109581	0.560157	1.293556
H315	H	-0.664679	0.088723	0.837563
H316	H	-0.164679	0.588723	1.337563
H317	H	-0.604234	0.077792	0.875538
H318	H	-0.104234	0.577792	1.375538
H319	H	-0.695214	0.393385	0.000077
H320	H	-0.195214	0.893385	0.500077
O321	O	-0.178028	-0.228791	0.000069
O322	O	0.321972	0.271209	0.500069
C323	C	-0.139662	-0.274226	0.000051
C324	C	0.360338	0.225774	0.500051
H325	H	-0.105486	-0.258563	0.019181
H326	H	0.394514	0.241437	0.519181
H327	H	-0.150021	-0.310727	0.029387
H328	H	0.349979	0.189273	0.529387
H329	H	-0.132455	-0.290127	-0.048429
H330	H	0.367545	0.209873	0.451571
H331	H	-0.492913	0.194730	0.000073
H332	H	0.007087	0.694730	0.500073
O333	O	-0.635700	0.004027	0.144737
O334	O	-0.135700	0.504027	0.644737
C335	C	-0.609934	0.038954	0.108011
C336	C	-0.109934	0.538954	0.608011
H337	H	-0.572028	0.015905	0.098447
H338	H	-0.072028	0.515905	0.598447
H339	H	-0.630151	0.048229	0.063297
H340	H	-0.130151	0.548229	0.563297
H341	H	-0.606788	0.080971	0.132591
H342	H	-0.106788	0.580971	0.632591
H343	H	-0.630630	-0.002149	0.734942
H344	H	-0.130630	0.497851	1.234942
O345	O	-0.472360	-0.188786	0.562662
O346	O	0.027640	0.311214	1.062662
C347	C	-0.443194	-0.223206	0.520946
C348	C	0.056806	0.276794	1.020946
H349	H	-0.442768	-0.199855	0.475607
H350	H	0.057232	0.300145	0.975607
H351	H	-0.404549	-0.232205	0.539320
H352	H	0.095451	0.267795	1.039320
H353	H	-0.458681	-0.265389	0.514178
H354	H	0.041319	0.234611	1.014178
O355	O	-0.654137	0.773016	-0.000060
O356	O	-0.154137	1.273016	0.499940
C357	C	-0.656419	0.807808	-0.052391
C358	C	-0.156419	1.307808	0.447609
H359	H	-0.631597	0.785834	-0.088969
H360	H	-0.131597	1.285834	0.411031
H361	H	-0.695389	0.814827	-0.069957
H362	H	-0.195389	1.314827	0.430043
H363	H	-0.644116	0.850898	-0.040564
H364	H	-0.144116	1.350898	0.459436
O365	O	-0.505444	-0.149722	0.270257
O366	O	-0.005444	0.350278	0.770257
C367	C	-0.475765	-0.119456	0.307034
C368	C	0.024235	0.380544	0.807034
H369	H	-0.495233	-0.074732	0.316554
H370	H	0.004767	0.425268	0.816554
H371	H	-0.468002	-0.143282	0.351767
H372	H	0.031998	0.356718	0.851767
H373	H	-0.440061	-0.115878	0.282521
H374	H	0.059939	0.384122	0.782521
H375	H	-0.447167	0.353020	0.000015
H376	H	0.052833	0.853020	0.500015
H377	H	-0.663670	0.036840	0.557731
H378	H	-0.163670	0.536840	1.057731
H379	H	-0.477595	-0.182638	0.442373
H380	H	0.022405	0.317362	0.942373
O381	O	0.298360	-0.171079	0.000039
O382	O	0.798360	0.328921	0.500039
C383	C	0.270607	-0.217319	0.000054
C384	C	0.770607	0.282681	0.500054
H385	H	0.232907	-0.202532	-0.019079
H386	H	0.732907	0.297468	0.480921
H387	H	0.289377	-0.253465	-0.029282
H388	H	0.789377	0.246535	0.470718
H389	H	0.267094	-0.233352	0.048533
H390	H	0.767094	0.266648	0.548533
O391	O	-0.439771	0.025138	0.000090
O392	O	0.060229	0.525138	0.500090
C393	C	-0.488385	0.013397	0.000071
C394	C	0.011615	0.513397	0.500071
H395	H	-0.490103	-0.031325	0.019190
H396	H	0.009897	0.468675	0.519190
H397	H	-0.511382	0.046324	0.029419
H398	H	-0.011382	0.546324	0.529419
H399	H	-0.502980	0.015697	-0.048407
H400	H	-0.002980	0.515697	0.451593
O401	O	-0.660847	0.109344	0.000121
O402	O	-0.160847	0.609344	0.500121
C403	C	-0.652000	0.049012	0.000109
C404	C	-0.152000	0.549012	0.500109
H405	H	-0.614208	0.034737	0.019237
H406	H	-0.114208	0.534737	0.519237
H407	H	-0.680372	0.031021	0.029451
H408	H	-0.180372	0.531021	0.529451
H409	H	-0.654266	0.032494	-0.048368
H410	H	-0.154266	0.532494	0.451632
O411	O	-0.480403	0.744748	0.000139
O412	O	0.019597	1.244748	0.500139
C413	C	-0.477410	0.778692	0.052462
C414	C	0.022590	1.278692	0.552462
H415	H	-0.502596	0.764866	0.089048
H416	H	-0.002596	1.264866	0.589048
H417	H	-0.438425	0.773021	0.070022
H418	H	0.061575	1.273021	0.570022
H419	H	-0.488790	0.825634	0.040627
H420	H	0.011210	1.325634	0.540627
O421	O	-0.114405	0.081078	0.000003
O422	O	0.385595	0.581078	0.500003
C423	C	-0.085595	0.084551	-0.052321
C424	C	0.414405	0.584551	0.447679
H425	H	-0.097374	0.054902	-0.088909
H426	H	0.402626	0.554902	0.411091
H427	H	-0.090345	0.130495	-0.069875
H428	H	0.409655	0.630495	0.430125
H429	H	-0.045771	0.071066	-0.040490
H430	H	0.454229	0.571066	0.459510
O431	O	-0.655311	0.655828	-0.000026
O432	O	-0.155311	1.155828	0.499974
C433	C	-0.658312	0.621915	-0.052369
C434	C	-0.158312	1.121915	0.447631
H435	H	-0.620144	0.606788	-0.069823
H436	H	-0.120144	1.106788	0.430177
H437	H	-0.677391	0.583183	-0.040599
H438	H	-0.177391	1.083183	0.459401
H439	H	-0.679829	0.648349	-0.089012
H440	H	-0.179829	1.148349	0.410988
H441	H	0.033803	0.074688	0.000103
H442	H	0.533803	0.574688	0.500103
O443	O	0.198981	-0.172183	0.000137
O444	O	0.698981	0.327817	0.500137
C445	C	0.170192	-0.175660	0.052479
C446	C	0.670192	0.324340	0.552479
H447	H	0.157424	-0.130663	0.069937
H448	H	0.657424	0.369337	0.569937
H449	H	0.137283	-0.198066	0.040705
H450	H	0.637283	0.301934	0.540705
H451	H	0.192590	-0.201060	0.089120
H452	H	0.692590	0.298940	0.589120
H453	H	-0.321553	-0.170283	0.000044
H454	H	0.178447	0.329717	0.500044
O455	O	0.175319	0.032519	0.000008
O456	O	0.675319	0.532519	0.500008
C457	C	0.145804	0.035294	-0.052335
C458	C	0.645804	0.535294	0.447665
H459	H	0.143457	-0.009886	-0.069785
H460	H	0.643457	0.490114	0.430215
H461	H	0.107813	0.056857	-0.040565
H462	H	0.607813	0.556857	0.459435
H463	H	0.162274	0.061152	-0.088980
H464	H	0.662274	0.561152	0.411020
H465	H	-0.494012	0.086964	0.000069
H466	H	0.005988	0.586964	0.500069
H467	H	-0.343332	0.018175	0.000059
H468	H	0.156668	0.518175	0.500059
O469	O	-0.026790	-0.226980	0.000080
O470	O	0.473210	0.273020	0.500080
C471	C	0.011577	-0.272415	0.000060
C472	C	0.511577	0.227585	0.500060
H473	H	0.045752	-0.256754	0.019193
H474	H	0.545752	0.243246	0.519193
H475	H	0.001217	-0.308918	0.029392
H476	H	0.501217	0.191082	0.529392
H477	H	0.018785	-0.288313	-0.048421
H478	H	0.518785	0.211687	0.451579
O479	O	-0.078713	-0.227535	0.000148
O480	O	0.421287	0.272465	0.500148
C481	C	-0.049175	-0.230309	0.052471
C482	C	0.450825	0.269691	0.552471
H483	H	-0.067766	-0.201026	0.089061
H484	H	0.432234	0.298974	0.589061
H485	H	-0.043297	-0.276240	0.070024
H486	H	0.456703	0.223760	0.570024
H487	H	-0.012578	-0.215904	0.040639
H488	H	0.487422	0.284096	0.540639
O489	O	0.072563	-0.225699	-0.000022
O490	O	0.572563	0.274301	0.499978
C491	C	0.102077	-0.228454	-0.052362
C492	C	0.602077	0.271546	0.447638
H493	H	0.104409	-0.183270	-0.069805
H494	H	0.604409	0.316730	0.430195
H495	H	0.140073	-0.250003	-0.040591
H496	H	0.640073	0.249997	0.459409
H497	H	0.085615	-0.254317	-0.089013
H498	H	0.585615	0.245683	0.410987
O499	O	-0.701027	0.506864	-0.000010
O500	O	-0.201027	1.006864	0.499990
C501	C	-0.727986	0.496717	-0.052346
C502	C	-0.227986	0.996717	0.447654
H503	H	-0.715889	0.451555	-0.069799
H504	H	-0.215889	0.951555	0.430201
H505	H	-0.768319	0.501231	-0.040565
H506	H	-0.268319	1.001231	0.459435
H507	H	-0.721552	0.529158	-0.088993
H508	H	-0.221552	1.029158	0.411007
O509	O	-0.062485	0.081756	0.000071
O510	O	0.437515	0.581756	0.500071
C511	C	-0.034718	0.127983	0.000094
C512	C	0.465282	0.627983	0.500094
H513	H	0.002980	0.113183	-0.019034
H514	H	0.502980	0.613183	0.480966
H515	H	-0.053479	0.164136	-0.029243
H516	H	0.446521	0.664136	0.470757
H517	H	-0.031202	0.144012	0.048575
H518	H	0.468798	0.644012	0.548575
O519	O	-0.635844	0.003980	0.270055
O520	O	-0.135844	0.503980	0.770055
C521	C	-0.665006	0.038398	0.228331
C522	C	-0.165006	0.538398	0.728331
H523	H	-0.665433	0.015043	0.182995
H524	H	-0.165433	0.515043	0.682995
H525	H	-0.703651	0.047404	0.246698
H526	H	-0.203651	0.547404	0.746698
H527	H	-0.649515	0.080578	0.221561
H528	H	-0.149515	0.580578	0.721561
