data_functionalizedCrystal
_audit_creation_method	'MofGen! by Chris Wilmer'
_symmetry_space_group_name_H-M	'P1'
_symmetry_Int_Tables_number	1
_symmetry_cell_setting	triclinic
loop_
_symmetry_equiv_pos_as_xyz
  x,y,z
_cell_length_a	16.992694
_cell_length_b	16.974755
_cell_length_c	15.455313
_cell_angle_alpha	89.009783
_cell_angle_beta	87.142206
_cell_angle_gamma	87.020575
loop_
_atom_site_label
_atom_site_type_symbol
_atom_site_fract_x
_atom_site_fract_y
_atom_site_fract_z
O1	O	-1.044183	-0.163897	0.083532
O2	O	-0.710850	0.169436	0.416865
O3	O	-0.377517	0.502769	0.750198
O4	O	-0.815895	-0.162063	0.083428
O5	O	-0.482562	0.171271	0.416762
O6	O	-0.149228	0.504604	0.750095
O7	O	-0.936028	-0.048639	0.075444
O8	O	-0.602695	0.284695	0.408777
O9	O	-0.269361	0.618028	0.742111
O10	O	-0.924050	-0.277322	0.091516
O11	O	-0.590717	0.056012	0.424849
O12	O	-0.257384	0.389345	0.758182
O13	O	-0.929158	-0.055096	-0.068364
O14	O	-0.595825	0.278237	0.264970
O15	O	-0.262491	0.611570	0.598303
O16	O	-0.809025	-0.168520	-0.060379
O17	O	-0.475692	0.164813	0.272954
O18	O	-0.142359	0.498146	0.606287
O19	O	-1.037313	-0.170355	-0.060276
O20	O	-0.703980	0.162978	0.273057
O21	O	-0.370647	0.496312	0.606391
Cu22	Cu	-0.922542	-0.170027	-0.073458
Cu23	Cu	-0.589209	0.163306	0.259875
Cu24	Cu	-0.255875	0.496639	0.593208
Cu25	Cu	-0.930666	-0.162391	0.096611
Cu26	Cu	-0.597333	0.170943	0.429944
Cu27	Cu	-0.264000	0.504276	0.763277
O28	O	-0.917181	-0.283779	-0.052292
O29	O	-0.583847	0.049554	0.281042
O30	O	-0.250514	0.382888	0.614375
C31	C	-0.783243	-0.162933	0.011362
C32	C	-0.449909	0.170400	0.344695
C33	C	-0.116576	0.503734	0.678029
C34	C	-0.696183	-0.155895	0.010877
C35	C	-0.362850	0.177438	0.344211
C36	C	-0.029517	0.510772	0.677544
C37	C	-0.932012	-0.022471	0.001476
C38	C	-0.598679	0.310862	0.334810
C39	C	-0.265346	0.644196	0.668143
C40	C	-0.930273	0.065122	-0.004674
C41	C	-0.596940	0.398456	0.328660
C42	C	-0.263606	0.731789	0.661993
C43	C	-1.069966	-0.169485	0.011792
C44	C	-0.736633	0.163848	0.345125
C45	C	-0.403299	0.497182	0.678459
C46	C	-1.157025	-0.176523	0.012282
C47	C	-0.823692	0.156811	0.345616
C48	C	-0.490359	0.490144	0.678949
C49	C	-0.646092	-0.223797	0.015649
C50	C	-0.312759	0.109536	0.348982
C51	C	0.020574	0.442870	0.682316
C52	C	-0.564291	-0.217180	0.015172
C53	C	-0.230957	0.116153	0.348505
C54	C	0.102376	0.449486	0.681839
C55	C	-0.532582	-0.142661	0.009930
C56	C	-0.199249	0.190673	0.343263
C57	C	0.134085	0.524006	0.676596
C58	C	-0.582679	-0.074754	0.005155
C59	C	-0.249346	0.258579	0.338489
C60	C	0.083987	0.591913	0.671822
C61	C	-0.664479	-0.081371	0.005626
C62	C	-0.331146	0.251962	0.338959
C63	C	0.002188	0.585295	0.672293
C64	C	-0.288923	-0.115233	0.007979
C65	C	0.044411	0.218100	0.341312
C66	C	0.377744	0.551433	0.674646
C67	C	-0.207116	-0.108621	0.007511
C68	C	0.126217	0.224713	0.340844
C69	C	0.459550	0.558046	0.674178
C70	C	-0.188733	-0.251048	0.017526
C71	C	0.144600	0.082285	0.350859
C72	C	0.477933	0.415619	0.684193
C73	C	-0.270536	-0.257659	0.018002
C74	C	0.062797	0.075675	0.351335
C75	C	0.396131	0.409008	0.684668
C76	C	-0.320626	-0.189752	0.013223
C77	C	0.012707	0.143581	0.346556
C78	C	0.346041	0.476915	0.679889
N79	N	-0.448968	-0.135896	0.009445
N80	N	-0.115634	0.197438	0.342778
N81	N	0.217699	0.530771	0.676111
N82	N	-0.404238	-0.196518	0.013702
N83	N	-0.070905	0.136815	0.347035
N84	N	0.262428	0.470149	0.680368
C85	C	-0.921196	-0.309947	0.021678
C86	C	-0.587863	0.023386	0.355011
C87	C	-0.254530	0.356720	0.688345
C88	C	-0.922936	-0.397540	0.027833
C89	C	-0.589602	-0.064206	0.361167
C90	C	-0.256269	0.269127	0.694500
C91	C	-0.920011	0.557799	-0.047670
C92	C	-0.586678	0.891132	0.285663
C93	C	-0.253345	1.224466	0.618997
C94	C	-0.921653	0.475496	-0.041896
C95	C	-0.588320	0.808830	0.291437
C96	C	-0.254986	1.142163	0.624771
C97	C	-0.926225	0.437857	0.039383
C98	C	-0.592891	0.771190	0.372716
C99	C	-0.259558	1.104523	0.706049
C100	C	-0.929147	0.482524	0.114892
C101	C	-0.595814	0.815857	0.448225
C102	C	-0.262480	1.149191	0.781559
C103	C	-0.927500	0.564825	0.109117
C104	C	-0.594166	0.898158	0.442450
C105	C	-0.260833	1.231491	0.775784
C106	C	-0.931548	0.192090	0.065061
C107	C	-0.598215	0.525423	0.398394
C108	C	-0.264881	0.858757	0.731727
C109	C	-0.933198	0.109783	0.070830
C110	C	-0.599864	0.443117	0.404163
C111	C	-0.266531	0.776450	0.737497
C112	C	-0.925702	0.102761	-0.085959
C113	C	-0.592369	0.436095	0.247375
C114	C	-0.259035	0.769428	0.580708
C115	C	-0.924060	0.185064	-0.091726
C116	C	-0.590726	0.518398	0.241607
C117	C	-0.257393	0.851731	0.574940
C118	C	-0.926978	0.229724	-0.016217
C119	C	-0.593645	0.563057	0.317116
C120	C	-0.260311	0.896391	0.650449
N121	N	-0.927905	0.353730	0.045287
N122	N	-0.594572	0.687064	0.378620
N123	N	-0.261239	1.020397	0.711954
N124	N	-0.925292	0.313848	-0.022122
N125	N	-0.591958	0.647182	0.311211
N126	N	-0.258625	0.980515	0.644544
N127	N	-0.916834	-0.175399	-0.193076
N128	N	-0.583500	0.157935	0.140258
N129	N	-0.250167	0.491268	0.473591
C130	C	-0.967888	-0.127232	-0.241861
C131	C	-0.634555	0.206101	0.091473
C132	C	-0.301221	0.539435	0.424806
C133	C	-0.963578	-0.131302	-0.332382
C134	C	-0.630245	0.202031	0.000951
C135	C	-0.296912	0.535365	0.334285
C136	C	-0.908217	-0.183543	-0.374117
C137	C	-0.574884	0.149791	-0.040783
C138	C	-0.241550	0.483124	0.292550
C139	C	-0.857157	-0.231711	-0.325325
C140	C	-0.523824	0.101622	0.008008
C141	C	-0.190491	0.434956	0.341341
C142	C	-0.861464	-0.227637	-0.234806
C143	C	-0.528131	0.105697	0.098527
C144	C	-0.194797	0.439030	0.431861
C145	C	-0.889628	-0.201108	-0.644462
C146	C	-0.556295	0.132226	-0.311128
C147	C	-0.222961	0.465559	0.022205
C148	C	-0.885327	-0.205180	-0.734988
C149	C	-0.551993	0.128153	-0.401654
C150	C	-0.218660	0.461487	-0.068321
C151	C	-0.991747	-0.104769	-0.742038
C152	C	-0.658414	0.228564	-0.408705
C153	C	-0.325080	0.561897	-0.075371
C154	C	-0.996052	-0.100703	-0.651516
C155	C	-0.662719	0.232630	-0.318183
C156	C	-0.329385	0.565964	0.015150
C157	C	-0.944989	-0.148868	-0.602733
C158	C	-0.611656	0.184465	-0.269400
C159	C	-0.278323	0.517798	0.063934
N160	N	-0.903812	-0.187706	-0.466644
N161	N	-0.570479	0.145628	-0.133311
N162	N	-0.237145	0.478961	0.200023
N163	N	-0.949391	-0.144701	-0.510208
N164	N	-0.616058	0.188632	-0.176875
N165	N	-0.282725	0.521966	0.156459
N166	N	-0.936381	-0.157013	0.216228
N167	N	-0.603048	0.176320	0.549561
N168	N	-0.269714	0.509653	0.882894
H169	H	-0.671903	-0.284479	0.019918
H170	H	-0.338569	0.048855	0.353252
H171	H	-0.005236	0.382188	0.686585
H172	H	-0.819889	-0.266858	-0.195086
H173	H	-0.486556	0.066475	0.138247
H174	H	-0.153222	0.399809	0.471581
H175	H	-0.923325	0.066391	-0.147434
H176	H	-0.589992	0.399724	0.185900
H177	H	-0.256658	0.733057	0.519233
H178	H	-0.329697	-0.059939	0.004087
H179	H	0.003637	0.273395	0.337420
H180	H	0.336970	0.606728	0.670753
F181	F	-1.046086	-0.053510	-0.793962
F182	F	-0.712753	0.279824	-0.460628
F183	F	-0.379420	0.613157	-0.127295
F184	F	-1.026815	-0.071634	-0.197452
F185	F	-0.693482	0.261700	0.135881
F186	F	-0.360149	0.595033	0.469215
H187	H	-0.812077	-0.274244	-0.359311
H188	H	-0.478744	0.059089	-0.025978
H189	H	-0.145410	0.392423	0.307355
F190	F	-0.919192	0.225117	-0.178234
F191	F	-0.585859	0.558450	0.155099
F192	F	-0.252525	0.891784	0.488432
H193	H	-0.147942	-0.306334	0.021415
H194	H	0.185392	0.027000	0.354748
H195	H	0.518725	0.360333	0.688082
F196	F	-0.510983	-0.289451	0.020254
F197	F	-0.177650	0.043882	0.353588
F198	F	0.155684	0.377215	0.686921
F199	F	-0.304277	-0.336972	0.023586
F200	F	0.029057	-0.003639	0.356919
F201	F	0.362390	0.329694	0.690253
H202	H	-0.919283	0.439137	-0.103379
H203	H	-0.585950	0.772470	0.229954
H204	H	-0.252616	1.105804	0.563288
F205	F	-0.173372	-0.029304	0.001916
F206	F	0.159962	0.304029	0.335249
F207	F	0.493295	0.637363	0.668583
F208	F	-0.548930	0.004556	-0.000430
F209	F	-0.215597	0.337889	0.332904
F210	F	0.117737	0.671222	0.666237
F211	F	-0.717790	-0.009101	0.000545
F212	F	-0.384456	0.324233	0.333878
F213	F	-0.051123	0.657566	0.667211
F214	F	-0.934025	0.442464	0.201395
F215	F	-0.600692	0.775797	0.534729
F216	F	-0.267359	1.109130	0.868062
F217	F	-0.915152	0.597851	-0.134179
F218	F	-0.581818	0.931184	0.199155
F219	F	-0.248485	1.264517	0.532488
F220	F	-0.938065	0.069727	0.157342
F221	F	-0.604731	0.403060	0.490675
F222	F	-0.271398	0.736393	0.824008
H223	H	-0.933931	0.228443	0.126546
H224	H	-0.600598	0.561776	0.459879
H225	H	-0.267264	0.895109	0.793212
H226	H	-0.929877	0.601187	0.170600
H227	H	-0.596543	0.934520	0.503933
H228	H	-0.263210	1.267854	0.837267
H229	H	-1.005150	-0.092080	-0.372102
H230	H	-0.671817	0.241253	-0.038769
H231	H	-0.338483	0.574586	0.294564
F232	F	-1.054974	-0.045104	-0.607100
F233	F	-0.721641	0.288230	-0.273767
F234	F	-0.388307	0.621563	0.059566
H235	H	-0.840243	-0.247724	-0.768963
H236	H	-0.506909	0.085609	-0.435630
H237	H	-0.173576	0.418943	-0.102297
H238	H	-0.848052	-0.240327	-0.604749
H239	H	-0.514719	0.093006	-0.271416
H240	H	-0.181385	0.426339	0.061917
