data_functionalizedCrystal
_audit_creation_method	'MofGen! by Chris Wilmer'
_symmetry_space_group_name_H-M	'P1'
_symmetry_Int_Tables_number	1
_symmetry_cell_setting	triclinic
loop_
_symmetry_equiv_pos_as_xyz
  x,y,z
_cell_length_a	33.428889
_cell_length_b	33.428139
_cell_length_c	33.424847
_cell_angle_alpha	60.004234
_cell_angle_beta	60.008465
_cell_angle_gamma	59.994972
loop_
_atom_site_label
_atom_site_type_symbol
_atom_site_fract_x
_atom_site_fract_y
_atom_site_fract_z
O1	O	0.055565	-0.584504	0.488714
O2	O	0.020982	-0.455083	0.393778
O3	O	0.102943	-0.536959	0.393689
O4	O	-0.026396	-0.502628	0.488803
O5	O	0.130140	-0.509767	0.420792
O6	O	0.048179	-0.427891	0.420881
O7	O	0.082762	-0.557312	0.515817
Cu8	Cu	0.067954	-0.490119	0.470823
Cu9	Cu	0.035790	-0.522276	0.438771
O10	O	0.000801	-0.475436	0.515906
N11	N	0.090577	-0.467504	0.493370
N12	N	0.013171	-0.544895	0.416225
C13	C	0.143377	-0.280390	0.546067
C14	C	0.143515	-0.414755	0.680369
C15	C	0.143392	-0.414735	0.546069
C16	C	0.277766	-0.414702	0.545966
C17	C	0.158177	-0.324719	0.560828
C18	C	0.158255	-0.399967	0.636038
C19	C	0.233434	-0.399936	0.560773
C20	C	0.158186	-0.399955	0.560829
C21	C	0.124540	-0.223964	0.527278
C22	C	0.124565	-0.433545	0.527281
C23	C	0.177014	-0.381145	0.579617
C24	C	0.359814	-0.400540	0.502735
C25	C	0.411105	-0.417624	0.485606
C26	C	0.411136	-0.500620	0.517255
C27	C	0.359845	-0.483534	0.534385
C28	C	0.136887	-0.198305	0.476855
C29	C	0.119761	-0.147011	0.459777
C30	C	0.077945	-0.147038	0.543547
C31	C	0.095072	-0.198332	0.560625
C32	C	0.074134	-0.421169	0.539710
C33	C	0.057023	-0.438269	0.522625
C34	C	0.140770	-0.480120	0.480694
C35	C	0.157883	-0.463020	0.497773
C36	C	0.074339	-0.421208	0.762475
C37	C	0.057288	-0.438323	0.813768
C38	C	0.141075	-0.480183	0.813699
C39	C	0.158125	-0.463069	0.762404
C40	C	0.124756	-0.433580	0.736794
C41	C	0.334186	-0.433494	0.527123
C42	C	-0.173769	-0.597444	0.363037
C43	C	-0.039302	-0.597595	0.228856
C44	C	-0.039496	-0.597587	0.363300
C45	C	-0.039512	-0.731889	0.363237
C46	C	-0.129442	-0.612265	0.348329
C47	C	-0.054138	-0.612351	0.273187
C48	C	-0.054257	-0.687554	0.348440
C49	C	-0.054247	-0.612346	0.348477
C50	C	-0.230191	-0.578579	0.381758
C51	C	-0.020722	-0.578803	0.382168
C52	C	-0.073020	-0.631130	0.329609
C53	C	-0.053713	-0.813916	0.406386
C54	C	-0.036654	-0.865210	0.423504
C55	C	0.046338	-0.865293	0.391984
C56	C	0.029278	-0.813999	0.374865
C57	C	-0.255900	-0.590938	0.432169
C58	C	-0.307191	-0.573786	0.449185
C59	C	-0.307060	-0.531922	0.365377
C60	C	-0.255769	-0.549074	0.348360
C61	C	-0.033081	-0.528377	0.369764
C62	C	-0.016014	-0.511306	0.386922
C63	C	0.025770	-0.595083	0.428877
C64	C	0.008703	-0.612156	0.411725
C65	C	-0.032755	-0.528393	0.146761
C66	C	-0.015585	-0.511324	0.095468
C67	C	0.026262	-0.595106	0.095516
C68	C	0.009094	-0.612174	0.146811
C69	C	-0.020417	-0.578816	0.172432
C70	C	-0.020748	-0.788312	0.382068
N71	N	0.436037	-0.467415	0.493101
O72	O	0.592642	-0.471896	0.376066
O73	O	0.592838	-0.567146	0.505347
O74	O	0.592754	-0.566928	0.423360
O75	O	0.592727	-0.472113	0.458053
O76	O	0.511269	-0.539835	0.450606
O77	O	0.511353	-0.540052	0.532594
O78	O	0.511157	-0.444802	0.403312
Cu79	Cu	0.503815	-0.489954	0.470441
Cu80	Cu	0.600180	-0.521995	0.438219
O81	O	0.511242	-0.445020	0.485300
N82	N	0.667959	-0.544533	0.415554
N83	N	0.090544	-0.122107	0.493359
O84	O	-0.026406	0.034587	0.488773
O85	O	0.102877	0.034627	0.393499
O86	O	0.020848	0.034591	0.393771
O87	O	0.055623	0.034623	0.488500
O88	O	0.048051	-0.046899	0.420925
O89	O	0.130080	-0.046864	0.420653
O90	O	0.000796	-0.046903	0.515927
Cu91	Cu	0.067922	-0.054324	0.470769
Cu92	Cu	0.035752	0.042048	0.438656
O93	O	0.082825	-0.046867	0.515655
N94	N	0.013123	0.109830	0.416068
N95	N	0.090892	-0.467554	0.838649
O96	O	0.086330	-0.584488	0.995334
O97	O	-0.008902	-0.455160	0.995379
O98	O	-0.008679	-0.537172	0.995355
O99	O	0.086107	-0.502475	0.995358
O100	O	0.018452	-0.509990	0.913868
O101	O	0.018230	-0.427978	0.913891
O102	O	0.113461	-0.557306	0.913847
Cu103	Cu	0.068323	-0.490160	0.906429
Cu104	Cu	0.036237	-0.522306	1.002797
O105	O	0.113239	-0.475293	0.913870
N106	N	0.013667	-0.544916	1.070577
C107	C	0.031339	-0.425179	0.394250
C108	C	0.132837	-0.526572	0.394139
C109	C	0.072405	-0.587216	0.515344
C110	C	-0.029093	-0.485823	0.515455
C111	C	0.552119	-0.566716	0.535258
C112	C	0.552016	-0.566447	0.433726
C113	C	0.551873	-0.445232	0.373402
C114	C	0.551980	-0.445502	0.474933
C115	C	0.132731	-0.006013	0.393923
C116	C	0.031182	-0.006158	0.394293
C117	C	-0.029092	-0.006163	0.515469
C118	C	0.072491	-0.006119	0.515133
C119	C	-0.008451	-0.425276	0.954641
C120	C	-0.008170	-0.526833	0.954596
C121	C	0.113010	-0.587190	0.954585
C122	C	0.112735	-0.485627	0.954611
H123	H	0.047163	-0.397193	0.741627
H124	H	0.169984	-0.533889	0.364272
O125	O	-0.073428	-0.477011	0.551042
C126	C	-0.103888	-0.428874	0.533335
H127	H	-0.080302	-0.405601	0.501862
H128	H	-0.128640	-0.429624	0.519742
C129	C	-0.164555	-0.435301	0.613528
C130	C	-0.135586	-0.406715	0.574874
H131	H	-0.184109	-0.421633	0.639152
H132	H	-0.144035	-0.467733	0.625458
H133	H	-0.185177	-0.435924	0.602194
H134	H	-0.114960	-0.406098	0.586207
H135	H	-0.156103	-0.374283	0.562948
H136	H	-0.066220	-0.006175	0.545378
O137	O	0.176891	-0.005669	0.358089
C138	C	0.170168	0.036630	0.316946
H139	H	0.131048	0.050532	0.317630
H140	H	0.177046	0.066239	0.317892
C141	C	0.254426	0.006983	0.268961
C142	C	0.206380	0.024056	0.269799
H143	H	0.276764	-0.000771	0.239878
H144	H	0.258956	-0.021513	0.296680
H145	H	0.260151	0.031661	0.269751
H146	H	0.200654	-0.000623	0.269014
H147	H	0.201850	0.052548	0.242078
H148	H	0.023733	-0.006162	0.364531
H149	H	0.047002	-0.397168	0.563734
H150	H	0.079939	-0.006110	0.544893
O151	O	0.022578	-0.380807	0.358688
C152	C	0.056201	-0.359040	0.345467
H153	H	0.070549	-0.375264	0.376864
H154	H	0.088102	-0.366428	0.311377
C155	C	0.012831	-0.283440	0.296098
C156	C	0.030451	-0.303364	0.334663
H157	H	-0.003052	-0.249097	0.289431
H158	H	-0.009821	-0.298105	0.305003
H159	H	0.039418	-0.289602	0.267694
H160	H	0.003863	-0.297208	0.363067
H161	H	0.053097	-0.288697	0.325762
H162	H	-0.038348	-0.388133	0.954654
H163	H	0.056124	-0.793157	0.355062
O164	O	-0.043621	-0.535745	0.954532
C165	C	-0.025771	-0.583909	0.954516
H166	H	0.015963	-0.596807	0.939106
H167	H	-0.038170	-0.609266	0.993599
C168	C	-0.097157	-0.569003	0.941446
C169	C	-0.045899	-0.584843	0.922516
H170	H	-0.109575	-0.569580	0.921709
H171	H	-0.109184	-0.536555	0.941459
H172	H	-0.107483	-0.590135	0.974015
H173	H	-0.035575	-0.563707	0.889951
H174	H	-0.033871	-0.617288	0.922497
O175	O	0.148620	-0.631533	0.954588
C176	C	0.130990	-0.662020	0.954566
H177	H	0.089256	-0.648755	0.970004
H178	H	0.143430	-0.660685	0.915468
C179	C	0.202558	-0.731337	0.967544
C180	C	0.151300	-0.715047	0.986508
H181	H	0.215088	-0.764047	0.987245
H182	H	0.214437	-0.710797	0.967557
H183	H	0.212919	-0.730221	0.934962
H184	H	0.140940	-0.716158	1.019086
H185	H	0.139420	-0.735588	0.986501
O186	O	0.081211	-0.631605	0.550874
C187	C	0.092728	-0.668506	0.534054
H188	H	0.076931	-0.651792	0.503619
H189	H	0.134218	-0.685728	0.519308
C190	C	0.090005	-0.728655	0.614090
C191	C	0.070599	-0.708127	0.576713
H192	H	0.076357	-0.753096	0.640405
H193	H	0.082247	-0.703795	0.625423
H194	H	0.124579	-0.743003	0.601796
H195	H	0.036027	-0.693774	0.589005
H196	H	0.078350	-0.732986	0.565383
O197	O	0.552205	-0.602345	0.579573
C198	C	0.552210	-0.584698	0.610063
H199	H	0.567596	-0.553223	0.586500
H200	H	0.513128	-0.571122	0.634837
C201	C	0.565327	-0.664935	0.670671
C202	C	0.584228	-0.626279	0.641730
H203	H	0.585076	-0.690584	0.690207
H204	H	0.565322	-0.676824	0.650131
H205	H	0.532759	-0.653615	0.691312
H206	H	0.616793	-0.637597	0.621086
H207	H	0.584239	-0.614392	0.662268
H208	H	-0.025639	-0.470264	0.074572
H209	H	0.142514	-0.478200	0.954606
H210	H	0.016234	-0.428240	0.834672
O211	O	0.552007	-0.601922	0.424800
C212	C	0.551959	-0.584075	0.376648
H213	H	0.536491	-0.542340	0.363776
H214	H	0.591038	-0.596436	0.351267
C215	C	0.539008	-0.655517	0.391532
C216	C	0.520006	-0.604258	0.375724
H217	H	0.519300	-0.667969	0.390961
H218	H	0.539043	-0.667542	0.423972
H219	H	0.571574	-0.665811	0.370379
H220	H	0.487444	-0.593965	0.396880
H221	H	0.519965	-0.592232	0.343287
H222	H	0.551811	-0.415327	0.336274
H223	H	0.551974	-0.415718	0.482355
H224	H	0.199181	-0.473148	0.741498
O225	O	0.173557	-0.508839	0.838501
C226	C	0.221713	-0.516079	0.804836
H227	H	0.221587	-0.510335	0.768281
H228	H	0.236406	-0.488776	0.799375
C229	C	0.254795	-0.575683	0.869715
C230	C	0.254640	-0.568632	0.824819
H231	H	0.275107	-0.608099	0.882042
H232	H	0.222351	-0.570804	0.892397
H233	H	0.267038	-0.552927	0.865158
H234	H	0.242392	-0.591383	0.829378
H235	H	0.287082	-0.573516	0.802138
H236	H	0.015959	-0.428182	0.532734
H237	H	0.167905	-0.504126	0.456671
H238	H	0.338981	-0.510371	0.554246
O239	O	0.206882	-0.475012	0.485613
C240	C	0.228132	-0.457437	0.434235
H241	H	0.203790	-0.452419	0.416311
H242	H	0.231923	-0.420772	0.422635
C243	C	0.309000	-0.500710	0.440009
C244	C	0.279105	-0.494550	0.417994
H245	H	0.340444	-0.523601	0.429990
H246	H	0.294684	-0.512549	0.474623
H247	H	0.312155	-0.470153	0.430340
H248	H	0.275946	-0.525105	0.427668
H249	H	0.293422	-0.482716	0.383381
O250	O	0.436008	-0.549231	0.524279
C251	C	0.423462	-0.564895	0.501250
H252	H	0.386205	-0.538891	0.496911
H253	H	0.452303	-0.564973	0.463626
C254	C	0.466883	-0.648969	0.538113
C255	C	0.421122	-0.617032	0.532786
H256	H	0.465442	-0.681129	0.557564
H257	H	0.475338	-0.638415	0.553626
H258	H	0.490913	-0.649028	0.506757
H259	H	0.397094	-0.616968	0.564142
H260	H	0.412664	-0.627586	0.517279
O261	O	0.435928	-0.385544	0.461903
C262	C	0.402283	-0.337714	0.459176
H263	H	0.365711	-0.335723	0.462566
H264	H	0.396857	-0.328139	0.490245
C265	C	0.467180	-0.303534	0.405486
C266	C	0.422264	-0.301088	0.409645
H267	H	0.479506	-0.280941	0.374934
H268	H	0.489848	-0.335758	0.407324
H269	H	0.462653	-0.295557	0.431379
H270	H	0.426793	-0.309071	0.383756
H271	H	0.399597	-0.268864	0.407801
H272	H	0.338923	-0.359792	0.496821
H273	H	0.160882	-0.219171	0.449698
H274	H	0.129813	-0.126117	0.418717
H275	H	0.085016	-0.219221	0.601683
O276	O	0.049311	-0.122213	0.576006
C277	C	0.042104	-0.155861	0.624174
H278	H	0.047840	-0.192427	0.624082
H279	H	0.069427	-0.161309	0.638839
C280	C	-0.017473	-0.090955	0.657220
C281	C	-0.010431	-0.135864	0.657107
H282	H	-0.049878	-0.078619	0.677535
H283	H	-0.012616	-0.068285	0.624768
H284	H	0.005300	-0.095501	0.669439
H285	H	-0.033200	-0.131316	0.644882
H286	H	-0.015293	-0.158533	0.689558
H287	H	-0.056788	-0.501226	0.167618
H288	H	0.019144	-0.653235	0.167709
O289	O	-0.061681	-0.495912	0.341080
C290	C	-0.068922	-0.447744	0.333807
H291	H	-0.063239	-0.447841	0.364767
H292	H	-0.041582	-0.433081	0.297299
C293	C	-0.128423	-0.414685	0.295333
C294	C	-0.121446	-0.414804	0.333361
H295	H	-0.160821	-0.394366	0.295055
H296	H	-0.123543	-0.447137	0.300231
H297	H	-0.105635	-0.402467	0.264913
H298	H	-0.144229	-0.427028	0.363781
H299	H	-0.126331	-0.382354	0.328468
H300	H	0.050281	-0.622271	0.074658
H301	H	-0.026079	-0.470245	0.376824
H302	H	0.049734	-0.622248	0.452940
H303	H	0.087072	-0.886205	0.386121
O304	O	0.020771	-0.661157	0.423800
C305	C	0.050392	-0.686933	0.453576
H306	H	0.069042	-0.662497	0.447074
H307	H	0.026678	-0.697962	0.493733
C308	C	0.066682	-0.763215	0.448625
C309	C	0.089592	-0.733203	0.440636
H310	H	0.090860	-0.791757	0.440646
H311	H	0.046724	-0.745849	0.428566
H312	H	0.046921	-0.772400	0.482090
H313	H	0.109347	-0.724014	0.407172
H314	H	0.109553	-0.750568	0.460690
H315	H	-0.063498	-0.886058	0.443304
H316	H	-0.094449	-0.793002	0.412253
H317	H	-0.328125	-0.583847	0.490235
O318	O	-0.231130	-0.619575	0.464677
C319	C	-0.264822	-0.626810	0.512822
H320	H	-0.301362	-0.595856	0.512673
H321	H	-0.270304	-0.663332	0.527505
C322	C	-0.199980	-0.665211	0.545964
C323	C	-0.244858	-0.627190	0.545781
H324	H	-0.187666	-0.665447	0.566295
H325	H	-0.177281	-0.660338	0.513528
H326	H	-0.204555	-0.695641	0.558198
H327	H	-0.240282	-0.596760	0.533541
H328	H	-0.267557	-0.632057	0.578215
O329	O	-0.331834	-0.503252	0.332869
C330	C	-0.298142	-0.496040	0.284725
H331	H	-0.261596	-0.501808	0.284882
H332	H	-0.292675	-0.523342	0.270022
C333	C	-0.362978	-0.436406	0.251590
C334	C	-0.318092	-0.443486	0.251783
H335	H	-0.375285	-0.403989	0.231268
H336	H	-0.385677	-0.441266	0.284025
H337	H	-0.358416	-0.459161	0.239338
H338	H	-0.322656	-0.420736	0.264040
H339	H	-0.295394	-0.438621	0.219348
H340	H	-0.234840	-0.539009	0.307312
