data_functionalizedCrystal
_audit_creation_method	'MofGen! by Chris Wilmer'
_symmetry_space_group_name_H-M	'P1'
_symmetry_Int_Tables_number	1
_symmetry_cell_setting	triclinic
loop_
_symmetry_equiv_pos_as_xyz
  x,y,z
_cell_length_a	13.897449
_cell_length_b	12.645330
_cell_length_c	13.897441
_cell_angle_alpha	89.972699
_cell_angle_beta	89.979267
_cell_angle_gamma	90.018972
loop_
_atom_site_label
_atom_site_type_symbol
_atom_site_fract_x
_atom_site_fract_y
_atom_site_fract_z
Zn1	Zn	1.474703	-0.421969	-0.545403
Zn2	Zn	1.974703	0.078031	-0.045403
Zn3	Zn	1.474597	-0.599265	-0.384114
Zn4	Zn	1.974597	-0.099265	0.115886
Zn5	Zn	1.313392	-0.422020	-0.384122
Zn6	Zn	1.813392	0.077980	0.115878
Zn7	Zn	1.313373	-0.599195	-0.545367
Zn8	Zn	1.813373	-0.099195	-0.045367
O9	O	1.394016	-0.510612	-0.464751
O10	O	1.894016	-0.010612	0.035249
O11	O	1.609670	-0.445496	-0.524020
O12	O	2.109670	0.054504	-0.024020
O13	O	1.453176	-0.575803	-0.249133
O14	O	1.953176	-0.075803	0.250867
O15	O	1.334842	-0.273666	-0.405535
O16	O	1.834842	0.226334	0.094465
O17	O	1.609592	-0.575754	-0.405521
O18	O	2.109592	-0.075754	0.094479
O19	O	1.453356	-0.273629	-0.524028
O20	O	1.953356	0.226371	-0.024028
O21	O	1.334739	-0.445582	-0.249139
O22	O	1.834739	0.054418	0.250861
O23	O	1.178408	-0.445514	-0.405499
O24	O	1.678408	0.054486	0.094501
O25	O	1.334811	-0.575636	-0.680353
O26	O	1.834811	-0.075636	-0.180353
O27	O	1.178394	-0.575684	-0.523965
O28	O	1.678394	-0.075684	-0.023965
O29	O	1.453339	-0.445428	-0.680380
O30	O	1.953339	0.054572	-0.180380
O31	O	1.453158	-0.747603	-0.405486
O32	O	1.953158	-0.247603	0.094514
O33	O	1.334708	-0.747552	-0.523957
O34	O	1.834708	-0.247552	-0.023957
C35	C	1.143402	-0.510598	-0.464729
C36	C	1.643402	-0.010598	0.035271
C37	C	1.036188	-0.510618	-0.464743
C38	C	1.536188	-0.010618	0.035257
C39	C	0.839893	-0.510621	-0.464768
C40	C	1.339893	-0.010621	0.035232
C41	C	0.949125	-0.510616	-0.464751
C42	C	1.449125	-0.010616	0.035249
C43	C	1.393946	-0.786042	-0.464738
C44	C	1.893946	-0.286042	0.035262
C45	C	1.394004	-0.903872	-0.464764
C46	C	1.894004	-0.403872	0.035236
C47	C	1.319794	-1.071448	-0.539525
C48	C	1.819794	-0.571448	-0.039525
C49	C	1.319415	-0.948889	-0.539284
C50	C	1.819415	-0.448889	-0.039284
C51	C	1.366485	-0.948472	-0.363109
C52	C	1.866485	-0.448472	0.136891
C53	C	1.366032	-1.071070	-0.363563
C54	C	1.866032	-0.571070	0.136437
C55	C	1.496187	-1.070958	-0.490835
C56	C	1.996187	-0.570958	0.009165
C57	C	1.495561	-0.948351	-0.493058
C58	C	1.995561	-0.448351	0.006942
C59	C	1.645609	-0.510627	-0.464774
C60	C	2.145609	-0.010627	0.035226
C61	C	1.752823	-0.510634	-0.464784
C62	C	2.252823	-0.010634	0.035216
C63	C	1.394085	-0.510519	-0.716344
C64	C	1.894085	-0.010519	-0.216344
C65	C	1.394114	-0.510479	-0.823558
C66	C	1.894114	-0.010479	-0.323558
C67	C	1.394113	-0.234107	-0.464786
C68	C	1.894113	0.265893	0.035214
C69	C	1.394154	-0.116277	-0.464801
C70	C	1.894154	0.383723	0.035199
C71	C	1.394140	-0.510407	-1.019854
C72	C	1.894140	-0.010407	-0.519854
C73	C	1.394122	-0.510450	-0.910621
C74	C	1.894122	-0.010450	-0.410621
C75	C	1.394003	-0.510629	-0.214137
C76	C	1.894003	-0.010629	0.285863
C77	C	1.394161	-0.510370	-0.106924
C78	C	1.894161	-0.010370	0.393076
H79	H	1.336632	-0.918731	-0.614661
H80	H	1.836632	-0.418731	-0.114661
C81	C	1.217209	-0.909393	-0.516054
C82	C	1.717209	-0.409393	-0.016054
N83	N	1.140217	-0.879645	-0.498580
N84	N	1.640217	-0.379645	0.001420
C85	C	1.342833	-1.111185	-0.641691
C86	C	1.842833	-0.611185	-0.141691
N87	N	1.360186	-1.141125	-0.718645
N88	N	1.860186	-0.641125	-0.218645
H89	H	1.244625	-1.102351	-0.522497
H90	H	1.744625	-0.602351	-0.022497
C91	C	1.266767	-0.907133	-0.332778
C92	C	1.766767	-0.407133	0.167222
N93	N	1.191656	-0.875999	-0.309938
N94	N	1.691656	-0.375999	0.190062
H95	H	1.521290	-1.101797	-0.563702
H96	H	2.021290	-0.601797	-0.063702
H97	H	1.551587	-1.099947	-0.436411
H98	H	2.051587	-0.599947	0.063589
C99	C	1.523622	-0.908920	-0.594107
C100	C	2.023622	-0.408920	-0.094107
N101	N	1.544762	-0.879200	-0.670211
N102	N	2.044762	-0.379200	-0.170211
C103	C	1.574350	-0.906949	-0.424884
C104	C	2.074350	-0.406949	0.075116
N105	N	1.633692	-0.875768	-0.373526
N106	N	2.133692	-0.375768	0.126474
H107	H	1.417842	-1.100729	-0.305989
H108	H	1.917842	-0.600729	0.194011
C109	C	1.437326	-0.909075	-0.285835
C110	C	1.937326	-0.409075	0.214165
N111	N	1.490684	-0.879397	-0.227633
N112	N	1.990684	-0.379397	0.272367
H113	H	1.291445	-1.099764	-0.341508
H114	H	1.791445	-0.599764	0.158492
