data_functionalizedCrystal
_audit_creation_method	'MofGen! by Chris Wilmer'
_symmetry_space_group_name_H-M	'P1'
_symmetry_Int_Tables_number	1
_symmetry_cell_setting	triclinic
loop_
_symmetry_equiv_pos_as_xyz
  x,y,z
_cell_length_a	23.532407
_cell_length_b	19.188930
_cell_length_c	18.266242
_cell_angle_alpha	90.011475
_cell_angle_beta	90.003702
_cell_angle_gamma	82.996730
loop_
_atom_site_label
_atom_site_type_symbol
_atom_site_fract_x
_atom_site_fract_y
_atom_site_fract_z
O1	O	-0.755443	-0.084758	-0.060798
O2	O	-0.255443	0.415242	0.439202
O3	O	-0.589606	-0.097021	-0.060820
O4	O	-0.089606	0.402979	0.439180
O5	O	-0.677310	0.010782	-0.060794
O6	O	-0.177310	0.510782	0.439206
O7	O	-0.667739	-0.192560	-0.060824
O8	O	-0.167739	0.307440	0.439176
O9	O	-0.677295	0.010787	0.060968
O10	O	-0.177295	0.510787	0.560968
O11	O	-0.589591	-0.097016	0.060942
O12	O	-0.089591	0.402984	0.560942
O13	O	-0.755428	-0.084752	0.060964
O14	O	-0.255428	0.415248	0.560964
Zn15	Zn	-0.672507	-0.090883	0.080285
Zn16	Zn	-0.172507	0.409117	0.580285
Zn17	Zn	-0.672527	-0.090890	-0.080141
Zn18	Zn	-0.172527	0.409110	0.419859
O19	O	-0.667724	-0.192555	0.060938
O20	O	-0.167724	0.307445	0.560938
C21	C	-0.676993	0.036794	0.000089
C22	C	-0.176993	0.536794	0.500089
C23	C	-0.676062	0.114296	0.000095
C24	C	-0.176062	0.614296	0.500095
C25	C	-0.568382	-0.096706	0.000058
C26	C	-0.068382	0.403294	0.500058
C27	C	-0.505163	-0.095767	0.000050
C28	C	-0.005163	0.404233	0.500050
C29	C	-0.776652	-0.085067	0.000084
C30	C	-0.276652	0.414933	0.500084
C31	C	-0.839871	-0.086006	0.000088
C32	C	-0.339871	0.413994	0.500088
C33	C	-0.106183	-0.153674	0.000075
C34	C	0.393817	0.346326	0.500075
C35	C	-0.046780	-0.152801	0.000079
C36	C	0.453220	0.347199	0.500079
O37	O	-0.010150	-0.206481	0.000098
O38	O	0.489850	0.293519	0.500098
N39	N	-0.024018	-0.088713	0.000087
N40	N	0.475982	0.411287	0.500087
C41	C	-0.060662	-0.025492	0.000098
C42	C	0.439338	0.474508	0.500098
O43	O	-0.035846	0.029100	0.000107
O44	O	0.464154	0.529100	0.500107
C45	C	-0.120062	-0.026365	0.000099
C46	C	0.379938	0.473635	0.500099
C47	C	-0.142821	-0.090458	0.000083
C48	C	0.357179	0.409542	0.500083
C49	C	-0.128942	-0.217761	0.000060
C50	C	0.371058	0.282239	0.500060
C51	C	-0.188340	-0.218633	0.000054
C52	C	0.311660	0.281367	0.500054
C53	C	-0.224979	-0.155417	0.000063
C54	C	0.275021	0.344583	0.500063
C55	C	-0.202219	-0.091330	0.000078
C56	C	0.297781	0.408670	0.500078
C57	C	-0.156705	0.036855	0.000115
C58	C	0.343295	0.536855	0.500115
C59	C	-0.216109	0.035976	0.000117
C60	C	0.283891	0.535976	0.500117
C61	C	-0.238868	-0.028116	0.000101
C62	C	0.261132	0.471884	0.500101
C63	C	-0.298256	-0.028986	0.000080
C64	C	0.201744	0.471014	0.500080
N65	N	-0.321018	-0.093075	0.000072
N66	N	0.178982	0.406925	0.500072
C67	C	-0.284379	-0.156290	0.000063
C68	C	0.215621	0.343710	0.500063
C69	C	0.064085	-0.023664	0.000098
C70	C	0.564085	0.476336	0.500098
C71	C	0.123485	-0.022790	0.000093
C72	C	0.623485	0.477210	0.500093
C73	C	0.137362	-0.150099	0.000075
C74	C	0.637362	0.349901	0.500075
C75	C	0.077961	-0.150972	0.000075
C76	C	0.577961	0.349028	0.500075
C77	C	0.041323	-0.087752	0.000090
C78	C	0.541323	0.412248	0.500090
C79	C	-0.409120	-0.158117	0.000050
C80	C	0.090880	0.341883	0.500050
C81	C	-0.468524	-0.158983	0.000041
C82	C	0.031476	0.341017	0.500041
C83	C	-0.482396	-0.031674	0.000063
C84	C	0.017604	0.468326	0.500063
C85	C	-0.422997	-0.030807	0.000068
C86	C	0.077003	0.469193	0.500068
C87	C	-0.386360	-0.094034	0.000064
C88	C	0.113640	0.405966	0.500064
O89	O	-0.334921	0.024666	0.000065
O90	O	0.165079	0.524666	0.500065
O91	O	-0.309203	-0.210874	0.000065
O92	O	0.190797	0.289126	0.500065
C93	C	-0.668041	-0.218568	0.000053
C94	C	-0.168041	0.281432	0.500053
C95	C	-0.668972	-0.296069	0.000042
C96	C	-0.168972	0.203931	0.500042
N97	N	-0.672498	-0.090878	0.189772
N98	N	-0.172498	0.409122	0.689772
C99	C	-0.727524	0.159384	0.000106
C100	C	-0.227524	0.659384	0.500106
C101	C	-0.726650	0.232205	0.000094
C102	C	-0.226650	0.732205	0.500094
C103	C	-0.674311	0.259935	0.000086
C104	C	-0.174311	0.759935	0.500086
C105	C	-0.622842	0.214837	0.000072
C106	C	-0.122842	0.714837	0.500072
C107	C	-0.623718	0.142017	0.000076
C108	C	-0.123718	0.642017	0.500076
N109	N	-0.634299	0.367814	0.041519
N110	N	-0.134299	0.867814	0.541519
N111	N	-0.633471	0.436990	0.041516
N112	N	-0.133471	0.936990	0.541516
C113	C	-0.671670	0.479335	0.000071
C114	C	-0.171670	0.979335	0.500071
N115	N	-0.710737	0.449892	-0.041362
N116	N	-0.210737	0.949892	0.458638
N117	N	-0.711567	0.380710	-0.041356
N118	N	-0.211567	0.880710	0.458644
C119	C	-0.673356	0.338894	0.000081
C120	C	-0.173356	0.838894	0.500081
C121	C	-0.722188	0.603384	0.000068
C122	C	-0.222188	1.103384	0.500068
C123	C	-0.721311	0.676206	0.000051
C124	C	-0.221311	1.176206	0.500051
C125	C	-0.617502	0.658836	0.000036
C126	C	-0.117502	1.158836	0.500036
C127	C	-0.618380	0.586016	0.000045
C128	C	-0.118380	1.086016	0.500045
C129	C	-0.670724	0.558295	0.000064
C130	C	-0.170724	1.058295	0.500064
N131	N	-0.672541	-0.090890	-0.189628
N132	N	-0.172541	0.409110	0.310372
C133	C	-0.711346	-0.043166	0.228093
C134	C	-0.211346	0.456834	0.728093
C135	C	-0.711350	-0.043163	0.304738
C136	C	-0.211350	0.456837	0.804738
C137	C	-0.672511	-0.090883	0.343059
C138	C	-0.172511	0.409117	0.843059
C139	C	-0.633655	-0.138599	0.304729
C140	C	-0.133655	0.361401	0.804729
C141	C	-0.633649	-0.138596	0.228086
C142	C	-0.133649	0.361404	0.728086
N143	N	-0.665108	-0.152714	0.463382
N144	N	-0.165108	0.347286	0.963382
N145	N	-0.665117	-0.152715	0.536190
N146	N	-0.165117	0.347285	1.036190
C147	C	-0.672527	-0.090893	0.573982
C148	C	-0.172527	0.409107	1.073982
N149	N	-0.679937	-0.029069	0.536215
N150	N	-0.179937	0.470931	1.036215
N151	N	-0.679931	-0.029069	0.463400
N152	N	-0.179931	0.470931	0.963400
C153	C	-0.672513	-0.090891	0.426166
C154	C	-0.172513	0.409109	0.926166
C155	C	-0.711381	-0.043174	0.695409
C156	C	-0.211381	0.456826	1.195409
C157	C	-0.711381	-0.043170	0.772056
C158	C	-0.211381	0.456830	1.272056
C159	C	-0.633689	-0.138612	0.772046
C160	C	-0.133689	0.361388	1.272046
C161	C	-0.633686	-0.138610	0.695401
C162	C	-0.133686	0.361390	1.195401
C163	C	-0.672536	-0.090892	0.657087
C164	C	-0.172536	0.409108	1.157087
H165	H	-0.487050	-0.211177	0.000028
H166	H	0.012950	0.288823	0.500028
H167	H	-0.743013	-0.004317	0.664213
H168	H	-0.243013	0.495683	1.164213
O169	O	-0.776606	0.276084	0.000206
O170	O	-0.276606	0.776084	0.500206
C171	C	-0.779196	0.318723	0.063278
C172	C	-0.279196	0.818723	0.563278
H173	H	-0.733995	0.322094	0.084287
H174	H	-0.233995	0.822094	0.584287
H175	H	-0.800548	0.373604	0.049102
H176	H	-0.300548	0.873604	0.549102
H177	H	-0.805137	0.294953	0.107445
H178	H	-0.305137	0.794953	0.607445
H179	H	-0.742986	-0.004308	0.335944
H180	H	-0.242986	0.495692	0.835944
O181	O	-0.373618	-0.219598	0.000009
O182	O	0.126382	0.280402	0.500009
C183	C	-0.406454	-0.276344	0.000011
C184	C	0.093546	0.223656	0.500011
H185	H	-0.450831	-0.258294	-0.023037
H186	H	0.049169	0.241706	0.476963
H187	H	-0.384445	-0.320612	-0.035351
H188	H	0.115555	0.179388	0.464649
H189	H	-0.410638	-0.296010	0.058421
H190	H	0.089362	0.203990	0.558421
O191	O	-0.749064	0.003154	0.809396
O192	O	-0.249064	0.503154	1.309396
C193	C	-0.740748	-0.007087	0.885260
C194	C	-0.240748	0.492913	1.385260
H195	H	-0.695405	-0.033460	0.895730
H196	H	-0.195405	0.466540	1.395730
H197	H	-0.747224	0.045829	0.914399
H198	H	-0.247224	0.545829	1.414399
H199	H	-0.772891	-0.041911	0.906997
H200	H	-0.272891	0.458089	1.406997
O201	O	-0.748982	0.003190	0.190733
O202	O	-0.248982	0.503190	0.690733
C203	C	-0.784024	-0.033806	0.146206
C204	C	-0.284024	0.466194	0.646206
H205	H	-0.785098	-0.088823	0.169283
H206	H	-0.285098	0.411177	0.669283
H207	H	-0.829284	-0.004824	0.145126
H208	H	-0.329284	0.495176	0.645126
H209	H	-0.766028	-0.037686	0.088205
H210	H	-0.266028	0.462314	0.588205
O211	O	-0.134537	0.099071	0.000231
O212	O	0.365463	0.599071	0.500231
C213	C	-0.100604	0.103395	0.063305
C214	C	0.399396	0.603395	0.563305
H215	H	-0.085672	0.048261	0.084315
H216	H	0.414328	0.548261	0.584315
H217	H	-0.061775	0.130958	0.049132
H218	H	0.438225	0.630958	0.549132
H219	H	-0.126925	0.134464	0.107470
H220	H	0.373075	0.634464	0.607470
H221	H	-0.602031	-0.177452	0.335935
H222	H	-0.102031	0.322548	0.835935
H223	H	-0.581810	0.105305	0.000068
H224	H	-0.081810	0.605305	0.500068
O225	O	-0.251617	0.097455	0.000095
O226	O	0.248383	0.597455	0.500095
C227	C	-0.218786	0.154205	0.000127
C228	C	0.281214	0.654205	0.500127
H229	H	-0.174409	0.136161	-0.022924
H230	H	0.325591	0.636161	0.477076
H231	H	-0.240800	0.198472	-0.035219
H232	H	0.259200	0.698472	0.464781
H233	H	-0.214603	0.173871	0.058546
H234	H	0.285397	0.673871	0.558546
O235	O	0.172902	-0.211555	0.000169
O236	O	0.672902	0.288445	0.500169
C237	C	0.162624	-0.250481	0.063235
C238	C	0.662624	0.249519	0.563235
H239	H	0.117520	-0.233022	0.084258
H240	H	0.617520	0.266978	0.584258
H241	H	0.166949	-0.308744	0.049047
H242	H	0.666949	0.191256	0.549047
H243	H	0.195092	-0.241154	0.107397
H244	H	0.695092	0.258846	0.607397
H245	H	-0.206864	-0.270824	0.000041
H246	H	0.293136	0.229176	0.500041
H247	H	-0.099116	-0.269242	0.000055
H248	H	0.400884	0.230758	0.500055
O249	O	-0.572036	0.241853	-0.000032
O250	O	-0.072036	0.741853	0.499968
C251	C	-0.568427	0.283429	-0.063105
C252	C	-0.068427	0.783429	0.436895
H253	H	-0.613363	0.301873	-0.084121
H254	H	-0.113363	0.801873	0.415879
H255	H	-0.545843	0.330964	-0.048927
H256	H	-0.045843	0.830964	0.451073
H257	H	-0.543157	0.251071	-0.107267
H258	H	-0.043157	0.751071	0.392733
O259	O	-0.596014	-0.184940	0.809375
O260	O	-0.096014	0.315060	1.309375
C261	C	-0.604337	-0.174698	0.885241
C262	C	-0.104337	0.325302	1.385241
H263	H	-0.649680	-0.148323	0.895708
H264	H	-0.149680	0.351677	1.395708
H265	H	-0.597866	-0.227614	0.914359
H266	H	-0.097866	0.272386	1.414359
H267	H	-0.572195	-0.139877	0.907004
H268	H	-0.072195	0.360123	1.407004
O269	O	-0.400980	0.031512	0.000106
O270	O	0.099020	0.531512	0.500106
C271	C	-0.446060	0.087120	0.000087
C272	C	0.053940	0.587120	0.500087
H273	H	-0.486369	0.067838	0.023130
H274	H	0.013631	0.567838	0.523130
H275	H	-0.433754	0.131895	0.035445
H276	H	0.066246	0.631895	0.535445
H277	H	-0.454508	0.106594	-0.058327
H278	H	0.045492	0.606594	0.441673
H279	H	0.142009	0.029401	0.000094
H280	H	0.642009	0.529401	0.500094
O281	O	-0.595891	-0.185016	0.190971
O282	O	-0.095891	0.314984	0.690971
C283	C	-0.561598	-0.227123	0.241225
C284	C	-0.061598	0.272877	0.741225
H285	H	-0.584946	-0.227767	0.295856
H286	H	-0.084946	0.272233	0.795856
H287	H	-0.552767	-0.282937	0.219069
H288	H	-0.052767	0.217063	0.719069
H289	H	-0.519351	-0.204714	0.249388
H290	H	-0.019351	0.295286	0.749388
H291	H	-0.602055	-0.177464	0.664198
H292	H	-0.102055	0.322536	1.164198
O293	O	-0.518073	0.029667	0.000106
O294	O	-0.018073	0.529667	0.500106
C295	C	-0.575380	0.015146	0.000084
C296	C	-0.075380	0.515146	0.500084
H297	H	-0.577521	-0.039682	0.023120
H298	H	-0.077521	0.460318	0.523120
H299	H	-0.602390	0.055460	0.035446
H300	H	-0.102390	0.555460	0.535446
H301	H	-0.592569	0.017917	-0.058331
H302	H	-0.092569	0.517917	0.441669
H303	H	-0.770147	0.136819	0.000119
H304	H	-0.270147	0.636819	0.500119
H305	H	-0.764810	0.580813	0.000080
H306	H	-0.264810	1.080813	0.500080
O307	O	-0.771343	0.719936	-0.000037
O308	O	-0.271343	1.219936	0.499963
C309	C	-0.803138	0.707418	-0.063097
C310	C	-0.303138	1.207418	0.436903
H311	H	-0.789018	0.652072	-0.084119
H312	H	-0.289018	1.152072	0.415881
H313	H	-0.850647	0.712872	-0.048901
H314	H	-0.350647	1.212872	0.451099
H315	H	-0.795460	0.747187	-0.107262
H316	H	-0.295460	1.247187	0.392738
H317	H	-0.574886	0.681413	0.000026
H318	H	-0.074886	1.181413	0.500026
H319	H	-0.576474	0.549304	0.000041
H320	H	-0.076474	1.049304	0.500041
O321	O	0.055787	-0.213187	0.000160
O322	O	0.555787	0.286813	0.500160
C323	C	0.021859	-0.217513	0.063231
C324	C	0.521859	0.282487	0.563231
H325	H	0.006932	-0.162379	0.084268
H326	H	0.506932	0.337621	0.584268
H327	H	-0.016973	-0.245071	0.049044
H328	H	0.483027	0.254929	0.549044
H329	H	0.048181	-0.248587	0.107382
H330	H	0.548181	0.251413	0.607382
O331	O	0.028577	0.037817	0.000069
O332	O	0.528577	0.537817	0.500069
C333	C	0.061412	0.094564	0.000093
C334	C	0.561412	0.594564	0.500093
H335	H	0.105788	0.076515	-0.022959
H336	H	0.605788	0.576515	0.477041
H337	H	0.039400	0.138830	-0.035255
H338	H	0.539400	0.638830	0.464745
H339	H	0.065599	0.114234	0.058510
H340	H	0.565599	0.614234	0.558510
