data_functionalizedCrystal
_audit_creation_method	'MofGen! by Chris Wilmer'
_symmetry_space_group_name_H-M	'P1'
_symmetry_Int_Tables_number	1
_symmetry_cell_setting	triclinic
loop_
_symmetry_equiv_pos_as_xyz
  x,y,z
_cell_length_a	13.032831
_cell_length_b	16.625546
_cell_length_c	13.033388
_cell_angle_alpha	82.835440
_cell_angle_beta	89.094871
_cell_angle_gamma	82.826778
loop_
_atom_site_label
_atom_site_type_symbol
_atom_site_fract_x
_atom_site_fract_y
_atom_site_fract_z
Zn1	Zn	1.498212	-0.544714	0.780744
Zn2	Zn	1.519991	-0.664802	0.608758
Zn3	Zn	1.348128	-0.510984	0.586996
Zn4	Zn	1.326198	-0.660480	0.758877
O5	O	1.423132	-0.595245	0.683844
O6	O	1.645015	-0.576569	0.776188
O7	O	1.515485	-0.632090	0.461962
O8	O	1.368100	-0.402636	0.612741
O9	O	1.661016	-0.664797	0.649831
O10	O	1.478366	-0.427418	0.755086
O11	O	1.389218	-0.519081	0.445974
O12	O	1.201304	-0.514889	0.591538
O13	O	1.330724	-0.657431	0.905687
O14	O	1.185193	-0.624724	0.717818
O15	O	1.457102	-0.572378	0.921752
O16	O	1.494221	-0.777051	0.628628
O17	O	1.351842	-0.773875	0.738920
C18	C	1.155933	-0.565678	0.649945
C19	C	1.041621	-0.553051	0.635467
C20	C	0.982725	-0.601835	0.691400
C21	C	0.864578	-0.588786	0.676438
C22	C	1.423040	-0.804721	0.683788
C23	C	1.423091	-0.894350	0.683811
C24	C	1.423257	-1.222554	0.683941
C25	C	1.423207	-1.131238	0.683907
C26	C	1.423173	-1.058455	0.683875
C27	C	1.423125	-0.967133	0.683843
C28	C	1.691374	-0.624928	0.717876
C29	C	1.805683	-0.637577	0.732378
C30	C	1.389037	-0.618185	0.952077
C31	C	1.374508	-0.627960	1.066382
C32	C	1.423250	-0.384956	0.683925
C33	C	1.423300	-0.295343	0.683960
C34	C	1.415558	-0.600346	1.243434
C35	C	1.430569	-0.590235	1.125293
C36	C	1.457086	-0.572409	1.416653
C37	C	1.471611	-0.562625	1.302347
H38	H	1.019770	-0.653260	0.750366
H39	H	1.315391	-0.667733	1.103401
H40	H	1.356452	-0.640122	1.280460
H41	H	0.827537	-0.537352	0.617475
H42	H	1.530709	-0.522842	1.265320
H43	H	1.489671	-0.550449	1.088271
H44	H	0.842722	-0.689004	0.791352
H45	H	1.004576	-0.501620	0.576508
