data_functionalizedCrystal
_audit_creation_method	'MofGen! by Chris Wilmer'
_symmetry_space_group_name_H-M	'P1'
_symmetry_Int_Tables_number	1
_symmetry_cell_setting	triclinic
loop_
_symmetry_equiv_pos_as_xyz
  x,y,z
_cell_length_a	16.956995
_cell_length_b	18.266242
_cell_length_c	16.992695
_cell_angle_alpha	90.005094
_cell_angle_beta	83.361347
_cell_angle_gamma	90.012131
loop_
_atom_site_label
_atom_site_type_symbol
_atom_site_fract_x
_atom_site_fract_y
_atom_site_fract_z
O1	O	1.060104	0.060932	0.032363
O2	O	1.560104	0.560932	0.532363
O3	O	0.829694	0.060922	0.059777
O4	O	1.329694	0.560922	0.559777
O5	O	0.943976	0.060921	-0.068013
O6	O	1.443976	0.560921	0.431987
O7	O	0.945823	0.060933	0.160153
O8	O	1.445823	0.560933	0.660153
O9	O	0.943955	-0.060841	-0.068015
O10	O	1.443955	0.439159	0.431985
O11	O	0.829673	-0.060840	0.059774
O12	O	1.329673	0.439160	0.559774
O13	O	1.060083	-0.060830	0.032361
O14	O	1.560083	0.439170	0.532361
Zn15	Zn	0.944875	-0.080167	0.046067
Zn16	Zn	1.444875	0.419833	0.546067
Zn17	Zn	0.944903	0.080259	0.046070
Zn18	Zn	1.444903	0.580259	0.546070
O19	O	0.945802	-0.060829	0.160150
O20	O	1.445802	0.439171	0.660150
C21	C	0.800065	0.000040	0.061179
C22	C	1.300065	0.500040	0.561179
C23	C	0.711811	0.000036	0.065352
C24	C	1.211811	0.500036	0.565352
N25	N	0.944862	-0.189654	0.046065
N26	N	1.444862	0.310346	0.546065
C27	C	0.214500	0.000065	0.096570
C28	C	0.714500	0.500065	0.596570
C29	C	0.297425	0.000065	0.092643
C30	C	0.797425	0.500065	0.592643
C31	C	0.343815	0.000055	0.018931
C32	C	0.843815	0.500055	0.518931
C33	C	0.307278	0.000054	-0.050860
C34	C	0.807278	0.500054	0.449140
C35	C	0.224354	0.000060	-0.046932
C36	C	0.724354	0.500060	0.453068
C37	C	0.592349	0.000041	-0.000510
C38	C	1.092349	0.500041	0.499490
C39	C	0.675278	0.000033	-0.004433
C40	C	1.175278	0.500033	0.495567
C41	C	0.665419	0.000045	0.139071
C42	C	1.165419	0.500045	0.639071
C43	C	0.582495	0.000047	0.142992
C44	C	1.082495	0.500047	0.642992
C45	C	0.545964	0.000049	0.073202
C46	C	1.045964	0.500049	0.573202
N47	N	0.428578	0.000052	0.014915
N48	N	0.928578	0.500052	0.514915
N49	N	0.461203	0.000058	0.077218
N50	N	0.961203	0.500058	0.577218
C51	C	0.996037	-0.227952	0.090336
C52	C	1.496037	0.272048	0.590336
C53	C	0.996050	-0.304597	0.090333
C54	C	1.496050	0.195403	0.590333
C55	C	0.944874	-0.342941	0.046069
C56	C	1.444874	0.157059	0.546069
C57	C	0.893695	-0.304634	0.001788
C58	C	1.393695	0.195366	0.501788
C59	C	0.893689	-0.227990	0.001786
C60	C	1.393689	0.272010	0.501786
N61	N	0.875183	-0.463297	0.048444
N62	N	1.375183	0.036703	0.548444
N63	N	0.875191	-0.536105	0.048450
N64	N	1.375191	-0.036105	0.548450
C65	C	0.944890	-0.573864	0.046071
C66	C	1.444890	-0.073864	0.546071
N67	N	1.014581	-0.536064	0.043700
N68	N	1.514581	-0.036064	0.543700
N69	N	1.014573	-0.463249	0.043698
N70	N	1.514573	0.036751	0.543698
C71	C	0.944875	-0.426048	0.046065
C72	C	1.444875	0.073952	0.546065
C73	C	0.996083	-0.695269	0.090341
C74	C	1.496083	-0.195269	0.590341
C75	C	0.996097	-0.771915	0.090332
C76	C	1.496097	-0.271915	0.590332
C77	C	0.893736	-0.771950	0.001792
C78	C	1.393736	-0.271950	0.501792
C79	C	0.893728	-0.695305	0.001796
C80	C	1.393728	-0.195305	0.501796
C81	C	0.944901	-0.656969	0.046074
C82	C	1.444901	-0.156969	0.546074
C83	C	1.089713	0.000053	0.030958
C84	C	1.589713	0.500053	0.530958
C85	C	1.177967	0.000062	0.026785
C86	C	1.677967	0.500062	0.526785
C87	C	0.941589	0.000040	-0.097073
C88	C	1.441589	0.500040	0.402927
C89	C	0.934498	0.000040	-0.183657
C90	C	1.434498	0.500040	0.316343
N91	N	0.944922	0.189746	0.046066
N92	N	1.444922	0.689746	0.546066
C93	C	1.002913	0.000042	-0.238332
C94	C	1.502913	0.500042	0.261668
C95	C	0.996246	0.000049	-0.319686
C96	C	1.496246	0.500049	0.180314
C97	C	0.921163	0.000048	-0.346365
C98	C	1.421163	0.500048	0.153635
C99	C	0.852743	0.000048	-0.291683
C100	C	1.352743	0.500048	0.208317
C101	C	0.859411	0.000047	-0.210331
C102	C	1.359411	0.500047	0.289669
C103	C	0.893527	0.000057	-0.588171
C104	C	1.393527	0.500057	-0.088171
C105	C	0.886865	0.000056	-0.669531
C106	C	1.386865	0.500056	-0.169531
C107	C	1.030368	0.000058	-0.697528
C108	C	1.530368	0.500058	-0.197528
C109	C	1.037029	0.000052	-0.616172
C110	C	1.537029	0.500052	-0.116172
C111	C	0.968609	0.000056	-0.561498
C112	C	1.468609	0.500056	-0.061498
N113	N	0.914346	0.000053	-0.429522
N114	N	1.414346	0.500053	0.070478
N115	N	0.975427	0.000057	-0.478343
N116	N	1.475427	0.500057	0.021657
C117	C	0.948189	0.000053	0.189210
C118	C	1.448189	0.500053	0.689210
C119	C	0.955280	0.000058	0.275795
C120	C	1.455280	0.500058	0.775795
H121	H	0.176733	0.000067	0.156595
H122	H	0.676733	0.500067	0.656595
N123	N	1.051244	-0.345911	0.138093
N124	N	1.551244	0.154089	0.638093
H125	H	1.019098	-0.377713	0.178531
H126	H	1.519098	0.122287	0.678531
H127	H	1.087943	-0.377665	0.101550
H128	H	1.587943	0.122335	0.601550
N129	N	1.083897	0.000041	-0.209563
N130	N	1.583897	0.500041	0.290437
H131	H	1.077743	0.000036	-0.149730
H132	H	1.577743	0.500036	0.350270
H133	H	1.114051	-0.045098	-0.229905
H134	H	1.614051	0.454902	0.270095
N135	N	0.336816	0.000063	0.167918
N136	N	0.836816	0.500063	0.667918
H137	H	0.370989	-0.045075	0.169491
H138	H	0.870989	0.454925	0.669491
H139	H	0.370969	0.045230	0.169450
H140	H	0.870969	0.545230	0.669450
N141	N	0.725317	0.000028	-0.083941
N142	N	1.225317	0.500028	0.416059
H143	H	0.759923	-0.045115	-0.088766
H144	H	1.259923	0.454885	0.411234
H145	H	0.689540	0.000059	-0.127509
H146	H	1.189540	0.500059	0.372491
H147	H	1.037708	-0.196744	0.126388
H148	H	1.537708	0.303256	0.626388
H149	H	1.051957	0.000049	-0.364200
H150	H	1.551957	0.500049	0.135800
H151	H	0.852015	-0.196808	-0.034266
H152	H	1.352015	0.303192	0.465734
H153	H	0.695172	0.000044	0.195890
H154	H	1.195172	0.500044	0.695890
N155	N	1.118011	0.000049	-0.587399
N156	N	1.618011	0.500049	-0.087399
H157	H	1.160342	0.000051	-0.634381
H158	H	1.660342	0.500051	-0.134381
H159	H	1.123914	0.045185	-0.554249
H160	H	1.623914	0.545185	-0.054249
H161	H	1.037751	-0.664054	0.126394
H162	H	1.537751	-0.164054	0.626394
H163	H	1.086072	0.000056	-0.742052
H164	H	1.586072	0.500056	-0.242052
H165	H	0.852028	-0.335858	-0.034253
H166	H	1.352028	0.164142	0.465747
H167	H	1.037775	-0.803096	0.126380
H168	H	1.537775	-0.303096	0.626380
H169	H	0.194611	0.000059	-0.103758
H170	H	0.694611	0.500059	0.396242
H171	H	0.825720	0.000044	-0.691248
H172	H	1.325720	0.500044	-0.191248
N173	N	0.552954	0.000039	-0.075780
N174	N	1.052954	0.500039	0.424220
H175	H	0.594927	0.000027	-0.123070
H176	H	1.094927	0.500027	0.376930
H177	H	0.518749	-0.045098	-0.077273
H178	H	1.018749	0.454902	0.422727
H179	H	0.837815	0.000060	-0.543665
H180	H	1.337815	0.500060	-0.043665
H181	H	0.852068	-0.803169	-0.034250
H182	H	1.352068	-0.303169	0.465750
N183	N	0.357315	0.000041	-0.130363
N184	N	0.857315	0.500041	0.369637
H185	H	0.345020	-0.045098	-0.161044
H186	H	0.845020	0.454902	0.338956
H187	H	0.345034	0.045206	-0.160987
H188	H	0.845034	0.545206	0.339013
N189	N	0.771761	0.000041	-0.320456
N190	N	1.271761	0.500041	0.179544
H191	H	0.729432	0.000040	-0.273473
H192	H	1.229432	0.500040	0.226527
H193	H	0.765875	0.045178	-0.353598
H194	H	1.265875	0.545178	0.146402
N195	N	0.838518	-0.653995	-0.045941
N196	N	1.338518	-0.153995	0.454059
H197	H	0.846279	-0.599624	-0.039225
H198	H	1.346279	-0.099624	0.460775
H199	H	0.850590	-0.667393	-0.103742
H200	H	1.350590	-0.167393	0.396258
H201	H	0.544728	0.000056	0.203017
H202	H	1.044728	0.500056	0.703017
H203	H	0.803700	0.000045	-0.165814
H204	H	1.303700	0.500045	0.334186
