data_functionalizedCrystal
_audit_creation_method	'MofGen! by Chris Wilmer'
_symmetry_space_group_name_H-M	'P1'
_symmetry_Int_Tables_number	1
_symmetry_cell_setting	triclinic
loop_
_symmetry_equiv_pos_as_xyz
  x,y,z
_cell_length_a	18.215407
_cell_length_b	16.625546
_cell_length_c	18.215399
_cell_angle_alpha	89.970824
_cell_angle_beta	89.982632
_cell_angle_gamma	90.019912
loop_
_atom_site_label
_atom_site_type_symbol
_atom_site_fract_x
_atom_site_fract_y
_atom_site_fract_z
Zn1	Zn	1.125084	-0.321065	-0.416061
Zn2	Zn	1.458418	0.012268	-0.082728
Zn3	Zn	1.791751	0.345602	0.250605
Zn4	Zn	1.124998	-0.455905	-0.292992
Zn5	Zn	1.458331	-0.122572	0.040341
Zn6	Zn	1.791665	0.210761	0.373674
Zn7	Zn	1.002017	-0.321084	-0.293014
Zn8	Zn	1.335350	0.012249	0.040319
Zn9	Zn	1.668684	0.345582	0.373653
Zn10	Zn	1.001988	-0.455853	-0.416022
Zn11	Zn	1.335321	-0.122520	-0.082689
Zn12	Zn	1.668655	0.210813	0.250644
O13	O	1.063522	-0.388477	-0.354522
O14	O	1.396855	-0.055144	-0.021189
O15	O	1.730188	0.278190	0.312144
O16	O	1.228057	-0.338965	-0.399743
O17	O	1.561390	-0.005632	-0.066410
O18	O	1.894724	0.327701	0.266924
O19	O	1.108660	-0.438051	-0.190011
O20	O	1.441993	-0.104717	0.143323
O21	O	1.775327	0.228616	0.476656
O22	O	1.018390	-0.208249	-0.309362
O23	O	1.351724	0.125084	0.023972
O24	O	1.685057	0.458417	0.357305
O25	O	1.227994	-0.438032	-0.309325
O26	O	1.561327	-0.104699	0.024009
O27	O	1.894660	0.228635	0.357342
O28	O	1.108807	-0.208235	-0.399764
O29	O	1.442141	0.125098	-0.066431
O30	O	1.775474	0.458432	0.266903
O31	O	1.018306	-0.338998	-0.190027
O32	O	1.351640	-0.005665	0.143307
O33	O	1.684973	0.327668	0.476640
O34	O	0.899029	-0.338948	-0.309324
O35	O	1.232362	-0.005615	0.024009
O36	O	1.565695	0.327719	0.357343
O37	O	1.018341	-0.437943	-0.519012
O38	O	1.351674	-0.104610	-0.185679
O39	O	1.685008	0.228723	0.147655
O40	O	0.899008	-0.437962	-0.399698
O41	O	1.232341	-0.104629	-0.066365
O42	O	1.565674	0.228705	0.266969
O43	O	1.108779	-0.338915	-0.519040
O44	O	1.442113	-0.005582	-0.185707
O45	O	1.775446	0.327752	0.147626
O46	O	1.108632	-0.568731	-0.309287
O47	O	1.441965	-0.235397	0.024046
O48	O	1.775299	0.097936	0.357379
O49	O	1.018257	-0.568693	-0.399677
O50	O	1.351591	-0.235359	-0.066344
O51	O	1.684924	0.097974	0.266990
C52	C	0.872315	-0.388452	-0.354510
C53	C	1.205649	-0.055119	-0.021176
C54	C	1.538982	0.278215	0.312157
C55	C	0.790517	-0.388461	-0.354521
C56	C	1.123850	-0.055128	-0.021188
C57	C	1.457183	0.278206	0.312145
C58	C	0.602355	-0.336983	-0.401677
C59	C	0.935688	-0.003650	-0.068343
C60	C	1.269021	0.329684	0.264990
C61	C	0.525496	-0.336990	-0.401679
C62	C	0.858829	-0.003657	-0.068346
C63	C	1.192163	0.329677	0.264988
C64	C	0.525441	-0.439993	-0.307381
C65	C	0.858774	-0.106660	0.025952
C66	C	1.192107	0.226673	0.359285
C67	C	0.602298	-0.439982	-0.307376
C68	C	0.935631	-0.106648	0.025958
C69	C	1.268965	0.226685	0.359291
C70	C	0.640753	-0.388478	-0.354527
C71	C	0.974086	-0.055144	-0.021194
C72	C	1.307420	0.278189	0.312139
C73	C	0.487037	-0.388496	-0.354536
C74	C	0.820370	-0.055163	-0.021202
C75	C	1.153704	0.278170	0.312131
C76	C	0.403703	-0.388504	-0.354538
C77	C	0.737037	-0.055171	-0.021205
C78	C	1.070370	0.278163	0.312129
C79	C	0.724092	-0.388469	-0.354524
C80	C	1.057425	-0.055135	-0.021191
C81	C	1.390759	0.278198	0.312142
C82	C	1.063452	-0.597968	-0.354492
C83	C	1.396785	-0.264634	-0.021158
C84	C	1.730119	0.068699	0.312175
C85	C	1.063490	-0.687589	-0.354503
C86	C	1.396823	-0.354256	-0.021170
C87	C	1.730156	-0.020922	0.312164
C88	C	1.063618	-1.015764	-0.354580
C89	C	1.396951	-0.682431	-0.021246
C90	C	1.730285	-0.349098	0.312087
C91	C	1.063580	-0.924456	-0.354560
C92	C	1.396913	-0.591123	-0.021227
C93	C	1.730247	-0.257789	0.312106
C94	C	1.063553	-0.851680	-0.354541
C95	C	1.396887	-0.518346	-0.021208
C96	C	1.730220	-0.185013	0.312126
C97	C	1.063516	-0.760365	-0.354522
C98	C	1.396850	-0.427032	-0.021189
C99	C	1.730183	-0.093699	0.312144
C100	C	1.255475	-0.388502	-0.354536
C101	C	1.588808	-0.055169	-0.021202
C102	C	1.922141	0.278164	0.312131
C103	C	1.337273	-0.388513	-0.354541
C104	C	1.670607	-0.055180	-0.021208
C105	C	2.003940	0.278153	0.312125
C106	C	1.063567	-0.388421	-0.546475
C107	C	1.396900	-0.055088	-0.213142
C108	C	1.730233	0.278245	0.120191
C109	C	1.063586	-0.388398	-0.628274
C110	C	1.396919	-0.055064	-0.294941
C111	C	1.730252	0.278269	0.038392
C112	C	1.063612	-0.178168	-0.354569
C113	C	1.396945	0.155165	-0.021236
C114	C	1.730278	0.488499	0.312097
C115	C	1.063650	-0.088547	-0.354590
C116	C	1.396983	0.244787	-0.021256
C117	C	1.730317	0.578120	0.312077
C118	C	1.110694	-0.336785	-0.816484
C119	C	1.444027	-0.003452	-0.483151
C120	C	1.777361	0.329881	-0.149818
C121	C	1.110703	-0.336762	-0.893343
C122	C	1.444036	-0.003428	-0.560010
C123	C	1.777369	0.329905	-0.226677
C124	C	1.016530	-0.439885	-0.893302
C125	C	1.349863	-0.106552	-0.559969
C126	C	1.683196	0.226781	-0.226636
C127	C	1.016518	-0.439904	-0.816445
C128	C	1.349851	-0.106571	-0.483112
C129	C	1.683184	0.226763	-0.149778
C130	C	1.063604	-0.388355	-0.778038
C131	C	1.396937	-0.055022	-0.444705
C132	C	1.730271	0.278311	-0.111371
C133	C	1.063625	-0.388313	-0.931754
C134	C	1.396958	-0.054980	-0.598421
C135	C	1.730291	0.278354	-0.265087
C136	C	1.063634	-0.388288	-1.015088
C137	C	1.396967	-0.054955	-0.681755
C138	C	1.730300	0.278379	-0.348421
C139	C	1.063594	-0.388379	-0.694699
C140	C	1.396927	-0.055046	-0.361366
C141	C	1.730261	0.278288	-0.028032
C142	C	1.063519	-0.388474	-0.163316
C143	C	1.396853	-0.055141	0.170017
C144	C	1.730186	0.278193	0.503350
C145	C	1.063643	-0.388271	-0.081518
C146	C	1.396976	-0.054937	0.251816
C147	C	1.730310	0.278396	0.585149
H148	H	0.494235	-0.295057	-0.440072
H149	H	0.827569	0.038277	-0.106738
H150	H	1.160902	0.371610	0.226595
H151	H	0.633563	-0.481916	-0.268977
H152	H	0.966896	-0.148582	0.064356
H153	H	1.300230	0.184751	0.397690
H154	H	0.978195	-0.481856	-0.924583
H155	H	1.311528	-0.148523	-0.591249
H156	H	1.644862	0.184811	-0.257916
H157	H	0.494121	-0.481927	-0.268993
H158	H	0.827455	-0.148593	0.064341
H159	H	1.160788	0.184740	0.397674
H160	H	1.149033	-0.294809	-0.785216
H161	H	1.482366	0.038525	-0.451882
H162	H	1.815699	0.371858	-0.118549
H163	H	1.149047	-0.294767	-0.924643
H164	H	1.482380	0.038566	-0.591310
H165	H	1.815713	0.371900	-0.257976
H166	H	0.633662	-0.295043	-0.440068
H167	H	0.966996	0.038291	-0.106735
H168	H	1.300329	0.371624	0.226598
H169	H	0.978166	-0.481898	-0.785141
H170	H	1.311499	-0.148565	-0.451808
H171	H	1.644833	0.184769	-0.118474
