data_functionalizedCrystal
_audit_creation_method	'MofGen! by Chris Wilmer'
_symmetry_space_group_name_H-M	'P1'
_symmetry_Int_Tables_number	1
_symmetry_cell_setting	triclinic
loop_
_symmetry_equiv_pos_as_xyz
  x,y,z
_cell_length_a	19.077105
_cell_length_b	18.050589
_cell_length_c	19.076919
_cell_angle_alpha	92.275255
_cell_angle_beta	90.076224
_cell_angle_gamma	87.724731
loop_
_atom_site_label
_atom_site_type_symbol
_atom_site_fract_x
_atom_site_fract_y
_atom_site_fract_z
Zn1	Zn	1.058247	-0.359281	-0.440438
Zn2	Zn	1.062879	-0.478689	-0.322938
Zn3	Zn	0.945466	-0.349333	-0.318231
Zn4	Zn	0.940701	-0.478241	-0.435691
O5	O	1.001823	-0.416386	-0.379325
O6	O	1.157193	-0.379472	-0.428809
O7	O	1.051237	-0.457554	-0.223983
O8	O	0.960482	-0.246731	-0.334459
O9	O	1.160596	-0.467201	-0.342482
O10	O	1.043342	-0.254040	-0.424244
O11	O	0.964973	-0.362516	-0.220524
O12	O	0.846502	-0.362082	-0.329856
O13	O	0.952361	-0.466437	-0.534652
O14	O	0.843002	-0.456790	-0.416153
O15	O	1.038722	-0.379038	-0.538140
O16	O	1.046617	-0.582551	-0.337879
O17	O	0.956853	-0.582222	-0.420717
C18	C	0.819256	-0.408308	-0.371979
C19	C	0.741152	-0.404871	-0.368853
C20	C	0.702657	-0.452635	-0.412244
C21	C	0.629270	-0.449396	-0.409310
C22	C	0.594379	-0.398396	-0.362981
C23	C	0.632879	-0.350627	-0.319588
C24	C	0.706264	-0.353863	-0.322526
C25	C	0.375093	-0.383419	-0.349388
C26	C	0.301702	-0.380188	-0.346452
C27	C	0.298098	-0.478956	-0.436175
C28	C	0.371485	-0.482191	-0.439105
C29	C	0.409979	-0.434419	-0.395715
N30	N	0.519366	-0.395085	-0.359980
N31	N	0.484990	-0.437727	-0.398721
C32	C	1.001739	-0.609334	-0.379310
C33	C	1.001766	-0.691882	-0.379329
C34	C	0.952999	-0.891182	-0.424363
C35	C	0.938449	-0.937256	-0.359556
C36	C	1.001835	-0.843016	-0.379341
C37	C	1.016419	-0.944025	-0.444157
C38	C	1.001900	-0.989004	-0.379358
C39	C	0.987253	-0.887999	-0.314499
C40	C	1.065250	-0.894768	-0.399145
C41	C	1.050726	-0.940818	-0.334295
C42	C	1.001796	-0.758915	-0.379332
C43	C	1.001939	-1.073102	-0.379360
C44	C	1.185104	-0.424496	-0.386700
C45	C	1.263207	-0.427952	-0.389843
C46	C	0.994493	-0.423797	-0.562605
C47	C	0.991370	-0.426955	-0.640709
C48	C	1.001926	-0.222686	-0.379356
C49	C	1.001970	-0.140143	-0.379369
C50	C	1.034863	-0.382937	-0.679219
C51	C	1.031920	-0.385901	-0.752605
C52	C	0.985486	-0.432888	-0.787479
C53	C	0.941988	-0.476908	-0.748964
C54	C	0.944928	-0.473940	-0.675579
C55	C	0.971867	-0.446642	-1.006761
C56	C	0.968931	-0.449609	-1.080151
C57	C	1.058863	-0.358601	-1.083787
C58	C	1.061802	-0.355639	-1.010401
C59	C	1.018301	-0.399657	-0.971892
N60	N	0.982478	-0.435921	-0.862492
N61	N	1.021307	-0.396619	-0.896881
C62	C	1.009165	-0.408952	-0.196759
C63	C	1.012425	-0.405591	-0.118661
H64	H	0.604465	-0.309099	-0.281869
H65	H	0.904177	-0.515163	-0.777365
C66	C	0.586929	-0.501954	-0.457031
N67	N	0.555039	-0.541548	-0.492972
H68	H	1.118835	-0.875974	-0.415910
H69	H	0.266749	-0.517848	-0.471502
C70	C	0.263323	-0.324081	-0.295485
N71	N	0.234417	-0.281824	-0.257098
H72	H	1.094278	-0.322763	-1.115149
C73	C	1.106557	-0.970076	-0.282809
N74	N	1.148604	-0.992115	-0.244027
C75	C	1.079768	-0.337478	-0.794963
N76	N	1.115809	-0.301004	-0.826866
C77	C	0.917846	-0.501299	-1.118512
N78	N	0.879371	-0.540229	-1.147405
C79	C	0.417426	-0.330873	-0.301652
N80	N	0.449314	-0.291294	-0.265694
H81	H	1.028729	-0.968523	-0.498964
C82	C	1.112876	-0.303942	-0.972044
N83	N	1.151345	-0.265002	-0.943154
C84	C	0.897132	-0.861730	-0.475715
N85	N	0.855052	-0.839545	-0.514390
C86	C	1.085944	-0.331246	-0.640864
N87	N	1.124417	-0.292308	-0.611976
C88	C	0.924012	-0.495061	-0.964411
N89	N	0.887964	-0.531530	-0.932510
C90	C	0.897083	-0.522365	-0.633218
N91	N	0.861043	-0.558839	-0.601313
C92	C	0.748608	-0.301321	-0.274791
N93	N	0.780501	-0.261743	-0.238836
H94	H	0.974881	-0.863588	-0.259675
C95	C	0.741030	-0.508740	-0.463210
N96	N	0.769930	-0.550997	-0.501601
H97	H	0.399888	-0.523722	-0.476830
C98	C	0.866038	-0.962626	-0.336932
N99	N	0.811496	-0.981732	-0.319896
