data_functionalizedCrystal
_audit_creation_method	'MofGen! by Chris Wilmer'
_symmetry_space_group_name_H-M	'P1'
_symmetry_Int_Tables_number	1
_symmetry_cell_setting	triclinic
loop_
_symmetry_equiv_pos_as_xyz
  x,y,z
_cell_length_a	17.638686
_cell_length_b	17.640280
_cell_length_c	21.395355
_cell_angle_alpha	101.215078
_cell_angle_beta	101.215298
_cell_angle_gamma	65.687361
loop_
_atom_site_label
_atom_site_type_symbol
_atom_site_fract_x
_atom_site_fract_y
_atom_site_fract_z
Zn1	Zn	1.326531	-0.583387	0.473085
Zn2	Zn	1.826531	-0.083387	0.973085
Zn3	Zn	1.354303	-0.721159	0.350702
Zn4	Zn	1.854303	-0.221159	0.850702
Zn5	Zn	1.188684	-0.555471	0.350740
Zn6	Zn	1.688684	-0.055471	0.850740
Zn7	Zn	1.216541	-0.693240	0.437874
Zn8	Zn	1.716541	-0.193240	0.937874
O9	O	1.271515	-0.638314	0.403100
O10	O	1.771515	-0.138314	0.903100
O11	O	1.445558	-0.625030	0.471570
O12	O	1.945558	-0.125030	0.971570
O13	O	1.332299	-0.699182	0.263023
O14	O	1.832299	-0.199182	0.763023
O15	O	1.183689	-0.443859	0.381721
O16	O	1.683689	0.056141	0.881721
O17	O	1.465962	-0.726251	0.381656
O18	O	1.965962	-0.226251	0.881656
O19	O	1.284964	-0.464369	0.471607
O20	O	1.784964	0.035631	0.971607
O21	O	1.210619	-0.577451	0.263051
O22	O	1.710619	-0.077451	0.763051
O23	O	1.077036	-0.550379	0.347579
O24	O	1.577036	-0.050379	0.847579
O25	O	1.231166	-0.678666	0.530229
O26	O	1.731166	-0.178666	1.030229
O27	O	1.097502	-0.651597	0.411596
O28	O	1.597502	-0.151597	0.911596
O29	O	1.311975	-0.597958	0.556098
O30	O	1.811975	-0.097958	1.056098
O31	O	1.359310	-0.832771	0.347514
O32	O	1.859310	-0.332771	0.847514
O33	O	1.258096	-0.812258	0.411559
O34	O	1.758096	-0.312258	0.911559
C35	C	1.057362	-0.594930	0.375771
C36	C	1.557362	-0.094930	0.875771
C37	C	0.965751	-0.576389	0.364092
C38	C	1.465751	-0.076389	0.864092
C39	C	0.717928	-0.779342	0.491961
C40	C	1.217928	-0.279342	0.991961
C41	C	0.631843	-0.761914	0.480972
C42	C	1.131843	-0.261914	0.980972
C43	C	0.610466	-0.656352	0.414456
C44	C	1.110466	-0.156352	0.914456
C45	C	0.696550	-0.673774	0.425437
C46	C	1.196550	-0.173774	0.925437
C47	C	0.750275	-0.735270	0.464191
C48	C	1.250275	-0.235270	0.964191
C49	C	0.728898	-0.629702	0.397667
C50	C	1.228898	-0.129702	0.897667
C51	C	0.814974	-0.647120	0.408650
C52	C	1.314974	-0.147120	0.908650
C53	C	0.868704	-0.708611	0.447403
C54	C	1.368704	-0.208611	0.947403
C55	C	0.836352	-0.752688	0.475174
C56	C	1.336352	-0.252688	0.975174
C57	C	0.675171	-0.568203	0.358917
C58	C	1.175171	-0.068203	0.858917
C59	C	0.707518	-0.524130	0.331146
C60	C	1.207518	-0.024130	0.831146
C61	C	0.793597	-0.541552	0.342126
C62	C	1.293597	-0.041552	0.842126
C63	C	0.847327	-0.603043	0.380879
C64	C	1.347327	-0.103043	0.880879
C65	C	0.825949	-0.497475	0.314355
C66	C	1.325949	0.002525	0.814355
C67	C	0.912026	-0.514894	0.325338
C68	C	1.412026	-0.014894	0.825338
C69	C	0.933403	-0.620462	0.391862
C70	C	1.433403	-0.120462	0.891862
C71	C	1.314762	-0.852419	0.375728
C72	C	1.814762	-0.352419	0.875728
C73	C	1.333338	-0.944029	0.364048
C74	C	1.833338	-0.444029	0.864048
C75	C	1.130728	-1.192016	0.492099
C76	C	1.630728	-0.692016	0.992099
C77	C	1.148185	-1.278098	0.481105
C78	C	1.648185	-0.778098	0.981105
C79	C	1.253644	-1.299406	0.414504
C80	C	1.753644	-0.799406	0.914504
C81	C	1.236199	-1.213324	0.425495
C82	C	1.736199	-0.713324	0.925495
C83	C	1.174739	-1.159636	0.464293
C84	C	1.674739	-0.659636	0.964293
C85	C	1.280210	-1.180944	0.397689
C86	C	1.780210	-0.680944	0.897689
C87	C	1.262762	-1.094870	0.408677
C88	C	1.762762	-0.594870	0.908677
C89	C	1.201304	-1.041176	0.447471
C90	C	1.701304	-0.541176	0.947471
C91	C	1.157292	-1.073561	0.475281
C92	C	1.657292	-0.573561	0.975281
C93	C	1.341665	-1.234633	0.358888
C94	C	1.841665	-0.734633	0.858888
C95	C	1.385676	-1.202253	0.331081
C96	C	1.885676	-0.702253	0.831081
C97	C	1.368233	-1.116178	0.342073
C98	C	1.868233	-0.616178	0.842073
C99	C	1.306775	-1.062484	0.380867
C100	C	1.806775	-0.562484	0.880867
C101	C	1.412246	-1.083792	0.314263
C102	C	1.912246	-0.583792	0.814263
C103	C	1.394798	-0.997717	0.325251
C104	C	1.894798	-0.497717	0.825251
C105	C	1.289327	-0.976409	0.391855
C106	C	1.789327	-0.476409	0.891855
C107	C	1.486504	-0.681869	0.430537
C108	C	1.986504	-0.181869	0.930537
C109	C	1.578119	-0.700429	0.442228
C110	C	2.078119	-0.200429	0.942228
C111	C	1.271580	-0.638311	0.566535
C112	C	1.771580	-0.138311	1.066535
C113	C	1.271607	-0.638310	0.636180
C114	C	1.771607	-0.138310	1.136180
C115	C	1.228121	-0.423378	0.430596
C116	C	1.728121	0.076622	0.930596
C117	C	1.209629	-0.331785	0.442313
C118	C	1.709629	0.168215	0.942313
C119	C	1.271485	-0.638267	0.240316
C120	C	1.771485	-0.138267	0.740316
C121	C	1.271570	-0.638069	0.170720
C122	C	1.771570	-0.138069	0.670720
C123	C	1.313682	-0.596283	0.682365
C124	C	1.813682	-0.096283	1.182365
C125	C	1.313674	-0.596247	0.747804
C126	C	1.813674	-0.096247	1.247804
C127	C	1.271603	-0.638255	0.767057
C128	C	1.771603	-0.138255	1.267057
C129	C	1.229518	-0.680284	0.720863
C130	C	1.729518	-0.180284	1.220863
C131	C	1.229521	-0.680312	0.655425
C132	C	1.729521	-0.180312	1.155425
C133	C	1.280082	-0.711137	0.860415
C134	C	1.780082	-0.211137	1.360415
C135	C	1.280086	-0.711112	0.925853
C136	C	1.780086	-0.211112	1.425853
C137	C	1.271590	-0.638169	0.968889
C138	C	1.771590	-0.138169	1.468889
C139	C	1.263108	-0.565253	0.946483
C140	C	1.763108	-0.065253	1.446483
C141	C	1.263110	-0.565280	0.881045
C142	C	1.763110	-0.065280	1.381045
C143	C	1.271595	-0.638230	0.838012
C144	C	1.771595	-0.138230	1.338012
C145	C	1.313658	-0.596099	1.086032
C146	C	1.813658	-0.096099	1.586032
C147	C	1.313643	-0.596061	1.151472
C148	C	1.813643	-0.096061	1.651472
C149	C	1.229494	-0.680107	1.124529
C150	C	1.729494	-0.180107	1.624529
C151	C	1.229502	-0.680137	1.059090
C152	C	1.729502	-0.180137	1.559090
C153	C	1.271589	-0.638135	1.039846
C154	C	1.771589	-0.138135	1.539846
H155	H	0.761675	-0.829422	0.523515
H156	H	1.261675	-0.329422	1.023515
H157	H	0.663764	-0.474058	0.299595
H158	H	1.163764	0.025942	0.799595
H159	H	0.605510	-0.797805	0.503591
H160	H	1.105510	-0.297805	1.003591
O161	O	1.354437	-0.555236	1.196422
O162	O	1.854437	-0.055236	1.696422
C163	C	1.345421	-0.564226	1.258307
C164	C	1.845421	-0.064226	1.758307
H165	H	1.287260	-0.578325	1.255663
H166	H	1.787260	-0.078325	1.755663
H167	H	1.338543	-0.503619	1.291772
H168	H	1.838543	-0.003619	1.791772
H169	H	1.403169	-0.618001	1.277529
H170	H	1.903169	-0.118001	1.777529
H171	H	0.938792	-0.722788	0.456349
H172	H	1.438792	-0.222788	0.956349
H173	H	1.462280	-1.127516	0.282669
H174	H	1.962280	-0.627516	0.782669
O175	O	0.888494	-0.812333	0.512914
O176	O	1.388494	-0.312333	1.012914
C177	C	0.863870	-0.790210	0.574986
C178	C	1.363870	-0.290210	1.074986
H179	H	0.826897	-0.719595	0.583629
H180	H	1.326897	-0.219595	1.083629
H181	H	0.921943	-0.808824	0.612239
H182	H	1.421943	-0.308824	1.112239
H183	H	0.822859	-0.824323	0.579285
H184	H	1.322859	-0.324323	1.079285
O185	O	1.188705	-0.720911	1.143333
O186	O	1.688705	-0.220911	1.643333
C187	C	1.197707	-0.711860	1.210994
C188	C	1.697707	-0.211860	1.710994
H189	H	1.255863	-0.697744	1.231511
H190	H	1.755863	-0.197744	1.731511
H191	H	1.204588	-0.772446	1.227264
H192	H	1.704588	-0.272446	1.727264
H193	H	1.139952	-0.658072	1.228921
H194	H	1.639952	-0.158072	1.728921
H195	H	1.107251	-1.029847	0.506879
H196	H	1.607251	-0.529847	1.006879
O197	O	1.313333	-1.351681	0.376848
O198	O	1.813333	-0.851681	0.876848
C199	C	1.319274	-1.434593	0.373091
C200	C	1.819274	-0.934593	0.873091
H201	H	1.294642	-1.440886	0.416480
H202	H	1.794642	-0.940886	0.916480
H203	H	1.387634	-1.479769	0.372576
H204	H	1.887634	-0.979769	0.872576
H205	H	1.280352	-1.450167	0.327180
H206	H	1.780352	-0.950167	0.827180
O207	O	1.354645	-0.555596	0.663630
O208	O	1.854645	-0.055596	1.163630
C209	C	1.417338	-0.613288	0.626565
C210	C	1.917338	-0.113288	1.126565
H211	H	1.435563	-0.679219	0.638648
H212	H	1.935563	-0.179219	1.138648
H213	H	1.474737	-0.596310	0.637725
H214	H	1.974737	-0.096310	1.137725
H215	H	1.392409	-0.610988	0.573353
H216	H	1.892409	-0.110988	1.073353
H217	H	0.605081	-0.554018	0.349979
H218	H	1.105081	-0.054018	0.849979
H219	H	0.566711	-0.606280	0.382904
H220	H	1.066711	-0.106280	0.882904
H221	H	0.782193	-0.447400	0.282807
H222	H	1.282193	0.052600	0.782807
O223	O	1.354418	-0.555159	1.067362
O224	O	1.854418	-0.055159	1.567362
C225	C	1.319835	-0.469375	1.091548
C226	C	1.819835	0.030625	1.591548
H227	H	1.253146	-0.451865	1.101651
H228	H	1.753146	0.048135	1.601651
H229	H	1.318719	-0.430125	1.054618
H230	H	1.818719	0.069875	1.554618
H231	H	1.359674	-0.456766	1.137932
H232	H	1.859674	0.043234	1.637932
H233	H	0.938362	-0.478999	0.302730
H234	H	1.438362	0.021001	0.802730
H235	H	1.347933	-0.562018	0.785415
H236	H	1.847933	-0.062018	1.285415
H237	H	1.112351	-1.304459	0.503760
H238	H	1.612351	-0.804459	1.003760
O239	O	1.229693	-0.924346	0.429631
O240	O	1.729693	-0.424346	0.929631
C241	C	1.251943	-0.948969	0.491707
C242	C	1.751943	-0.448969	0.991707
H243	H	1.296281	-1.017859	0.489092
H244	H	1.796281	-0.517859	0.989092
H245	H	1.193047	-0.939887	0.511801
H246	H	1.693047	-0.439887	1.011801
H247	H	1.284492	-0.909072	0.524425
H248	H	1.784492	-0.409072	1.024425
O249	O	1.445469	-1.254346	0.293452
O250	O	1.945469	-0.754346	0.793452
C251	C	1.523341	-1.249906	0.320381
C252	C	2.023341	-0.749906	0.820381
H253	H	1.512371	-1.187744	0.352662
H254	H	2.012371	-0.687744	0.852662
H255	H	1.559733	-1.254448	0.280283
H256	H	2.059733	-0.754448	0.780283
H257	H	1.560887	-1.303936	0.349972
H258	H	2.060887	-0.803936	0.849972
H259	H	1.286776	-0.770476	0.825353
H260	H	1.786776	-0.270476	1.325353
O261	O	1.254818	-0.494370	0.859380
O262	O	1.754818	0.005630	1.359380
C263	C	1.247341	-0.429985	0.911394
C264	C	1.747341	0.070015	1.411394
H265	H	1.223583	-0.443861	0.952011
H266	H	1.723583	0.056139	1.452011
H267	H	1.201149	-0.367516	0.895083
H268	H	1.701149	0.132484	1.395083
H269	H	1.311241	-0.426513	0.929146
H270	H	1.811241	0.073487	1.429146
H271	H	1.430636	-0.971354	0.302607
H272	H	1.930636	-0.471354	0.802607
H273	H	1.355871	-1.304720	0.349944
H274	H	1.855871	-0.804720	0.849944
O275	O	1.254695	-0.494361	0.988283
O276	O	1.754695	0.005639	1.488283
C277	C	1.182384	-0.469527	1.018521
C278	C	1.682384	0.030473	1.518521
H279	H	1.137031	-0.496631	0.987193
H280	H	1.637031	0.003369	1.487193
H281	H	1.150762	-0.398156	1.025611
H282	H	1.650762	0.101844	1.525611
H283	H	1.200888	-0.493712	1.067211
H284	H	1.700888	0.006288	1.567211
H285	H	1.286997	-0.770486	0.944091
H286	H	1.786997	-0.270486	1.444091
H287	H	1.195246	-0.714366	1.021485
H288	H	1.695246	-0.214366	1.521485
H289	H	1.195261	-0.714485	0.736542
H290	H	1.695261	-0.214485	1.236542
H291	H	1.195255	-0.714534	0.617820
H292	H	1.695255	-0.214534	1.117820
H293	H	1.080687	-1.148301	0.523697
H294	H	1.580687	-0.648301	1.023697
O295	O	0.985669	-0.680107	0.429561
O296	O	1.485669	-0.180107	0.929561
C297	C	1.025997	-0.643343	0.482438
C298	C	1.525997	-0.143343	0.982438
H299	H	1.026240	-0.583450	0.470052
H300	H	1.526240	-0.083450	0.970052
H301	H	1.093322	-0.689171	0.494219
H302	H	1.593322	-0.189171	0.994219
H303	H	0.991042	-0.627679	0.525800
H304	H	1.491042	-0.127679	1.025800
H305	H	1.187093	-0.971087	0.456411
H306	H	1.687093	-0.471087	0.956411
