data_functionalizedCrystal
_audit_creation_method	'MofGen! by Chris Wilmer'
_symmetry_space_group_name_H-M	'P1'
_symmetry_Int_Tables_number	1
_symmetry_cell_setting	triclinic
loop_
_symmetry_equiv_pos_as_xyz
  x,y,z
_cell_length_a	16.625548
_cell_length_b	13.032721
_cell_length_c	16.625539
_cell_angle_alpha	82.844953
_cell_angle_beta	90.017055
_cell_angle_gamma	97.205603
loop_
_atom_site_label
_atom_site_type_symbol
_atom_site_fract_x
_atom_site_fract_y
_atom_site_fract_z
Zn1	Zn	1.191890	-0.416032	0.496666
Zn2	Zn	1.441890	-0.166032	0.746666
Zn3	Zn	1.691890	0.083968	0.996666
Zn4	Zn	1.941890	0.333968	1.246666
Zn5	Zn	1.174679	-0.590793	0.378954
Zn6	Zn	1.424679	-0.340793	0.628954
Zn7	Zn	1.674679	-0.090793	0.878954
Zn8	Zn	1.924679	0.159207	1.128954
Zn9	Zn	1.057057	-0.416066	0.361850
Zn10	Zn	1.307057	-0.166066	0.611850
Zn11	Zn	1.557057	0.083934	0.861850
Zn12	Zn	1.807057	0.333934	1.111850
Zn13	Zn	1.039905	-0.590739	0.513738
Zn14	Zn	1.289905	-0.340739	0.763738
Zn15	Zn	1.539905	-0.090739	1.013738
Zn16	Zn	1.789905	0.159261	1.263738
O17	O	1.115883	-0.503407	0.437802
O18	O	1.365883	-0.253407	0.687802
O19	O	1.615883	-0.003407	0.937802
O20	O	1.865883	0.246593	1.187802
O21	O	1.302439	-0.439223	0.481064
O22	O	1.552439	-0.189223	0.731064
O23	O	1.802439	0.060777	0.981064
O24	O	2.052439	0.310777	1.231064
O25	O	1.159051	-0.567652	0.263856
O26	O	1.409051	-0.317652	0.513856
O27	O	1.659051	-0.067652	0.763856
O28	O	1.909051	0.182348	1.013856
O29	O	1.089324	-0.269821	0.365431
O30	O	1.339324	-0.019821	0.615431
O31	O	1.589324	0.230179	0.865431
O32	O	1.839324	0.480179	1.115431
O33	O	1.289794	-0.567619	0.394582
O34	O	1.539794	-0.317619	0.644582
O35	O	1.789794	-0.067619	0.894582
O36	O	2.039794	0.182381	1.144582
O37	O	1.188386	-0.269796	0.464479
O38	O	1.438386	-0.019796	0.714479
O39	O	1.688386	0.230204	0.964479
O40	O	1.938386	0.480204	1.214479
O41	O	1.072635	-0.439281	0.251290
O42	O	1.322635	-0.189281	0.501290
O43	O	1.572635	0.060719	0.751290
O44	O	1.822635	0.310719	1.001290
O45	O	0.941950	-0.439228	0.381985
O46	O	1.191950	-0.189228	0.631985
O47	O	1.441950	0.060772	0.881985
O48	O	1.691950	0.310772	1.131985
O49	O	1.060091	-0.567527	0.624302
O50	O	1.310091	-0.317527	0.874302
O51	O	1.560091	-0.067527	1.124302
O52	O	1.810091	0.182473	1.374302
O53	O	0.929349	-0.567560	0.493577
O54	O	1.179349	-0.317560	0.743577
O55	O	1.429349	-0.067560	0.993577
O56	O	1.679349	0.182440	1.243577
O57	O	1.171754	-0.439170	0.611759
O58	O	1.421754	-0.189170	0.861759
O59	O	1.671754	0.060830	1.111759
O60	O	1.921754	0.310830	1.361759
O61	O	1.142420	-0.737026	0.411136
O62	O	1.392420	-0.487026	0.661136
O63	O	1.642420	-0.237026	0.911136
O64	O	1.892420	0.012974	1.161136
O65	O	1.043402	-0.736986	0.510162
O66	O	1.293402	-0.486986	0.760162
O67	O	1.543402	-0.236986	1.010162
O68	O	1.793402	0.013014	1.260162
C69	C	1.089204	-0.774925	0.464375
C70	C	1.339204	-0.524925	0.714375
C71	C	1.589204	-0.274925	0.964375
C72	C	1.839204	-0.024925	1.214375
C73	C	1.077864	-0.891081	0.475770
C74	C	1.327864	-0.641081	0.725770
C75	C	1.577864	-0.391081	0.975770
C76	C	1.827864	-0.141081	1.225770
C77	C	0.906394	-0.503393	0.437778
C78	C	1.156394	-0.253393	0.687778
C79	C	1.406394	-0.003393	0.937778
C80	C	1.656394	0.246607	1.187778
C81	C	0.816771	-0.503411	0.437789
C82	C	1.066771	-0.253411	0.687789
C83	C	1.316771	-0.003411	0.937789
C84	C	1.566771	0.246589	1.187789
C85	C	1.121844	-0.942852	0.431891
C86	C	1.371844	-0.692852	0.681891
C87	C	1.621844	-0.442852	0.931891
C88	C	1.871844	-0.192852	1.181891
C89	C	1.110125	-1.062905	0.443667
C90	C	1.360125	-0.812905	0.693667
C91	C	1.610125	-0.562905	0.943667
C92	C	1.860125	-0.312905	1.193667
C93	C	0.488594	-0.503418	0.437824
C94	C	0.738594	-0.253418	0.687824
C95	C	0.988594	-0.003418	0.937824
C96	C	1.238594	0.246582	1.187824
C97	C	0.579903	-0.503413	0.437812
C98	C	0.829903	-0.253413	0.687812
C99	C	1.079903	-0.003413	0.937812
C100	C	1.329903	0.246587	1.187812
C101	C	0.652679	-0.503415	0.437806
C102	C	0.902679	-0.253415	0.687806
C103	C	1.152679	-0.003415	0.937806
C104	C	1.402679	0.246585	1.187806
C105	C	0.743994	-0.503409	0.437795
C106	C	0.993994	-0.253409	0.687795
C107	C	1.243994	-0.003409	0.937795
C108	C	1.493994	0.246591	1.187795
C109	C	1.326190	-0.503423	0.437827
C110	C	1.576190	-0.253423	0.687827
C111	C	1.826190	-0.003423	0.937827
C112	C	2.076190	0.246577	1.187827
C113	C	1.415811	-0.503430	0.437837
C114	C	1.665811	-0.253430	0.687837
C115	C	1.915811	-0.003430	0.937837
C116	C	2.165811	0.246570	1.187837
C117	C	1.115929	-0.503338	0.648104
C118	C	1.365929	-0.253338	0.898104
C119	C	1.615929	-0.003338	1.148104
C120	C	1.865929	0.246662	1.398104
C121	C	1.115949	-0.503309	0.737722
C122	C	1.365949	-0.253309	0.987722
C123	C	1.615949	-0.003309	1.237722
C124	C	1.865949	0.246691	1.487722
C125	C	1.142688	-0.230830	0.411143
C126	C	1.392688	0.019170	0.661143
C127	C	1.642688	0.269170	0.911143
C128	C	1.892688	0.519170	1.161143
C129	C	1.154111	-0.114674	0.399782
C130	C	1.404111	0.135326	0.649782
C131	C	1.654111	0.385326	0.899782
C132	C	1.904111	0.635326	1.149782
C133	C	1.115891	-0.503401	0.228310
C134	C	1.365891	-0.253401	0.478310
C135	C	1.615891	-0.003401	0.728310
C136	C	1.865891	0.246599	0.978310
C137	C	1.116056	-0.503136	0.138664
C138	C	1.366056	-0.253136	0.388664
C139	C	1.616056	-0.003136	0.638664
C140	C	1.866056	0.246864	0.888664
C141	C	1.115964	-0.503286	0.810503
C142	C	1.365964	-0.253286	1.060503
C143	C	1.615964	-0.003286	1.310503
C144	C	1.865964	0.246714	1.560503
C145	C	1.115987	-0.503247	0.901807
C146	C	1.365987	-0.253247	1.151807
C147	C	1.615987	-0.003247	1.401807
C148	C	1.865987	0.246753	1.651807
C149	C	1.116010	-0.503210	0.974580
C150	C	1.366010	-0.253210	1.224580
C151	C	1.616010	-0.003210	1.474580
C152	C	1.866010	0.246790	1.724580
C153	C	1.116033	-0.503173	1.065891
C154	C	1.366033	-0.253173	1.315891
C155	C	1.616033	-0.003173	1.565891
C156	C	1.866033	0.246827	1.815891
H157	H	1.063796	-1.107457	0.489958
H158	H	1.313796	-0.857457	0.739958
H159	H	1.563796	-0.607457	0.989958
H160	H	1.813796	-0.357457	1.239958
N161	N	1.215490	-1.055675	0.338472
N162	N	1.465490	-0.805675	0.588472
N163	N	1.715490	-0.555675	0.838472
N164	N	1.965490	-0.305675	1.088472
H165	H	1.215165	-0.978276	0.338749
H166	H	1.465165	-0.728276	0.588749
H167	H	1.715165	-0.478276	0.838749
H168	H	1.965165	-0.228276	1.088749
H169	H	1.201127	-1.074759	0.282733
H170	H	1.451127	-0.824759	0.532733
H171	H	1.701127	-0.574759	0.782733
H172	H	1.951127	-0.324759	1.032733
N173	N	1.016488	-0.950090	0.537074
N174	N	1.266488	-0.700090	0.787074
N175	N	1.516488	-0.450090	1.037074
N176	N	1.766488	-0.200090	1.287074
H177	H	0.988747	-0.899047	0.564738
H178	H	1.238747	-0.649047	0.814738
H179	H	1.488747	-0.399047	1.064738
H180	H	1.738747	-0.149047	1.314738
H181	H	1.044900	-0.995311	0.578825
H182	H	1.294900	-0.745311	0.828825
H183	H	1.544900	-0.495311	1.078825
H184	H	1.794900	-0.245311	1.328825
N185	N	1.183221	-0.883847	0.370585
N186	N	1.433221	-0.633847	0.620585
N187	N	1.683221	-0.383847	0.870585
N188	N	1.933221	-0.133847	1.120585
H189	H	1.182894	-0.806448	0.370865
H190	H	1.432894	-0.556448	0.620865
H191	H	1.682894	-0.306448	0.870865
H192	H	1.932894	-0.056448	1.120865
H193	H	1.168859	-0.902929	0.314846
H194	H	1.418859	-0.652929	0.564846
H195	H	1.668859	-0.402929	0.814846
H196	H	1.918859	-0.152929	1.064846
