data_functionalizedCrystal
_audit_creation_method	'MofGen! by Chris Wilmer'
_symmetry_space_group_name_H-M	'P1'
_symmetry_Int_Tables_number	1
_symmetry_cell_setting	triclinic
loop_
_symmetry_equiv_pos_as_xyz
  x,y,z
_cell_length_a	16.109301
_cell_length_b	17.019294
_cell_length_c	14.586319
_cell_angle_alpha	86.117240
_cell_angle_beta	89.999213
_cell_angle_gamma	83.427968
loop_
_atom_site_label
_atom_site_type_symbol
_atom_site_fract_x
_atom_site_fract_y
_atom_site_fract_z
O1	O	1.103039	0.101395	-0.084186
O2	O	0.860966	0.114013	-0.085196
O3	O	0.988756	-0.007130	-0.075620
O4	O	0.975250	0.222538	-0.093762
O5	O	0.988747	-0.007132	0.076861
O6	O	0.860957	0.114011	0.067285
O7	O	1.103031	0.101393	0.068295
Cu8	Cu	0.981993	0.107702	0.081713
Cu9	Cu	0.982004	0.107704	-0.098614
O10	O	0.975241	0.222537	0.058719
C11	C	0.829987	0.113501	-0.008917
C12	C	0.737693	0.111969	-0.008802
C13	C	0.515359	0.180290	-0.014188
C14	C	0.428640	0.178844	-0.014068
C15	C	0.448644	0.035111	-0.002718
C16	C	0.535362	0.036558	-0.002832
C17	C	0.568717	0.109150	-0.008571
C18	C	0.395280	0.106257	-0.008338
C19	C	0.301255	0.104688	-0.008207
C20	C	0.662747	0.110718	-0.008700
C21	C	0.988239	-0.036520	0.002939
C22	C	0.986703	-0.124090	0.009850
C23	C	0.985988	-0.165225	-0.070020
C24	C	0.984539	-0.247506	-0.063524
C25	C	0.983811	-0.288651	0.022844
C26	C	0.984524	-0.247510	0.102720
C27	C	0.985967	-0.165230	0.096223
C28	C	0.979449	-0.537082	0.046619
C29	C	0.978009	-0.619368	0.053111
C30	C	0.978023	-0.619359	-0.113133
C31	C	0.979470	-0.537078	-0.119623
C32	C	0.980178	-0.495944	-0.039747
C33	C	0.982333	-0.372755	0.029486
C34	C	0.981651	-0.411840	-0.046390
C35	C	1.134009	0.101905	-0.007986
C36	C	1.226303	0.103437	-0.008107
C37	C	0.975757	0.251927	-0.019843
C38	C	0.977294	0.339496	-0.026759
N39	N	0.981992	0.107700	0.208545
N40	N	0.982011	0.107700	-0.225445
C41	C	1.038596	0.054076	0.447790
C42	C	1.038598	0.054074	0.543771
C43	C	0.925401	0.161327	0.535303
C44	C	0.925396	0.161324	0.439323
C45	C	0.981998	0.107700	0.395569
C46	C	0.982006	0.107700	0.587530
C47	C	0.982008	0.107699	0.691597
C48	C	0.981995	0.107700	0.291496
H49	H	0.578808	-0.021377	0.001745
Cl50	Cl	0.854234	0.228739	0.373669
Cl51	Cl	1.109751	-0.013344	0.609417
H52	H	0.982238	-0.378336	-0.116710
H53	H	0.385200	0.236773	-0.018639
Cl54	Cl	0.557289	0.271548	-0.021398
Cl55	Cl	0.986909	-0.113509	-0.178602
H56	H	1.084683	0.010410	0.412168
H57	H	0.980042	-0.503603	0.111660
Cl58	Cl	0.986864	-0.113517	0.196635
H59	H	0.421476	-0.023991	0.001960
H60	H	0.983960	-0.280995	-0.128562
H61	H	0.980064	-0.503584	-0.189952
Cl62	Cl	0.977131	-0.671075	-0.213542
Cl63	Cl	0.981414	-0.424486	0.138059
H64	H	0.977412	-0.652866	0.123445
Cl65	Cl	0.983599	-0.299233	0.211296
Cl66	Cl	0.854251	0.228741	0.590312
