data_functionalizedCrystal
_audit_creation_method	'MofGen! by Chris Wilmer'
_symmetry_space_group_name_H-M	'P1'
_symmetry_Int_Tables_number	1
_symmetry_cell_setting	triclinic
loop_
_symmetry_equiv_pos_as_xyz
  x,y,z
_cell_length_a	8.559649
_cell_length_b	16.109318
_cell_length_c	7.681187
_cell_angle_alpha	95.726841
_cell_angle_beta	94.922591
_cell_angle_gamma	103.376386
loop_
_atom_site_label
_atom_site_type_symbol
_atom_site_fract_x
_atom_site_fract_y
_atom_site_fract_z
O1	O	-0.190411	1.098846	0.146281
O2	O	-0.215939	0.855161	0.146316
O3	O	0.029435	0.998472	0.146293
O4	O	-0.435785	0.955535	0.146305
O5	O	-0.000810	0.980810	-0.146575
O6	O	-0.246183	0.837500	-0.146551
O7	O	-0.220656	1.081184	-0.146586
Zn8	Zn	-0.238221	0.956538	-0.193068
Zn9	Zn	-0.198373	0.979808	0.192798
O10	O	-0.466029	0.937873	-0.146563
C11	C	-0.230022	0.815422	-0.000113
C12	C	-0.226905	0.723327	-0.000099
C13	C	-0.200361	0.434520	0.159511
C14	C	-0.203276	0.521056	0.159522
C15	C	-0.236228	0.501820	-0.159778
C16	C	-0.233302	0.415287	-0.159787
C17	C	-0.215375	0.381639	-0.000137
C18	C	-0.221217	0.554708	-0.000117
C19	C	-0.224378	0.648534	-0.000107
C20	C	-0.212211	0.287807	-0.000147
C21	C	-0.510438	0.943450	-0.000128
C22	C	-0.687822	0.933765	-0.000123
C23	C	0.073844	0.992895	-0.000138
C24	C	0.251229	1.002582	-0.000131
C25	C	-0.206573	1.120923	-0.000153
C26	C	-0.209688	1.213019	-0.000155
N27	N	-0.265416	0.940663	-0.456411
N28	N	-0.171166	0.995690	0.456141
H29	H	-0.191047	0.564109	0.289524
Cl30	Cl	-0.816779	0.831351	-0.000119
Cl31	Cl	-0.413918	0.853969	-0.572554
Cl32	Cl	-0.022641	1.082380	-0.427710
Cl33	Cl	-0.252174	0.348804	-0.360505
Cl34	Cl	-0.177816	0.392222	0.360213
H35	H	-0.250827	0.529228	-0.289759
H36	H	-0.665250	1.068908	-0.000151
