data_functionalizedCrystal
_audit_creation_method	'MofGen! by Chris Wilmer'
_symmetry_space_group_name_H-M	'P1'
_symmetry_Int_Tables_number	1
_symmetry_cell_setting	triclinic
loop_
_symmetry_equiv_pos_as_xyz
  x,y,z
_cell_length_a	21.395362
_cell_length_b	16.625546
_cell_length_c	21.395356
_cell_angle_alpha	89.972354
_cell_angle_beta	89.957023
_cell_angle_gamma	90.038346
loop_
_atom_site_label
_atom_site_type_symbol
_atom_site_fract_x
_atom_site_fract_y
_atom_site_fract_z
Zn1	Zn	0.957889	-0.320680	-0.354586
Zn2	Zn	1.291223	0.012653	-0.021252
Zn3	Zn	1.624556	0.345986	0.312081
Zn4	Zn	0.957809	-0.455517	-0.249808
Zn5	Zn	1.291142	-0.122184	0.083525
Zn6	Zn	1.624475	0.211150	0.416858
Zn7	Zn	0.853106	-0.320739	-0.249787
Zn8	Zn	1.186439	0.012594	0.083546
Zn9	Zn	1.519773	0.345927	0.416880
Zn10	Zn	0.853089	-0.455512	-0.354513
Zn11	Zn	1.186422	-0.122179	-0.021180
Zn12	Zn	1.519755	0.211155	0.312154
O13	O	0.905473	-0.388112	-0.302174
O14	O	1.238807	-0.054779	0.031160
O15	O	1.572140	0.278555	0.364493
O16	O	1.045557	-0.338544	-0.340726
O17	O	1.378890	-0.005211	-0.007393
O18	O	1.712223	0.328123	0.325940
O19	O	0.943893	-0.437665	-0.162128
O20	O	1.277227	-0.104332	0.171206
O21	O	1.610560	0.229001	0.504539
O22	O	0.867047	-0.207899	-0.263710
O23	O	1.200380	0.125434	0.069623
O24	O	1.533714	0.458768	0.402956
O25	O	1.045497	-0.437608	-0.263747
O26	O	1.378831	-0.104275	0.069587
O27	O	1.712164	0.229059	0.402920
O28	O	0.944031	-0.207856	-0.340706
O29	O	1.277364	0.125478	-0.007372
O30	O	1.610697	0.458811	0.325961
O31	O	0.866969	-0.338645	-0.162112
O32	O	1.200302	-0.005311	0.171221
O33	O	1.533635	0.328022	0.504555
O34	O	0.765426	-0.338640	-0.263640
O35	O	1.098759	-0.005307	0.069693
O36	O	1.432093	0.328027	0.403027
O37	O	0.867017	-0.437599	-0.442201
O38	O	1.200350	-0.104266	-0.108867
O39	O	1.533684	0.229067	0.224466
O40	O	0.765413	-0.437657	-0.340582
O41	O	1.098746	-0.104323	-0.007248
O42	O	1.432080	0.229010	0.326085
O43	O	0.944014	-0.338539	-0.442254
O44	O	1.277347	-0.005206	-0.108921
O45	O	1.610680	0.328128	0.224413
O46	O	0.943876	-0.568349	-0.263676
O47	O	1.277210	-0.235015	0.069657
O48	O	1.610543	0.098318	0.402990
O49	O	0.866939	-0.568345	-0.340602
O50	O	1.200272	-0.235012	-0.007269
O51	O	1.533606	0.098322	0.326064
C52	C	0.742686	-0.388155	-0.302101
C53	C	1.076019	-0.054821	0.031232
C54	C	1.409352	0.278512	0.364566
C55	C	0.673044	-0.388192	-0.302085
C56	C	1.006378	-0.054859	0.031249
C57	C	1.339711	0.278474	0.364582
C58	C	0.640341	-0.439819	-0.342088
C59	C	0.973674	-0.106486	-0.008755
C60	C	1.307008	0.226848	0.324578
C61	C	0.574905	-0.439799	-0.342116
C62	C	0.908239	-0.106466	-0.008783
C63	C	1.241572	0.226868	0.324550
C64	C	0.542176	-0.388161	-0.302129
C65	C	0.875509	-0.054828	0.031204
C66	C	1.208843	0.278505	0.364537
C67	C	0.574887	-0.336525	-0.262123
C68	C	0.908221	-0.003192	0.071210
C69	C	1.241554	0.330142	0.404544
C70	C	0.640321	-0.336540	-0.262101
C71	C	0.973655	-0.003207	0.071233
C72	C	1.306988	0.330126	0.404566
C73	C	0.438451	-0.381677	-0.245724
C74	C	0.771785	-0.048344	0.087609
C75	C	1.105118	0.284989	0.420943
C76	C	0.373019	-0.381668	-0.245745
C77	C	0.706352	-0.048334	0.087588
C78	C	1.039685	0.284999	0.420921
C79	C	0.340355	-0.388109	-0.302198
C80	C	0.673689	-0.054775	0.031135
C81	C	1.007022	0.278558	0.364468
C82	C	0.373133	-0.394577	-0.358632
C83	C	0.706466	-0.061243	-0.025299
C84	C	1.039800	0.272090	0.308035
C85	C	0.438567	-0.394592	-0.358610
C86	C	0.771901	-0.061259	-0.025276
C87	C	1.105234	0.272074	0.308057
C88	C	0.471224	-0.388138	-0.302149
C89	C	0.804557	-0.054805	0.031184
C90	C	1.137890	0.278528	0.364517
C91	C	0.236699	-0.439716	-0.342236
C92	C	0.570033	-0.106383	-0.008902
C93	C	0.903366	0.226950	0.324431
C94	C	0.171263	-0.439691	-0.342265
C95	C	0.504596	-0.106358	-0.008931
C96	C	0.837929	0.226976	0.324402
C97	C	0.171246	-0.336421	-0.262266
C98	C	0.504579	-0.003088	0.071067
C99	C	0.837913	0.330246	0.404401
C100	C	0.236681	-0.336442	-0.262242
C101	C	0.570015	-0.003109	0.071091
C102	C	0.903348	0.330224	0.404424
C103	C	0.269404	-0.388094	-0.302227
C104	C	0.602737	-0.054761	0.031107
C105	C	0.936071	0.278572	0.364440
C106	C	0.905414	-0.597603	-0.302147
C107	C	1.238747	-0.264270	0.031186
C108	C	1.572081	0.069064	0.364519
C109	C	0.905446	-0.687224	-0.302157
C110	C	1.238779	-0.353891	0.031176
C111	C	1.572113	-0.020557	0.364510
C112	C	0.905555	-1.015400	-0.302222
C113	C	1.238889	-0.682066	0.031111
C114	C	1.572222	-0.348733	0.364444
C115	C	0.905523	-0.924091	-0.302206
C116	C	1.238856	-0.590758	0.031127
C117	C	1.572189	-0.257425	0.364461
C118	C	0.905500	-0.851315	-0.302189
C119	C	1.238833	-0.517981	0.031144
C120	C	1.572167	-0.184648	0.364477
C121	C	0.905469	-0.760001	-0.302174
C122	C	1.238802	-0.426667	0.031160
C123	C	1.572135	-0.093334	0.364493
C124	C	1.068897	-0.388070	-0.302247
C125	C	1.402230	-0.054737	0.031086
C126	C	1.735563	0.278597	0.364420
C127	C	1.138538	-0.388052	-0.302278
C128	C	1.471871	-0.054719	0.031055
C129	C	1.805204	0.278615	0.364388
C130	C	0.905522	-0.388062	-0.465597
C131	C	1.238856	-0.054729	-0.132264
C132	C	1.572189	0.278605	0.201070
C133	C	0.905544	-0.388041	-0.535238
C134	C	1.238877	-0.054707	-0.201905
C135	C	1.572210	0.278626	0.131428
C136	C	0.905550	-0.177803	-0.302214
C137	C	1.238883	0.155530	0.031120
C138	C	1.572216	0.488863	0.364453
C139	C	0.905582	-0.088182	-0.302231
C140	C	1.238916	0.245151	0.031103
C141	C	1.572249	0.578485	0.364436
C142	C	0.865500	-0.336475	-0.567933
C143	C	1.198833	-0.003142	-0.234600
C144	C	1.532166	0.330192	0.098733
C145	C	0.865497	-0.336460	-0.633369
C146	C	1.198831	-0.003127	-0.300035
C147	C	1.532164	0.330207	0.033298
C148	C	0.905550	-0.388002	-0.666107
C149	C	1.238884	-0.054669	-0.332773
C150	C	1.572217	0.278664	0.000560
C151	C	0.945597	-0.439578	-0.633404
C152	C	1.278930	-0.106245	-0.300070
C153	C	1.612264	0.227088	0.033263
C154	C	0.945594	-0.439597	-0.567969
C155	C	1.278927	-0.106264	-0.234636
C156	C	1.612260	0.227069	0.098697
C157	C	0.962003	-0.394322	-0.769812
C158	C	1.295336	-0.060988	-0.436479
C159	C	1.628670	0.272345	-0.103145
C160	C	0.962008	-0.394297	-0.835245
C161	C	1.295341	-0.060963	-0.501912
C162	C	1.628674	0.272370	-0.168578
C163	C	0.905561	-0.387948	-0.867927
C164	C	1.238894	-0.054615	-0.534594
C165	C	1.572227	0.278719	-0.201261
C166	C	0.849108	-0.381607	-0.835169
C167	C	1.182441	-0.048274	-0.501836
C168	C	1.515774	0.285059	-0.168502
C169	C	0.849104	-0.381626	-0.769735
C170	C	1.182437	-0.048293	-0.436401
C171	C	1.515771	0.285040	-0.103068
C172	C	0.905558	-0.387988	-0.737059
C173	C	1.238892	-0.054654	-0.403726
C174	C	1.572225	0.278679	-0.070392
C175	C	0.865511	-0.336363	-0.971575
C176	C	1.198844	-0.003030	-0.638242
C177	C	1.532178	0.330303	-0.304909
C178	C	0.865508	-0.336354	-1.037012
C179	C	1.198841	-0.003021	-0.703679
C180	C	1.532175	0.330313	-0.370345
C181	C	0.945613	-0.439468	-1.037045
C182	C	1.278947	-0.106135	-0.703712
C183	C	1.612280	0.227199	-0.370379
C184	C	0.945611	-0.439481	-0.971610
C185	C	1.278944	-0.106148	-0.638277
C186	C	1.612277	0.227185	-0.304943
C187	C	0.905561	-0.387925	-0.938879
C188	C	1.238894	-0.054592	-0.605545
C189	C	1.572227	0.278742	-0.272212
C190	C	0.905460	-0.388104	-0.139386
C191	C	1.238794	-0.054770	0.193947
C192	C	1.572127	0.278563	0.527281
C193	C	0.905561	-0.387898	-0.069745
C194	C	1.238894	-0.054565	0.263588
C195	C	1.572227	0.278769	0.596922
H196	H	0.666948	-0.294498	-0.229525
H197	H	1.000282	0.038836	0.103809
H198	H	1.333615	0.372169	0.437142
F199	F	0.988238	-0.494328	-1.071883
F200	F	1.321571	-0.160995	-0.738550
F201	F	1.654904	0.172339	-0.405216
F202	F	0.136458	-0.494638	-0.384848
F203	F	0.469791	-0.161304	-0.051514
F204	F	0.803124	0.172029	0.281819
F205	F	1.022089	-0.401051	-0.870103
F206	F	1.355422	-0.067718	-0.536770
F207	F	1.688755	0.265616	-0.203436
H208	H	0.832885	-0.294497	-0.541288
H209	H	1.166219	0.038837	-0.207954
H210	H	1.499552	0.372170	0.125379
H211	H	0.346540	-0.399820	-0.404602
H212	H	0.679873	-0.066487	-0.071269
H213	H	1.013207	0.266846	0.262065
F214	F	0.136417	-0.281460	-0.219712
F215	F	0.469750	0.051874	0.113622
F216	F	0.803084	0.385207	0.446955
H217	H	0.263344	-0.481770	-0.374796
H218	H	0.596677	-0.148437	-0.041463
H219	H	0.930010	0.184896	0.291870
H220	H	0.465252	-0.399856	-0.404560
H221	H	0.798586	-0.066523	-0.071227
H222	H	1.131919	0.266810	0.262107
F223	F	0.988235	-0.494361	-0.936812
F224	F	1.321569	-0.161028	-0.603479
F225	F	1.654902	0.172306	-0.270145
H226	H	0.263309	-0.294407	-0.229664
H227	H	0.596642	0.038927	0.103669
H228	H	0.929975	0.372260	0.437003
F229	F	0.675163	-0.494789	-0.384645
F230	F	1.008496	-0.161456	-0.051312
F231	F	1.341830	0.171877	0.282022
F232	F	0.338140	-0.374784	-0.185685
F233	F	0.671473	-0.041451	0.147649
F234	F	1.004807	0.291883	0.480982
F235	F	0.473208	-0.374823	-0.185635
F236	F	0.806541	-0.041490	0.147699
F237	F	1.139874	0.291843	0.481032
H238	H	0.548235	-0.294480	-0.229567
H239	H	0.881568	0.038854	0.103767
H240	H	1.214901	0.372187	0.437100
H241	H	0.978208	-0.481545	-0.660063
H242	H	1.311542	-0.148211	-0.326730
H243	H	1.644875	0.185122	0.006604
F244	F	0.822886	-0.281561	-0.668172
F245	F	1.156219	0.051772	-0.334839
F246	F	1.489553	0.385106	-0.001506
F247	F	0.540093	-0.494749	-0.384695
F248	F	0.873426	-0.161416	-0.051362
F249	F	1.206760	0.171918	0.281971
H250	H	0.803143	-0.376432	-0.861777
H251	H	1.136477	-0.043099	-0.528444
H252	H	1.469810	0.290235	-0.195111
F253	F	0.789024	-0.374882	-0.734873
F254	F	1.122358	-0.041549	-0.401540
F255	F	1.455691	0.291785	-0.068206
F256	F	0.822884	-0.281497	-0.936738
F257	F	1.156217	0.051837	-0.603405
F258	F	1.489551	0.385170	-0.270071
F259	F	0.822871	-0.281486	-1.071808
F260	F	1.156204	0.051847	-0.738475
F261	F	1.489537	0.385180	-0.405142
H262	H	1.007973	-0.399485	-0.743207
H263	H	1.341306	-0.066151	-0.409874
H264	H	1.674639	0.267182	-0.076541
H265	H	0.978205	-0.481588	-0.541349
H266	H	1.311538	-0.148254	-0.208016
H267	H	1.644872	0.185079	0.125317
