data_functionalizedCrystal
_audit_creation_method	'MofGen! by Chris Wilmer'
_symmetry_space_group_name_H-M	'P1'
_symmetry_Int_Tables_number	1
_symmetry_cell_setting	triclinic
loop_
_symmetry_equiv_pos_as_xyz
  x,y,z
_cell_length_a	25.639243
_cell_length_b	25.639239
_cell_length_c	16.625539
_cell_angle_alpha	89.968745
_cell_angle_beta	89.976850
_cell_angle_gamma	90.041410
loop_
_atom_site_label
_atom_site_type_symbol
_atom_site_fract_x
_atom_site_fract_y
_atom_site_fract_z
Zn1	Zn	0.799262	-0.208112	-0.455948
Zn2	Zn	1.132596	0.125221	-0.122615
Zn3	Zn	1.465929	0.458555	0.210718
Zn4	Zn	0.799175	-0.295550	-0.321109
Zn5	Zn	1.132508	0.037784	0.012225
Zn6	Zn	1.465841	0.371117	0.345558
Zn7	Zn	0.711828	-0.208134	-0.321123
Zn8	Zn	1.045161	0.125199	0.012211
Zn9	Zn	1.378494	0.458532	0.345544
Zn10	Zn	0.711784	-0.295522	-0.455892
Zn11	Zn	1.045117	0.037811	-0.122559
Zn12	Zn	1.378450	0.371144	0.210774
O13	O	0.755512	-0.251830	-0.388518
O14	O	1.088845	0.081504	-0.055185
O15	O	1.422179	0.414837	0.278149
O16	O	0.872416	-0.219713	-0.438079
O17	O	1.205749	0.113621	-0.104746
O18	O	1.539082	0.446954	0.228588
O19	O	0.787570	-0.283975	-0.208278
O20	O	1.120903	0.049359	0.125055
O21	O	1.454236	0.382692	0.458389
O22	O	0.723481	-0.134966	-0.339037
O23	O	1.056814	0.198367	-0.005704
O24	O	1.390148	0.531701	0.327630
O25	O	0.872351	-0.283953	-0.339013
O26	O	1.205685	0.049380	-0.005680
O27	O	1.539018	0.382714	0.327654
O28	O	0.787719	-0.134950	-0.438093
O29	O	1.121052	0.198384	-0.104759
O30	O	1.454385	0.531717	0.228574
O31	O	0.723396	-0.219751	-0.208288
O32	O	1.056729	0.113582	0.125045
O33	O	1.390063	0.446916	0.458378
O34	O	0.638657	-0.219724	-0.338983
O35	O	0.971990	0.113609	-0.005649
O36	O	1.305323	0.446942	0.327684
O37	O	0.723406	-0.283906	-0.568732
O38	O	1.056739	0.049427	-0.235399
O39	O	1.390073	0.382761	0.097934
O40	O	0.638624	-0.283928	-0.437997
O41	O	0.971958	0.049405	-0.104664
O42	O	1.305291	0.382739	0.228669
O43	O	0.787676	-0.219686	-0.568773
O44	O	1.121010	0.113647	-0.235440
O45	O	1.454343	0.446981	0.097893
O46	O	0.787527	-0.368711	-0.338959
O47	O	1.120860	-0.035378	-0.005625
O48	O	1.454194	0.297955	0.327708
O49	O	0.723321	-0.368691	-0.437984
O50	O	1.056655	-0.035358	-0.104650
O51	O	1.389988	0.297976	0.228683
C52	C	0.619669	-0.251826	-0.388486
C53	C	0.953003	0.081507	-0.055153
C54	C	1.286336	0.414841	0.278181
C55	C	0.561555	-0.251837	-0.388491
C56	C	0.894889	0.081496	-0.055158
C57	C	1.228222	0.414830	0.278175
C58	C	0.201220	-0.218432	-0.440188
C59	C	0.534554	0.114901	-0.106854
C60	C	0.867887	0.448234	0.226479
C61	C	0.146616	-0.218432	-0.440193
C62	C	0.479949	0.114902	-0.106859
C63	C	0.813283	0.448235	0.226474
O64	O	0.118403	-0.190020	-0.484107
O65	O	0.451736	0.143313	-0.150774
O66	O	0.785070	0.476647	0.182560
N67	N	0.119273	-0.251828	-0.388540
N68	N	0.452606	0.081505	-0.055207
N69	N	0.785940	0.414839	0.278126
C70	C	0.146537	-0.285223	-0.336873
C71	C	0.479870	0.048110	-0.003540
C72	C	0.813204	0.381444	0.329793
O73	O	0.118266	-0.313629	-0.292939
O74	O	0.451599	0.019704	0.040395
O75	O	0.784932	0.353038	0.373728
C76	C	0.201140	-0.285221	-0.336865
C77	C	0.534474	0.048113	-0.003532
C78	C	0.867807	0.381446	0.329802
C79	C	0.228481	-0.251826	-0.388527
C80	C	0.561814	0.081507	-0.055193
C81	C	0.895147	0.414841	0.278140
C82	C	0.228560	-0.185040	-0.491845
C83	C	0.561894	0.148294	-0.158511
C84	C	0.895227	0.481627	0.174822
C85	C	0.283161	-0.185041	-0.491841
C86	C	0.616494	0.148292	-0.158507
C87	C	0.949828	0.481626	0.174826
C88	C	0.310421	-0.218435	-0.440179
C89	C	0.643755	0.114899	-0.106846
C90	C	0.977088	0.448232	0.226487
C91	C	0.283081	-0.251827	-0.388523
C92	C	0.616414	0.081506	-0.055189
C93	C	0.949748	0.414840	0.278144
C94	C	0.228404	-0.318613	-0.285195
C95	C	0.561737	0.014721	0.048139
C96	C	0.895070	0.348054	0.381472
C97	C	0.283011	-0.318607	-0.285190
C98	C	0.616344	0.014726	0.048143
C99	C	0.949677	0.348060	0.381476
C100	C	0.310351	-0.285212	-0.336852
C101	C	0.643684	0.048121	-0.003519
C102	C	0.977017	0.381454	0.329815
C103	C	0.364942	-0.285222	-0.336857
C104	C	0.698275	0.048111	-0.003524
C105	C	1.031609	0.381445	0.329809
N106	N	0.392285	-0.251826	-0.388510
N107	N	0.725618	0.081508	-0.055177
N108	N	1.058952	0.414841	0.278157
C109	C	0.365025	-0.218432	-0.440171
C110	C	0.698358	0.114901	-0.106838
C111	C	1.031691	0.448235	0.226496
C112	C	0.031866	-0.285225	-0.336894
C113	C	0.365200	0.048108	-0.003561
C114	C	0.698533	0.381441	0.329773
C115	C	-0.022736	-0.285231	-0.336906
C116	C	0.310597	0.048102	-0.003573
C117	C	0.643931	0.381436	0.329761
C118	C	-0.022653	-0.218439	-0.440225
C119	C	0.310680	0.114895	-0.106891
C120	C	0.644013	0.448228	0.226442
C121	C	0.031950	-0.218436	-0.440216
C122	C	0.365283	0.114897	-0.106883
C123	C	0.698617	0.448231	0.226451
C124	C	0.059209	-0.251829	-0.388547
C125	C	0.392543	0.081504	-0.055213
C126	C	0.725876	0.414838	0.278120
C127	C	0.479690	-0.218438	-0.440159
C128	C	0.813023	0.114896	-0.106826
C129	C	1.146356	0.448229	0.226508
C130	C	0.534295	-0.218443	-0.440153
C131	C	0.867628	0.114890	-0.106819
C132	C	1.200962	0.448223	0.226514
C133	C	0.534208	-0.285233	-0.336831
C134	C	0.867541	0.048100	-0.003498
C135	C	1.200874	0.381433	0.329835
C136	C	0.479607	-0.285230	-0.336840
C137	C	0.812940	0.048103	-0.003507
C138	C	1.146274	0.381437	0.329826
C139	C	0.452349	-0.251828	-0.388507
C140	C	0.785683	0.081506	-0.055174
C141	C	1.119016	0.414839	0.278160
O142	O	0.393190	-0.313618	-0.292963
O143	O	0.726523	0.019715	0.040370
O144	O	1.059856	0.353049	0.373703
O145	O	0.393303	-0.190026	-0.484091
O146	O	0.726636	0.143307	-0.150757
O147	O	1.059969	0.476640	0.182576
C148	C	0.755424	-0.387672	-0.388481
C149	C	1.088757	-0.054339	-0.055148
C150	C	1.422091	0.278995	0.278186
C151	C	0.755434	-0.445786	-0.388492
C152	C	1.088768	-0.112453	-0.055159
C153	C	1.422101	0.220881	0.278174
C154	C	0.789031	-0.806147	-0.337044
C155	C	1.122365	-0.472814	-0.003710
C156	C	1.455698	-0.139480	0.329623
C157	C	0.789052	-0.860751	-0.337054
C158	C	1.122385	-0.527418	-0.003721
C159	C	1.455718	-0.194085	0.329612
O160	O	0.817526	-0.888986	-0.293270
O161	O	1.150859	-0.555653	0.040063
O162	O	1.484192	-0.222320	0.373396
N163	N	0.755604	-0.888069	-0.388571
N164	N	1.088937	-0.554735	-0.055238
N165	N	1.422271	-0.221402	0.278095
C166	C	0.722138	-0.860779	-0.440087
C167	C	1.055471	-0.527445	-0.106754
C168	C	1.388804	-0.194112	0.226580
O169	O	0.693690	-0.889028	-0.483908
O170	O	1.027023	-0.555695	-0.150574
O171	O	1.360357	-0.222361	0.182759
C172	C	0.722120	-0.806175	-0.440080
C173	C	1.055454	-0.472842	-0.106746
C174	C	1.388787	-0.139509	0.226587
C175	C	0.755566	-0.778861	-0.388553
C176	C	1.088900	-0.445528	-0.055220
C177	C	1.422233	-0.112194	0.278113
C178	C	0.822475	-0.778833	-0.285522
C179	C	1.155808	-0.445499	0.047811
C180	C	1.489142	-0.112166	0.381145
C181	C	0.822454	-0.724232	-0.285510
C182	C	1.155787	-0.390899	0.047823
C183	C	1.489121	-0.057566	0.381156
C184	C	0.788989	-0.696946	-0.337020
C185	C	1.122322	-0.363613	-0.003687
C186	C	1.455656	-0.030279	0.329646
C187	C	0.755545	-0.724260	-0.388542
C188	C	1.088879	-0.390927	-0.055208
C189	C	1.422212	-0.057594	0.278125
C190	C	0.688657	-0.778886	-0.491599
C191	C	1.021990	-0.445553	-0.158265
C192	C	1.355324	-0.112220	0.175068
C193	C	0.688643	-0.724279	-0.491587
C194	C	1.021976	-0.390946	-0.158254
C195	C	1.355310	-0.057613	0.175079
C196	C	0.722089	-0.696965	-0.440061
C197	C	1.055422	-0.363632	-0.106728
C198	C	1.388756	-0.030298	0.226606
C199	C	0.722059	-0.642374	-0.440040
C200	C	1.055393	-0.309040	-0.106707
C201	C	1.388726	0.024293	0.226627
N202	N	0.755507	-0.615057	-0.388523
N203	N	1.088840	-0.281723	-0.055189
N204	N	1.422174	0.051610	0.278144
C205	C	0.788972	-0.642343	-0.337013
C206	C	1.122305	-0.309009	-0.003680
C207	C	1.455639	0.024324	0.329654
C208	C	0.722177	-0.975449	-0.440099
C209	C	1.055510	-0.642116	-0.106766
C210	C	1.388844	-0.308782	0.226567
C211	C	0.722191	-1.030051	-0.440103
C212	C	1.055525	-0.696718	-0.106770
C213	C	1.388858	-0.363385	0.226563
C214	C	0.789106	-1.030021	-0.337071
C215	C	1.122439	-0.696687	-0.003738
C216	C	1.455773	-0.363354	0.329595
C217	C	0.789089	-0.975417	-0.337064
C218	C	1.122422	-0.642084	-0.003731
C219	C	1.455755	-0.308751	0.329603
C220	C	0.755625	-0.948132	-0.388582
C221	C	1.088958	-0.614799	-0.055249
C222	C	1.422291	-0.281465	0.278084
C223	C	0.788925	-0.527678	-0.336992
C224	C	1.122258	-0.194344	-0.003659
C225	C	1.455591	0.138989	0.329675
C226	C	0.788899	-0.473072	-0.336982
C227	C	1.122232	-0.139739	-0.003649
C228	C	1.455566	0.193594	0.329684
C229	C	0.721987	-0.473108	-0.440017
C230	C	1.055320	-0.139775	-0.106684
C231	C	1.388653	0.193559	0.226650
C232	C	0.722010	-0.527709	-0.440024
C233	C	1.055343	-0.194375	-0.106690
C234	C	1.388677	0.138958	0.226643
C235	C	0.755483	-0.554992	-0.388508
C236	C	1.088817	-0.221659	-0.055175
C237	C	1.422150	0.111675	0.278158
O238	O	0.693601	-0.614104	-0.483804
O239	O	1.026935	-0.280771	-0.150471
O240	O	1.360268	0.052563	0.182863
O241	O	0.817419	-0.614087	-0.293207
O242	O	1.150753	-0.280753	0.040126
O243	O	1.484086	0.052580	0.373460
C244	C	0.891885	-0.251833	-0.388551
C245	C	1.225218	0.081500	-0.055217
C246	C	1.558552	0.414833	0.278116
C247	C	0.949999	-0.251835	-0.388564
C248	C	1.283332	0.081498	-0.055231
C249	C	1.616666	0.414832	0.278102
C250	C	0.755546	-0.251791	-0.598827
C251	C	1.088879	0.081543	-0.265494
C252	C	1.422213	0.414876	0.067840
C253	C	0.755561	-0.251774	-0.688448
C254	C	1.088894	0.081559	-0.355115
C255	C	1.422227	0.414893	-0.021782
C256	C	0.755615	-0.115456	-0.388573
C257	C	1.088948	0.217877	-0.055239
C258	C	1.422281	0.551210	0.278094
C259	C	0.755658	-0.057342	-0.388596
C260	C	1.088992	0.275991	-0.055263
C261	C	1.422325	0.609324	0.278071
C262	C	0.755585	-0.251715	-1.016624
C263	C	1.088918	0.081618	-0.683291
C264	C	1.422251	0.414951	-0.349957
C265	C	0.755576	-0.251733	-0.925316
C266	C	1.088910	0.081600	-0.591982
C267	C	1.422243	0.414933	-0.258649
C268	C	0.755573	-0.251745	-0.852539
C269	C	1.088906	0.081588	-0.519206
C270	C	1.422240	0.414922	-0.185872
C271	C	0.755564	-0.251762	-0.761225
C272	C	1.088897	0.081571	-0.427891
C273	C	1.422231	0.414904	-0.094558
C274	C	0.755508	-0.251831	-0.179027
C275	C	1.088842	0.081503	0.154306
C276	C	1.422175	0.414836	0.487639
C277	C	0.755595	-0.251700	-0.089407
C278	C	1.088928	0.081633	0.243927
C279	C	1.422262	0.414967	0.577260
H280	H	0.305417	-0.157847	-0.533908
H281	H	0.638750	0.175487	-0.200574
H282	H	0.972083	0.508820	0.132759
H283	H	-0.044992	-0.312430	-0.294847
H284	H	0.288342	0.020903	0.038486
H285	H	0.621675	0.354236	0.371820
H286	H	0.206153	-0.345806	-0.243125
H287	H	0.539486	-0.012472	0.090208
H288	H	0.872819	0.320861	0.423541
N289	N	-0.052055	-0.182414	-0.495945
N290	N	0.281278	0.150920	-0.162611
N291	N	0.614611	0.484253	0.170722
H292	H	-0.074716	-0.203690	-0.533254
H293	H	0.258618	0.129643	-0.199920
H294	H	0.591951	0.462976	0.133413
H295	H	-0.074671	-0.158166	-0.463185
H296	H	0.258662	0.175167	-0.129852
H297	H	0.591995	0.508501	0.203482
N298	N	0.563781	-0.182425	-0.495880
N299	N	0.897115	0.150909	-0.162546
N300	N	1.230448	0.484242	0.170787
H301	H	0.554303	-0.145057	-0.483462
H302	H	0.887636	0.188276	-0.150129
H303	H	1.220970	0.521610	0.183204
H304	H	0.602500	-0.187536	-0.488018
H305	H	0.935833	0.145797	-0.154684
H306	H	1.269167	0.479131	0.178649
N307	N	0.061435	-0.182419	-0.495939
N308	N	0.394769	0.150914	-0.162605
N309	N	0.728102	0.484248	0.170728
H310	H	0.084098	-0.158159	-0.463243
H311	H	0.417431	0.175174	-0.129910
H312	H	0.750765	0.508508	0.203424
H313	H	0.084056	-0.203737	-0.533228
H314	H	0.417389	0.129596	-0.199895
H315	H	0.750723	0.462929	0.133438
H316	H	0.849729	-0.801043	-0.243576
H317	H	1.183062	-0.467710	0.089757
H318	H	1.516396	-0.134377	0.423090
N319	N	0.825164	-0.945959	-0.281493
N320	N	1.158497	-0.612625	0.051840
N321	N	1.491830	-0.279292	0.385173
H322	H	0.846364	-0.971535	-0.248865
H323	H	1.179697	-0.638202	0.084468
H324	H	1.513031	-0.304868	0.417801
H325	H	0.849343	-0.923267	-0.314347
H326	H	1.182676	-0.589934	0.018986
H327	H	1.516009	-0.256600	0.352319
N328	N	0.652590	-0.808342	-0.547180
N329	N	0.985923	-0.475008	-0.213847
N330	N	1.319257	-0.141675	0.119486
H331	H	0.628375	-0.831038	-0.514392
H332	H	0.961709	-0.497705	-0.181058
H333	H	1.295042	-0.164371	0.152275
H334	H	0.631427	-0.782733	-0.579801
H335	H	0.964761	-0.449400	-0.246468
H336	H	1.298094	-0.116066	0.086865
N337	N	0.825201	-1.059456	-0.281512
N338	N	1.158535	-0.726123	0.051822
N339	N	1.491868	-0.392789	0.385155
H340	H	0.820136	-1.098191	-0.289341
H341	H	1.153469	-0.764857	0.043992
H342	H	1.486802	-0.431524	0.377326
H343	H	0.862535	-1.049869	-0.294116
H344	H	1.195868	-0.716535	0.039217
H345	H	1.529202	-0.383202	0.372551
N346	N	0.450295	-0.182410	-0.495879
N347	N	0.783628	0.150924	-0.162546
N348	N	1.116962	0.484257	0.170787
H349	H	0.475907	-0.161259	-0.528599
H350	H	0.809240	0.172075	-0.195266
H351	H	1.142574	0.505408	0.138068
H352	H	0.427635	-0.203720	-0.533140
H353	H	0.760968	0.129614	-0.199806
H354	H	1.094302	0.462947	0.133527
H355	H	0.661393	-0.702066	-0.533542
H356	H	0.994726	-0.368733	-0.200209
H357	H	1.328060	-0.035400	0.133125
N358	N	0.312412	-0.354622	-0.229457
N359	N	0.645745	-0.021289	0.103877
N360	N	0.979078	0.312045	0.437210
H361	H	0.286803	-0.375775	-0.196734
H362	H	0.620136	-0.042442	0.136599
H363	H	0.953469	0.290892	0.469933
H364	H	0.335059	-0.378848	-0.262203
H365	H	0.668393	-0.045515	0.071131
H366	H	1.001726	0.287819	0.404464
H367	H	0.054058	-0.312423	-0.294821
H368	H	0.387391	0.020911	0.038512
H369	H	0.720724	0.354244	0.371846
N370	N	0.199163	-0.149014	-0.547561
N371	N	0.532497	0.184320	-0.214228
N372	N	0.865830	0.517653	0.119106
H373	H	0.224777	-0.127861	-0.580276
H374	H	0.558110	0.205472	-0.246943
H375	H	0.891443	0.538805	0.086391
H376	H	0.176505	-0.170322	-0.584825
H377	H	0.509838	0.163011	-0.251492
H378	H	0.843172	0.496344	0.081841
H379	H	0.694738	-0.450883	-0.481953
H380	H	1.028072	-0.117550	-0.148620
H381	H	1.361405	0.215784	0.184713
H382	H	0.556413	-0.312423	-0.294772
H383	H	0.889746	0.020911	0.038561
H384	H	1.223080	0.354244	0.371895
H385	H	0.694951	-1.052286	-0.482054
H386	H	1.028284	-0.718953	-0.148720
H387	H	1.361618	-0.385620	0.184613
H388	H	0.694777	-0.549949	-0.481983
H389	H	1.028110	-0.216616	-0.148650
H390	H	1.361444	0.116718	0.184684
N391	N	0.450111	-0.321244	-0.281122
N392	N	0.783444	0.012089	0.052211
N393	N	1.116777	0.345423	0.385544
H394	H	0.427443	-0.345499	-0.313818
H395	H	0.760777	-0.012166	0.019515
H396	H	1.094110	0.321167	0.352848
H397	H	0.475698	-0.342366	-0.248404
H398	H	0.809031	-0.009033	0.084929
H399	H	1.142364	0.324301	0.418263
N400	N	0.858537	-0.694777	-0.229949
N401	N	1.191871	-0.361443	0.103385
N402	N	1.525204	-0.028110	0.436718
H403	H	0.837305	-0.672158	-0.192538
H404	H	1.170638	-0.338825	0.140795
H405	H	1.503971	-0.005492	0.474129
H406	H	0.879732	-0.720389	-0.197383
H407	H	1.213065	-0.387055	0.135951
H408	H	1.546398	-0.053722	0.469284
H409	H	0.816183	-0.549885	-0.295045
H410	H	1.149516	-0.216552	0.038288
H411	H	1.482850	0.116781	0.371622
N412	N	0.824976	-0.443612	-0.281408
N413	N	1.158309	-0.110279	0.051926
N414	N	1.491642	0.223055	0.385259
H415	H	0.846180	-0.469187	-0.248783
H416	H	1.179513	-0.135853	0.084550
H417	H	1.512846	0.197480	0.417884
H418	H	0.849151	-0.420917	-0.314263
H419	H	1.182484	-0.087583	0.019070
H420	H	1.515817	0.245750	0.352404
H421	H	0.694922	-0.953236	-0.482049
H422	H	1.028256	-0.619903	-0.148716
H423	H	1.361589	-0.286570	0.184617
