data_functionalizedCrystal
_audit_creation_method	'MofGen! by Chris Wilmer'
_symmetry_space_group_name_H-M	'P1'
_symmetry_Int_Tables_number	1
_symmetry_cell_setting	triclinic
loop_
_symmetry_equiv_pos_as_xyz
  x,y,z
_cell_length_a	21.883469
_cell_length_b	21.882911
_cell_length_c	21.879399
_cell_angle_alpha	60.006540
_cell_angle_beta	60.013207
_cell_angle_gamma	59.992231
loop_
_atom_site_label
_atom_site_type_symbol
_atom_site_fract_x
_atom_site_fract_y
_atom_site_fract_z
O1	O	0.084645	-0.892842	0.746620
O2	O	0.031867	-0.695139	0.601571
O3	O	0.157054	-0.820237	0.601476
O4	O	-0.040542	-0.767744	0.746716
O5	O	0.198586	-0.778715	0.642912
O6	O	0.073399	-0.653617	0.643007
O7	O	0.126177	-0.851320	0.788056
Cu8	Cu	0.103580	-0.748677	0.719315
Cu9	Cu	0.054464	-0.797782	0.670313
O10	O	0.000990	-0.726222	0.788151
N11	N	0.138128	-0.714145	0.753785
N12	N	0.019923	-0.832320	0.635843
C13	C	0.190018	-0.547369	0.805644
C14	C	0.190029	-0.662289	0.805630
C15	C	0.218780	-0.633565	0.834353
C16	C	0.344122	-0.611968	0.768360
C17	C	0.422474	-0.638085	0.742222
C18	C	0.422504	-0.764859	0.790561
C19	C	0.344154	-0.738739	0.816702
C20	C	0.208899	-0.508180	0.728617
C21	C	0.182748	-0.429822	0.702522
C22	C	0.118843	-0.429847	0.830485
C23	C	0.144993	-0.508205	0.856580
C24	C	0.112994	-0.643364	0.824587
C25	C	0.086865	-0.669476	0.798467
C26	C	0.214799	-0.733437	0.734451
C27	C	0.240932	-0.707325	0.760562
C28	C	0.113084	-0.643389	0.959747
C29	C	0.087018	-0.669524	1.038102
C30	C	0.214996	-0.733501	1.038048
C31	C	0.241061	-0.707367	0.959690
C32	C	0.190103	-0.662308	0.920542
C33	C	0.304966	-0.662293	0.805598
C34	C	-0.117460	-0.854702	0.612901
C35	C	-0.002405	-0.854864	0.498145
C36	C	-0.002621	-0.969735	0.613108
C37	C	-0.002603	-0.854858	0.613180
C38	C	-0.031272	-0.883541	0.584334
N39	N	0.460550	-0.714150	0.753681
O40	O	0.699805	-0.721060	0.574973
O41	O	0.700047	-0.866553	0.772482
O42	O	0.699952	-0.866219	0.647213
O43	O	0.699900	-0.721394	0.700242
O44	O	0.575478	-0.824800	0.688791
O45	O	0.575573	-0.825134	0.814060
O46	O	0.575331	-0.679641	0.616551
Cu47	Cu	0.564087	-0.748606	0.719102
Cu48	Cu	0.711292	-0.797588	0.669931
O49	O	0.575426	-0.679975	0.741820
N50	N	0.814828	-0.832044	0.635345
N51	N	0.138106	-0.391772	0.753815
O52	O	-0.040520	-0.152377	0.746758
O53	O	0.156993	-0.152371	0.601281
O54	O	0.031698	-0.152390	0.601639
O55	O	0.084775	-0.152358	0.746401
O56	O	0.073234	-0.276876	0.643130
O57	O	0.198529	-0.276856	0.642772
O58	O	0.001015	-0.276863	0.788249
Cu59	Cu	0.103564	-0.288226	0.719299
Cu60	Cu	0.054444	-0.141007	0.670231
O61	O	0.126310	-0.276844	0.787892
N62	N	0.019892	-0.037461	0.635717
N63	N	0.138332	-0.714192	1.076133
O64	O	0.131293	-0.892804	1.315506
O65	O	-0.014162	-0.695219	1.315533
O66	O	-0.013826	-0.820490	1.315480
O67	O	0.130957	-0.767533	1.315559
O68	O	0.027651	-0.778981	1.191001
O69	O	0.027314	-0.653710	1.191054
O70	O	0.172770	-0.851295	1.191026
Cu71	Cu	0.103829	-0.748713	1.179674
Cu72	Cu	0.054778	-0.797802	1.326885
O73	O	0.172434	-0.726024	1.191079
N74	N	0.020275	-0.832331	1.430426
C75	C	0.047687	-0.649466	0.602306
C76	C	0.202716	-0.804385	0.602188
C77	C	0.110357	-0.896993	0.787321
C78	C	-0.044672	-0.742074	0.787439
C79	C	0.637839	-0.865879	0.818154
C80	C	0.637724	-0.865466	0.663023
C81	C	0.637536	-0.680313	0.570880
C82	C	0.637655	-0.680728	0.726010
C83	C	0.202592	-0.214459	0.601942
C84	C	0.047481	-0.214636	0.602435
C85	C	-0.044635	-0.214620	0.787537
C86	C	0.110528	-0.214598	0.787096
C87	C	-0.013455	-0.649572	1.253296
C88	C	-0.013030	-0.804697	1.253206
C89	C	0.172063	-0.896942	1.253263
C90	C	0.171648	-0.741808	1.253325
H91	H	0.024299	-0.654107	1.070013
H92	H	-0.058496	-0.816008	1.253133
O93	O	0.034107	-0.581687	0.548025
C94	C	-0.054690	-0.458449	0.513604
C95	C	-0.039417	-0.535180	0.575137
H96	H	-0.114128	-0.420822	0.535506
H97	H	-0.048036	-0.466189	0.462546
H98	H	-0.013185	-0.431514	0.497218
H99	H	-0.080909	-0.562158	0.591586
H100	H	-0.046046	-0.527391	0.626153
H101	H	0.121632	-0.953785	0.832877
H102	H	0.637745	-0.910963	0.651673
H103	H	0.217732	-0.953686	1.253245
O104	O	-0.067867	-0.581845	1.253337
C105	C	-0.102647	-0.458529	1.253329
C106	C	-0.040967	-0.535201	1.253300
H107	H	-0.080916	-0.420791	1.253283
H108	H	-0.153691	-0.466340	1.305427
H109	H	-0.118984	-0.431677	1.201238
H110	H	-0.024566	-0.562095	1.305356
H111	H	0.010037	-0.527341	1.201168
O112	O	0.225844	-0.728163	1.253309
C113	C	0.260059	-0.639268	1.253392
C114	C	0.198622	-0.654616	1.253393
H115	H	0.238068	-0.579812	1.253476
H116	H	0.311138	-0.645915	1.201285
H117	H	0.276441	-0.680745	1.305474
H118	H	0.182177	-0.613153	1.201347
H119	H	0.147584	-0.647994	1.305535
O120	O	0.270094	-0.214089	0.547248
C121	C	0.346519	-0.213469	0.420858
C122	C	0.270043	-0.213896	0.482734
H123	H	0.346498	-0.213297	0.368678
H124	H	0.392465	-0.265463	0.441159
H125	H	0.357195	-0.161270	0.406913
H126	H	0.259295	-0.266060	0.496707
H127	H	0.224138	-0.161868	0.462400
H128	H	0.259468	-0.815577	0.556577
H129	H	0.637457	-0.634634	0.514159
O130	O	0.123945	-0.214559	0.841427
C131	C	0.075050	-0.214600	0.967548
C132	C	0.059750	-0.214627	0.906079
H133	H	0.023164	-0.214671	1.019840
H134	H	0.089255	-0.162487	0.946848
H135	H	0.124086	-0.266681	0.981477
H136	H	0.010705	-0.162581	0.892123
H137	H	0.045589	-0.266774	0.926811
O138	O	0.063478	-0.599653	0.921835
C139	C	-0.066211	-0.538915	0.930159
C140	C	-0.010120	-0.588461	0.973188
H141	H	-0.125726	-0.529838	0.971660
H142	H	-0.057262	-0.567608	0.893495
H143	H	-0.057162	-0.482571	0.893460
H144	H	-0.019135	-0.644814	1.009928
H145	H	-0.019082	-0.559709	1.009805
O146	O	0.637602	-0.626520	0.739677
C147	C	0.637701	-0.592300	0.828580
C148	C	0.637744	-0.653750	0.813208
H149	H	0.637832	-0.614298	0.888024
H150	H	0.585558	-0.541231	0.821980
H151	H	0.689743	-0.575893	0.787089
H152	H	0.585738	-0.670220	0.854686
H153	H	0.689922	-0.704779	0.819783
H154	H	0.256495	-0.770176	1.069914
H155	H	0.036114	-0.214639	0.556956
H156	H	-0.101428	-0.730886	0.833046
O157	O	-0.112361	-0.214574	0.841929
C158	C	-0.235654	-0.214604	0.876748
C159	C	-0.158992	-0.214646	0.815081
H160	H	-0.273370	-0.214677	0.855070
H161	H	-0.262571	-0.162484	0.893049
H162	H	-0.227751	-0.266678	0.927806
H163	H	-0.166829	-0.162607	0.763984
H164	H	-0.132101	-0.266800	0.798844
H165	H	0.637900	-0.911553	0.874882
H166	H	0.303780	-0.722782	0.927774
H167	H	0.071542	-0.606694	0.861281
H168	H	0.256252	-0.770113	0.697763
O169	O	0.012008	-0.651059	0.816980
C170	C	-0.112133	-0.584846	0.883213
C171	C	-0.027381	-0.605657	0.862315
H172	H	-0.144004	-0.548122	0.919857
H173	H	-0.127566	-0.638000	0.915152
H174	H	-0.127572	-0.552965	0.830049
H175	H	-0.011881	-0.637518	0.915441
H176	H	-0.011994	-0.552475	0.830347
H177	H	0.303660	-0.722726	0.745118
H178	H	0.454413	-0.827107	0.799589
O179	O	0.306150	-0.787640	0.852752
C180	C	0.282205	-0.879775	0.845787
C181	C	0.325276	-0.824411	0.804866
H182	H	0.297665	-0.909531	0.807095
H183	H	0.219464	-0.848011	0.862543
H184	H	0.297639	-0.922811	0.898047
H185	H	0.309905	-0.781363	0.752580
H186	H	0.388006	-0.856227	0.788166
O187	O	0.460476	-0.589152	0.705934
C188	C	0.484352	-0.480510	0.600352
C189	C	0.441281	-0.535887	0.641364
H190	H	0.468836	-0.437422	0.548148
H191	H	0.547093	-0.512263	0.583517
H192	H	0.468975	-0.450818	0.639069
H193	H	0.456595	-0.565595	0.602690
H194	H	0.378551	-0.504093	0.658212
O195	O	0.252596	-0.546109	0.679040
C196	C	0.313242	-0.537813	0.549361
C197	C	0.263737	-0.494767	0.605428
H198	H	0.322278	-0.496321	0.489833
H199	H	0.284545	-0.574478	0.558344
H200	H	0.369602	-0.574517	0.558406
H201	H	0.207369	-0.458022	0.596417
H202	H	0.292493	-0.458149	0.596431
O203	O	0.305976	-0.537738	0.757707
C204	C	0.217572	-0.442922	0.815449
C205	C	0.260714	-0.527010	0.827621
H206	H	0.180979	-0.434220	0.871965
H207	H	0.180811	-0.420831	0.781052
H208	H	0.259036	-0.411454	0.784311
H209	H	0.219303	-0.558538	0.858780
H210	H	0.297486	-0.549043	0.861987
H211	H	0.198119	-0.397913	0.639797
H212	H	0.082193	-0.397958	0.871963
H213	H	0.129609	-0.540114	0.919306
