data_functionalizedCrystal
_audit_creation_method	'MofGen! by Chris Wilmer'
_symmetry_space_group_name_H-M	'P1'
_symmetry_Int_Tables_number	1
_symmetry_cell_setting	triclinic
loop_
_symmetry_equiv_pos_as_xyz
  x,y,z
_cell_length_a	19.805407
_cell_length_b	16.120484
_cell_length_c	19.805399
_cell_angle_alpha	87.128957
_cell_angle_beta	90.019573
_cell_angle_gamma	92.925608
loop_
_atom_site_label
_atom_site_type_symbol
_atom_site_fract_x
_atom_site_fract_y
_atom_site_fract_z
Zn1	Zn	1.021075	-0.331927	0.396377
Zn2	Zn	1.354409	0.001406	0.729710
Zn3	Zn	1.687742	0.334739	1.063044
Zn4	Zn	1.015252	-0.471346	0.288925
Zn5	Zn	1.348586	-0.138013	0.622259
Zn6	Zn	1.681919	0.195321	0.955592
Zn7	Zn	0.907889	-0.331950	0.283203
Zn8	Zn	1.241222	0.001383	0.616536
Zn9	Zn	1.574556	0.334716	0.949869
Zn10	Zn	0.902117	-0.471302	0.402070
Zn11	Zn	1.235451	-0.137968	0.735404
Zn12	Zn	1.568784	0.195365	1.068737
O13	O	0.961584	-0.401631	0.342644
O14	O	1.294917	-0.068298	0.675977
O15	O	1.628250	0.265035	1.009310
O16	O	1.115019	-0.350431	0.382136
O17	O	1.448352	-0.017097	0.715469
O18	O	1.781686	0.316236	1.048802
O19	O	1.000989	-0.452883	0.193451
O20	O	1.334322	-0.119550	0.526784
O21	O	1.667655	0.213784	0.860117
O22	O	0.927756	-0.215281	0.293438
O23	O	1.261089	0.118052	0.626771
O24	O	1.594422	0.451385	0.960105
O25	O	1.110741	-0.452861	0.303191
O26	O	1.444074	-0.119527	0.636525
O27	O	1.777408	0.213806	0.969858
O28	O	1.010913	-0.215264	0.376587
O29	O	1.344246	0.118069	0.709920
O30	O	1.677580	0.451402	1.043253
O31	O	0.922109	-0.350470	0.189246
O32	O	1.255443	-0.017136	0.522580
O33	O	1.588776	0.316197	0.855913
O34	O	0.812407	-0.350427	0.298958
O35	O	1.145740	-0.017093	0.632292
O36	O	1.479074	0.316240	0.965625
O37	O	0.917919	-0.452785	0.496030
O38	O	1.251252	-0.119452	0.829364
O39	O	1.584586	0.213882	1.162697
O40	O	0.808167	-0.452807	0.386290
O41	O	1.141500	-0.119474	0.719623
O42	O	1.474834	0.213859	1.052956
O43	O	1.005317	-0.350388	0.491848
O44	O	1.338650	-0.017054	0.825181
O45	O	1.671983	0.316279	1.158514
O46	O	0.995392	-0.588006	0.308712
O47	O	1.328726	-0.254673	0.642045
O48	O	1.662059	0.078661	0.975378
O49	O	0.912273	-0.587974	0.391839
O50	O	1.245606	-0.254640	0.725172
O51	O	1.578939	0.078693	1.058506
C52	C	0.785728	-0.401615	0.342621
C53	C	1.119061	-0.068282	0.675955
C54	C	1.452395	0.265051	1.009288
C55	C	0.710496	-0.401629	0.342628
C56	C	1.043829	-0.068295	0.675962
C57	C	1.377162	0.265038	1.009295
C58	C	0.672958	-0.455019	0.388035
C59	C	1.006291	-0.121685	0.721369
C60	C	1.339625	0.211648	1.054702
C61	C	0.602269	-0.455020	0.388045
C62	C	0.935603	-0.121687	0.721378
C63	C	1.268936	0.211647	1.054711
C64	C	0.569120	-0.401635	0.342644
C65	C	0.902453	-0.068302	0.675977
C66	C	1.235786	0.265032	1.009311
C67	C	0.606663	-0.348239	0.297235
C68	C	0.939996	-0.014906	0.630568
C69	C	1.273329	0.318427	0.963902
C70	C	0.677350	-0.348234	0.297229
C71	C	1.010683	-0.014901	0.630563
C72	C	1.344017	0.318432	0.963896
C73	C	0.321589	-0.348258	0.297258
C74	C	0.654922	-0.014924	0.630591
C75	C	0.988255	0.318409	0.963925
C76	C	0.250896	-0.348269	0.297266
C77	C	0.584229	-0.014935	0.630599
C78	C	0.917563	0.318398	0.963933
C79	C	0.246508	-0.455043	0.388074
C80	C	0.579841	-0.121710	0.721407
C81	C	0.913175	0.211623	1.054740
C82	C	0.317195	-0.455038	0.388068
C83	C	0.650529	-0.121705	0.721401
C84	C	0.983862	0.211628	1.054735
C85	C	0.354732	-0.401640	0.342662
C86	C	0.688066	-0.068307	0.675995
C87	C	1.021399	0.265027	1.009328
C88	C	0.431381	-0.401638	0.342653
C89	C	0.764714	-0.068305	0.675986
C90	C	1.098047	0.265029	1.009319
C91	C	0.492472	-0.401641	0.342649
C92	C	0.825806	-0.068307	0.675982
C93	C	1.159139	0.265026	1.009316
C94	C	0.952593	-0.618240	0.351529
C95	C	1.285926	-0.284907	0.684862
C96	C	1.619260	0.048427	1.018195
C97	C	0.948809	-0.710906	0.355353
C98	C	1.282142	-0.377573	0.688686
C99	C	1.615475	-0.044239	1.022019
C100	C	0.941903	-0.880568	0.362347
C101	C	1.275237	-0.547235	0.695681
C102	C	1.608570	-0.213901	1.029014
C103	C	0.981385	-0.921854	0.322951
C104	C	1.314718	-0.588521	0.656284
C105	C	1.648052	-0.255187	0.989618
C106	C	0.977543	-1.016260	0.326843
C107	C	1.310876	-0.682926	0.660177
C108	C	1.644210	-0.349593	0.993510
C109	C	0.945745	-0.786154	0.358456
C110	C	1.279078	-0.452820	0.691790
C111	C	1.612411	-0.119487	1.025123
C112	C	1.138126	-0.401648	0.342667
C113	C	1.471459	-0.068315	0.676000
C114	C	1.804792	0.265019	1.009333
C115	C	1.213357	-0.401655	0.342677
C116	C	1.546691	-0.068322	0.676010
C117	C	1.880024	0.265012	1.009343
C118	C	0.961624	-0.401579	0.519184
C119	C	1.294957	-0.068246	0.852518
C120	C	1.628290	0.265088	1.185851
C121	C	0.961641	-0.401556	0.594416
C122	C	1.294974	-0.068223	0.927749
C123	C	1.628307	0.265110	1.261082
C124	C	0.970628	-0.184177	0.333739
C125	C	1.303961	0.149156	0.667072
C126	C	1.637294	0.482490	1.000405
C127	C	0.974482	-0.091511	0.329944
C128	C	1.307815	0.241823	0.663277
C129	C	1.641148	0.575156	0.996611
C130	C	0.961585	-0.401623	0.166787
C131	C	1.294918	-0.068290	0.500121
C132	C	1.628252	0.265043	0.833454
C133	C	0.961709	-0.401411	0.091547
C134	C	1.295042	-0.068078	0.424880
C135	C	1.628375	0.265256	0.758214
C136	C	1.007150	-0.348235	0.627583
C137	C	1.340483	-0.014902	0.960916
C138	C	1.673816	0.318431	1.294249
C139	C	1.007158	-0.348211	0.698270
C140	C	1.340491	-0.014878	1.031604
C141	C	1.673824	0.318455	1.364937
C142	C	0.961659	-0.401513	0.735789
C143	C	1.294993	-0.068180	1.069123
C144	C	1.628326	0.265154	1.402456
C145	C	0.916145	-0.454836	0.702617
C146	C	1.249479	-0.121503	1.035951
C147	C	1.582812	0.211830	1.369284
C148	C	0.916135	-0.454856	0.631931
C149	C	1.249468	-0.121522	0.965264
C150	C	1.582801	0.211811	1.298598
C151	C	0.916187	-0.454759	0.987688
C152	C	1.249520	-0.121425	1.321021
C153	C	1.582853	0.211908	1.654354
C154	C	0.916202	-0.454737	1.058379
C155	C	1.249536	-0.121404	1.391712
C156	C	1.582869	0.211930	1.725045
C157	C	1.007210	-0.348114	1.054027
C158	C	1.340543	-0.014781	1.387360
C159	C	1.673876	0.318553	1.720693
C160	C	1.007199	-0.348133	0.983340
C161	C	1.340533	-0.014800	1.316674
C162	C	1.673866	0.318533	1.650007
C163	C	0.961683	-0.401453	0.950174
C164	C	1.295016	-0.068120	1.283508
C165	C	1.628350	0.265213	1.616841
C166	C	0.961674	-0.401478	0.873527
C167	C	1.295008	-0.068145	1.206860
C168	C	1.628341	0.265189	1.540194
C169	C	0.961671	-0.401493	0.812436
C170	C	1.295004	-0.068160	1.145769
C171	C	1.628338	0.265173	1.479102
H172	H	0.699943	-0.498494	0.425004
H173	H	1.033276	-0.165160	0.758337
H174	H	1.366610	0.168173	1.091671
H175	H	0.905219	-0.916121	0.398995
H176	H	1.238552	-0.582787	0.732329
H177	H	1.571886	-0.249454	1.065662
F178	F	0.206553	-0.511875	0.436400
F179	F	0.539886	-0.178542	0.769734
F180	F	0.873220	0.154792	1.103067
H181	H	0.707913	-0.304754	0.260258
H182	H	1.041246	0.028579	0.593591
H183	H	1.374579	0.361912	0.926924
F184	F	1.055580	-0.291508	0.587658
F185	F	1.388913	0.041826	0.920992
F186	F	1.722246	0.375159	1.254325
H187	H	0.879149	-0.498143	1.088925
H188	H	1.212482	-0.164810	1.422259
H189	H	1.545816	0.168523	1.755592
F190	F	1.029336	-0.875384	0.275043
F191	F	1.362669	-0.542050	0.608376
F192	F	1.696003	-0.208717	0.941710
F193	F	1.055617	-0.291488	0.733567
F194	F	1.388950	0.041845	1.066900
F195	F	1.722284	0.375179	1.400234
F196	F	0.562322	-0.511845	0.436373
F197	F	0.895655	-0.178511	0.769707
F198	F	1.228989	0.154822	1.103040
H199	H	0.344182	-0.498513	0.425036
H200	H	0.677515	-0.165179	0.758369
H201	H	1.010849	0.168154	1.091703
H202	H	1.044251	-0.304733	0.952796
H203	H	1.377584	0.028601	1.286129
H204	H	1.710918	0.361934	1.619462
H205	H	1.044269	-0.304695	1.081039
H206	H	1.377602	0.028638	1.414372
H207	H	1.710936	0.361971	1.747706
H208	H	0.879134	-0.498187	0.960693
H209	H	1.212468	-0.164854	1.294026
H210	H	1.545801	0.168479	1.627360
F211	F	0.867720	-0.511561	0.742550
F212	F	1.201053	-0.178228	1.075883
F213	F	1.534386	0.155106	1.409216
H214	H	0.223908	-0.304791	0.260295
H215	H	0.557241	0.028542	0.593628
H216	H	0.890575	0.361875	0.926962
F217	F	0.361529	-0.291424	0.248934
F218	F	0.694862	0.041909	0.582268
F219	F	1.028196	0.375242	0.915601
H220	H	0.579667	-0.304769	0.260272
H221	H	0.913000	0.028564	0.593605
H222	H	1.246333	0.361898	0.926938
F223	F	0.867696	-0.511605	0.596632
F224	F	1.201029	-0.178272	0.929966
F225	F	1.534363	0.155061	1.263299
