data_functionalizedCrystal
_audit_creation_method	'MofGen! by Chris Wilmer'
_symmetry_space_group_name_H-M	'P1'
_symmetry_Int_Tables_number	1
_symmetry_cell_setting	triclinic
loop_
_symmetry_equiv_pos_as_xyz
  x,y,z
_cell_length_a	35.277438
_cell_length_b	35.283087
_cell_length_c	35.277682
_cell_angle_alpha	89.995669
_cell_angle_beta	120.003279
_cell_angle_gamma	60.014852
loop_
_atom_site_label
_atom_site_type_symbol
_atom_site_fract_x
_atom_site_fract_y
_atom_site_fract_z
O1	O	-0.334408	-0.259997	-0.011275
O2	O	-0.256776	-0.204882	0.011225
O3	O	-0.334394	-0.204888	-0.066397
O4	O	-0.256791	-0.259991	0.066347
O5	O	-0.271363	-0.267913	-0.066397
O6	O	-0.193745	-0.267908	0.011225
O7	O	-0.271377	-0.323022	-0.011274
Cu8	Cu	-0.226806	-0.301220	-0.000025
Cu9	Cu	-0.301347	-0.226685	-0.000025
O10	O	-0.193760	-0.323016	0.066347
C11	C	-0.062157	-0.095984	0.034109
C12	C	-0.084740	-0.050377	0.034429
C13	C	0.006486	-0.095986	0.034107
C14	C	-0.016201	-0.050380	0.034427
C15	C	-0.062135	-0.027363	0.034107
C16	C	-0.016223	-0.118897	0.034429
C17	C	-0.116537	-0.207137	0.021687
C18	C	-0.141664	-0.228887	0.018175
C19	C	-0.188628	-0.205437	0.016412
C20	C	-0.215880	-0.229015	0.012595
C21	C	-0.210461	-0.160237	0.018165
C22	C	-0.185331	-0.138493	0.021683
C23	C	-0.138367	-0.161945	0.023444
C24	C	-0.185698	0.138120	0.021678
C25	C	-0.210955	0.184982	0.018164
C26	C	-0.189260	0.208492	0.016396
C27	C	-0.216644	0.259304	0.012579
C28	C	-0.142300	0.185132	0.018149
C29	C	-0.117039	0.138270	0.021672
C30	C	-0.138746	0.114766	0.023433
C31	C	0.159555	-0.207146	0.021677
C32	C	0.202907	-0.228896	0.018156
C33	C	0.224666	-0.205449	0.016391
C34	C	0.271670	-0.229030	0.012571
C35	C	0.203069	-0.160251	0.018142
C36	C	0.159717	-0.138503	0.021661
C37	C	0.137966	-0.161956	0.023432
C38	C	-0.111123	-0.138361	0.027255
C39	C	-0.089405	-0.119564	0.030294
C40	C	0.053490	-0.119569	0.030289
C41	C	0.090958	-0.138367	0.027248
C42	C	-0.089523	0.023449	0.030290
C43	C	-0.111354	0.063952	0.027248
C44	C	-0.456816	-0.364452	-0.023593
C45	C	-0.503593	-0.341070	-0.020375
C46	C	-0.434126	-0.410058	-0.023914
C47	C	-0.388173	-0.364448	-0.023589
C48	C	-0.361556	-0.341062	-0.020368
C49	C	-0.365587	-0.410054	-0.023911
C50	C	-0.388191	-0.433072	-0.023592
C51	C	-0.361593	-0.483058	-0.020374
C52	C	-0.434108	-0.341539	-0.023911
C53	C	-0.340104	-0.523442	-0.017773
C54	C	-0.541384	-0.322180	-0.017775
C55	C	-0.340052	-0.322169	-0.017764
C56	C	-0.313146	-0.574106	-0.014511
C57	C	-0.588794	-0.298481	-0.014513
C58	C	-0.313075	-0.298466	-0.014499
C59	C	-0.466195	-0.095992	-0.438555
C60	C	-0.512124	-0.050388	-0.461473
C61	C	-0.466195	-0.095992	-0.369912
C62	C	-0.512124	-0.050388	-0.392934
C63	C	-0.534820	-0.027373	-0.438554
C64	C	-0.443603	-0.118902	-0.392935
C65	C	-0.342608	-0.207141	-0.480471
C66	C	-0.317342	-0.228891	-0.502076
C67	C	-0.339028	-0.205443	-0.547284
C68	C	-0.311630	-0.229021	-0.570709
C69	C	-0.385984	-0.160246	-0.570885
C70	C	-0.411249	-0.138502	-0.549282
C71	C	-0.389560	-0.161951	-0.504073
C72	C	-0.687882	0.138102	-0.549741
C73	C	-0.731233	0.184963	-0.571498
C74	C	-0.752979	0.208473	-0.548044
C75	C	-0.799977	0.259283	-0.571627
C76	C	-0.731374	0.185116	-0.502831
C77	C	-0.688030	0.138255	-0.481078
C78	C	-0.666285	0.114751	-0.504538
C79	C	-0.342608	-0.207141	-0.204380
C80	C	-0.317338	-0.228889	-0.157501
C81	C	-0.339024	-0.205442	-0.133986
C82	C	-0.311625	-0.229019	-0.083156
C83	C	-0.385975	-0.160246	-0.157349
C84	C	-0.411241	-0.138500	-0.204226
C85	C	-0.389556	-0.161954	-0.227740
C86	C	-0.416958	-0.138368	-0.480649
C87	C	-0.438797	-0.119571	-0.461978
C88	C	-0.438797	-0.119571	-0.319084
C89	C	-0.416958	-0.138368	-0.278569
C90	C	-0.581818	0.023437	-0.462141
C91	C	-0.619282	0.063939	-0.480944
O92	O	0.397283	-0.323039	-0.011289
O93	O	0.287051	-0.267925	0.011207
O94	O	0.287047	-0.267933	-0.066413
O95	O	0.397287	-0.323032	0.066331
O96	O	0.287068	-0.204906	-0.066416
O97	O	0.287072	-0.204899	0.011205
O98	O	0.397303	-0.260013	-0.011291
Cu99	Cu	0.342189	-0.226701	-0.000043
Cu100	Cu	0.342165	-0.301237	-0.000041
O101	O	0.397308	-0.260005	0.066329
O102	O	-0.271446	0.408761	-0.011289
O103	O	-0.193868	0.276059	0.011207
O104	O	-0.271467	0.353648	-0.066414
O105	O	-0.193848	0.331172	0.066331
O106	O	-0.334513	0.353650	-0.066411
O107	O	-0.256915	0.276061	0.011209
O108	O	-0.334493	0.408763	-0.011287
Cu109	Cu	-0.301461	0.342412	-0.000039
Cu110	Cu	-0.226901	0.342410	-0.000041
O111	O	-0.256895	0.331174	0.066334
O112	O	-0.925578	0.408737	-0.602607
O113	O	-0.815362	0.276038	-0.547486
O114	O	-0.815343	0.353634	-0.547481
O115	O	-0.925598	0.331140	-0.602612
O116	O	-0.815344	0.353636	-0.610528
O117	O	-0.815364	0.276039	-0.610533
O118	O	-0.925580	0.408738	-0.665654
Cu119	Cu	-0.870472	0.342389	-0.643850
Cu120	Cu	-0.870470	0.342387	-0.569289
O121	O	-0.925600	0.331142	-0.665659
O122	O	-0.256787	-0.259995	-0.665362
O123	O	-0.334393	-0.204888	-0.610240
O124	O	-0.256774	-0.204884	-0.610235
O125	O	-0.334406	-0.259999	-0.665367
O126	O	-0.193745	-0.267908	-0.547189
O127	O	-0.271364	-0.267912	-0.547193
O128	O	-0.193757	-0.323019	-0.602315
Cu129	Cu	-0.226805	-0.301220	-0.568998
Cu130	Cu	-0.301345	-0.226687	-0.643558
O131	O	-0.271376	-0.323023	-0.602320
C132	C	-0.071406	-0.433053	0.293205
C133	C	-0.024636	-0.483038	0.316595
C134	C	-0.094101	-0.410039	0.316124
C135	C	-0.140031	-0.364433	0.224563
C136	C	-0.166636	-0.341050	0.174561
C137	C	-0.162623	-0.341523	0.247586
C138	C	-0.140031	-0.364434	0.293206
C139	C	-0.166635	-0.341051	0.316598
C140	C	-0.094102	-0.410038	0.247585
C141	C	-0.188129	-0.322161	0.335496
C142	C	0.013149	-0.523421	0.335492
C143	C	-0.188131	-0.322159	0.134164
C144	C	-0.215093	-0.298462	0.359204
C145	C	0.060552	-0.574083	0.359199
C146	C	-0.215097	-0.298459	0.083485
C147	C	0.611839	-0.364441	0.293190
C148	C	0.638459	-0.341057	0.316581
C149	C	0.634422	-0.410045	0.316109
C150	C	0.543191	-0.364443	0.224547
C151	C	0.496413	-0.341061	0.174545
C152	C	0.565879	-0.410048	0.247570
C153	C	0.611815	-0.433061	0.293190
C154	C	0.638409	-0.483046	0.316582
C155	C	0.565903	-0.341532	0.247569
C156	C	0.659896	-0.523429	0.335480
C157	C	0.659967	-0.322165	0.335478
C158	C	0.458622	-0.322171	0.134148
C159	C	0.686851	-0.574091	0.359188
C160	C	0.686948	-0.298464	0.359186
C161	C	0.411210	-0.298473	0.083468
C162	C	-0.140118	0.318912	0.293187
C163	C	-0.166727	0.322134	0.316579
C164	C	-0.094178	0.318596	0.316103
C165	C	-0.140117	0.318899	0.224545
C166	C	-0.166725	0.322108	0.174544
C167	C	-0.094177	0.318583	0.247565
C168	C	-0.071476	0.318912	0.293184
C169	C	-0.024694	0.322135	0.316573
C170	C	-0.162714	0.318582	0.247568
C171	C	0.013100	0.324740	0.335468
C172	C	-0.188226	0.324738	0.335477
C173	C	-0.188223	0.324701	0.134148
C174	C	0.060516	0.328007	0.359173
C175	C	-0.215196	0.328005	0.359186
C176	C	-0.215192	0.327954	0.083470
C177	C	-0.062159	-0.027699	-0.438575
C178	C	-0.084766	-0.050715	-0.461493
C179	C	0.006465	-0.096317	-0.369931
C180	C	-0.016246	-0.119229	-0.392954
C181	C	-0.062182	-0.096320	-0.438574
C182	C	-0.016223	-0.050712	-0.392955
C183	C	-0.116449	0.137777	-0.480494
C184	C	-0.141553	0.184638	-0.502100
C185	C	-0.188519	0.208145	-0.547307
C186	C	-0.215747	0.258957	-0.570733
C187	C	-0.210377	0.184786	-0.570909
C188	C	-0.185268	0.137927	-0.549305
C189	C	-0.138302	0.114423	-0.504095
C190	C	-0.185820	-0.138226	-0.549761
C191	C	-0.211100	-0.159826	-0.571518
C192	C	-0.189427	-0.205015	-0.548064
C193	C	-0.216837	-0.228436	-0.571647
C194	C	-0.142465	-0.228607	-0.502850
C195	C	-0.117180	-0.207012	-0.481097
C196	C	-0.138866	-0.161817	-0.504557
C197	C	0.159566	-0.138212	-0.204399
C198	C	0.202921	-0.159806	-0.157520
C199	C	0.224659	-0.204998	-0.134003
C200	C	0.271665	-0.228413	-0.083173
C201	C	0.203037	-0.228591	-0.157366
C202	C	0.159683	-0.206995	-0.204244
C203	C	0.137953	-0.161805	-0.227758
C204	C	-0.111082	0.063612	-0.480671
C205	C	-0.089383	0.023111	-0.461999
C206	C	0.053472	-0.119730	-0.319103
C207	C	0.090942	-0.138394	-0.278588
C208	C	-0.089596	-0.119736	-0.462161
C209	C	-0.111448	-0.138402	-0.480964
O210	O	0.743079	-0.723924	0.389751
O211	O	0.665501	-0.591225	0.334623
O212	O	0.743094	-0.668822	0.334623
O213	O	0.665485	-0.646327	0.389751
O214	O	0.806145	-0.668818	0.397668
O215	O	0.728551	-0.591221	0.397669
O216	O	0.806129	-0.723920	0.452797
Cu217	Cu	0.773097	-0.657570	0.430989
Cu218	Cu	0.698533	-0.657575	0.356430
O219	O	0.728536	-0.646323	0.452797
C220	C	-0.534675	0.376468	-0.438560
C221	C	-0.511973	0.376783	-0.461479
C222	C	-0.466034	0.376480	-0.369921
C223	C	-0.443435	0.376795	-0.392944
C224	C	-0.466032	0.376466	-0.438563
C225	C	-0.511974	0.376797	-0.392941
C226	C	-0.687782	0.364040	-0.480468
C227	C	-0.731146	0.360524	-0.502071
C228	C	-0.752897	0.358752	-0.547277
C229	C	-0.799909	0.354931	-0.570700
C230	C	-0.731285	0.360500	-0.570880
C231	C	-0.687929	0.364022	-0.549279
C232	C	-0.666178	0.365792	-0.504071
C233	C	-0.411689	0.364017	-0.549750
C234	C	-0.386570	0.360500	-0.571508
C235	C	-0.339600	0.358738	-0.548056
C236	C	-0.312356	0.354917	-0.571640
C237	C	-0.317752	0.360499	-0.502844
C238	C	-0.342875	0.364025	-0.481090
C239	C	-0.389846	0.365781	-0.504548
C240	C	-0.411697	0.364088	-0.204391
C241	C	-0.386576	0.360578	-0.157513
C242	C	-0.339606	0.358818	-0.133999
C243	C	-0.312364	0.355011	-0.083171
C244	C	-0.317757	0.360564	-0.157364
C245	C	-0.342878	0.364072	-0.204240
C246	C	-0.389852	0.365838	-0.227751
C247	C	-0.619162	0.369607	-0.480650
C248	C	-0.581687	0.372649	-0.461981
C249	C	-0.438796	0.372674	-0.319094
C250	C	-0.417086	0.369642	-0.278580
C251	C	-0.438793	0.372645	-0.462151
C252	C	-0.417081	0.369600	-0.480954
H253	H	0.142138	-0.101702	0.023089
C254	C	0.226946	-0.278303	-0.131502
C255	C	0.250421	-0.318400	-0.148483
C256	C	0.274327	-0.368110	-0.122621
C257	C	0.274757	-0.377722	-0.079778
C258	C	0.251281	-0.337624	-0.062795
C259	C	0.227376	-0.287914	-0.088657
H260	H	0.250103	-0.311286	-0.180200
H261	H	0.291705	-0.397793	-0.135194
H262	H	0.292454	-0.414521	-0.060634
H263	H	0.251600	-0.344739	-0.031078
H264	H	0.209997	-0.258231	-0.076085
C265	C	-0.318845	0.365963	-0.431362
C266	C	-0.351936	0.408362	-0.421667
C267	C	-0.327904	0.410298	-0.371937
C268	C	-0.270781	0.369836	-0.331902
C269	C	-0.237687	0.327435	-0.341596
C270	C	-0.261719	0.325498	-0.391326
H271	H	-0.394225	0.438317	-0.451304
H272	H	-0.352403	0.441687	-0.364762
H273	H	-0.252992	0.371270	-0.295090
H274	H	-0.195398	0.297480	-0.311959
H275	H	-0.237220	0.294110	-0.398501
H276	H	-0.325083	0.365491	-0.223259
C277	C	-0.117515	0.210332	-0.476139
C278	C	-0.150607	0.253121	-0.466836
C279	C	-0.126569	0.278815	-0.440874
C280	C	-0.069439	0.261721	-0.424216
C281	C	-0.036344	0.218930	-0.433519
C282	C	-0.060382	0.193236	-0.459481
H283	H	-0.192901	0.265777	-0.479167
H284	H	-0.151068	0.310492	-0.433987
H285	H	-0.051644	0.280741	-0.404998
H286	H	0.005950	0.206273	-0.421188
H287	H	-0.035882	0.161559	-0.466368
C288	C	-0.212549	-0.290903	0.222620
C289	C	-0.237503	-0.265596	0.247944
C290	C	-0.287426	-0.214978	0.222980
C291	C	-0.312395	-0.189666	0.172692
C292	C	-0.287441	-0.214973	0.147364
C293	C	-0.237518	-0.265592	0.172328
H294	H	-0.219019	-0.284333	0.285174
H295	H	-0.305899	-0.196244	0.241730
H296	H	-0.349352	-0.152196	0.154212
H297	H	-0.305925	-0.196236	0.110135
H298	H	-0.219045	-0.284325	0.153579
H299	H	-0.749085	0.204256	-0.483736
C300	C	-0.212657	0.317887	0.222596
C301	C	-0.237621	0.317528	0.172311
C302	C	-0.287565	0.316836	0.147337
C303	C	-0.312544	0.316503	0.172650
C304	C	-0.287580	0.316861	0.222938
C305	C	-0.237637	0.317553	0.247912
H306	H	-0.219130	0.317775	0.153570
H307	H	-0.306045	0.316571	0.110110
H308	H	-0.349515	0.315990	0.154163
H309	H	-0.306071	0.316614	0.241679
H310	H	-0.219157	0.317819	0.285139
C311	C	-0.068445	-0.434999	0.366760
C312	C	-0.017827	-0.485272	0.392077
C313	C	0.007827	-0.510230	0.442711
C314	C	-0.017138	-0.484917	0.468026
C315	C	-0.067759	-0.434641	0.442708
C316	C	-0.093412	-0.409682	0.392075
H317	H	0.000656	-0.504013	0.373337
H318	H	0.045300	-0.547448	0.461452
H319	H	0.001852	-0.503393	0.505508
H320	H	-0.086241	-0.415900	0.461449
H321	H	-0.130885	-0.372465	0.373333
H322	H	-0.248616	0.203928	-0.607717
C323	C	-0.068425	-0.434987	0.222621
C324	C	-0.017792	-0.485251	0.247941
C325	C	0.007891	-0.510194	0.222982
C326	C	-0.017058	-0.484871	0.172704
C327	C	-0.067695	-0.434603	0.147382
C328	C	-0.093378	-0.409661	0.172340
H329	H	0.000680	-0.503999	0.285162
H330	H	0.045376	-0.547405	0.241728
H331	H	0.001954	-0.503335	0.154228
H332	H	-0.086167	-0.415855	0.110160
H333	H	-0.130863	-0.372450	0.153595
C334	C	-0.068509	0.317907	0.366739
C335	C	-0.017871	0.317558	0.392053
C336	C	0.007798	0.316870	0.442686
C337	C	-0.017172	0.316531	0.468007
C338	C	-0.067813	0.316880	0.442693
C339	C	-0.093482	0.317568	0.392060
H340	H	0.000615	0.317809	0.373309
H341	H	0.045286	0.316612	0.461425
H342	H	0.001830	0.316021	0.505489
H343	H	-0.086300	0.316629	0.461437
H344	H	-0.130970	0.317827	0.373321
H345	H	0.546869	-0.428524	0.229084
H346	H	0.141884	-0.101421	-0.223546
C347	C	-0.459788	-0.435029	-0.024601
C348	C	-0.434825	-0.485303	-0.024945
C349	C	-0.460481	-0.510276	-0.025625
C350	C	-0.511100	-0.484977	-0.025960
C351	C	-0.536067	-0.434700	-0.025615
C352	C	-0.510411	-0.409727	-0.024935
H353	H	-0.397350	-0.504034	-0.024698
H354	H	-0.441999	-0.547494	-0.025881
H355	H	-0.530092	-0.503463	-0.026463
H356	H	-0.573541	-0.415969	-0.025863
H357	H	-0.528893	-0.372509	-0.024680
H358	H	0.671385	-0.428520	0.353593
H359	H	-0.453098	-0.304068	-0.024423
H360	H	0.546941	-0.304073	0.229075
H361	H	-0.530975	0.377315	-0.374458
H362	H	0.002748	-0.156702	-0.374470
H363	H	-0.123884	-0.265688	0.016747
H364	H	-0.203066	0.118911	-0.568524
C365	C	0.227001	-0.134455	0.016201
C366	C	0.227434	-0.125274	-0.026211
C367	C	0.251363	-0.099477	-0.028152
C368	C	0.274860	-0.082861	0.012317
C369	C	0.274428	-0.092041	0.054731
C370	C	0.250499	-0.117838	0.056673
H371	H	0.210039	-0.137575	-0.056171
H372	H	0.251683	-0.092681	-0.059551
H373	H	0.292574	-0.063765	0.010879
H374	H	0.291823	-0.079741	0.084692
H375	H	0.250180	-0.124634	0.088071
C376	C	-0.409835	-0.134455	-0.620610
C377	C	-0.427197	-0.154663	-0.659624
C378	C	-0.451050	-0.128869	-0.709350
C379	C	-0.457541	-0.082869	-0.720061
C380	C	-0.440179	-0.062659	-0.681046
C381	C	-0.416326	-0.088452	-0.631320
H382	H	-0.422392	-0.188717	-0.651696
H383	H	-0.463903	-0.143830	-0.738232
H384	H	-0.475199	-0.063775	-0.756871
H385	H	-0.444983	-0.028604	-0.688974
H386	H	-0.403473	-0.073491	-0.602438
H387	H	-0.075180	0.318065	0.229078
C388	C	-0.118617	-0.278317	-0.477048
C389	C	-0.101274	-0.317320	-0.497261
C390	C	-0.077428	-0.367029	-0.471458
C391	C	-0.070926	-0.377736	-0.425442
C392	C	-0.088269	-0.338732	-0.405227
C393	C	-0.112115	-0.289023	-0.431030
H394	H	-0.106087	-0.309395	-0.531327
H395	H	-0.064589	-0.395902	-0.486423
H396	H	-0.053274	-0.414534	-0.406342
H397	H	-0.083456	-0.346657	-0.371162
H398	H	-0.124954	-0.260150	-0.416065
H399	H	-0.324944	-0.226240	-0.443661
H400	H	-0.531113	-0.031910	-0.374446
C401	C	-0.065388	0.112577	0.023599
C402	C	-0.013292	0.069791	0.066006
C403	C	0.038358	0.044099	0.067932
C404	C	0.037913	0.061191	0.027450
C405	C	-0.014185	0.103979	-0.014960
C406	C	-0.065835	0.129672	-0.016886
H407	H	-0.012961	0.057136	0.095976
H408	H	0.076924	0.012424	0.099327
H409	H	0.076147	0.042172	0.028876
H410	H	-0.014516	0.116634	-0.044930
H411	H	-0.104401	0.161346	-0.048281
H412	H	-0.279508	0.359129	-0.138215
C413	C	-0.462895	-0.088788	-0.575240
C414	C	-0.486750	-0.062994	-0.624964
C415	C	-0.538395	-0.013279	-0.650923
C416	C	-0.566186	0.010641	-0.627157
C417	C	-0.542331	-0.015154	-0.577431
C418	C	-0.490686	-0.064868	-0.551472
H419	H	-0.466178	-0.080701	-0.642559
H420	H	-0.556054	0.005816	-0.687734
H421	H	-0.604416	0.047443	-0.646373
H422	H	-0.562903	0.002554	-0.559836
H423	H	-0.473027	-0.083963	-0.514661
C424	C	-0.134700	-0.025759	-0.512131
C425	C	-0.159659	0.024513	-0.537451
C426	C	-0.209591	0.049467	-0.588088
C427	C	-0.234562	0.024150	-0.613403
C428	C	-0.209602	-0.026124	-0.588083
C429	C	-0.159671	-0.051078	-0.537447
H430	H	-0.141174	0.043257	-0.518711
H431	H	-0.228067	0.086684	-0.606831
H432	H	-0.271524	0.042623	-0.650887
H433	H	-0.228088	-0.044868	-0.606823
H434	H	-0.141194	-0.088295	-0.518703
H435	H	-0.748819	0.203977	-0.608309
H436	H	-0.530977	0.377297	-0.498963
C437	C	0.009439	-0.025743	-0.367973
C438	C	-0.015529	0.024536	-0.393280
C439	C	0.010123	0.049509	-0.368295
C440	C	0.060744	0.024202	-0.318002
C441	C	0.085715	-0.026080	-0.292692
C442	C	0.060062	-0.051052	-0.317678
H443	H	-0.053004	0.043272	-0.430513
H444	H	-0.008362	0.086730	-0.387031
H445	H	0.079734	0.042688	-0.299506
H446	H	0.123190	-0.044816	-0.255460
H447	H	0.078547	-0.088274	-0.298942
C448	C	0.226702	-0.133854	-0.131820
C449	C	0.191303	-0.087815	-0.127734
C450	C	0.215086	-0.061863	-0.102034
C451	C	0.274268	-0.081951	-0.080420
C452	C	0.309671	-0.127992	-0.084506
C453	C	0.285888	-0.153944	-0.110206
H454	H	0.147490	-0.072943	-0.143734
H455	H	0.188878	-0.027780	-0.099010
H456	H	0.291873	-0.062740	-0.061396
H457	H	0.353484	-0.142864	-0.068505
H458	H	0.312096	-0.188027	-0.113230
C459	C	-0.262758	-0.133874	-0.621246
C460	C	-0.262316	-0.117222	-0.661284
C461	C	-0.313975	-0.091269	-0.711012
C462	C	-0.366076	-0.081967	-0.720703
C463	C	-0.366520	-0.098619	-0.680665
C464	C	-0.314861	-0.124572	-0.630936
H465	H	-0.223746	-0.124108	-0.654111
H466	H	-0.313647	-0.078943	-0.740651
H467	H	-0.404317	-0.062755	-0.757515
H468	H	-0.405090	-0.091734	-0.687837
H469	H	-0.315190	-0.136899	-0.601297
C470	C	-0.393672	-0.169520	-0.367960
C471	C	-0.368699	-0.194829	-0.393272
C472	C	-0.318767	-0.245443	-0.368297
C473	C	-0.293809	-0.270749	-0.318010
C474	C	-0.318782	-0.245440	-0.292695
C475	C	-0.368713	-0.194826	-0.317671
H476	H	-0.387175	-0.176096	-0.430500
H477	H	-0.300281	-0.264179	-0.387037
H478	H	-0.256846	-0.308217	-0.299521
H479	H	-0.300306	-0.264173	-0.255467
H480	H	-0.387200	-0.176090	-0.298931
H481	H	-0.531118	-0.031912	-0.498957
H482	H	-0.078207	0.118644	-0.443683
H483	H	-0.203478	-0.101429	-0.568867
H484	H	-0.078943	-0.226225	-0.444286
C485	C	0.135905	-0.232949	-0.229943
C486	C	0.159815	-0.282658	-0.204080
C487	C	0.136038	-0.308613	-0.229780
C488	C	0.088350	-0.284860	-0.281342
C489	C	0.064437	-0.235148	-0.307208
C490	C	0.088214	-0.209193	-0.281509
H491	H	0.195119	-0.300244	-0.165908
H492	H	0.153740	-0.345413	-0.210632
H493	H	0.070748	-0.304073	-0.300367
H494	H	0.029133	-0.217562	-0.345381
H495	H	0.070512	-0.172393	-0.300657
H496	H	-0.328622	-0.428530	-0.024423
H497	H	0.002809	-0.031905	0.034945
C498	C	-0.262118	-0.134445	0.016227
C499	C	-0.314146	-0.125263	-0.026184
C500	C	-0.365804	-0.099468	-0.028122
C501	C	-0.365435	-0.082856	0.012350
C502	C	-0.313405	-0.092038	0.054764
C503	C	-0.261747	-0.117833	0.056702
H504	H	-0.314421	-0.137561	-0.056146
H505	H	-0.404320	-0.092671	-0.059520
H506	H	-0.403676	-0.063761	0.010915
H507	H	-0.313130	-0.079741	0.084727
H508	H	-0.223231	-0.124630	0.088100
H509	H	-0.406465	0.377310	-0.374459
H510	H	-0.404368	0.359154	-0.138492
H511	H	-0.449948	0.365529	-0.223534
H512	H	-0.670077	0.365483	-0.443659
C513	C	-0.410597	0.358555	-0.621234
C514	C	-0.417147	0.319057	-0.631856
C515	C	-0.441173	0.317111	-0.681582
C516	C	-0.458649	0.354665	-0.720687
C517	C	-0.452100	0.394166	-0.710066
C518	C	-0.428073	0.396112	-0.660340
H519	H	-0.404209	0.291255	-0.602908
H520	H	-0.446021	0.287869	-0.689444
H521	H	-0.476435	0.353224	-0.757497
H522	H	-0.465037	0.421968	-0.739014
H523	H	-0.423225	0.425353	-0.652478
H524	H	-0.748733	0.359093	-0.482848
H525	H	-0.279104	-0.265686	-0.138480
H526	H	-0.749000	0.359060	-0.607687
H527	H	-0.670182	0.118968	-0.568846
H528	H	-0.670337	0.365447	-0.568499
C529	C	-0.463360	0.365960	-0.575555
C530	C	-0.487395	0.364029	-0.625284
C531	C	-0.539066	0.365972	-0.651087
C532	C	-0.566702	0.369846	-0.627160
C533	C	-0.542666	0.371777	-0.577428
C534	C	-0.490996	0.369834	-0.551625
H535	H	-0.466938	0.361161	-0.642999
H536	H	-0.556858	0.364542	-0.687902
H537	H	-0.604951	0.371284	-0.646261
H538	H	-0.563124	0.374645	-0.559714
H539	H	-0.473203	0.371264	-0.514810
C540	C	-0.209345	-0.088777	0.023611
C541	C	-0.261003	-0.062980	0.021671
C542	C	-0.285020	-0.013263	0.023596
C543	C	-0.257378	0.010657	0.027463
C544	C	-0.205718	-0.015140	0.029403
C545	C	-0.181701	-0.064857	0.027477
H546	H	-0.281468	-0.080688	0.018808
H547	H	-0.323262	0.005833	0.022160
H548	H	-0.275157	0.047461	0.028888
H549	H	-0.185253	0.002568	0.032265
H550	H	-0.143458	-0.083953	0.028914
C551	C	-0.265692	-0.278602	-0.476115
C552	C	-0.215559	-0.289224	-0.430065
C553	C	-0.163907	-0.338934	-0.404102
C554	C	-0.162388	-0.378023	-0.424188
C555	C	-0.212523	-0.367403	-0.470241
C556	C	-0.264175	-0.317692	-0.496204
H557	H	-0.216682	-0.260287	-0.415193
H558	H	-0.126794	-0.346797	-0.370010
H559	H	-0.124153	-0.414822	-0.404969
H560	H	-0.211400	-0.396339	-0.485112
H561	H	-0.301288	-0.309830	-0.530295
H562	H	-0.324945	-0.226240	-0.223522
C563	C	-0.266088	0.358565	-0.477045
C564	C	-0.264635	0.396120	-0.497262
C565	C	-0.212968	0.394183	-0.471462
C566	C	-0.162753	0.354691	-0.425445
C567	C	-0.164204	0.317133	-0.405225
C568	C	-0.215872	0.319070	-0.431025
H569	H	-0.301808	0.425357	-0.531330
H570	H	-0.211894	0.421986	-0.486431
H571	H	-0.124506	0.353256	-0.406346
H572	H	-0.127031	0.287896	-0.371157
H573	H	-0.216946	0.291267	-0.416056
H574	H	0.002762	-0.156369	0.034945
C575	C	0.135617	-0.232938	0.023612
C576	C	0.159361	-0.282648	0.021673
C577	C	0.135417	-0.308436	0.023603
C578	C	0.087730	-0.284513	0.027471
C579	C	0.063984	-0.234800	0.029409
C580	C	0.087927	-0.209012	0.027480
H581	H	0.194664	-0.300360	0.018810
H582	H	0.152996	-0.345236	0.022168
H583	H	0.070006	-0.303602	0.028899
H584	H	0.028681	-0.217088	0.032273
H585	H	0.070349	-0.172211	0.028915
C586	C	0.226662	-0.278612	0.016227
C587	C	0.285838	-0.317692	0.053800
C588	C	0.309594	-0.367409	0.051873
C589	C	0.274174	-0.378045	0.012373
C590	C	0.214994	-0.338964	-0.025203
C591	C	0.191238	-0.289247	-0.023276
H592	H	0.312062	-0.309819	0.083043
H593	H	0.353404	-0.396339	0.079689
H594	H	0.291760	-0.414848	0.010946
H595	H	0.188770	-0.346836	-0.054446
H596	H	0.147428	-0.260317	-0.051092
H597	H	-0.078298	-0.226236	0.023121
C598	C	-0.664265	0.112564	-0.431347
C599	C	-0.688180	0.138417	-0.405544
C600	C	-0.664413	0.112727	-0.355812
C601	C	-0.616732	0.061183	-0.331884
C602	C	-0.592815	0.035326	-0.357688
C603	C	-0.616582	0.061017	-0.407419
H604	H	-0.723478	0.176576	-0.423257
H605	H	-0.682118	0.131868	-0.336711
H606	H	-0.599139	0.042165	-0.295070
H607	H	-0.557517	-0.002833	-0.339975
H608	H	-0.598877	0.041875	-0.426521
C609	C	-0.409832	-0.134451	-0.131483
C610	C	-0.416321	-0.088452	-0.127268
C611	C	-0.440176	-0.062657	-0.101403
C612	C	-0.457544	-0.082863	-0.079753
C613	C	-0.451055	-0.128865	-0.083968
C614	C	-0.427200	-0.154659	-0.109832
H615	H	-0.403464	-0.073492	-0.143295
H616	H	-0.444979	-0.028604	-0.098284
H617	H	-0.475203	-0.063768	-0.060607
H618	H	-0.463912	-0.143824	-0.067941
H619	H	-0.422397	-0.188713	-0.112952
C620	C	-0.262610	0.210677	0.016229
C621	C	-0.312747	0.214761	-0.023278
C622	C	-0.364404	0.240456	-0.025214
C623	C	-0.365924	0.262066	0.012357
C624	C	-0.315786	0.257983	0.051867
C625	C	-0.264129	0.232288	0.053803
H626	H	-0.311623	0.198763	-0.051093
H627	H	-0.401519	0.243478	-0.054462
H628	H	-0.404164	0.281087	0.010924
H629	H	-0.316910	0.273981	0.079682
H630	H	-0.227014	0.229266	0.083051
H631	H	-0.121699	-0.031901	0.034950
C632	C	-0.118428	0.210987	0.016210
C633	C	-0.151641	0.253812	-0.026203
C634	C	-0.127771	0.279668	-0.028145
C635	C	-0.070689	0.262700	0.012325
C636	C	-0.037473	0.219874	0.054741
C637	C	-0.061342	0.194017	0.056683
H638	H	-0.193900	0.266374	-0.056165
H639	H	-0.152360	0.311371	-0.059545
H640	H	-0.053019	0.281841	0.010888
H641	H	0.004786	0.207311	0.084703
H642	H	-0.036753	0.162314	0.088083
H643	H	-0.203374	0.118986	0.023115
H644	H	-0.449470	-0.101701	-0.223245
