data_functionalizedCrystal
_audit_creation_method	'MofGen! by Chris Wilmer'
_symmetry_space_group_name_H-M	'P1'
_symmetry_Int_Tables_number	1
_symmetry_cell_setting	triclinic
loop_
_symmetry_equiv_pos_as_xyz
  x,y,z
_cell_length_a	12.811438
_cell_length_b	12.837932
_cell_length_c	13.448316
_cell_angle_alpha	89.996966
_cell_angle_beta	95.425923
_cell_angle_gamma	89.413272
loop_
_atom_site_label
_atom_site_type_symbol
_atom_site_fract_x
_atom_site_fract_y
_atom_site_fract_z
O1	O	1.406630	0.139702	0.044182
O2	O	1.102569	0.154888	0.016757
O3	O	1.247857	-0.003637	0.029861
O4	O	1.261343	0.298227	0.031079
O5	O	1.247835	-0.003647	0.195242
O6	O	1.102548	0.154878	0.182139
O7	O	1.406609	0.139692	0.209564
Cu8	Cu	1.254577	0.147284	0.210952
Cu9	Cu	1.254602	0.147296	0.015369
O10	O	1.261322	0.298217	0.196460
C11	C	1.063370	0.154031	0.095913
C12	C	0.946599	0.151481	0.085381
C13	C	1.243291	-0.042282	0.112138
C14	C	1.229704	-0.157418	0.110906
C15	C	0.782024	0.147892	-0.019603
C16	C	0.891741	0.150288	-0.009715
C17	C	0.891733	0.150277	0.170595
C18	C	0.782016	0.147881	0.160707
C19	C	0.727165	0.146691	0.065605
C20	C	0.617446	0.144303	0.055718
C21	C	0.617440	0.144285	0.236027
C22	C	0.727157	0.146680	0.245914
C23	C	1.116145	-0.307752	0.100665
C24	C	1.128904	-0.199571	0.101814
C25	C	1.317751	-0.223456	0.118847
C26	C	1.304992	-0.331637	0.117697
C27	C	1.204186	-0.373781	0.108608
C28	C	1.191427	-0.481964	0.107466
C29	C	1.380274	-0.505847	0.124491
C30	C	1.393033	-0.397666	0.125640
C31	C	1.445808	0.140549	0.130406
C32	C	1.562580	0.143098	0.140932
C33	C	1.265888	0.336862	0.114180
C34	C	1.279475	0.451998	0.115406
N35	N	1.254567	0.147275	0.348516
N36	N	1.254619	0.147296	-0.122194
C37	C	1.318925	0.077109	0.406360
C38	C	1.318931	0.077109	0.510464
C39	C	1.254584	0.147279	0.556722
C40	C	1.190219	0.217448	0.498869
C41	C	1.190208	0.217443	0.394766
C42	C	1.190249	0.217456	0.715852
C43	C	1.190261	0.217462	0.819961
C44	C	1.318972	0.077121	0.831549
C45	C	1.318961	0.077116	0.727447
C46	C	1.254597	0.147286	0.669601
H47	H	0.737363	0.146935	-0.097039
O48	O	1.465834	-0.569949	0.132385
C49	C	1.623356	-0.623423	0.232249
C50	C	1.526498	-0.550785	0.223442
H51	H	1.672441	-0.607939	0.305853
H52	H	1.596981	-0.708002	0.229938
H53	H	1.672393	-0.608051	0.167426
H54	H	1.477419	-0.566063	0.288248
H55	H	1.552944	-0.466229	0.225707
O56	O	1.093435	-0.522735	0.098581
C57	C	0.907472	-0.487621	0.081854
C58	C	1.018390	-0.441315	0.091893
H59	H	0.846768	-0.421816	0.076465
H60	H	0.896722	-0.537631	0.011656
H61	H	0.896815	-0.537709	0.150090
H62	H	1.029123	-0.391179	0.023711
H63	H	1.029088	-0.391365	0.162133
O64	O	1.018154	-0.348526	0.091787
C65	C	0.832189	-0.313422	0.075083
C66	C	0.943104	-0.267111	0.085109
H67	H	0.771481	-0.247621	0.069703
H68	H	0.821432	-0.363431	0.004884
H69	H	0.821545	-0.363514	0.143320
H70	H	0.953825	-0.216972	0.016927
H71	H	0.953809	-0.217162	0.155350
O72	O	1.381595	0.008917	0.887590
C73	C	1.509227	-0.130309	0.888095
C74	C	1.438372	-0.053121	0.824507
H75	H	1.555133	-0.180502	0.837117
H76	H	1.566226	-0.085320	0.941929
H77	H	1.458711	-0.182300	0.932319
H78	H	1.488804	-0.001111	0.780221
H79	H	1.381367	-0.098174	0.770734
H80	H	1.371363	0.019983	0.689785
O81	O	0.944867	0.151503	-0.092589
C82	C	0.933294	0.151204	-0.272475
C83	C	0.872998	0.149849	-0.178700
H84	H	0.875215	0.149845	-0.342120
H85	H	0.982276	0.224833	-0.272635
H86	H	0.987045	0.079854	-0.272087
H87	H	0.819192	0.221148	-0.179027
H88	H	0.824084	0.076173	-0.178576
H89	H	1.137799	0.274578	0.347669
O90	O	1.043414	-0.135387	0.093928
C91	C	0.948263	0.000660	-0.000306
C92	C	1.045117	-0.071984	0.008495
H93	H	0.949619	0.051955	-0.069363
H94	H	0.873991	-0.047997	-0.007068
H95	H	0.949515	0.051855	0.069050
H96	H	1.043967	-0.123193	-0.060841
H97	H	1.119346	-0.023265	0.015305
O98	O	1.381463	0.008845	0.361587
C99	C	1.509168	-0.130317	0.384084
C100	C	1.438379	-0.053075	0.434913
H101	H	1.555220	-0.180384	0.443346
H102	H	1.458697	-0.182422	0.330837
H103	H	1.566051	-0.085268	0.340434
H104	H	1.381485	-0.098039	0.478616
H105	H	1.488916	-0.000969	0.488103
O106	O	0.945148	0.151293	0.262914
C107	C	1.071894	0.064209	0.378988
C108	C	1.011486	0.062943	0.274399
H109	H	1.125526	-0.007225	0.388314
H110	H	1.120986	0.137769	0.387928
H111	H	1.013824	0.062991	0.438181
H112	H	1.069482	0.064123	0.215143
H113	H	0.962379	-0.010611	0.265544
H114	H	1.399823	-0.189123	0.126310
H115	H	1.475107	-0.363337	0.133045
H116	H	1.137862	0.274601	0.857618
O117	O	1.127764	0.285753	0.543693
C118	C	1.084293	0.465781	0.571655
C119	C	1.155078	0.388539	0.520822
H120	H	1.106366	0.548901	0.553200
H121	H	0.998825	0.451934	0.543475
H122	H	1.095333	0.453685	0.655990
H123	H	1.144130	0.400589	0.436483
H124	H	1.240520	0.402405	0.549082
H125	H	1.137833	0.274593	0.668756
O126	O	0.564325	0.143106	-0.036734
C127	C	0.575917	0.143432	-0.214532
C128	C	0.636203	0.144768	-0.109889
H129	H	0.634003	0.144797	-0.273706
H130	H	0.526931	0.069806	-0.223525
H131	H	0.522171	0.214785	-0.223830
H132	H	0.690004	0.073465	-0.100520
H133	H	0.685121	0.218440	-0.100945
O134	O	0.780604	0.147889	0.338217
C135	C	0.949626	0.151514	0.433363
C136	C	0.889232	0.150167	0.328769
H137	H	1.037463	0.153334	0.425760
H138	H	0.925777	0.223552	0.475680
H139	H	0.930340	0.078569	0.476086
H140	H	0.908487	0.223062	0.285963
H141	H	0.913088	0.078081	0.286528
H142	H	0.572762	0.143311	0.305409
H143	H	1.371336	0.019974	0.557561
