data_functionalizedCrystal
_audit_creation_method	'MofGen! by Chris Wilmer'
_symmetry_space_group_name_H-M	'P1'
_symmetry_Int_Tables_number	1
_symmetry_cell_setting	triclinic
loop_
_symmetry_equiv_pos_as_xyz
  x,y,z
_cell_length_a	12.827893
_cell_length_b	12.759400
_cell_length_c	12.827885
_cell_angle_alpha	89.969506
_cell_angle_beta	89.980728
_cell_angle_gamma	90.014655
loop_
_atom_site_label
_atom_site_type_symbol
_atom_site_fract_x
_atom_site_fract_y
_atom_site_fract_z
Zn1	Zn	1.597675	-0.418216	-0.590844
Zn2	Zn	1.597571	-0.593932	-0.416102
Zn3	Zn	1.422916	-0.418267	-0.416117
Zn4	Zn	1.422904	-0.593854	-0.590802
O5	O	1.510266	-0.506067	-0.503466
O6	O	1.743897	-0.441537	-0.567675
O7	O	1.574365	-0.570684	-0.269868
O8	O	1.446147	-0.271240	-0.439319
O9	O	1.743821	-0.570634	-0.439293
O10	O	1.574541	-0.271202	-0.567690
O11	O	1.446046	-0.441624	-0.269879
O12	O	1.276678	-0.441548	-0.439278
O13	O	1.446125	-0.570501	-0.737043
O14	O	1.276669	-0.570550	-0.567618
O15	O	1.574529	-0.441461	-0.737074
O16	O	1.574352	-0.740942	-0.439252
O17	O	1.446025	-0.740885	-0.567603
C18	C	1.238756	-0.506047	-0.503446
C19	C	1.122603	-0.506064	-0.503462
C20	C	1.070842	-0.569998	-0.566871
C21	C	0.950791	-0.570017	-0.566889
C22	C	1.510204	-0.779035	-0.503444
C23	C	1.510273	-0.895811	-0.503470
C24	C	1.577168	-0.950668	-0.436711
C25	C	1.577232	-1.060392	-0.436743
C26	C	1.443499	-1.060393	-0.570296
C27	C	1.443440	-0.950671	-0.570268
C28	C	1.644001	-0.895809	-0.369913
C29	C	1.710899	-0.950666	-0.303148
C30	C	1.710964	-1.060390	-0.303180
C31	C	1.644129	-1.115257	-0.369977
C32	C	1.782836	-0.506088	-0.503487
C33	C	1.898990	-0.506097	-0.503495
C34	C	1.510337	-0.505966	-0.776036
C35	C	1.510368	-0.505923	-0.892190
C36	C	1.510357	-0.232034	-0.503511
C37	C	1.510396	-0.115257	-0.503530
C38	C	1.446883	-0.569705	-1.064004
C39	C	1.446850	-0.569750	-0.943953
C40	C	1.510256	-0.506092	-0.231956
C41	C	1.510428	-0.505839	-0.115803
H42	H	0.943497	-0.451362	-0.449202
C43	C	1.725417	-0.827384	-0.162551
C44	C	1.784362	-0.890362	-0.229728
H45	H	1.770773	-0.790162	-0.117220
H46	H	1.685578	-0.779013	-0.202304
H47	H	1.679936	-0.870272	-0.122556
H48	H	1.829839	-0.847473	-0.269728
H49	H	1.824220	-0.938739	-0.189970
C50	C	1.717035	-1.272436	-0.297317
C51	C	1.644202	-1.235868	-0.370016
H52	H	1.717072	-1.346895	-0.297336
H53	H	1.784437	-1.247545	-0.315445
H54	H	1.698978	-1.247680	-0.229861
H55	H	1.662263	-1.260618	-0.437474
H56	H	1.576786	-1.260770	-0.351894
H57	H	1.389084	-1.105074	-0.624678
H58	H	1.115403	-0.624717	-0.621148
H59	H	1.078042	-0.451337	-0.449194
C60	C	1.269953	-0.620822	-1.097796
C61	C	1.373466	-0.643475	-1.124104
H62	H	1.224628	-0.666363	-1.134903
H63	H	1.260308	-0.630536	-1.025013
H64	H	1.254716	-0.550204	-1.115646
H65	H	1.388705	-0.714091	-1.106247
H66	H	1.383115	-0.633770	-1.196903
C67	C	1.670484	-0.738520	-0.469298
C68	C	1.643921	-0.775200	-0.369877
H69	H	1.670422	-0.664062	-0.469274
H70	H	1.737924	-0.763256	-0.487418
H71	H	1.621106	-0.763355	-0.518625
H72	H	1.693303	-0.750371	-0.320551
H73	H	1.576470	-0.750453	-0.351745
C74	C	1.843140	-1.049363	-0.171162
C75	C	1.784497	-1.120691	-0.229796
H76	H	1.888530	-1.086591	-0.125850
H77	H	1.883066	-1.006501	-0.216713
H78	H	1.797592	-1.006635	-0.131144
H79	H	1.830045	-1.163414	-0.269820
H80	H	1.744568	-1.163571	-0.184239
H81	H	0.906277	-0.624756	-0.621173
C82	C	1.311261	-0.961683	-0.702287
C83	C	1.369915	-0.890363	-0.643655
H84	H	1.265870	-0.924449	-0.747593
H85	H	1.356794	-1.004414	-0.742300
H86	H	1.271326	-1.004544	-0.656726
H87	H	1.409857	-0.847508	-0.689216
H88	H	1.324376	-0.847615	-0.603638
C89	C	1.432372	-0.710999	-0.821055
C90	C	1.373407	-0.643568	-0.883820
H91	H	1.387028	-0.756567	-0.783924
H92	H	1.477849	-0.751211	-0.863635
H93	H	1.472216	-0.670948	-0.773026
H94	H	1.333568	-0.683619	-0.931854
H95	H	1.327912	-0.603352	-0.841236
H96	H	1.564802	-0.451191	-1.071275
C97	C	1.524853	-0.364659	-1.015067
C98	C	1.583815	-0.432096	-0.952306
H99	H	1.570197	-0.319077	-1.052179
H100	H	1.485022	-0.404698	-1.063102
H101	H	1.479363	-0.324453	-0.972478
H102	H	1.629300	-0.472308	-0.994896
H103	H	1.623664	-0.392053	-0.904266
