data_functionalizedCrystal
_audit_creation_method	'MofGen! by Chris Wilmer'
_symmetry_space_group_name_H-M	'P1'
_symmetry_Int_Tables_number	1
_symmetry_cell_setting	triclinic
loop_
_symmetry_equiv_pos_as_xyz
  x,y,z
_cell_length_a	18.426585
_cell_length_b	14.560438
_cell_length_c	14.560438
_cell_angle_alpha	120.000314
_cell_angle_beta	89.998551
_cell_angle_gamma	59.998545
loop_
_atom_site_label
_atom_site_type_symbol
_atom_site_fract_x
_atom_site_fract_y
_atom_site_fract_z
Zr1	Zr	0.699058	1.005368	0.120569
O2	O	0.583166	1.196978	0.267219
O3	O	0.734591	0.813757	0.075610
O4	O	0.734574	1.005376	0.267220
O5	O	0.583189	1.005353	-0.075534
O6	O	0.854000	1.005382	0.267224
O7	O	0.583183	1.005360	0.075609
O8	O	0.854030	0.662612	-0.075532
O9	O	0.583159	1.348123	0.267222
O10	O	0.838864	0.892574	0.056442
O11	O	0.749742	0.892565	-0.056357
O12	O	0.749722	1.118171	0.169239
O13	O	0.660601	1.118161	0.056440
Zr14	Zr	0.889538	1.005368	-0.120480
Zr15	Zr	0.889528	1.005378	0.120575
Zr16	Zr	0.699067	1.005358	-0.120486
Zr17	Zr	0.699046	1.246427	0.120573
Zr18	Zr	0.889549	0.764308	-0.120485
O19	O	0.854004	1.196978	-0.075522
O20	O	0.853991	1.196992	0.267228
O21	O	0.583180	1.196964	-0.075530
O22	O	1.005429	0.813758	-0.267131
O23	O	1.005415	0.813772	0.075619
O24	O	0.734605	0.813743	-0.267139
O25	O	1.005406	1.005382	0.075622
O26	O	0.854021	1.005360	-0.267132
O27	O	0.734595	1.005353	-0.267136
O28	O	1.005412	1.005376	-0.075520
O29	O	0.734558	1.348131	0.267227
O30	O	0.854038	0.662604	-0.267138
O31	O	1.005436	0.662612	-0.267133
O32	O	1.005429	0.662620	-0.075527
O33	O	0.583166	1.348115	0.075615
O34	O	0.734565	1.348123	0.075620
O35	O	0.838873	0.892565	-0.169151
O36	O	0.927995	0.892574	-0.056352
O37	O	0.838853	1.118171	0.056446
O38	O	0.749731	1.118161	-0.056353
C39	C	0.794312	0.703839	0.000039
C40	C	0.794317	0.601503	0.000037
C41	C	0.860089	0.374011	-0.083219
C42	C	0.860111	0.470146	-0.083225
C43	C	0.728503	0.636724	0.083316
C44	C	0.728485	0.540590	0.083325
C45	C	0.556048	1.005355	0.000036
C46	C	0.475188	1.005351	0.000034
C47	C	0.179074	1.005390	0.000054
C48	C	0.261460	1.005384	0.000051
C49	C	0.327128	1.005370	0.000045
C50	C	0.409520	1.005364	0.000040
C51	C	1.032547	1.005380	0.000052
C52	C	1.113407	1.005385	0.000054
C53	C	0.794286	1.005380	0.301567
C54	C	0.794281	1.005385	0.403902
C55	C	0.794283	1.306897	0.000050
C56	C	0.794278	1.409233	0.000052
C57	C	0.747751	1.123143	0.510858
C58	C	0.747759	1.123139	0.607008
C59	C	0.840831	0.887609	0.489232
C60	C	0.840827	0.887614	0.393084
C61	C	0.794305	1.005361	0.698524
C62	C	0.794294	1.005376	0.596199
C63	C	1.032562	0.703852	0.000046
C64	C	1.113426	0.601520	0.000047
C65	C	0.794324	0.703826	-0.301485
C66	C	0.794333	0.601486	-0.403821
C67	C	1.032574	0.703839	-0.301477
C68	C	1.113442	0.601503	-0.403810
C69	C	0.556022	1.306896	0.301565
C70	C	0.475153	1.409232	0.403899
C71	C	0.556034	1.306884	0.000042
C72	C	0.475169	1.409216	0.000041
C73	C	0.794271	1.306909	0.301573
C74	C	0.794262	1.409250	0.403909
C75	C	1.104876	0.553464	0.058934
C76	C	1.180850	0.457325	0.058957
C77	C	1.265373	0.409238	0.000086
C78	C	1.273921	0.457304	-0.058803
C79	C	1.197949	0.553447	-0.058819
C80	C	1.197948	0.553450	-0.392987
C81	C	1.273940	0.457308	-0.489131
C82	C	1.265425	0.409214	-0.596097
C83	C	1.180910	0.457276	-0.606918
C84	C	1.104920	0.553423	-0.510775
C85	C	0.390647	1.457297	0.393076
C86	C	0.314655	1.553469	0.489220
C87	C	0.323171	1.601568	0.596186
C88	C	0.407685	1.553500	0.607007
C89	C	0.483675	1.457336	0.510864
C90	C	0.483719	1.457282	-0.058836
C91	C	0.407746	1.553447	-0.058833
C92	C	0.323222	1.601537	0.000042
C93	C	0.314674	1.553467	0.058927
C94	C	0.390647	1.457310	0.058929
C95	C	0.840862	0.553404	-0.510775
C96	C	0.840860	0.457253	-0.606927
C97	C	0.747800	0.457271	-0.489156
C98	C	0.747797	0.553426	-0.393007
H99	H	0.709850	1.219039	0.519672
N100	N	0.574823	1.405479	0.522535
H101	H	0.581939	1.478839	0.565013
H102	H	0.581864	1.365585	0.564987
N103	N	0.697616	0.605281	-0.277639
H104	H	0.704675	0.673490	-0.218372
H105	H	0.632551	0.645106	-0.268728
N106	N	0.891056	0.405383	-0.722284
H107	H	0.883997	0.337178	-0.781557
H108	H	0.866633	0.478814	-0.731193
H109	H	0.709870	1.219029	0.694093
N110	N	1.347306	0.305533	0.000107
H111	H	1.383883	0.225734	-0.079632
H112	H	1.383807	0.339102	0.033673
N113	N	1.207177	0.605270	-0.122341
H114	H	1.272252	0.560209	-0.159632
H115	H	1.177694	0.588518	-0.181545
H116	H	0.878725	0.791724	0.480438
H117	H	0.913701	0.441456	-0.151032
N118	N	0.381414	1.405455	0.122417
H119	H	0.442362	1.337238	0.113490
H120	H	0.347807	1.478892	0.204757
H121	H	0.552535	1.418134	-0.106786
N122	N	0.223507	1.605326	0.122408
H123	H	0.216396	1.531959	0.091508
H124	H	0.216422	1.645245	0.204767
H125	H	0.674893	0.569281	0.151141
N126	N	0.931049	0.232335	-0.173028
H127	H	0.972744	0.224615	-0.225779
H128	H	0.965545	0.188818	-0.136607
N129	N	0.891052	0.605241	-0.522434
H130	H	0.920527	0.560189	-0.604782
H131	H	0.848334	0.701765	-0.485105
N132	N	1.365087	0.405478	-0.477446
H133	H	1.358943	0.450530	-0.395093
H134	H	1.398647	0.308953	-0.514779
N135	N	0.891023	0.760597	0.277713
H136	H	0.920505	0.685989	0.285449
H137	H	0.848306	0.755464	0.235253
N138	N	1.013718	0.605314	0.122433
H139	H	1.019843	0.560275	0.159740
H140	H	0.980162	0.701840	0.181623
H141	H	0.674936	0.743684	0.151113
N142	N	0.416977	1.605280	-0.122348
H143	H	0.482052	1.560208	-0.159651
H144	H	0.387483	1.588550	-0.181541
N145	N	1.347389	0.305512	-0.699790
H146	H	1.402213	0.282373	-0.676692
H147	H	1.347358	0.225783	-0.746030
N148	N	1.171618	0.405497	0.122477
H149	H	1.106543	0.450545	0.159757
H150	H	1.201122	0.308970	0.068422
H151	H	1.342750	0.418138	-0.106734
N152	N	1.207145	0.605300	-0.277625
H153	H	1.272215	0.560259	-0.285374
H154	H	1.177639	0.701826	-0.235157
N155	N	0.381439	1.405449	0.277719
H156	H	0.410894	1.422175	0.235201
H157	H	0.410871	1.308944	0.235287
N158	N	0.241284	1.705249	0.000034
H159	H	0.259534	1.728391	-0.046204
H160	H	0.204752	1.671711	-0.033454
N161	N	0.697615	0.405427	-0.477495
H162	H	0.704680	0.337212	-0.554634
H163	H	0.722047	0.365612	-0.434973
H164	H	1.036115	0.592536	-0.519603
N165	N	1.171733	0.405397	-0.722291
H166	H	1.232700	0.337193	-0.781546
H167	H	1.138148	0.365557	-0.731207
H168	H	0.245848	1.592591	0.480387
N169	N	0.241206	1.705287	0.699878
H170	H	0.186383	1.728427	0.676780
H171	H	0.241242	1.671756	0.746117
N172	N	0.416863	1.605383	0.722380
H173	H	0.355896	1.673589	0.781634
H174	H	0.450451	1.531956	0.731296
