data_functionalizedCrystal
_audit_creation_method	'MofGen! by Chris Wilmer'
_symmetry_space_group_name_H-M	'P1'
_symmetry_Int_Tables_number	1
_symmetry_cell_setting	triclinic
loop_
_symmetry_equiv_pos_as_xyz
  x,y,z
_cell_length_a	19.188930
_cell_length_b	19.188930
_cell_length_c	18.266242
_cell_angle_alpha	90.011475
_cell_angle_beta	89.977082
_cell_angle_gamma	96.855221
loop_
_atom_site_label
_atom_site_type_symbol
_atom_site_fract_x
_atom_site_fract_y
_atom_site_fract_z
O1	O	0.926149	-0.087169	-0.061124
O2	O	1.426149	0.412831	0.438876
O3	O	0.722838	-0.098903	-0.061075
O4	O	1.222838	0.401097	0.438925
O5	O	0.830361	0.008620	-0.061087
O6	O	1.330361	0.508620	0.438913
O7	O	0.818627	-0.194691	-0.061113
O8	O	1.318627	0.305309	0.438887
O9	O	0.830343	0.008625	0.060675
O10	O	1.330343	0.508625	0.560675
O11	O	0.722820	-0.098897	0.060687
O12	O	1.222820	0.401103	0.560687
O13	O	0.926131	-0.087163	0.060638
O14	O	1.426131	0.412837	0.560638
Zn15	Zn	0.824473	-0.093029	0.079994
Zn16	Zn	1.324473	0.406971	0.579994
Zn17	Zn	0.824497	-0.093037	-0.080432
Zn18	Zn	1.324497	0.406963	0.419568
O19	O	0.818608	-0.194686	0.060649
O20	O	1.318608	0.305314	0.560649
C21	C	0.696818	-0.098520	-0.000188
C22	C	1.196818	0.401480	0.499812
C23	C	0.619313	-0.097380	-0.000169
C24	C	1.119313	0.402620	0.499831
C25	C	0.574389	-0.160470	-0.000188
C26	C	1.074389	0.339530	0.499812
C27	C	0.501566	-0.159399	-0.000196
C28	C	1.001566	0.340601	0.499804
C29	C	0.473669	-0.095233	-0.000199
C30	C	0.973669	0.404767	0.499801
C31	C	0.518603	-0.032133	-0.000175
C32	C	1.018603	0.467867	0.499825
C33	C	0.591425	-0.033207	-0.000160
C34	C	1.091425	0.466793	0.499840
N35	N	0.365695	-0.046188	-0.041663
N36	N	0.865695	0.453812	0.458337
N37	N	0.296516	-0.045172	-0.041679
N38	N	0.796516	0.454828	0.458321
C39	C	0.254260	-0.091994	-0.000243
C40	C	0.754260	0.408006	0.499757
N41	N	0.283795	-0.139881	0.041200
N42	N	0.783795	0.360119	0.541200
N43	N	0.352980	-0.140899	0.041213
N44	N	0.852980	0.359101	0.541213
C45	C	0.394707	-0.094062	-0.000215
C46	C	0.894707	0.405938	0.499785
C47	C	0.130372	-0.153928	-0.000270
C48	C	0.630372	0.346072	0.499730
C49	C	0.057547	-0.152853	-0.000274
C50	C	0.557547	0.347147	0.499726
C51	C	0.074586	-0.025586	-0.000261
C52	C	0.574586	0.474414	0.499739
C53	C	0.147409	-0.026662	-0.000250
C54	C	0.647409	0.473338	0.499750
C55	C	0.175298	-0.090835	-0.000258
C56	C	0.675298	0.409165	0.499742
C57	C	0.829972	0.034634	-0.000204
C58	C	1.329972	0.534634	0.499796
C59	C	0.828831	0.112138	-0.000197
C60	C	1.328831	0.612138	0.499803
C61	C	0.952151	-0.087546	-0.000252
C62	C	1.452151	0.412454	0.499748
C63	C	1.029656	-0.088687	-0.000276
C64	C	1.529656	0.411313	0.499724
C65	C	0.818997	-0.220700	-0.000236
C66	C	1.318997	0.279300	0.499764
C67	C	0.820138	-0.298204	-0.000247
C68	C	1.320138	0.201796	0.499753
N69	N	0.824461	-0.093024	0.189481
N70	N	1.324461	0.406976	0.689481
C71	C	0.891922	0.157062	-0.000209
C72	C	1.391922	0.657062	0.499791
C73	C	0.890850	0.229886	-0.000220
C74	C	1.390850	0.729886	0.499780
C75	C	0.826684	0.257782	-0.000206
C76	C	1.326684	0.757782	0.499794
C77	C	0.763585	0.212849	-0.000198
C78	C	1.263585	0.712849	0.499802
C79	C	0.764658	0.140026	-0.000194
C80	C	1.264658	0.640026	0.499806
N81	N	0.777631	0.365789	0.041244
N82	N	1.277631	0.865789	0.541244
N83	N	0.776615	0.434968	0.041242
N84	N	1.276615	0.934968	0.541242
C85	C	0.823446	0.477191	-0.000220
C86	C	1.323446	0.977191	0.499780
N87	N	0.871341	0.447624	-0.041669
N88	N	1.371341	0.947624	0.458331
N89	N	0.872359	0.378439	-0.041664
N90	N	1.372359	0.878439	0.458336
C91	C	0.825513	0.336745	-0.000210
C92	C	1.325513	0.836745	0.499790
C93	C	0.885379	0.601079	-0.000245
C94	C	1.385379	1.101079	0.499755
C95	C	0.884305	0.673904	-0.000261
C96	C	1.384305	1.173904	0.499739
C97	C	0.757038	0.656865	-0.000231
C98	C	1.257038	1.156865	0.499769
C99	C	0.758114	0.584042	-0.000222
C100	C	1.258114	1.084042	0.499778
C101	C	0.822287	0.556154	-0.000226
C102	C	1.322287	1.056154	0.499774
N103	N	0.824513	-0.093037	-0.189919
N104	N	1.324513	0.406963	0.310081
C105	C	0.872088	-0.045436	0.227785
C106	C	1.372088	0.454564	0.727785
C107	C	0.872092	-0.045433	0.304430
C108	C	1.372092	0.454567	0.804430
C109	C	0.824477	-0.093030	0.342768
C110	C	1.324477	0.406970	0.842768
C111	C	0.776841	-0.140621	0.304455
C112	C	1.276841	0.359379	0.804455
C113	C	0.776834	-0.140618	0.227812
C114	C	1.276834	0.359382	0.727812
N115	N	0.815401	-0.154837	0.463094
N116	N	1.315401	0.345163	0.963094
N117	N	0.815413	-0.154838	0.535902
N118	N	1.315413	0.345162	1.035902
C119	C	0.824496	-0.093040	0.573691
C120	C	1.324496	0.406960	1.073691
N121	N	0.833582	-0.031239	0.535920
N122	N	1.333582	0.468761	1.035920
N123	N	0.833574	-0.031240	0.463106
N124	N	1.333574	0.468760	0.963106
C125	C	0.824480	-0.093038	0.425875
C126	C	1.324480	0.406962	0.925875
C127	C	0.872131	-0.045444	0.695101
C128	C	1.372131	0.454556	1.195101
C129	C	0.872130	-0.045440	0.771748
C130	C	1.372130	0.454560	1.271748
C131	C	0.776882	-0.140634	0.771772
C132	C	1.276882	0.359366	1.271772
C133	C	0.776879	-0.140632	0.695127
C134	C	1.276879	0.359368	1.195127
C135	C	0.824507	-0.093038	0.656796
C136	C	1.324507	0.406962	1.156796
H137	H	0.020970	-0.204232	-0.000285
H138	H	0.520970	0.295768	0.499715
H139	H	0.597091	-0.212725	-0.000196
H140	H	1.097091	0.287275	0.499804
O141	O	0.047529	0.036763	-0.000134
O142	O	0.547529	0.536763	0.499866
C143	C	0.070485	0.075222	0.062926
C144	C	0.570485	0.575222	0.562926
H145	H	0.085497	0.037698	0.107002
H146	H	0.585497	0.537698	0.607002
H147	H	0.026446	0.104791	0.084088
H148	H	0.526446	0.604791	0.584088
H149	H	0.118073	0.114275	0.048680
H150	H	0.618073	0.614275	0.548680
O151	O	0.458016	-0.220752	-0.000254
O152	O	0.958016	0.279248	0.499746
C153	C	0.498247	-0.277621	-0.000239
C154	C	0.998247	0.222379	0.499761
H155	H	0.552670	-0.259733	-0.023270
H156	H	1.052670	0.240267	0.476730
H157	H	0.471269	-0.321809	-0.035608
H158	H	0.971269	0.178191	0.464392
H159	H	0.503332	-0.297308	0.058173
H160	H	1.003332	0.202692	0.558173
H161	H	0.495885	0.020111	-0.000188
H162	H	0.995885	0.520111	0.499812
H163	H	0.910877	-0.006680	0.335623
H164	H	1.410877	0.493320	0.835623
H165	H	0.628003	0.018171	-0.000145
H166	H	1.128003	0.518171	0.499855
O167	O	0.694645	0.683839	-0.000249
O168	O	1.194645	1.183839	0.499751
C169	C	0.639187	0.628567	-0.000213
C170	C	1.139187	1.128567	0.499787
H171	H	0.658610	0.579148	-0.023265
H172	H	1.158610	1.079148	0.476735
H173	H	0.594379	0.643640	-0.035555
H174	H	1.094379	1.143640	0.464445
H175	H	0.619727	0.618218	0.058207
H176	H	1.119727	1.118218	0.558207
O177	O	0.696873	0.540327	-0.000106
O178	O	1.196873	1.040327	0.499894
C179	C	0.693669	0.497721	0.062968
C180	C	1.193669	0.997721	0.562968
H181	H	0.749074	0.494213	0.083981
H182	H	1.249074	0.994213	0.583981
H183	H	0.667498	0.442903	0.048794
H184	H	1.167498	0.942903	0.548794
H185	H	0.661846	0.521591	0.107132
H186	H	1.161846	1.021591	0.607132
H187	H	0.738100	-0.179386	0.663938
H188	H	1.238100	0.320614	1.163938
O189	O	0.918373	0.000868	0.190666
O190	O	1.418373	0.500868	0.690666
C191	C	0.960423	0.042860	0.240915
C192	C	1.460423	0.542860	0.740915
H193	H	0.931807	0.043573	0.295566
H194	H	1.431807	0.543573	0.795566
H195	H	0.971245	0.098648	0.218783
H196	H	1.471245	0.598648	0.718783
H197	H	1.012217	0.020315	0.249031
H198	H	1.512217	0.520315	0.749031
O199	O	0.730560	-0.186761	0.341775
O200	O	1.230560	0.313239	0.841775
C201	C	0.687601	-0.149475	0.386130
C202	C	1.187601	0.350525	0.886130
H203	H	0.715580	-0.094772	0.397611
H204	H	1.215580	0.405228	0.897611
H205	H	0.676472	-0.178647	0.440025
H206	H	1.176472	0.321353	0.940025
H207	H	0.636012	-0.144856	0.356623
H208	H	1.136012	0.355144	0.856623
O209	O	0.157352	-0.216323	-0.000238
O210	O	0.657352	0.283677	0.499762
C211	C	0.102081	-0.271781	-0.000268
C212	C	0.602081	0.228219	0.499732
H213	H	0.052656	-0.252360	0.022778
H214	H	0.552656	0.247640	0.522778
H215	H	0.117146	-0.316592	0.035082
H216	H	0.617146	0.183408	0.535082
H217	H	0.091746	-0.291236	-0.058686
H218	H	0.591746	0.208764	0.441314
H219	H	0.183988	0.024713	-0.000238
H220	H	0.683988	0.524713	0.499762
H221	H	0.942228	0.266470	-0.000233
H222	H	1.442228	0.766470	0.499767
H223	H	0.738049	-0.179371	0.196624
H224	H	1.238049	0.320629	0.696624
H225	H	0.910910	-0.006688	0.663892
H226	H	1.410910	0.493312	1.163892
O227	O	0.954318	0.130089	-0.000250
O228	O	1.454318	0.630089	0.499750
C229	C	1.009774	0.185362	-0.000243
C230	C	1.509774	0.685362	0.499757
H231	H	0.990358	0.234769	-0.023295
H232	H	1.490358	0.734769	0.476705
H233	H	1.054596	0.170273	-0.035600
H234	H	1.554596	0.670273	0.464400
H235	H	1.029213	0.195739	0.058169
H236	H	1.529213	0.695739	0.558169
O237	O	0.918466	0.000815	0.808845
O238	O	1.418466	0.500815	1.308845
C239	C	0.960488	0.042830	0.758574
C240	C	1.460488	0.542830	1.258574
H241	H	0.961179	0.014206	0.703933
H242	H	1.461179	0.514206	1.203933
H243	H	1.016279	0.053611	0.780693
H244	H	1.516279	0.553611	1.280693
H245	H	0.937987	0.094646	0.750447
H246	H	1.437987	0.594646	1.250447
H247	H	0.935683	0.710481	-0.000274
H248	H	1.435683	1.210481	0.499726
H249	H	0.738110	-0.179386	0.802986
H250	H	1.238110	0.320614	1.302986
H251	H	0.711340	0.235567	-0.000187
H252	H	1.211340	0.735567	0.499813
H253	H	0.937632	0.578372	-0.000251
H254	H	1.437632	1.078372	0.499749
O255	O	0.703305	0.096483	-0.000146
O256	O	1.203305	0.596483	0.499854
C257	C	0.646437	0.136716	-0.000158
C258	C	1.146437	0.636716	0.499842
H259	H	0.664321	0.191131	0.022884
H260	H	1.164321	0.691131	0.522884
H261	H	0.602239	0.109727	0.035204
H262	H	1.102239	0.609727	0.535204
H263	H	0.626768	0.141825	-0.058570
H264	H	1.126768	0.641825	0.441430
