data_functionalizedCrystal
_audit_creation_method	'MofGen! by Chris Wilmer'
_symmetry_space_group_name_H-M	'P1'
_symmetry_Int_Tables_number	1
_symmetry_cell_setting	triclinic
loop_
_symmetry_equiv_pos_as_xyz
  x,y,z
_cell_length_a	14.971486
_cell_length_b	9.730223
_cell_length_c	14.971486
_cell_angle_alpha	90.001545
_cell_angle_beta	83.614129
_cell_angle_gamma	89.995250
loop_
_atom_site_label
_atom_site_type_symbol
_atom_site_fract_x
_atom_site_fract_y
_atom_site_fract_z
O1	O	1.186940	0.114132	0.116559
O2	O	0.926539	0.114170	0.130518
O3	O	1.063719	0.114140	-0.006662
O4	O	1.049760	0.114162	0.253738
O5	O	1.063717	-0.114439	-0.006658
O6	O	0.926538	-0.114410	0.130521
O7	O	1.186938	-0.114447	0.116562
Zn8	Zn	1.056738	-0.150721	0.123542
Zn9	Zn	1.056740	0.150443	0.123538
O10	O	1.049758	-0.114418	0.253742
C11	C	0.893214	-0.000115	0.129895
C12	C	0.793917	-0.000101	0.128024
N13	N	1.056743	-0.356257	0.123545
C14	C	0.736692	-0.000096	0.208614
C15	C	0.643392	-0.000117	0.206850
C16	C	0.607320	-0.000133	0.124497
C17	C	0.664552	-0.000141	0.043902
C18	C	0.757850	-0.000131	0.045666
C19	C	0.470090	-0.000161	0.040231
C20	C	0.376786	-0.000169	0.038466
C21	C	0.355632	-0.000147	0.201415
C22	C	0.448930	-0.000136	0.203179
C23	C	0.506156	-0.000143	0.122584
C24	C	1.117501	-0.428196	0.062822
C25	C	1.117499	-0.572079	0.062811
C26	C	0.995977	-0.572071	0.184254
C27	C	0.995975	-0.428191	0.184259
C28	C	1.178269	-0.356262	0.002108
C29	C	1.239033	-0.428202	-0.058619
C30	C	1.239030	-0.572085	-0.058630
C31	C	1.178264	-0.644028	0.002086
C32	C	1.220263	-0.000159	0.117185
C33	C	1.319561	-0.000164	0.119056
C34	C	1.063094	-0.000149	-0.039985
C35	C	1.061223	-0.000148	-0.139282
N36	N	1.056742	0.355980	0.123528
C37	C	1.141812	-0.000160	-0.196507
C38	C	1.140049	-0.000146	-0.289807
C39	C	1.057696	-0.000129	-0.325879
C40	C	0.977101	-0.000112	-0.268646
C41	C	0.978865	-0.000117	-0.175349
C42	C	0.973430	-0.000107	-0.463109
C43	C	0.971665	-0.000105	-0.556413
C44	C	1.134614	-0.000136	-0.577567
C45	C	1.136378	-0.000141	-0.484269
C46	C	1.055782	-0.000126	-0.427043
C47	C	1.050384	-0.000125	0.287065
C48	C	1.052254	-0.000118	0.386362
H49	H	0.766054	-0.000083	0.275675
H50	H	0.946499	-0.369617	0.233705
H51	H	0.910047	-0.000090	-0.298024
F52	F	0.626159	-0.000167	-0.043745
F53	F	0.294727	-0.000143	0.287192
H54	H	0.904606	-0.000114	-0.585780
H55	H	1.200238	-0.000144	-0.624165
H56	H	0.946504	-0.630657	0.233687
F57	F	1.225824	-0.000162	-0.350707
F58	F	1.224028	-0.000155	-0.445880
H59	H	0.478296	-0.000111	0.270239
F60	F	0.818754	-0.000141	-0.040108
F61	F	0.893090	-0.000099	-0.114445
H62	H	0.907800	-0.000092	-0.416517
F63	F	0.338397	-0.000221	-0.049183
H64	H	0.516682	-0.000168	-0.025399
H65	H	1.178278	-0.239106	0.002113
F66	F	0.582492	-0.000106	0.292625
F67	F	1.303694	-0.351634	-0.123241
H68	H	1.288501	-0.630656	-0.108082
F69	F	1.178259	-0.797163	0.002062
F70	F	1.229465	-0.000191	-0.158125
