data_functionalizedCrystal
_audit_creation_method	'MofGen! by Chris Wilmer'
_symmetry_space_group_name_H-M	'P1'
_symmetry_Int_Tables_number	1
_symmetry_cell_setting	triclinic
loop_
_symmetry_equiv_pos_as_xyz
  x,y,z
_cell_length_a	15.698487
_cell_length_b	19.902436
_cell_length_c	15.698487
_cell_angle_alpha	59.994742
_cell_angle_beta	90.002598
_cell_angle_gamma	60.002659
loop_
_atom_site_label
_atom_site_type_symbol
_atom_site_fract_x
_atom_site_fract_y
_atom_site_fract_z
Zr1	Zr	0.820646	0.735472	-0.111849
O2	O	0.684627	0.875657	-0.247890
O3	O	0.862340	0.595290	-0.070134
O4	O	0.862338	0.735474	-0.247866
O5	O	0.684634	0.735471	0.070027
O6	O	1.002523	0.735471	-0.247861
O7	O	0.684629	0.735474	-0.070158
O8	O	1.002527	0.484708	0.070069
O9	O	0.684630	0.986234	-0.247903
O10	O	0.984744	0.652946	-0.052353
O11	O	0.880129	0.652946	0.052261
O12	O	0.880127	0.817994	-0.156995
O13	O	0.775512	0.817994	-0.052381
Zr14	Zr	1.044231	0.735463	0.111737
Zr15	Zr	1.044224	0.735468	-0.111841
Zr16	Zr	0.820653	0.735468	0.111729
Zr17	Zr	0.820651	0.911829	-0.111871
Zr18	Zr	1.044227	0.559107	0.111759
O19	O	1.002537	0.875645	0.070021
O20	O	1.002527	0.875651	-0.247878
O21	O	0.684638	0.875651	0.070010
O22	O	1.180250	0.595278	0.247777
O23	O	1.180240	0.595284	-0.070122
O24	O	0.862351	0.595284	0.247765
O25	O	1.180243	0.735464	-0.070139
O26	O	1.002539	0.735462	0.247753
O27	O	0.862355	0.735464	0.247748
O28	O	1.180248	0.735462	0.070045
O29	O	0.862345	0.986230	-0.247897
O30	O	1.002532	0.484705	0.247784
O31	O	1.180247	0.484702	0.247791
O32	O	1.180241	0.484705	0.070076
O33	O	0.684636	0.986230	-0.070188
O34	O	0.862351	0.986227	-0.070182
O35	O	0.984751	0.652942	0.156883
O36	O	1.089365	0.652942	0.052269
O37	O	0.984748	0.817990	-0.052374
O38	O	0.880134	0.817990	0.052241
C39	C	0.932433	0.514872	-0.000029
C40	C	0.932431	0.440004	-0.000020
C41	C	0.652777	0.735473	-0.000066
C42	C	0.557862	0.735475	-0.000070
C43	C	0.932441	0.167994	-0.000069
C44	C	0.866768	0.196233	0.066243
C45	C	0.866412	0.274351	0.065970
C46	C	0.932436	0.302941	-0.000044
C47	C	0.884302	0.338508	-0.113734
C48	C	0.883808	0.260670	-0.113385
C49	C	1.046282	0.133476	0.046398
C50	C	1.046115	0.210528	0.048712
C51	C	0.932434	0.379210	-0.000036
C52	C	0.932440	0.091730	-0.000084
C53	C	0.480780	0.735477	-0.000068
C54	C	0.384083	0.735472	-0.000057
C55	C	1.212101	0.735462	-0.000046
C56	C	1.307016	0.735461	-0.000043
C57	C	0.932429	0.735473	-0.279718
C58	C	0.932426	0.735475	-0.374633
C59	C	0.932445	0.956063	-0.000083
C60	C	0.932447	1.030931	-0.000093
C61	C	0.932450	0.735458	-0.548397
C62	C	0.932440	0.735463	-0.451700
C63	C	0.932448	0.735462	0.279606
C64	C	0.932451	0.735461	0.374521
C65	C	1.212095	0.514867	-0.000019
C66	C	1.307008	0.439997	-0.000006
C67	C	0.932442	0.514867	0.279633
C68	C	0.932443	0.439997	0.374557
C69	C	1.212104	0.514862	0.279643
C70	C	1.307020	0.439990	0.374571
C71	C	0.652773	0.956074	-0.279756
C72	C	0.557857	1.030945	-0.374683
C73	C	0.652782	0.956068	-0.000094
C74	C	0.557870	1.030938	-0.000106
C75	C	0.932435	0.956068	-0.279745
C76	C	0.932434	1.030938	-0.374669
C77	C	1.296968	0.404839	-0.054621
C78	C	1.386140	0.334501	-0.054630
C79	C	1.485351	0.299317	-0.000018
C80	C	1.495388	0.334481	0.054599
C81	C	1.406217	0.404823	0.054601
C82	C	0.987055	0.404835	0.473755
C83	C	0.987052	0.334497	0.562955
C84	C	0.932443	0.299317	0.552954
C85	C	0.877824	0.334486	0.453745
C86	C	0.877822	0.404827	0.364548
C87	C	1.406211	0.404829	0.364542
C88	C	1.495403	0.334489	0.453728
C89	C	1.485402	0.299306	0.552941
C90	C	1.386201	0.334474	0.562968
C91	C	1.297011	0.404817	0.473783
C92	C	0.458667	1.066114	-0.364654
C93	C	0.369475	1.136476	-0.453840
C94	C	0.379475	1.171663	-0.553054
C95	C	0.478677	1.136491	-0.563080
C96	C	0.567866	1.066135	-0.473896
C97	C	0.567909	1.066103	0.054499
C98	C	0.478737	1.136461	0.054484
C99	C	0.379527	1.171648	-0.000132
C100	C	0.369489	1.136480	-0.054744
C101	C	0.458660	1.066128	-0.054734
C102	C	0.987054	1.066096	-0.364635
C103	C	0.987074	1.136435	-0.453818
C104	C	0.932466	1.171619	-0.553034
C105	C	0.877845	1.136455	-0.563066
C106	C	0.877832	1.066112	-0.473884
H107	H	0.898699	0.247703	0.149687
C108	C	0.447604	1.027442	-0.114789
H109	H	0.375745	1.058471	-0.147304
H110	H	0.480117	1.038961	-0.166473
H111	H	0.480112	0.961025	-0.067631
H112	H	0.800037	0.290215	-0.150583
C113	C	1.047114	0.443533	0.484777
H114	H	1.079621	0.412520	0.556636
H115	H	1.098798	0.432007	0.452269
H116	H	0.999960	0.509952	0.452243
H117	H	1.558034	0.242028	0.625553
H118	H	0.833354	0.433447	0.283779
C119	C	1.375208	0.295769	0.672103
H120	H	1.303360	0.326784	0.665314
H121	H	1.407739	0.229352	0.709168
H122	H	1.407732	0.307307	0.709153
H123	H	0.833385	1.165113	-0.643859
H124	H	1.031533	0.305871	0.643726
H125	H	0.833349	1.037495	-0.482069
C126	C	1.094704	0.171687	0.161859
H127	H	1.163464	0.115784	0.190928
H128	H	1.097059	0.218211	0.162498
H129	H	1.053568	0.157089	0.201964
C130	C	0.281361	1.249040	-0.651148
H131	H	0.220857	1.264932	-0.630956
H132	H	0.281336	1.303935	-0.691512
H133	H	0.281349	1.225973	-0.691482
H134	H	0.648683	1.037459	0.098981
C135	C	1.375086	0.295822	-0.114699
H136	H	1.442397	0.248896	-0.106895
H137	H	1.338036	0.268377	-0.087717
H138	H	1.338018	0.346335	-0.186555
C139	C	0.260367	1.175144	-0.442792
H140	H	0.267193	1.144096	-0.370930
H141	H	0.223301	1.241557	-0.475303
H142	H	0.223303	1.163615	-0.475315
C143	C	0.676973	1.027420	-0.484934
H144	H	0.728667	0.980474	-0.417616
H145	H	0.684746	0.999992	-0.521993
H146	H	0.684821	1.077909	-0.521997
C147	C	0.945807	0.366742	-0.183377
H148	H	1.001517	0.357071	-0.143642
H149	H	0.973135	0.328756	-0.209209
H150	H	0.900709	0.431830	-0.240240
H151	H	0.486930	1.165083	0.098960
C152	C	0.489664	1.175195	-0.672218
H153	H	0.422334	1.222124	-0.723888
H154	H	0.526719	1.202640	-0.680063
H155	H	0.526702	1.124692	-0.680039
H156	H	0.783291	0.222194	0.034298
H157	H	1.031522	1.037460	-0.283857
H158	H	0.450504	1.037469	-0.283878
H159	H	1.216194	0.433486	-0.099106
H160	H	0.288700	1.165140	-0.099211
H161	H	1.576177	0.305824	0.099062
H162	H	1.216249	0.433436	0.481963
C163	C	0.944239	0.239131	-0.183764
H164	H	0.968974	0.277952	-0.212449
H165	H	1.001709	0.174123	-0.143662
H166	H	0.899296	0.252054	-0.238621
H167	H	0.932485	1.228897	-0.625642
C168	C	1.100595	0.041580	0.157779
H169	H	1.169177	0.021966	0.184376
H170	H	1.062036	0.052959	0.201307
H171	H	1.104086	-0.006886	0.156363
C172	C	0.910139	0.109089	0.179621
H173	H	0.968683	0.054700	0.187535
H174	H	0.930818	0.120069	0.225584
H175	H	0.857671	0.098722	0.195686
C176	C	1.417232	0.443521	0.255419
H177	H	1.489086	0.412506	0.262234
H178	H	1.384719	0.431991	0.218355
H179	H	1.384710	0.509941	0.218353
H180	H	1.557951	0.242039	-0.000027
H181	H	0.932453	0.242040	0.625593
C182	C	1.047146	1.175114	-0.442764
H183	H	1.079646	1.144094	-0.370900
H184	H	1.098836	1.163582	-0.475263
H185	H	1.000002	1.241534	-0.475294
C186	C	0.281445	1.249029	-0.000134
H187	H	0.220915	1.264958	-0.040485
H188	H	0.281453	1.225966	0.069449
H189	H	0.281451	1.303914	-0.029384
C190	C	0.752978	0.361445	0.022424
H191	H	0.706935	0.349170	0.004822
H192	H	0.737794	0.373714	0.073685
H193	H	0.744218	0.415188	-0.038124
H194	H	0.801333	0.405514	-0.151189
C195	C	1.604510	0.295809	0.442680
H196	H	1.597684	0.326828	0.370817
H197	H	1.641581	0.307341	0.475183
H198	H	1.641569	0.229389	0.475210
H199	H	0.833363	0.305831	0.445618
H200	H	1.099170	0.226134	0.005436
H201	H	1.414406	0.433440	0.099081
H202	H	1.095443	0.114620	-0.001671
