data_functionalizedCrystal
_audit_creation_method	'MofGen! by Chris Wilmer'
_symmetry_space_group_name_H-M	'P1'
_symmetry_Int_Tables_number	1
_symmetry_cell_setting	triclinic
loop_
_symmetry_equiv_pos_as_xyz
  x,y,z
_cell_length_a	19.121241
_cell_length_b	19.121063
_cell_length_c	19.120904
_cell_angle_alpha	94.741613
_cell_angle_beta	90.124528
_cell_angle_gamma	84.996879
loop_
_atom_site_label
_atom_site_type_symbol
_atom_site_fract_x
_atom_site_fract_y
_atom_site_fract_z
Zn1	Zn	1.043557	0.254510	0.452551
Zn2	Zn	1.043470	0.367161	0.339898
Zn3	Zn	0.931342	0.254092	0.330304
Zn4	Zn	0.920835	0.377147	0.452491
O5	O	0.984801	0.313228	0.393811
O6	O	1.141831	0.265449	0.441648
O7	O	1.032957	0.347808	0.240344
O8	O	0.950661	0.155504	0.342530
O9	O	1.141767	0.348213	0.358882
O10	O	1.033105	0.155811	0.432344
O11	O	0.950577	0.264736	0.233295
O12	O	0.831663	0.274420	0.342472
O13	O	0.932754	0.365234	0.550781
O14	O	0.823943	0.364828	0.432242
O15	O	1.022917	0.275133	0.550825
O16	O	1.022769	0.467129	0.358824
O17	O	0.932669	0.474466	0.441546
C18	C	0.802319	0.320663	0.386310
C19	C	0.724250	0.323861	0.383118
C20	C	0.687602	0.282348	0.424782
C21	C	0.614249	0.285349	0.421777
C22	C	0.577546	0.329869	0.377111
C23	C	0.614200	0.371384	0.335443
C24	C	0.687552	0.368378	0.338445
C25	C	0.356069	0.341093	0.365885
C26	C	0.282712	0.344097	0.362887
C27	C	0.282766	0.258061	0.449221
C28	C	0.356119	0.255063	0.452222
C29	C	0.392767	0.296575	0.410551
C30	C	0.502567	0.332939	0.374040
C31	C	0.467744	0.293500	0.413619
C32	C	0.976588	0.496375	0.401236
C33	C	0.973137	0.574724	0.404438
C34	C	0.976673	0.321344	0.576998
C35	C	0.973209	0.324803	0.655062
C36	C	1.167996	0.305764	0.401342
C37	C	1.246063	0.302584	0.404551
C38	C	0.993065	0.129365	0.386373
C39	C	0.996587	0.051014	0.383204
C40	C	1.018459	0.607690	0.362913
C41	C	1.015218	0.681308	0.365929
C42	C	0.966651	0.721959	0.410467
C43	C	0.921327	0.688989	0.451998
C44	C	0.924572	0.615372	0.448985
C45	C	0.954507	0.944426	0.421721
C46	C	0.951264	1.018048	0.424729
C47	C	1.045157	1.010363	0.338661
C48	C	1.048395	0.936745	0.335649
C49	C	1.003073	0.903781	0.377182
C50	C	0.963335	0.797209	0.413550
C51	C	1.006393	0.828532	0.374103
C52	C	0.992940	0.305090	0.211336
C53	C	0.996549	0.301428	0.133270
C54	C	1.018523	0.279519	0.691760
C55	C	1.015260	0.282766	0.765109
C56	C	0.966686	0.331301	0.801758
C57	C	0.921368	0.376587	0.765054
C58	C	0.924628	0.373336	0.691707
C59	C	0.954491	0.343462	1.023219
C60	C	0.951236	0.346711	1.096572
C61	C	1.045127	0.252889	1.096621
C62	C	1.048386	0.249645	1.023272
C63	C	1.003065	0.294928	0.986575
C64	C	0.963351	0.334623	0.876732
C65	C	1.006397	0.291602	0.911602
H66	H	0.717390	0.402182	0.304517
H67	H	0.497631	0.257250	0.449982
H68	H	1.045943	0.252083	0.881759
H69	H	0.917597	0.380345	0.993349
C70	C	1.059814	0.783814	0.325110
N71	N	1.100048	0.750126	0.288206
C72	C	1.101805	0.892034	0.286634
N73	N	1.142027	0.858358	0.249707
C74	C	0.909917	0.388006	0.917053
N75	N	0.869667	0.428211	0.947425
C76	C	1.101814	0.196246	0.982963
N77	N	1.142056	0.156024	0.952602
C78	C	0.867900	0.733707	0.500988
N79	N	0.827655	0.767389	0.537886
C80	C	0.904686	0.908176	0.467446
N81	N	0.867171	0.880869	0.501903
H82	H	1.082056	1.037210	0.304849
C83	C	0.396372	0.386761	0.320048
N84	N	0.426731	0.421161	0.285522
H85	H	0.252919	0.224264	0.483146
H86	H	0.584412	0.251546	0.455705
H87	H	0.584311	0.407629	0.299072
H88	H	1.052160	0.245893	0.794986
C89	C	0.867929	0.429969	0.805371
N90	N	0.827678	0.470178	0.835736
H91	H	1.058005	0.574597	0.326641
H92	H	1.082024	0.216022	1.126508
H93	H	0.911723	1.051145	0.461011
H94	H	0.911679	0.386236	1.126409
C95	C	1.071957	0.226125	0.651453
N96	N	1.112204	0.185906	0.621095
C97	C	0.874714	0.579110	0.494667
N98	N	0.837161	0.551799	0.529078
C99	C	0.874780	0.423152	0.651339
N100	N	0.837232	0.460675	0.620935
H101	H	0.923790	0.830315	0.449812
H102	H	0.385997	0.218813	0.488596
C103	C	0.242340	0.393074	0.313750
N104	N	0.211932	0.429963	0.276743
H105	H	0.717480	0.246097	0.461155
H106	H	0.472675	0.369187	0.337673
H107	H	1.052124	0.708145	0.332114
