data_functionalizedCrystal
_audit_creation_method	'MofGen! by Chris Wilmer'
_symmetry_space_group_name_H-M	'P1'
_symmetry_Int_Tables_number	1
_symmetry_cell_setting	triclinic
loop_
_symmetry_equiv_pos_as_xyz
  x,y,z
_cell_length_a	14.971482
_cell_length_b	14.519731
_cell_length_c	14.048226
_cell_angle_alpha	89.992586
_cell_angle_beta	89.994098
_cell_angle_gamma	83.650731
loop_
_atom_site_label
_atom_site_type_symbol
_atom_site_fract_x
_atom_site_fract_y
_atom_site_fract_z
O1	O	1.187026	0.120166	-0.079150
O2	O	1.520359	0.453500	0.254183
O3	O	1.853692	0.786833	0.587516
O4	O	0.926634	0.134562	-0.079155
O5	O	1.259967	0.467895	0.254178
O6	O	1.593301	0.801229	0.587511
O7	O	1.063724	-0.006877	-0.079144
O8	O	1.397057	0.326456	0.254189
O9	O	1.730390	0.659789	0.587523
O10	O	1.049936	0.261605	-0.079162
O11	O	1.383269	0.594939	0.254172
O12	O	1.716603	0.928272	0.587505
O13	O	1.063707	-0.006886	0.079177
O14	O	1.397041	0.326448	0.412511
O15	O	1.730374	0.659781	0.745844
O16	O	0.926618	0.134553	0.079166
O17	O	1.259951	0.467887	0.412499
O18	O	1.593284	0.801220	0.745833
O19	O	1.187009	0.120158	0.079171
O20	O	1.520342	0.453491	0.412504
O21	O	1.853676	0.786825	0.745838
Zn22	Zn	1.056811	0.127354	0.104305
Zn23	Zn	1.390144	0.460688	0.437639
Zn24	Zn	1.723477	0.794021	0.770972
Zn25	Zn	1.056832	0.127365	-0.104290
Zn26	Zn	1.390166	0.460699	0.229044
Zn27	Zn	1.723499	0.794032	0.562377
O28	O	1.049919	0.261597	0.079160
O29	O	1.383253	0.594930	0.412493
O30	O	1.716586	0.928264	0.745826
C31	C	0.893301	0.133915	0.000005
C32	C	1.226634	0.467248	0.333338
C33	C	1.559967	0.800581	0.666671
C34	C	0.794002	0.131987	0.000003
C35	C	1.127336	0.465320	0.333337
C36	C	1.460669	0.798654	0.666670
C37	C	0.747348	0.131075	0.086305
C38	C	1.080681	0.464408	0.419639
C39	C	1.414015	0.797741	0.752972
C40	C	0.654048	0.129249	0.086306
C41	C	0.987382	0.462582	0.419640
C42	C	1.320715	0.795916	0.752973
C43	C	0.607404	0.128342	0.000005
C44	C	0.940737	0.461676	0.333338
C45	C	1.274070	0.795009	0.666671
C46	C	0.654065	0.129252	-0.086304
C47	C	0.987398	0.462585	0.247029
C48	C	1.320732	0.795919	0.580362
C49	C	0.747364	0.131071	-0.086304
C50	C	1.080697	0.464404	0.247029
C51	C	1.414030	0.797738	0.580362
C52	C	0.459601	0.125462	-0.086298
C53	C	0.792934	0.458796	0.247036
C54	C	1.126267	0.792129	0.580369
C55	C	0.366295	0.123645	-0.086298
C56	C	0.699628	0.456978	0.247035
C57	C	1.032962	0.790312	0.580369
C58	C	0.366285	0.123640	0.086313
C59	C	0.699619	0.456974	0.419646
C60	C	1.032952	0.790307	0.752980
C61	C	0.459584	0.125460	0.086313
C62	C	0.792917	0.458793	0.419646
C63	C	1.126251	0.792126	0.752979
C64	C	0.506238	0.126371	0.000004
C65	C	0.839572	0.459704	0.333337
C66	C	1.172905	0.793038	0.666670
C67	C	1.063069	-0.041241	0.000017
C68	C	1.396403	0.292093	0.333350
C69	C	1.729736	0.625426	0.666683
C70	C	1.061134	-0.143620	0.000017
C71	C	1.394467	0.189714	0.333351
C72	C	1.727800	0.523047	0.666684
C73	C	1.059560	-0.226763	0.000015
C74	C	1.392894	0.106571	0.333348
C75	C	1.726227	0.439904	0.666682
C76	C	1.057595	-0.331070	0.000008
C77	C	1.390928	0.002263	0.333341
C78	C	1.724262	0.335596	0.666674
C79	C	1.056035	-0.414208	0.000002
C80	C	1.389368	-0.080875	0.333335
C81	C	1.722702	0.252458	0.666668
C82	C	1.054070	-0.518523	-0.000004
C83	C	1.387403	-0.185189	0.333329
C84	C	1.720736	0.148144	0.666663
C85	C	1.220342	0.120805	0.000009
C86	C	1.553676	0.454139	0.333342
C87	C	1.887009	0.787472	0.666675
C88	C	1.319641	0.122733	0.000004
C89	C	1.652974	0.456066	0.333337
C90	C	1.986308	0.789399	0.666671
C91	C	1.050574	0.295960	-0.000003
C92	C	1.383907	0.629294	0.333330
C93	C	1.717240	0.962627	0.666663
C94	C	1.052510	0.398339	-0.000010
C95	C	1.385843	0.731673	0.333323
C96	C	1.719176	1.065006	0.666657
N97	N	1.056802	0.127346	0.246666
N98	N	1.390136	0.460680	0.579999
N99	N	1.723469	0.794013	0.913333
N100	N	1.056848	0.127366	-0.246650
N101	N	1.390181	0.460699	0.086683
N102	N	1.723515	0.794033	0.420016
C103	C	1.117525	0.064743	0.296489
C104	C	1.450858	0.398076	0.629822
C105	C	1.784191	0.731410	0.963156
C106	C	1.117531	0.064742	0.396147
C107	C	1.450864	0.398076	0.729480
C108	C	1.784198	0.731409	1.062813
C109	C	1.056818	0.127350	0.445980
C110	C	1.390151	0.460684	0.779313
C111	C	1.723485	0.794017	1.112646
C112	C	0.996089	0.189957	0.396150
C113	C	1.329422	0.523290	0.729483
C114	C	1.662756	0.856623	1.062816
C115	C	0.996079	0.189952	0.296494
C116	C	1.329413	0.523285	0.629827
C117	C	1.662746	0.856619	0.963160
C118	C	0.996115	0.189963	0.603864
C119	C	1.329448	0.523297	0.937197
C120	C	1.662782	0.856630	1.270530
C121	C	0.996125	0.189970	0.703527
C122	C	1.329459	0.523303	1.036860
C123	C	1.662792	0.856636	1.370193
C124	C	1.117566	0.064754	0.703517
C125	C	1.450900	0.398087	1.036850
C126	C	1.784233	0.731420	1.370183
C127	C	1.117557	0.064749	0.603861
C128	C	1.450890	0.398082	0.937194
C129	C	1.784223	0.731416	1.270528
C130	C	1.056829	0.127357	0.554038
C131	C	1.390162	0.460690	0.887371
C132	C	1.723495	0.794024	1.220705
H133	H	0.328295	0.122899	0.156589
H134	H	0.661628	0.456232	0.489922
H135	H	0.994961	0.789565	0.823256
H136	H	0.946686	0.240950	0.744095
H137	H	1.280019	0.574284	1.077429
H138	H	1.613352	0.907617	1.410762
H139	H	0.946632	0.240929	0.255929
H140	H	1.279965	0.574262	0.589262
H141	H	1.613299	0.907596	0.922595
H142	H	0.946661	0.240942	0.563301
H143	H	1.279994	0.574276	0.896634
H144	H	1.613327	0.907609	1.229968
H145	H	0.785318	0.131821	0.156582
H146	H	1.118652	0.465154	0.489916
H147	H	1.451985	0.798487	0.823249
H148	H	0.328320	0.122907	-0.156573
H149	H	0.661653	0.456241	0.176761
H150	H	0.994986	0.789574	0.510094
H151	H	0.785348	0.131816	-0.156580
H152	H	1.118681	0.465149	0.176753
H153	H	1.452015	0.798482	0.510086
H154	H	1.166975	0.013765	0.436712
H155	H	1.500308	0.347099	0.770046
H156	H	1.833642	0.680432	1.103379
H157	H	0.616080	0.128507	-0.156573
H158	H	0.949414	0.461840	0.176761
H159	H	1.282747	0.795174	0.510094
O160	O	0.509926	0.126452	-0.179386
O161	O	0.843259	0.459785	0.153948
O162	O	1.176592	0.793118	0.487281
H163	H	0.461817	0.125527	-0.239398
H164	H	0.795150	0.458861	0.093936
H165	H	1.128483	0.792194	0.427269
H166	H	0.616069	0.128491	0.156582
H167	H	0.949402	0.461824	0.489916
H168	H	1.282735	0.795157	0.823249
O169	O	1.183040	-0.002778	0.550112
O170	O	1.516373	0.330556	0.883445
O171	O	1.849706	0.663889	1.216778
H172	H	1.145307	-0.047658	0.504722
H173	H	1.478640	0.285676	0.838055
H174	H	1.811973	0.619009	1.171389
O175	O	1.183005	-0.002788	0.242741
O176	O	1.516338	0.330545	0.576075
O177	O	1.849672	0.663878	0.909408
H178	H	1.225222	-0.046327	0.294134
H179	H	1.558556	0.287006	0.627467
H180	H	1.891889	0.620340	0.960800
O181	O	1.183063	-0.002783	0.757245
O182	O	1.516396	0.330550	1.090579
O183	O	1.849729	0.663884	1.423912
H184	H	1.172864	0.007727	0.834914
H185	H	1.506197	0.341060	1.168248
H186	H	1.839530	0.674394	1.501581
O187	O	0.930610	0.257494	0.449891
O188	O	1.263943	0.590827	0.783224
O189	O	1.597277	0.924161	1.116558
H190	H	0.887083	0.218609	0.495323
H191	H	1.220417	0.551942	0.828656
H192	H	1.553750	0.885275	1.161989
H193	H	0.497559	0.126204	0.156587
H194	H	0.830892	0.459537	0.489921
H195	H	1.164225	0.792870	0.823254
