data_functionalizedCrystal
_audit_creation_method	'MofGen! by Chris Wilmer'
_symmetry_space_group_name_H-M	'P1'
_symmetry_Int_Tables_number	1
_symmetry_cell_setting	triclinic
loop_
_symmetry_equiv_pos_as_xyz
  x,y,z
_cell_length_a	6.817900
_cell_length_b	11.102288
_cell_length_c	19.453114
_cell_angle_alpha	94.505586
_cell_angle_beta	101.709288
_cell_angle_gamma	108.605689
loop_
_atom_site_label
_atom_site_type_symbol
_atom_site_fract_x
_atom_site_fract_y
_atom_site_fract_z
V1	V	-4.033154	-0.177162	-0.218999
O2	O	-3.993679	0.007152	-0.214830
O3	O	-4.010467	-0.349974	-0.217501
O4	O	-3.975753	-0.175035	-0.314512
O5	O	-4.028634	-0.168998	-0.117148
V6	V	-4.514617	-0.155046	-0.206817
O7	O	-4.298932	-0.225677	-0.245722
O8	O	-4.699036	-0.106531	-0.180094
O9	O	-4.314097	0.017766	-0.208315
O10	O	-4.671489	-0.339360	-0.210986
O11	O	-4.636534	-0.163210	-0.308668
O12	O	-4.348812	-0.157173	-0.111304
C13	C	-3.862015	-0.392083	-0.214047
C14	C	-3.924692	-0.533362	-0.213459
C15	C	-4.136892	-0.606230	-0.216687
C16	C	-4.195775	-0.738978	-0.216140
C17	C	-3.830237	-0.725977	-0.209134
C18	C	-3.771359	-0.593233	-0.209686
C19	C	-3.817732	-0.168929	-0.337792
C20	C	-3.852253	-0.168333	-0.415875
C21	C	-4.051203	-0.174432	-0.456132
C22	C	-4.083640	-0.173872	-0.529499
C23	C	-3.917128	-0.167238	-0.562608
C24	C	-3.718147	-0.161131	-0.522341
C25	C	-3.685710	-0.161678	-0.448974
N26	N	-3.867372	-0.234355	-0.681397
N27	N	-3.898200	-0.233839	-0.751092
C28	C	-4.014849	-0.165586	-0.783656
N29	N	-4.099543	-0.097887	-0.743893
N30	N	-4.068721	-0.098410	-0.674192
C31	C	-3.952281	-0.166643	-0.642161
C32	C	-4.248982	-0.171077	-0.903466
C33	C	-4.281408	-0.170509	-0.976833
C34	C	-3.915916	-0.157781	-0.969674
C35	C	-3.883489	-0.158336	-0.896308
C36	C	-4.050033	-0.164990	-0.863208
C37	C	-4.125893	0.059868	-0.211767
C38	C	-4.042453	0.201146	-0.212360
C39	C	-4.170176	-0.163283	-0.088020
C40	C	-4.114892	-0.163873	-0.009937
H41	H	-4.245657	-0.178846	-0.562283
H42	H	-4.384590	-0.176491	-0.876515
H43	H	-3.780333	-0.152368	-0.996630
H44	H	-3.582573	-0.155726	-0.549302
H45	H	-4.186816	-0.179845	-0.429187
O46	O	-3.565102	-0.522621	-0.206513
C47	C	-3.442397	-0.603930	-0.203077
H48	H	-3.525031	-0.694023	-0.181368
H49	H	-3.425164	-0.632363	-0.258553
C50	C	-3.118520	-0.421984	-0.180370
C51	C	-3.220004	-0.532633	-0.153702
H52	H	-2.981334	-0.378005	-0.149917
H53	H	-3.201188	-0.367204	-0.182688
H54	H	-3.104180	-0.445695	-0.226600
H55	H	-3.234367	-0.508920	-0.107477
H56	H	-3.137334	-0.587407	-0.151375
O57	O	-4.474835	-0.176489	-1.015841
C58	C	-4.614843	-0.182445	-0.970887
H59	H	-4.557803	-0.221422	-0.921025
H60	H	-4.617790	-0.081976	-0.955355
C61	C	-4.910911	-0.224145	-1.071359
C62	C	-4.840863	-0.272028	-1.010121
H63	H	-5.050333	-0.279399	-1.095561
H64	H	-4.816585	-0.220128	-1.101646
H65	H	-4.913349	-0.140422	-1.058407
H66	H	-4.838400	-0.355742	-1.023074
H67	H	-4.935194	-0.276061	-0.979837
O68	O	-3.690422	-0.152671	-0.857163
C69	C	-3.714571	-0.263301	-0.824084
H70	H	-3.886282	-0.305730	-0.819353
H71	H	-3.674687	-0.337446	-0.857300
C72	C	-3.351976	-0.174562	-0.755280
C73	C	-3.562871	-0.226668	-0.749464
H74	H	-3.258395	-0.151968	-0.709252
H75	H	-3.335702	-0.100030	-0.777568
H76	H	-3.318770	-0.236358	-0.782964
H77	H	-3.596082	-0.164866	-0.721788
H78	H	-3.579147	-0.301189	-0.727169
O79	O	-4.285702	-0.547956	-0.220450
C80	C	-4.297924	-0.489198	-0.282102
H81	H	-4.142185	-0.469533	-0.299516
H82	H	-4.435520	-0.555900	-0.326414
C83	C	-4.527061	-0.385630	-0.244676
C84	C	-4.335773	-0.361466	-0.266061
H85	H	-4.550418	-0.306842	-0.234783
H86	H	-4.518835	-0.425220	-0.203141
H87	H	-4.641703	-0.441218	-0.281606
H88	H	-4.221132	-0.305893	-0.229128
H89	H	-4.343981	-0.321864	-0.307590
O90	O	-4.401783	-0.809861	-0.219169
C91	C	-4.411467	-0.869394	-0.157935
H92	H	-4.249838	-0.877776	-0.134444
H93	H	-4.454218	-0.809101	-0.117078
C94	C	-4.781148	-0.994251	-0.206825
C95	C	-4.582636	-1.004556	-0.177976
H96	H	-4.886739	-1.077623	-0.219185
H97	H	-4.774627	-0.954140	-0.248079
H98	H	-4.816744	-0.944001	-0.172772
H99	H	-4.547032	-1.054791	-0.212031
H100	H	-4.589155	-1.044679	-0.136728
H101	H	-3.705406	-0.774740	-0.206060
H102	H	-3.523694	-0.156702	-0.416196
