data_functionalizedCrystal
_audit_creation_method	'MofGen! by Chris Wilmer'
_symmetry_space_group_name_H-M	'P1'
_symmetry_Int_Tables_number	1
_symmetry_cell_setting	triclinic
loop_
_symmetry_equiv_pos_as_xyz
  x,y,z
_cell_length_a	19.288840
_cell_length_b	16.109298
_cell_length_c	18.366186
_cell_angle_alpha	89.999156
_cell_angle_beta	89.983729
_cell_angle_gamma	83.293103
loop_
_atom_site_label
_atom_site_type_symbol
_atom_site_fract_x
_atom_site_fract_y
_atom_site_fract_z
O1	O	0.921610	0.103617	-0.060663
O2	O	1.254944	0.436950	0.272671
O3	O	1.588277	0.770283	0.606004
O4	O	0.719380	0.117630	-0.060636
O5	O	1.052714	0.450963	0.272697
O6	O	1.386047	0.784296	0.606030
O7	O	0.826052	-0.010428	-0.060655
O8	O	1.159385	0.322906	0.272678
O9	O	1.492719	0.656239	0.606011
O10	O	0.814939	0.231674	-0.060644
O11	O	1.148272	0.565007	0.272690
O12	O	1.481605	0.898341	0.606023
O13	O	0.826034	-0.010434	0.060444
O14	O	1.159367	0.322900	0.393777
O15	O	1.492700	0.656233	0.727111
O16	O	0.719362	0.117623	0.060463
O17	O	1.052696	0.450957	0.393796
O18	O	1.386029	0.784290	0.727130
O19	O	0.921592	0.103611	0.060437
O20	O	1.254925	0.436944	0.393770
O21	O	1.588259	0.770277	0.727103
Zn22	Zn	0.820474	0.110616	0.079677
Zn23	Zn	1.153808	0.443949	0.413010
Zn24	Zn	1.487141	0.777283	0.746344
Zn25	Zn	0.820498	0.110624	-0.079877
Zn26	Zn	1.153832	0.443958	0.253457
Zn27	Zn	1.487165	0.777291	0.586790
O28	O	0.814921	0.231668	0.060456
O29	O	1.148254	0.565001	0.393789
O30	O	1.481587	0.898334	0.727122
C31	C	0.693494	0.117179	-0.000083
C32	C	1.026827	0.450512	0.333250
C33	C	1.360160	0.783846	0.666583
C34	C	0.616386	0.115836	-0.000074
C35	C	0.949719	0.449169	0.333260
C36	C	1.283053	0.782503	0.666593
C37	C	0.580191	0.115194	-0.066087
C38	C	0.913524	0.448528	0.267246
C39	C	1.246857	0.781861	0.600580
C40	C	0.507741	0.113923	-0.066096
C41	C	0.841074	0.447256	0.267237
C42	C	1.174407	0.780590	0.600571
C43	C	0.471491	0.113277	-0.000088
C44	C	0.804824	0.446610	0.333245
C45	C	1.138157	0.779944	0.666579
C46	C	0.507694	0.113924	0.065934
C47	C	0.841027	0.447257	0.399267
C48	C	1.174361	0.780590	0.732601
C49	C	0.580142	0.115203	0.065941
C50	C	0.913475	0.448536	0.399274
C51	C	1.246808	0.781870	0.732608
C52	C	0.362035	0.062549	0.050471
C53	C	0.695368	0.395883	0.383804
C54	C	1.028701	0.729216	0.717137
C55	C	0.289589	0.061265	0.050461
C56	C	0.622922	0.394598	0.383794
C57	C	0.956256	0.727931	0.717128
C58	C	0.248038	0.109334	-0.000107
C59	C	0.581371	0.442667	0.333226
C60	C	0.914704	0.776001	0.666559
C61	C	0.278942	0.158677	-0.050678
C62	C	0.612275	0.492011	0.282656
C63	C	0.945609	0.825344	0.615989
C64	C	0.351390	0.159957	-0.050671
C65	C	0.684723	0.493290	0.282663
C66	C	1.018056	0.826624	0.615996
C67	C	0.392933	0.111890	-0.000088
C68	C	0.726267	0.445223	0.333245
C69	C	1.059600	0.778557	0.666578
C70	C	0.133284	0.107315	-0.066135
C71	C	0.466617	0.440648	0.267199
C72	C	0.799950	0.773982	0.600532
C73	C	0.060832	0.106049	-0.066141
C74	C	0.394165	0.439382	0.267192
C75	C	0.727499	0.772716	0.600526
C76	C	0.060788	0.106041	0.065891
C77	C	0.394121	0.439374	0.399224
C78	C	0.727454	0.772708	0.732557
C79	C	0.133237	0.107315	0.065895
C80	C	0.466570	0.440649	0.399228
C81	C	0.799904	0.773982	0.732562
C82	C	0.169481	0.107948	-0.000120
C83	C	0.502815	0.441282	0.333214
C84	C	0.836148	0.774615	0.666547
C85	C	0.825593	-0.041404	-0.000109
C86	C	1.158926	0.291929	0.333225
C87	C	1.492260	0.625263	0.666558
C88	C	0.824245	-0.133695	-0.000117
C89	C	1.157578	0.199639	0.333216
C90	C	1.490911	0.532972	0.666550
C91	C	0.819854	-0.432745	-0.066112
C92	C	1.153187	-0.099411	0.267221
C93	C	1.486521	0.233922	0.600554
C94	C	0.821130	-0.346029	-0.066118
C95	C	1.154464	-0.012696	0.267216
C96	C	1.487797	0.320638	0.600549
C97	C	0.821121	-0.346022	0.065911
C98	C	1.154454	-0.012688	0.399245
C99	C	1.487787	0.320645	0.732578
C100	C	0.819849	-0.432736	0.065916
C101	C	1.153183	-0.099403	0.399249
C102	C	1.486516	0.233930	0.732583
C103	C	0.819212	-0.476095	-0.000098
C104	C	1.152546	-0.142762	0.333235
C105	C	1.485879	0.190572	0.666569
C106	C	0.821760	-0.302665	-0.000108
C107	C	1.155094	0.030668	0.333225
C108	C	1.488427	0.364002	0.666559
C109	C	0.823144	-0.208644	-0.000113
C110	C	1.156478	0.124689	0.333220
C111	C	1.489811	0.458022	0.666553
C112	C	0.817830	-0.570122	-0.000093
C113	C	1.151163	-0.236788	0.333240
C114	C	1.484496	0.096545	0.666574
C115	C	0.947479	0.104061	-0.000118
C116	C	1.280812	0.437394	0.333215
C117	C	1.614146	0.770728	0.666549
C118	C	1.024587	0.105404	-0.000132
C119	C	1.357920	0.438738	0.333201
C120	C	1.691253	0.772071	0.666534
C121	C	0.815379	0.262644	-0.000093
C122	C	1.148713	0.595978	0.333241
C123	C	1.482046	0.929311	0.666574
C124	C	0.816728	0.354935	-0.000089
C125	C	1.150061	0.688268	0.333244
C126	C	1.483395	1.021602	0.666578
N127	N	0.820463	0.110610	0.188568
N128	N	1.153796	0.443943	0.521901
N129	N	1.487130	0.777277	0.855235
N130	N	0.820515	0.110624	-0.188768
N131	N	1.153848	0.443957	0.144566
N132	N	1.487182	0.777290	0.477899
C133	C	0.867713	0.053934	0.226660
C134	C	1.201046	0.387267	0.559993
C135	C	1.534379	0.720601	0.893327
C136	C	0.867717	0.053930	0.302888
C137	C	1.201050	0.387263	0.636221
C138	C	1.534384	0.720597	0.969555
C139	C	0.820479	0.110617	0.341021
C140	C	1.153812	0.443950	0.674354
C141	C	1.487145	0.777283	1.007688
C142	C	0.773220	0.167297	0.302920
C143	C	1.106553	0.500630	0.636253
C144	C	1.439887	0.833964	0.969586
C145	C	0.773212	0.167294	0.226693
C146	C	1.106546	0.500627	0.560027
C147	C	1.439879	0.833960	0.893360
C148	C	0.811360	0.186371	0.461786
C149	C	1.144694	0.519705	0.795119
C150	C	1.478027	0.853038	1.128452
C151	C	0.811373	0.186376	0.538011
C152	C	1.144706	0.519709	0.871344
C153	C	1.478040	0.853043	1.204677
C154	C	0.820498	0.110627	0.576128
C155	C	1.153832	0.443960	0.909462
C156	C	1.487165	0.777294	1.242795
C157	C	0.829626	0.034870	0.538012
C158	C	1.162959	0.368204	0.871345
C159	C	1.496293	0.701537	1.204679
C160	C	0.829618	0.034867	0.461786
C161	C	1.162951	0.368200	0.795119
C162	C	1.496285	0.701534	1.128452
C163	C	0.820481	0.110626	0.423676
C164	C	1.153815	0.443960	0.757009
C165	C	1.487148	0.777293	1.090342
C166	C	0.867755	0.053942	0.696875
C167	C	1.201089	0.387276	1.030209
C168	C	1.534422	0.720609	1.363542
C169	C	0.867755	0.053938	0.773104
C170	C	1.201088	0.387271	1.106438
C171	C	1.534421	0.720604	1.439771
C172	C	0.773261	0.167312	0.773135
C173	C	1.106594	0.500645	1.106468
C174	C	1.439928	0.833978	1.439801
C175	C	0.773258	0.167309	0.696907
C176	C	1.106592	0.500643	1.030240
C177	C	1.439925	0.833976	1.363574
C178	C	0.820509	0.110626	0.658782
C179	C	1.153842	0.443959	0.992115
C180	C	1.487176	0.777292	1.325448
H181	H	0.376549	0.200136	-0.091845
H182	H	0.709882	0.533469	0.241488
H183	H	1.043215	0.866803	0.574821
H184	H	0.803917	0.248059	0.430756
H185	H	1.137251	0.581393	0.764090
H186	H	1.470584	0.914726	1.097423
Br187	Br	0.818986	-0.491576	0.155514
Br188	Br	1.152319	-0.158242	0.488847
Br189	Br	1.485652	0.175091	0.822180
Br190	Br	0.182476	0.108180	-0.155723
Br191	Br	0.515809	0.441513	0.177610
Br192	Br	0.849143	0.774847	0.510943
Br193	Br	0.821982	-0.287172	0.155498
Br194	Br	1.155315	0.046161	0.488831
Br195	Br	1.488649	0.379494	0.822164
H196	H	0.906185	0.007777	0.195621
H197	H	1.239519	0.341110	0.528954
H198	H	1.572852	0.674443	0.862287
H199	H	0.906195	0.007776	0.333908
H200	H	1.239528	0.341109	0.667241
H201	H	1.572861	0.674443	1.000575
H202	H	0.837056	-0.026812	0.569046
H203	H	1.170390	0.306522	0.902379
H204	H	1.503723	0.639855	1.235712
H205	H	0.821654	-0.310737	-0.119873
H206	H	1.154987	0.022596	0.213460
H207	H	1.488321	0.355929	0.546793
Br208	Br	0.841998	-0.067940	0.410058
Br209	Br	1.175332	0.265394	0.743391
Br210	Br	1.508665	0.598727	1.076724
H211	H	0.906228	0.007784	0.665832
H212	H	1.239561	0.341118	0.999166
H213	H	1.572894	0.674451	1.332499
H214	H	0.609611	0.115727	0.119698
H215	H	0.942945	0.449060	0.453032
H216	H	1.276278	0.782393	0.786365
Br217	Br	0.931878	-0.022993	0.824805
Br218	Br	1.265211	0.310340	1.158138
Br219	Br	1.598545	0.643674	1.491472
H220	H	0.734796	0.213464	0.804182
H221	H	1.068129	0.546797	1.137515
H222	H	1.401463	0.880130	1.470849
Br223	Br	0.709133	0.244233	0.645205
Br224	Br	1.042466	0.577566	0.978538
Br225	Br	1.375800	0.910899	1.311872
Br226	Br	0.798994	0.289187	0.589732
Br227	Br	1.132327	0.622520	0.923066
Br228	Br	1.465660	0.955853	1.256399
H229	H	0.245112	0.197824	-0.091853
H230	H	0.578445	0.531157	0.241481
H231	H	0.911778	0.864490	0.574814
Br232	Br	0.709082	0.244216	0.174993
Br233	Br	1.042416	0.577549	0.508326
Br234	Br	1.375749	0.910883	0.841659
H235	H	0.031363	0.105531	-0.119899
H236	H	0.364696	0.438865	0.213434
H237	H	0.698029	0.772198	0.546768
H238	H	0.734756	0.213451	0.333971
H239	H	1.068090	0.546784	0.667305
H240	H	1.401423	0.880117	1.000638
H241	H	0.609696	0.115710	-0.119841
H242	H	0.943030	0.449043	0.213492
H243	H	1.276363	0.782376	0.546825
H244	H	0.478265	0.113402	-0.119853
H245	H	0.811598	0.446735	0.213480
H246	H	1.144931	0.780068	0.546813
Br247	Br	0.418419	-0.002690	0.119108
Br248	Br	0.751752	0.330643	0.452441
Br249	Br	1.085085	0.663976	0.785775
H250	H	0.031273	0.105520	0.119636
H251	H	0.364606	0.438853	0.452969
H252	H	0.697940	0.772187	0.786302
Br253	Br	0.818991	-0.491586	-0.155702
Br254	Br	1.152325	-0.158253	0.177631
Br255	Br	1.485658	0.175080	0.510964
H256	H	0.162708	0.107833	0.119650
H257	H	0.496041	0.441166	0.452984
H258	H	0.829375	0.774499	0.786317
H259	H	0.478174	0.113399	0.119678
H260	H	0.811508	0.446733	0.453011
H261	H	1.144841	0.780066	0.786345
Br262	Br	0.247652	-0.005680	0.119106
Br263	Br	0.580986	0.327653	0.452439
Br264	Br	0.914319	0.660987	0.785772
