data_functionalizedCrystal
_audit_creation_method	'MofGen! by Chris Wilmer'
_symmetry_space_group_name_H-M	'P1'
_symmetry_Int_Tables_number	1
_symmetry_cell_setting	triclinic
loop_
_symmetry_equiv_pos_as_xyz
  x,y,z
_cell_length_a	19.288864
_cell_length_b	10.489741
_cell_length_c	17.766277
_cell_angle_alpha	89.993969
_cell_angle_beta	89.976791
_cell_angle_gamma	83.837710
loop_
_atom_site_label
_atom_site_type_symbol
_atom_site_fract_x
_atom_site_fract_y
_atom_site_fract_z
O1	O	0.922420	0.159110	-0.062835
O2	O	0.720303	0.180573	-0.062784
O3	O	0.825961	-0.015860	-0.062806
O4	O	0.816763	0.355544	-0.062813
O5	O	0.825942	-0.015870	0.062382
O6	O	0.720285	0.180564	0.062405
O7	O	0.922401	0.159100	0.062353
Cu8	Cu	0.821341	0.169831	0.073810
Cu9	Cu	0.821363	0.169843	-0.074240
O10	O	0.816744	0.355534	0.062375
C11	C	0.694413	0.179878	-0.000183
C12	C	0.617295	0.177805	-0.000163
C13	C	0.825257	-0.063381	-0.000212
C14	C	0.823178	-0.204964	-0.000213
C15	C	0.573372	0.293063	-0.000177
C16	C	0.500912	0.291115	-0.000186
C17	C	0.472378	0.173903	-0.000195
C18	C	0.516311	0.058629	-0.000177
C19	C	0.588770	0.060580	-0.000161
C20	C	0.363505	0.081764	-0.044078
C21	C	0.291047	0.079818	-0.044098
C22	C	0.248892	0.167880	-0.000240
C23	C	0.279202	0.257911	0.043628
C24	C	0.351661	0.259862	0.043644
C25	C	0.393810	0.171774	-0.000212
C26	C	0.126399	0.281035	-0.000262
C27	C	0.053938	0.279082	-0.000266
C28	C	0.069339	0.046593	-0.000265
C29	C	0.141798	0.048549	-0.000254
C30	C	0.170324	0.165773	-0.000256
C31	C	0.755951	-0.271583	-0.000202
C32	C	0.787699	-0.364429	0.061515
C33	C	0.787734	-0.364394	-0.061911
C34	C	0.854954	-0.295944	0.061554
C35	C	0.854979	-0.295900	-0.061927
C36	C	0.886776	-0.388719	-0.000196
C37	C	0.948292	0.159796	-0.000249
C38	C	1.025409	0.161869	-0.000274
C39	C	0.817448	0.403055	-0.000220
C40	C	0.819526	0.544637	-0.000224
N41	N	0.821331	0.169822	0.177940
N42	N	0.821379	0.169842	-0.178371
C43	C	0.868131	0.082883	0.217317
C44	C	0.868135	0.082878	0.296119
C45	C	0.821345	0.169832	0.335540
C46	C	0.774536	0.256777	0.296154
C47	C	0.774528	0.256772	0.217354
C48	C	0.812826	0.286045	0.460378
C49	C	0.812838	0.286051	0.539177
C50	C	0.821364	0.169847	0.578587
C51	C	0.829892	0.053631	0.539188
C52	C	0.829885	0.053626	0.460388
C53	C	0.821348	0.169847	0.420986
C54	C	0.868171	0.082895	0.703410
C55	C	0.868171	0.082888	0.782213
C56	C	0.774575	0.256798	0.782247
C57	C	0.774572	0.256795	0.703445
C58	C	0.821374	0.169845	0.664031
H59	H	0.596592	0.388516	-0.000181
O60	O	0.011168	0.390933	-0.000249
C61	C	-0.058904	0.364080	-0.000279
H62	H	-0.062196	0.263919	0.023430
H63	H	-0.091379	0.437582	0.036053
H64	H	-0.079798	0.369024	-0.060343
H65	H	0.836835	-0.040993	0.571274
O66	O	0.753871	-0.400765	0.123831
C67	C	0.799471	-0.485957	0.166847
H68	H	0.855718	-0.470765	0.153041
H69	H	0.789297	-0.467073	0.229280
H70	H	0.790271	-0.588918	0.153004
H71	H	0.736465	0.327593	0.671382
O72	O	0.041662	-0.067300	-0.000140
C73	C	0.064031	-0.137559	0.064690
H74	H	0.079422	-0.069014	0.110010
H75	H	0.019860	-0.191569	0.086445
H76	H	0.110898	-0.208906	0.050040
O77	O	0.838049	-0.059188	0.422042
C78	C	0.779018	-0.069191	0.376523
H79	H	0.751789	0.030696	0.364721
H80	H	0.795988	-0.117710	0.321105
H81	H	0.741545	-0.128646	0.406931
O82	O	0.804517	0.399050	0.577328
C83	C	0.796997	0.501614	0.525649
H84	H	0.777734	0.466420	0.469492
H85	H	0.757670	0.581170	0.548433
H86	H	0.849504	0.540189	0.517233
O87	O	0.753894	-0.400756	-0.124181
C88	C	0.799507	-0.485867	-0.167261
H89	H	0.842661	-0.533151	-0.129548
H90	H	0.769265	-0.562696	-0.192971
H91	H	0.823476	-0.430581	-0.214099
O92	O	0.689967	-0.211055	-0.000080
C93	C	0.641764	-0.303024	0.000628
H94	H	0.667796	-0.396999	0.024632
H95	H	0.595079	-0.266977	0.037073
H96	H	0.623439	-0.319464	-0.059247
O97	O	0.888916	-0.259809	0.123794
C98	C	0.947545	-0.199354	0.101755
H99	H	0.939394	-0.160191	0.042189
H100	H	0.954646	-0.117160	0.142026
H101	H	0.996003	-0.271823	0.103228
O102	O	0.888793	-0.259648	-0.124268
C103	C	0.853190	-0.294140	-0.189213
H104	H	0.796510	-0.304082	-0.174410
H105	H	0.855279	-0.216816	-0.234004
H106	H	0.878991	-0.389408	-0.211741
H107	H	0.942099	-0.439394	-0.000176
O108	O	0.631412	-0.051421	-0.000286
C109	C	0.618411	-0.122623	-0.065115
H110	H	0.594008	-0.055143	-0.110435
H111	H	0.669566	-0.174063	-0.086871
H112	H	0.581146	-0.196238	-0.050462
O113	O	0.913614	-0.001709	0.179148
C114	C	0.954934	-0.078425	0.230808
H115	H	0.926457	-0.079725	0.286996
H116	H	0.965021	-0.180338	0.208047
H117	H	1.006735	-0.037249	0.239155
O118	O	0.913632	-0.001403	0.334460
C119	C	0.956832	0.066716	0.379995
H120	H	0.929663	0.166649	0.391806
H121	H	0.967564	0.013433	0.435406
H122	H	1.008201	0.075150	0.349595
O123	O	0.913652	-0.001696	0.665234
C124	C	0.954969	-0.078423	0.716892
H125	H	0.926490	-0.079729	0.773078
H126	H	0.965055	-0.180333	0.694125
H127	H	1.006771	-0.037252	0.725243
O128	O	0.804644	0.398854	0.422012
C129	C	0.863656	0.408866	0.376413
H130	H	0.890896	0.308985	0.364608
H131	H	0.846661	0.457351	0.321002
H132	H	0.901129	0.468357	0.406754
H133	H	0.736438	0.327575	0.328255
O134	O	0.729042	0.341357	0.179216
C135	C	0.687728	0.418081	0.230903
H136	H	0.716212	0.419392	0.287061
H137	H	0.677637	0.519991	0.208133
H138	H	0.635928	0.376906	0.239312
O139	O	0.913664	-0.001395	0.820550
C140	C	0.956860	0.066724	0.866091
H141	H	0.929690	0.166656	0.877902
H142	H	0.967588	0.013438	0.921503
H143	H	1.008232	0.075158	0.835697
H144	H	0.736475	0.327593	0.814343
H145	H	0.465143	0.384976	-0.000195
H146	H	0.376336	0.333164	0.079366
H147	H	0.266375	0.006515	-0.079822
H148	H	0.244881	0.329619	0.079342
H149	H	0.149625	0.376486	-0.000253
O150	O	0.404414	-0.003659	-0.086802
C151	C	0.385624	0.012677	-0.163157
H152	H	0.358968	0.113858	-0.172205
H153	H	0.434393	-0.002585	-0.199716
H154	H	0.348318	-0.060030	-0.179292
O155	O	0.184440	-0.063450	-0.000383
C156	C	0.171440	-0.134648	-0.065213
H157	H	0.147041	-0.067165	-0.110534
H158	H	0.222596	-0.186091	-0.086967
H159	H	0.134173	-0.208261	-0.050563
H160	H	0.493075	-0.036806	-0.000195
