data_functionalizedCrystal
_audit_creation_method	'MofGen! by Chris Wilmer'
_symmetry_space_group_name_H-M	'P1'
_symmetry_Int_Tables_number	1
_symmetry_cell_setting	triclinic
loop_
_symmetry_equiv_pos_as_xyz
  x,y,z
_cell_length_a	27.732048
_cell_length_b	27.731996
_cell_length_c	13.596369
_cell_angle_alpha	89.988048
_cell_angle_beta	90.000164
_cell_angle_gamma	82.632022
loop_
_atom_site_label
_atom_site_type_symbol
_atom_site_fract_x
_atom_site_fract_y
_atom_site_fract_z
O1	O	0.640917	0.057519	-0.081677
O2	O	0.500122	0.066265	-0.081709
O3	O	0.574905	-0.008506	-0.081671
O4	O	0.566133	0.132291	-0.081715
O5	O	0.574898	-0.008510	0.081912
O6	O	0.500114	0.066261	0.081874
O7	O	0.640909	0.057515	0.081906
Zn8	Zn	0.570511	0.061888	0.107862
Zn9	Zn	0.570520	0.061893	-0.107665
O10	O	0.566126	0.132287	0.081868
C11	C	0.482111	0.066079	0.000079
C12	C	0.428456	0.065527	0.000068
C13	C	0.089634	0.106231	0.000098
C14	C	-0.112026	0.104180	0.000107
O15	O	-0.143288	0.141402	0.000138
N16	N	-0.131141	0.059844	0.000119
C17	C	-0.099838	0.016017	0.000136
O18	O	-0.120724	-0.021740	0.000156
C19	C	0.101820	0.018069	0.000133
C20	C	0.120933	0.062408	0.000111
C21	C	0.108747	0.150567	0.000076
C22	C	0.159159	0.151079	0.000069
C23	C	0.190457	0.107256	0.000082
C24	C	0.171344	0.062920	0.000103
C25	C	0.133122	-0.025757	0.000157
C26	C	0.183539	-0.025240	0.000159
C27	C	0.202652	0.019099	0.000136
C28	C	0.253055	0.019609	0.000109
N29	N	0.272171	0.063946	0.000097
C30	C	0.240872	0.107769	0.000083
C31	C	-0.205712	0.014943	0.000135
C32	C	-0.256126	0.014430	0.000134
C33	C	-0.268310	0.102594	0.000107
C34	C	-0.217895	0.103106	0.000101
C35	C	-0.186597	0.059280	0.000123
C36	C	0.346741	0.108842	0.000066
C37	C	0.397158	0.109350	0.000054
C38	C	0.409337	0.021187	0.000086
C39	C	0.358925	0.020678	0.000093
C40	C	0.327627	0.064510	0.000086
O41	O	0.284346	-0.017592	0.000089
O42	O	0.261767	0.145521	0.000084
C43	C	0.039222	0.105719	0.000105
C44	C	0.020109	0.061384	0.000126
C45	C	0.051408	0.017560	0.000140
C46	C	-0.030305	0.060871	0.000125
C47	C	-0.061604	0.104694	0.000112
C48	C	-0.042489	0.149030	0.000100
C49	C	0.007923	0.149543	0.000092
C50	C	0.032292	-0.026776	0.000152
C51	C	-0.018120	-0.027285	0.000159
C52	C	-0.049419	0.016539	0.000145
C53	C	0.574721	-0.026516	0.000124
C54	C	0.574179	-0.080172	0.000134
C55	C	0.570768	-0.412886	-0.089084
C56	C	0.568707	-0.614544	-0.089102
O57	O	0.568423	-0.640613	-0.164937
N58	N	0.568447	-0.639764	0.000066
C59	C	0.568699	-0.614565	0.089245
O60	O	0.568426	-0.640642	0.165088
C61	C	0.570756	-0.412907	0.089262
C62	C	0.571021	-0.387691	0.000088
C63	C	0.571032	-0.387670	-0.178251
C64	C	0.571550	-0.337259	-0.178245
C65	C	0.571804	-0.312064	-0.089073
C66	C	0.571539	-0.337280	0.000093
C67	C	0.571005	-0.387709	0.178440
C68	C	0.571518	-0.337291	0.178436
C69	C	0.571783	-0.312075	0.089262
C70	C	0.572311	-0.261674	0.089271
N71	N	0.572571	-0.236454	0.000103
C72	C	0.572317	-0.261649	-0.089069
C73	C	0.567620	-0.720438	0.089230
C74	C	0.567106	-0.770853	0.089226
C75	C	0.567113	-0.770829	-0.089121
C76	C	0.567630	-0.720414	-0.089116
C77	C	0.567880	-0.695219	0.000062
C78	C	0.573405	-0.155782	-0.089051
C79	C	0.573925	-0.105367	-0.089038
C80	C	0.573915	-0.105395	0.089309
C81	C	0.573398	-0.155806	0.089296
C82	C	0.573141	-0.180999	0.000108
O83	O	0.572589	-0.235573	0.165067
O84	O	0.572580	-0.235562	-0.164901
C85	C	0.570250	-0.463297	-0.089089
C86	C	0.569986	-0.488513	0.000077
C87	C	0.570239	-0.463318	0.089249
C88	C	0.569472	-0.538928	0.000074
C89	C	0.569219	-0.564123	-0.089099
C90	C	0.569479	-0.538904	-0.178267
C91	C	0.569996	-0.488492	-0.178261
C92	C	0.569979	-0.488538	0.178418
C93	C	0.569462	-0.538949	0.178405
C94	C	0.569208	-0.564144	0.089233
C95	C	0.658920	0.057701	0.000116
C96	C	0.712575	0.058254	0.000120
C97	C	0.566310	0.150296	0.000071
C98	C	0.566853	0.203952	0.000054
N99	N	0.570508	0.061884	0.254954
N100	N	0.570527	0.061893	-0.254757
C101	C	0.570520	0.061893	0.656245
C102	C	0.570515	0.061892	0.544594
C103	C	0.570514	0.061889	0.455603
C104	C	0.570509	0.061887	0.343945
H105	H	0.209021	-0.060930	0.000177
O106	O	0.338305	-0.027143	0.000114
H107	H	0.368541	-0.057529	0.000126
H108	H	-0.271683	-0.021675	0.000137
O109	O	0.566823	-0.798003	-0.185305
H110	H	0.599877	-0.792888	-0.228082
H111	H	-0.033676	-0.063394	0.000169
H112	H	-0.293803	0.138276	0.000096
O113	O	0.571789	-0.310117	0.274625
H114	H	0.604982	-0.291706	0.278902
O115	O	0.074995	0.197840	0.000058
H116	H	0.051737	0.199723	0.066734
H117	H	0.574124	-0.084872	0.161910
O118	O	0.569195	-0.566085	-0.274444
H119	H	0.569463	-0.540085	-0.336457
H120	H	0.434830	-0.014493	0.000094
H121	H	0.567845	-0.699886	-0.161730
O122	O	-0.197287	0.150931	0.000092
H123	H	-0.174612	0.153282	-0.066583
H124	H	0.566898	-0.791380	0.161841
O125	O	-0.171956	-0.032329	0.000154
H126	H	-0.193723	-0.063241	0.000154
H127	H	0.574142	-0.084839	-0.161657
H128	H	0.570212	-0.467966	-0.250876
H129	H	0.571764	-0.316732	-0.250860
O130	O	0.112515	-0.073581	0.000201
H131	H	0.142756	-0.103962	0.000229
O132	O	0.066045	-0.074047	0.000170
H133	H	0.089306	-0.075922	-0.066503
H134	H	0.570824	-0.408178	-0.250869
H135	H	0.573194	-0.176288	-0.161677
H136	H	0.569250	-0.559476	0.251027
H137	H	0.567825	-0.699930	0.161854
O138	O	0.028535	0.197365	0.000088
H139	H	-0.001705	0.227748	0.000093
O140	O	0.570262	-0.461370	0.274605
H141	H	0.537206	-0.466498	0.317366
O142	O	0.573114	-0.183009	0.185472
H143	H	0.573375	-0.157017	0.247479
H144	H	-0.067981	0.184713	0.000085
H145	H	0.570790	-0.408231	0.251055
H146	H	0.321264	0.144533	0.000064
O147	O	0.417769	0.157176	0.000047
H148	H	0.405164	0.178221	-0.066625
O149	O	0.179771	0.198902	0.000074
H150	H	0.149530	0.229285	0.000082
