data_functionalizedCrystal
_audit_creation_method	'MofGen! by Chris Wilmer'
_symmetry_space_group_name_H-M	'P1'
_symmetry_Int_Tables_number	1
_symmetry_cell_setting	triclinic
loop_
_symmetry_equiv_pos_as_xyz
  x,y,z
_cell_length_a	13.033293
_cell_length_b	16.120444
_cell_length_c	16.120297
_cell_angle_alpha	95.615117
_cell_angle_beta	85.311971
_cell_angle_gamma	100.431871
loop_
_atom_site_label
_atom_site_type_symbol
_atom_site_fract_x
_atom_site_fract_y
_atom_site_fract_z
Zn1	Zn	1.543903	-0.208052	-0.638618
Zn2	Zn	2.043903	0.291948	-0.138618
Zn3	Zn	1.543768	-0.340755	-0.505917
Zn4	Zn	2.043768	0.159245	-0.005917
Zn5	Zn	1.378469	-0.216921	-0.482881
Zn6	Zn	1.878469	0.283079	0.017119
Zn7	Zn	1.359753	-0.365519	-0.627862
Zn8	Zn	1.859753	0.134481	-0.127862
O9	O	1.456473	-0.282812	-0.563819
O10	O	1.956473	0.217188	-0.063819
O11	O	1.690131	-0.211580	-0.635157
O12	O	2.190131	0.288420	-0.135157
O13	O	1.529617	-0.317676	-0.386650
O14	O	2.029617	0.182324	0.113350
O15	O	1.408303	-0.098019	-0.498400
O16	O	1.908303	0.401981	0.001600
O17	O	1.690031	-0.309076	-0.537662
O18	O	2.190031	0.190924	-0.037662
O19	O	1.529847	-0.091503	-0.612820
O20	O	2.029847	0.408497	-0.112820
O21	O	1.408172	-0.226696	-0.369726
O22	O	1.908172	0.273304	0.130274
O23	O	1.229740	-0.250709	-0.487971
O24	O	1.729740	0.249291	0.012029
O25	O	1.376405	-0.351283	-0.745499
O26	O	1.876405	0.148717	-0.245499
O27	O	1.215990	-0.359883	-0.594487
O28	O	1.715990	0.140117	-0.094487
O29	O	1.511699	-0.235592	-0.753402
O30	O	2.011699	0.264408	-0.253402
O31	O	1.511469	-0.461766	-0.527232
O32	O	2.011469	0.038234	-0.027232
O33	O	1.376275	-0.479960	-0.616825
O34	O	1.876275	0.020040	-0.116825
C35	C	1.184946	-0.308947	-0.537563
C36	C	1.684946	0.191053	-0.037563
C37	C	1.068782	-0.320148	-0.526350
C38	C	1.568782	0.179852	-0.026350
C39	C	1.017031	-0.276987	-0.569672
C40	C	1.517031	0.223013	-0.069672
C41	C	0.896970	-0.288563	-0.558085
C42	C	1.396970	0.211437	-0.058085
C43	C	1.441854	-0.501386	-0.573382
C44	C	1.941854	-0.001386	-0.073382
C45	C	1.435693	-0.594886	-0.577510
C46	C	1.935693	-0.094886	-0.077510
C47	C	1.488676	-0.798693	-0.542609
C48	C	1.988676	-0.298693	-0.042609
C49	C	1.424464	-0.766062	-0.585057
C50	C	1.924464	-0.266062	-0.085057
C51	C	1.430714	-0.670810	-0.580856
C52	C	1.930714	-0.170810	-0.080856
C53	C	1.482427	-0.893953	-0.546808
C54	C	1.982427	-0.393953	-0.046808
C55	C	1.729061	-0.256576	-0.590179
C56	C	2.229061	0.243424	-0.090179
C57	C	1.845222	-0.245396	-0.601412
C58	C	2.345222	0.254604	-0.101412
C59	C	1.441980	-0.295211	-0.780425
C60	C	1.941980	0.204789	-0.280425
C61	C	1.435803	-0.300494	-0.872729
C62	C	1.935803	0.199506	-0.372729
C63	C	1.471177	-0.063383	-0.554240
C64	C	1.971177	0.436617	-0.054240
C65	C	1.477443	0.030125	-0.550158
C66	C	1.977443	0.530125	-0.050158
C67	C	1.424490	-0.310126	-1.041727
C68	C	1.924490	0.189874	-0.541727
C69	C	1.488679	-0.255226	-1.086772
C70	C	1.988679	0.244774	-0.586772
C71	C	1.482385	-0.260585	-1.180808
C72	C	1.982385	0.239415	-0.680808
C73	C	1.430783	-0.304768	-0.947682
C74	C	1.930783	0.195232	-0.447682
C75	C	1.470975	-0.270395	-0.348059
C76	C	1.970975	0.229605	0.151941
C77	C	1.477369	-0.264855	-0.255765
C78	C	1.977369	0.235145	0.244235
H79	H	0.889796	-0.199866	-0.647078
H80	H	1.389796	0.300134	-0.147078
H81	H	1.364796	-0.809663	-0.624552
H82	H	1.864796	-0.309663	-0.124552
O83	O	1.009749	-0.380447	-0.465851
O84	O	1.509749	0.119553	0.034149
H85	H	0.954687	-0.430195	-0.500059
H86	H	1.454687	0.069805	-0.000059
H87	H	1.364813	-0.361148	-1.073783
H88	H	1.864813	0.138852	-0.573783
O89	O	1.567704	-0.740943	-0.490293
O90	O	2.067704	-0.240943	0.009707
H91	H	1.613787	-0.779537	-0.459845
H92	H	2.113787	-0.279537	0.040155
H93	H	1.548361	-0.204200	-1.054714
H94	H	2.048361	0.295800	-0.554714
H95	H	1.061610	-0.231461	-0.615336
H96	H	1.561610	0.268539	-0.115336
H97	H	0.852396	-0.334087	-0.512412
H98	H	1.352396	0.165913	-0.012412
