data_functionalizedCrystal
_audit_creation_method	'MofGen! by Chris Wilmer'
_symmetry_space_group_name_H-M	'P1'
_symmetry_Int_Tables_number	1
_symmetry_cell_setting	triclinic
loop_
_symmetry_equiv_pos_as_xyz
  x,y,z
_cell_length_a	19.121102
_cell_length_b	29.839131
_cell_length_c	19.120904
_cell_angle_alpha	87.590850
_cell_angle_beta	89.911827
_cell_angle_gamma	87.595578
loop_
_atom_site_label
_atom_site_type_symbol
_atom_site_fract_x
_atom_site_fract_y
_atom_site_fract_z
Zn1	Zn	1.054749	-0.219753	0.442036
Zn2	Zn	1.304749	0.030247	0.692036
Zn3	Zn	1.554749	0.280247	0.942036
Zn4	Zn	1.804749	0.530247	1.192036
Zn5	Zn	1.059636	-0.291816	0.324791
Zn6	Zn	1.309636	-0.041816	0.574791
Zn7	Zn	1.559636	0.208184	0.824791
Zn8	Zn	1.809636	0.458184	1.074791
Zn9	Zn	0.942520	-0.213364	0.319821
Zn10	Zn	1.192520	0.036636	0.569821
Zn11	Zn	1.442520	0.286636	0.819821
Zn12	Zn	1.692520	0.536636	1.069821
Zn13	Zn	0.937448	-0.291514	0.436994
Zn14	Zn	1.187448	-0.041514	0.686994
Zn15	Zn	1.437448	0.208486	0.936994
Zn16	Zn	1.687448	0.458486	1.186994
O17	O	0.998588	-0.254112	0.380911
O18	O	1.248588	-0.004112	0.630911
O19	O	1.498588	0.245888	0.880911
O20	O	1.748588	0.495888	1.130911
O21	O	1.153501	-0.232113	0.430674
O22	O	1.403501	0.017887	0.680674
O23	O	1.653501	0.267887	0.930674
O24	O	1.903501	0.517887	1.180674
O25	O	1.048269	-0.278861	0.226027
O26	O	1.298269	-0.028861	0.476027
O27	O	1.548269	0.221139	0.726027
O28	O	1.798269	0.471139	0.976027
O29	O	0.957485	-0.151347	0.336063
O30	O	1.207485	0.098653	0.586063
O31	O	1.457485	0.348653	0.836063
O32	O	1.707485	0.598653	1.086063
O33	O	1.157092	-0.285057	0.344535
O34	O	1.407092	-0.035057	0.594535
O35	O	1.657092	0.214943	0.844535
O36	O	1.907092	0.464943	1.094535
O37	O	1.039939	-0.156042	0.425855
O38	O	1.289939	0.093958	0.675855
O39	O	1.539939	0.343958	0.925855
O40	O	1.789939	0.593958	1.175855
O41	O	0.962224	-0.221223	0.222376
O42	O	1.212224	0.028777	0.472376
O43	O	1.462224	0.278777	0.722376
O44	O	1.712224	0.528777	0.972376
O45	O	0.843743	-0.220930	0.331174
O46	O	1.093743	0.029070	0.581174
O47	O	1.343743	0.279070	0.831174
O48	O	1.593743	0.529070	1.081174
O49	O	0.948840	-0.284542	0.535767
O50	O	1.198840	-0.034542	0.785767
O51	O	1.448840	0.215458	1.035767
O52	O	1.698840	0.465458	1.285767
O53	O	0.840017	-0.278346	0.417260
O54	O	1.090017	-0.028346	0.667260
O55	O	1.340017	0.221654	0.917260
O56	O	1.590017	0.471654	1.167260
O57	O	1.035020	-0.231820	0.539472
O58	O	1.285020	0.018180	0.789472
O59	O	1.535020	0.268180	1.039472
O60	O	1.785020	0.518180	1.289472
O61	O	1.043351	-0.354640	0.339645
O62	O	1.293351	-0.104640	0.589645
O63	O	1.543351	0.145360	0.839645
O64	O	1.793351	0.395360	1.089645
O65	O	0.953579	-0.354418	0.422080
O66	O	1.203579	-0.104418	0.672080
O67	O	1.453579	0.145582	0.922080
O68	O	1.703579	0.395582	1.172080
C69	C	0.816443	-0.248912	0.373131
C70	C	1.066443	0.001088	0.623131
C71	C	1.316443	0.251088	0.873131
C72	C	1.566443	0.501088	1.123131
C73	C	0.738519	-0.246699	0.369819
C74	C	0.988519	0.003301	0.619819
C75	C	1.238519	0.253301	0.869819
C76	C	1.488519	0.503301	1.119819
C77	C	0.699992	-0.275595	0.413013
C78	C	0.949992	-0.025595	0.663013
C79	C	1.199992	0.224405	0.913013
C80	C	1.449992	0.474405	1.163013
C81	C	0.626774	-0.273510	0.409905
C82	C	0.876774	-0.023510	0.659905
C83	C	1.126774	0.226490	0.909905
C84	C	1.376774	0.476490	1.159905
C85	C	0.592086	-0.242531	0.363599
C86	C	0.842086	0.007469	0.613599
C87	C	1.092086	0.257469	0.863599
C88	C	1.342086	0.507469	1.113599
C89	C	0.630619	-0.213632	0.320403
C90	C	0.880619	0.036368	0.570403
C91	C	1.130619	0.286368	0.820403
C92	C	1.380619	0.536368	1.070403
C93	C	0.703835	-0.215716	0.323515
C94	C	0.953835	0.034284	0.573515
C95	C	1.203835	0.284284	0.823515
C96	C	1.453835	0.534284	1.073515
C97	C	0.371117	-0.234741	0.351966
C98	C	0.621117	0.015259	0.601966
C99	C	0.871117	0.265259	0.851966
C100	C	1.121117	0.515259	1.101966
C101	C	0.297896	-0.232660	0.348855
C102	C	0.547896	0.017340	0.598855
C103	C	0.797896	0.267340	0.848855
C104	C	1.047896	0.517340	1.098855
C105	C	0.294056	-0.292537	0.438359
C106	C	0.544056	-0.042537	0.688359
C107	C	0.794056	0.207463	0.938359
C108	C	1.044056	0.457463	1.188359
C109	C	0.367274	-0.294620	0.441464
C110	C	0.617274	-0.044620	0.691464
C111	C	0.867274	0.205380	0.941464
C112	C	1.117274	0.455380	1.191464
C113	C	0.405800	-0.265720	0.398271
C114	C	0.655800	-0.015720	0.648271
C115	C	0.905800	0.234280	0.898271
C116	C	1.155800	0.484280	1.148271
C117	C	0.517246	-0.240400	0.360419
C118	C	0.767246	0.009600	0.610419
C119	C	1.017246	0.259600	0.860419
C120	C	1.267246	0.509600	1.110419
C121	C	0.480639	-0.267849	0.401455
C122	C	0.730639	-0.017849	0.651455
C123	C	0.980639	0.232151	0.901455
C124	C	1.230639	0.482151	1.151455
C125	C	0.998463	-0.370830	0.380870
C126	C	1.248463	-0.120830	0.630870
C127	C	1.498463	0.129170	0.880870
C128	C	1.748463	0.379170	1.130870
C129	C	0.998473	-0.420765	0.380879
C130	C	1.248473	-0.170765	0.630879
C131	C	1.498473	0.079235	0.880879
C132	C	1.748473	0.329235	1.130879
C133	C	1.045411	-0.730519	0.338056
C134	C	1.295411	-0.480519	0.588056
C135	C	1.545411	-0.230519	0.838056
C136	C	1.795411	0.019481	1.088056
C137	C	1.045496	-0.918195	0.338087
C138	C	1.295496	-0.668195	0.588087
C139	C	1.545496	-0.418195	0.838087
C140	C	1.795496	-0.168195	1.088087
O141	O	1.085306	-0.942551	0.301646
O142	O	1.335306	-0.692551	0.551646
O143	O	1.585306	-0.442551	0.801646
O144	O	1.835306	-0.192551	1.051646
N145	N	0.998731	-0.941559	0.380970
N146	N	1.248731	-0.691559	0.630970
N147	N	1.498731	-0.441559	0.880970
N148	N	1.748731	-0.191559	1.130970
C149	C	0.951945	-0.918001	0.423851
C150	C	1.201945	-0.668001	0.673851
C151	C	1.451945	-0.418001	0.923851
C152	C	1.701945	-0.168001	1.173851
O153	O	0.912175	-0.942181	0.460332
O154	O	1.162175	-0.692181	0.710332
O155	O	1.412175	-0.442181	0.960332
O156	O	1.662175	-0.192181	1.210332
C157	C	0.951864	-0.730326	0.423824
C158	C	1.201864	-0.480326	0.673824
C159	C	1.451864	-0.230326	0.923824
C160	C	1.701864	0.019674	1.173824
C161	C	0.998627	-0.706964	0.380933
C162	C	1.248627	-0.456964	0.630933
C163	C	1.498627	-0.206964	0.880933
C164	C	1.748627	0.043036	1.130933
C165	C	1.092171	-0.707157	0.295169
C166	C	1.342171	-0.457157	0.545169
C167	C	1.592171	-0.207157	0.795169
C168	C	1.842171	0.042843	1.045169
C169	C	1.092146	-0.660241	0.295159
C170	C	1.342146	-0.410241	0.545159
C171	C	1.592146	-0.160241	0.795159
C172	C	1.842146	0.089759	1.045159
C173	C	1.045362	-0.636686	0.338036
C174	C	1.295362	-0.386686	0.588036
C175	C	1.545362	-0.136686	0.838036
C176	C	1.795362	0.113314	1.088036
C177	C	0.998602	-0.660048	0.380923
C178	C	1.248602	-0.410048	0.630923
C179	C	1.498602	-0.160048	0.880923
C180	C	1.748602	0.089952	1.130923
C181	C	0.905081	-0.706770	0.466708
C182	C	1.155081	-0.456770	0.716708
C183	C	1.405081	-0.206770	0.966708
C184	C	1.655081	0.043230	1.216708
C185	C	0.905066	-0.659848	0.466699
C186	C	1.155066	-0.409848	0.716699
C187	C	1.405066	-0.159848	0.966699
C188	C	1.655066	0.090152	1.216699
C189	C	0.951829	-0.636486	0.423808
C190	C	1.201829	-0.386486	0.673808
C191	C	1.451829	-0.136486	0.923808
C192	C	1.701829	0.113514	1.173808
C193	C	0.951794	-0.589577	0.423789
C194	C	1.201794	-0.339577	0.673789
C195	C	1.451794	-0.089577	0.923789
C196	C	1.701794	0.160423	1.173789
N197	N	0.998559	-0.566213	0.380906
N198	N	1.248559	-0.316213	0.630906
N199	N	1.498559	-0.066213	0.880906
N200	N	1.748559	0.183787	1.130906
C201	C	1.045343	-0.589768	0.338030
C202	C	1.295343	-0.339768	0.588030
C203	C	1.545343	-0.089768	0.838030
C204	C	1.795343	0.160232	1.088030
C205	C	0.951990	-1.016534	0.423862
C206	C	1.201990	-0.766534	0.673862
C207	C	1.451990	-0.516534	0.923862
C208	C	1.701990	-0.266534	1.173862
C209	C	0.952010	-1.063452	0.423868
C210	C	1.202010	-0.813452	0.673868
C211	C	1.452010	-0.563452	0.923868
C212	C	1.702010	-0.313452	1.173868
C213	C	1.045562	-1.063642	0.338104
C214	C	1.295562	-0.813642	0.588104
C215	C	1.545562	-0.563642	0.838104
C216	C	1.795562	-0.313642	1.088104
C217	C	1.045539	-1.016723	0.338095
C218	C	1.295539	-0.766723	0.588095
C219	C	1.545539	-0.516723	0.838095
C220	C	1.795539	-0.266723	1.088095
C221	C	0.998755	-0.993169	0.380979
C222	C	1.248755	-0.743169	0.630979
C223	C	1.498755	-0.493169	0.880979
C224	C	1.748755	-0.243169	1.130979
C225	C	1.045288	-0.491240	0.338011
C226	C	1.295288	-0.241240	0.588011
C227	C	1.545288	0.008760	0.838011
C228	C	1.795288	0.258760	1.088011
C229	C	1.045257	-0.444319	0.338003
C230	C	1.295257	-0.194319	0.588003
C231	C	1.545257	0.055681	0.838003
C232	C	1.795257	0.305681	1.088003
C233	C	0.951708	-0.444133	0.423769
C234	C	1.201708	-0.194133	0.673769
C235	C	1.451708	0.055867	0.923769
C236	C	1.701708	0.305867	1.173769
C237	C	0.951735	-0.491049	0.423775
C238	C	1.201735	-0.241049	0.673775
C239	C	1.451735	0.008951	0.923775
C240	C	1.701735	0.258951	1.173775
C241	C	0.998531	-0.514602	0.380894
C242	C	1.248531	-0.264602	0.630894
C243	C	1.498531	-0.014602	0.880894
C244	C	1.748531	0.235398	1.130894
O245	O	0.912011	-0.565193	0.460217
O246	O	1.162011	-0.315193	0.710217
O247	O	1.412011	-0.065193	0.960217
O248	O	1.662011	0.184807	1.210217
O249	O	1.085117	-0.565581	0.301566
O250	O	1.335117	-0.315581	0.551566
O251	O	1.585117	-0.065581	0.801566
O252	O	1.835117	0.184419	1.051566
C253	C	1.045435	-0.777435	0.338066
C254	C	1.295435	-0.527435	0.588066
C255	C	1.545435	-0.277435	0.838066
C256	C	1.795435	-0.027435	1.088066
C257	C	0.998676	-0.800797	0.380953
C258	C	1.248676	-0.550797	0.630953
C259	C	1.498676	-0.300797	0.880953
C260	C	1.748676	-0.050797	1.130953
C261	C	0.951891	-0.777243	0.423830
C262	C	1.201891	-0.527243	0.673830
C263	C	1.451891	-0.277243	0.923830
C264	C	1.701891	-0.027243	1.173830
C265	C	0.998695	-0.847716	0.380959
C266	C	1.248695	-0.597716	0.630959
C267	C	1.498695	-0.347716	0.880959
C268	C	1.748695	-0.097716	1.130959
C269	C	1.045479	-0.871270	0.338082
C270	C	1.295479	-0.621270	0.588082
C271	C	1.545479	-0.371270	0.838082
C272	C	1.795479	-0.121270	1.088082
C273	C	1.092244	-0.847906	0.295199
C274	C	1.342244	-0.597906	0.545199
C275	C	1.592244	-0.347906	0.795199
C276	C	1.842244	-0.097906	1.045199
C277	C	1.092220	-0.800990	0.295189
C278	C	1.342220	-0.550990	0.545189
C279	C	1.592220	-0.300990	0.795189
C280	C	1.842220	-0.050990	1.045189
C281	C	0.905126	-0.800607	0.466712
C282	C	1.155126	-0.550607	0.716712
C283	C	1.405126	-0.300607	0.966712
C284	C	1.655126	-0.050607	1.216712
C285	C	0.905154	-0.847523	0.466718
C286	C	1.155154	-0.597523	0.716718
C287	C	1.405154	-0.347523	0.966718
C288	C	1.655154	-0.097523	1.216718
C289	C	0.951938	-0.871078	0.423842
C290	C	1.201938	-0.621078	0.673842
C291	C	1.451938	-0.371078	0.923842
C292	C	1.701938	-0.121078	1.173842
C293	C	1.181445	-0.259331	0.388721
C294	C	1.431445	-0.009331	0.638721
C295	C	1.681445	0.240669	0.888721
C296	C	1.931445	0.490669	1.138721
C297	C	1.259368	-0.261556	0.392050
C298	C	1.509368	-0.011556	0.642050
C299	C	1.759368	0.238444	0.892050
C300	C	2.009368	0.488444	1.142050
C301	C	0.990819	-0.258860	0.563768
C302	C	1.240819	-0.008860	0.813768
C303	C	1.490819	0.241140	1.063768
C304	C	1.740819	0.491140	1.313768
C305	C	0.987508	-0.260884	0.641691
C306	C	1.237508	-0.010884	0.891691
C307	C	1.487508	0.239116	1.141691
C308	C	1.737508	0.489116	1.391691
C309	C	0.998732	-0.136939	0.380967
C310	C	1.248732	0.113061	0.630967
C311	C	1.498732	0.363061	0.880967
C312	C	1.748732	0.613061	1.130967
C313	C	0.998794	-0.087007	0.380991
C314	C	1.248794	0.162993	0.630991
C315	C	1.498794	0.412993	0.880991
C316	C	1.748794	0.662993	1.130991
C317	C	1.006368	-0.249350	0.198766
C318	C	1.256368	0.000650	0.448766
C319	C	1.506368	0.250650	0.698766
C320	C	1.756368	0.500650	0.948766
C321	C	1.009815	-0.247204	0.120849
C322	C	1.259815	0.002796	0.370849
C323	C	1.509815	0.252796	0.620849
C324	C	1.759815	0.502796	0.870849
C325	C	1.030820	-0.234387	0.680230
C326	C	1.280820	0.015613	0.930230
C327	C	1.530820	0.265613	1.180230
C328	C	1.780820	0.515613	1.430230
C329	C	1.027700	-0.236286	0.753446
C330	C	1.277700	0.013714	1.003446
C331	C	1.527700	0.263714	1.253446
C332	C	1.777700	0.513714	1.503446
C333	C	0.981272	-0.264686	0.788123
C334	C	1.231272	-0.014686	1.038123
C335	C	1.481272	0.235314	1.288123
C336	C	1.731272	0.485314	1.538123
C337	C	0.937956	-0.291184	0.749580
C338	C	1.187956	-0.041184	0.999580
C339	C	1.437956	0.208816	1.249580
C340	C	1.687956	0.458816	1.499580
C341	C	0.941072	-0.289282	0.676364
C342	C	1.191072	-0.039282	0.926364
C343	C	1.441072	0.210718	1.176364
C344	C	1.691072	0.460718	1.426364
C345	C	0.969615	-0.271800	1.009090
C346	C	1.219615	-0.021800	1.259090
C347	C	1.469615	0.228200	1.509090
C348	C	1.719615	0.478200	1.759090
C349	C	0.966503	-0.273701	1.082311
C350	C	1.216503	-0.023701	1.332311
C351	C	1.466503	0.226299	1.582311
C352	C	1.716503	0.476299	1.832311
C353	C	1.056247	-0.218802	1.086172
C354	C	1.306247	0.031198	1.336172
C355	C	1.556247	0.281198	1.586172
C356	C	1.806247	0.531198	1.836172
C357	C	1.059362	-0.216905	1.012955
C358	C	1.309362	0.033095	1.262955
C359	C	1.559362	0.283095	1.512955
C360	C	1.809362	0.533095	1.762955
C361	C	1.016043	-0.243401	0.974418
C362	C	1.266043	0.006599	1.224418
C363	C	1.516043	0.256599	1.474418
C364	C	1.766043	0.506599	1.724418
C365	C	0.978084	-0.266629	0.862963
C366	C	1.228084	-0.016629	1.112963
C367	C	1.478084	0.233371	1.362963
C368	C	1.728084	0.483371	1.612963
C369	C	1.019228	-0.241455	0.899580
C370	C	1.269228	0.008545	1.149580
C371	C	1.519228	0.258545	1.399580
C372	C	1.769228	0.508545	1.649580
H373	H	0.508885	-0.293070	0.439160
H374	H	0.758885	-0.043070	0.689160
H375	H	1.008885	0.206930	0.939160
H376	H	1.258885	0.456930	1.189160
H377	H	1.083395	-0.510411	0.303095
H378	H	1.333395	-0.260411	0.553095
H379	H	1.583395	-0.010411	0.803095
H380	H	1.833395	0.239589	1.053095
H381	H	0.900150	-0.314306	0.777819
H382	H	1.150150	-0.064306	1.027819
H383	H	1.400150	0.185694	1.277819
H384	H	1.650150	0.435694	1.527819
H385	H	0.905796	-0.310854	0.644987
H386	H	1.155796	-0.060854	0.894987
H387	H	1.405796	0.189146	1.144987
H388	H	1.655796	0.439146	1.394987
H389	H	1.091514	-0.197230	1.117557
H390	H	1.341514	0.052770	1.367557
H391	H	1.591514	0.302770	1.617557
H392	H	1.841514	0.552770	1.867557
H393	H	1.057027	-0.218330	0.871343
H394	H	1.307027	0.031670	1.121343
H395	H	1.557027	0.281670	1.371343
H396	H	1.807027	0.531670	1.621343
H397	H	0.488994	-0.215177	0.322714
H398	H	0.738994	0.034823	0.572714
H399	H	0.988994	0.284823	0.822714
H400	H	1.238994	0.534823	1.072714
H401	H	1.083337	-0.425299	0.303073
H402	H	1.333337	-0.175299	0.553073
H403	H	1.583337	0.074701	0.803073
H404	H	1.833337	0.324701	1.053073
H405	H	1.062971	-0.214710	0.784821
H406	H	1.312971	0.035290	1.034821
H407	H	1.562971	0.285290	1.284821
H408	H	1.812971	0.535290	1.534821
H409	H	1.130336	-0.867092	0.260286
H410	H	1.380336	-0.617092	0.510286
H411	H	1.630336	-0.367092	0.760286
H412	H	1.880336	-0.117092	1.010286
H413	H	0.928693	-0.296828	1.110543
H414	H	1.178693	-0.046828	1.360543
H415	H	1.428693	0.203172	1.610543
H416	H	1.678693	0.453172	1.860543
H417	H	0.913924	-1.082469	0.458787
H418	H	1.163924	-0.832469	0.708787
H419	H	1.413924	-0.582469	0.958787
H420	H	1.663924	-0.332469	1.208787
H421	H	0.595408	-0.297040	0.445078
H422	H	0.845408	-0.047040	0.695078
H423	H	1.095408	0.202960	0.945078
H424	H	1.345408	0.452960	1.195078
H425	H	0.913892	-0.997359	0.458784
H426	H	1.163892	-0.747359	0.708784
H427	H	1.413892	-0.497359	0.958784
H428	H	1.663892	-0.247359	1.208784
H429	H	1.097171	-0.193780	0.984727
H430	H	1.347171	0.056220	1.234727
H431	H	1.597171	0.306220	1.484727
H432	H	1.847171	0.556220	1.734727
H433	H	0.934351	-0.293382	0.977722
H434	H	1.184351	-0.043382	1.227722
H435	H	1.434351	0.206618	1.477722
H436	H	1.684351	0.456618	1.727722
H437	H	0.602369	-0.188407	0.282702
H438	H	0.852369	0.061593	0.532702
H439	H	1.102369	0.311593	0.782702
H440	H	1.352369	0.561593	1.032702
H441	H	0.940285	-0.289754	0.891205
H442	H	1.190285	-0.039754	1.141205
H443	H	1.440285	0.210246	1.391205
H444	H	1.690285	0.460246	1.641205
H445	H	0.262680	-0.316066	0.473526
H446	H	0.512680	-0.066066	0.723526
H447	H	0.762680	0.183934	0.973526
H448	H	1.012680	0.433934	1.223526
H449	H	0.735203	-0.192183	0.288345
H450	H	0.985203	0.057817	0.538345
H451	H	1.235203	0.307817	0.788345
H452	H	1.485203	0.557817	1.038345
H453	H	0.269654	-0.207429	0.311151
H454	H	0.519654	0.042571	0.561151
H455	H	0.769654	0.292571	0.811151
H456	H	1.019654	0.542571	1.061151
H457	H	0.867068	-0.866540	0.501645
H458	H	1.117068	-0.616540	0.751645
H459	H	1.367068	-0.366540	1.001645
H460	H	1.617068	-0.116540	1.251645
H461	H	1.068629	-0.211262	0.652001
H462	H	1.318629	0.038738	0.902001
H463	H	1.568629	0.288738	1.152001
H464	H	1.818629	0.538738	1.402001
H465	H	0.728230	-0.300822	0.450719
H466	H	0.978230	-0.050822	0.700719
H467	H	1.228230	0.199178	0.950719
H468	H	1.478230	0.449178	1.200719
H469	H	0.867030	-0.781432	0.501629
H470	H	1.117030	-0.531432	0.751629
H471	H	1.367030	-0.281432	1.001629
H472	H	1.617030	-0.031432	1.251629
H473	H	0.395512	-0.319847	0.479171
H474	H	0.645512	-0.069847	0.729171
H475	H	0.895512	0.180153	0.979171
H476	H	1.145512	0.430153	1.229171
H477	H	1.130227	-0.641222	0.260236
H478	H	1.380227	-0.391222	0.510236
H479	H	1.630227	-0.141222	0.760236
H480	H	1.880227	0.108778	1.010236
H481	H	1.130272	-0.726330	0.260254
H482	H	1.380272	-0.476330	0.510254
H483	H	1.630272	-0.226330	0.760254
H484	H	1.880272	0.023670	1.010254
H485	H	0.402476	-0.211211	0.316789
H486	H	0.652476	0.038789	0.566789
H487	H	0.902476	0.288789	0.816789
H488	H	1.152476	0.538789	1.066789
H489	H	1.083618	-0.997704	0.303170
H490	H	1.333618	-0.747704	0.553170
H491	H	1.583618	-0.497704	0.803170
H492	H	1.833618	-0.247704	1.053170
H493	H	1.083656	-1.082829	0.303192
H494	H	1.333656	-0.832829	0.553192
H495	H	1.583656	-0.582829	0.803192
H496	H	1.833656	-0.332829	1.053192
H497	H	0.866970	-0.640673	0.501623
H498	H	1.116970	-0.390673	0.751623
H499	H	1.366970	-0.140673	1.001623
H500	H	1.616970	0.109327	1.251623
H501	H	0.866998	-0.725783	0.501631
H502	H	1.116998	-0.475783	0.751631
H503	H	1.366998	-0.225783	1.001631
H504	H	1.616998	0.024217	1.251631
H505	H	0.913659	-0.510072	0.458702
H506	H	1.163659	-0.260072	0.708702
H507	H	1.413659	-0.010072	0.958702
H508	H	1.663659	0.239928	1.208702
H509	H	0.913614	-0.424947	0.458676
H510	H	1.163614	-0.174947	0.708676
H511	H	1.413614	0.075053	0.958676
H512	H	1.663614	0.325053	1.208676
H513	H	1.130299	-0.781972	0.260264
H514	H	1.380299	-0.531972	0.510264
H515	H	1.630299	-0.281972	0.760264
H516	H	1.880299	-0.031972	1.010264
