data_functionalizedCrystal
_audit_creation_method	'MofGen! by Chris Wilmer'
_symmetry_space_group_name_H-M	'P1'
_symmetry_Int_Tables_number	1
_symmetry_cell_setting	triclinic
loop_
_symmetry_equiv_pos_as_xyz
  x,y,z
_cell_length_a	14.519709
_cell_length_b	19.288840
_cell_length_c	18.366186
_cell_angle_alpha	89.983729
_cell_angle_beta	90.000036
_cell_angle_gamma	96.596919
loop_
_atom_site_label
_atom_site_type_symbol
_atom_site_fract_x
_atom_site_fract_y
_atom_site_fract_z
O1	O	-0.114935	0.921777	-0.060662
O2	O	0.385065	1.421777	0.439338
O3	O	-0.130478	0.719570	-0.060635
O4	O	0.369522	1.219570	0.439365
O5	O	0.011567	0.826035	-0.060656
O6	O	0.511567	1.326035	0.439344
O7	O	-0.256980	0.815313	-0.060641
O8	O	0.243020	1.315313	0.439359
O9	O	0.011573	0.826017	0.060444
O10	O	0.511573	1.326017	0.560444
O11	O	-0.130471	0.719552	0.060464
O12	O	0.369529	1.219552	0.560464
O13	O	-0.114928	0.921759	0.060438
O14	O	0.385072	1.421759	0.560438
Zn15	Zn	-0.122699	0.820653	0.079678
Zn16	Zn	0.377301	1.320653	0.579678
Zn17	Zn	-0.122708	0.820677	-0.079875
Zn18	Zn	0.377292	1.320677	0.420125
O19	O	-0.256973	0.815294	0.060458
O20	O	0.243027	1.315294	0.560458
C21	C	-0.129979	0.693683	-0.000082
C22	C	0.370021	1.193683	0.499918
C23	C	-0.128489	0.616573	-0.000072
C24	C	0.371511	1.116573	0.499928
C25	C	-0.127777	0.580377	-0.066086
C26	C	0.372223	1.080377	0.433914
C27	C	-0.126367	0.507925	-0.066095
C28	C	0.373633	1.007925	0.433905
C29	C	-0.125650	0.471673	-0.000087
C30	C	0.374350	0.971673	0.499913
C31	C	-0.126367	0.507878	0.065935
C32	C	0.373633	1.007878	0.565935
C33	C	-0.127787	0.580328	0.065942
C34	C	0.372213	1.080328	0.565942
C35	C	-0.069381	0.362136	0.050471
C36	C	0.430619	0.862136	0.550471
C37	C	-0.067956	0.289688	0.050462
C38	C	0.432044	0.789688	0.550462
C39	C	-0.121276	0.248214	-0.000106
C40	C	0.378724	0.748214	0.499894
C41	C	-0.176010	0.279198	-0.050676
C42	C	0.323990	0.779198	0.449324
C43	C	-0.177429	0.351648	-0.050669
C44	C	0.322571	0.851648	0.449331
C45	C	-0.124112	0.393114	-0.000087
C46	C	0.375888	0.893114	0.499913
C47	C	-0.119037	0.133457	-0.066133
C48	C	0.380963	0.633457	0.433867
C49	C	-0.117633	0.061003	-0.066140
C50	C	0.382367	0.561003	0.433860
C51	C	-0.117624	0.060959	0.065892
C52	C	0.382376	0.560959	0.565892
C53	C	-0.119037	0.133410	0.065896
C54	C	0.380963	0.633410	0.565896
C55	C	-0.119740	0.169655	-0.000118
C56	C	0.380260	0.669655	0.499882
C57	C	-0.291333	0.815803	-0.000090
C58	C	0.208667	1.315803	0.499910
C59	C	-0.393704	0.817301	-0.000085
C60	C	0.106296	1.317301	0.499915
C61	C	-0.768565	0.822813	-0.000115
C62	C	-0.268565	1.322813	0.499885
C63	C	-0.664266	0.821283	-0.000106
C64	C	-0.164266	1.321283	0.499894
C65	C	-0.581138	0.820057	-0.000099
C66	C	-0.081138	1.320057	0.499901
C67	C	-0.476833	0.818526	-0.000092
C68	C	0.023167	1.318526	0.499908
C69	C	0.045927	0.825526	-0.000109
C70	C	0.545927	1.325526	0.499891
C71	C	0.148298	0.824029	-0.000119
C72	C	0.648298	1.324029	0.499881
C73	C	-0.115428	0.947647	-0.000117
C74	C	0.384572	1.447647	0.499883
C75	C	-0.116917	1.024757	-0.000131
C76	C	0.383083	1.524757	0.499869
N77	N	-0.122692	0.820642	0.188569
N78	N	0.377308	1.320642	0.688569
N79	N	-0.122707	0.820693	-0.188767
N80	N	0.377293	1.320693	0.311233
C81	C	-0.059825	0.867800	0.226661
C82	C	0.440175	1.367800	0.726661
C83	C	-0.059821	0.867804	0.302889
C84	C	0.440179	1.367804	0.802889
C85	C	-0.122699	0.820657	0.341022
C86	C	0.377301	1.320657	0.841022
C87	C	-0.185571	0.773490	0.302922
C88	C	0.314429	1.273490	0.802922
C89	C	-0.185567	0.773482	0.226695
C90	C	0.314433	1.273482	0.726695
C91	C	-0.206729	0.811661	0.461788
C92	C	0.293271	1.311661	0.961788
C93	C	-0.206734	0.811674	0.538013
C94	C	0.293266	1.311674	1.038013
C95	C	-0.122711	0.820677	0.576130
C96	C	0.377289	1.320677	1.076130
C97	C	-0.038679	0.829682	0.538012
C98	C	0.461321	1.329682	1.038012
C99	C	-0.038675	0.829674	0.461786
C100	C	0.461325	1.329674	0.961786
C101	C	-0.122710	0.820660	0.423677
C102	C	0.377290	1.320660	0.923677
C103	C	-0.059835	0.867842	0.696876
C104	C	0.440165	1.367842	1.196876
C105	C	-0.059829	0.867842	0.773105
C106	C	0.440171	1.367842	1.273105
C107	C	-0.185587	0.773531	0.773137
C108	C	0.314413	1.273531	1.273137
C109	C	-0.185584	0.773528	0.696909
C110	C	0.314416	1.273528	1.196909
C111	C	-0.122709	0.820687	0.658783
C112	C	0.377291	1.320687	1.158783
H113	H	-0.128349	0.609883	-0.119840
H114	H	0.371651	1.109883	0.380160
H115	H	-0.236780	0.735140	0.804185
H116	H	0.263220	1.235140	1.304185
Br117	Br	-0.248380	0.222921	-0.119307
Br118	Br	0.251620	0.722921	0.380693
H119	H	-0.119618	0.162968	-0.119887
H120	H	0.380382	0.662968	0.380113
H121	H	0.029740	0.837013	0.569045
H122	H	0.529740	1.337013	1.069045
Br123	Br	0.025506	0.931797	0.174918
Br124	Br	0.525506	1.431797	0.674918
H125	H	-0.119611	0.162882	0.119652
H126	H	0.380389	0.662882	0.619652
Br127	Br	-0.116678	0.011877	-0.155737
Br128	Br	0.383322	0.511877	0.344263
Br129	Br	0.025507	0.931809	0.354593
Br130	Br	0.525507	1.431809	0.854593
Br131	Br	-0.125403	0.458790	-0.155690
Br132	Br	0.374597	0.958790	0.344310
H133	H	-0.221997	0.376872	-0.091843
H134	H	0.278003	0.876872	0.408157
Br135	Br	-0.128755	0.629454	0.155539
Br136	Br	0.371245	1.129454	0.655539
H137	H	-0.117046	0.031443	0.119637
H138	H	0.382954	0.531443	0.619637
Br139	Br	-0.270910	0.709527	0.645208
Br140	Br	0.229090	1.209527	1.145208
Br141	Br	0.075361	0.841889	0.410057
Br142	Br	0.575361	1.341889	0.910057
Br143	Br	-0.270891	0.709476	0.174995
Br144	Br	0.229109	1.209476	0.674995
H145	H	-0.275155	0.804318	0.430759
H146	H	0.224845	1.304318	0.930759
Br147	Br	0.025504	0.931841	0.824805
Br148	Br	0.525504	1.431841	1.324805
Br149	Br	-0.320774	0.799460	0.589736
Br150	Br	0.179226	1.299460	1.089736
Br151	Br	-0.270901	0.709499	0.354671
Br152	Br	0.229099	1.209499	0.854671
Br153	Br	0.002984	0.418414	0.119108
Br154	Br	0.502984	0.918414	0.619108
Br155	Br	0.006300	0.247643	0.119105
Br156	Br	0.506300	0.747643	0.619105
Br157	Br	0.025498	0.931841	0.645132
Br158	Br	0.525498	1.431841	1.145132
Br159	Br	-0.125405	0.458681	0.155518
Br160	Br	0.374595	0.958681	0.655518
