data_functionalizedCrystal
_audit_creation_method	'MofGen! by Chris Wilmer'
_symmetry_space_group_name_H-M	'P1'
_symmetry_Int_Tables_number	1
_symmetry_cell_setting	triclinic
loop_
_symmetry_equiv_pos_as_xyz
  x,y,z
_cell_length_a	16.959455
_cell_length_b	19.120786
_cell_length_c	16.959447
_cell_angle_alpha	92.473411
_cell_angle_beta	90.020374
_cell_angle_gamma	92.461932
loop_
_atom_site_label
_atom_site_type_symbol
_atom_site_fract_x
_atom_site_fract_y
_atom_site_fract_z
Zn1	Zn	1.194928	-0.279672	0.433590
Zn2	Zn	1.189199	-0.397140	0.295764
Zn3	Zn	1.062756	-0.279694	0.301413
Zn4	Zn	1.057073	-0.397088	0.427892
O5	O	1.125989	-0.338399	0.364665
O6	O	1.304779	-0.295267	0.415329
O7	O	1.172407	-0.381592	0.185901
O8	O	1.085065	-0.181401	0.323696
O9	O	1.300570	-0.381570	0.314068
O10	O	1.182172	-0.181385	0.420806
O11	O	1.079510	-0.295305	0.190051
O12	O	0.951392	-0.295254	0.318170
O13	O	1.075379	-0.381481	0.539260
O14	O	0.947216	-0.381503	0.411093
O15	O	1.176661	-0.295216	0.543447
O16	O	1.166896	-0.495424	0.308542
O17	O	1.069823	-0.495385	0.405616
C18	C	0.920624	-0.338376	0.364626
C19	C	0.832767	-0.338383	0.364627
C20	C	0.459090	-0.383292	0.311915
C21	C	0.463488	-0.293563	0.417508
C22	C	0.546034	-0.293552	0.417489
C23	C	0.585113	-0.338412	0.364684
C24	C	0.541644	-0.383284	0.311896
C25	C	0.589509	-0.248686	0.470281
C26	C	0.672060	-0.248673	0.470265
C27	C	0.711140	-0.293530	0.417455
C28	C	0.667667	-0.338403	0.364665
C29	C	0.706745	-0.383263	0.311859
C30	C	0.663273	-0.428133	0.259065
C31	C	0.580724	-0.428141	0.259086
C32	C	0.793689	-0.293523	0.417433
C33	C	0.789299	-0.383255	0.311840
C34	C	1.117143	-0.520890	0.355865
C35	C	1.113431	-0.598960	0.352127
C36	C	1.162207	-0.635569	0.400972
C37	C	1.158716	-0.708925	0.397461
C38	C	1.106452	-0.745670	0.345100
C39	C	1.057670	-0.709056	0.296253
C40	C	1.061158	-0.635702	0.299769
C41	C	1.093391	-0.967156	0.331957
C42	C	1.089908	-1.040515	0.328444
C43	C	1.190954	-1.040379	0.429653
C44	C	1.194440	-0.967023	0.433160
C45	C	1.145655	-0.930416	0.384316
C46	C	1.102884	-0.820651	0.341508
C47	C	1.149220	-0.855436	0.387913
C48	C	1.332156	-0.338422	0.364704
C49	C	1.420012	-0.338432	0.364721
C50	C	1.126025	-0.338341	0.570836
C51	C	1.126040	-0.338316	0.658694
C52	C	1.134891	-0.155195	0.373516
C53	C	1.138685	-0.077124	0.377289
C54	C	1.126001	-0.338406	0.159298
C55	C	1.126149	-0.338233	0.071450
C56	C	1.073405	-0.383156	1.027996
C57	C	1.178871	-0.293328	1.032351
C58	C	1.178849	-0.293342	0.949804
C59	C	1.126105	-0.338265	0.906349
C60	C	1.073383	-0.383173	0.945441
C61	C	1.231576	-0.248440	0.910706
C62	C	1.231557	-0.248454	0.828154
C63	C	1.178808	-0.293374	0.784698
C64	C	1.126084	-0.338283	0.823795
C65	C	1.073340	-0.383206	0.780340
C66	C	1.020610	-0.428112	0.819436
C67	C	1.020635	-0.428093	0.901985
C68	C	1.178784	-0.293393	0.702149
C69	C	1.073318	-0.383224	0.697786
H70	H	0.557685	-0.212168	0.513278
H71	H	1.053669	-0.937356	0.292185
H72	H	1.198442	-0.738728	0.437229
N73	N	0.966775	-0.473965	0.941909
N74	N	0.968849	-0.538781	0.929553
H75	H	0.930806	-0.571177	0.957748
H76	H	1.274522	-0.211871	0.946092
H77	H	1.060333	-0.850578	0.298874
N78	N	1.036544	-1.078040	0.274921
N79	N	0.993010	-1.045348	0.231295
H80	H	0.955335	-1.071850	0.193485
N81	N	1.019534	-0.429023	1.067913
N82	N	0.972441	-0.469122	1.029102
H83	H	0.934389	-0.501512	1.057293
N84	N	1.215606	-0.598049	0.454455
N85	N	1.259152	-0.630748	0.498063
H86	H	1.296866	-0.604251	0.535838
N87	N	0.838081	-0.247694	0.471363
N88	N	0.803180	-0.207648	0.518510
H89	H	0.834532	-0.175278	0.556601
H90	H	0.707448	-0.212137	0.513253
N91	N	1.285408	-0.202590	0.788208
N92	N	1.334561	-0.227315	0.740947
H93	H	1.372592	-0.194922	0.712733
N94	N	0.414703	-0.429123	0.257979
N95	N	0.424117	-0.424382	0.185279
H96	H	0.392769	-0.456751	0.147184
N97	N	1.247835	-0.929502	0.486647
N98	N	1.291383	-0.962198	0.530255
H99	H	1.329097	-0.935699	0.568029
N100	N	1.232648	-0.247528	0.662226
N101	N	1.279741	-0.207427	0.701033
H102	H	1.317785	-0.175031	0.672839
H103	H	1.230671	-1.070193	0.469419
H104	H	0.977670	-0.464692	0.784044
N105	N	1.004281	-0.746599	0.242778
N106	N	1.001173	-0.812093	0.239645
H107	H	0.963466	-0.838608	0.201877
H108	H	0.695101	-0.464662	0.216074
H109	H	0.821110	-0.419783	0.268836
H110	H	0.545322	-0.464671	0.216103
H111	H	1.021438	-0.605896	0.259995
H112	H	1.191771	-0.825516	0.430548
N113	N	0.423561	-0.247754	0.471447
N114	N	0.349857	-0.247772	0.471459
H115	H	0.321654	-0.215417	0.509555
N116	N	1.019449	-0.429122	0.653400
N117	N	1.045073	-0.473897	0.605177
H118	H	1.007029	-0.506313	0.573829
N119	N	1.232747	-0.247454	1.076747
N120	N	1.232763	-0.247450	1.150451
H121	H	1.270815	-0.215050	1.181810
