data_functionalizedCrystal
_audit_creation_method	'MofGen! by Chris Wilmer'
_symmetry_space_group_name_H-M	'P1'
_symmetry_Int_Tables_number	1
_symmetry_cell_setting	triclinic
loop_
_symmetry_equiv_pos_as_xyz
  x,y,z
_cell_length_a	11.026607
_cell_length_b	13.596369
_cell_length_c	11.026607
_cell_angle_alpha	89.996407
_cell_angle_beta	71.413983
_cell_angle_gamma	90.004310
loop_
_atom_site_label
_atom_site_type_symbol
_atom_site_fract_x
_atom_site_fract_y
_atom_site_fract_z
O1	O	1.726735	0.081789	-0.533626
O2	O	1.976735	0.331789	-0.283626
O3	O	2.226735	0.581789	-0.033626
O4	O	2.476735	0.831789	0.216374
O5	O	1.360155	0.081791	-0.472862
O6	O	1.610155	0.331791	-0.222862
O7	O	1.860155	0.581791	0.027138
O8	O	2.110155	0.831791	0.277138
O9	O	1.513063	0.081786	-0.319954
O10	O	1.763063	0.331786	-0.069954
O11	O	2.013063	0.581786	0.180046
O12	O	2.263063	0.831786	0.430046
O13	O	1.573827	0.081793	-0.686534
O14	O	1.823827	0.331793	-0.436534
O15	O	2.073827	0.581793	-0.186534
O16	O	2.323827	0.831793	0.063466
O17	O	1.513042	-0.081797	-0.319940
O18	O	1.763042	0.168203	-0.069940
O19	O	2.013042	0.418203	0.180060
O20	O	2.263042	0.668203	0.430060
O21	O	1.360133	-0.081792	-0.472848
O22	O	1.610133	0.168208	-0.222848
O23	O	1.860133	0.418208	0.027152
O24	O	2.110133	0.668208	0.277152
O25	O	1.726713	-0.081794	-0.533611
O26	O	1.976713	0.168206	-0.283611
O27	O	2.226713	0.418206	-0.033611
O28	O	2.476713	0.668206	0.216389
Zn29	Zn	1.543420	-0.107765	-0.503227
Zn30	Zn	1.793420	0.142235	-0.253227
Zn31	Zn	2.043420	0.392235	-0.003227
Zn32	Zn	2.293420	0.642235	0.246773
Zn33	Zn	1.543449	0.107762	-0.503247
Zn34	Zn	1.793449	0.357762	-0.253247
Zn35	Zn	2.043449	0.607762	-0.003247
Zn36	Zn	2.293449	0.857762	0.246753
O37	O	1.573805	-0.081790	-0.686520
O38	O	1.823805	0.168210	-0.436520
O39	O	2.073805	0.418210	-0.186520
O40	O	2.323805	0.668210	0.063480
C41	C	1.312485	-0.000001	-0.461645
C42	C	1.562485	0.249999	-0.211645
C43	C	1.812485	0.499999	0.038355
C44	C	2.062485	0.749999	0.288355
C45	C	1.170471	-0.000000	-0.428228
C46	C	1.420471	0.250000	-0.178228
C47	C	1.670471	0.500000	0.071772
C48	C	1.920471	0.750000	0.321772
C49	C	1.116821	0.000002	-0.520498
C50	C	1.366821	0.250002	-0.270498
C51	C	1.616821	0.500002	-0.020498
C52	C	1.866821	0.750002	0.229502
C53	C	0.970043	0.000003	-0.485962
C54	C	1.220043	0.250003	-0.235962
C55	C	1.470043	0.500003	0.014038
C56	C	1.720043	0.750003	0.264038
N57	N	1.543410	-0.254857	-0.503215
N58	N	1.793410	-0.004857	-0.253215
N59	N	2.043410	0.245143	-0.003215
N60	N	2.293410	0.495143	0.246785
C61	C	1.543447	-0.656148	-0.503248
C62	C	1.793447	-0.406148	-0.253248
C63	C	2.043447	-0.156148	-0.003248
C64	C	2.293447	0.093852	0.246752
C65	C	1.543434	-0.544497	-0.503242
C66	C	1.793434	-0.294497	-0.253242
C67	C	2.043434	-0.044497	-0.003242
C68	C	2.293434	0.205503	0.246758
C69	C	1.543429	-0.455506	-0.503233
C70	C	1.793429	-0.205506	-0.253233
C71	C	2.043429	0.044494	-0.003233
C72	C	2.293429	0.294494	0.246767
C73	C	1.543414	-0.343848	-0.503225
C74	C	1.793414	-0.093848	-0.253225
C75	C	2.043414	0.156152	-0.003225
C76	C	2.293414	0.406152	0.246775
C77	C	1.774384	-0.000001	-0.544828
C78	C	2.024384	0.249999	-0.294828
C79	C	2.274384	0.499999	-0.044828
C80	C	2.524384	0.749999	0.205172
C81	C	1.916398	0.000005	-0.578245
C82	C	2.166398	0.250005	-0.328245
C83	C	2.416398	0.500005	-0.078245
C84	C	2.666398	0.750005	0.171755
C85	C	1.501843	-0.000004	-0.272287
C86	C	1.751843	0.249996	-0.022287
C87	C	2.001843	0.499996	0.227713
C88	C	2.251843	0.749996	0.477713
C89	C	1.468426	-0.000000	-0.130273
C90	C	1.718426	0.250000	0.119727
C91	C	1.968426	0.500000	0.369727
C92	C	2.218426	0.750000	0.619727
N93	N	1.543467	0.254854	-0.503251
N94	N	1.793467	0.504854	-0.253251
N95	N	2.043467	0.754854	-0.003251
N96	N	2.293467	1.004854	0.246749
C97	C	1.585026	0.000003	-0.734187
C98	C	1.835026	0.250003	-0.484187
C99	C	2.085026	0.500003	-0.234187
C100	C	2.335026	0.750003	0.015813
C101	C	1.618443	0.000006	-0.876200
C102	C	1.868443	0.250006	-0.626200
C103	C	2.118443	0.500006	-0.376200
C104	C	2.368443	0.750006	-0.126200
C105	C	1.560695	0.000001	-0.076624
C106	C	1.810695	0.250001	0.173376
C107	C	2.060695	0.500001	0.423376
C108	C	2.310695	0.750001	0.673376
C109	C	1.526160	0.000005	0.070155
C110	C	1.776160	0.250005	0.320155
C111	C	2.026160	0.500005	0.570155
C112	C	2.276160	0.750005	0.820155
H113	H	1.179555	-0.000001	-0.625061
H114	H	1.429555	0.249999	-0.375061
H115	H	1.679555	0.499999	-0.125061
H116	H	1.929555	0.749999	0.124939
H117	H	0.907314	0.000026	-0.381393
H118	H	1.157314	0.250026	-0.131393
H119	H	1.407314	0.500026	0.118607
H120	H	1.657314	0.750026	0.368607
C121	C	1.001126	0.000013	-0.719511
C122	C	1.251126	0.250013	-0.469511
C123	C	1.501126	0.500013	-0.219511
C124	C	1.751126	0.750013	0.030489
H125	H	1.088663	0.000021	-0.724194
H126	H	1.338663	0.250021	-0.474194
H127	H	1.588663	0.500021	-0.224194
H128	H	1.838663	0.750021	0.025806
H129	H	0.983494	-0.057027	-0.760745
H130	H	1.233494	0.192973	-0.510745
H131	H	1.483494	0.442973	-0.260745
H132	H	1.733494	0.692973	-0.010745
H133	H	0.983505	0.057070	-0.760738
H134	H	1.233505	0.307070	-0.510738
H135	H	1.483505	0.557070	-0.260738
H136	H	1.733505	0.807070	-0.010738
H137	H	1.107738	0.000023	-0.323666
H138	H	1.357738	0.250023	-0.073666
H139	H	1.607738	0.500023	0.176334
H140	H	1.857738	0.750023	0.426334
H141	H	1.665258	-0.000006	-0.139357
H142	H	1.915258	0.249994	0.110643
H143	H	2.165258	0.499994	0.360643
H144	H	2.415258	0.749994	0.610643
H145	H	1.421590	0.000011	0.132884
H146	H	1.671590	0.250011	0.382884
H147	H	1.921590	0.500011	0.632884
H148	H	2.171590	0.750011	0.882884
H149	H	1.723013	0.000079	0.061072
H150	H	1.973013	0.250079	0.311072
H151	H	2.223013	0.500079	0.561072
H152	H	2.473013	0.750079	0.811072
H153	H	1.363863	0.000007	-0.067540
H154	H	1.613863	0.250007	0.182460
H155	H	1.863863	0.500007	0.432460
H156	H	2.113863	0.750007	0.682460
