data_functionalizedCrystal
_audit_creation_method	'MofGen! by Chris Wilmer'
_symmetry_space_group_name_H-M	'P1'
_symmetry_Int_Tables_number	1
_symmetry_cell_setting	triclinic
loop_
_symmetry_equiv_pos_as_xyz
  x,y,z
_cell_length_a	15.944551
_cell_length_b	15.944551
_cell_length_c	14.421503
_cell_angle_alpha	90.003141
_cell_angle_beta	90.003340
_cell_angle_gamma	96.501262
loop_
_atom_site_label
_atom_site_type_symbol
_atom_site_fract_x
_atom_site_fract_y
_atom_site_fract_z
O1	O	0.108320	-1.114529	-0.077017
O2	O	0.121677	-0.869980	-0.077040
O3	O	-0.007276	-0.998933	-0.077020
O4	O	0.237273	-0.985576	-0.077038
O5	O	-0.007257	-0.998911	0.077204
O6	O	0.121696	-0.869958	0.077183
O7	O	0.108340	-1.114508	0.077206
Cu8	Cu	0.115020	-0.992231	0.091277
Cu9	Cu	0.114997	-0.992256	-0.091110
O10	O	0.237293	-0.985555	0.077186
C11	C	0.121132	-0.838675	0.000069
C12	C	0.119470	-0.745429	0.000060
C13	C	-0.038561	-0.998367	0.000092
C14	C	-0.131807	-0.996705	0.000093
C15	C	0.108885	-1.145813	0.000096
C16	C	0.110547	-1.239059	0.000098
C17	C	-0.346663	-0.912801	0.000072
C18	C	-0.407671	-0.951753	0.076117
C19	C	-0.302533	-0.993698	0.000085
C20	C	-0.407674	-0.951793	-0.075935
C21	C	-0.467445	-0.990787	0.000074
C22	C	-0.362312	-1.032672	0.076193
C23	C	-0.362308	-1.032701	-0.075927
C24	C	-0.423298	-1.071711	0.000136
C25	C	-0.207530	-0.995372	0.000092
C26	C	-0.562446	-0.989119	0.000073
C27	C	0.268577	-0.986120	0.000072
C28	C	0.361823	-0.987782	0.000066
N29	N	0.115035	-0.992219	0.219558
C30	C	0.035565	-0.530572	0.000084
C31	C	0.074518	-0.469563	-0.075959
C32	C	0.116462	-0.574703	0.000071
C33	C	0.074556	-0.469564	0.076093
C34	C	0.113551	-0.409790	0.000086
C35	C	0.155437	-0.514922	-0.076035
C36	C	0.155464	-0.514929	0.076086
C37	C	0.194476	-0.453937	0.000024
C38	C	0.118137	-0.669705	0.000062
C39	C	0.111883	-0.314789	0.000089
N40	N	0.114975	-0.992275	-0.219392
C41	C	0.174636	-0.932581	0.469202
C42	C	0.190943	-1.008481	0.531011
C43	C	0.115015	-0.992240	0.408719
C44	C	0.098727	-0.916359	0.531005
C45	C	0.114997	-0.992253	0.591441
C46	C	0.131360	-1.068178	0.469167
C47	C	0.039111	-0.976007	0.469156
C48	C	0.055386	-1.051961	0.530936
C49	C	0.115027	-0.992231	0.303458
C50	C	0.114985	-0.992270	0.696700
H51	H	-0.313356	-0.845652	0.000141
C52	C	-0.046396	-0.957707	0.432707
C53	C	-0.045463	-0.958733	0.335635
C54	C	-0.124219	-0.941879	0.302023
H55	H	-0.057964	-0.903744	0.453742
H56	H	-0.088887	-0.999556	0.454710
H57	H	-0.002985	-0.916886	0.313640
H58	H	-0.033909	-1.012690	0.314575
H59	H	-0.166709	-0.983728	0.324026
H60	H	-0.135780	-0.887916	0.323064
H61	H	-0.123599	-0.942580	0.236157
C62	C	-0.434602	-0.906303	-0.161691
C63	C	-0.490123	-0.961635	-0.214287
C64	C	-0.514952	-0.919750	-0.293279
H65	H	-0.386295	-0.887558	-0.197839
H66	H	-0.462107	-0.859105	-0.143446
H67	H	-0.462618	-1.008817	-0.232533
H68	H	-0.538443	-0.980382	-0.178166
H69	H	-0.542456	-0.872552	-0.275034
H70	H	-0.466640	-0.901007	-0.329420
H71	H	-0.552631	-0.957284	-0.328971
H72	H	-0.427771	-0.917527	0.140401
H73	H	0.040333	-0.449469	0.140379
C74	C	0.149981	-1.153773	0.433269
C75	C	0.229202	-1.170690	0.465419
C76	C	0.246390	-1.249536	0.432391
H77	H	0.149974	-1.153356	0.367405
H78	H	0.107911	-1.196205	0.454938
H79	H	0.271261	-1.128270	0.443745
H80	H	0.229228	-1.171125	0.531280
H81	H	0.204320	-1.291967	0.454060
H82	H	0.246379	-1.249111	0.366527
H83	H	0.300138	-1.261028	0.454207
H84	H	0.261683	-0.420779	-0.000023
H85	H	0.189620	-0.534918	-0.140394
H86	H	0.189660	-0.535052	0.140373
H87	H	-0.031573	-0.563905	-0.000005
C88	C	0.242042	-0.865484	0.433097
C89	C	0.321368	-0.882894	0.464422
C90	C	0.383484	-0.821114	0.431168
H91	H	0.231123	-0.811643	0.455156
H92	H	0.241295	-0.865619	0.367224
H93	H	0.322113	-0.882750	0.530281
H94	H	0.332313	-0.936723	0.442365
H95	H	0.382737	-0.821249	0.365295
H96	H	0.372557	-0.767277	0.453229
H97	H	0.437314	-0.832922	0.452410
C98	C	0.028730	-0.442818	-0.161594
C99	C	-0.054429	-0.481968	-0.161229
C100	C	-0.096642	-0.457346	-0.240090
H101	H	0.056816	-0.459100	-0.215662
H102	H	0.028406	-0.383271	-0.161257
H103	H	-0.054101	-0.541502	-0.161574
H104	H	-0.082538	-0.465691	-0.107178
H105	H	-0.096966	-0.397799	-0.239753
H106	H	-0.068550	-0.473629	-0.294152
H107	H	-0.153072	-0.483899	-0.239849
C108	C	0.276449	-1.026831	0.567432
C109	C	0.275046	-1.027366	0.664505
C110	C	0.353796	-1.044270	0.698087
H111	H	0.318826	-0.984427	0.546401
H112	H	0.288436	-1.080353	0.545406
H113	H	0.263069	-0.973852	0.686523
H114	H	0.232685	-1.069771	0.685561
H115	H	0.365783	-1.097791	0.676060
H116	H	0.396168	-1.001863	0.677049
H117	H	0.352852	-1.044642	0.763953
H118	H	0.004956	-1.102474	0.557872
H119	H	0.084959	-0.852183	0.558170
H120	H	-0.342314	-1.066850	0.140554
H121	H	-0.342186	-1.066897	-0.140214
C122	C	-0.467477	-1.161338	0.000389
C123	C	-0.444481	-1.203280	0.080150
C124	C	-0.485172	-1.285839	0.080426
H125	H	-0.451291	-1.190398	-0.053050
H126	H	-0.526871	-1.159829	-0.000073
H127	H	-0.385100	-1.204793	0.080604
H128	H	-0.460668	-1.174246	0.133603
H129	H	-0.544566	-1.284330	0.079964
H130	H	-0.468983	-1.314891	0.026983
H131	H	-0.469581	-1.314304	0.134546
