data_functionalizedCrystal
_audit_creation_method	'MofGen! by Chris Wilmer'
_symmetry_space_group_name_H-M	'P1'
_symmetry_Int_Tables_number	1
_symmetry_cell_setting	triclinic
loop_
_symmetry_equiv_pos_as_xyz
  x,y,z
_cell_length_a	25.639242
_cell_length_b	13.032721
_cell_length_c	13.033109
_cell_angle_alpha	105.143326
_cell_angle_beta	97.211235
_cell_angle_gamma	82.798787
loop_
_atom_site_label
_atom_site_type_symbol
_atom_site_fract_x
_atom_site_fract_y
_atom_site_fract_z
Zn1	Zn	0.809186	0.499260	0.654507
Zn2	Zn	0.789420	0.654337	0.499444
Zn3	Zn	0.711898	0.476732	0.476887
Zn4	Zn	0.711880	0.676799	0.676963
O5	O	0.755596	0.576782	0.576950
O6	O	0.879730	0.519860	0.633980
O7	O	0.770872	0.611949	0.347825
O8	O	0.733083	0.331091	0.481611
O9	O	0.865208	0.633794	0.520055
O10	O	0.804560	0.347643	0.612108
O11	O	0.713917	0.481462	0.331253
O12	O	0.638730	0.503243	0.503386
O13	O	0.733053	0.672077	0.822611
O14	O	0.638716	0.650232	0.650381
O15	O	0.804543	0.541640	0.806113
O16	O	0.770854	0.805946	0.541830
O17	O	0.713886	0.822449	0.672253
C18	C	0.619752	0.576731	0.576873
C19	C	0.561637	0.576738	0.576868
C20	C	0.740239	0.852738	0.611949
C21	C	0.733719	0.970798	0.626957
C22	C	0.771001	0.611877	0.853977
C23	C	0.777565	0.626833	0.972029
C24	C	0.201269	0.653425	0.653441
C25	C	0.146665	0.653433	0.653458
O26	O	0.118423	0.718575	0.718495
N27	N	0.119359	0.576820	0.577023
C28	C	0.146661	0.500187	0.500573
O29	O	0.118422	0.435022	0.435561
C30	C	0.201264	0.500174	0.500561
C31	C	0.228566	0.576799	0.576994
C32	C	0.228571	0.730042	0.729868
C33	C	0.283170	0.730035	0.729849
C34	C	0.310468	0.653409	0.653402
C35	C	0.283166	0.576792	0.576975
C36	C	0.228566	0.423537	0.424116
C37	C	0.283173	0.423531	0.424111
C38	C	0.310475	0.500156	0.500544
C39	C	0.365064	0.500158	0.500509
N40	N	0.392369	0.576771	0.576944
C41	C	0.365071	0.653397	0.653390
C42	C	0.031990	0.500218	0.500605
C43	C	-0.022612	0.500234	0.500611
C44	C	-0.022605	0.653479	0.653498
C45	C	0.031999	0.653467	0.653486
C46	C	0.059296	0.576831	0.577040
C47	C	0.479735	0.653375	0.653344
C48	C	0.534339	0.653364	0.653315
C49	C	0.534327	0.500115	0.500432
C50	C	0.479727	0.500130	0.500457
C51	C	0.452433	0.576765	0.576922
O52	O	0.393341	0.435047	0.435508
O53	O	0.393319	0.718543	0.718400
C54	C	0.891971	0.576834	0.577029
C55	C	0.950085	0.576856	0.577062
C56	C	0.771029	0.299751	0.541839
C57	C	0.777605	0.181697	0.526876
C58	C	0.759029	1.015239	0.569165
C59	C	0.752291	1.137260	0.584675
C60	C	0.740286	0.541747	0.300992
C61	C	0.733839	0.526492	0.182902
C62	C	0.752312	0.568939	1.016461
C63	C	0.759096	0.584395	1.138474
H64	H	0.556566	0.715765	0.715558
H65	H	0.804267	1.129414	0.465916
H66	H	0.707063	1.023087	0.687921
H67	H	0.725667	0.507935	0.964172
C68	C	0.813509	0.709346	1.042677
N69	N	0.840566	0.771529	1.095893
C70	C	0.697841	0.444068	1.112272
N71	N	0.670729	0.381986	1.059072
C72	C	0.795043	0.944605	0.486808
N73	N	0.822169	0.891405	0.424773
H74	H	0.785740	0.645408	1.190761
C75	C	0.449718	0.737684	0.737452
N76	N	0.427109	0.801192	0.800797
H77	H	0.305395	0.792429	0.792091
C78	C	-0.052642	0.737763	0.737599
N79	N	-0.075267	0.801240	0.800940
C80	C	0.313196	0.339226	0.340008
N81	N	0.335809	0.275730	0.276659
C82	C	0.198550	0.814354	0.813963
N83	N	0.175942	0.877872	0.877301
H84	H	0.725634	1.189545	0.645644
H85	H	0.054224	0.715860	0.715726
H86	H	-0.044838	0.437847	0.438362
C87	C	0.062011	0.415917	0.416491
N88	N	0.084620	0.352423	0.353136
C89	C	0.449693	0.415846	0.416370
N90	N	0.427076	0.352356	0.353040
C91	C	0.198547	0.339232	0.340042
N92	N	0.175939	0.275724	0.276716
H93	H	0.556563	0.437732	0.438188
