data_functionalizedCrystal
_audit_creation_method	'MofGen! by Chris Wilmer'
_symmetry_space_group_name_H-M	'P1'
_symmetry_Int_Tables_number	1
_symmetry_cell_setting	triclinic
loop_
_symmetry_equiv_pos_as_xyz
  x,y,z
_cell_length_a	19.121063
_cell_length_b	19.077142
_cell_length_c	19.076919
_cell_angle_alpha	90.074357
_cell_angle_beta	85.393653
_cell_angle_gamma	89.737710
loop_
_atom_site_label
_atom_site_type_symbol
_atom_site_fract_x
_atom_site_fract_y
_atom_site_fract_z
Zn1	Zn	-0.339751	-1.043167	0.454345
Zn2	Zn	-0.452662	-1.042788	0.341455
Zn3	Zn	-0.330341	-0.930803	0.331749
Zn4	Zn	-0.452237	-0.920629	0.454186
O5	O	-0.393748	-0.984347	0.395434
O6	O	-0.358844	-1.141265	0.443498
O7	O	-0.432676	-1.032032	0.241682
O8	O	-0.233322	-0.950125	0.344017
O9	O	-0.441800	-1.140987	0.360558
O10	O	-0.240235	-1.032678	0.434087
O11	O	-0.342808	-0.949758	0.234552
O12	O	-0.342395	-0.831305	0.343863
O13	O	-0.441075	-0.932784	0.552692
O14	O	-0.431951	-0.823830	0.433816
O15	O	-0.358432	-1.022813	0.552808
O16	O	-0.550873	-1.022167	0.360404
O17	O	-0.550561	-0.932417	0.443227
C18	C	-0.386107	-0.802118	0.387770
C19	C	-0.382855	-0.724159	0.384508
C20	C	-0.428020	-0.683660	0.429742
C21	C	-0.424956	-0.610409	0.426681
C22	C	-0.376730	-0.577658	0.378382
C23	C	-0.331561	-0.618163	0.333146
C24	C	-0.334622	-0.691412	0.336211
C25	C	-0.362564	-0.359001	0.364203
C26	C	-0.359508	-0.285746	0.361139
C27	C	-0.452902	-0.277997	0.454675
C28	C	-0.455962	-0.351248	0.457733
C29	C	-0.410791	-0.391746	0.412500
N30	N	-0.373598	-0.502784	0.375250
N31	N	-0.413919	-0.466619	0.415636
C32	C	-0.576198	-0.976165	0.402867
C33	C	-0.654255	-0.972728	0.406074
C34	C	-0.691068	-1.017875	0.364497
C35	C	-0.764411	-1.014646	0.367517
C36	C	-0.800938	-0.966267	0.412111
C37	C	-0.764120	-0.921119	0.453692
C38	C	-0.690779	-0.924351	0.450675
C39	C	-1.022374	-0.954171	0.423378
C40	C	-1.095721	-0.950941	0.426390
C41	C	-1.096006	-1.044469	0.340216
C42	C	-1.022664	-1.047695	0.337201
C43	C	-0.985852	-1.002549	0.378784
C44	C	-0.875906	-0.962964	0.415197
C45	C	-0.910885	-1.005855	0.375701
C46	C	-0.210586	-0.992579	0.387987
C47	C	-0.132534	-0.996087	0.384814
C48	C	-0.400756	-0.976706	0.579000
C49	C	-0.403742	-0.973450	0.657225
C50	C	-0.401415	-0.167287	0.403120
C51	C	-0.404672	-0.245247	0.406373
C52	C	-0.386718	-0.992001	0.212581
C53	C	-0.383540	-0.995401	0.134354
C54	C	-0.362119	-1.018791	0.694037
C55	C	-0.364922	-1.015723	0.767538
C56	C	-0.409352	-0.967317	0.804225
C57	C	-0.450976	-0.921971	0.767407
C58	C	-0.448169	-0.925036	0.693908
C59	C	-0.422357	-0.953121	1.024037
C60	C	-0.425163	-0.950061	1.097542
C61	C	-0.339107	-1.043812	1.097667
C62	C	-0.336307	-1.046875	1.024166
C63	C	-0.377929	-1.001527	0.987355
N64	N	-0.412219	-0.964181	0.879354
N65	N	-0.375057	-1.004660	0.912227
H66	H	-0.320229	-0.259083	0.321812
O67	O	-0.467253	-0.904213	0.984343
H68	H	-0.457834	-0.914466	0.927070
H69	H	-0.660806	-0.887589	0.484532
O70	O	-0.982687	-0.905465	0.468223
H71	H	-0.951917	-0.936799	0.504011
O72	O	-0.871486	-1.058038	0.327614
H73	H	-0.882980	-1.047738	0.272442
O74	O	-0.915313	-0.910781	0.463283
H75	H	-0.903825	-0.921083	0.518456
H76	H	-0.325941	-1.058210	0.664172
H77	H	-0.482056	-0.888108	0.663936
H78	H	-0.300129	-1.086294	0.994301
O79	O	-0.983271	-1.099870	0.289094
H80	H	-0.926086	-1.094525	0.293974
O81	O	-0.285910	-0.735099	0.287424
H82	H	-0.317311	-0.768556	0.254247
H83	H	-0.305220	-1.080730	1.127646
O84	O	-0.320033	-1.064629	0.807245
H85	H	-0.288675	-1.098811	0.769387
H86	H	-0.794381	-1.051409	0.333661
H87	H	-0.461734	-0.577437	0.463514
O88	O	-0.473081	-0.897845	1.137116
H89	H	-0.501546	-0.866821	1.099171
O90	O	-1.135710	-1.093181	0.295388
H91	H	-1.192846	-1.082817	0.304985
H92	H	-0.487149	-0.882556	0.797284
O93	O	-0.313867	-0.402677	0.315397
H94	H	-0.279832	-0.367595	0.281286
H95	H	-0.793867	-0.881730	0.490004
O96	O	-0.480032	-0.718983	0.481839
H97	H	-0.510917	-0.678512	0.512784
H98	H	-0.489678	-0.245016	0.491503
O99	O	-0.507971	-0.386573	0.509833
H100	H	-0.538858	-0.346104	0.540779
H101	H	-1.125460	-0.911552	0.462716
O102	O	-0.279561	-0.582844	0.281033
H103	H	-0.285030	-0.525105	0.286488
H104	H	-0.661332	-1.057267	0.328182
