data_functionalizedCrystal
_audit_creation_method	'MofGen! by Chris Wilmer'
_symmetry_space_group_name_H-M	'P1'
_symmetry_Int_Tables_number	1
_symmetry_cell_setting	triclinic
loop_
_symmetry_equiv_pos_as_xyz
  x,y,z
_cell_length_a	17.077404
_cell_length_b	19.076808
_cell_length_c	17.077396
_cell_angle_alpha	92.329364
_cell_angle_beta	90.019501
_cell_angle_gamma	92.323651
loop_
_atom_site_label
_atom_site_type_symbol
_atom_site_fract_x
_atom_site_fract_y
_atom_site_fract_z
Zn1	Zn	1.187485	-0.280213	0.431271
Zn2	Zn	1.687485	0.219787	0.931271
Zn3	Zn	1.182112	-0.397923	0.294725
Zn4	Zn	1.682112	0.102077	0.794725
Zn5	Zn	1.056216	-0.280237	0.300018
Zn6	Zn	1.556216	0.219763	0.800018
Zn7	Zn	1.050907	-0.397881	0.425950
Zn8	Zn	1.550907	0.102119	0.925950
O9	O	1.119180	-0.339064	0.362991
O10	O	1.619180	0.160936	0.862991
O11	O	1.296619	-0.295834	0.413170
O12	O	1.796619	0.204166	0.913170
O13	O	1.165385	-0.382340	0.185579
O14	O	1.665385	0.117660	0.685579
O15	O	1.078100	-0.181738	0.321872
O16	O	1.578100	0.318262	0.821872
O17	O	1.292672	-0.382316	0.312849
O18	O	1.792672	0.117684	0.812849
O19	O	1.174543	-0.181719	0.418303
O20	O	1.674543	0.318281	0.918303
O21	O	1.072890	-0.295877	0.189468
O22	O	1.572890	0.204123	0.689468
O23	O	0.945665	-0.295836	0.316712
O24	O	1.445665	0.204164	0.816712
O25	O	1.069051	-0.382245	0.536504
O26	O	1.569051	0.117755	1.036504
O27	O	0.941765	-0.382268	0.409233
O28	O	1.441765	0.117732	0.909233
O29	O	1.169395	-0.295794	0.540414
O30	O	1.669395	0.204206	1.040414
O31	O	1.160237	-0.496414	0.307689
O32	O	1.660237	0.003586	0.807689
O33	O	1.063841	-0.496383	0.404100
O34	O	1.563841	0.003617	0.904100
C35	C	0.915233	-0.339051	0.362970
C36	C	1.415233	0.160949	0.862970
C37	C	0.827982	-0.339062	0.362979
C38	C	1.327982	0.160938	0.862979
C39	C	0.784979	-0.384136	0.411071
C40	C	1.284979	0.115864	0.911071
C41	C	0.702998	-0.384137	0.411084
C42	C	1.202998	0.115863	0.911084
C43	C	0.664023	-0.339068	0.362999
C44	C	1.164023	0.160932	0.862999
C45	C	0.707032	-0.293990	0.314905
C46	C	1.207032	0.206010	0.814905
C47	C	0.789012	-0.293986	0.314897
C48	C	1.289012	0.206014	0.814897
C49	C	0.536162	-0.294004	0.314923
C50	C	1.036162	0.205996	0.814923
C51	C	0.454177	-0.294009	0.314929
C52	C	0.954177	0.205991	0.814929
C53	C	0.450148	-0.384156	0.411110
C54	C	0.950148	0.115844	0.911110
C55	C	0.532128	-0.384151	0.411102
C56	C	1.032128	0.115849	0.911102
C57	C	0.575132	-0.339074	0.363006
C58	C	1.075132	0.160926	0.863006
C59	C	1.110901	-0.521938	0.354760
C60	C	1.610901	-0.021938	0.854760
C61	C	1.107431	-0.600172	0.351265
C62	C	1.607431	-0.100172	0.851265
C63	C	1.155976	-0.636857	0.399870
C64	C	1.655976	-0.136857	0.899870
C65	C	1.152713	-0.710366	0.396588
C66	C	1.652713	-0.210366	0.896588
C67	C	1.100908	-0.747190	0.344695
C68	C	1.600908	-0.247190	0.844695
C69	C	1.052357	-0.710500	0.296088
C70	C	1.552357	-0.210500	0.796088
C71	C	1.055617	-0.636992	0.299375
C72	C	1.555617	-0.136992	0.799375
C73	C	1.085773	-0.967043	0.329480
C74	C	1.585773	-0.467043	0.829480
C75	C	1.082519	-1.040556	0.326195
C76	C	1.582519	-0.540556	0.826195
C77	C	1.182873	-1.040418	0.426696
C78	C	1.682873	-0.540418	0.926696
C79	C	1.186132	-0.966908	0.429975
C80	C	1.686132	-0.466908	0.929975
C81	C	1.137579	-0.930225	0.381371
C82	C	1.637579	-0.430225	0.881371
N83	N	1.097572	-0.822328	0.341337
N84	N	1.597572	-0.322328	0.841337
N85	N	1.140911	-0.855088	0.384733
N86	N	1.640911	-0.355088	0.884733
C87	C	1.323924	-0.339077	0.363013
C88	C	1.823924	0.160923	0.863013
C89	C	1.411173	-0.339083	0.363022
C90	C	1.911173	0.160917	0.863022
C91	C	1.119230	-0.339012	0.567738
C92	C	1.619230	0.160988	1.067738
C93	C	1.119251	-0.338990	0.654989
C94	C	1.619251	0.161010	1.154989
C95	C	1.127513	-0.155475	0.371271
C96	C	1.627513	0.344525	0.871271
C97	C	1.131064	-0.077241	0.374800
C98	C	1.631064	0.422759	0.874800
C99	C	1.119178	-0.339065	0.159043
C100	C	1.619178	0.160935	0.659043
C101	C	1.119318	-0.338888	0.071802
C102	C	1.619318	0.161112	0.571802
C103	C	1.171502	-0.293971	0.698016
C104	C	1.671502	0.206029	1.198016
C105	C	1.171513	-0.293948	0.779997
C106	C	1.671513	0.206052	1.279997
C107	C	1.119275	-0.338947	0.818950
C108	C	1.619275	0.161053	1.318950
C109	C	1.067019	-0.383967	0.775917
C110	C	1.567019	0.116033	1.275917
C111	C	1.067005	-0.383987	0.693937
C112	C	1.567005	0.116013	1.193937
C113	C	1.067052	-0.383925	0.946789
C114	C	1.567052	0.116075	1.446789
C115	C	1.067067	-0.383907	1.028774
C116	C	1.567067	0.116093	1.528774
C117	C	1.171560	-0.293886	1.032849
C118	C	1.671560	0.206114	1.532849
C119	C	1.171546	-0.293905	0.950870
C120	C	1.671546	0.206095	1.450870
C121	C	1.119290	-0.338927	0.907842
C122	C	1.619290	0.161073	1.407842
H123	H	0.667988	-0.420841	0.450245
H124	H	1.167988	0.079159	0.950245
H125	H	1.192249	-0.740232	0.436161
H126	H	1.692249	-0.240232	0.936161
H127	H	0.415131	-0.420857	0.450273
H128	H	0.915131	0.079143	0.950273
H129	H	0.571174	-0.257291	0.275766
H130	H	1.071174	0.242709	0.775766
H131	H	0.563859	-0.420854	0.450252
H132	H	1.063859	0.079146	0.950252
H133	H	1.024484	-0.420604	0.807639
H134	H	1.524484	0.079396	1.307639
H135	H	0.422446	-0.257302	0.275785
H136	H	0.922446	0.242698	0.775785
O137	O	1.222296	-0.250312	0.821882
O138	O	1.722296	0.249688	1.321882
C139	C	1.328737	-0.240819	0.914867
C140	C	1.828737	0.259181	1.414867
C141	C	1.271263	-0.290320	0.867490
C142	C	1.771263	0.209680	1.367490
H143	H	1.368352	-0.273146	0.951741
H144	H	1.868352	0.226854	1.451741
H145	H	1.294407	-0.204017	0.954948
H146	H	1.794407	0.295983	1.454948
H147	H	1.366039	-0.208642	0.872938
H148	H	1.866039	0.291358	1.372938
H149	H	1.233947	-0.322543	0.909361
H150	H	1.733947	0.177457	1.409361
H151	H	1.305640	-0.327076	0.827400
H152	H	1.805640	0.172924	1.327400
H153	H	0.675292	-0.257291	0.275757
H154	H	1.175292	0.242709	0.775757
H155	H	0.824025	-0.257279	0.275739
H156	H	1.324025	0.242721	0.775739
O157	O	1.206319	-0.601198	0.450350
O158	O	1.706319	-0.101198	0.950350
C159	C	1.305536	-0.608828	0.549662
C160	C	1.805536	-0.108828	1.049662
C161	C	1.248549	-0.649295	0.492537
C162	C	1.748549	-0.149295	0.992537
H163	H	1.339706	-0.647697	0.583774
H164	H	1.839706	-0.147697	1.083774
H165	H	1.271033	-0.574439	0.592263
H166	H	1.771033	-0.074439	1.092263
H167	H	1.348098	-0.574381	0.515192
H168	H	1.848098	-0.074381	1.015192
H169	H	1.205974	-0.683780	0.526942
H170	H	1.705974	-0.183780	1.026942
H171	H	1.283103	-0.683640	0.449936
H172	H	1.783103	-0.183640	0.949936
H173	H	1.046241	-0.937181	0.289903
H174	H	1.546241	-0.437181	0.789903
H175	H	1.228316	-0.936928	0.472230
H176	H	1.728316	-0.436928	0.972230
H177	H	1.214042	-0.257330	0.666307
H178	H	1.714042	0.242670	1.166307
O179	O	1.229951	-1.076161	0.473882
O180	O	1.729951	-0.576161	0.973882
C181	C	1.269439	-1.189343	0.513333
C182	C	1.769439	-0.689343	1.013333
C183	C	1.216067	-1.148952	0.459859
C184	C	1.716067	-0.648952	0.959859
H185	H	1.258244	-1.248201	0.502002
H186	H	1.758244	-0.748201	1.002002
H187	H	1.256253	-1.174915	0.577277
H188	H	1.756253	-0.674915	1.077277
H189	H	1.333379	-1.174806	0.500267
H190	H	1.833379	-0.674806	1.000267
H191	H	1.152109	-1.163467	0.472855
H192	H	1.652109	-0.663467	0.972855
H193	H	1.229320	-1.163383	0.395930
H194	H	1.729320	-0.663383	0.895930
O195	O	1.016230	-0.427793	0.652256
O196	O	1.516230	0.072207	1.152256
C197	C	0.912576	-0.517067	0.656861
C198	C	1.412576	-0.017067	1.156861
C199	C	0.970048	-0.467500	0.704159
C200	C	1.470048	0.032500	1.204159
H201	H	0.875211	-0.549172	0.698805
H202	H	1.375211	-0.049172	1.198805
H203	H	0.946908	-0.553926	0.616850
H204	H	1.446908	-0.053926	1.116850
H205	H	0.873022	-0.484755	0.619904
H206	H	1.373022	0.015245	1.119904
H207	H	1.009616	-0.499756	0.741160
H208	H	1.509616	0.000244	1.241160
H209	H	0.935667	-0.430639	0.744120
H210	H	1.435667	0.069361	1.244120
O211	O	1.032151	-1.076408	0.275890
O212	O	1.532151	-0.576408	0.775890
C213	C	0.922478	-1.159473	0.261524
C214	C	1.422478	-0.659473	0.761524
C215	C	0.979470	-1.118926	0.318577
C216	C	1.479470	-0.618926	0.818577
H217	H	0.879860	-1.193847	0.296015
H218	H	1.379860	-0.693847	0.796015
H219	H	0.956976	-1.193926	0.218985
H220	H	1.456976	-0.693926	0.718985
H221	H	0.888370	-1.120618	0.227329
H222	H	1.388370	-0.620618	0.727329
H223	H	1.013592	-1.157730	0.352825
H224	H	1.513592	-0.657730	0.852825
H225	H	0.944927	-1.084462	0.361065
H226	H	1.444927	-0.584462	0.861065
O227	O	1.002103	-0.746377	0.245699
O228	O	1.502103	-0.246377	0.745699
C229	C	0.952576	-0.859679	0.196122
C230	C	1.452576	-0.359679	0.696122
C231	C	1.009536	-0.819139	0.253213
C232	C	1.509536	-0.319139	0.753213
H233	H	0.958554	-0.918514	0.202189
H234	H	1.458554	-0.418514	0.702189
H235	H	0.967037	-0.845301	0.133465
H236	H	1.467037	-0.345301	0.633465
H237	H	0.889921	-0.845226	0.210485
H238	H	1.389921	-0.345226	0.710485
H239	H	1.072210	-0.833569	0.238922
H240	H	1.572210	-0.333569	0.738922
H241	H	0.995007	-0.833520	0.315854
H242	H	1.495007	-0.333520	0.815854
O243	O	1.016383	-0.427766	0.905014
O244	O	1.516383	0.072234	1.405014
C245	C	0.972850	-0.547505	0.874548
C246	C	1.472850	-0.047505	1.374548
C247	C	1.030276	-0.497931	0.921893
C248	C	1.530276	0.002069	1.421893
H249	H	0.984050	-0.604242	0.888190
H250	H	1.484050	-0.104242	1.388190
H251	H	0.981823	-0.539848	0.809254
H252	H	1.481823	-0.039848	1.309254
H253	H	0.910117	-0.535115	0.891191
H254	H	1.410117	-0.035115	1.391191
H255	H	1.093031	-0.510289	0.905317
H256	H	1.593031	-0.010289	1.405317
H257	H	1.021234	-0.505597	0.987175
H258	H	1.521234	-0.005597	1.487175
H259	H	0.816706	-0.420838	0.450225
H260	H	1.316706	0.079162	0.950225
H261	H	1.016086	-0.607124	0.259797
H262	H	1.516086	-0.107124	0.759797
O263	O	1.222210	-0.250088	0.913077
O264	O	1.722210	0.249912	1.413077
C265	C	1.265766	-0.130365	0.893455
C266	C	1.765766	0.369635	1.393455
C267	C	1.208334	-0.179913	0.936287
C268	C	1.708334	0.320087	1.436287
H269	H	1.254579	-0.073619	0.912217
H270	H	1.754579	0.426381	1.412217
H271	H	1.256786	-0.138045	0.827463
H272	H	1.756786	0.361955	1.327463
H273	H	1.328497	-0.142759	0.909018
H274	H	1.828497	0.357241	1.409018
H275	H	1.145580	-0.167550	0.920789
H276	H	1.645580	0.332450	1.420789
H277	H	1.217383	-0.172225	1.002269
H278	H	1.717383	0.327775	1.502269
O279	O	1.222237	-0.250164	1.074763
O280	O	1.722237	0.249836	1.574763
C281	C	1.268585	-0.210248	1.202863
C282	C	1.768585	0.289752	1.702863
C283	C	1.211143	-0.259785	1.155489
C284	C	1.711143	0.240215	1.655489
H285	H	1.259647	-0.218020	1.268139
H286	H	1.759647	0.281980	1.768139
H287	H	1.257367	-0.153483	1.189353
H288	H	1.757367	0.346517	1.689353
H289	H	1.331312	-0.222604	1.186159
H290	H	1.831312	0.277396	1.686159
H291	H	1.148395	-0.247493	1.172167
H292	H	1.648395	0.252507	1.672167
H293	H	1.222429	-0.316535	1.169004
H294	H	1.722429	0.183465	1.669004
O295	O	1.016425	-0.427681	1.066652
O296	O	1.516425	0.072319	1.566652
C297	C	1.001545	-0.522641	1.154979
C298	C	1.501545	-0.022641	1.654979
C299	C	1.058986	-0.473128	1.112112
C300	C	1.558986	0.026872	1.612112
H301	H	1.035932	-0.559387	1.191756
H302	H	1.535932	-0.059387	1.691756
H303	H	0.964193	-0.554871	1.110185
H304	H	1.464193	-0.054871	1.610185
H305	H	0.961973	-0.490282	1.194774
H306	H	1.461973	0.009718	1.694774
H307	H	1.098608	-0.505433	1.072318
H308	H	1.598608	-0.005433	1.572318
H309	H	1.096283	-0.440896	1.156948
H310	H	1.596283	0.059104	1.656948
