data_functionalizedCrystal
_audit_creation_method	'MofGen! by Chris Wilmer'
_symmetry_space_group_name_H-M	'P1'
_symmetry_Int_Tables_number	1
_symmetry_cell_setting	triclinic
loop_
_symmetry_equiv_pos_as_xyz
  x,y,z
_cell_length_a	14.971506
_cell_length_b	17.019294
_cell_length_c	14.048226
_cell_angle_alpha	93.881217
_cell_angle_beta	90.008441
_cell_angle_gamma	83.508029
loop_
_atom_site_label
_atom_site_type_symbol
_atom_site_fract_x
_atom_site_fract_y
_atom_site_fract_z
O1	O	1.186683	0.102871	0.087598
O2	O	0.926255	0.115165	0.088606
O3	O	1.063734	-0.005807	0.078685
O4	O	1.049205	0.223843	0.097519
O5	O	1.063711	-0.005804	-0.079636
O6	O	0.926233	0.115168	-0.069715
O7	O	1.186661	0.102874	-0.070723
Zn8	Zn	1.056443	0.109021	-0.095356
Zn9	Zn	1.056473	0.109017	0.113239
O10	O	1.049183	0.223846	-0.060802
C11	C	0.892921	0.114614	0.009400
C12	C	0.793629	0.112958	0.009265
C13	C	0.355186	0.177706	0.014585
C14	C	0.448482	0.179256	0.014716
C15	C	0.505878	0.108180	0.008883
C16	C	0.469974	0.035550	0.002927
C17	C	0.376679	0.034001	0.002803
C18	C	0.664429	0.038784	0.003185
C19	C	0.757730	0.040333	0.003307
C20	C	0.736232	0.184039	0.015097
C21	C	0.642937	0.182490	0.014973
C22	C	0.607039	0.109859	0.009016
C23	C	1.063171	-0.035195	-0.002883
C24	C	1.061518	-0.122767	-0.010059
C25	C	1.060755	-0.163906	0.072870
C26	C	1.059196	-0.246188	0.066124
C27	C	1.058406	-0.287331	-0.023551
C28	C	1.059166	-0.246186	-0.106486
C29	C	1.060719	-0.163905	-0.099740
C30	C	1.053711	-0.535768	-0.048238
C31	C	1.052161	-0.618055	-0.054978
C32	C	1.052189	-0.618051	0.117633
C33	C	1.053748	-0.535769	0.124372
C34	C	1.054503	-0.494631	0.041437
C35	C	1.056815	-0.371437	-0.030448
C36	C	1.056087	-0.410525	0.048335
C37	C	1.219995	0.103425	0.008485
C38	C	1.319287	0.105081	0.008627
C39	C	1.049745	0.253234	0.020769
C40	C	1.051398	0.340806	0.027951
N41	N	1.056430	0.109024	-0.237716
C42	C	1.117377	0.055465	-0.698948
C43	C	1.117369	0.055470	-0.599290
C44	C	1.056472	0.109017	-0.545087
C45	C	0.995585	0.162567	-0.590546
C46	C	0.995598	0.162565	-0.690202
C47	C	0.995561	0.162567	-0.382832
C48	C	0.995546	0.162568	-0.283169
C49	C	1.117331	0.055472	-0.291920
C50	C	1.117344	0.055470	-0.391576
C51	C	1.056456	0.109019	-0.437028
N52	N	1.056493	0.109009	0.255599
H53	H	0.635205	-0.020360	-0.001661
H54	H	1.056175	-0.404945	-0.103462
H55	H	0.596207	0.240366	0.019717
H56	H	0.945982	0.206175	-0.419835
H57	H	0.308459	0.235585	0.019327
H58	H	0.946005	0.206170	-0.546408
H59	H	0.945958	0.206172	-0.239041
C60	C	1.061624	-0.118655	0.171513
H61	H	1.060938	-0.154943	0.219936
H62	H	1.114364	-0.092519	0.177247
H63	H	1.010089	-0.080596	0.178221
C64	C	0.775715	0.263931	0.021662
H65	H	0.839498	0.254677	0.020914
H66	H	0.756005	0.293205	-0.031145
H67	H	0.756014	0.293193	0.079281
H68	H	0.477705	0.238394	0.019576
C69	C	1.051369	-0.663302	0.208856
H70	H	1.052074	-0.627015	0.263228
H71	H	0.998636	-0.689445	0.210315
H72	H	1.102911	-0.701356	0.209312
H73	H	1.166946	0.011871	-0.562283
H74	H	0.516714	-0.022321	-0.001816
C75	C	1.054605	-0.490516	0.223015
H76	H	1.053919	-0.526801	0.271440
H77	H	1.107343	-0.464377	0.228749
H78	H	1.003068	-0.452458	0.229716
H79	H	1.051513	-0.651551	-0.128006
C80	C	1.184364	-0.003439	-0.758563
H81	H	1.220628	-0.035322	-0.717216
H82	H	1.152243	-0.036329	-0.800146
H83	H	1.221564	0.025001	-0.795095
C84	C	1.184331	-0.003429	-0.451198
H85	H	1.220598	-0.035315	-0.409856
H86	H	1.152209	-0.036316	-0.492783
H87	H	1.221528	0.025016	-0.487727
C88	C	1.054557	-0.490528	-0.139463
H89	H	1.053877	-0.526819	-0.193834
H90	H	1.003030	-0.452466	-0.139940
H91	H	1.107305	-0.464396	-0.140905
H92	H	0.804461	-0.017543	-0.001435
H93	H	1.058517	-0.279691	-0.179502
C94	C	1.061560	-0.118653	-0.190961
H95	H	1.060875	-0.154940	-0.245336
H96	H	1.010031	-0.080593	-0.191428
H97	H	1.114305	-0.092518	-0.192407
H98	H	0.347453	-0.025138	-0.002046
H99	H	1.056725	-0.377022	0.121348
H100	H	1.166909	0.011871	-0.254907
C101	C	1.058342	-0.291435	0.157347
H102	H	1.059040	-0.255148	0.211719
H103	H	1.005596	-0.317563	0.158785
H104	H	1.109870	-0.329502	0.157823
C105	C	0.928605	0.221445	-0.740202
H106	H	0.892323	0.253326	-0.693650
H107	H	0.960719	0.254339	-0.776382
H108	H	0.891423	0.192987	-0.781410
