data_functionalizedCrystal
_audit_creation_method	'MofGen! by Chris Wilmer'
_symmetry_space_group_name_H-M	'P1'
_symmetry_Int_Tables_number	1
_symmetry_cell_setting	triclinic
loop_
_symmetry_equiv_pos_as_xyz
  x,y,z
_cell_length_a	18.760487
_cell_length_b	14.560438
_cell_length_c	18.760492
_cell_angle_alpha	60.002003
_cell_angle_beta	90.036694
_cell_angle_gamma	60.020077
loop_
_atom_site_label
_atom_site_type_symbol
_atom_site_fract_x
_atom_site_fract_y
_atom_site_fract_z
Zr1	Zr	0.686682	1.005273	-0.093105
O2	O	0.572864	1.196873	-0.206988
O3	O	0.721574	0.813672	-0.058195
O4	O	0.721571	1.005272	-0.206899
O5	O	0.572869	1.005274	0.059018
O6	O	0.838874	1.005271	-0.206827
O7	O	0.572867	1.005273	-0.058284
O8	O	0.838879	0.662535	0.059177
O9	O	0.572864	1.348010	-0.206986
O10	O	0.823997	0.892480	-0.043251
O11	O	0.736457	0.892481	0.044237
O12	O	0.736453	1.118065	-0.130843
O13	O	0.648913	1.118066	-0.043355
Zr14	Zr	0.873771	1.005274	0.094094
Zr15	Zr	0.873767	1.005272	-0.092990
Zr16	Zr	0.686687	1.005275	0.093979
Zr17	Zr	0.686683	1.246320	-0.093101
Zr18	Zr	0.873771	0.764227	0.094091
O19	O	0.838880	1.196875	0.059185
O20	O	0.838874	1.196872	-0.206824
O21	O	0.572870	1.196875	0.059021
O22	O	0.987590	0.813674	0.207977
O23	O	0.987584	0.813672	-0.058032
O24	O	0.721580	0.813675	0.207814
O25	O	0.987584	1.005273	-0.058029
O26	O	0.838883	1.005275	0.207889
O27	O	0.721580	1.005276	0.207816
O28	O	0.987587	1.005274	0.059273
O29	O	0.721571	1.348010	-0.206894
O30	O	0.838882	0.662537	0.207884
O31	O	0.987590	0.662536	0.207975
O32	O	0.987586	0.662535	0.059268
O33	O	0.572867	1.348012	-0.058279
O34	O	0.721575	1.348012	-0.058188
O35	O	0.824000	0.892482	0.131832
O36	O	0.911540	0.892481	0.044345
O37	O	0.823997	1.118066	-0.043247
O38	O	0.736457	1.118067	0.044240
C39	C	0.780226	0.703760	0.000490
C40	C	0.780226	0.601429	0.000489
C41	C	0.546212	1.005274	0.000351
C42	C	0.466790	1.005274	0.000302
C43	C	0.825919	0.553352	-0.045179
C44	C	0.825923	0.457193	-0.045171
C45	C	0.734533	0.457199	0.046174
C46	C	0.734535	0.553350	0.046170
C47	C	0.085277	1.123031	-0.045075
C48	C	0.176678	0.887517	0.046372
C49	C	0.251300	0.887515	0.046297
C50	C	0.242913	1.005273	0.000534
C51	C	0.159904	1.123033	-0.045154
C52	C	0.334314	0.769757	0.091977
C53	C	0.408942	0.769750	0.091903
C54	C	0.400556	0.887510	0.046144
C55	C	0.317541	1.005274	0.000455
C56	C	0.309154	1.123032	-0.045308
C57	C	0.226139	1.240798	-0.090992
C58	C	0.151518	1.240792	-0.090913
C59	C	0.475177	0.887516	0.046065
C60	C	0.383781	1.123034	-0.045386
C61	C	1.014241	1.005273	0.000639
C62	C	1.093663	1.005273	0.000688
C63	C	0.780222	1.005271	-0.233518
C64	C	0.780220	1.005270	-0.312940
C65	C	0.780227	1.306787	0.000499
C66	C	0.780227	1.409118	0.000501
C67	C	0.825916	0.887513	-0.304530
C68	C	0.734528	1.123027	-0.395979
C69	C	0.734528	1.123031	-0.470602
C70	C	0.780225	1.005274	-0.462191
C71	C	0.825920	0.887513	-0.379158
C72	C	0.688841	1.240789	-0.553640
C73	C	0.688840	1.240797	-0.628269
C74	C	0.734532	1.123039	-0.619859
C75	C	0.780229	1.005273	-0.536819
C76	C	0.825925	0.887516	-0.528409
C77	C	0.871617	0.769749	-0.445369
C78	C	0.871612	0.769754	-0.370748
C79	C	0.734537	1.123034	-0.694481
C80	C	0.825929	0.887516	-0.603037
C81	C	0.780232	1.005276	0.234508
C82	C	0.780234	1.005276	0.313930
C83	C	1.014241	0.703759	0.000634
C84	C	1.093663	0.601428	0.000682
C85	C	0.780232	0.703762	0.234503
C86	C	0.780233	0.601432	0.313924
C87	C	1.014246	0.703762	0.234647
C88	C	1.093670	0.601431	0.314117
C89	C	0.546208	1.306785	-0.233658
C90	C	0.466784	1.409116	-0.313127
C91	C	0.546213	1.306788	0.000355
C92	C	0.466791	1.409119	0.000308
C93	C	0.780222	1.306785	-0.233514
C94	C	0.780220	1.409115	-0.312935
C95	C	1.085263	0.553372	-0.045028
C96	C	1.159882	0.457234	-0.045001
C97	C	1.242899	0.409148	0.000741
C98	C	1.251297	0.457214	0.046452
C99	C	1.176679	0.553356	0.046419
C100	C	0.825931	0.553377	0.396952
C101	C	0.825929	0.457240	0.471583
C102	C	0.780234	0.409154	0.463184
C103	C	0.734531	0.457218	0.380147
C104	C	0.734528	0.553359	0.305518
C105	C	1.176671	0.553375	0.305769
C106	C	1.251305	0.457238	0.380431
C107	C	1.242937	0.409153	0.463441
C108	C	1.159927	0.457218	0.471788
C109	C	1.085294	0.553360	0.397126
C110	C	0.383783	1.457183	-0.304779
C111	C	0.309148	1.553350	-0.379442
C112	C	0.317517	1.601441	-0.462452
C113	C	0.400527	1.553369	-0.470798
C114	C	0.475159	1.457211	-0.396136
C115	C	0.475190	1.457185	0.046009
C116	C	0.400572	1.553349	0.045962
C117	C	0.317555	1.601439	0.000217
C118	C	0.309157	1.553369	-0.045490
C119	C	0.383775	1.457213	-0.045447
C120	C	0.825924	1.457171	-0.304507
C121	C	0.825940	1.553309	-0.379124
C122	C	0.780246	1.601395	-0.462167
C123	C	0.734541	1.553329	-0.470593
C124	C	0.734531	1.457187	-0.395977
H125	H	0.863125	0.592494	-0.082374
F126	F	0.874572	0.604533	0.405911
F127	F	0.063168	1.366115	-0.139529
F128	F	0.780245	0.306829	0.542620
F129	F	1.185632	0.604484	0.095078
H130	H	0.697332	0.418043	0.083365
F131	F	0.996960	0.604488	0.406024
F132	F	0.874583	1.604452	-0.370139
H133	H	1.183501	0.592512	0.238185
H134	H	0.863149	0.418117	0.539188
F135	F	0.374856	1.406016	-0.216441
F136	F	0.685919	1.248360	-0.782850
H137	H	0.697327	0.418052	0.373321
F138	F	0.685892	0.604487	0.217155
H139	H	0.651644	1.336661	-0.560480
F140	F	0.874562	0.762179	-0.594075
H141	H	0.863115	0.791630	-0.236917
F142	F	1.339642	0.406097	0.371530
H143	H	0.863131	0.418050	-0.082356
H144	H	0.697326	0.592493	0.083362
H145	H	0.376941	1.218928	-0.082643
F146	F	0.238147	1.703777	0.000180
F147	F	0.374822	1.406060	-0.094087
H148	H	0.863134	1.418034	-0.236896
F149	F	1.322376	0.306828	0.542897
F150	F	0.563493	1.406056	-0.405034
H151	H	1.153126	0.418052	0.539384
H152	H	0.697330	1.218900	-0.402821
F153	F	0.220812	1.604491	-0.370541
F154	F	0.238078	1.703782	-0.541907
F155	F	0.497286	0.644415	0.140526
F156	F	0.217223	1.366121	-0.139696
H157	H	0.908827	0.673871	-0.438531
H158	H	0.407427	1.592472	0.083185
H159	H	0.780261	1.679680	-0.522917
H160	H	0.407330	1.592537	-0.538394
F161	F	0.640208	1.366133	-0.716639
F162	F	-0.003070	1.248360	-0.093689
H163	H	0.341134	0.673885	0.129234
H164	H	0.241555	1.592538	-0.082734
H165	H	0.542780	1.418038	0.083266
H166	H	0.697338	1.592496	-0.538216
H167	H	0.183500	0.791644	0.083627
F168	F	0.563520	0.762190	0.094676
F169	F	0.685876	1.406062	-0.404959
H170	H	0.908814	0.673875	-0.303133
F171	F	0.996917	0.604535	-0.093719
H172	H	1.153027	0.418111	-0.082224
F173	F	1.339657	0.406020	0.095133
F174	F	1.322307	0.306822	0.000769
