data_functionalizedCrystal
_audit_creation_method	'MofGen! by Chris Wilmer'
_symmetry_space_group_name_H-M	'P1'
_symmetry_Int_Tables_number	1
_symmetry_cell_setting	triclinic
loop_
_symmetry_equiv_pos_as_xyz
  x,y,z
_cell_length_a	14.044220
_cell_length_b	10.654550
_cell_length_c	9.730223
_cell_angle_alpha	90.000193
_cell_angle_beta	89.999999
_cell_angle_gamma	91.163110
loop_
_atom_site_label
_atom_site_type_symbol
_atom_site_fract_x
_atom_site_fract_y
_atom_site_fract_z
O1	O	1.259693	-0.302980	-0.114280
O2	O	1.759693	0.197020	0.385720
O3	O	0.983652	-0.292047	-0.114284
O4	O	1.483652	0.207953	0.385716
O5	O	1.128019	-0.115412	-0.114277
O6	O	1.628019	0.384588	0.385723
O7	O	1.115326	-0.479615	-0.114287
O8	O	1.615326	0.020385	0.385713
O9	O	1.128017	-0.115417	0.114303
O10	O	1.628017	0.384583	0.614303
O11	O	0.983650	-0.292052	0.114296
O12	O	1.483650	0.207948	0.614296
O13	O	1.259691	-0.302985	0.114300
O14	O	1.759691	0.197015	0.614300
Zn15	Zn	1.121671	-0.297519	0.150590
Zn16	Zn	1.621671	0.202481	0.650590
Zn17	Zn	1.121673	-0.297513	-0.150574
Zn18	Zn	1.621673	0.202487	0.349426
O19	O	1.115324	-0.479620	0.114293
O20	O	1.615324	0.020380	0.614293
C21	C	0.948305	-0.287263	0.000006
C22	C	1.448305	0.212737	0.500006
C23	C	0.842986	-0.272988	0.000004
C24	C	1.342986	0.227012	0.500004
C25	C	1.295038	-0.307769	0.000007
C26	C	1.795038	0.192231	0.500007
C27	C	1.400358	-0.322044	-0.000000
C28	C	1.900358	0.177956	0.500000
C29	C	1.593191	-0.348143	0.000000
C30	C	2.093191	0.151857	0.500000
C31	C	1.650158	-0.246895	0.000004
C32	C	2.150158	0.253105	0.500004
C33	C	1.757457	-0.261416	0.000004
C34	C	2.257457	0.238584	0.500004
C35	C	1.485882	-0.333623	-0.000000
C36	C	1.985882	0.166377	0.500000
C37	C	1.127086	-0.068523	0.000011
C38	C	1.627086	0.431477	0.500011
C39	C	1.124298	0.071201	0.000007
C40	C	1.624298	0.571201	0.500007
C41	C	1.116257	-0.526509	0.000001
C42	C	1.616257	-0.026509	0.500001
C43	C	1.119045	-0.666233	-0.000003
C44	C	1.619045	-0.166233	0.499997
N45	N	1.121676	-0.297523	0.356126
N46	N	1.621676	0.202477	0.856126
C47	C	1.209299	0.142144	0.000012
C48	C	1.709299	0.642144	0.500012
C49	C	1.206673	0.273429	0.000002
C50	C	1.706673	0.773429	0.500002
C51	C	1.034038	0.262814	-0.000012
C52	C	1.534038	0.762814	0.499988
C53	C	1.036664	0.131532	-0.000012
C54	C	1.536664	0.631532	0.499988
C55	C	1.296932	0.081813	0.000031
C56	C	1.796932	0.581813	0.500031
C57	C	1.381941	0.152758	0.000038
C58	C	1.881941	0.652758	0.500038
C59	C	1.379315	0.284043	0.000028
C60	C	1.879315	0.784043	0.500028
C61	C	1.291681	0.344383	0.000012
C62	C	1.791681	0.844383	0.500012
N63	N	1.121675	-0.297500	-0.356110
N64	N	1.621675	0.202500	0.143890
C65	C	1.185618	-0.219340	0.428055
C66	C	1.685618	0.280660	0.928055
C67	C	1.185616	-0.219324	0.571938
C68	C	1.685616	0.280676	1.071938
C69	C	1.057725	-0.375686	0.571950
C70	C	1.557725	0.124314	1.071950
C71	C	1.057724	-0.375694	0.428070
C72	C	1.557724	0.124306	0.928070
C73	C	1.249570	-0.141169	0.356112
C74	C	1.749570	0.358831	0.856112
C75	C	1.313518	-0.062980	0.428041
C76	C	1.813518	0.437020	0.928041
C77	C	1.313516	-0.062965	0.571924
C78	C	1.813516	0.437035	1.071924
C79	C	1.249565	-0.141138	0.643878
C80	C	1.749565	0.358862	1.143878
H81	H	1.618346	-0.149307	-0.000093
H82	H	2.118346	0.350693	0.499907
F83	F	1.469786	0.359543	0.000021
F84	F	1.969786	0.859543	0.500021
H85	H	1.289550	0.451284	-0.000011
H86	H	1.789550	0.951284	0.499989
F87	F	0.940778	0.327037	-0.000028
F88	F	1.440778	0.827037	0.499972
H89	H	1.453289	0.103620	0.000017
H90	H	1.953289	0.603620	0.500017
F91	F	0.946197	0.056024	-0.000018
F92	F	1.446197	0.556024	0.499982
F93	F	1.249560	-0.141104	0.797012
F94	F	1.749560	0.358896	1.297012
F95	F	1.634769	-0.475689	-0.000012
F96	F	2.134769	0.024311	0.499988
H97	H	1.299080	-0.025085	0.000043
H98	H	1.799080	0.474915	0.500043
H99	H	1.249580	-0.141177	0.238955
H100	H	1.749580	0.358823	0.738955
F101	F	1.381568	0.020223	0.351462
F102	F	1.881568	0.520223	0.851462
H103	H	1.365579	0.000708	0.630487
H104	H	1.865579	0.500708	1.130487
H105	H	1.005660	-0.439333	0.630544
H106	H	1.505660	0.060667	1.130544
F107	F	0.989666	-0.458904	0.351517
F108	F	1.489666	0.041096	0.851517
