data_functionalizedCrystal
_audit_creation_method	'MofGen! by Chris Wilmer'
_symmetry_space_group_name_H-M	'P1'
_symmetry_Int_Tables_number	1
_symmetry_cell_setting	triclinic
loop_
_symmetry_equiv_pos_as_xyz
  x,y,z
_cell_length_a	16.974800
_cell_length_b	19.188924
_cell_length_c	16.053802
_cell_angle_alpha	92.554672
_cell_angle_beta	91.074188
_cell_angle_gamma	83.266364
loop_
_atom_site_label
_atom_site_type_symbol
_atom_site_fract_x
_atom_site_fract_y
_atom_site_fract_z
O1	O	1.048768	0.089000	0.001457
O2	O	1.548768	0.589000	0.501457
O3	O	0.819269	0.099688	-0.014058
O4	O	1.319269	0.599688	0.485942
O5	O	0.940644	-0.007281	-0.005843
O6	O	1.440644	0.492719	0.494157
O7	O	0.927394	0.195970	-0.006759
O8	O	1.427394	0.695970	0.493241
O9	O	0.933963	-0.001417	0.132564
O10	O	1.433963	0.498583	0.632564
O11	O	0.812589	0.105552	0.124349
O12	O	1.312589	0.605552	0.624349
O13	O	1.042087	0.094864	0.139863
O14	O	1.542087	0.594864	0.639863
Zn15	Zn	0.926277	0.101139	0.154081
Zn16	Zn	1.426277	0.601139	0.654081
Zn17	Zn	0.935080	0.093413	-0.028276
Zn18	Zn	1.435080	0.593413	0.471724
O19	O	0.920713	0.201833	0.131648
O20	O	1.420713	0.701833	0.631648
C21	C	0.786568	0.102106	0.053160
C22	C	1.286568	0.602106	0.553160
C23	C	0.699081	0.100567	0.047246
C24	C	1.199081	0.600567	0.547246
C25	C	0.654342	0.103038	0.119915
C26	C	1.154342	0.603038	0.619915
C27	C	0.572140	0.101580	0.114361
C28	C	1.072140	0.601580	0.614361
C29	C	0.534677	0.097656	0.036137
C30	C	1.034677	0.597656	0.536137
C31	C	0.579422	0.095183	-0.036538
C32	C	1.079422	0.595183	0.463462
C33	C	0.661624	0.096635	-0.030982
C34	C	1.161624	0.596635	0.469018
C35	C	0.289223	0.092964	0.011432
C36	C	0.789223	0.592964	0.511432
C37	C	0.207015	0.091514	0.005882
C38	C	0.707015	0.591514	0.505882
C39	C	0.199739	0.097910	0.156782
C40	C	0.699739	0.597910	0.656782
C41	C	0.281941	0.099367	0.162330
C42	C	0.781941	0.599367	0.662330
C43	C	0.326680	0.096889	0.089656
C44	C	0.826680	0.596889	0.589656
N45	N	0.450653	0.096169	0.030457
N46	N	0.950653	0.596169	0.530457
N47	N	0.410703	0.098372	0.095336
N48	N	0.910703	0.598372	0.595336
C49	C	0.936875	-0.030362	0.063332
C50	C	1.436875	0.469638	0.563332
C51	C	0.935590	-0.107873	0.063247
C52	C	1.435590	0.392127	0.563247
C53	C	0.938632	-0.147471	-0.012239
C54	C	1.438632	0.352529	0.487761
C55	C	0.937413	-0.220299	-0.012328
C56	C	1.437413	0.279701	0.487672
C57	C	0.933168	-0.253529	0.063075
C58	C	1.433168	0.246471	0.563075
C59	C	0.930122	-0.213921	0.138571
C60	C	1.430122	0.286079	0.638571
C61	C	0.931332	-0.141093	0.138657
C62	C	1.431332	0.358907	0.638657
N63	N	0.973406	-0.370617	0.122130
N64	N	1.473406	0.129383	0.622130
N65	N	0.972258	-0.439801	0.122043
N66	N	1.472258	0.060199	0.622043
C67	C	0.929518	-0.472955	0.062821
C68	C	1.429518	0.027045	0.562821
N69	N	0.887980	-0.434313	0.003676
N70	N	1.387980	0.065687	0.503676
N71	N	0.889132	-0.365123	0.003761
N72	N	1.389132	0.134877	0.503761
C73	C	0.931854	-0.332498	0.062990
C74	C	1.431854	0.167502	0.562990
C75	C	0.931237	-0.591522	-0.012767
C76	C	1.431237	-0.091522	0.487233
C77	C	0.930013	-0.664351	-0.012853
C78	C	1.430013	-0.164351	0.487147
C79	C	0.922730	-0.657972	0.138048
C80	C	1.422730	-0.157972	0.638048
C81	C	0.923946	-0.585144	0.138132
C82	C	1.423946	-0.085144	0.638132
C83	C	0.928203	-0.551923	0.062722
C84	C	1.428203	-0.051923	0.562722
C85	C	1.074789	0.092446	0.072643
C86	C	1.574789	0.592446	0.572643
C87	C	1.162277	0.093985	0.078551
C88	C	1.662277	0.593985	0.578551
C89	C	0.924482	0.224914	0.062471
C90	C	1.424482	0.724914	0.562471
C91	C	0.925767	0.302425	0.062550
C92	C	1.425767	0.802425	0.562550
N93	N	0.920276	0.106411	0.278535
N94	N	1.420276	0.606411	0.778535
N95	N	0.941087	0.088136	-0.152730
N96	N	1.441087	0.588136	0.347270
C97	C	0.971940	0.060912	0.325726
C98	C	1.471940	0.560912	0.825726
C99	C	0.967749	0.064606	0.412849
C100	C	1.467749	0.564606	0.912849
C101	C	0.911898	0.113804	0.452780
C102	C	1.411898	0.613804	0.952780
C103	C	0.860228	0.159305	0.405583
C104	C	1.360228	0.659305	0.905583
C105	C	0.864416	0.155607	0.318461
C106	C	1.364416	0.655607	0.818461
C107	C	0.893606	0.129939	0.712952
C108	C	1.393606	0.629939	1.212952
C109	C	0.889423	0.133635	0.800080
C110	C	1.389423	0.633635	1.300080
C111	C	0.996944	0.038935	0.807340
C112	C	1.496944	0.538935	1.307340
C113	C	1.001129	0.035244	0.720216
C114	C	1.501129	0.535244	1.220216
C115	C	0.949457	0.080742	0.673027
C116	C	1.449457	0.580742	1.173027
N117	N	0.907614	0.117583	0.541834
N118	N	1.407614	0.617583	1.041834
N119	N	0.953738	0.076960	0.583974
N120	N	1.453738	0.576960	1.083974
H121	H	0.176516	0.088321	-0.057820
H122	H	0.676516	0.588321	0.442180
H123	H	0.851534	0.166987	0.674536
H124	H	1.351534	0.666987	1.174536
H125	H	0.926663	-0.240981	0.199965
H126	H	1.426663	0.259019	0.699965
H127	H	0.843940	0.173701	0.832587
H128	H	1.343940	0.673701	1.332587
C129	C	1.062566	-0.018881	0.676299
C130	C	1.562566	0.481119	1.176299
N131	N	1.108842	-0.059649	0.643220
N132	N	1.608842	0.440351	1.143220
H133	H	0.698049	0.094624	-0.090157
H134	H	1.198049	0.594624	0.409843
C135	C	0.323144	0.103680	0.248383
C136	C	0.823144	0.603680	0.748383
N137	N	0.354178	0.106929	0.313199
N138	N	0.854178	0.606929	0.813199
C139	C	0.522928	0.104315	0.194303
C140	C	1.022928	0.604315	0.694303
N141	N	0.485862	0.106380	0.254519
N142	N	0.985862	0.606380	0.754519
C143	C	1.033381	0.006789	0.281810
C144	C	1.533381	0.506789	0.781810
N145	N	1.079657	-0.033979	0.248735
N146	N	1.579657	0.466021	0.748735
C147	C	0.918061	-0.694521	0.220993
C148	C	1.418061	-0.194521	0.720993
N149	N	0.914542	-0.722052	0.283469
N150	N	1.414542	-0.222052	0.783469
C151	C	0.920608	-0.541585	0.221174
C152	C	1.420608	-0.041585	0.721174
N153	N	0.918093	-0.508777	0.283726
N154	N	1.418093	-0.008777	0.783726
H155	H	0.942096	-0.120427	-0.073644
H156	H	1.442096	0.379573	0.426356
C157	C	0.338426	0.090233	-0.068513
C158	C	0.838426	0.590233	0.431487
N159	N	0.375488	0.088173	-0.128731
N160	N	0.875488	0.588173	0.371269
H161	H	0.163304	0.099926	0.215949
H162	H	0.663304	0.599926	0.715949
C163	C	0.798784	0.213417	0.449510
C164	C	1.298784	0.713417	0.949510
N165	N	0.752502	0.254175	0.482594
N166	N	1.252502	0.754175	0.982594
C167	C	0.538211	0.090864	-0.122586
C168	C	1.038211	0.590864	0.377414
N169	N	0.507171	0.087614	-0.187399
N170	N	1.007171	0.587614	0.312601
C171	C	1.024565	0.014536	0.464754
C172	C	1.524565	0.514536	0.964754
N173	N	1.067354	-0.023186	0.503848
N174	N	1.567354	0.476814	1.003848
C175	C	1.053773	-0.011116	0.859255
C176	C	1.553773	0.488884	1.359255
N177	N	1.096575	-0.048819	0.898358
N178	N	1.596575	0.451181	1.398358
H179	H	0.939885	-0.252545	-0.073800
H180	H	1.439885	0.247455	0.426200
C181	C	0.927991	-0.097534	0.221702
C182	C	1.427991	0.402466	0.721702
N183	N	0.925477	-0.064725	0.284253
N184	N	1.425477	0.435275	0.784253
C185	C	0.933400	-0.707913	-0.095896
C186	C	1.433400	-0.207913	0.404104
N187	N	0.935966	-0.740727	-0.158444
N188	N	1.435966	-0.240727	0.341556
C189	C	0.695543	0.107354	0.205969
C190	C	1.195543	0.607354	0.705969
N191	N	0.726574	0.110602	0.270787
N192	N	1.226574	0.610602	0.770787
C193	C	0.935909	-0.554976	-0.095719
C194	C	1.435909	-0.054976	0.404281
N195	N	0.939425	-0.527451	-0.158200
N196	N	1.439425	-0.027451	0.341800
C197	C	0.807588	0.205665	0.266552
C198	C	1.307588	0.705665	0.766552
N199	N	0.764783	0.243372	0.227455
N200	N	1.264783	0.743372	0.727455
