data_functionalizedCrystal
_audit_creation_method	'MofGen! by Chris Wilmer'
_symmetry_space_group_name_H-M	'P1'
_symmetry_Int_Tables_number	1
_symmetry_cell_setting	triclinic
loop_
_symmetry_equiv_pos_as_xyz
  x,y,z
_cell_length_a	14.908782
_cell_length_b	18.101395
_cell_length_c	14.908803
_cell_angle_alpha	86.714233
_cell_angle_beta	83.226378
_cell_angle_gamma	86.738007
loop_
_atom_site_label
_atom_site_type_symbol
_atom_site_fract_x
_atom_site_fract_y
_atom_site_fract_z
Zn1	Zn	1.354034	-0.379487	0.431806
Zn2	Zn	1.687368	-0.046154	0.765139
Zn3	Zn	2.020701	0.287180	1.098473
Zn4	Zn	1.362680	-0.496537	0.280452
Zn5	Zn	1.696013	-0.163203	0.613785
Zn6	Zn	2.029346	0.170130	0.947118
Zn7	Zn	1.211445	-0.365972	0.289209
Zn8	Zn	1.544779	-0.032639	0.622542
Zn9	Zn	1.878112	0.300695	0.955876
Zn10	Zn	1.202616	-0.496539	0.440514
Zn11	Zn	1.535950	-0.163205	0.773848
Zn12	Zn	1.869283	0.170128	1.107181
O13	O	1.282694	-0.434634	0.360495
O14	O	1.616027	-0.101300	0.693829
O15	O	1.949361	0.232033	1.027162
O16	O	1.481842	-0.400669	0.404419
O17	O	1.815176	-0.067336	0.737752
O18	O	2.148509	0.265997	1.071086
O19	O	1.349931	-0.473560	0.154949
O20	O	1.683264	-0.140226	0.488283
O21	O	2.016598	0.193107	0.821616
O22	O	1.230437	-0.264136	0.308145
O23	O	1.563770	0.069197	0.641478
O24	O	1.897104	0.402530	0.974812
O25	O	1.488194	-0.486665	0.293220
O26	O	1.821527	-0.153332	0.626553
O27	O	2.154860	0.180002	0.959886
O28	O	1.335197	-0.274066	0.412911
O29	O	1.668530	0.059267	0.746244
O30	O	2.001863	0.392601	1.079577
O31	O	1.238820	-0.377634	0.161383
O32	O	1.572153	-0.044301	0.494716
O33	O	1.905487	0.289032	0.828050
O34	O	1.083613	-0.377637	0.316589
O35	O	1.416947	-0.044303	0.649923
O36	O	1.750280	0.289030	0.983256
O37	O	1.215389	-0.486669	0.566023
O38	O	1.548722	-0.153335	0.899356
O39	O	1.882056	0.179998	1.232690
O40	O	1.077126	-0.473564	0.427753
O41	O	1.410460	-0.140230	0.761086
O42	O	1.743793	0.193103	1.094419
O43	O	1.326635	-0.400671	0.559625
O44	O	1.659969	-0.067338	0.892959
O45	O	1.993302	0.265995	1.226292
O46	O	1.341370	-0.600165	0.301664
O47	O	1.674703	-0.266832	0.634997
O48	O	2.008036	0.066502	0.968331
O49	O	1.223772	-0.600167	0.419261
O50	O	1.557105	-0.266833	0.752594
O51	O	1.890439	0.066500	1.085928
C52	C	1.047528	-0.424134	0.374067
C53	C	1.380861	-0.090801	0.707400
C54	C	1.714195	0.242532	1.040733
C55	C	0.946922	-0.419662	0.379894
C56	C	1.280255	-0.086328	0.713227
C57	C	1.613588	0.247005	1.046561
C58	C	0.764494	-0.500666	0.274876
C59	C	1.097828	-0.167333	0.608209
C60	C	1.431161	0.166000	0.941543
C61	C	0.669966	-0.496466	0.280349
C62	C	1.003299	-0.163133	0.613682
C63	C	1.336633	0.170201	0.947015
C64	C	0.663335	-0.407065	0.396316
C65	C	0.996668	-0.073732	0.729649
C66	C	1.330001	0.259601	1.062982
C67	C	0.757863	-0.411265	0.390843
C68	C	1.091196	-0.077932	0.724177
C69	C	1.424530	0.255401	1.057510
C70	C	0.808440	-0.458067	0.330120
C71	C	1.141773	-0.124733	0.663454
C72	C	1.475106	0.208600	0.996787
C73	C	0.902970	-0.462263	0.324644
C74	C	1.236303	-0.128929	0.657977
C75	C	1.569637	0.204404	0.991310
C76	C	0.896337	-0.372866	0.440615
C77	C	1.229670	-0.039533	0.773948
C78	C	1.563003	0.293800	1.107282
C79	C	0.801808	-0.368666	0.446088
C80	C	1.135142	-0.035333	0.779421
C81	C	1.468475	0.298001	1.112754
C82	C	1.282574	-0.627038	0.360476
C83	C	1.615908	-0.293704	0.693809
C84	C	1.949241	0.039629	1.027142
C85	C	1.282604	-0.709354	0.360493
C86	C	1.615938	-0.376021	0.693826
C87	C	1.949271	-0.042687	1.027159
C88	C	1.282800	-1.008456	0.360530
C89	C	1.616133	-0.675122	0.693863
C90	C	1.949467	-0.341789	1.027197
C91	C	1.208963	-0.977178	0.434683
C92	C	1.542296	-0.643844	0.768017
C93	C	1.875629	-0.310511	1.101350
C94	C	1.208644	-0.891535	0.434483
C95	C	1.541977	-0.558202	0.767816
C96	C	1.875311	-0.224868	1.101150
C97	C	1.282703	-0.860068	0.360512
C98	C	1.616036	-0.526735	0.693846
C99	C	1.949369	-0.193401	1.027179
C100	C	1.262407	-0.885786	0.266609
C101	C	1.595741	-0.552453	0.599942
C102	C	1.929074	-0.219120	0.933276
C103	C	1.261933	-0.971430	0.267055
C104	C	1.595266	-0.638097	0.600388
C105	C	1.928600	-0.304764	0.933721
C106	C	1.377134	-0.982165	0.379431
C107	C	1.710468	-0.648832	0.712765
C108	C	2.043801	-0.315498	1.046098
C109	C	1.376450	-0.896583	0.381556
C110	C	1.709783	-0.563249	0.714889
C111	C	2.043117	-0.229916	1.048223
C112	C	1.282650	-0.776205	0.360496
C113	C	1.615983	-0.442872	0.693830
C114	C	1.949316	-0.109538	1.027163
C115	C	1.282851	-1.092318	0.360540
C116	C	1.616185	-0.758985	0.693873
C117	C	1.949518	-0.425651	1.027206
C118	C	1.518778	-0.445174	0.346871
C119	C	1.852111	-0.111841	0.680205
C120	C	2.185445	0.221492	1.013538
C121	C	1.619383	-0.449666	0.341065
C122	C	1.952716	-0.116333	0.674399
C123	C	2.286050	0.217000	1.007732
C124	C	1.269063	-0.445178	0.596585
C125	C	1.602396	-0.111845	0.929918
C126	C	1.935730	0.221489	1.263252
C127	C	1.263254	-0.449671	0.697192
C128	C	1.596588	-0.116338	1.030526
C129	C	1.929921	0.216995	1.363859
C130	C	1.282837	-0.241480	0.360533
C131	C	1.616171	0.091853	0.693867
C132	C	1.949504	0.425186	1.027200
C133	C	1.282899	-0.159170	0.360549
C134	C	1.616232	0.174164	0.693883
C135	C	1.949565	0.507497	1.027216
C136	C	1.368177	-0.368548	0.879584
C137	C	1.701511	-0.035215	1.212918
C138	C	2.034844	0.298118	1.546251
C139	C	1.362722	-0.372768	0.974114
C140	C	1.696056	-0.039435	1.307447
C141	C	2.029389	0.293899	1.640780
C142	C	1.246886	-0.462325	0.980783
C143	C	1.580219	-0.128992	1.314116
C144	C	1.913552	0.204341	1.647450
C145	C	1.252341	-0.458106	0.886253
C146	C	1.585674	-0.124773	1.219587
C147	C	1.919007	0.208561	1.552920
C148	C	1.312989	-0.411217	0.835657
C149	C	1.646323	-0.077883	1.168991
C150	C	1.979656	0.255450	1.502324
C151	C	1.318448	-0.407002	0.741126
C152	C	1.651782	-0.073668	1.074459
C153	C	1.985115	0.259665	1.407792
C154	C	1.202607	-0.496555	0.747797
C155	C	1.535941	-0.163221	1.081130
C156	C	1.869274	0.170112	1.414464
C157	C	1.197153	-0.500774	0.842326
C158	C	1.530486	-0.167441	1.175660
C159	C	1.863819	0.165893	1.508993
C160	C	1.296266	-0.424147	1.125324
C161	C	1.629600	-0.090814	1.458657
C162	C	1.962933	0.242520	1.791991
C163	C	1.302080	-0.419656	1.024716
C164	C	1.635413	-0.086322	1.358050
C165	C	1.968746	0.247011	1.691383
H166	H	0.760616	-0.330564	0.495529
H167	H	1.093949	0.002769	0.828862
H168	H	1.427282	0.336103	1.162195
H169	H	1.396716	-1.007831	0.446447
H170	H	1.730049	-0.674498	0.779781
H171	H	2.063382	-0.341165	1.113114
N172	N	1.224602	-0.868787	0.526944
N173	N	1.557935	-0.535454	0.860277
N174	N	1.891269	-0.202121	1.193611
H175	H	1.224420	-0.812985	0.526991
H176	H	1.557754	-0.479651	0.860324
H177	H	1.891087	-0.146318	1.193658
H178	H	1.285014	-0.890838	0.542282
H179	H	1.618347	-0.557504	0.875615
H180	H	1.951681	-0.224171	1.208948
H181	H	1.433929	-0.875485	0.331043
H182	H	1.767262	-0.542152	0.664376
H183	H	2.100596	-0.208819	0.997709
N184	N	1.170810	-0.992627	0.245005
N185	N	1.504143	-0.659294	0.578339
N186	N	1.837477	-0.325961	0.911672
H187	H	1.178976	-1.021419	0.188303
H188	H	1.512310	-0.688086	0.521636
H189	H	1.845643	-0.354752	0.854969
H190	H	1.131372	-0.946326	0.235132
H191	H	1.464705	-0.612993	0.568465
H192	H	1.798039	-0.279659	0.901799
H193	H	0.932127	-0.338175	0.485595
H194	H	1.265460	-0.004842	0.818928
H195	H	1.598794	0.328492	1.152262
H196	H	1.432078	-1.002440	0.325355
H197	H	1.765411	-0.669107	0.658689
H198	H	2.098744	-0.335774	0.992022
N199	N	1.383862	-0.356434	0.686550
N200	N	1.717196	-0.023101	1.019883
N201	N	2.050529	0.310232	1.353217
H202	H	1.417994	-0.330044	0.728726
H203	H	1.751327	0.003290	1.062059
H204	H	2.084660	0.336623	1.395392
H205	H	1.349305	-0.318771	0.649461
H206	H	1.682638	0.014562	0.982794
H207	H	2.015972	0.347896	1.316127
N208	N	1.433596	-0.317987	0.825005
N209	N	1.766930	0.015346	1.158338
N210	N	2.100263	0.348679	1.491672
H211	H	1.467735	-0.291600	0.867177
H212	H	1.801068	0.041734	1.200511
H213	H	2.134401	0.375067	1.533844
H214	H	1.399043	-0.280321	0.787915
H215	H	1.732377	0.053012	1.121249
H216	H	2.065710	0.386346	1.454582
N217	N	1.224690	-1.009560	0.527463
N218	N	1.558024	-0.676226	0.860796
N219	N	1.891357	-0.342893	1.194129
H220	H	1.279830	-1.044821	0.522331
H221	H	1.613163	-0.711488	0.855664
H222	H	1.946496	-0.378155	1.188998
H223	H	1.170146	-1.037163	0.554591
H224	H	1.503479	-0.703829	0.887925
H225	H	1.836812	-0.370496	1.221258
N226	N	0.622570	-0.542404	0.220753
N227	N	0.955903	-0.209071	0.554086
N228	N	1.289237	0.124262	0.887419
H229	H	0.555011	-0.532643	0.233430
H230	H	0.888345	-0.199309	0.566764
H231	H	1.221678	0.134024	0.900097
H232	H	0.638263	-0.596670	0.233773
H233	H	0.971596	-0.263337	0.567106
H234	H	1.304930	0.069996	0.900440
N235	N	1.131740	-0.551350	0.896888
N236	N	1.465074	-0.218017	1.230222
N237	N	1.798407	0.115316	1.563555
H238	H	1.068029	-0.536230	0.884165
H239	H	1.401362	-0.202896	1.217499
H240	H	1.734695	0.130437	1.550832
H241	H	1.136726	-0.547535	0.963420
H242	H	1.470059	-0.214201	1.296754
H243	H	1.803392	0.119132	1.630087
N244	N	0.608776	-0.356597	0.461813
N245	N	0.942110	-0.023264	0.795146
N246	N	1.275443	0.310069	1.128479
H247	H	0.542225	-0.360406	0.456896
H248	H	0.875559	-0.027072	0.790230
H249	H	1.208892	0.306261	1.123563
H250	H	0.626120	-0.303798	0.446879
H251	H	0.959453	0.029535	0.780212
H252	H	1.292787	0.362868	1.113545
N253	N	1.116746	-1.000649	0.418922
N254	N	1.450079	-0.667316	0.752255
N255	N	1.783413	-0.333983	1.085588
H256	H	1.122591	-1.031456	0.363956
H257	H	1.455925	-0.698123	0.697290
H258	H	1.789258	-0.364789	1.030623
H259	H	1.075922	-0.955226	0.408751
H260	H	1.409255	-0.621893	0.742085
H261	H	1.742588	-0.288560	1.075418
H262	H	1.313680	-0.991890	0.210218
H263	H	1.647013	-0.658557	0.543551
H264	H	1.980346	-0.325224	0.876885
H265	H	1.157672	-0.531300	0.712022
H266	H	1.491005	-0.197967	1.045355
H267	H	1.824338	0.135366	1.378688
H268	H	1.138609	-0.867221	0.422399
H269	H	1.471943	-0.533888	0.755733
H270	H	1.805276	-0.200555	1.089066
H271	H	1.314739	-0.865202	0.210095
H272	H	1.648072	-0.531868	0.543428
H273	H	1.981405	-0.198535	0.876761
H274	H	1.194377	-0.860369	0.249541
H275	H	1.527710	-0.527035	0.582874
H276	H	1.861043	-0.193702	0.916208
H277	H	1.407660	-0.338021	1.009875
H278	H	1.740993	-0.004688	1.343209
H279	H	2.074327	0.328646	1.676542
N280	N	0.957519	-0.512737	0.259148
N281	N	1.290852	-0.179404	0.592482
N282	N	1.624186	0.153930	0.925815
H283	H	0.940242	-0.565558	0.274053
H284	H	1.273576	-0.232225	0.607387
H285	H	1.606909	0.101109	0.940720
H286	H	1.024054	-0.508872	0.264088
H287	H	1.357387	-0.175539	0.597421
H288	H	1.690721	0.157795	0.930755
N289	N	0.819053	-0.551132	0.209377
N290	N	1.152386	-0.217799	0.542710
N291	N	1.485720	0.115534	0.876044
H292	H	0.776869	-0.577479	0.175205
H293	H	1.110202	-0.244146	0.508539
H294	H	1.443536	0.089187	0.841872
H295	H	0.856143	-0.588836	0.243876
H296	H	1.189477	-0.255503	0.577209
H297	H	1.522810	0.077831	0.910543
N298	N	1.396866	-0.874936	0.473058
N299	N	1.730200	-0.541603	0.806391
N300	N	2.063533	-0.208270	1.139725
H301	H	1.345611	-0.841614	0.500771
H302	H	1.678944	-0.508281	0.834104
H303	H	2.012277	-0.174948	1.167437
H304	H	1.454825	-0.847790	0.465833
H305	H	1.788158	-0.514457	0.799166
H306	H	2.121492	-0.181123	1.132499
H307	H	1.197508	-0.500500	1.021994
H308	H	1.530841	-0.167167	1.355328
H309	H	1.864175	0.166167	1.688661
