data_functionalizedCrystal
_audit_creation_method	'MofGen! by Chris Wilmer'
_symmetry_space_group_name_H-M	'P1'
_symmetry_Int_Tables_number	1
_symmetry_cell_setting	triclinic
loop_
_symmetry_equiv_pos_as_xyz
  x,y,z
_cell_length_a	10.723023
_cell_length_b	14.044220
_cell_length_c	9.198806
_cell_angle_alpha	89.995861
_cell_angle_beta	89.996513
_cell_angle_gamma	88.828213
loop_
_atom_site_label
_atom_site_type_symbol
_atom_site_fract_x
_atom_site_fract_y
_atom_site_fract_z
O1	O	1.670498	0.133036	-0.120882
O2	O	1.308620	0.145772	-0.120889
O3	O	1.484127	0.001384	-0.120871
O4	O	1.494991	0.277424	-0.120900
O5	O	1.484112	0.001384	0.120914
O6	O	1.308605	0.145771	0.120896
O7	O	1.670483	0.133036	0.120903
Cu8	Cu	1.489542	0.139403	0.142977
Cu9	Cu	1.489560	0.139404	-0.142962
O10	O	1.494976	0.277423	0.120885
C11	C	1.262020	0.144845	0.000003
C12	C	1.123188	0.142072	0.000001
C13	C	1.061285	0.140836	0.125252
C14	C	0.917795	0.137971	0.125253
C15	C	1.479364	-0.033962	0.000022
C16	C	1.465180	-0.139280	0.000023
C17	C	1.439248	-0.332109	0.000002
C18	C	1.539850	-0.389089	-0.000000
C19	C	1.525421	-0.496386	-0.000012
C20	C	1.453675	-0.224802	0.000014
C21	C	1.717083	0.133963	0.000008
C22	C	1.855915	0.136735	0.000000
C23	C	1.499739	0.312769	-0.000011
C24	C	1.513923	0.418087	-0.000022
N25	N	1.489539	0.139403	0.344091
N26	N	1.489573	0.139397	-0.344076
C27	C	1.563203	0.078511	0.416295
C28	C	1.563222	0.078508	0.583707
H29	H	0.864559	0.136913	0.232485
H30	H	1.342291	-0.363909	-0.000003
O31	O	0.919536	0.138134	-0.127846
C32	C	0.989969	0.221662	-0.135645
H33	H	1.007709	0.249391	-0.021185
H34	H	0.936266	0.278084	-0.200769
C35	C	1.093696	0.165172	-0.351393
C36	C	1.115495	0.199225	-0.210810
H37	H	1.171124	0.151334	-0.397764
H38	H	1.046241	0.108899	-0.346143
H39	H	1.048941	0.212196	-0.405645
H40	H	1.160235	0.152197	-0.156556
H41	H	1.162961	0.255490	-0.216053
O42	O	1.414195	0.201630	0.417964
C43	C	1.345722	0.258264	0.318324
H44	H	1.339752	0.219449	0.209788
H45	H	1.394353	0.328916	0.302179
C46	C	1.220632	0.324793	0.511211
C47	C	1.213290	0.277116	0.377909
H48	H	1.138943	0.336426	0.547967
H49	H	1.266765	0.286640	0.578342
H50	H	1.261162	0.383664	0.497739
H51	H	1.172775	0.218241	0.391387
H52	H	1.167146	0.315260	0.310782
O53	O	1.124924	0.141980	0.253092
C54	C	1.205365	0.061465	0.260890
H55	H	1.226452	0.034510	0.146429
H56	H	1.158665	0.003038	0.326016
C57	C	1.301938	0.121957	0.476633
C58	C	1.327845	0.088856	0.336049
H59	H	1.377487	0.138850	0.523001
H60	H	1.247740	0.176200	0.471384
H61	H	1.263018	0.073262	0.530887
H62	H	1.366750	0.137554	0.281793
H63	H	1.382052	0.034621	0.341291
H64	H	1.069957	0.141007	-0.107230
H65	H	1.636814	-0.357287	-0.000096
O66	O	1.638281	0.016315	0.342005
C67	C	1.564644	-0.042476	0.253966
H68	H	1.471215	-0.005198	0.231362
H69	H	1.548213	-0.112668	0.312491
C70	C	1.747360	-0.108018	0.137032
C71	C	1.632613	-0.062229	0.109260
H72	H	1.789287	-0.120207	0.047774
H73	H	1.796972	-0.068413	0.196350
H74	H	1.733651	-0.166506	0.185807
H75	H	1.646324	-0.003737	0.060503
H76	H	1.583004	-0.101825	0.049931
O77	O	1.638393	0.016180	0.657615
C78	C	1.607301	-0.077813	0.620570
H79	H	1.559249	-0.077994	0.510030
H80	H	1.541709	-0.107382	0.706219
C81	C	1.785867	-0.140078	0.749497
C82	C	1.726859	-0.140300	0.613723
H83	H	1.859614	-0.178625	0.745279
H84	H	1.806812	-0.076753	0.774459
H85	H	1.731194	-0.164716	0.820856
H86	H	1.781525	-0.115651	0.542371
H87	H	1.705925	-0.203623	0.588749
H88	H	1.426508	0.191535	0.593841
