data_functionalizedCrystal
_audit_creation_method	'MofGen! by Chris Wilmer'
_symmetry_space_group_name_H-M	'P1'
_symmetry_Int_Tables_number	1
_symmetry_cell_setting	triclinic
loop_
_symmetry_equiv_pos_as_xyz
  x,y,z
_cell_length_a	16.974897
_cell_length_b	15.500227
_cell_length_c	16.992695
_cell_angle_alpha	86.978357
_cell_angle_beta	87.027201
_cell_angle_gamma	96.487168
loop_
_atom_site_label
_atom_site_type_symbol
_atom_site_fract_x
_atom_site_fract_y
_atom_site_fract_z
O1	O	1.062461	0.146255	0.092580
O2	O	1.562461	0.646255	0.592580
O3	O	0.832289	0.130158	0.106111
O4	O	1.332289	0.630158	0.606111
O5	O	0.946452	0.138135	-0.014793
O6	O	1.446452	0.638135	0.485207
O7	O	0.948298	0.138278	0.213483
O8	O	1.448298	0.638278	0.713483
O9	O	0.939523	-0.006238	-0.007485
O10	O	1.439523	0.493762	0.492515
O11	O	0.825360	-0.014215	0.113419
O12	O	1.325360	0.485785	0.613419
O13	O	1.055531	0.001882	0.099888
O14	O	1.555531	0.501882	0.599888
Cu15	Cu	0.939813	-0.019349	0.107320
Cu16	Cu	1.439813	0.480651	0.607320
Cu17	Cu	0.948008	0.151389	0.098678
Cu18	Cu	1.448008	0.651389	0.598678
O19	O	0.941369	-0.006095	0.220791
O20	O	1.441369	0.493905	0.720791
C21	C	0.799237	0.055903	0.109384
C22	C	1.299237	0.555903	0.609384
C23	C	0.711074	0.049737	0.108239
C24	C	1.211074	0.549737	0.608239
N25	N	0.934055	-0.139436	0.113399
N26	N	1.434055	0.360564	0.613399
C27	C	0.673424	0.125532	0.103720
C28	C	1.173424	0.625532	0.603720
C29	C	0.590584	0.119725	0.102658
C30	C	1.090584	0.619725	0.602658
C31	C	0.545395	0.038124	0.106109
C32	C	1.045395	0.538124	0.606109
C33	C	0.583050	-0.037676	0.110631
C34	C	1.083050	0.462324	0.610631
C35	C	0.665888	-0.031869	0.111699
C36	C	1.165888	0.468131	0.611699
C37	C	0.297241	0.012318	0.103348
C38	C	0.797241	0.512318	0.603348
C39	C	0.214397	0.006517	0.102278
C40	C	0.714397	0.506517	0.602278
C41	C	0.221936	0.163919	0.094306
C42	C	0.721936	0.663919	0.594306
C43	C	0.304776	0.169719	0.095370
C44	C	0.804776	0.669719	0.595370
C45	C	0.342424	0.093919	0.099895
C46	C	0.842424	0.593919	0.599895
N47	N	0.460719	0.032187	0.105021
N48	N	0.960719	0.532187	0.605021
N49	N	0.427098	0.099856	0.100989
N50	N	0.927098	0.599856	0.600989
C51	C	0.982449	-0.181331	0.062186
C52	C	1.482449	0.318669	0.562186
C53	C	0.978102	-0.272208	0.066790
C54	C	1.478102	0.227792	0.566790
C55	C	0.925364	-0.321187	0.122611
C56	C	1.425364	0.178813	0.622611
C57	C	0.876965	-0.279286	0.173826
C58	C	1.376965	0.220714	0.673826
C59	C	0.881309	-0.188411	0.169217
C60	C	1.381309	0.311589	0.669217
C61	C	0.909716	-0.595747	0.139200
C62	C	1.409716	-0.095747	0.639200
C63	C	0.905378	-0.686628	0.143806
C64	C	1.405378	-0.186628	0.643806
C65	C	1.006514	-0.679544	0.036769
C66	C	1.506514	-0.179544	0.536769
C67	C	1.010856	-0.588667	0.032168
C68	C	1.510856	-0.088667	0.532168
C69	C	0.962454	-0.546774	0.083380
C70	C	1.462454	-0.046774	0.583380
C71	C	0.920921	-0.414078	0.127320
C72	C	1.420921	0.085922	0.627320
C73	C	0.966893	-0.453886	0.078667
C74	C	1.466893	0.046114	0.578667
C75	C	1.088584	0.076140	0.096614
C76	C	1.588584	0.576140	0.596614
C77	C	1.176747	0.082311	0.097759
C78	C	1.676747	0.582311	0.597759
C79	C	0.940613	0.065783	-0.040341
C80	C	1.440613	0.565783	0.459659
C81	C	0.933530	0.065288	-0.127353
C82	C	1.433530	0.565288	0.372647
N83	N	0.953772	0.271477	0.092593
N84	N	1.453772	0.771477	0.592593
C85	C	1.001874	0.070066	-0.177905
C86	C	1.501874	0.570066	0.322095
C87	C	0.995214	0.069609	-0.259661
C88	C	1.495214	0.569609	0.240339
C89	C	0.920209	0.064366	-0.290864
C90	C	1.420209	0.564366	0.209136
C91	C	0.851860	0.059590	-0.240305
C92	C	1.351860	0.559590	0.259695
C93	C	0.858521	0.060054	-0.158551
C94	C	1.358521	0.560054	0.341449
C95	C	0.892603	0.062448	-0.534336
C96	C	1.392603	0.562448	-0.034336
C97	C	0.885947	0.061982	-0.616097
C98	C	1.385947	0.561982	-0.116097
C99	C	1.029302	0.072002	-0.635448
C100	C	1.529302	0.572002	-0.135448
C101	C	1.035956	0.072460	-0.553691
C102	C	1.535956	0.572460	-0.053691
C103	C	0.967607	0.067688	-0.503139
C104	C	1.467607	0.567688	-0.003139
N105	N	0.913400	0.063896	-0.374432
N106	N	1.413400	0.563896	0.125568
N107	N	0.974417	0.068165	-0.419573
N108	N	1.474417	0.568165	0.080427
C109	C	0.947207	0.066259	0.246339
C110	C	1.447207	0.566259	0.746339
C111	C	0.954291	0.066760	0.333350
C112	C	1.454291	0.566760	0.833350
H113	H	0.710211	0.191980	0.100907
H114	H	1.210211	0.691980	0.600907
H115	H	0.877983	-0.453964	0.172772
H116	H	1.377983	0.046036	0.672772
C117	C	0.606359	0.275891	0.094862
C118	C	1.106359	0.775891	0.594862
C119	C	0.549201	0.203042	0.097678
C120	C	1.049201	0.703042	0.597678
H121	H	0.580809	0.327329	0.091781
H122	H	1.080809	0.827329	0.591781
H123	H	0.635361	0.274674	0.141152
H124	H	1.135361	0.774674	0.641152
H125	H	0.641662	0.275083	0.049733
H126	H	1.141662	0.775083	0.549733
H127	H	0.513901	0.203847	0.142810
H128	H	1.013901	0.703847	0.642810
H129	H	0.520185	0.204260	0.051382
H130	H	1.020185	0.704260	0.551382
C131	C	1.081973	-0.183466	-0.043157
C132	C	1.581973	0.316534	0.456843
C133	C	1.040418	-0.127497	0.000824
C134	C	1.540418	0.372503	0.500824
H135	H	1.117756	-0.150232	-0.081044
H136	H	1.617756	0.349768	0.418956
H137	H	1.110881	-0.216754	-0.008845
H138	H	1.610881	0.283246	0.491155
H139	H	1.045460	-0.221362	-0.069420
H140	H	1.545460	0.278638	0.430580
H141	H	1.076930	-0.089606	0.027092
H142	H	1.576930	0.410394	0.527092
H143	H	1.011508	-0.094195	-0.033493
H144	H	1.511508	0.405805	0.466507
C145	C	1.142903	0.079940	-0.205253
C146	C	1.642903	0.579940	0.294747
C147	C	1.084323	0.075835	-0.143612
C148	C	1.584323	0.575835	0.356388
H149	H	1.193805	0.083510	-0.184082
H150	H	1.693805	0.583510	0.315918
H151	H	1.134911	0.029206	-0.234190
H152	H	1.634911	0.529206	0.265810
H153	H	1.139730	0.129897	-0.239285
H154	H	1.639730	0.629897	0.260715
H155	H	1.087493	0.025873	-0.109583
H156	H	1.587493	0.525873	0.390417
H157	H	1.092318	0.126574	-0.114662
H158	H	1.592318	0.626574	0.385338
C159	C	0.303905	0.324722	0.087382
C160	C	0.803905	0.824722	0.587382
C161	C	0.354446	0.259418	0.091573
C162	C	0.854446	0.759418	0.591573
H163	H	0.334570	0.380098	0.085039
H164	H	0.834570	0.880098	0.585039
H165	H	0.274585	0.319396	0.041426
H166	H	0.774585	0.819396	0.541426
H167	H	0.268291	0.318966	0.132847
H168	H	0.768291	0.818966	0.632847
H169	H	0.390056	0.265170	0.046105
H170	H	0.890056	0.765170	0.546105
H171	H	0.383779	0.264746	0.137533
H172	H	0.883779	0.764746	0.637533
C173	C	0.789528	-0.092857	0.116880
C174	C	1.289528	0.407143	0.616880
C175	C	0.707277	-0.115184	0.116666
C176	C	1.207277	0.384816	0.616666
H177	H	0.815077	-0.144295	0.119954
H178	H	1.315077	0.355705	0.619954
H179	H	0.807796	-0.059360	0.069710
H180	H	1.307796	0.440640	0.569710
H181	H	0.801494	-0.059784	0.161130
H182	H	1.301494	0.440216	0.661130
H183	H	0.695311	-0.148252	0.072412
H184	H	1.195311	0.351748	0.572412
H185	H	0.689003	-0.148695	0.163841
H186	H	1.189003	0.351305	0.663841
C187	C	0.744910	0.052150	-0.588763
C188	C	1.244910	0.552150	-0.088763
C189	C	0.803496	0.056233	-0.650397
C190	C	1.303496	0.556233	-0.150397
H191	H	0.694013	0.048607	-0.609941
H192	H	1.194013	0.548607	-0.109941
H193	H	0.748061	0.002195	-0.554734
H194	H	1.248061	0.502195	-0.054734
H195	H	0.752918	0.102889	-0.559823
H196	H	1.252918	0.602889	-0.059823
H197	H	0.795491	0.005490	-0.679334
H198	H	1.295491	0.505490	-0.179334
H199	H	0.800343	0.106193	-0.684439
H200	H	1.300343	0.606193	-0.184439
C201	C	0.490166	-0.135202	0.046669
C202	C	0.990166	0.364798	0.546669
C203	C	0.533381	-0.127376	0.114424
C204	C	1.033381	0.372624	0.614424
H205	H	0.459508	-0.190582	0.049008
H206	H	0.959508	0.309418	0.549008
H207	H	0.455889	-0.090898	0.043830
H208	H	0.955889	0.409102	0.543830
H209	H	0.525797	-0.129447	0.001216
H210	H	1.025797	0.370553	0.501216
H211	H	0.497750	-0.133125	0.159876
H212	H	0.997750	0.366875	0.659876
H213	H	0.567661	-0.171692	0.117271
H214	H	1.067661	0.328308	0.617271
C215	C	0.741949	0.125869	-0.120638
C216	C	1.241949	0.625869	0.379362
C217	C	0.783395	0.054800	-0.102981
C218	C	1.283395	0.554800	0.397019
H219	H	0.695566	0.122624	-0.086334
H220	H	1.195566	0.622624	0.413666
H221	H	0.774909	0.178340	-0.113758
H222	H	1.274909	0.678340	0.386242
H223	H	0.727253	0.124832	-0.173794
H224	H	1.227253	0.624832	0.326206
H225	H	0.798096	0.055841	-0.049825
H226	H	1.298096	0.555841	0.450175
H227	H	0.750429	0.002316	-0.109853
H228	H	1.250429	0.502316	0.390147
H229	H	0.191275	0.225631	0.090623
H230	H	0.691275	0.725631	0.590623
C231	C	1.176987	0.082319	-0.581033
C232	C	1.676987	0.582319	-0.081033
C233	C	1.118403	0.078222	-0.519396
C234	C	1.618403	0.578222	-0.019396
H235	H	1.227886	0.085877	-0.559859
H236	H	1.727886	0.585877	-0.059859
H237	H	1.168988	0.031589	-0.609973
H238	H	1.668988	0.531589	-0.109973
H239	H	1.173824	0.132282	-0.615063
H240	H	1.673824	0.632282	-0.115063
H241	H	1.121563	0.028255	-0.485369
H242	H	1.621563	0.528255	0.014631
H243	H	1.126405	0.128957	-0.490443
H244	H	1.626405	0.628957	0.009557
C245	C	0.215259	-0.148494	0.110277
C246	C	0.715259	0.351506	0.610277
C247	C	0.164723	-0.083187	0.106076
C248	C	0.664723	0.416813	0.606076
H249	H	0.184591	-0.203868	0.112625
H250	H	0.684591	0.296132	0.612625
H251	H	0.250875	-0.142745	0.064823
H252	H	0.750875	0.357255	0.564823
H253	H	0.244577	-0.143166	0.156243
H254	H	0.744577	0.356834	0.656243
H255	H	0.135410	-0.088511	0.060107
H256	H	0.635410	0.411489	0.560107
H257	H	0.129094	-0.088939	0.151535
H258	H	0.629094	0.411061	0.651535
H259	H	0.327883	-0.049404	0.107028
H260	H	0.827883	0.450596	0.607028
H261	H	1.050867	0.073498	-0.300818
H262	H	1.550867	0.573498	0.199182
H263	H	1.053799	-0.548790	-0.013285
H264	H	1.553799	-0.048790	0.486715
C265	C	0.820479	0.131379	-0.434940
C266	C	1.320479	0.631379	0.065060
C267	C	0.817471	0.057198	-0.478781
C268	C	1.317471	0.557198	0.021219
H269	H	0.774089	0.128138	-0.400646
H270	H	1.274089	0.628138	0.099354
H271	H	0.866090	0.134562	-0.404653
H272	H	1.366090	0.634562	0.095347
H273	H	0.823282	0.181744	-0.469792
H274	H	1.323282	0.681744	0.030208
H275	H	0.814674	0.006833	-0.443930
H276	H	1.314674	0.506833	0.056070
H277	H	0.771847	0.054006	-0.509071
H278	H	1.271847	0.554006	-0.009071
C279	C	0.983690	-0.373673	-0.034789
C280	C	1.483690	0.126327	0.465211
C281	C	1.031304	-0.318252	0.010496
C282	C	1.531304	0.181748	0.510496
H283	H	1.016538	-0.402092	-0.069548
H284	H	1.516538	0.097908	0.430452
H285	H	0.951668	-0.415849	-0.000891
H286	H	1.451668	0.084151	0.499109
H287	H	0.950580	-0.340659	-0.064649
H288	H	1.450580	0.159341	0.435351
H289	H	1.064409	-0.351267	0.040361
H290	H	1.564409	0.148733	0.540361
H291	H	1.063339	-0.276070	-0.023406
H292	H	1.563339	0.223930	0.476594
C293	C	0.724056	-0.023305	-0.245219
C294	C	1.224056	0.476695	0.254781
C295	C	0.769411	0.053831	-0.274597
C296	C	1.269411	0.553831	0.225403
H297	H	0.673152	-0.026857	-0.266384
H298	H	1.173152	0.473143	0.233616
H299	H	0.749994	-0.071660	-0.260054
H300	H	1.249994	0.428340	0.239946
H301	H	0.718251	-0.023701	-0.189294
H302	H	1.218251	0.476299	0.310706
H303	H	0.775221	0.054224	-0.330522
H304	H	1.275221	0.554224	0.169478
H305	H	0.743467	0.102198	-0.259767
H306	H	1.243467	0.602198	0.240233
C307	C	0.809321	-0.611890	0.245469
C308	C	1.309321	-0.111890	0.745469
C309	C	0.856520	-0.549706	0.195498
C310	C	1.356520	-0.049706	0.695498
H311	H	0.776482	-0.583461	0.280229
H312	H	1.276482	-0.083461	0.780229
H313	H	0.777026	-0.649487	0.214750
H314	H	1.277026	-0.149487	0.714750
H315	H	0.842446	-0.644886	0.275326
H316	H	1.342446	-0.144886	0.775326
H317	H	0.823394	-0.516714	0.165635
H318	H	1.323394	-0.016714	0.665635
H319	H	0.888817	-0.512094	0.226220
H320	H	1.388817	-0.012094	0.726220
H321	H	1.084947	0.075889	-0.676615
H322	H	1.584947	0.575889	-0.176615
C323	C	1.043152	-0.704874	-0.097700
C324	C	1.543152	-0.204874	0.402300
C325	C	1.059705	-0.725596	-0.019530
C326	C	1.559705	-0.225596	0.480470
H327	H	1.075993	-0.733302	-0.132459
H328	H	1.575993	-0.233302	0.367541
H329	H	0.988962	-0.723523	-0.105235
H330	H	1.488962	-0.223523	0.394765
H331	H	1.053290	-0.643741	-0.108422
H332	H	1.553290	-0.143741	0.391578
H333	H	1.049561	-0.786728	-0.008806
H334	H	1.549561	-0.286728	0.491194
H335	H	1.113908	-0.706951	-0.011991
H336	H	1.613908	-0.206951	0.488009
C337	C	0.825406	-0.421734	0.228423
C338	C	1.325406	0.078266	0.728423
C339	C	0.818996	-0.333122	0.235188
C340	C	1.318996	0.166878	0.735188
H341	H	0.789623	-0.454967	0.266312
H342	H	1.289623	0.045033	0.766312
H343	H	0.812762	-0.437471	0.176904
H344	H	1.312762	0.062529	0.676904
H345	H	0.878182	-0.432860	0.237480
H346	H	1.378182	0.067140	0.737480
H347	H	0.766222	-0.321995	0.226125
H348	H	1.266222	0.178005	0.726125
H349	H	0.831636	-0.317379	0.286719
H350	H	1.331636	0.182621	0.786719
H351	H	0.862431	-0.726504	0.189265
H352	H	1.362431	-0.226504	0.689265
H353	H	0.841900	-0.154301	0.210919
H354	H	1.341900	0.345699	0.710919
H355	H	1.009829	-0.414004	0.033215
H356	H	1.509829	0.085996	0.533215
