data_functionalizedCrystal
_audit_creation_method	'MofGen! by Chris Wilmer'
_symmetry_space_group_name_H-M	'P1'
_symmetry_Int_Tables_number	1
_symmetry_cell_setting	triclinic
loop_
_symmetry_equiv_pos_as_xyz
  x,y,z
_cell_length_a	12.784905
_cell_length_b	19.188937
_cell_length_c	11.295483
_cell_angle_alpha	85.919817
_cell_angle_beta	86.327249
_cell_angle_gamma	101.872625
loop_
_atom_site_label
_atom_site_type_symbol
_atom_site_fract_x
_atom_site_fract_y
_atom_site_fract_z
O1	O	1.417478	0.000763	-0.099032
O2	O	1.917478	0.500763	0.400968
O3	O	1.107886	-0.029146	-0.099034
O4	O	1.607886	0.470854	0.400966
O5	O	1.271612	0.087987	-0.099022
O6	O	1.771612	0.587987	0.400978
O7	O	1.253752	-0.116371	-0.099044
O8	O	1.753752	0.383629	0.400956
O9	O	1.257231	0.077714	0.099028
O10	O	1.757231	0.577714	0.599028
O11	O	1.093505	-0.039420	0.099016
O12	O	1.593505	0.460580	0.599016
O13	O	1.403098	-0.009511	0.099018
O14	O	1.903098	0.490489	0.599018
Cu15	Cu	1.246989	-0.025403	0.117100
Cu16	Cu	1.746989	0.474597	0.617100
Cu17	Cu	1.263995	-0.013254	-0.117116
Cu18	Cu	1.763995	0.486746	0.382884
O19	O	1.239372	-0.126644	0.099006
O20	O	1.739372	0.373356	0.599006
C21	C	1.061087	-0.036228	-0.000009
C22	C	1.561087	0.463772	0.499991
C23	C	0.943067	-0.042016	-0.000009
C24	C	1.443067	0.457984	0.499991
C25	C	0.747227	0.075903	-0.000018
C26	C	1.247227	0.575903	0.499982
C27	C	0.636337	0.070468	-0.000018
C28	C	1.136337	0.570468	0.499982
C29	C	0.610395	-0.058319	-0.000019
C30	C	1.110395	0.441681	0.499981
C31	C	0.721285	-0.052884	-0.000019
C32	C	1.221285	0.447116	0.499981
C33	C	0.789698	0.014229	-0.000016
C34	C	1.289698	0.514229	0.499984
C35	C	0.900589	0.019663	-0.000007
C36	C	1.400589	0.519663	0.499993
C37	C	0.874646	-0.109123	-0.000017
C38	C	1.374646	0.390877	0.499983
C39	C	0.763756	-0.114558	-0.000017
C40	C	1.263756	0.385442	0.499983
C41	C	1.263842	0.108827	0.000003
C42	C	1.763842	0.608827	0.500003
C43	C	1.262102	0.186230	0.000004
C44	C	1.762102	0.686230	0.500004
C45	C	1.241887	0.733164	0.107943
C46	C	1.741887	1.233164	0.607943
C47	C	1.243510	0.660434	0.107949
C48	C	1.743510	1.160434	0.607949
C49	C	1.252165	0.629663	-0.000008
C50	C	1.752165	1.129663	0.499992
C51	C	1.259171	0.671623	-0.107977
C52	C	1.759171	1.171623	0.392023
C53	C	1.257537	0.744350	-0.107979
C54	C	1.757537	1.244350	0.392021
N55	N	1.321065	0.528509	-0.080363
N56	N	1.821065	1.028509	0.419637
N57	N	1.322618	0.459422	-0.080354
N58	N	1.822618	0.959422	0.419646
C59	C	1.257085	0.410542	-0.000008
C60	C	1.757085	0.910542	0.499992
N61	N	1.189952	0.433360	0.080347
N62	N	1.689952	0.933360	0.580347
N63	N	1.188403	0.502454	0.080341
N64	N	1.688403	1.002454	0.580341
C65	C	1.253937	0.550804	-0.000017
C66	C	1.753937	1.050804	0.499983
C67	C	1.251832	0.289728	0.107961
C68	C	1.751832	0.789728	0.607961
C69	C	1.253449	0.216996	0.107962
C70	C	1.753449	0.716996	0.607962
C71	C	1.269120	0.228188	-0.107967
C72	C	1.769120	0.728188	0.392033
C73	C	1.267493	0.300917	-0.107965
C74	C	1.767493	0.800917	0.392035
C75	C	1.258854	0.331683	0.000003
C76	C	1.758854	0.831683	0.500003
C77	C	1.449897	-0.002429	-0.000009
C78	C	1.949897	0.497571	0.499991
C79	C	1.567918	0.003359	-0.000017
C80	C	2.067918	0.503359	0.499983
N81	N	1.235035	-0.033948	0.281836
N82	N	1.735035	0.466052	0.781836
C83	C	1.247146	0.852516	-0.000017
C84	C	1.747146	1.352516	0.499983
C85	C	1.248898	0.775116	-0.000012
C86	C	1.748898	1.275116	0.499988
N87	N	1.275957	-0.004703	-0.281852
N88	N	1.775957	0.495297	0.218148
C89	C	1.362006	0.056844	0.531135
C90	C	1.862006	0.556844	1.031135
C91	C	1.352980	0.050383	0.655798
C92	C	1.852980	0.550383	1.155798
C93	C	1.207953	-0.053329	0.655827
C94	C	1.707953	0.446671	1.155827
C95	C	1.216979	-0.046868	0.531164
C96	C	1.716979	0.453132	1.031164
C97	C	1.294009	0.008220	0.468822
C98	C	1.794009	0.508220	0.968822
C99	C	1.303039	0.014678	0.344157
C100	C	1.803039	0.514678	0.844157
C101	C	1.158007	-0.089030	0.344189
C102	C	1.658007	0.410970	0.844189
C103	C	1.148981	-0.095492	0.468852
C104	C	1.648981	0.404508	0.968852
H105	H	0.601763	0.120690	-0.000022
H106	H	1.101763	0.620690	0.499978
H107	H	1.365764	0.059532	0.293399
H108	H	1.865764	0.559532	0.793399
H109	H	1.237781	0.626268	0.195862
H110	H	1.737781	1.126268	0.695862
H111	H	1.102642	-0.128625	0.293440
H112	H	1.602642	0.371375	0.793440
H113	H	0.956289	0.074309	-0.000003
H114	H	1.456289	0.574309	0.499997
H115	H	1.408349	0.089978	0.706529
H116	H	1.908349	0.589978	1.206529
H117	H	0.909236	-0.159343	-0.000009
H118	H	1.409236	0.340657	0.499991
H119	H	1.145229	-0.098177	0.706602
H120	H	1.645229	0.401823	1.206602
H121	H	0.802929	0.130549	-0.000008
H122	H	1.302929	0.630549	0.499992
H123	H	0.554677	-0.112958	-0.000037
H124	H	1.054677	0.387042	0.499963
H125	H	1.273209	0.335076	-0.195874
H126	H	1.773209	0.835076	0.304126
H127	H	0.708040	-0.169199	-0.000024
H128	H	1.208040	0.330801	0.499976
H129	H	1.234851	0.758208	0.195859
H130	H	1.734851	1.258208	0.695859
H131	H	1.266214	0.646564	-0.195876
H132	H	1.766214	1.146564	0.304124
H133	H	1.086262	-0.140342	0.519625
H134	H	1.586262	0.359658	1.019625
H135	H	1.263245	0.778507	-0.195892
H136	H	1.763245	1.278507	0.304108
H137	H	1.244789	0.314778	0.195874
H138	H	1.744789	0.814778	0.695874
H139	H	1.247737	0.182839	0.195875
H140	H	1.747737	0.682839	0.695875
H141	H	1.424735	0.101695	0.480375
H142	H	1.924735	0.601695	0.980375
H143	H	1.276155	0.203133	-0.195867
H144	H	1.776155	0.703133	0.304133
