data_functionalizedCrystal
_audit_creation_method	'MofGen! by Chris Wilmer'
_symmetry_space_group_name_H-M	'P1'
_symmetry_Int_Tables_number	1
_symmetry_cell_setting	triclinic
loop_
_symmetry_equiv_pos_as_xyz
  x,y,z
_cell_length_a	20.875444
_cell_length_b	14.560438
_cell_length_c	14.560438
_cell_angle_alpha	90.001334
_cell_angle_beta	61.755925
_cell_angle_gamma	61.741095
loop_
_atom_site_label
_atom_site_type_symbol
_atom_site_fract_x
_atom_site_fract_y
_atom_site_fract_z
Zr1	Zr	0.667392	0.934378	-0.070683
O2	O	0.794597	0.797183	-0.207835
O3	O	0.540189	0.969878	-0.035225
O4	O	0.667393	0.979330	-0.217331
O5	O	0.667391	0.787735	0.125412
O6	O	0.667392	1.130470	-0.217329
O7	O	0.667392	0.787731	-0.025729
O8	O	0.439846	1.113562	0.108425
O9	O	0.894937	0.804643	-0.200343
O10	O	0.592508	1.105735	-0.012144
O11	O	0.592507	0.992944	0.100650
O12	O	0.742275	1.004073	-0.113757
O13	O	0.742274	0.891281	-0.000963
Zr14	Zr	0.667388	1.175435	0.170372
Zr15	Zr	0.667391	1.175429	-0.070680
Zr16	Zr	0.667389	0.934384	0.170369
Zr17	Zr	0.827422	0.946276	-0.058734
Zr18	Zr	0.507358	1.163538	0.158422
O19	O	0.794591	1.139935	0.134914
O20	O	0.794595	1.139927	-0.207831
O21	O	0.794593	0.797192	0.134910
O22	O	0.540183	1.312630	0.307524
O23	O	0.540186	1.312622	-0.035221
O24	O	0.540185	0.969886	0.307520
O25	O	0.667389	1.322078	-0.025723
O26	O	0.667386	1.130483	0.317020
O27	O	0.667387	0.979343	0.317018
O28	O	0.667387	1.322082	0.125417
O29	O	0.894936	0.996247	-0.200341
O30	O	0.439844	1.113567	0.300029
O31	O	0.439843	1.305170	0.300031
O32	O	0.439845	1.305166	0.108427
O33	O	0.894935	0.804648	-0.008739
O34	O	0.894934	0.996251	-0.008737
O35	O	0.592505	1.105741	0.213445
O36	O	0.592506	1.218532	0.100652
O37	O	0.742273	1.116869	-0.000961
O38	O	0.742272	1.004078	0.111832
C39	C	0.467217	1.040025	0.034898
C40	C	0.399280	1.034974	0.029825
C41	C	0.022689	0.998051	-0.006917
C42	C	0.086540	1.002794	-0.002196
C43	C	0.063200	1.084331	0.079300
C44	C	-0.023997	1.161123	0.156088
C45	C	-0.087846	1.156374	0.151372
C46	C	0.248233	1.107018	0.101896
C47	C	0.312091	1.111762	0.106605
C48	C	0.422624	0.953432	-0.051679
C49	C	0.358768	0.948694	-0.056392
C50	C	0.271577	1.025483	0.020399
N51	N	0.128465	1.089183	0.084125
N52	N	0.206314	1.020625	0.015578
C53	C	0.667392	0.753388	0.049841
C54	C	0.667392	0.651056	0.049840
C55	C	0.667395	0.602978	-0.033426
C56	C	0.667390	0.506830	-0.033420
C57	C	0.667382	0.506844	0.133123
C58	C	0.667381	0.602995	0.133120
C59	C	0.867563	1.069788	0.064791
C60	C	0.935500	1.074839	0.069864
C61	C	0.667393	1.054899	-0.251675
C62	C	0.667394	1.054897	-0.354008
C63	C	0.667388	1.356425	0.049847
C64	C	0.667387	1.458757	0.049849
C65	C	0.745570	1.001831	-0.455125
C66	C	0.745566	1.001844	-0.551274
C67	C	0.589204	1.107989	-0.445175
C68	C	0.589209	1.107982	-0.349029
C69	C	0.667387	1.054914	0.351364
C70	C	0.667385	1.054917	0.453696
C71	C	0.467215	1.341543	0.034901
C72	C	0.399277	1.438825	0.029829
C73	C	0.467213	1.040032	0.336417
C74	C	0.399275	1.034984	0.433677
C75	C	0.467211	1.341551	0.336420
C76	C	0.399273	1.438835	0.433681
C77	C	0.867569	0.768263	-0.236731
C78	C	0.935507	0.670979	-0.333993
C79	C	0.867565	0.768270	0.064788
C80	C	0.935503	0.670988	0.069860
C81	C	0.867567	1.069781	-0.236728
C82	C	0.935505	1.074829	-0.333988
C83	C	0.367374	1.425631	-0.031441
C84	C	0.303548	1.517029	-0.036228
C85	C	0.271622	1.621620	0.020262
C86	C	0.303532	1.634812	0.081534
C87	C	0.367361	1.543415	0.086314
C88	C	0.367370	1.091492	0.538240
C89	C	0.303544	1.086745	0.629636
C90	C	0.271620	1.025496	0.616466
C91	C	0.303531	0.968981	0.511893
C92	C	0.367361	0.973722	0.420499
C93	C	0.367368	1.543407	0.420479
C94	C	0.303541	1.634825	0.511858
C95	C	0.271616	1.621670	0.616437
C96	C	0.303527	1.517087	0.629638
C97	C	0.367357	1.425671	0.538260
C98	C	0.967420	0.566407	-0.320790
C99	C	1.031266	0.474990	-0.412167
C100	C	1.063195	0.488146	-0.516746
C101	C	1.031280	0.592728	-0.529947
C102	C	0.967439	0.684144	-0.438570
C103	C	0.967413	0.684183	0.131120
C104	C	1.031256	0.592787	0.135882
C105	C	1.063184	0.488196	0.079389
C106	C	1.031272	0.475003	0.018121
C107	C	0.967434	0.566399	0.013354
C108	C	0.967408	1.136089	-0.320784
C109	C	1.031235	1.140853	-0.412162
C110	C	1.063161	1.084352	-0.516742
C111	C	1.031251	1.023090	-0.529944
C112	C	0.967421	1.018332	-0.438568
H113	H	0.493620	0.890914	-0.114197
H114	H	0.277529	0.919112	0.501186
N115	N	-0.049172	1.249072	0.243983
H116	H	-0.114097	1.296996	0.291908
H117	H	-0.025075	1.214459	0.289433
N118	N	1.065697	0.962146	-0.642745
H119	H	1.035805	0.922611	-0.637257
H120	H	1.054587	1.015388	-0.686027
N121	N	0.932983	1.197033	-0.207994
H122	H	0.962884	1.236563	-0.213512
H123	H	0.868903	1.251458	-0.170321
N124	N	0.202774	1.020389	0.715046
H125	H	0.187408	1.065488	0.783281
H126	H	0.149846	1.049941	0.711046
H127	H	0.393325	1.340527	0.549025
N128	N	1.065679	0.362196	-0.397925
H129	H	1.092147	0.355166	-0.353456
H130	H	1.016933	0.349645	-0.359131
N131	N	0.401778	0.912710	0.307743
H132	H	0.353079	0.939945	0.295098
H133	H	0.447086	0.924980	0.251876
H134	H	0.393353	1.554139	0.335333
H135	H	1.057228	0.603550	0.185777
H136	H	1.057277	0.389833	-0.027873
N137	N	0.269130	1.747616	0.497606
H138	H	0.299037	1.742069	0.417488
H139	H	0.205050	1.785318	0.530153
H140	H	0.377782	0.882297	-0.122754
N141	N	0.202771	1.720274	0.714989
H142	H	0.187406	1.788513	0.690747
H143	H	0.149842	1.716294	0.757276
N144	N	0.504879	1.165243	-0.439808
H145	H	0.516737	1.157194	-0.516059
H146	H	0.470738	1.131792	-0.399837
H147	H	0.809233	0.958605	-0.459185
N148	N	0.829892	0.944624	-0.660326
H149	H	0.864078	0.864796	-0.666798
H150	H	0.817971	0.952766	-0.720429
H151	H	0.277523	1.506392	0.714798
H152	H	0.667375	0.467702	0.200927
H153	H	0.277568	1.132771	0.714775
H154	H	0.941453	0.968444	-0.449334
H155	H	0.525546	1.151200	-0.266689
H156	H	1.057209	1.190737	-0.401391
N157	N	0.932996	0.796981	0.192051
H158	H	0.944104	0.840319	0.138875
H159	H	0.868930	0.834654	0.246527
H160	H	0.277575	1.506266	-0.086122
H161	H	0.393355	1.141368	0.548983
H162	H	0.293076	1.178160	0.172976
N163	N	0.667361	0.654871	0.222945
H164	H	0.667357	0.609834	0.275702
H165	H	0.720522	0.658685	0.190512
N166	N	-0.181889	1.239192	0.234187
H167	H	-0.186988	1.291568	0.286530
H168	H	-0.210803	1.280707	0.195635
N169	N	0.401799	1.312829	-0.092372
H170	H	0.371898	1.318356	-0.131912
H171	H	0.465879	1.275133	-0.146776
H172	H	0.219648	1.696031	0.016361
N173	N	0.154198	1.189848	0.184706
H174	H	0.125250	1.151381	0.226331
H175	H	0.149180	1.242200	0.236969
N176	N	0.401766	1.557659	0.152401
H177	H	0.447050	1.483896	0.146862
H178	H	0.428199	1.602144	0.123446
N179	N	0.269079	1.747628	0.142466
H180	H	0.242584	1.754677	0.222857
H181	H	0.317805	1.760213	0.115148
H182	H	0.941426	0.555674	-0.235644
N183	N	1.131998	1.089500	-0.615294
H184	H	1.147359	1.136886	-0.591050
H185	H	1.184931	1.013667	-0.657590
H186	H	1.115178	0.413700	-0.591142
H187	H	0.667402	0.642108	-0.101237
N188	N	1.065721	0.606909	-0.642746
H189	H	1.111002	0.533124	-0.698620
H190	H	1.016974	0.645790	-0.655301
N191	N	0.933019	0.796930	-0.452819
H192	H	0.962936	0.791382	-0.532937
H193	H	0.868942	0.834619	-0.420288
H194	H	0.941454	0.555640	-0.036529
N195	N	0.047865	0.910114	-0.094825
H196	H	0.112790	0.862189	-0.142747
H197	H	0.023794	0.864658	-0.060187
N198	N	0.180580	0.920009	-0.085044
H199	H	0.185677	0.867652	-0.137404
H200	H	0.209428	0.958614	-0.126555
N201	N	1.132033	0.389617	0.084537
H202	H	1.184999	0.393518	0.054988
H203	H	1.109735	0.387992	0.162644
N204	N	0.667389	0.454975	-0.123226
H205	H	0.667395	0.500015	-0.175980
H206	H	0.720554	0.378990	-0.162922
