data_functionalizedCrystal
_audit_creation_method	'MofGen! by Chris Wilmer'
_symmetry_space_group_name_H-M	'P1'
_symmetry_Int_Tables_number	1
_symmetry_cell_setting	triclinic
loop_
_symmetry_equiv_pos_as_xyz
  x,y,z
_cell_length_a	18.101398
_cell_length_b	25.639240
_cell_length_c	18.101389
_cell_angle_alpha	90.027631
_cell_angle_beta	90.024327
_cell_angle_gamma	90.028023
loop_
_atom_site_label
_atom_site_type_symbol
_atom_site_fract_x
_atom_site_fract_y
_atom_site_fract_z
Zn1	Zn	1.132112	-0.208272	0.418791
Zn2	Zn	1.132005	-0.295693	0.294930
Zn3	Zn	1.008271	-0.208266	0.294952
Zn4	Zn	1.008219	-0.295671	0.418718
O5	O	1.070152	-0.251975	0.356848
O6	O	1.235731	-0.219880	0.402382
O7	O	1.115568	-0.284103	0.191300
O8	O	1.024766	-0.135102	0.311420
O9	O	1.235652	-0.284108	0.311381
O10	O	1.115752	-0.135106	0.402404
O11	O	1.024662	-0.219871	0.191316
O12	O	0.904632	-0.219849	0.311349
O13	O	1.024676	-0.284070	0.522361
O14	O	0.904593	-0.284065	0.402280
O15	O	1.115701	-0.219858	0.522415
O16	O	1.115517	-0.368855	0.311311
O17	O	1.024572	-0.368839	0.402258
C18	C	0.877741	-0.251954	0.356809
C19	C	0.795427	-0.251958	0.356810
C20	C	0.496336	-0.251990	0.356873
C21	C	0.527661	-0.211386	0.299941
C22	C	0.613279	-0.211495	0.299698
C23	C	0.644719	-0.251974	0.356842
C24	C	0.613598	-0.307048	0.335505
C25	C	0.527953	-0.306822	0.335109
C26	C	0.527951	-0.238000	0.435275
C27	C	0.613602	-0.236773	0.434848
C28	C	0.728578	-0.251968	0.356826
C29	C	0.412477	-0.252000	0.356887
C30	C	1.070047	-0.387818	0.356790
C31	C	1.070070	-0.445932	0.356790
C32	C	1.117551	-0.806259	0.404309
C33	C	1.117573	-0.860863	0.404324
O34	O	1.157819	-0.889069	0.444666
N35	N	1.070255	-0.888214	0.356920
C36	C	1.022906	-0.860959	0.309503
O37	O	0.982659	-0.889237	0.269183
C38	C	1.022881	-0.806355	0.309492
C39	C	1.070208	-0.779007	0.356894
C40	C	1.164874	-0.778910	0.451708
C41	C	1.164853	-0.724309	0.451691
C42	C	1.117509	-0.697058	0.404276
C43	C	1.070187	-0.724406	0.356878
C44	C	0.975528	-0.779101	0.262079
C45	C	0.975507	-0.724494	0.262073
C46	C	1.022834	-0.697145	0.309475
C47	C	1.022822	-0.642554	0.309446
N48	N	1.070141	-0.615202	0.356851
C49	C	1.117484	-0.642454	0.404266
C50	C	1.022961	-0.975629	0.309530
C51	C	1.022989	-1.030232	0.309536
C52	C	1.117656	-1.030132	0.404359
C53	C	1.117631	-0.975529	0.404348
C54	C	1.070280	-0.948278	0.356934
C55	C	1.117437	-0.527789	0.404227
C56	C	1.117414	-0.473184	0.404205
C57	C	1.022745	-0.473288	0.309386
C58	C	1.022770	-0.527889	0.309405
C59	C	1.070119	-0.555138	0.356832
O60	O	0.982594	-0.614313	0.269127
O61	O	1.157717	-0.614169	0.444585
C62	C	1.263314	-0.251997	0.356887
C63	C	1.345628	-0.252006	0.356904
C64	C	1.070195	-0.251962	0.550010
C65	C	1.070213	-0.251957	0.632324
C66	C	1.070277	-0.115602	0.356922
C67	C	1.070330	-0.057488	0.356954
C68	C	1.070152	-0.251951	0.164437
C69	C	1.070277	-0.251809	0.082124
C70	C	1.070256	-0.251859	0.931415
C71	C	1.012789	-0.292130	0.900056
C72	C	1.012944	-0.292317	0.814438
C73	C	1.070234	-0.251907	0.783033
C74	C	1.148259	-0.266868	0.814135
C75	C	1.147939	-0.267132	0.899780
C76	C	1.050377	-0.196537	0.899852
C77	C	1.048641	-0.196856	0.814201
C78	C	1.070226	-0.251934	0.699173
C79	C	1.070269	-0.251833	1.015275
H80	H	0.507941	-0.318688	0.277792
H81	H	0.633732	-0.220743	0.241603
Br82	Br	0.958552	-0.565006	0.245062
H83	H	0.984458	-1.052494	0.270929
H84	H	0.635013	-0.319119	0.278807
H85	H	1.155988	-0.549969	0.442852
H86	H	1.192207	-0.239073	0.920527
Br87	Br	1.181651	-0.436071	0.468538
H88	H	0.635006	-0.264193	0.479540
H89	H	0.507230	-0.338099	0.374766
H90	H	1.156168	-0.953265	0.442947
H91	H	1.192226	-0.238457	0.793795
Br92	Br	0.647524	-0.358824	0.402459
Br93	Br	0.494189	-0.287293	0.505978
Br94	Br	1.229081	-0.687202	0.516031
Br95	Br	0.491727	-0.226612	0.203676
H96	H	0.936990	-0.801359	0.223479
H97	H	0.936945	-0.702309	0.223463
Br98	Br	0.492003	-0.172229	0.467605
H99	H	0.984200	-0.451091	0.270778
H100	H	0.633948	-0.196245	0.450936
H101	H	1.156205	-1.052330	0.442968
H102	H	1.203427	-0.801093	0.490323
Br103	Br	0.958696	-0.938651	0.245172
H104	H	0.955085	-0.282955	0.793408
H105	H	0.954756	-0.282864	0.920644
H106	H	1.025783	-0.332886	0.921573
H107	H	1.165403	-0.306879	0.792684
Br108	Br	1.034862	-0.360657	0.780277
Br109	Br	1.176027	-0.334536	0.933076
Br110	Br	0.957194	-0.173820	0.935832
H111	H	0.991221	-0.185574	0.793872
Br112	Br	1.113322	-0.144189	0.778584
Br113	Br	1.120140	-0.146527	0.933655
H114	H	0.634322	-0.170655	0.313074
H115	H	0.507092	-0.170421	0.313170
