data_functionalizedCrystal
_audit_creation_method	'MofGen! by Chris Wilmer'
_symmetry_space_group_name_H-M	'P1'
_symmetry_Int_Tables_number	1
_symmetry_cell_setting	triclinic
loop_
_symmetry_equiv_pos_as_xyz
  x,y,z
_cell_length_a	10.540539
_cell_length_b	15.995350
_cell_length_c	9.016244
_cell_angle_alpha	89.999993
_cell_angle_beta	89.994699
_cell_angle_gamma	84.008933
loop_
_atom_site_label
_atom_site_type_symbol
_atom_site_fract_x
_atom_site_fract_y
_atom_site_fract_z
O1	O	1.684271	0.117994	-0.123262
O2	O	1.314706	0.129112	-0.123280
O3	O	1.509591	0.001726	-0.123269
O4	O	1.489386	0.245380	-0.123273
O5	O	1.509562	0.001729	0.123411
O6	O	1.314677	0.129115	0.123401
O7	O	1.684243	0.117997	0.123418
Cu8	Cu	1.499457	0.123556	0.145934
Cu9	Cu	1.499491	0.123553	-0.145795
O10	O	1.489358	0.245383	0.123408
C11	C	1.267400	0.128280	0.000058
C12	C	1.126486	0.125785	0.000051
C13	C	0.944373	0.030202	0.000629
C14	C	1.090956	0.032730	0.000057
C15	C	1.064214	0.170565	-0.140811
C16	C	0.917713	0.167389	-0.140913
C17	C	0.917166	0.169286	0.139609
C18	C	1.064137	0.170143	0.141455
C19	C	1.508741	-0.029472	0.000068
C20	C	1.506237	-0.122438	0.000060
C21	C	1.497244	-0.460239	0.000064
C22	C	1.358450	-0.413635	-0.000496
C23	C	1.360955	-0.316930	0.000061
C24	C	1.501705	-0.292652	0.000061
C25	C	1.570146	-0.333318	0.140929
C26	C	1.566660	-0.429975	0.141046
C27	C	1.569559	-0.430319	-0.139476
C28	C	1.569527	-0.333374	-0.141337
C29	C	1.504233	-0.197939	0.000064
C30	C	1.494719	-0.554952	0.000071
C31	C	1.731549	0.118829	0.000077
C32	C	1.872462	0.121324	0.000074
C33	C	1.490207	0.276581	0.000067
C34	C	1.492711	0.369547	0.000066
N35	N	1.499443	0.123558	0.351120
N36	N	1.499516	0.123544	-0.350981
C37	C	1.394878	0.191473	0.586147
C38	C	1.395104	0.191727	0.414256
C39	C	1.631893	0.143433	0.413464
C40	C	1.631320	0.143914	0.585409
C41	C	1.472879	0.035546	0.585663
C42	C	1.469826	0.036116	0.413709
H43	H	1.133201	-0.002755	-0.101093
H44	H	1.296652	0.179768	0.372107
C45	C	0.904260	-0.019258	-0.135067
H46	H	0.843883	0.015384	-0.192061
H47	H	0.867049	-0.067677	-0.102669
H48	H	0.977107	-0.035981	-0.194207
C49	C	1.283511	-0.439113	-0.136957
H50	H	1.200015	-0.410299	-0.135224
H51	H	1.278197	-0.498024	-0.135094
H52	H	1.326085	-0.424721	-0.224755
H53	H	1.541081	-0.016861	0.370737
C54	C	1.499195	-0.455108	0.283281
H55	H	1.496477	-0.514284	0.284610
H56	H	1.414737	-0.427813	0.285467
H57	H	1.544766	-0.438741	0.367523
H58	H	1.711615	0.096432	0.626996
C59	C	1.575949	-0.032758	0.640595
H60	H	1.634935	-0.007814	0.701844
H61	H	1.619578	-0.058934	0.557907
H62	H	1.536916	-0.073654	0.695960
H63	H	1.411653	0.256390	0.629340
H64	H	1.412106	0.257014	0.373109
C65	C	1.093148	0.262879	-0.147910
H66	H	1.143589	0.274959	-0.064835
H67	H	1.015397	0.298720	-0.146599
H68	H	1.138337	0.271905	-0.236674
C69	C	1.704306	-0.472724	0.149721
H70	H	1.703109	-0.532031	0.149847
H71	H	1.743398	-0.455890	0.238231
H72	H	1.751322	-0.456631	0.066421
H73	H	1.711609	0.095309	0.372564
C74	C	1.709838	-0.313409	0.148020
H75	H	1.749422	-0.338598	0.234016
H76	H	1.712270	-0.254257	0.152241
H77	H	1.754011	-0.335107	0.062177
C78	C	1.664352	0.229184	0.355287
H79	H	1.597367	0.252984	0.293022
H80	H	1.741602	0.221758	0.300332
H81	H	1.674083	0.265723	0.436628
H82	H	1.378402	0.016630	0.629106
C83	C	1.149169	-0.014868	0.136463
H84	H	1.083239	-0.035932	0.192722
H85	H	1.192051	0.022292	0.196050
H86	H	1.208116	-0.060346	0.104764
C87	C	1.508282	-0.458429	-0.283717
H88	H	1.553347	-0.439740	-0.366566
H89	H	1.421816	-0.434884	-0.288047
H90	H	1.511893	-0.518014	-0.285527
C91	C	1.663012	0.230645	0.639575
H92	H	1.676108	0.265255	0.556495
H93	H	1.738252	0.224040	0.698227
H94	H	1.594203	0.256157	0.697397
H95	H	1.105536	0.137429	0.245665
H96	H	1.671891	-0.461468	-0.140422
C97	C	1.288280	-0.278962	-0.136349
H98	H	1.289724	-0.219674	-0.136196
H99	H	1.202432	-0.291966	-0.132873
H100	H	1.327870	-0.301817	-0.224146
C101	C	0.875096	0.128608	0.283850
H102	H	0.829873	0.081987	0.260318
H103	H	0.821315	0.168691	0.338846
H104	H	0.948157	0.110031	0.341359
H105	H	1.522587	-0.305220	0.245757
C106	C	0.880228	0.122670	-0.283146
H107	H	0.954502	0.106608	-0.340317
H108	H	0.822666	0.159732	-0.339464
H109	H	0.840413	0.074066	-0.257400
H110	H	1.519487	-0.306426	-0.245547
C111	C	1.338211	0.015754	0.358667
H112	H	1.320841	-0.037214	0.396906
H113	H	1.338064	0.013876	0.253363
H114	H	1.274522	0.058037	0.391798
C115	C	0.906414	-0.019467	0.137085
H116	H	0.950850	-0.074279	0.135345
H117	H	0.817152	-0.023503	0.135215
H118	H	0.927840	0.008734	0.224888
C119	C	0.851663	0.257791	-0.149591
H120	H	0.914402	0.296293	-0.153048
H121	H	0.799327	0.269039	-0.064654
H122	H	0.800530	0.263815	-0.236463
H123	H	1.107242	0.139456	-0.245643
C124	C	1.708189	-0.311800	-0.152830
H125	H	1.726620	-0.277527	-0.071173
H126	H	1.718951	-0.282392	-0.242736
H127	H	1.764552	-0.362180	-0.151632
C128	C	1.261456	0.175578	0.642073
H129	H	1.268365	0.127377	0.704276
H130	H	1.208257	0.166510	0.559831
H131	H	1.225439	0.223043	0.696653
H132	H	1.306769	-0.289388	0.101207
C133	C	1.095596	0.261794	0.152950
H134	H	1.147389	0.274264	0.071290
H135	H	1.140083	0.269148	0.242854
H136	H	1.018714	0.298517	0.151762
C137	C	0.852127	0.260084	0.140896
H138	H	0.797983	0.268755	0.056862
H139	H	0.915298	0.298281	0.137795
H140	H	0.802951	0.269223	0.228813
H141	H	1.303210	-0.433558	0.099956
