data_functionalizedCrystal
_audit_creation_method	'MofGen! by Chris Wilmer'
_symmetry_space_group_name_H-M	'P1'
_symmetry_Int_Tables_number	1
_symmetry_cell_setting	triclinic
loop_
_symmetry_equiv_pos_as_xyz
  x,y,z
_cell_length_a	11.792241
_cell_length_b	13.101039
_cell_length_c	14.044220
_cell_angle_alpha	93.667477
_cell_angle_beta	91.308853
_cell_angle_gamma	93.376518
loop_
_atom_site_label
_atom_site_type_symbol
_atom_site_fract_x
_atom_site_fract_y
_atom_site_fract_z
O1	O	1.524822	0.085117	-0.124790
O2	O	1.195740	0.085141	-0.138185
O3	O	1.355341	0.085119	0.006522
O4	O	1.365221	0.085139	-0.269497
O5	O	1.343891	-0.085309	-0.003878
O6	O	1.184291	-0.085287	-0.148585
O7	O	1.513372	-0.085311	-0.135190
Zn8	Zn	1.347014	-0.112359	-0.143539
Zn9	Zn	1.362099	0.112188	-0.129836
O10	O	1.353772	-0.085290	-0.279897
C11	C	1.147646	-0.000070	-0.142543
C12	C	1.021396	-0.000061	-0.140024
N13	N	1.336727	-0.265606	-0.152889
C14	C	0.790247	-0.000091	-0.135394
C15	C	0.918875	-0.000075	-0.137967
C16	C	1.322732	-0.474646	-0.165620
C17	C	1.386386	-0.525531	-0.107750
C18	C	1.378599	-0.641848	-0.114834
C19	C	1.330517	-0.358318	-0.158538
C20	C	1.561467	-0.000098	-0.130832
C21	C	1.687717	-0.000100	-0.133350
C22	C	1.345292	-0.000095	0.036659
C23	C	1.332393	-0.000095	0.141951
N24	N	1.372394	0.265435	-0.120478
C25	C	1.363821	-0.000073	-0.310033
C26	C	1.376720	-0.000066	-0.415325
C27	C	1.308812	-0.000079	0.334734
C28	C	1.400296	-0.000083	0.391897
C29	C	1.387176	-0.000073	0.499168
C30	C	1.321931	-0.000088	0.227453
H31	H	1.446730	-0.481737	-0.052887
H32	H	1.262393	-0.518435	-0.220481
N33	N	1.517101	-0.000114	0.350021
H34	H	1.564012	0.063058	0.375737
H35	H	1.509949	-0.000161	0.278219
H36	H	1.220642	-0.000070	0.366357
