data_functionalizedCrystal
_audit_creation_method	'MofGen! by Chris Wilmer'
_symmetry_space_group_name_H-M	'P1'
_symmetry_Int_Tables_number	1
_symmetry_cell_setting	triclinic
loop_
_symmetry_equiv_pos_as_xyz
  x,y,z
_cell_length_a	19.288859
_cell_length_b	11.792241
_cell_length_c	17.766277
_cell_angle_alpha	89.993523
_cell_angle_beta	89.989768
_cell_angle_gamma	83.663571
loop_
_atom_site_label
_atom_site_type_symbol
_atom_site_fract_x
_atom_site_fract_y
_atom_site_fract_z
O1	O	0.922160	0.141549	-0.062609
O2	O	0.720007	0.160655	-0.062608
O3	O	0.825989	-0.014143	-0.062603
O4	O	0.816178	0.316347	-0.062614
O5	O	0.825970	-0.014152	0.062585
O6	O	0.719988	0.160647	0.062581
O7	O	0.922141	0.141540	0.062579
Cu8	Cu	0.821063	0.151093	0.074011
Cu9	Cu	0.821085	0.151103	-0.074039
O10	O	0.816159	0.316338	0.062575
C11	C	0.694118	0.160037	-0.000013
C12	C	0.617003	0.158195	-0.000012
C13	C	0.053475	0.248298	-0.000016
C14	C	0.125931	0.250039	-0.000020
C15	C	0.170055	0.147475	-0.000016
C16	C	0.141718	0.043163	-0.000026
C17	C	0.069262	0.041426	-0.000030
C18	C	0.290884	0.070981	0.043849
C19	C	0.363338	0.072723	0.043857
C20	C	0.393531	0.152831	-0.000008
C21	C	0.351261	0.231216	-0.043872
C22	C	0.278806	0.229478	-0.043875
C23	C	0.248621	0.149348	-0.000012
C24	C	0.500426	0.259024	-0.000007
C25	C	0.572884	0.260760	-0.000016
C26	C	0.588670	0.053881	-0.000014
C27	C	0.516213	0.052148	-0.000013
C28	C	0.472095	0.154722	-0.000006
C29	C	0.825363	-0.056429	-0.000009
C30	C	0.823519	-0.182415	-0.000010
C31	C	0.820127	-0.413075	-0.000022
C32	C	0.822011	-0.284719	-0.000016
C33	C	0.948030	0.142158	-0.000017
C34	C	1.025145	0.144000	-0.000023
C35	C	0.816785	0.358624	-0.000021
C36	C	0.818629	0.484610	-0.000025
N37	N	0.821052	0.151084	0.178141
N38	N	0.821101	0.151102	-0.178170
C39	C	0.867997	0.073722	0.217530
C40	C	0.868001	0.073716	0.296332
C41	C	0.821067	0.151093	0.335742
C42	C	0.774114	0.228462	0.296343
C43	C	0.774107	0.228458	0.217543
C44	C	0.812356	0.254505	0.460576
C45	C	0.812368	0.254511	0.539375
C46	C	0.821086	0.151107	0.578788
C47	C	0.829806	0.047693	0.539392
C48	C	0.829799	0.047689	0.460592
C49	C	0.821070	0.151106	0.421187
C50	C	0.868037	0.073732	0.703623
C51	C	0.868036	0.073725	0.782426
C52	C	0.774153	0.228481	0.782436
C53	C	0.774150	0.228478	0.703634
C54	C	0.821096	0.151105	0.664232
H55	H	0.046198	-0.043509	-0.000035
H56	H	0.906221	0.010717	0.185451
Cl57	Cl	0.840772	-0.082309	0.588930
H58	H	0.906261	0.010726	0.671540
Cl59	Cl	0.480596	-0.078978	-0.000024
H60	H	0.906262	0.010721	0.814497
H61	H	0.244392	0.293300	-0.079591
H62	H	0.805272	0.338716	0.571445
H63	H	0.017558	0.331823	-0.000014
Cl64	Cl	0.161555	0.381167	-0.000010
H65	H	0.266308	0.005741	0.079570
H66	H	0.177648	-0.040345	-0.000025
Cl67	Cl	0.715145	0.325747	0.831974
H68	H	0.735926	0.291479	0.671562
H69	H	0.375842	0.296450	-0.079589
Cl70	Cl	0.801460	0.384514	0.411037
H71	H	0.735878	0.291457	0.185472
Cl72	Cl	0.444961	0.387971	-0.000001
H73	H	0.735899	0.291462	0.328435
Cl74	Cl	0.608499	0.391891	-0.000016
H75	H	0.836897	-0.036514	0.428519
H76	H	0.397749	0.008903	0.079577
Cl77	Cl	0.644133	-0.075058	-0.000020
Cl78	Cl	0.927022	-0.023548	0.345857
