data_functionalizedCrystal
_audit_creation_method	'MofGen! by Chris Wilmer'
_symmetry_space_group_name_H-M	'P1'
_symmetry_Int_Tables_number	1
_symmetry_cell_setting	triclinic
loop_
_symmetry_equiv_pos_as_xyz
  x,y,z
_cell_length_a	28.938199
_cell_length_b	28.937346
_cell_length_c	28.934044
_cell_angle_alpha	60.005004
_cell_angle_beta	60.009897
_cell_angle_gamma	59.994060
loop_
_atom_site_label
_atom_site_type_symbol
_atom_site_fract_x
_atom_site_fract_y
_atom_site_fract_z
O1	O	0.064043	-0.675186	0.564597
O2	O	0.564043	-0.175186	1.064597
O3	O	0.024124	-0.525682	0.454913
O4	O	0.524124	-0.025682	0.954913
O5	O	0.118795	-0.620275	0.454833
O6	O	0.618795	-0.120275	0.954833
O7	O	-0.030629	-0.580593	0.564678
O8	O	0.469371	-0.080593	1.064678
O9	O	0.150204	-0.588870	0.486157
O10	O	0.650204	-0.088870	0.986157
O11	O	0.055533	-0.494276	0.486238
O12	O	0.555533	0.005724	0.986238
O13	O	0.095452	-0.643780	0.595921
O14	O	0.595452	-0.143780	1.095921
Cu15	Cu	0.078360	-0.566161	0.543940
Cu16	Cu	0.578360	-0.066161	1.043940
Cu17	Cu	0.041215	-0.603301	0.506895
Cu18	Cu	0.541215	-0.103301	1.006895
O19	O	0.000780	-0.549187	0.596002
O20	O	0.500780	-0.049187	1.096002
N21	N	0.104487	-0.540042	0.569998
N22	N	0.604487	-0.040042	1.069998
N23	N	0.015094	-0.629425	0.480837
N24	N	0.515094	-0.129425	0.980837
C25	C	0.165467	-0.323909	0.630915
C26	C	0.665467	0.176091	1.130915
C27	C	0.165587	-0.479117	0.786068
C28	C	0.665587	0.020883	1.286068
C29	C	0.165481	-0.479095	0.630906
C30	C	0.665481	0.020905	1.130906
C31	C	0.320696	-0.479083	0.630835
C32	C	0.820696	0.020917	1.130835
C33	C	0.182557	-0.375118	0.647971
C34	C	0.682557	0.124882	1.147971
C35	C	0.182626	-0.462038	0.734858
C36	C	0.682626	0.037962	1.234858
C37	C	0.269485	-0.462018	0.647928
C38	C	0.769485	0.037982	1.147928
C39	C	0.182566	-0.462025	0.647966
C40	C	0.682566	0.037975	1.147966
C41	C	0.143714	-0.258726	0.609206
C42	C	0.643714	0.241274	1.109206
C43	C	0.143738	-0.500820	0.609192
C44	C	0.643738	-0.000820	1.109192
C45	C	0.204309	-0.440300	0.669680
C46	C	0.704309	0.059700	1.169680
C47	C	0.415481	-0.462740	0.580919
C48	C	0.915481	0.037260	1.080919
C49	C	0.474732	-0.482485	0.561145
C50	C	0.974732	0.017515	1.061145
C51	C	0.474757	-0.578356	0.597704
C52	C	0.974757	-0.078356	1.097704
C53	C	0.415508	-0.558609	0.617479
C54	C	0.915508	-0.058609	1.117479
C55	C	0.157989	-0.229089	0.550957
C56	C	0.657989	0.270911	1.050957
C57	C	0.138212	-0.169834	0.531225
C58	C	0.638212	0.330166	1.031225
C59	C	0.089890	-0.169857	0.627992
C60	C	0.589890	0.330143	1.127992
C61	C	0.109667	-0.229112	0.647725
C62	C	0.609667	0.270888	1.147725
C63	C	0.085482	-0.486515	0.623535
C64	C	0.585482	0.013485	1.123535
C65	C	0.065722	-0.506265	0.603789
C66	C	0.565722	-0.006265	1.103789
C67	C	0.162467	-0.554625	0.555370
C68	C	0.662467	-0.054625	1.055370
C69	C	0.182230	-0.534875	0.575110
C70	C	0.682230	-0.034875	1.075110
C71	C	0.085661	-0.486557	0.880902
C72	C	0.585661	0.013443	1.380902
C73	C	0.065952	-0.506323	0.940155
C74	C	0.565952	-0.006323	1.440155
C75	C	0.162734	-0.554693	0.940102
C76	C	0.662734	-0.054693	1.440102
C77	C	0.182441	-0.534928	0.880847
C78	C	0.682441	-0.034928	1.380847
C79	C	0.143904	-0.500859	0.851249
C80	C	0.643904	-0.000859	1.351249
C81	C	0.385871	-0.500801	0.609083
C82	C	0.885871	-0.000801	1.109083
C83	C	-0.110907	-0.668480	0.441278
C84	C	0.389093	-0.168480	0.941278
C85	C	-0.024049	-0.668588	0.441475
C86	C	0.475951	-0.168588	0.941475
C87	C	-0.045729	-0.690282	0.419668
C88	C	0.454271	-0.190282	0.919668
C89	C	-0.062146	-0.785032	0.469507
C90	C	0.437854	-0.285032	0.969507
C91	C	-0.042446	-0.844287	0.489286
C92	C	0.457554	-0.344287	0.989286
C93	C	0.053426	-0.844399	0.452899
C94	C	0.553426	-0.344399	0.952899
C95	C	0.033725	-0.785144	0.433120
C96	C	0.533725	-0.285144	0.933120
C97	C	-0.140617	-0.682751	0.499509
C98	C	0.359383	-0.182751	0.999509
C99	C	-0.199867	-0.662928	0.519152
C100	C	0.300133	-0.162928	1.019152
C101	C	-0.199694	-0.614571	0.422330
C102	C	0.300306	-0.114571	0.922330
C103	C	-0.140443	-0.634393	0.402687
C104	C	0.359557	-0.134393	0.902687
C105	C	-0.038320	-0.610337	0.427144
C106	C	0.461680	-0.110337	0.927144
C107	C	-0.018610	-0.590621	0.446974
C108	C	0.481390	-0.090621	0.946974
C109	C	0.029642	-0.687402	0.495454
C110	C	0.529642	-0.187402	0.995454
C111	C	0.009933	-0.707121	0.475630
C112	C	0.509933	-0.207121	0.975630
C113	C	-0.038148	-0.610347	0.324832
C114	C	0.461852	-0.110347	0.824832
C115	C	-0.018301	-0.590634	0.265579
C116	C	0.481699	-0.090634	0.765579
C117	C	0.030035	-0.687421	0.265643
C118	C	0.530035	-0.187421	0.765643
C119	C	0.010190	-0.707133	0.324897
C120	C	0.510190	-0.207133	0.824897
C121	C	-0.023903	-0.668595	0.354491
C122	C	0.476097	-0.168595	0.854491
C123	C	-0.024062	-0.755463	0.441426
C124	C	0.475938	-0.255463	0.941426
N125	N	0.503527	-0.540005	0.569810
N126	N	1.003527	-0.040005	1.069810
O127	O	0.684453	-0.545211	0.434650
O128	O	1.184453	-0.045211	0.934650
O129	O	0.684643	-0.655237	0.584005
O130	O	1.184643	-0.155237	1.084005
O131	O	0.684567	-0.654986	0.489282
O132	O	1.184567	-0.154986	0.989282
O133	O	0.684529	-0.545462	0.529373
O134	O	1.184529	-0.045462	1.029373
O135	O	0.590438	-0.623674	0.520735
O136	O	1.090438	-0.123674	1.020735
O137	O	0.590513	-0.623924	0.615457
O138	O	1.090513	-0.123924	1.115457
O139	O	0.590323	-0.513899	0.466102
O140	O	1.090323	-0.013899	0.966102
Cu141	Cu	0.581823	-0.566053	0.543652
Cu142	Cu	1.081823	-0.066053	1.043652
Cu143	Cu	0.693143	-0.603083	0.506456
Cu144	Cu	1.193143	-0.103083	1.006456
O145	O	0.590399	-0.514149	0.560825
O146	O	1.090399	-0.014149	1.060825
N147	N	0.771439	-0.629131	0.480292
N148	N	1.271439	-0.129131	0.980292
N149	N	0.104456	-0.141061	0.570015
N150	N	0.604456	0.358939	1.070015
O151	O	-0.030629	0.039964	0.564688
O152	O	0.469371	0.539964	1.064688
O153	O	0.118732	0.039984	0.454661
O154	O	0.618732	0.539984	0.954661
O155	O	0.023980	0.039958	0.454946
O156	O	0.523980	0.539958	0.954946
O157	O	0.064123	0.039990	0.564403
O158	O	0.564123	0.539990	1.064403
O159	O	0.055392	-0.054179	0.486321
O160	O	0.555392	0.445821	0.986321
O161	O	0.150144	-0.054153	0.486036
O162	O	0.650144	0.445847	0.986036
O163	O	0.000784	-0.054173	0.596063
O164	O	0.500784	0.445827	1.096063
Cu165	Cu	0.078332	-0.062759	0.543914
Cu166	Cu	0.578332	0.437241	1.043914
Cu167	Cu	0.041183	0.048570	0.506810
Cu168	Cu	0.541183	0.548570	1.006810
O169	O	0.095535	-0.054147	0.595778
O170	O	0.595535	0.445853	1.095778
N171	N	0.015053	0.126872	0.480710
N172	N	0.515053	0.626872	0.980710
N173	N	0.104760	-0.540096	0.968910
N174	N	0.604760	-0.040096	1.468910
O175	O	0.099447	-0.675167	1.149923
O176	O	0.599447	-0.175167	1.649923
O177	O	-0.010552	-0.525757	1.149951
O178	O	0.489448	-0.025757	1.649951
O179	O	-0.010297	-0.620493	1.149918
O180	O	0.489703	-0.120493	1.649918
O181	O	0.099192	-0.580431	1.149956
O182	O	0.599192	-0.080431	1.649956
O183	O	0.021064	-0.589100	1.055785
O184	O	0.521064	-0.089100	1.555785
O185	O	0.020809	-0.494365	1.055818
O186	O	0.520809	0.005635	1.555818
O187	O	0.130808	-0.643774	1.055790
O188	O	0.630808	-0.143774	1.555790
Cu189	Cu	0.078672	-0.566203	1.047209
Cu190	Cu	0.578672	-0.066203	1.547209
Cu191	Cu	0.041584	-0.603328	1.158532
Cu192	Cu	0.541584	-0.103328	1.658532
O193	O	0.130553	-0.549038	1.055823
O194	O	0.630553	-0.049038	1.555823
N195	N	0.015495	-0.629442	1.236831
N196	N	0.515495	-0.129442	1.736831
C197	C	0.036087	-0.491140	0.455465
C198	C	0.536087	0.008860	0.955465
C199	C	0.153325	-0.608283	0.455364
C200	C	0.653325	-0.108283	0.955364
C201	C	0.083488	-0.678322	0.595370
C202	C	0.583488	-0.178322	1.095370
C203	C	-0.033750	-0.561180	0.595470
C204	C	0.466250	-0.061180	1.095470
C205	C	0.637601	-0.654732	0.618548
C206	C	1.137601	-0.154732	1.118548
C207	C	0.637509	-0.654422	0.501245
C208	C	1.137509	-0.154422	1.001245
C209	C	0.637362	-0.514403	0.431560
C210	C	1.137362	-0.014403	0.931560
C211	C	0.637458	-0.514713	0.548862
C212	C	1.137458	-0.014713	1.048862
C213	C	0.153215	-0.006966	0.455158
C214	C	0.653215	0.493034	0.955158
C215	C	0.035916	-0.007114	0.455550
C216	C	0.535916	0.492886	0.955550
C217	C	-0.033739	-0.007106	0.595527
C218	C	0.466261	0.492894	1.095527
C219	C	0.083600	-0.007076	0.595174
C220	C	0.583600	0.492924	1.095174
C221	C	-0.010020	-0.491238	1.102888
C222	C	0.489980	0.008762	1.602888
C223	C	-0.009698	-0.608550	1.102828
C224	C	0.490302	-0.108550	1.602828
C225	C	0.130276	-0.678293	1.102853
C226	C	0.630276	-0.178293	1.602853
C227	C	0.129961	-0.560974	1.102892
C228	C	0.629961	-0.060974	1.602892
H229	H	0.018524	-0.494668	0.964293
H230	H	0.518524	0.005332	1.464293
H231	H	-0.044080	-0.617108	1.102779
H232	H	0.455920	-0.117108	1.602779
C233	C	0.685641	-0.452571	0.348676
C234	C	1.185641	0.047429	0.848676
C235	C	0.637281	-0.467766	0.373658
C236	C	1.137281	0.032234	0.873658
H237	H	0.685587	-0.423777	0.312931
H238	H	1.185587	0.076223	0.812931
H239	H	0.718479	-0.484717	0.343690
H240	H	1.218479	0.015283	0.843690
H241	H	0.685646	-0.438903	0.372462
H242	H	1.185646	0.061097	0.872462
H243	H	0.637278	-0.481438	0.349874
H244	H	1.137278	0.018562	0.849874
H245	H	0.604435	-0.435614	0.378642
H246	H	1.104435	0.064386	0.878642
C247	C	-0.126683	-0.494546	0.621804
C248	C	0.373317	0.005454	1.121804
C249	C	-0.091684	-0.549766	0.642040
C250	C	0.408316	-0.049766	1.142040
H251	H	-0.162447	-0.487499	0.650557
H252	H	0.337553	0.012501	1.150557
H253	H	-0.131629	-0.490295	0.589652
H254	H	0.368371	0.009705	1.089652
H255	H	-0.109712	-0.468393	0.611489
H256	H	0.390288	0.031607	1.111489
H257	H	-0.108654	-0.575920	0.652351
H258	H	0.391346	-0.075920	1.152351
H259	H	-0.086740	-0.554022	0.674202
H260	H	0.413260	-0.054022	1.174202
H261	H	0.637450	-0.480310	0.557440
H262	H	1.137450	0.019690	1.057440
C263	C	-0.071797	-0.408351	1.054501
C264	C	0.428203	0.091649	1.554501
C265	C	-0.056641	-0.433310	1.102896
C266	C	0.443359	0.066690	1.602896
H267	H	-0.100576	-0.372588	1.054504
H268	H	0.399424	0.127412	1.554504
H269	H	-0.085462	-0.432130	1.054495
H270	H	0.414538	0.067870	1.554495
H271	H	-0.039631	-0.403401	1.021681
H272	H	0.460369	0.096599	1.521681
H273	H	-0.088806	-0.438265	1.135715
H274	H	0.411194	0.061735	1.635715
H275	H	-0.042978	-0.409526	1.102907
H276	H	0.457022	0.090474	1.602907
H277	H	0.164358	-0.552401	1.102897
H278	H	0.664358	-0.052401	1.602897
H279	H	0.027318	-0.007118	0.421162
H280	H	0.527318	0.492882	0.921162
C281	C	0.190013	-0.746383	1.054439
C282	C	0.690013	-0.246383	1.554439
C283	C	0.176900	-0.736219	1.102840
C284	C	0.676900	-0.236219	1.602840
H285	H	0.218795	-0.782145	1.054434
H286	H	0.718795	-0.282145	1.554434
H287	H	0.202982	-0.717587	1.021627
H288	H	0.702982	-0.217587	1.521627
H289	H	0.157156	-0.746320	1.054438
H290	H	0.657156	-0.246320	1.554438
H291	H	0.209757	-0.736277	1.102839
H292	H	0.709757	-0.236277	1.602839
H293	H	0.163933	-0.765023	1.135661
H294	H	0.663933	-0.265023	1.635661
H295	H	0.637649	-0.689271	0.661445
H296	H	1.137649	-0.189271	1.161445
C297	C	0.253655	-0.054881	0.427321
C298	C	0.753655	0.445119	0.927321
C299	C	0.211003	-0.006605	0.408412
C300	C	0.711003	0.493395	0.908412
H301	H	0.289331	-0.054656	0.398463
H302	H	0.789331	0.445344	0.898463
H303	H	0.246937	-0.087780	0.436122
H304	H	0.746937	0.412220	0.936122
H305	H	0.253629	-0.054942	0.460196
H306	H	0.753629	0.445058	0.960196
H307	H	0.211026	-0.006546	0.375539
H308	H	0.711026	0.493454	0.875539
H309	H	0.217723	0.026302	0.399603
H310	H	0.717723	0.526302	0.899603
C311	C	0.348914	-0.598220	0.703151
C312	C	0.848914	-0.098220	1.203151
C313	C	0.382958	-0.600445	0.648430
C314	C	0.882958	-0.100445	1.148430
H315	H	0.328822	-0.624050	0.722257
H316	H	0.828822	-0.124050	1.222257
H317	H	0.322788	-0.560970	0.700982
H318	H	0.822788	-0.060970	1.200982
H319	H	0.372050	-0.608141	0.723329
H320	H	0.872050	-0.108141	1.223329
H321	H	0.359822	-0.590520	0.628251
H322	H	0.859822	-0.090520	1.128251
H323	H	0.409088	-0.637703	0.650597
H324	H	0.909088	-0.137703	1.150597
C325	C	0.637599	-0.749438	0.537878
C326	C	1.137599	-0.249438	1.037878
C327	C	0.637529	-0.700874	0.489668
C328	C	1.137529	-0.200874	0.989668
H329	H	0.637615	-0.778115	0.530729
H330	H	1.137615	-0.278115	1.030729
H331	H	0.604793	-0.740651	0.568764
H332	H	1.104793	-0.240651	1.068764
H333	H	0.670444	-0.762488	0.546830
H334	H	1.170444	-0.262488	1.046830
H335	H	0.604682	-0.687821	0.480719
H336	H	1.104682	-0.187821	0.980719
H337	H	0.670338	-0.709661	0.458773
H338	H	1.170338	-0.209661	0.958773
C339	C	-0.011987	-0.440728	0.886913
C340	C	0.488013	0.059272	1.386913
C341	C	0.043297	-0.449106	0.848371
C342	C	0.543297	0.050894	1.348371
H343	H	-0.038139	-0.417611	0.866828
H344	H	0.461861	0.082389	1.366828
H345	H	-0.017661	-0.422641	0.910023
H346	H	0.482339	0.077359	1.410023
H347	H	-0.017655	-0.476250	0.910022
H348	H	0.482345	0.023750	1.410022
H349	H	0.048967	-0.413584	0.825264
H350	H	0.548967	0.086416	1.325264
H351	H	0.048973	-0.467191	0.825252
H352	H	0.548973	0.032809	1.325252
H353	H	0.092195	-0.007066	0.629560
H354	H	0.592195	0.492934	1.129560
C355	C	0.260380	-0.600523	0.934096
C356	C	0.760380	-0.100523	1.434096
C357	C	0.205095	-0.592142	0.972636
C358	C	0.705095	-0.092142	1.472636
H359	H	0.286530	-0.623650	0.954183
H360	H	0.786530	-0.123650	1.454183
H361	H	0.266054	-0.565008	0.910994
H362	H	0.766054	-0.065008	1.410994
H363	H	0.266051	-0.618605	0.910979
H364	H	0.766051	-0.118605	1.410979
H365	H	0.199423	-0.574057	0.995751
H366	H	0.699423	-0.074057	1.495751
H367	H	0.199419	-0.627664	0.995748
H368	H	0.699419	-0.127664	1.495748
C369	C	0.260761	-0.580280	0.814184
C370	C	0.760761	-0.080280	1.314184
C371	C	0.246467	-0.550653	0.848255
C372	C	0.746467	-0.050653	1.348255
H373	H	0.300288	-0.589990	0.794068
H374	H	0.800288	-0.089990	1.294068
H375	H	0.240637	-0.557163	0.788076
H376	H	0.740637	-0.057163	1.288076
H377	H	0.251060	-0.613786	0.837305
H378	H	0.751060	-0.113786	1.337305
H379	H	0.256165	-0.517144	0.825134
H380	H	0.756165	-0.017144	1.325134
H381	H	0.266598	-0.573771	0.874366
H382	H	0.766598	-0.073771	1.374366
H383	H	-0.076633	-0.007113	0.630069
H384	H	0.423367	0.492887	1.130069
H385	H	0.092017	-0.721269	0.629819
H386	H	0.592017	-0.221269	1.129819
H387	H	0.054136	-0.458786	0.651283
H388	H	0.554136	0.041214	1.151283
H389	H	0.018285	-0.494604	0.615454
H390	H	0.518285	0.005396	1.115454
C391	C	0.211390	-0.571397	0.360317
C392	C	0.711390	-0.071397	0.860317
C393	C	0.211259	-0.619696	0.408794
C394	C	0.711259	-0.119696	0.908794
H395	H	0.247154	-0.578446	0.331566
H396	H	0.747154	-0.078446	0.831566
H397	H	0.204513	-0.540548	0.369172
H398	H	0.704513	-0.040548	0.869172
H399	H	0.182595	-0.562448	0.347333
H400	H	0.682595	-0.062448	0.847333
H401	H	0.240051	-0.628643	0.421781
H402	H	0.740051	-0.128643	0.921781
H403	H	0.218142	-0.650554	0.399938
H404	H	0.718142	-0.150554	0.899938
H405	H	-0.065911	-0.578960	0.348925
H406	H	0.434089	-0.078960	0.848925
H407	H	0.193817	-0.582360	0.527624
H408	H	0.693817	-0.082360	1.027624
H409	H	0.229667	-0.546519	0.563426
H410	H	0.729667	-0.046519	1.063426
H411	H	0.498884	-0.625426	0.604536
H412	H	0.998884	-0.125426	1.104536
H413	H	0.498841	-0.451490	0.538213
H414	H	0.998841	0.048510	1.038213
H415	H	0.391352	-0.415667	0.574082
H416	H	0.891352	0.084333	1.074082
H417	H	0.149834	-0.145702	0.483792
H418	H	0.649834	0.354298	0.983792
C419	C	0.165739	-0.247320	0.474574
C420	C	0.665739	0.252680	0.974574
C421	C	0.195411	-0.261641	0.508617
C422	C	0.695411	0.238359	1.008617
H423	H	0.188842	-0.267420	0.448439
H424	H	0.688842	0.232580	0.948439
H425	H	0.156008	-0.207793	0.454488
H426	H	0.656008	0.292207	0.954488
H427	H	0.132249	-0.257043	0.497711
H428	H	0.632249	0.242957	0.997711
H429	H	0.228900	-0.251913	0.485480
H430	H	0.728900	0.248087	0.985480
H431	H	0.205150	-0.301176	0.528705
H432	H	0.705150	0.198824	1.028705
C433	C	0.082146	-0.151631	0.704376
C434	C	0.582146	0.348369	1.204376
C435	C	0.052471	-0.137305	0.670335
C436	C	0.552471	0.362695	1.170335
H437	H	0.059042	-0.131539	0.730520
H438	H	0.559042	0.368461	1.230520
H439	H	0.115630	-0.141905	0.681244
H440	H	0.615630	0.358095	1.181244
H441	H	0.091881	-0.191164	0.724459
H442	H	0.591881	0.308836	1.224459
H443	H	0.042739	-0.097772	0.650249
H444	H	0.542739	0.402228	1.150249
H445	H	0.018976	-0.147027	0.693471
H446	H	0.518976	0.352973	1.193471
C447	C	0.143420	-0.295716	0.726018
C448	C	0.643420	0.204284	1.226018
C449	C	0.093996	-0.261671	0.711758
C450	C	0.593996	0.238329	1.211758
H451	H	0.133748	-0.315813	0.765552
H452	H	0.633748	0.184187	1.265552
H453	H	0.163512	-0.272582	0.716263
H454	H	0.663512	0.227418	1.216263
H455	H	0.166514	-0.321847	0.705918
H456	H	0.666514	0.178153	1.205918
H457	H	0.070903	-0.235536	0.731856
H458	H	0.570903	0.264464	1.231856
H459	H	0.073894	-0.284806	0.721519
H460	H	0.573894	0.215194	1.221519
H461	H	0.057785	-0.718806	0.241554
H462	H	0.557785	-0.218806	0.741554
C463	C	-0.092893	-0.502028	0.247202
C464	C	0.407107	-0.002028	0.747202
C465	C	-0.033973	-0.526602	0.232985
C466	C	0.466027	-0.026602	0.732985
H467	H	-0.102567	-0.462499	0.227076
H468	H	0.397433	0.037501	0.727076
H469	H	-0.109582	-0.508256	0.286722
H470	H	0.390418	-0.008256	0.786722
H471	H	-0.106487	-0.518658	0.237441
H472	H	0.393513	-0.018658	0.737441
H473	H	-0.020379	-0.509975	0.242750
H474	H	0.479621	-0.009975	0.742750
H475	H	-0.017277	-0.520370	0.193457
H476	H	0.482723	-0.020370	0.693457
C477	C	0.059955	-0.800824	0.319006
C478	C	0.559955	-0.300824	0.819006
C479	C	0.025847	-0.771164	0.357496
C480	C	0.525847	-0.271164	0.857496
H481	H	0.069617	-0.840353	0.339132
H482	H	0.569617	-0.340353	0.839132
H483	H	0.093478	-0.791159	0.295958
H484	H	0.593478	-0.291159	0.795958
H485	H	0.039898	-0.791082	0.295831
H486	H	0.539898	-0.291082	0.795831
H487	H	0.045905	-0.780904	0.380669
H488	H	0.545905	-0.280904	0.880669
H489	H	-0.007681	-0.780834	0.380554
H490	H	0.492319	-0.280834	0.880554
C491	C	0.124947	-0.911091	0.496301
C492	C	0.624947	-0.411091	0.996301
C493	C	0.116947	-0.877028	0.443774
C494	C	0.616947	-0.377028	0.943774
H495	H	0.164162	-0.931231	0.490665
H496	H	0.664162	-0.431231	0.990665
H497	H	0.105088	-0.937181	0.515850
H498	H	0.605088	-0.437181	1.015850
H499	H	0.111023	-0.887960	0.518007
H500	H	0.611023	-0.387960	1.018007
H501	H	0.130867	-0.900159	0.422069
H502	H	0.630867	-0.400159	0.922069
H503	H	0.136813	-0.850935	0.424217
H504	H	0.636813	-0.350935	0.924217
H505	H	-0.224058	-0.674545	0.566571
H506	H	0.275942	-0.174545	1.066571
H507	H	-0.065985	-0.578958	0.399332
H508	H	0.434015	-0.078958	0.899332
H509	H	-0.030233	-0.543188	0.435308
H510	H	0.469767	-0.043188	0.935308
H511	H	0.021552	-0.754553	0.487300
H512	H	0.521552	-0.254553	0.987300
C513	C	0.075357	-0.785051	0.541380
C514	C	0.575357	-0.285051	1.041380
C515	C	0.066995	-0.729760	0.532994
C516	C	0.566995	-0.229760	1.032994
H517	H	0.098414	-0.811201	0.564561
H518	H	0.598414	-0.311201	1.064561
H519	H	0.093498	-0.790761	0.505874
H520	H	0.593498	-0.290761	1.005874
H521	H	0.039828	-0.790690	0.559403
H522	H	0.539828	-0.290690	1.059403
H523	H	0.102525	-0.724119	0.514967
H524	H	0.602525	-0.224119	1.014967
H525	H	0.048855	-0.724047	0.568508
H526	H	0.548855	-0.224047	1.068508
H527	H	0.064741	-0.761071	0.410254
H528	H	0.564741	-0.261071	0.910254
C529	C	0.063104	-0.408120	0.393750
C530	C	0.563104	0.091880	0.893750
C531	C	0.024579	-0.433166	0.408957
C532	C	0.524579	0.066834	0.908957
H533	H	0.055996	-0.372328	0.365041
H534	H	0.555996	0.127672	0.865041
H535	H	0.100564	-0.431823	0.379975
H536	H	0.600564	0.068177	0.879975
H537	H	0.058872	-0.403216	0.425922
H538	H	0.558872	0.096784	0.925922
H539	H	0.028814	-0.438074	0.376785
H540	H	0.528814	0.061926	0.876785
H541	H	-0.012890	-0.409457	0.422730
H542	H	0.487110	0.090543	0.922730
C543	C	-0.111934	-0.862418	0.484233
C544	C	0.388066	-0.362418	0.984233
C545	C	-0.084348	-0.876757	0.520211
C546	C	0.415652	-0.376757	1.020211
H547	H	-0.137816	-0.882453	0.503344
H548	H	0.362184	-0.382453	1.003344
H549	H	-0.084799	-0.872204	0.451349
H550	H	0.415201	-0.372204	0.951349
H551	H	-0.131902	-0.822873	0.473614
H552	H	0.368098	-0.322873	0.973614
H553	H	-0.064376	-0.916302	0.530826
H554	H	0.435624	-0.416302	1.030826
H555	H	-0.111486	-0.866975	0.553105
H556	H	0.388514	-0.366975	1.053105
C557	C	-0.133649	-0.718334	0.426093
C558	C	0.366351	-0.218334	0.926093
C559	C	-0.125662	-0.752397	0.478626
C560	C	0.374338	-0.252397	0.978626
H561	H	-0.172862	-0.698181	0.431721
H562	H	0.327138	-0.198181	0.931721
H563	H	-0.119732	-0.741462	0.404392
H564	H	0.380268	-0.241462	0.904392
H565	H	-0.113778	-0.692251	0.406544
H566	H	0.386222	-0.192251	0.906544
H567	H	-0.145531	-0.778483	0.498173
H568	H	0.354469	-0.278483	0.998173
H569	H	-0.139587	-0.729267	0.500336
H570	H	0.360413	-0.229267	1.000336
H571	H	-0.223743	-0.586821	0.390905
H572	H	0.276257	-0.086821	0.890905
C573	C	-0.146740	-0.728549	0.597189
C574	C	0.353260	-0.228549	1.097189
C575	C	-0.108148	-0.720217	0.541927
C576	C	0.391852	-0.220217	1.041927
H577	H	-0.126695	-0.751676	0.623376
H578	H	0.373305	-0.251676	1.123376
H579	H	-0.169852	-0.746605	0.602825
H580	H	0.330148	-0.246605	1.102825
H581	H	-0.169841	-0.693014	0.602845
H582	H	0.330159	-0.193014	1.102845
H583	H	-0.085050	-0.755752	0.536270
H584	H	0.414950	-0.255752	1.036270
H585	H	-0.085027	-0.702162	0.536289
H586	H	0.414973	-0.202162	1.036289
H587	H	-0.116252	-0.622767	0.355267
H588	H	0.383748	-0.122767	0.855267
