data_functionalizedCrystal
_audit_creation_method	'MofGen! by Chris Wilmer'
_symmetry_space_group_name_H-M	'P1'
_symmetry_Int_Tables_number	1
_symmetry_cell_setting	triclinic
loop_
_symmetry_equiv_pos_as_xyz
  x,y,z
_cell_length_a	19.805407
_cell_length_b	12.594516
_cell_length_c	19.805399
_cell_angle_alpha	89.977527
_cell_angle_beta	89.980427
_cell_angle_gamma	90.011816
loop_
_atom_site_label
_atom_site_type_symbol
_atom_site_fract_x
_atom_site_fract_y
_atom_site_fract_z
Zn1	Zn	1.034804	-0.423767	-0.382744
Zn2	Zn	1.034748	-0.601760	-0.269566
Zn3	Zn	0.921619	-0.423796	-0.269568
Zn4	Zn	0.921611	-0.601704	-0.382712
O5	O	0.978196	-0.512757	-0.326147
O6	O	1.129513	-0.447389	-0.367742
O7	O	1.019721	-0.578189	-0.174849
O8	O	0.936660	-0.274846	-0.284596
O9	O	1.129472	-0.578160	-0.284591
O10	O	1.019817	-0.274825	-0.367745
O11	O	0.936605	-0.447439	-0.174851
O12	O	0.826901	-0.447385	-0.284565
O13	O	0.936647	-0.578064	-0.477433
O14	O	0.826896	-0.578092	-0.367691
O15	O	1.019809	-0.447334	-0.477456
O16	O	1.019713	-0.750698	-0.284560
O17	O	0.936592	-0.750657	-0.367689
C18	C	0.802340	-0.512736	-0.326126
C19	C	0.727108	-0.512753	-0.326132
C20	C	0.691778	-0.580915	-0.369346
C21	C	0.621090	-0.580917	-0.369356
C22	C	0.585732	-0.512762	-0.326147
C23	C	0.621066	-0.444592	-0.282932
C24	C	0.691754	-0.444586	-0.282926
C25	C	0.335993	-0.444615	-0.282954
C26	C	0.265301	-0.444629	-0.282962
C27	C	0.265329	-0.580947	-0.369384
C28	C	0.336017	-0.580941	-0.369378
C29	C	0.371345	-0.512768	-0.326165
C30	C	0.447993	-0.512765	-0.326156
C31	C	0.509085	-0.512769	-0.326152
C32	C	0.978164	-0.789298	-0.326136
C33	C	0.978213	-0.907603	-0.326153
C34	C	1.023475	-0.976840	-0.280988
C35	C	1.040013	-1.047546	-0.342767
C36	C	0.961760	-1.047696	-0.264414
C37	C	0.994782	-0.976750	-0.387964
C38	C	0.916500	-0.976895	-0.309570
C39	C	0.933015	-1.047568	-0.371391
C40	C	1.154738	-0.512778	-0.326170
C41	C	1.229970	-0.512787	-0.326179
C42	C	0.978234	-0.512690	-0.502690
C43	C	0.978250	-0.512661	-0.577922
C44	C	0.978246	-0.235136	-0.326174
C45	C	0.978267	-0.116830	-0.326185
C46	C	1.021553	-0.444587	-0.613280
C47	C	1.021560	-0.444556	-0.683968
C48	C	0.978267	-0.512605	-0.719298
C49	C	0.934958	-0.580683	-0.683936
C50	C	0.934948	-0.580707	-0.613249
C51	C	0.934996	-0.580583	-0.969009
C52	C	0.935011	-0.580556	-1.039701
C53	C	1.021608	-0.444432	-1.039729
C54	C	1.021599	-0.444457	-0.969041
C55	C	0.978288	-0.512529	-0.933685
C56	C	0.978280	-0.512561	-0.857037
C57	C	0.978277	-0.512580	-0.795945
C58	C	0.978197	-0.512747	-0.150291
C59	C	0.978312	-0.512475	-0.075060
H60	H	0.592272	-0.389094	-0.247754
C61	C	0.415549	-0.595899	-0.460397
C62	C	0.374882	-0.655855	-0.416876
H63	H	0.439545	-0.642149	-0.489719
H64	H	0.387987	-0.549591	-0.486336
H65	H	0.446705	-0.555310	-0.434650
H66	H	0.343723	-0.696439	-0.442623
H67	H	0.402447	-0.702182	-0.390934
H68	H	0.236557	-0.636453	-0.404572
C69	C	0.771258	-0.724109	-0.378592
C70	C	0.730639	-0.655836	-0.416843
H71	H	0.795244	-0.770365	-0.407918
H72	H	0.802416	-0.683516	-0.352861
H73	H	0.743659	-0.764761	-0.349062
H74	H	0.758239	-0.615179	-0.446369
H75	H	0.699478	-0.696434	-0.442585
C76	C	0.713481	-0.392513	-0.168366
C77	C	0.730594	-0.369670	-0.235420
H78	H	0.737463	-0.346264	-0.139040
H79	H	0.666329	-0.382756	-0.162189
H80	H	0.725057	-0.464010	-0.158393
H81	H	0.719013	-0.298174	-0.245395
H82	H	0.777756	-0.379418	-0.241601
C83	C	0.599382	-0.633042	-0.483908
C84	C	0.582261	-0.655859	-0.416852
H85	H	0.575415	-0.679319	-0.513229
H86	H	0.587800	-0.561564	-0.493897
H87	H	0.646543	-0.642788	-0.490075
H88	H	0.535101	-0.646106	-0.410684
H89	H	0.593839	-0.727355	-0.406859
H90	H	0.236515	-0.389122	-0.247776
C91	C	0.896583	-0.640969	-1.148049
C92	C	0.887420	-0.655362	-1.078539
H93	H	0.867208	-0.687156	-1.172024
H94	H	0.886692	-0.569458	-1.159637
H95	H	0.942062	-0.656551	-1.159628
H96	H	0.841941	-0.639773	-1.066959
H97	H	0.897306	-0.726890	-1.066946
H98	H	1.061758	-0.945784	-0.242828
C99	C	1.054587	-0.264234	-0.947311
C100	C	1.069185	-0.369644	-0.930212
H101	H	1.083962	-0.218044	-0.923338
H102	H	1.060791	-0.254490	-0.994465
H103	H	1.009109	-0.248675	-0.935715
H104	H	1.114662	-0.385205	-0.941812
H105	H	1.062987	-0.379392	-0.883047
C106	C	0.820338	-0.632503	-0.705675
C107	C	0.887367	-0.655484	-0.722769
H108	H	0.790959	-0.678682	-0.729651
H109	H	0.814139	-0.642262	-0.658522
H110	H	0.810456	-0.560981	-0.717271
H111	H	0.897251	-0.727004	-0.711168
H112	H	0.893569	-0.645734	-0.769932
C113	C	0.849384	-0.715112	-0.976092
C114	C	0.887382	-0.655395	-0.930152
H115	H	0.819986	-0.761298	-0.952100
H116	H	0.823521	-0.668717	-1.003669
H117	H	0.878875	-0.755835	-1.003657
H118	H	0.857890	-0.614665	-0.902590
H119	H	0.913246	-0.701796	-0.902564
C120	C	0.846625	-0.823786	-0.291386
C121	C	0.846037	-0.934954	-0.290591
H122	H	0.803121	-0.797894	-0.279668
H123	H	0.878864	-0.798522	-0.259738
H124	H	0.858277	-0.799549	-0.335297
H125	H	0.834388	-0.959191	-0.246678
H126	H	0.813787	-0.960227	-0.322240
C127	C	1.109614	-1.200609	-0.362167
C128	C	1.110492	-1.089442	-0.361746
H129	H	1.153125	-1.226465	-0.373889
H130	H	1.097615	-1.225948	-0.318609
H131	H	1.077513	-1.224807	-0.394298
H132	H	1.142590	-1.065244	-0.329611
H133	H	1.122499	-1.064093	-0.405310
C134	C	0.328855	-0.309868	-0.197530
C135	C	0.374820	-0.369682	-0.235454
H136	H	0.352828	-0.263609	-0.168202
H137	H	0.301299	-0.269229	-0.227068
H138	H	0.301271	-0.356205	-0.171591
H139	H	0.402400	-0.323346	-0.261397
H140	H	0.402387	-0.410325	-0.205912
H141	H	1.008669	-0.945720	-0.440235
H142	H	0.899679	-0.636130	-0.584462
H143	H	0.894761	-1.078428	-0.409644
H144	H	0.947821	-1.078859	-0.212188
C145	C	1.107150	-0.310020	-0.620414
C146	C	1.069143	-0.369781	-0.574448
H147	H	1.136525	-0.263830	-0.596441
H148	H	1.133035	-0.356386	-0.647983
H149	H	1.077662	-0.269298	-0.647985
H150	H	1.098630	-0.410508	-0.546881
H151	H	1.043255	-0.323408	-0.546868
H152	H	1.056872	-0.389000	-1.068524
C153	C	1.030996	-0.301335	-0.763459
C154	C	1.069158	-0.369713	-0.722826
H155	H	1.060381	-0.255119	-0.787442
H156	H	1.005223	-0.341854	-0.794618
H157	H	1.001508	-0.260645	-0.735869
H158	H	1.098642	-0.410408	-0.750417
H159	H	1.094942	-0.329189	-0.691663
