data_functionalizedCrystal
_audit_creation_method	'MofGen! by Chris Wilmer'
_symmetry_space_group_name_H-M	'P1'
_symmetry_Int_Tables_number	1
_symmetry_cell_setting	triclinic
loop_
_symmetry_equiv_pos_as_xyz
  x,y,z
_cell_length_a	11.169417
_cell_length_b	21.395361
_cell_length_c	21.395356
_cell_angle_alpha	89.968817
_cell_angle_beta	89.987171
_cell_angle_gamma	90.031958
loop_
_atom_site_label
_atom_site_type_symbol
_atom_site_fract_x
_atom_site_fract_y
_atom_site_fract_z
Zn1	Zn	1.834713	-0.249430	-0.354187
Zn2	Zn	1.834555	-0.354208	-0.249404
Zn3	Zn	1.634023	-0.249451	-0.249431
Zn4	Zn	1.633935	-0.354176	-0.354151
O5	O	1.734306	-0.301816	-0.301793
O6	O	2.002642	-0.263334	-0.340291
O7	O	1.807924	-0.340333	-0.161730
O8	O	1.660747	-0.161770	-0.263353
O9	O	2.002525	-0.340314	-0.263308
O10	O	1.808194	-0.161755	-0.340317
O11	O	1.660594	-0.263368	-0.161749
O12	O	1.466061	-0.263338	-0.263318
O13	O	1.660599	-0.340260	-0.441834
O14	O	1.465997	-0.340280	-0.340256
O15	O	1.808109	-0.263304	-0.441860
O16	O	1.807839	-0.441882	-0.263273
O17	O	1.660445	-0.441859	-0.340230
C18	C	1.422482	-0.301808	-0.301786
C19	C	1.289082	-0.301819	-0.301798
C20	C	1.734148	-0.464604	-0.301758
C21	C	1.734190	-0.534245	-0.301764
C22	C	1.811006	-0.566950	-0.261734
C23	C	1.811062	-0.632385	-0.261748
C24	C	1.734280	-0.665114	-0.301786
C25	C	1.657459	-0.632401	-0.341824
C26	C	1.657414	-0.566967	-0.341813
C27	C	1.626215	-0.768829	-0.306699
C28	C	1.626258	-0.834262	-0.306706
C29	C	1.734420	-0.866934	-0.301823
C30	C	1.842542	-0.834165	-0.296920
C31	C	1.842497	-0.768731	-0.296909
C32	C	1.734321	-0.736066	-0.301802
C33	C	1.811303	-0.970591	-0.261805
C34	C	1.811361	-1.036028	-0.261824
C35	C	1.657747	-1.036043	-0.341897
C36	C	1.657700	-0.970607	-0.341881
C37	C	1.734476	-0.937886	-0.301832
C38	C	2.047349	-0.301825	-0.301801
C39	C	2.180749	-0.301829	-0.301804
C40	C	1.734362	-0.301776	-0.465217
C41	C	1.734386	-0.301759	-0.534858
C42	C	1.734498	-0.138393	-0.301842
C43	C	1.734580	-0.068752	-0.301863
C44	C	1.811307	-0.261588	-1.036669
C45	C	1.811298	-0.261603	-0.971234
C46	C	1.734489	-0.301676	-0.938496
C47	C	1.657705	-0.341747	-0.971200
C48	C	1.657725	-0.341735	-1.036634
C49	C	1.626321	-0.306639	-0.834824
C50	C	1.626298	-0.306646	-0.769391
C51	C	1.734427	-0.301716	-0.736676
C52	C	1.842582	-0.296765	-0.769401
C53	C	1.842602	-0.296753	-0.834836
C54	C	1.734459	-0.301693	-0.867544
C55	C	1.811202	-0.261666	-0.633027
C56	C	1.811194	-0.261685	-0.567591
C57	C	1.657591	-0.341826	-0.567558
C58	C	1.657609	-0.341810	-0.632994
C59	C	1.734413	-0.301727	-0.665724
C60	C	1.734320	-0.301811	-0.139006
C61	C	1.734529	-0.301652	-0.069365
H62	H	1.873525	-0.540309	-0.229125
H63	H	1.873823	-0.943948	-0.229197
H64	H	1.538129	-0.742234	-0.310678
H65	H	1.930618	-0.860766	-0.292944
H66	H	1.538218	-0.860937	-0.310692
H67	H	1.873740	-0.229027	-0.659678
H68	H	1.594945	-0.659053	-0.374424
H69	H	1.873619	-0.659018	-0.229150
O70	O	1.894015	-0.218474	-0.532321
H71	H	1.947414	-0.190599	-0.566076
O72	O	1.959104	-0.733385	-0.291631
H73	H	2.034330	-0.767092	-0.288241
O74	O	1.574556	-0.531685	-0.384988
H75	H	1.513517	-0.501922	-0.356908
O76	O	1.574739	-0.385048	-0.532260
H77	H	1.587617	-0.378324	-0.481265
H78	H	1.873853	-0.228952	-1.063314
H79	H	1.873820	-0.228976	-0.944608
O80	O	1.894231	-1.071302	-0.218650
H81	H	1.881381	-1.122300	-0.225391
O82	O	1.959243	-0.291421	-0.870136
H83	H	2.034435	-0.287998	-0.836399
O84	O	1.509640	-0.311975	-0.734106
H85	H	1.511474	-0.354420	-0.704270
O86	O	1.959221	-0.291451	-0.734128
H87	H	1.941045	-0.292300	-0.683130
H88	H	1.538263	-0.310654	-0.861455
O89	O	1.574779	-0.385012	-0.668265
H90	H	1.521355	-0.412876	-0.634510
H91	H	1.595201	-0.374361	-1.063255
O92	O	1.574923	-1.071332	-0.385080
H93	H	1.587852	-1.122328	-0.378360
O94	O	1.574817	-0.935327	-0.385041
H95	H	1.521420	-0.969076	-0.412878
H96	H	1.595168	-0.374376	-0.944541
