data_functionalizedCrystal
_audit_creation_method	'MofGen! by Chris Wilmer'
_symmetry_space_group_name_H-M	'P1'
_symmetry_Int_Tables_number	1
_symmetry_cell_setting	triclinic
loop_
_symmetry_equiv_pos_as_xyz
  x,y,z
_cell_length_a	16.109301
_cell_length_b	16.109301
_cell_length_c	15.186229
_cell_angle_alpha	89.999624
_cell_angle_beta	90.015371
_cell_angle_gamma	96.538519
loop_
_atom_site_label
_atom_site_type_symbol
_atom_site_fract_x
_atom_site_fract_y
_atom_site_fract_z
O1	O	0.106879	-1.103129	0.073176
O2	O	0.606879	-0.603129	0.573176
O3	O	0.120178	-0.861067	0.073190
O4	O	0.620178	-0.361067	0.573190
O5	O	-0.007503	-0.988748	0.073174
O6	O	0.492497	-0.488748	0.573174
O7	O	0.234559	-0.975448	0.073192
O8	O	0.734559	-0.475448	0.573192
O9	O	-0.007530	-0.988743	-0.073284
O10	O	0.492470	-0.488743	0.426716
O11	O	0.120151	-0.861062	-0.073267
O12	O	0.620151	-0.361062	0.426733
O13	O	0.106852	-1.103124	-0.073282
O14	O	0.606852	-0.603124	0.426718
Zn15	Zn	0.113497	-0.982092	-0.096528
Zn16	Zn	0.613497	-0.482092	0.403472
Zn17	Zn	0.113532	-0.982099	0.096436
Zn18	Zn	0.613532	-0.482099	0.596436
O19	O	0.234532	-0.975443	-0.073265
O20	O	0.734532	-0.475443	0.426735
C21	C	-0.038491	-0.988206	-0.000056
C22	C	0.461509	-0.488206	0.499944
C23	C	-0.130786	-0.986591	-0.000057
C24	C	0.369214	-0.486591	0.499943
C25	C	0.119626	-0.830090	-0.000037
C26	C	0.619626	-0.330090	0.499963
C27	C	0.118011	-0.737794	-0.000032
C28	C	0.618011	-0.237794	0.499968
C29	C	0.107404	-1.134101	-0.000053
C30	C	0.607404	-0.634101	0.499947
C31	C	0.109019	-1.226397	-0.000052
C32	C	0.609019	-0.726397	0.499948
C33	C	-0.353059	-1.058599	-0.000047
C34	C	0.146941	-0.558599	0.499953
C35	C	-0.439779	-1.057075	-0.000040
C36	C	0.060221	-0.557075	0.499960
C37	C	-0.419905	-0.905586	-0.000034
C38	C	0.080095	-0.405586	0.499966
C39	C	-0.333186	-0.907111	-0.000035
C40	C	0.166814	-0.407111	0.499965
C41	C	-0.299766	-0.983620	-0.000046
C42	C	0.200234	-0.483620	0.499954
C43	C	-0.473205	-0.980571	-0.000038
C44	C	0.026795	-0.480571	0.499962
C45	C	-0.567231	-0.978918	-0.000030
C46	C	-0.067231	-0.478918	0.499970
C47	C	-0.205734	-0.985273	-0.000052
C48	C	0.294266	-0.485273	0.499948
C49	C	0.265521	-0.975984	-0.000034
C50	C	0.765521	-0.475984	0.499966
C51	C	0.357816	-0.977600	-0.000027
C52	C	0.857816	-0.477600	0.499973
N53	N	0.113473	-0.982094	-0.228220
N54	N	0.613473	-0.482094	0.271780
C55	C	0.190018	-0.515522	-0.000036
C56	C	0.690018	-0.015522	0.499964
C57	C	0.188494	-0.428801	-0.000042
C58	C	0.688494	0.071199	0.499958
C59	C	0.037006	-0.448676	-0.000050
C60	C	0.537006	0.051324	0.499950
C61	C	0.038530	-0.535394	-0.000051
C62	C	0.538530	-0.035394	0.499949
C63	C	0.115039	-0.568815	-0.000039
C64	C	0.615039	-0.068815	0.499961
C65	C	0.111990	-0.395376	-0.000045
C66	C	0.611990	0.104624	0.499955
C67	C	0.110337	-0.301350	-0.000051
C68	C	0.610337	0.198650	0.499949
C69	C	0.116693	-0.662847	-0.000035
C70	C	0.616693	-0.162847	0.499965
N71	N	0.113550	-0.982104	0.228129
N72	N	0.613550	-0.482104	0.728129
C73	C	0.164057	-1.032392	0.546077
C74	C	0.664057	-0.532392	1.046077
C75	C	0.164069	-1.032396	0.453887
C76	C	0.664069	-0.532396	0.953887
C77	C	0.062961	-0.931803	0.453838
C78	C	0.562961	-0.431803	0.953838
C79	C	0.062945	-0.931804	0.546026
C80	C	0.562945	-0.431804	1.046026
C81	C	0.113498	-0.982097	0.592143
C82	C	0.613498	-0.482097	1.092143
C83	C	0.113525	-0.982100	0.407765
C84	C	0.613525	-0.482100	0.907765
C85	C	0.113538	-0.982104	0.307809
C86	C	0.613538	-0.482104	0.807809
C87	C	0.113484	-0.982095	0.692106
C88	C	0.613484	-0.482095	1.192106
H89	H	-0.325851	-1.120897	-0.000054
H90	H	0.174149	-0.620897	0.499946
Br91	Br	0.232684	-1.100660	0.391372
Br92	Br	0.732684	-0.600660	0.891372
H93	H	0.021769	-0.890847	0.583534
H94	H	0.521769	-0.390847	1.083534
Br95	Br	-0.066823	-0.403314	-0.000062
Br96	Br	0.433177	0.096686	0.499938
Br97	Br	-0.063234	-0.607728	-0.000066
Br98	Br	0.436766	-0.107728	0.499934
H99	H	-0.483168	-1.118130	-0.000039
H100	H	0.016832	-0.618130	0.499961
Br101	Br	-0.465267	-0.801758	-0.000017
Br102	Br	0.034733	-0.301758	0.499983
H103	H	-0.289792	-0.846050	-0.000032
H104	H	0.210208	-0.346050	0.499968
H105	H	0.205220	-1.073344	0.583623
H106	H	0.705220	-0.573344	1.083623
Br107	Br	0.290256	-0.356477	-0.000042
Br108	Br	0.790256	0.143523	0.499958
H109	H	0.021803	-0.890855	0.416278
H110	H	0.521803	-0.390855	0.916278
H111	H	0.252317	-0.542730	-0.000034
H112	H	0.752317	-0.042730	0.499966
