data_functionalizedCrystal
_audit_creation_method	'MofGen! by Chris Wilmer'
_symmetry_space_group_name_H-M	'P1'
_symmetry_Int_Tables_number	1
_symmetry_cell_setting	triclinic
loop_
_symmetry_equiv_pos_as_xyz
  x,y,z
_cell_length_a	10.654550
_cell_length_b	10.654551
_cell_length_c	9.730223
_cell_angle_alpha	89.997271
_cell_angle_beta	89.990628
_cell_angle_gamma	84.485132
loop_
_atom_site_label
_atom_site_type_symbol
_atom_site_fract_x
_atom_site_fract_y
_atom_site_fract_z
O1	O	1.667844	0.176400	-0.114394
O2	O	1.302366	0.193206	-0.114371
O3	O	1.493507	0.002064	-0.114383
O4	O	1.476703	0.367542	-0.114381
O5	O	1.493486	0.002055	0.114197
O6	O	1.302344	0.193197	0.114209
O7	O	1.667823	0.176391	0.114186
Zn8	Zn	1.485080	0.184793	0.150490
Zn9	Zn	1.485108	0.184804	-0.150674
O10	O	1.476681	0.367533	0.114199
C11	C	1.255557	0.191968	-0.000078
C12	C	1.116114	0.188276	-0.000069
C13	C	1.492263	-0.044739	-0.000096
C14	C	1.488570	-0.184182	-0.000105
C15	C	1.036629	0.300817	-0.000089
C16	C	0.905608	0.297341	-0.000113
C17	C	0.933570	0.068771	-0.000104
C18	C	1.064589	0.072249	-0.000070
C19	C	1.088154	0.416844	-0.000088
C20	C	1.008667	0.529395	-0.000109
C21	C	0.877647	0.525918	-0.000133
C22	C	0.826112	0.409891	-0.000136
C23	C	1.486850	-0.249689	-0.124702
C24	C	1.483369	-0.380709	-0.124695
C25	C	1.483336	-0.380704	0.124515
C26	C	1.486807	-0.249685	0.124507
C27	C	1.488613	-0.184186	-0.249314
C28	C	1.486894	-0.249693	-0.373921
C29	C	1.483413	-0.380713	-0.373914
C30	C	1.481652	-0.446226	-0.249301
C31	C	1.714632	0.177629	-0.000109
C32	C	1.854075	0.181321	-0.000127
C33	C	1.477926	0.414336	-0.000091
C34	C	1.481619	0.553779	-0.000091
N35	N	1.485070	0.184784	0.356026
N36	N	1.485128	0.184803	-0.356211
C37	C	1.400460	0.269408	0.571877
C38	C	1.400428	0.269396	0.427994
C39	C	1.569742	0.100171	0.427949
C40	C	1.569768	0.100177	0.571829
C41	C	1.315821	0.354033	0.643838
C42	C	1.231147	0.438646	0.571925
C43	C	1.231114	0.438634	0.428042
C44	C	1.315756	0.354010	0.356072
H45	H	1.050636	0.623860	-0.000095
O46	O	1.651838	0.017787	0.358126
C47	C	1.723562	-0.199930	0.314231
C48	C	1.630492	-0.106761	0.393348
H49	H	1.706354	-0.300646	0.342701
H50	H	1.709022	-0.185536	0.199020
H51	H	1.824284	-0.182567	0.342474
H52	H	1.529733	-0.124066	0.365220
H53	H	1.645142	-0.121176	0.508539
H54	H	0.812931	0.617562	-0.000136
H55	H	1.162162	0.507520	0.369492
H56	H	1.162228	0.507537	0.630531
H57	H	1.315714	0.353999	0.238912
H58	H	1.638711	0.031283	0.630381
H59	H	1.194836	0.419687	-0.000075
H60	H	0.719425	0.407069	-0.000134
H61	H	0.891600	-0.025693	-0.000129
O62	O	1.141939	-0.036986	-0.000240
C63	C	1.306093	-0.165729	-0.118660
C64	C	1.218584	-0.041960	-0.118629
H65	H	1.368064	-0.169803	-0.214382
H66	H	1.368182	-0.169826	-0.023048
H67	H	1.246741	-0.249235	-0.118611
H68	H	1.277837	0.041616	-0.118727
H69	H	1.156489	-0.037973	-0.214233
H70	H	1.315842	0.354053	0.760994
H71	H	1.488316	-0.196343	-0.475376
O72	O	1.481901	-0.444506	-0.494862
C73	C	1.586650	-0.605661	-0.639526
C74	C	1.588495	-0.533538	-0.502486
H75	H	1.672834	-0.677641	-0.645747
H76	H	1.497343	-0.656359	-0.645777
H77	H	1.588445	-0.536301	-0.728560
H78	H	1.586747	-0.602812	-0.413373
H79	H	1.677794	-0.482820	-0.496355
O80	O	1.488255	-0.185949	0.245495
C81	C	1.383567	-0.024663	0.390040
C82	C	1.381768	-0.096775	0.252989
H83	H	1.297496	0.047468	0.396130
H84	H	1.381639	-0.093905	0.479171
H85	H	1.472964	0.025894	0.396237
H86	H	1.292387	-0.147336	0.246657
H87	H	1.383763	-0.027474	0.163922
H88	H	1.491450	-0.077503	-0.249334
H89	H	1.478800	-0.552910	-0.249306
H90	H	1.481903	-0.434055	0.225969
