data_functionalizedCrystal
_audit_creation_method	'MofGen! by Chris Wilmer'
_symmetry_space_group_name_H-M	'P1'
_symmetry_Int_Tables_number	1
_symmetry_cell_setting	triclinic
loop_
_symmetry_equiv_pos_as_xyz
  x,y,z
_cell_length_a	25.639242
_cell_length_b	25.639233
_cell_length_c	25.639239
_cell_angle_alpha	89.980699
_cell_angle_beta	90.034185
_cell_angle_gamma	89.978417
loop_
_atom_site_label
_atom_site_type_symbol
_atom_site_fract_x
_atom_site_fract_y
_atom_site_fract_z
Zn1	Zn	0.799223	-0.295732	-0.208286
Zn2	Zn	0.799145	-0.208296	-0.295704
Zn3	Zn	0.711799	-0.208297	-0.208277
Zn4	Zn	0.711743	-0.295686	-0.295684
O5	O	0.755478	-0.252003	-0.251988
O6	O	0.872378	-0.284152	-0.219894
O7	O	0.787550	-0.135131	-0.284112
O8	O	0.723452	-0.219915	-0.135113
O9	O	0.872321	-0.219913	-0.284120
O10	O	0.787682	-0.284153	-0.135119
O11	O	0.723377	-0.135132	-0.219879
O12	O	0.638627	-0.219871	-0.219860
O13	O	0.723357	-0.368858	-0.284085
O14	O	0.638586	-0.284075	-0.284077
O15	O	0.787628	-0.368891	-0.219874
O16	O	0.787496	-0.219868	-0.368867
O17	O	0.723282	-0.284074	-0.368852
C18	C	0.619635	-0.251969	-0.251966
C19	C	0.561521	-0.251967	-0.251969
C20	C	0.310340	-0.218629	-0.218494
C21	C	0.364945	-0.218623	-0.218489
O22	O	0.393192	-0.190249	-0.189997
N23	N	0.392247	-0.251993	-0.251975
C24	C	0.364943	-0.285376	-0.285465
O25	O	0.393180	-0.313759	-0.313947
C26	C	0.310339	-0.285385	-0.285467
C27	C	0.283040	-0.252008	-0.251982
C28	C	0.283040	-0.185256	-0.185011
C29	C	0.228440	-0.185262	-0.185017
C30	C	0.201139	-0.218641	-0.218505
C31	C	0.228439	-0.252014	-0.251987
C32	C	0.283036	-0.318770	-0.318953
C33	C	0.228429	-0.318776	-0.318952
C34	C	0.201129	-0.285400	-0.285467
C35	C	0.146538	-0.285400	-0.285481
N36	N	0.119235	-0.252029	-0.251995
C37	C	0.146536	-0.218650	-0.218507
C38	C	0.479613	-0.285355	-0.285458
C39	C	0.534216	-0.285344	-0.285459
C40	C	0.534214	-0.218591	-0.218482
C41	C	0.479610	-0.218600	-0.218484
C42	C	0.452311	-0.251985	-0.251971
C43	C	0.031871	-0.218665	-0.218522
C44	C	-0.022735	-0.218673	-0.218532
C45	C	-0.022728	-0.285427	-0.285506
C46	C	0.031873	-0.285418	-0.285498
C47	C	0.059171	-0.252035	-0.252002
O48	O	0.118256	-0.313761	-0.313958
O49	O	0.118292	-0.190276	-0.190025
C50	C	0.755495	-0.388376	-0.251979
C51	C	0.755502	-0.446490	-0.251975
C52	C	0.789010	-0.806876	-0.218440
C53	C	0.789016	-0.861481	-0.218426
O54	O	0.817464	-0.889737	-0.189976
N55	N	0.755559	-0.888773	-0.251852
C56	C	0.722090	-0.861457	-0.285291
O57	O	0.693632	-0.889685	-0.313721
C58	C	0.722081	-0.806854	-0.285302
C59	C	0.755544	-0.779565	-0.251878
C60	C	0.822470	-0.779587	-0.185018
C61	C	0.822464	-0.724986	-0.185034
C62	C	0.788998	-0.697675	-0.218471
C63	C	0.755538	-0.724964	-0.251893
C64	C	0.688610	-0.779540	-0.318738
C65	C	0.688603	-0.724933	-0.318747
C66	C	0.722066	-0.697644	-0.285322
C67	C	0.722067	-0.643052	-0.285346
N68	N	0.755524	-0.615760	-0.251920
C69	C	0.788989	-0.643072	-0.218482
C70	C	0.722110	-0.976128	-0.285264
C71	C	0.722121	-1.030730	-0.285255
C72	C	0.789047	-1.030750	-0.218390
C73	C	0.789038	-0.976146	-0.218401
C74	C	0.755567	-0.948836	-0.251838
C75	C	0.788975	-0.528407	-0.218517
C76	C	0.788968	-0.473801	-0.218537
C77	C	0.722040	-0.473787	-0.285401
C78	C	0.722049	-0.528387	-0.285383
C79	C	0.755518	-0.555696	-0.251937
O80	O	0.693632	-0.614761	-0.313780
O81	O	0.817437	-0.614837	-0.190053
C82	C	0.891851	-0.252037	-0.252010
C83	C	0.949965	-0.252052	-0.252020
C84	C	0.755388	-0.251977	-0.387830
C85	C	0.755398	-0.251984	-0.445944
C86	C	0.755491	-0.116160	-0.251959
C87	C	0.755585	-0.058047	-0.251816
C88	C	0.722035	-0.285424	-0.697142
C89	C	0.722016	-0.285418	-0.642538
O90	O	0.693564	-0.313832	-0.614305
N91	N	0.755464	-0.252012	-0.615218
C92	C	0.788937	-0.218613	-0.642505
O93	O	0.817386	-0.190198	-0.614254
C94	C	0.788959	-0.218622	-0.697109
C95	C	0.755505	-0.252027	-0.724426
C96	C	0.688584	-0.318827	-0.724460
C97	C	0.688603	-0.318832	-0.779060
C98	C	0.722073	-0.285435	-0.806343
C99	C	0.755524	-0.252032	-0.779026
C100	C	0.822434	-0.185226	-0.724395
C101	C	0.822453	-0.185238	-0.779002
C102	C	0.788999	-0.218643	-0.806319
C103	C	0.789012	-0.218640	-0.860910
N104	N	0.755564	-0.252046	-0.888230
C105	C	0.722094	-0.285444	-0.860947
C106	C	0.788890	-0.218597	-0.527835
C107	C	0.788866	-0.218585	-0.473232
C108	C	0.721945	-0.285391	-0.473269
C109	C	0.721967	-0.285400	-0.527872
C110	C	0.755442	-0.252003	-0.555155
C111	C	0.722136	-0.285452	-0.975612
C112	C	0.722156	-0.285453	-1.030217
C113	C	0.789079	-0.218649	-1.030176
C114	C	0.789057	-0.218646	-0.975575
C115	C	0.755584	-0.252052	-0.948295
O116	O	0.817451	-0.190242	-0.889178
O117	O	0.693655	-0.313859	-0.889205
C118	C	0.755582	-0.252040	-0.115615
C119	C	0.755626	-0.252055	-0.057501
H120	H	0.206204	-0.345964	-0.346220
F121	F	0.686361	-0.320954	-0.556940
F122	F	0.199392	-0.149743	-0.149373
F123	F	-0.051786	-0.183147	-0.182892
H124	H	0.457386	-0.191424	-0.191216
F125	F	0.686438	-0.557431	-0.320960
H126	H	0.816327	-0.191456	-1.052400
H127	H	0.661360	-0.801749	-0.345956
H128	H	0.816101	-0.191378	-0.450995
H129	H	0.849722	-0.801818	-0.157787
H130	H	0.054090	-0.191484	-0.191243
H131	H	0.816148	-0.191397	-0.550045
H132	H	0.694913	-0.312656	-1.052456
F133	F	0.686425	-0.444710	-0.320985
F134	F	0.824594	-0.557463	-0.182918
F135	F	0.686323	-0.320935	-0.444222
F136	F	0.686510	-0.321006	-0.946585
H137	H	0.054101	-0.312591	-0.312768
H138	H	0.694878	-1.052945	-0.312479
F139	F	0.858077	-0.695950	-0.149456
H140	H	0.694853	-0.953895	-0.312495
H141	H	0.556439	-0.312517	-0.312731
F142	F	0.858045	-0.149676	-0.695334
H143	H	0.849715	-0.158044	-0.801212
F144	F	0.824652	-0.183083	-0.946502
F145	F	0.652977	-0.695870	-0.354335
F146	F	0.824586	-0.444761	-0.182962
H147	H	0.661361	-0.346033	-0.801297
F148	F	0.563279	-0.183066	-0.182841
F149	F	0.312088	-0.149728	-0.149364
F150	F	0.312079	-0.354294	-0.354592
F151	F	0.450564	-0.320886	-0.321106
F152	F	-0.051793	-0.320944	-0.321151
H153	H	0.816286	-0.953931	-0.191183
F154	F	0.824664	-1.059826	-0.182801
F155	F	0.652959	-0.354377	-0.695431
