data_functionalizedCrystal
_audit_creation_method	'MofGen! by Chris Wilmer'
_symmetry_space_group_name_H-M	'P1'
_symmetry_Int_Tables_number	1
_symmetry_cell_setting	triclinic
loop_
_symmetry_equiv_pos_as_xyz
  x,y,z
_cell_length_a	19.121112
_cell_length_b	21.295417
_cell_length_c	19.120904
_cell_angle_alpha	92.409419
_cell_angle_beta	90.088845
_cell_angle_gamma	87.583854
loop_
_atom_site_label
_atom_site_type_symbol
_atom_site_fract_x
_atom_site_fract_y
_atom_site_fract_z
Zn1	Zn	1.054818	-0.307921	-0.442026
Zn2	Zn	1.059729	-0.408895	-0.324781
Zn3	Zn	0.942588	-0.298967	-0.319812
Zn4	Zn	0.937541	-0.408472	-0.436985
O5	O	0.998669	-0.356064	-0.380901
O6	O	1.153575	-0.325239	-0.430662
O7	O	1.048358	-0.390743	-0.226017
O8	O	0.957533	-0.212069	-0.336053
O9	O	1.157183	-0.399425	-0.344523
O10	O	1.039988	-0.218647	-0.425844
O11	O	0.962295	-0.309980	-0.222366
O12	O	0.843813	-0.309569	-0.331165
O13	O	0.948930	-0.398704	-0.535758
O14	O	0.840105	-0.390022	-0.417252
O15	O	1.035094	-0.324829	-0.539462
O16	O	1.043463	-0.496925	-0.339635
O17	O	0.953692	-0.496614	-0.422071
C18	C	0.816522	-0.348779	-0.373123
C19	C	0.738598	-0.345678	-0.369812
C20	C	0.297970	-0.326006	-0.348843
C21	C	0.371188	-0.328923	-0.351958
C22	C	0.405885	-0.372333	-0.398263
C23	C	0.367361	-0.412823	-0.441461
C24	C	0.294144	-0.409903	-0.438350
C25	C	0.626856	-0.383247	-0.409899
C26	C	0.700078	-0.386166	-0.413006
C27	C	0.703901	-0.302265	-0.323503
C28	C	0.630683	-0.299351	-0.320393
C29	C	0.592164	-0.339839	-0.363594
C30	C	0.480726	-0.375317	-0.401446
C31	C	0.517325	-0.336851	-0.360414
C32	C	0.998581	-0.519611	-0.380861
C33	C	0.998607	-0.589580	-0.380871
C34	C	1.041514	-0.625815	-0.427656
C35	C	1.041538	-0.691559	-0.427674
C36	C	0.998663	-0.721066	-0.380895
C37	C	0.955747	-0.684822	-0.334107
C38	C	0.955719	-0.619080	-0.334095
N39	N	0.995988	-0.821870	-0.319316
N40	N	0.996018	-0.884323	-0.319330
C41	C	0.998743	-0.919145	-0.380930
N42	N	1.001450	-0.889154	-0.442519
N43	N	1.001423	-0.826696	-0.442504
C44	C	0.998688	-0.792352	-0.380904
C45	C	1.041679	-1.026667	-0.427739
C46	C	1.041698	-1.092412	-0.427758
C47	C	0.955910	-1.085674	-0.334185
C48	C	0.955887	-1.019930	-0.334172
C49	C	0.998775	-0.990431	-0.380948
C50	C	1.181527	-0.363378	-0.388709
C51	C	1.259451	-0.366495	-0.392037
C52	C	0.990901	-0.362718	-0.563759
C53	C	0.987591	-0.365553	-0.641682
C54	C	0.998776	-0.191880	-0.380956
C55	C	0.998821	-0.121914	-0.380980
C56	C	1.030894	-0.328425	-0.680219
C57	C	1.027775	-0.331086	-0.753436
C58	C	0.981356	-0.370880	-0.788114
C59	C	0.938048	-0.408010	-0.749571
C60	C	0.941164	-0.405345	-0.676355
C61	C	0.969701	-0.380849	-1.009081
C62	C	0.966590	-0.383513	-1.082301
C63	C	1.056316	-0.306588	-1.086162
C64	C	1.059431	-0.303929	-1.012945
C65	C	1.016120	-0.341056	-0.974408
C66	C	0.978169	-0.373603	-0.862953
C67	C	1.019305	-0.338330	-0.899570
C68	C	1.006447	-0.349392	-0.198756
C69	C	1.009893	-0.346384	-0.120839
H70	H	0.735270	-0.269301	-0.288332
H71	H	1.091576	-0.276360	-1.117546
Br72	Br	0.241866	-0.464849	-0.496977
H73	H	0.508984	-0.410663	-0.439146
Br74	Br	1.099923	-1.141590	-0.491268
Br75	Br	0.910921	-0.431235	-0.956790
Br76	Br	0.875046	-0.462013	-0.796633
Br77	Br	0.897551	-0.724865	-0.270628
Br78	Br	0.897717	-1.125712	-0.270703
Br79	Br	1.099880	-0.986628	-0.491220
Br80	Br	0.470235	-0.277936	-0.297577
H81	H	1.076434	-0.601798	-0.465745
H82	H	0.920778	-0.589576	-0.295996
Br83	Br	1.122433	-0.249923	-0.965887
H84	H	1.076472	-0.721067	-0.465779
Br85	Br	0.574591	-0.438198	-0.468527
Br86	Br	0.897651	-0.970751	-0.270677
H87	H	0.928788	-0.415919	-1.110534
H88	H	0.905895	-0.435572	-0.644978
H89	H	1.068696	-0.296022	-0.651990
H90	H	1.063039	-0.300854	-0.784810
Br91	Br	1.082291	-0.284317	-0.852506
H92	H	0.402548	-0.295956	-0.316781
H93	H	0.728326	-0.421516	-0.450717
H94	H	0.269725	-0.290658	-0.311136
H95	H	0.940377	-0.406007	-0.891196
Br96	Br	0.583598	-0.240433	-0.257551
H97	H	0.395617	-0.448166	-0.479167
