data_functionalizedCrystal
_audit_creation_method	'MofGen! by Chris Wilmer'
_symmetry_space_group_name_H-M	'P1'
_symmetry_Int_Tables_number	1
_symmetry_cell_setting	triclinic
loop_
_symmetry_equiv_pos_as_xyz
  x,y,z
_cell_length_a	16.992694
_cell_length_b	10.654541
_cell_length_c	16.053802
_cell_angle_alpha	92.590712
_cell_angle_beta	87.249047
_cell_angle_gamma	87.576076
loop_
_atom_site_label
_atom_site_type_symbol
_atom_site_fract_x
_atom_site_fract_y
_atom_site_fract_z
O1	O	1.045115	0.261481	-0.069324
O2	O	1.545115	0.761481	0.430676
O3	O	0.816815	0.258557	-0.069348
O4	O	1.316815	0.758557	0.430652
O5	O	0.936214	0.077733	-0.069330
O6	O	1.436214	0.577733	0.430670
O7	O	0.925715	0.442304	-0.069342
O8	O	1.425715	0.942304	0.430658
O9	O	0.929642	0.087643	0.069527
O10	O	1.429642	0.587643	0.569527
O11	O	0.810242	0.268466	0.069510
O12	O	1.310242	0.768466	0.569510
O13	O	1.038542	0.271391	0.069534
O14	O	1.538542	0.771391	0.569534
Zn15	Zn	0.923349	0.271501	0.091569
Zn16	Zn	1.423349	0.771501	0.591569
Zn17	Zn	0.932008	0.258446	-0.091383
Zn18	Zn	1.432008	0.758446	0.408617
O19	O	0.919143	0.452214	0.069516
O20	O	1.419143	0.952214	0.569516
C21	C	0.784296	0.259751	0.000077
C22	C	1.284296	0.759751	0.500077
C23	C	0.697191	0.248531	0.000068
C24	C	1.197191	0.748531	0.500068
C25	C	0.647539	0.356781	0.000065
C26	C	1.147539	0.856781	0.500065
C27	C	0.565694	0.346233	0.000077
C28	C	1.065694	0.846233	0.500077
C29	C	0.533504	0.227433	0.000086
C30	C	1.033504	0.727433	0.500086
C31	C	0.583162	0.119174	0.000091
C32	C	1.083162	0.619174	0.500091
C33	C	0.665005	0.129724	0.000085
C34	C	1.165005	0.629724	0.500085
C35	C	0.289668	0.183707	0.000110
C36	C	0.789668	0.683707	0.500110
C37	C	0.207819	0.173165	0.000113
C38	C	0.707819	0.673165	0.500113
C39	C	0.190356	0.400226	0.000101
C40	C	0.690356	0.900226	0.500101
C41	C	0.272201	0.410765	0.000090
C42	C	0.772201	0.910765	0.500090
C43	C	0.321852	0.302506	0.000099
C44	C	0.821852	0.802506	0.500099
N45	N	0.449846	0.216647	0.000095
N46	N	0.949846	0.716647	0.500095
N47	N	0.405508	0.313293	0.000096
N48	N	0.905508	0.813293	0.500096
C49	C	0.932158	0.035823	0.000098
C50	C	1.432158	0.535823	0.500098
C51	C	0.929852	-0.103819	0.000096
C52	C	1.429852	0.396181	0.500096
C53	C	1.072627	-0.119450	0.000122
C54	C	1.572627	0.380550	0.500122
C55	C	1.142928	-0.192868	0.000137
C56	C	1.642928	0.307132	0.500137
C57	C	1.140757	-0.324074	0.000134
C58	C	1.640757	0.175926	0.500134
C59	C	1.068278	-0.381864	0.000114
C60	C	1.568278	0.118136	0.500114
C61	C	0.997977	-0.308446	0.000100
C62	C	1.497977	0.191554	0.500100
C63	C	1.000155	-0.177238	0.000105
C64	C	1.500155	0.322762	0.500105
C65	C	0.855204	-0.292816	0.000068
C66	C	1.355204	0.207184	0.500068
C67	C	0.857373	-0.161610	0.000076
C68	C	1.357373	0.338390	0.500076
C69	C	0.782725	-0.350606	0.000048
C70	C	1.282725	0.149394	0.500048
C71	C	0.712422	-0.277188	0.000039
C72	C	1.212422	0.222812	0.500039
C73	C	0.714596	-0.145974	0.000043
C74	C	1.214596	0.354026	0.500043
C75	C	0.787072	-0.088192	0.000062
C76	C	1.287072	0.411808	0.500062
C77	C	1.071061	0.270196	0.000106
C78	C	1.571061	0.770196	0.500106
C79	C	1.158166	0.281416	0.000110
C80	C	1.658166	0.781416	0.500110
C81	C	0.923199	0.494124	0.000086
C82	C	1.423199	0.994124	0.500086
C83	C	0.925505	0.633766	0.000082
C84	C	1.425505	1.133766	0.500082
N85	N	0.917445	0.280412	0.216428
N86	N	1.417445	0.780412	0.716428
N87	N	0.937918	0.249526	-0.216242
N88	N	1.437918	0.749526	0.283758
C89	C	0.968268	0.203502	0.260130
C90	C	1.468268	0.703502	0.760130
C91	C	0.964146	0.209748	0.347536
C92	C	1.464146	0.709748	0.847536
C93	C	0.909203	0.292910	0.391239
C94	C	1.409203	0.792910	0.891239
C95	C	0.858374	0.369822	0.347531
C96	C	1.358374	0.869822	0.847531
C97	C	0.862493	0.363569	0.260126
C98	C	1.362493	0.863569	0.760126
C99	C	0.891209	0.320186	0.652646
C100	C	1.391209	0.820186	1.152646
C101	C	0.887095	0.326436	0.740056
C102	C	1.387095	0.826436	1.240056
C103	C	0.992866	0.166359	0.740055
C104	C	1.492866	0.666359	1.240055
C105	C	0.996984	0.160119	0.652649
C106	C	1.496984	0.660119	1.152649
C107	C	0.946152	0.237026	0.608949
C108	C	1.446152	0.737026	1.108949
N109	N	0.904989	0.299298	0.480582
N110	N	1.404989	0.799298	0.980582
N111	N	0.950363	0.230631	0.519607
N112	N	1.450363	0.730631	1.019607
H113	H	0.525270	0.434383	0.000074
H114	H	1.025270	0.934383	0.500074
H115	H	1.066517	-0.488700	0.000101
H116	H	1.566517	0.011300	0.500101
H117	H	1.201939	-0.145800	0.000160
H118	H	1.701939	0.354200	0.500160
O119	O	0.142164	0.505407	-0.000050
O120	O	0.642164	1.005407	0.499950
C121	C	0.160256	0.571935	-0.071958
C122	C	0.660256	1.071935	0.428042
H123	H	0.190235	0.504821	-0.122223
H124	H	0.690235	1.004821	0.377777
H125	H	0.103611	0.614774	-0.096094
H126	H	0.603611	1.114774	0.403906
H127	H	0.201551	0.650004	-0.055704
H128	H	0.701551	1.150004	0.444296
H129	H	0.705432	0.041574	0.000087
H130	H	1.205432	0.541574	0.500087
H131	H	1.074401	-0.012615	0.000136
H132	H	1.574401	0.487385	0.500136
O133	O	0.833608	0.407073	0.782478
O134	O	1.333608	0.907073	1.282478
C135	C	0.756848	0.377254	0.761124
C136	C	1.256848	0.877254	1.261124
H137	H	0.757062	0.274899	0.737101
H138	H	1.257062	0.774899	1.237101
H139	H	0.714851	0.391810	0.818615
H140	H	1.214851	0.891810	1.318615
H141	H	0.736559	0.440941	0.710394
H142	H	1.236559	0.940941	1.210394
H143	H	0.849821	0.382810	0.617072
H144	H	1.349821	0.882810	1.117072
O145	O	0.780506	-0.478040	0.000153
O146	O	1.280506	0.021960	0.500153
C147	C	0.737224	-0.512462	0.072068
C148	C	1.237224	-0.012462	0.572068
H149	H	0.695658	-0.430577	0.096037
H150	H	1.195658	0.069423	0.596037
H151	H	0.701439	-0.597548	0.055882
H152	H	1.201439	-0.097548	0.555882
H153	H	0.779574	-0.537098	0.122437
H154	H	1.279574	-0.037098	0.622437
O155	O	0.176515	0.057775	-0.000021
O156	O	0.676515	0.557775	0.499979
C157	C	0.133075	0.039757	-0.071924
C158	C	0.633075	0.539757	0.428076
H159	H	0.155163	0.103759	-0.122197
H160	H	0.655163	0.603759	0.377803
H161	H	0.141002	-0.062499	-0.096053
H162	H	0.641002	0.437501	0.403947
H163	H	0.067935	0.063440	-0.055666
H164	H	0.567935	0.563440	0.444334
H165	H	0.821106	0.426196	0.224545
H166	H	1.321106	0.926196	0.724545
H167	H	1.041723	0.092402	0.617067
H168	H	1.541723	0.592402	1.117067
O169	O	0.805036	0.450772	0.389887
O170	O	1.305036	0.950772	0.889887
C171	C	0.819475	0.574924	0.368527
C172	C	1.319475	1.074924	0.868527
H173	H	0.852706	0.573292	0.305063
H174	H	1.352706	1.073292	0.805063
H175	H	0.760980	0.630610	0.365535
H176	H	1.260980	1.130610	0.865535
H177	H	0.856412	0.621262	0.417711
H178	H	1.356412	1.121262	0.917711
O179	O	1.013496	0.134865	0.389891
O180	O	1.513496	0.634865	0.889891
C181	C	1.001079	0.007656	0.368561
C182	C	1.501079	0.507656	0.868561
H183	H	0.973825	0.000205	0.305107
H184	H	1.473825	0.500205	0.805107
H185	H	1.059861	-0.048446	0.365561
H186	H	1.559861	0.451554	0.865561
H187	H	0.959512	-0.031654	0.417766
H188	H	1.459512	0.468346	0.917766
H189	H	1.034250	0.103743	0.775643
H190	H	1.534250	0.603743	1.275643
H191	H	0.673741	0.453522	0.000058
H192	H	1.173741	0.953522	0.500058
H193	H	0.788849	0.018643	0.000070
H194	H	1.288849	0.518643	0.500070
H195	H	0.298405	0.507504	0.000073
H196	H	0.798405	1.007504	0.500073
H197	H	0.330084	0.095555	0.000118
H198	H	0.830084	0.595555	0.500118
H199	H	0.653415	-0.324252	0.000018
H200	H	1.153415	0.175748	0.500018
O201	O	0.551767	0.003864	0.000064
O202	O	1.051767	0.503864	0.500064
C203	C	0.468883	0.017763	0.000087
C204	C	0.968883	0.517763	0.500087
H205	H	0.451439	0.112012	-0.026206
H206	H	0.951439	0.612012	0.473794
H207	H	0.445259	-0.061630	-0.040222
H208	H	0.945259	0.438370	0.459778
H209	H	0.442927	0.014144	0.066706
H210	H	0.942927	0.514144	0.566706
O211	O	1.209117	-0.395209	0.000183
O212	O	1.709117	0.104791	0.500183
C213	C	1.273556	-0.316078	0.000176
C214	C	1.773556	0.183922	0.500176
H215	H	1.252937	-0.218383	0.026462
H216	H	1.752937	0.281617	0.526462
H217	H	1.320944	-0.356587	0.040498
H218	H	1.820944	0.143413	0.540498
H219	H	1.298896	-0.309278	-0.066437
H220	H	1.798896	0.190722	0.433563
O221	O	0.646228	-0.074844	0.000063
O222	O	1.146228	0.425156	0.500063
C223	C	0.581799	-0.153994	0.000021
C224	C	1.081799	0.346006	0.500021
H225	H	0.599933	-0.247939	0.026312
H226	H	1.099933	0.252061	0.526312
H227	H	0.530583	-0.107752	0.040322
H228	H	1.030583	0.392248	0.540322
H229	H	0.562782	-0.170292	-0.066603
H230	H	1.062782	0.329708	0.433397
H231	H	1.013012	0.135788	0.224552
H232	H	1.513012	0.635788	0.724552
