data_functionalizedCrystal
_audit_creation_method	'MofGen! by Chris Wilmer'
_symmetry_space_group_name_H-M	'P1'
_symmetry_Int_Tables_number	1
_symmetry_cell_setting	triclinic
loop_
_symmetry_equiv_pos_as_xyz
  x,y,z
_cell_length_a	15.995350
_cell_length_b	14.971486
_cell_length_c	13.448316
_cell_angle_alpha	89.998199
_cell_angle_beta	90.002483
_cell_angle_gamma	96.446749
loop_
_atom_site_label
_atom_site_type_symbol
_atom_site_fract_x
_atom_site_fract_y
_atom_site_fract_z
O1	O	-0.109116	1.186823	-0.082568
O2	O	-0.122183	0.926408	-0.082594
O3	O	0.006231	1.063734	-0.082584
O4	O	-0.237530	1.049497	-0.082578
O5	O	0.006239	1.063717	0.082800
O6	O	-0.122175	0.926390	0.082790
O7	O	-0.109109	1.186805	0.082816
Cu8	Cu	-0.115641	1.056596	0.097904
Cu9	Cu	-0.115651	1.056617	-0.097682
O10	O	-0.237523	1.049479	0.082806
C11	C	-0.121595	0.893075	0.000094
C12	C	-0.119844	0.793780	0.000084
C13	C	-0.195284	0.736468	0.000087
C14	C	-0.193633	0.643171	0.000102
C15	C	-0.116542	0.607187	0.000106
C16	C	-0.041097	0.664505	0.000106
C17	C	-0.042748	0.757801	0.000098
C18	C	-0.037660	0.470047	0.000120
C19	C	-0.036008	0.376745	0.000125
C20	C	-0.188545	0.355417	0.000123
C21	C	-0.190197	0.448712	0.000116
C22	C	-0.114751	0.506025	0.000113
C23	C	-0.268722	1.050077	0.000115
C24	C	-0.361674	1.051841	0.000118
C25	C	-0.699428	1.058178	0.000103
C26	C	-0.652092	1.155979	-0.000256
C27	C	-0.555400	1.154214	0.000122
C28	C	-0.531864	1.055035	0.000110
C29	C	-0.572894	1.006786	0.094544
C30	C	-0.669532	1.009243	0.094618
C31	C	-0.669887	1.007242	-0.093455
C32	C	-0.572942	1.007265	-0.094698
C33	C	-0.437165	1.053253	0.000117
C34	C	-0.794127	1.059957	0.000103
C35	C	0.037430	1.063137	0.000104
C36	C	0.130382	1.061372	0.000095
C37	C	-0.109697	1.220138	0.000125
C38	C	-0.111448	1.319433	0.000129
N39	N	-0.115634	1.056589	0.235468
N40	N	-0.115651	1.056632	-0.235246
C41	C	-0.058796	1.117415	0.287513
C42	C	-0.058795	1.117421	0.391616
C43	C	-0.115637	1.056603	0.443672
C44	C	-0.172478	0.995770	0.391620
C45	C	-0.172474	0.995761	0.287519
C46	C	-0.172484	0.995795	0.608600
C47	C	-0.172489	0.995805	0.712709
C48	C	-0.058805	1.117455	0.712697
C49	C	-0.058801	1.117446	0.608596
C50	C	-0.115643	1.056613	0.556551
H51	H	-0.255064	0.596511	0.000104
N52	N	-0.273342	0.487528	0.000092
H53	H	-0.320886	0.437066	0.000093
H54	H	-0.277351	0.525779	0.061395
N55	N	-0.517794	1.204465	-0.089534
H56	H	-0.454769	1.203417	-0.089455
H57	H	-0.542355	1.174832	-0.152101
N58	N	-0.269921	0.293608	0.000122
H59	H	-0.257180	0.229045	0.000132
H60	H	-0.303516	0.305262	0.061427
N61	N	0.002493	1.183035	0.447762
H62	H	-0.029586	1.222622	0.490942
H63	H	0.039605	1.148804	0.490910
N64	N	-0.536831	1.053924	-0.187243
H65	H	-0.494040	1.105789	-0.167849
H66	H	-0.508788	1.009883	-0.229149
N67	N	-0.676686	1.207761	-0.089971
H68	H	-0.739290	1.211757	-0.088679
H69	H	-0.645556	1.270293	-0.088722
H70	H	-0.687869	1.044413	0.165217
H71	H	-0.218769	0.946255	0.566229
H72	H	-0.218775	0.946280	0.755088
H73	H	-0.218758	0.946247	0.434011
N74	N	-0.712162	0.914136	0.100288
H75	H	-0.668152	0.870802	0.102734
H76	H	-0.748039	0.906974	0.162188
H77	H	-0.557503	0.934942	-0.100412
H78	H	-0.012512	1.166944	0.245135
N79	N	-0.678093	1.207529	0.088952
H80	H	-0.720401	1.167804	0.129597
H81	H	-0.627004	1.227029	0.131055
N82	N	-0.233774	0.930151	0.231380
H83	H	-0.269785	0.891624	0.280152
H84	H	-0.270843	0.964381	0.188174
H85	H	-0.544555	1.040291	0.164830
N86	N	0.047144	0.337944	0.000151
H87	H	0.051220	0.299714	0.061465
H88	H	0.051192	0.299754	-0.061192
N89	N	0.043712	0.531865	0.000124
H90	H	0.092800	0.494914	0.000124
H91	H	0.046345	0.571036	-0.061189
N92	N	0.042048	0.625687	0.000110
H93	H	0.075102	0.646585	-0.061199
H94	H	0.075039	0.646595	0.061458
H95	H	-0.258060	0.765759	0.000083
N96	N	-0.554090	0.910268	0.099197
H97	H	-0.518708	0.896859	0.039993
H98	H	-0.522427	0.900340	0.162492
N99	N	0.038619	0.819620	0.000102
H100	H	0.087707	0.782670	0.000106
H101	H	0.041257	0.858795	-0.061208
N102	N	-0.518530	1.204763	0.089956
H103	H	-0.531947	1.269043	0.087055
H104	H	-0.543466	1.175216	0.152384
N105	N	0.002503	1.183071	0.768823
H106	H	-0.006120	1.173848	0.842670
H107	H	0.061921	1.172747	0.750632
N108	N	-0.697134	1.049600	-0.188273
H109	H	-0.728909	1.102242	-0.171538
H110	H	-0.645900	1.071149	-0.229249
N111	N	-0.711860	0.911728	-0.094313
H112	H	-0.774931	0.912054	-0.096895
H113	H	-0.692579	0.879387	-0.154579
N114	N	0.002502	1.183041	0.552441
H115	H	-0.007240	1.246522	0.570544
H116	H	0.061919	1.172670	0.570583
