data_functionalizedCrystal
_audit_creation_method	'MofGen! by Chris Wilmer'
_symmetry_space_group_name_H-M	'P1'
_symmetry_Int_Tables_number	1
_symmetry_cell_setting	triclinic
loop_
_symmetry_equiv_pos_as_xyz
  x,y,z
_cell_length_a	13.033293
_cell_length_b	12.759393
_cell_length_c	13.031981
_cell_angle_alpha	82.782247
_cell_angle_beta	103.320033
_cell_angle_gamma	82.789783
loop_
_atom_site_label
_atom_site_type_symbol
_atom_site_fract_x
_atom_site_fract_y
_atom_site_fract_z
Zn1	Zn	1.570269	-0.767191	-0.216775
Zn2	Zn	2.070269	-0.267191	0.283225
Zn3	Zn	1.547601	-0.565899	-0.394468
Zn4	Zn	2.047601	-0.065899	0.105532
Zn5	Zn	1.392627	-0.565913	-0.239373
Zn6	Zn	1.892627	-0.065913	0.260627
Zn7	Zn	1.370071	-0.715957	-0.416917
Zn8	Zn	1.870071	-0.215957	0.083083
O9	O	1.470142	-0.653740	-0.316883
O10	O	1.970142	-0.153740	0.183117
O11	O	1.715903	-0.761926	-0.221493
O12	O	2.215903	-0.261926	0.278507
O13	O	1.526996	-0.418866	-0.373956
O14	O	2.026996	0.081134	0.126044
O15	O	1.435118	-0.614060	-0.087708
O16	O	1.935118	-0.114060	0.412292
O17	O	1.699248	-0.614037	-0.352044
O18	O	2.199248	-0.114037	0.147956
O19	O	1.565631	-0.761938	-0.071105
O20	O	2.065631	-0.261938	0.428895
O21	O	1.413137	-0.418876	-0.260009
O22	O	1.913137	0.081124	0.239991
O23	O	1.240994	-0.564380	-0.281777
O24	O	1.740994	-0.064380	0.218223
O25	O	1.396675	-0.869788	-0.390305
O26	O	1.896675	-0.369788	0.109695
O27	O	1.224423	-0.674617	-0.412218
O28	O	1.724423	-0.174617	0.087782
O29	O	1.543760	-0.907430	-0.243261
O30	O	2.043760	-0.407430	0.256739
O31	O	1.505125	-0.564358	-0.546113
O32	O	2.005125	-0.064358	-0.046113
O33	O	1.374694	-0.674604	-0.562606
O34	O	1.874694	-0.174604	-0.062606
C35	C	1.194168	-0.613941	-0.351887
C36	C	1.694168	-0.113941	0.148113
C37	C	1.076101	-0.596936	-0.366887
C38	C	1.576101	-0.096936	0.133113
C39	C	1.031691	-0.662611	-0.309081
C40	C	1.531691	-0.162611	0.190919
C41	C	0.909664	-0.645037	-0.324583
C42	C	1.409664	-0.145037	0.175417
C43	C	1.470230	-0.927800	-0.316766
C44	C	1.970230	-0.427800	0.183234
C45	C	1.470268	-1.044588	-0.316717
C46	C	1.970268	-0.544588	0.183283
C47	C	1.546865	-1.119054	-0.240143
C48	C	2.046865	-0.619054	0.259857
C49	C	1.546895	-1.228787	-0.240102
C50	C	2.046895	-0.728787	0.259898
C51	C	1.393727	-1.189577	-0.393216
C52	C	1.893727	-0.689577	0.106784
C53	C	1.393693	-1.079846	-0.393252
C54	C	1.893693	-0.579846	0.106748
C55	C	1.623440	-1.083795	-0.163608
C56	C	2.123440	-0.583795	0.336392
C57	C	1.700044	-1.158263	-0.087029
C58	C	2.200044	-0.658263	0.412971
C59	C	1.700074	-1.267997	-0.086988
C60	C	2.200074	-0.767997	0.413012
C61	C	1.623500	-1.303262	-0.163525
C62	C	2.123500	-0.803262	0.336475
C63	C	1.747194	-0.693695	-0.281743
C64	C	2.247194	-0.193695	0.218257
C65	C	1.865257	-0.710721	-0.266769
C66	C	2.365257	-0.210721	0.233231
C67	C	1.435031	-0.613947	-0.592904
C68	C	1.935031	-0.113947	-0.092904
C69	C	1.420107	-0.596972	-0.710974
C70	C	1.920107	-0.096972	-0.210974
C71	C	1.470125	-0.380766	-0.316915
C72	C	1.970125	0.119234	0.183085
C73	C	1.470332	-0.264052	-0.316639
C74	C	1.970332	0.235948	0.183361
C75	C	1.477987	-0.662628	-0.755321
C76	C	1.977987	-0.162628	-0.255321
C77	C	1.462564	-0.645086	-0.877353
C78	C	1.962564	-0.145086	-0.377353
C79	C	1.505419	-0.693716	-0.039781
C80	C	2.005419	-0.193716	0.460219
C81	C	1.520452	-0.710751	0.078304
C82	C	2.020452	-0.210751	0.578304
H83	H	1.084011	-0.731845	-0.248111
H84	H	1.584011	-0.231845	0.251889
Br85	Br	1.623527	-1.452188	-0.163450
Br86	Br	2.123527	-0.952188	0.336550
H87	H	0.857348	-0.575793	-0.385551
H88	H	1.357348	-0.075793	0.114449
Br89	Br	1.289814	-1.237438	-0.497083
Br90	Br	1.789814	-0.737438	0.002917
H91	H	1.401584	-0.575888	-0.929727
H92	H	1.901584	-0.075888	-0.429727
H93	H	0.917572	-0.779960	-0.205793
H94	H	1.417572	-0.279960	0.294207
Br95	Br	0.988911	-0.481523	-0.468497
Br96	Br	1.488911	0.018477	0.031503
Br97	Br	1.579599	-0.777980	-0.668035
Br98	Br	2.079599	-0.277980	-0.168035
H99	H	1.331306	-1.019213	-0.455591
H100	H	1.831306	-0.519213	0.044409
H101	H	1.762442	-1.328626	-0.024627
H102	H	2.262442	-0.828626	0.475373
H103	H	1.359131	-0.527779	-0.763352
H104	H	1.859131	-0.027779	-0.263352
H105	H	1.623426	-0.994447	-0.163635
H106	H	2.123426	-0.494447	0.336365
H107	H	1.762381	-1.129542	-0.024710
H108	H	2.262381	-0.629542	0.475290
Br109	Br	1.622082	-0.826099	-0.834415
Br110	Br	2.122082	-0.326099	-0.334415
