data_functionalizedCrystal
_audit_creation_method	'MofGen! by Chris Wilmer'
_symmetry_space_group_name_H-M	'P1'
_symmetry_Int_Tables_number	1
_symmetry_cell_setting	triclinic
loop_
_symmetry_equiv_pos_as_xyz
  x,y,z
_cell_length_a	17.699104
_cell_length_b	17.699083
_cell_length_c	16.776229
_cell_angle_alpha	90.007545
_cell_angle_beta	90.008863
_cell_angle_gamma	83.287266
loop_
_atom_site_label
_atom_site_type_symbol
_atom_site_fract_x
_atom_site_fract_y
_atom_site_fract_z
O1	O	-1.004069	-0.095788	-0.066321
O2	O	-0.504069	0.404212	0.433679
O3	O	-0.783692	-0.108224	-0.066316
O4	O	-0.283692	0.391776	0.433684
O5	O	-0.900107	0.008183	-0.066312
O6	O	-0.400107	0.508183	0.433688
O7	O	-0.887654	-0.212195	-0.066326
O8	O	-0.387654	0.287805	0.433674
O9	O	-0.900091	0.008190	0.066265
O10	O	-0.400091	0.508190	0.566265
O11	O	-0.783677	-0.108217	0.066260
O12	O	-0.283677	0.391783	0.566260
O13	O	-1.004053	-0.095781	0.066255
O14	O	-0.504053	0.404219	0.566255
Zn15	Zn	-0.893863	-0.101998	0.087307
Zn16	Zn	-0.393863	0.398002	0.587307
Zn17	Zn	-0.893883	-0.102007	-0.087368
Zn18	Zn	-0.393883	0.397993	0.412632
O19	O	-0.887639	-0.212188	0.066251
O20	O	-0.387639	0.287812	0.566251
C21	C	-0.755488	-0.107772	-0.000027
C22	C	-0.255488	0.392228	0.499973
C23	C	-0.671471	-0.106427	-0.000025
C24	C	-0.171471	0.393573	0.499975
C25	C	-0.146600	-0.167171	-0.000029
C26	C	0.353400	0.332829	0.499971
C27	C	-0.225543	-0.168430	-0.000033
C28	C	0.274457	0.331570	0.499967
C29	C	-0.274161	-0.100095	-0.000029
C30	C	0.225839	0.399905	0.499971
C31	C	-0.243831	-0.030496	-0.000030
C32	C	0.256169	0.469504	0.499970
C33	C	-0.164889	-0.029238	-0.000032
C34	C	0.335111	0.470762	0.499968
C35	C	-0.562197	-0.035569	-0.000022
C36	C	-0.062197	0.464431	0.499978
C37	C	-0.641144	-0.036833	-0.000018
C38	C	-0.141144	0.463167	0.499982
C39	C	-0.622852	-0.174762	-0.000023
C40	C	-0.122852	0.325238	0.499977
C41	C	-0.543909	-0.173503	-0.000025
C42	C	-0.043909	0.326497	0.499975
C43	C	-0.513587	-0.103905	-0.000030
C44	C	-0.013587	0.396095	0.499970
C45	C	-0.427987	-0.102541	-0.000028
C46	C	0.072013	0.397459	0.499972
C47	C	-0.359759	-0.101459	-0.000026
C48	C	0.140241	0.398541	0.499974
C49	C	-0.899653	0.036383	-0.000024
C50	C	-0.399653	0.536383	0.499976
C51	C	-0.898314	0.120402	-0.000023
C52	C	-0.398314	0.620402	0.499977
N53	N	-0.893854	-0.101991	0.206518
N54	N	-0.393854	0.398009	0.706518
C55	C	-0.032258	-0.096233	-0.000032
C56	C	0.467742	0.403767	0.499968
C57	C	-0.116275	-0.097578	-0.000028
C58	C	0.383725	0.402422	0.499972
C59	C	-0.888093	-0.240388	-0.000039
C60	C	-0.388093	0.259612	0.499961
C61	C	-0.889431	-0.324406	-0.000045
C62	C	-0.389431	0.175594	0.499955
C63	C	-0.966647	0.169017	-0.000024
C64	C	-0.466647	0.669017	0.499976
C65	C	-0.965385	0.247961	-0.000031
C66	C	-0.465385	0.747961	0.499969
C67	C	-0.895789	0.278287	-0.000031
C68	C	-0.395789	0.778287	0.499969
C69	C	-0.827451	0.229665	-0.000033
C70	C	-0.327451	0.729665	0.499967
C71	C	-0.828714	0.150723	-0.000032
C72	C	-0.328714	0.650723	0.499968
C73	C	-0.822356	0.548028	-0.000040
C74	C	-0.322356	1.048028	0.499960
C75	C	-0.821098	0.626976	-0.000039
C76	C	-0.321098	1.126976	0.499961
C77	C	-0.959026	0.645266	-0.000038
C78	C	-0.459026	1.145266	0.499962
C79	C	-0.960289	0.566324	-0.000037
C80	C	-0.460289	1.066324	0.499963
C81	C	-0.891952	0.517709	-0.000043
C82	C	-0.391952	1.017709	0.499957
C83	C	-0.893321	0.432110	-0.000037
C84	C	-0.393321	0.932110	0.499963
C85	C	-0.894419	0.363885	-0.000032
C86	C	-0.394419	0.863885	0.499968
N87	N	-0.893897	-0.102008	-0.206579
N88	N	-0.393897	0.397992	0.293421
C89	C	-0.945418	-0.050467	0.248237
C90	C	-0.445418	0.449533	0.748237
C91	C	-0.945422	-0.050466	0.331690
C92	C	-0.445422	0.449534	0.831690
C93	C	-0.893866	-0.101994	0.373421
C94	C	-0.393866	0.398006	0.873421
C95	C	-0.842296	-0.153520	0.331696
C96	C	-0.342296	0.346480	0.831696
C97	C	-0.842289	-0.153516	0.248246
C98	C	-0.342289	0.346484	0.748246
C99	C	-0.842324	-0.153535	0.668244
C100	C	-0.342324	0.346465	1.168244
C101	C	-0.842336	-0.153536	0.751700
C102	C	-0.342336	0.346464	1.251700
C103	C	-0.945457	-0.050485	0.751687
C104	C	-0.445457	0.449515	1.251687
C105	C	-0.945450	-0.050481	0.668237
C106	C	-0.445450	0.449519	1.168237
C107	C	-0.893878	-0.102004	0.626519
C108	C	-0.393878	0.397996	1.126519
C109	C	-0.893873	-0.102004	0.536031
C110	C	-0.393873	0.397996	1.036031
C111	C	-0.893874	-0.101999	0.463908
C112	C	-0.393874	0.398001	0.963908
H113	H	-0.107020	-0.222818	-0.000026
H114	H	0.392980	0.277182	0.499974
H115	H	-0.537518	0.021102	-0.000024
H116	H	-0.037518	0.521102	0.499976
H117	H	-0.987434	-0.008525	0.634261
H118	H	-0.487434	0.491475	1.134261
H119	H	-1.014670	0.684858	-0.000037
H120	H	-0.514670	1.184858	0.499963
Cl121	Cl	-0.702264	0.049081	-0.000014
Cl122	Cl	-0.202264	0.549081	0.499986
H123	H	-0.800314	-0.195472	0.365679
H124	H	-0.300314	0.304528	0.865679
Cl125	Cl	-0.777460	-0.218290	0.195800
Cl126	Cl	-0.277460	0.281710	0.695800
Cl127	Cl	-1.054144	0.130902	-0.000014
Cl128	Cl	-0.554144	0.630902	0.499986
Cl129	Cl	-0.263662	-0.255923	-0.000039
Cl130	Cl	0.236338	0.244077	0.499961
H131	H	-0.800334	-0.195488	0.634284
H132	H	-0.300334	0.304512	1.134284
H133	H	-0.764421	0.651664	-0.000038
H134	H	-0.264421	1.151664	0.499962
Cl135	Cl	-0.482794	-0.259414	-0.000028
Cl136	Cl	0.017206	0.240586	0.499972
Cl137	Cl	-0.777516	-0.218317	0.804162
Cl138	Cl	-0.277516	0.281683	1.304162
H139	H	-0.647550	-0.231432	-0.000023
H140	H	-0.147550	0.268568	0.499977
Cl141	Cl	-0.304951	0.055412	-0.000027
Cl142	Cl	0.195049	0.555412	0.499973
Cl143	Cl	-0.736445	0.486922	-0.000049
Cl144	Cl	-0.236445	0.986922	0.499951
Cl145	Cl	-0.126766	0.058255	-0.000030
Cl146	Cl	0.373234	0.558255	0.499970
H147	H	-0.770785	0.254362	-0.000039
H148	H	-0.270785	0.754362	0.499961
H149	H	-0.987447	-0.008529	0.785663
H150	H	-0.487447	0.491471	1.285663
H151	H	-0.773070	0.111140	-0.000032
H152	H	-0.273070	0.611140	0.499968
Cl153	Cl	-1.010246	0.014308	0.384138
Cl154	Cl	-0.510246	0.514308	0.884138
Cl155	Cl	-1.047784	0.528205	-0.000039
Cl156	Cl	-0.547784	1.028205	0.499961
Cl157	Cl	-1.010240	0.014311	0.195783
Cl158	Cl	-0.510240	0.514311	0.695783
Cl159	Cl	-1.051293	0.309075	-0.000029
Cl160	Cl	-0.551293	0.809075	0.499971
