data_functionalizedCrystal
_audit_creation_method	'MofGen! by Chris Wilmer'
_symmetry_space_group_name_H-M	'P1'
_symmetry_Int_Tables_number	1
_symmetry_cell_setting	triclinic
loop_
_symmetry_equiv_pos_as_xyz
  x,y,z
_cell_length_a	16.992694
_cell_length_b	14.519709
_cell_length_c	16.053802
_cell_angle_alpha	92.569364
_cell_angle_beta	87.249047
_cell_angle_gamma	87.174184
loop_
_atom_site_label
_atom_site_type_symbol
_atom_site_fract_x
_atom_site_fract_y
_atom_site_fract_z
O1	O	1.043963	0.191936	-0.069327
O2	O	1.543963	0.691936	0.430673
O3	O	0.815676	0.189789	-0.069352
O4	O	1.315676	0.689789	0.430648
O5	O	0.935872	0.057059	-0.069332
O6	O	1.435872	0.557059	0.430668
O7	O	0.923768	0.324666	-0.069348
O8	O	1.423768	0.824666	0.430652
O9	O	0.929256	0.064333	0.069526
O10	O	1.429256	0.564333	0.569526
O11	O	0.809060	0.197063	0.069506
O12	O	1.309060	0.697063	0.569506
O13	O	1.037348	0.199210	0.069530
O14	O	1.537348	0.699210	0.569530
Zn15	Zn	0.922154	0.199291	0.091565
Zn16	Zn	1.422154	0.699291	0.591565
Zn17	Zn	0.930870	0.189708	-0.091386
Zn18	Zn	1.430870	0.689708	0.408614
O19	O	0.917152	0.331940	0.069510
O20	O	1.417152	0.831940	0.569510
C21	C	0.783152	0.190666	0.000074
C22	C	1.283152	0.690666	0.500074
C23	C	0.696097	0.182430	0.000065
C24	C	1.196097	0.682430	0.500065
C25	C	0.645968	0.261890	0.000061
C26	C	1.145968	0.761890	0.500061
C27	C	0.564170	0.254147	0.000073
C28	C	1.064170	0.754147	0.500073
C29	C	0.532503	0.166943	0.000083
C30	C	1.032503	0.666943	0.500083
C31	C	0.582638	0.087478	0.000089
C32	C	1.082638	0.587478	0.500089
C33	C	0.664434	0.095222	0.000083
C34	C	1.164434	0.595222	0.500083
C35	C	0.288859	0.134847	0.000107
C36	C	0.788859	0.634847	0.500107
C37	C	0.207056	0.127109	0.000111
C38	C	0.707056	0.627109	0.500111
C39	C	0.188594	0.293779	0.000095
C40	C	0.688594	0.793779	0.500095
C41	C	0.270393	0.301515	0.000084
C42	C	0.770393	0.801515	0.500084
C43	C	0.320520	0.222050	0.000095
C44	C	0.820520	0.722050	0.500095
N45	N	0.448892	0.159027	0.000092
N46	N	0.948892	0.659027	0.500092
N47	N	0.404129	0.229968	0.000092
N48	N	0.904129	0.729968	0.500092
C49	C	0.932000	0.026296	0.000097
C50	C	1.432000	0.526296	0.500097
C51	C	0.930309	-0.076207	0.000098
C52	C	1.430309	0.423793	0.500098
C53	C	0.924087	-0.451551	0.000075
C54	C	1.424087	0.048449	0.500075
C55	C	0.925815	-0.347118	0.000082
C56	C	1.425815	0.152882	0.500082
C57	C	0.927198	-0.263882	0.000087
C58	C	1.427198	0.236118	0.500087
C59	C	0.928926	-0.159443	0.000092
C60	C	1.428926	0.340557	0.500092
C61	C	1.069872	0.198333	0.000103
C62	C	1.569872	0.698333	0.500103
C63	C	1.156927	0.206569	0.000106
C64	C	1.656927	0.706569	0.500106
C65	C	0.921024	0.362703	0.000079
C66	C	1.421024	0.862703	0.500079
C67	C	0.922715	0.465206	0.000073
C68	C	1.422715	0.965206	0.500073
N69	N	0.916210	0.205832	0.216424
N70	N	1.416210	0.705832	0.716424
N71	N	0.936820	0.183161	-0.216246
N72	N	1.436820	0.683161	0.283754
C73	C	0.967373	0.149377	0.260127
C74	C	1.467373	0.649377	0.760127
C75	C	0.963222	0.153962	0.347533
C76	C	1.463222	0.653962	0.847533
C77	C	0.907913	0.215006	0.391235
C78	C	1.407913	0.715006	0.891235
C79	C	0.856746	0.271462	0.347526
C80	C	1.356746	0.771462	0.847526
C81	C	0.860893	0.266872	0.260121
C82	C	1.360893	0.766872	0.760121
C83	C	0.889799	0.235027	0.652641
C84	C	1.389799	0.735027	1.152641
C85	C	0.885658	0.239615	0.740052
C86	C	1.385658	0.739615	1.240052
C87	C	0.992134	0.122113	0.740053
C88	C	1.492134	0.622113	1.240053
C89	C	0.996279	0.117533	0.652646
C90	C	1.496279	0.617533	1.152646
C91	C	0.945109	0.173985	0.608945
C92	C	1.445109	0.673985	1.108945
N93	N	0.903672	0.219695	0.480578
N94	N	1.403672	0.719695	0.980578
N95	N	0.949347	0.169291	0.519604
N96	N	1.449347	0.669291	1.019604
H97	H	0.671745	0.332900	0.000052
H98	H	1.171745	0.832900	0.500052
O99	O	0.840030	0.289739	0.610155
O100	O	1.340030	0.789739	1.110155
C101	C	0.793994	0.234103	0.559592
C102	C	1.293994	0.734103	1.059592
H103	H	0.791310	0.162649	0.585943
H104	H	1.291310	0.662649	1.085943
H105	H	0.731770	0.267057	0.558600
H106	H	1.231770	0.767057	1.058600
H107	H	0.821674	0.227613	0.493349
H108	H	1.321674	0.727613	0.993349
H109	H	1.033794	0.076151	0.775642
H110	H	1.533794	0.576151	1.275642
O111	O	1.020981	0.089991	0.217605
O112	O	1.520981	0.589991	0.717605
C113	C	0.981277	0.027300	0.167105
C114	C	1.481277	0.527300	0.667105
H115	H	0.920606	0.058817	0.153993
H116	H	1.420606	0.558817	0.653993
H117	H	1.016902	0.011856	0.105648
H118	H	1.516902	0.511856	0.605648
H119	H	0.974217	-0.039466	0.200836
H120	H	1.474217	0.460534	0.700836
O121	O	0.831849	0.298928	0.782376
O122	O	1.331849	0.798928	1.282376
C123	C	0.787583	0.347783	0.725063
C124	C	1.287583	0.847783	1.225063
H125	H	0.789606	0.306636	0.662762
H126	H	1.289606	0.806636	1.162762
H127	H	0.723781	0.358504	0.750326
H128	H	1.223781	0.858504	1.250326
H129	H	0.813564	0.417714	0.715756
H130	H	1.313564	0.917714	1.215756
O131	O	0.802910	0.330655	0.389940
O132	O	1.302910	0.830655	0.889940
C133	C	0.726281	0.308776	0.368581
C134	C	1.226281	0.808776	0.868581
H135	H	0.726940	0.233642	0.344565
H136	H	1.226940	0.733642	0.844565
H137	H	0.684216	0.319471	0.426067
H138	H	1.184216	0.819471	0.926067
H139	H	0.705722	0.355521	0.317843
H140	H	1.205722	0.855521	0.817843
H141	H	0.147771	0.358475	0.000088
H142	H	0.647771	0.858475	0.500088
H143	H	0.819230	0.312842	0.224539
H144	H	1.319230	0.812842	0.724539
O145	O	0.551911	0.002754	0.000246
O146	O	1.051911	0.502754	0.500246
C147	C	0.574114	-0.042293	0.072152
C148	C	1.074114	0.457707	0.572152
H149	H	0.588806	0.011228	0.122415
H150	H	1.088806	0.511228	0.622415
H151	H	0.523364	-0.083924	0.096294
H152	H	1.023364	0.416076	0.596294
H153	H	0.628125	-0.090608	0.055895
H154	H	1.128125	0.409392	0.555895
H155	H	0.523358	0.318852	0.000068
H156	H	1.023358	0.818852	0.500068
O157	O	1.012903	0.098996	0.389889
O158	O	1.512903	0.598996	0.889889
C159	C	1.001045	0.005620	0.368561
C160	C	1.501045	0.505620	0.868561
H161	H	0.973824	0.000150	0.305107
H162	H	1.473824	0.500150	0.805107
H163	H	1.060074	-0.035561	0.365561
H164	H	1.560074	0.464439	0.865561
H165	H	0.959652	-0.023235	0.417767
H166	H	1.459652	0.476765	0.917767
O167	O	0.301020	0.386299	0.000116
O168	O	0.801020	0.886299	0.500116
C169	C	0.239234	0.454773	0.000095
C170	C	0.739234	0.954773	0.500095
H171	H	0.182384	0.426202	0.026389
H172	H	0.682384	0.926202	0.526389
H173	H	0.254497	0.517405	0.040403
H174	H	0.754497	1.017405	0.540403
H175	H	0.230860	0.476082	-0.066524
H176	H	0.730860	0.976082	0.433476
O177	O	0.176165	0.042463	0.000091
O178	O	0.676165	0.542463	0.500091
C179	C	0.093220	0.052674	0.000113
C180	C	0.593220	0.552674	0.500113
H181	H	0.075367	0.121855	-0.026189
H182	H	0.575367	0.621855	0.473811
H183	H	0.069941	-0.005604	-0.040190
H184	H	0.569941	0.494396	0.459810
H185	H	0.067278	0.050029	0.066732
H186	H	0.567278	0.550029	0.566732
O187	O	0.337518	0.057620	-0.000036
O188	O	0.837518	0.557620	0.499964
C189	C	0.326545	0.001255	-0.071937
C190	C	0.826545	0.501255	0.428063
H191	H	0.301051	0.045256	-0.122205
H192	H	0.801051	0.545256	0.377795
H193	H	0.385669	-0.032727	-0.096075
H194	H	0.885669	0.467273	0.403925
H195	H	0.284043	-0.054341	-0.055672
H196	H	0.784043	0.445659	0.444328
O197	O	0.713107	0.018000	-0.000065
O198	O	1.213107	0.518000	0.499935
C199	C	0.702140	-0.038368	-0.071965
C200	C	1.202140	0.461632	0.428035
H201	H	0.676639	0.005627	-0.122232
H202	H	1.176639	0.505627	0.377768
H203	H	0.761269	-0.072339	-0.096105
H204	H	1.261269	0.427661	0.403895
H205	H	0.659648	-0.093973	-0.055699
H206	H	1.159648	0.406027	0.444301
H207	H	1.041316	0.067826	0.617066
H208	H	1.541316	0.567826	1.117066
