data_functionalizedCrystal
_audit_creation_method	'MofGen! by Chris Wilmer'
_symmetry_space_group_name_H-M	'P1'
_symmetry_Int_Tables_number	1
_symmetry_cell_setting	triclinic
loop_
_symmetry_equiv_pos_as_xyz
  x,y,z
_cell_length_a	16.959454
_cell_length_b	12.827893
_cell_length_c	12.827893
_cell_angle_alpha	89.994487
_cell_angle_beta	90.007122
_cell_angle_gamma	89.981905
loop_
_atom_site_label
_atom_site_type_symbol
_atom_site_fract_x
_atom_site_fract_y
_atom_site_fract_z
Zn1	Zn	-0.314861	-1.597476	0.590897
Zn2	Zn	-0.447008	-1.597403	0.416158
Zn3	Zn	-0.314843	-1.422764	0.416166
Zn4	Zn	-0.446997	-1.422688	0.590853
O5	O	-0.380927	-1.510083	0.503519
O6	O	-0.332403	-1.743702	0.567733
O7	O	-0.429473	-1.574238	0.269923
O8	O	-0.204234	-1.446003	0.439366
O9	O	-0.429491	-1.743649	0.439353
O10	O	-0.204247	-1.574362	0.567741
O11	O	-0.332372	-1.445932	0.269929
O12	O	-0.332361	-1.276518	0.439323
O13	O	-0.429471	-1.445873	0.737095
O14	O	-0.429454	-1.276462	0.567665
O15	O	-0.332392	-1.574288	0.737127
O16	O	-0.557617	-1.574164	0.439310
O17	O	-0.557609	-1.445802	0.567657
C18	C	-0.380905	-1.238573	0.503490
C19	C	-0.380914	-1.122420	0.503503
C20	C	-0.428881	-1.070609	0.439891
C21	C	-0.428892	-0.950559	0.439902
C22	C	-0.586293	-1.509995	0.503501
C23	C	-0.674150	-1.510053	0.503528
C24	C	-1.045651	-1.443342	0.570342
C25	C	-1.045600	-1.577115	0.436802
C26	C	-0.963054	-1.577079	0.436792
C27	C	-0.921803	-1.510172	0.503557
C28	C	-0.963097	-1.443301	0.570332
C29	C	-0.921753	-1.643940	0.370011
C30	C	-0.839202	-1.643906	0.369998
C31	C	-0.797949	-1.577003	0.436769
C32	C	-0.839249	-1.510131	0.503547
C33	C	-0.797998	-1.443224	0.570313
C34	C	-0.839296	-1.376356	0.637097
C35	C	-0.921845	-1.376398	0.637103
C36	C	-0.715401	-1.576961	0.436763
C37	C	-0.715445	-1.443183	0.570303
C38	C	-0.174759	-1.510199	0.503559
C39	C	-0.086902	-1.510249	0.503577
C40	C	-0.380932	-1.510080	0.776089
C41	C	-0.380934	-1.510079	0.892242
C42	C	-0.380943	-0.782653	0.503539
C43	C	-0.380934	-0.898806	0.503526
C44	C	-0.332902	-1.573616	0.944043
C45	C	-0.332903	-1.573617	1.064093
C46	C	-0.380940	-1.510078	1.232009
C47	C	-0.380937	-1.510079	1.115856
H48	H	-0.805700	-1.321875	0.691453
C49	C	-1.138400	-1.717692	0.422369
C50	C	-1.090958	-1.650613	0.363391
H51	H	-1.166406	-1.763060	0.377037
H52	H	-1.174791	-1.677870	0.462147
H53	H	-1.106175	-1.757652	0.467908
H54	H	-1.123184	-1.610647	0.317856
H55	H	-1.054563	-1.690439	0.323594
C56	C	-0.199085	-1.624564	0.910252
C57	C	-0.277385	-1.647052	0.883939
H58	H	-0.164812	-1.669898	0.873141
H59	H	-0.191807	-1.634206	0.983034
H60	H	-0.187533	-1.554337	0.892409
H61	H	-0.288939	-1.717276	0.901789
H62	H	-0.284667	-1.637418	0.811140
C63	C	-0.746389	-1.658507	0.229427
C64	C	-0.793813	-1.717411	0.296595
H65	H	-0.718371	-1.703890	0.184109
H66	H	-0.710008	-1.618669	0.269188
H67	H	-0.778628	-1.613026	0.189418
H68	H	-0.761573	-1.762886	0.336609
H69	H	-0.830198	-1.757267	0.256830
H70	H	-0.681780	-1.631399	0.382383
H71	H	-0.291784	-1.628016	1.108640
H72	H	-0.422064	-1.455683	1.071315
H73	H	-0.339859	-1.077900	0.557976
H74	H	-0.955477	-1.321957	0.691474
H75	H	-0.422052	-1.455676	0.936770
C76	C	-0.913417	-1.776155	0.238000
C77	C	-0.967095	-1.717478	0.296623
H78	H	-0.941414	-1.821552	0.192688
H79	H	-0.881191	-1.816076	0.283557
H80	H	-0.881250	-1.730629	0.197982
H81	H	-0.999258	-1.763005	0.336647
H82	H	-0.999334	-1.677555	0.251059
H83	H	-1.079280	-1.388902	0.624719
C84	C	-0.535087	-1.193460	0.425237
C85	C	-0.484311	-1.130702	0.366356
H86	H	-0.569304	-1.230561	0.379837
H87	H	-0.565408	-1.150878	0.470652
H88	H	-0.504982	-1.241514	0.465144
H89	H	-0.514415	-1.082642	0.326455
H90	H	-0.453986	-1.173287	0.320923
C91	C	-0.535128	-0.827664	0.425272
C92	C	-0.484337	-0.890421	0.366379
H93	H	-0.569361	-0.790542	0.379878
H94	H	-0.505040	-0.779637	0.465176
H95	H	-0.565438	-0.870256	0.470690
H96	H	-0.454023	-0.847828	0.320966
H97	H	-0.514428	-0.938453	0.326457
H98	H	-0.339862	-0.943355	0.557985
H99	H	-0.681863	-1.388703	0.624676
