data_functionalizedCrystal
_audit_creation_method	'MofGen! by Chris Wilmer'
_symmetry_space_group_name_H-M	'P1'
_symmetry_Int_Tables_number	1
_symmetry_cell_setting	triclinic
loop_
_symmetry_equiv_pos_as_xyz
  x,y,z
_cell_length_a	10.654550
_cell_length_b	9.730223
_cell_length_c	10.654558
_cell_angle_alpha	89.999578
_cell_angle_beta	95.513436
_cell_angle_gamma	90.003749
loop_
_atom_site_label
_atom_site_type_symbol
_atom_site_fract_x
_atom_site_fract_y
_atom_site_fract_z
O1	O	-1.667839	-0.114400	0.176393
O2	O	-1.302361	-0.114378	0.193199
O3	O	-1.493498	-0.114383	0.002057
O4	O	-1.476702	-0.114394	0.367534
O5	O	-1.493496	0.114196	0.002062
O6	O	-1.302359	0.114202	0.193203
O7	O	-1.667837	0.114180	0.176397
Zn8	Zn	-1.485098	0.150483	0.184801
Zn9	Zn	-1.485100	-0.150681	0.184795
O10	O	-1.476700	0.114186	0.367539
C11	C	-1.255562	-0.000085	0.191967
C12	C	-1.116119	-0.000076	0.188275
C13	C	-1.492261	-0.000095	-0.044738
C14	C	-1.488565	-0.000099	-0.184181
N15	N	-1.485105	0.356020	0.184805
C16	C	-1.714636	-0.000116	0.177629
C17	C	-1.854079	-0.000133	0.181321
C18	C	-1.036636	-0.000100	0.300816
C19	C	-0.905615	-0.000123	0.297340
C20	C	-0.933572	-0.000106	0.068771
C21	C	-1.064590	-0.000072	0.072249
C22	C	-1.088164	-0.000103	0.416843
C23	C	-1.008681	-0.000128	0.529393
C24	C	-0.877660	-0.000152	0.525916
C25	C	-0.826123	-0.000151	0.409889
N26	N	-1.485103	-0.356217	0.184781
C27	C	-1.569762	0.427943	0.100196
C28	C	-1.569759	0.571826	0.100181
C29	C	-1.400437	0.571849	0.269394
C30	C	-1.400435	0.427969	0.269402
C31	C	-1.654432	0.355994	0.015599
C32	C	-1.739097	0.427917	-0.069016
C33	C	-1.739094	0.571800	-0.069031
C34	C	-1.654425	0.643759	0.015568
C35	C	-1.486825	0.124498	-0.249692
C36	C	-1.483363	0.124493	-0.380715
C37	C	-1.483377	-0.124718	-0.380703
C38	C	-1.486848	-0.124711	-0.249684
C39	C	-1.488543	0.249110	-0.184189
C40	C	-1.486801	0.373717	-0.249700
C41	C	-1.483339	0.373712	-0.380722
C42	C	-1.481619	0.249099	-0.446234
C43	C	-1.477937	-0.000106	0.414334
C44	C	-1.481633	-0.000111	0.553777
H45	H	-1.194847	-0.000090	0.419686
O46	O	-0.800502	-0.000414	0.635275
C47	C	-0.824068	-0.118782	0.705651
H48	H	-0.868282	-0.201510	0.639730
H49	H	-0.731577	-0.158543	0.755203
H50	H	-0.891400	-0.092009	0.778927
H51	H	-1.654445	0.238837	0.015606
H52	H	-1.654421	0.760919	0.015540
H53	H	-1.808024	0.369320	-0.137901
H54	H	-1.331504	0.630448	0.338272
O55	O	-0.883451	-0.000361	-0.043898
C56	C	-0.808511	-0.118750	-0.052733
H57	H	-0.840090	-0.201482	0.013166
H58	H	-0.819396	-0.158486	-0.153849
H59	H	-0.705452	-0.092014	-0.024661
H60	H	-1.050651	-0.000118	0.623858
H61	H	-1.808023	0.630359	-0.137935
H62	H	-0.719435	-0.000149	0.407068
O63	O	-1.318159	0.358306	0.351715
C64	C	-1.243415	0.452660	0.426368
H65	H	-1.294913	0.555222	0.428265
H66	H	-1.225126	0.411090	0.526490
H67	H	-1.149768	0.467965	0.384718
H68	H	-1.129308	-0.000057	-0.019392
O69	O	-1.491740	0.249293	-0.056895
C70	C	-1.384294	0.317606	0.000145
H71	H	-1.346092	0.390358	-0.070938
H72	H	-1.411022	0.378866	0.084814
H73	H	-1.308887	0.238835	0.032683
H74	H	-1.481974	-0.226171	-0.434053
H75	H	-1.488212	0.475172	-0.196353
H76	H	-1.481933	0.475173	-0.434059
O77	O	-1.478100	0.248914	-0.573491
C78	C	-1.368352	0.180598	-0.603997
H79	H	-1.334143	0.107850	-0.524066
H80	H	-1.390463	0.119333	-0.694629
H81	H	-1.291708	0.259367	-0.617966
O82	O	-1.488473	-0.245865	-0.186225
C83	C	-1.486233	-0.355852	-0.272134
H84	H	-1.444065	-0.319334	-0.360680
H85	H	-1.426375	-0.442993	-0.226827
H86	H	-1.586444	-0.394167	-0.298362
