data_functionalizedCrystal
_audit_creation_method	'MofGen! by Chris Wilmer'
_symmetry_space_group_name_H-M	'P1'
_symmetry_Int_Tables_number	1
_symmetry_cell_setting	triclinic
loop_
_symmetry_equiv_pos_as_xyz
  x,y,z
_cell_length_a	15.944551
_cell_length_b	10.654556
_cell_length_c	9.730223
_cell_angle_alpha	89.998368
_cell_angle_beta	89.994648
_cell_angle_gamma	83.993137
loop_
_atom_site_label
_atom_site_type_symbol
_atom_site_fract_x
_atom_site_fract_y
_atom_site_fract_z
O1	O	0.118002	1.666308	-0.114241
O2	O	0.129236	1.300685	-0.114256
O3	O	0.001402	1.493481	-0.114236
O4	O	0.245836	1.473512	-0.114261
O5	O	0.001399	1.493468	0.114344
O6	O	0.129233	1.300672	0.114324
O7	O	0.117998	1.666295	0.114339
Zn8	Zn	0.123615	1.483482	0.150623
Zn9	Zn	0.123620	1.483498	-0.150540
O10	O	0.245832	1.473499	0.114319
C11	C	0.128408	1.253891	0.000033
C12	C	0.125937	1.114481	0.000027
C13	C	0.122460	0.917987	-0.124561
C14	C	0.124776	1.048979	-0.124569
C15	C	0.124772	1.048984	0.124641
C16	C	0.122450	0.917996	0.124648
C17	C	-0.029898	1.492645	0.000054
C18	C	-0.123159	1.490160	0.000055
C19	C	-0.338744	1.364716	0.000031
C20	C	-0.399424	1.422962	0.112737
C21	C	-0.293911	1.485664	0.000044
C22	C	-0.399404	1.423003	-0.112625
C23	C	-0.458849	1.481312	0.000028
C24	C	-0.353363	1.543943	0.112844
C25	C	-0.353337	1.543967	-0.112620
C26	C	-0.414000	1.602301	0.000114
C27	C	-0.198894	1.488168	0.000055
C28	C	-0.553864	1.478818	0.000027
C29	C	0.277133	1.474335	0.000025
C30	C	0.370393	1.476820	0.000016
C31	C	0.118826	1.713089	0.000047
C32	C	0.121297	1.852499	0.000044
N33	N	0.123611	1.483480	0.356160
N34	N	0.123617	1.483510	-0.356077
C35	C	0.067030	1.568879	0.428095
C36	C	0.067031	1.568891	0.571978
C37	C	0.180200	1.398102	0.571978
C38	C	0.180195	1.398085	0.428098
H39	H	0.121502	0.864675	0.226122
C40	C	-0.426942	1.353887	-0.241342
H41	H	-0.464291	1.409849	-0.294417
H42	H	-0.378721	1.325864	-0.294763
H43	H	-0.454819	1.283306	-0.214245
C44	C	0.004784	1.662798	0.348967
H45	H	-0.028919	1.713651	0.412421
H46	H	0.035321	1.715066	0.292819
H47	H	-0.030469	1.617608	0.292861
C48	C	0.004795	1.662835	0.651100
H49	H	-0.028898	1.713693	0.587645
H50	H	-0.030455	1.617676	0.707245
H51	H	0.035347	1.715115	0.707210
C52	C	0.242439	1.304144	0.348964
H53	H	0.276147	1.253301	0.412412
H54	H	0.211894	1.251868	0.292853
H55	H	0.277687	1.349320	0.292821
H56	H	0.125712	1.102327	0.226090
C57	C	-0.458016	1.738032	0.000204
H58	H	-0.442257	1.780784	0.080336
H59	H	-0.441540	1.781319	-0.079095
H60	H	-0.517415	1.735726	-0.000544
H61	H	0.226271	1.328577	0.630565
H62	H	-0.306019	1.264323	0.000140
H63	H	-0.419831	1.371800	0.208017
H64	H	0.125721	1.102294	-0.226034
C65	C	0.121190	0.845945	-0.261619
H66	H	0.122208	0.903714	-0.335829
H67	H	0.169181	0.785276	-0.266801
H68	H	0.071384	0.804419	-0.266794
H69	H	-0.332908	1.595084	-0.207905
C70	C	-0.325965	1.612975	0.241712
H71	H	-0.266466	1.614087	0.240957
H72	H	-0.352406	1.697118	0.242048
H73	H	-0.342109	1.570281	0.321643
