data_functionalizedCrystal
_audit_creation_method	'MofGen! by Chris Wilmer'
_symmetry_space_group_name_H-M	'P1'
_symmetry_Int_Tables_number	1
_symmetry_cell_setting	triclinic
loop_
_symmetry_equiv_pos_as_xyz
  x,y,z
_cell_length_a	19.077105
_cell_length_b	12.645330
_cell_length_c	19.077174
_cell_angle_alpha	92.276947
_cell_angle_beta	85.483752
_cell_angle_gamma	87.714233
loop_
_atom_site_label
_atom_site_type_symbol
_atom_site_fract_x
_atom_site_fract_y
_atom_site_fract_z
Zn1	Zn	1.093748	-0.515087	-0.441871
Zn2	Zn	1.593748	-0.015087	0.058129
Zn3	Zn	1.088947	-0.684943	-0.323992
Zn4	Zn	1.588947	-0.184943	0.176008
Zn5	Zn	0.971132	-0.500268	-0.319268
Zn6	Zn	1.471132	-0.000268	0.180732
Zn7	Zn	0.975841	-0.684874	-0.437110
Zn8	Zn	1.475841	-0.184874	0.062890
O9	O	1.032417	-0.596293	-0.380560
O10	O	1.532417	-0.096293	0.119440
O11	O	1.191762	-0.543849	-0.430204
O12	O	1.691762	-0.043849	0.069796
O13	O	1.069339	-0.654273	-0.224716
O14	O	1.569339	-0.154273	0.275284
O15	O	0.987436	-0.353889	-0.335547
O16	O	1.487436	0.146111	0.164453
O17	O	1.188235	-0.668642	-0.343599
O18	O	1.688235	-0.168642	0.156401
O19	O	1.077521	-0.364777	-0.425623
O20	O	1.577521	0.135223	0.074377
O21	O	0.982780	-0.518592	-0.221244
O22	O	1.482780	-0.018592	0.278756
O23	O	0.873106	-0.518525	-0.330930
O24	O	1.373106	-0.018525	0.169070
O25	O	0.995462	-0.668524	-0.536392
O26	O	1.495462	-0.168524	-0.036392
O27	O	0.876566	-0.654155	-0.417509
O28	O	1.376566	-0.154155	0.082491
O29	O	1.082087	-0.543782	-0.539890
O30	O	1.582087	-0.043782	-0.039890
O31	O	1.073905	-0.833278	-0.338983
O32	O	1.573905	-0.333278	0.161017
O33	O	0.990806	-0.833227	-0.422090
O34	O	1.490806	-0.333227	0.077910
C35	C	0.849257	-0.584725	-0.373190
C36	C	1.349257	-0.084725	0.126810
C37	C	0.770901	-0.579803	-0.370054
C38	C	1.270901	-0.079803	0.129946
C39	C	0.735906	-0.648203	-0.413587
C40	C	1.235906	-0.148203	0.086413
C41	C	0.662282	-0.643565	-0.410643
C42	C	1.162282	-0.143565	0.089357
C43	C	0.623654	-0.570530	-0.364164
C44	C	1.123654	-0.070530	0.135836
C45	C	0.658655	-0.502122	-0.320629
C46	C	1.158655	-0.002122	0.179371
C47	C	0.732277	-0.506757	-0.323577
C48	C	1.232277	-0.006757	0.176423
C49	C	0.403272	-0.549082	-0.350526
C50	C	0.903272	-0.049082	0.149474
C51	C	0.329644	-0.544455	-0.347580
C52	C	0.829644	-0.044455	0.152420
C53	C	0.333277	-0.685897	-0.437596
C54	C	0.833277	-0.185897	0.062404
C55	C	0.406900	-0.690529	-0.440536
C56	C	0.906900	-0.190529	0.059464
C57	C	0.441894	-0.622118	-0.397004
C58	C	0.941894	-0.122118	0.102996
N59	N	0.548399	-0.565789	-0.361152
N60	N	1.048399	-0.065789	0.138848
N61	N	0.517148	-0.626854	-0.400020
N62	N	1.017148	-0.126854	0.099980
C63	C	1.032365	-0.871719	-0.380548
C64	C	1.532365	-0.371719	0.119452
C65	C	1.032408	-0.989553	-0.380570
C66	C	1.532408	-0.489553	0.119430
C67	C	0.980362	-1.157153	-0.433029
C68	C	1.480362	-0.657153	0.066971
C69	C	0.980078	-1.034565	-0.432842
C70	C	1.480078	-0.534565	0.067158
C71	C	1.009319	-1.028198	-0.305469
C72	C	1.509319	-0.528198	0.194531
C73	C	1.009001	-1.150797	-0.305787
C74	C	1.509001	-0.650797	0.194213
C75	C	1.107851	-1.162550	-0.402621
C76	C	1.607851	-0.662550	0.097379
C77	C	1.107459	-1.040017	-0.404227
C78	C	1.607459	-0.540017	0.095773
C79	C	1.216292	-0.607907	-0.387960
C80	C	1.716292	-0.107907	0.112040
C81	C	1.294649	-0.612856	-0.391113
C82	C	1.794649	-0.112856	0.108887
C83	C	1.039835	-0.607798	-0.564435
C84	C	1.539835	-0.107798	-0.064435
C85	C	1.042997	-0.612701	-0.642791
C86	C	1.542997	-0.112701	-0.142791
C87	C	1.032489	-0.319794	-0.380589
C88	C	1.532489	0.180206	0.119411
C89	C	1.032519	-0.201966	-0.380601
C90	C	1.532519	0.298034	0.119399
C91	C	0.999417	-0.544365	-0.677795
C92	C	1.499417	-0.044365	-0.177795
C93	C	1.002385	-0.548980	-0.751419
C94	C	1.502385	-0.048980	-0.251419
C95	C	1.048936	-0.621928	-0.790038
C96	C	1.548936	-0.121928	-0.290038
C97	C	1.092517	-0.690272	-0.755029
C98	C	1.592517	-0.190272	-0.255029
C99	C	1.089545	-0.685661	-0.681406
C100	C	1.589545	-0.185661	-0.181406
C101	C	1.062653	-0.643298	-1.010420
C102	C	1.562653	-0.143298	-0.510420
C103	C	1.065622	-0.647902	-1.084048
C104	C	1.565622	-0.147902	-0.584048
C105	C	0.975490	-0.506611	-1.080434
C106	C	1.475490	-0.006611	-0.580434
C107	C	0.972525	-0.502002	-1.006810
C108	C	1.472525	-0.002002	-0.506810
C109	C	1.016103	-0.570350	-0.971807
C110	C	1.516103	-0.070350	-0.471807
N111	N	1.051972	-0.626645	-0.865294
N112	N	1.551972	-0.126645	-0.365294
N113	N	1.013063	-0.565637	-0.896553
N114	N	1.513063	-0.065637	-0.396553
C115	C	1.025068	-0.584758	-0.197403
C116	C	1.525068	-0.084758	0.302597
C117	C	1.022043	-0.579565	-0.119053
C118	C	1.522043	-0.079565	0.380947
H119	H	0.767351	-0.707679	-0.451433
H120	H	1.267351	-0.207679	0.048567
F121	F	0.440505	-0.476270	-0.304197
F122	F	0.940505	0.023730	0.195803
F123	F	1.109037	-0.716035	-0.973177
F124	F	1.609037	-0.216035	-0.473177
F125	F	0.625041	-0.716366	-0.456977
F126	F	1.125041	-0.216366	0.043023
F127	F	0.448005	-0.768264	-0.490005
F128	F	0.948005	-0.268264	0.009995
F129	F	0.296028	-0.758701	-0.483920
F130	F	0.796028	-0.258701	0.016080
F131	F	0.617542	-0.424387	-0.271166
F132	F	1.117542	0.075613	0.228834
F133	F	1.130150	-1.007669	-0.476489
F134	F	1.630150	-0.507669	0.023511
F135	F	1.115176	-0.725539	-1.125148
F136	F	1.615176	-0.225539	-0.625148
F137	F	0.936908	-1.182483	-0.281859
F138	F	1.436908	-0.682483	0.218141
F139	F	0.937951	-0.982397	-0.281189
F140	F	1.437951	-0.482397	0.218811
H141	H	1.128332	-1.197906	-0.456612
H142	H	1.628332	-0.697906	0.043388
F143	F	0.288535	-0.466724	-0.298103
F144	F	0.788535	0.033276	0.201897
H145	H	1.045180	-1.180190	-0.265231
H146	H	1.545180	-0.680190	0.234769
H147	H	0.760769	-0.451053	-0.288132
H148	H	1.260769	0.048947	0.211868
H149	H	0.961515	-0.484957	-0.646357
H150	H	1.461515	0.015043	-0.146357
F151	F	1.142056	-0.767915	-0.796131
F152	F	1.642056	-0.267915	-0.296131
H153	H	0.994869	-1.008675	-0.488436
H154	H	1.494869	-0.508675	0.011564
H155	H	1.125037	-0.741300	-0.652907
H156	H	1.625037	-0.241300	-0.152907
H157	H	1.146746	-1.191585	-0.364472
H158	H	1.646746	-0.691585	0.135528
F159	F	0.999550	-1.201177	-0.505925
F160	F	1.499550	-0.701177	-0.005925
F161	F	0.955976	-0.476284	-0.788669
F162	F	1.455976	0.023716	-0.288669
H163	H	0.934616	-0.442603	-0.975371
H164	H	1.434616	0.057397	-0.475371
F165	F	0.907906	-1.192011	-0.413893
F166	F	1.407906	-0.692011	0.086107
H167	H	0.924290	-1.001052	-0.418018
H168	H	1.424290	-0.501052	0.081982
F169	F	1.057225	-0.989805	-0.252841
F170	F	1.557225	-0.489805	0.247159
F171	F	0.929112	-0.433878	-1.117692
F172	F	1.429112	0.066122	-0.617692
H173	H	1.148603	-1.009730	-0.369060
H174	H	1.648603	-0.509730	0.130940
