data_functionalizedCrystal
_audit_creation_method	'MofGen! by Chris Wilmer'
_symmetry_space_group_name_H-M	'P1'
_symmetry_Int_Tables_number	1
_symmetry_cell_setting	triclinic
loop_
_symmetry_equiv_pos_as_xyz
  x,y,z
_cell_length_a	11.792241
_cell_length_b	16.992694
_cell_length_c	16.053802
_cell_angle_alpha	87.249047
_cell_angle_beta	92.583059
_cell_angle_gamma	87.430819
loop_
_atom_site_label
_atom_site_type_symbol
_atom_site_fract_x
_atom_site_fract_y
_atom_site_fract_z
O1	O	0.236280	1.044699	-0.069325
O2	O	0.233637	0.816403	-0.069350
O3	O	0.070242	0.936091	-0.069331
O4	O	0.399675	0.925011	-0.069344
O5	O	0.079196	0.929503	0.069527
O6	O	0.242591	0.809815	0.069508
O7	O	0.245234	1.038111	0.069533
Zn8	Zn	0.245334	0.922917	0.091567
Zn9	Zn	0.233537	0.931597	-0.091384
O10	O	0.408630	0.918423	0.069514
C11	C	0.234716	0.783882	0.000076
C12	C	0.224578	0.696796	0.000067
C13	C	0.322395	0.646971	0.000064
C14	C	0.312864	0.565143	0.000076
C15	C	0.205513	0.533142	0.000085
C16	C	0.107688	0.582973	0.000091
C17	C	0.117221	0.664799	0.000085
C18	C	0.166002	0.289375	0.000109
C19	C	0.156476	0.207543	0.000112
C20	C	0.361652	0.189719	0.000099
C21	C	0.371176	0.271548	0.000088
C22	C	0.273351	0.321371	0.000098
N23	N	0.195767	0.449501	0.000094
N24	N	0.283098	0.405010	0.000095
C25	C	0.032371	0.932101	0.000098
C26	C	-0.093813	0.930018	0.000097
C27	C	-0.324840	0.926188	0.000082
C28	C	-0.196280	0.928316	0.000090
C29	C	0.446500	0.922413	0.000084
C30	C	0.572684	0.924497	0.000079
C31	C	0.244155	1.070632	0.000105
C32	C	0.254293	1.157719	0.000109
N33	N	0.253386	0.916999	0.216427
N34	N	0.225477	0.937521	-0.216243
C35	C	0.183889	0.967945	0.260129
C36	C	0.189532	0.963812	0.347535
C37	C	0.264679	0.908737	0.391237
C38	C	0.334179	0.857785	0.347529
C39	C	0.328529	0.861915	0.260125
C40	C	0.289327	0.890699	0.652644
C41	C	0.294974	0.886575	0.740055
C42	C	0.150325	0.992602	0.740054
C43	C	0.144687	0.996729	0.652648
C44	C	0.214182	0.945775	0.608948
N45	N	0.270452	0.904513	0.480580
N46	N	0.208403	0.949996	0.519606
H47	H	0.458591	0.297597	0.000071
H48	H	0.086345	0.329932	0.000118
C49	C	0.404980	0.805877	0.212053
H50	H	0.450553	0.772490	0.250597
H51	H	0.358944	0.774665	0.177965
H52	H	0.452628	0.835909	0.177948
C53	C	0.113097	1.019860	0.395603
H54	H	0.067546	1.053261	0.357057
H55	H	0.065446	0.989843	0.429712
H56	H	0.159150	1.051071	0.429687
C57	C	0.062018	1.057307	0.604581
H58	H	0.021428	1.087053	0.643128
H59	H	0.103644	1.091741	0.570473
H60	H	0.009964	1.030496	0.570497
C61	C	0.073877	1.048639	0.788126
H62	H	0.087994	1.038289	0.846440
H63	H	0.090067	1.101717	0.773793
H64	H	-0.003609	1.040468	0.773810
C65	C	-0.010398	0.547777	0.000100
H66	H	-0.067289	0.589172	0.000108
H67	H	-0.021506	0.518519	-0.048321
H68	H	-0.015257	0.513937	0.048530
C69	C	0.420463	0.510340	0.000070
H70	H	0.485761	0.541119	0.000053
H71	H	0.424139	0.475760	0.048495
H72	H	0.417881	0.480339	-0.048357
C73	C	0.377575	0.825948	0.788126
H74	H	0.418130	0.796176	0.749583
H75	H	0.429649	0.852711	0.822235
H76	H	0.335876	0.791534	0.822211
C77	C	0.469249	0.134913	0.000099
H78	H	0.448202	0.081596	0.000111
H79	H	0.509844	0.146949	-0.048325
H80	H	0.516079	0.142372	0.048527
C81	C	0.416841	0.797205	0.395600
H82	H	0.410263	0.802047	0.453914
H83	H	0.398795	0.745481	0.381287
H84	H	0.492475	0.806727	0.381262
C85	C	0.009622	0.719606	0.000080
H86	H	-0.055679	0.688830	0.000077
H87	H	0.012195	0.749609	0.048499
H88	H	0.005956	0.754184	-0.048353
C89	C	0.365779	0.834659	0.604585
H90	H	0.411351	0.801275	0.643133
H91	H	0.319748	0.803443	0.570497
H92	H	0.413428	0.864689	0.570480
C93	C	0.038385	0.172343	0.000124
H94	H	-0.018511	0.213734	0.000136
H95	H	0.027278	0.143086	-0.048298
H96	H	0.033533	0.138501	0.048554
H97	H	0.409812	0.673020	0.000056
H98	H	0.122701	1.012796	0.224552
