data_functionalizedCrystal
_audit_creation_method	'MofGen! by Chris Wilmer'
_symmetry_space_group_name_H-M	'P1'
_symmetry_Int_Tables_number	1
_symmetry_cell_setting	triclinic
loop_
_symmetry_equiv_pos_as_xyz
  x,y,z
_cell_length_a	29.839134
_cell_length_b	29.839131
_cell_length_c	21.295411
_cell_angle_alpha	90.020364
_cell_angle_beta	90.036602
_cell_angle_gamma	90.034165
loop_
_atom_site_label
_atom_site_type_symbol
_atom_site_fract_x
_atom_site_fract_y
_atom_site_fract_z
Zn1	Zn	0.686774	-0.178991	0.356119
Zn2	Zn	0.936774	0.071009	0.606119
Zn3	Zn	1.186774	0.321009	0.856119
Zn4	Zn	1.436774	0.571009	1.106119
Zn5	Zn	0.686690	-0.254107	0.250847
Zn6	Zn	0.936690	-0.004107	0.500847
Zn7	Zn	1.186690	0.245893	0.750847
Zn8	Zn	1.436690	0.495893	1.000847
Zn9	Zn	0.611641	-0.178982	0.250842
Zn10	Zn	0.861641	0.071018	0.500842
Zn11	Zn	1.111641	0.321018	0.750842
Zn12	Zn	1.361641	0.571018	1.000842
Zn13	Zn	0.611605	-0.254086	0.356057
Zn14	Zn	0.861605	-0.004086	0.606057
Zn15	Zn	1.111605	0.245914	0.856057
Zn16	Zn	1.361605	0.495914	1.106057
O17	O	0.649177	-0.216542	0.303466
O18	O	0.899177	0.033458	0.553466
O19	O	1.149177	0.283458	0.803466
O20	O	1.399177	0.533458	1.053466
O21	O	0.749630	-0.188968	0.342183
O22	O	0.999630	0.061032	0.592183
O23	O	1.249630	0.311032	0.842183
O24	O	1.499630	0.561032	1.092183
O25	O	0.676715	-0.244147	0.162757
O26	O	0.926715	0.005853	0.412757
O27	O	1.176715	0.255853	0.662757
O28	O	1.426715	0.505853	0.912757
O29	O	0.621658	-0.116116	0.264832
O30	O	0.871658	0.133884	0.514832
O31	O	1.121658	0.383884	0.764832
O32	O	1.371658	0.633884	1.014832
O33	O	0.749568	-0.244155	0.264840
O34	O	0.999568	0.005845	0.514840
O35	O	1.249568	0.255845	0.764840
O36	O	1.499568	0.505845	1.014840
O37	O	0.676858	-0.116123	0.342178
O38	O	0.926858	0.133877	0.592178
O39	O	1.176858	0.383877	0.842178
O40	O	1.426858	0.633877	1.092178
O41	O	0.621576	-0.188953	0.162753
O42	O	0.871576	0.061047	0.412753
O43	O	1.121576	0.311047	0.662753
O44	O	1.371576	0.561047	0.912753
O45	O	0.548769	-0.188932	0.264771
O46	O	0.798769	0.061068	0.514771
O47	O	1.048769	0.311068	0.764771
O48	O	1.298769	0.561068	1.014771
O49	O	0.621596	-0.244119	0.444154
O50	O	0.871596	0.005881	0.694154
O51	O	1.121596	0.255881	0.944154
O52	O	1.371596	0.505881	1.194154
O53	O	0.548742	-0.244110	0.342071
O54	O	0.798742	0.005890	0.592071
O55	O	1.048742	0.255890	0.842071
O56	O	1.298742	0.505890	1.092071
O57	O	0.676823	-0.188948	0.444200
O58	O	0.926823	0.061052	0.694200
O59	O	1.176823	0.311052	0.944200
O60	O	1.426823	0.561052	1.194200
O61	O	0.676680	-0.316971	0.264779
O62	O	0.926680	-0.066971	0.514779
O63	O	1.176680	0.183029	0.764779
O64	O	1.426680	0.433029	1.014779
O65	O	0.621515	-0.316956	0.342076
O66	O	0.871515	-0.066956	0.592076
O67	O	1.121515	0.183044	0.842076
O68	O	1.371515	0.433044	1.092076
C69	C	0.532455	-0.216518	0.303414
C70	C	0.782455	0.033482	0.553414
C71	C	1.032455	0.283482	0.803414
C72	C	1.282455	0.533482	1.053414
C73	C	0.482520	-0.216519	0.303407
C74	C	0.732520	0.033481	0.553407
C75	C	0.982520	0.283481	0.803407
C76	C	1.232520	0.533481	1.053407
C77	C	0.125935	-0.187768	0.263298
C78	C	0.375935	0.062232	0.513298
C79	C	0.625935	0.312232	0.763298
C80	C	0.875935	0.562232	1.013298
C81	C	0.313608	-0.187755	0.263260
C82	C	0.563608	0.062245	0.513260
C83	C	0.813608	0.312245	0.763260
C84	C	1.063608	0.562245	1.013260
O85	O	0.337873	-0.163272	0.229099
O86	O	0.587873	0.086728	0.479099
O87	O	0.837873	0.336728	0.729099
O88	O	1.087873	0.586728	0.979099
N89	N	0.337075	-0.216526	0.303438
N90	N	0.587075	0.033474	0.553438
N91	N	0.837075	0.283474	0.803438
N92	N	1.087075	0.533474	1.053438
C93	C	0.313622	-0.245301	0.343632
C94	C	0.563622	0.004699	0.593632
C95	C	0.813622	0.254699	0.843632
C96	C	1.063622	0.504699	1.093632
O97	O	0.337889	-0.269769	0.377811
O98	O	0.587889	-0.019769	0.627811
O99	O	0.837889	0.230231	0.877811
O100	O	1.087889	0.480231	1.127811
C101	C	0.125950	-0.245311	0.343673
C102	C	0.375950	0.004689	0.593673
C103	C	0.625950	0.254689	0.843673
C104	C	0.875950	0.504689	1.093673
C105	C	0.102484	-0.216541	0.303488
C106	C	0.352484	0.033459	0.553488
C107	C	0.602484	0.283459	0.803488
C108	C	0.852484	0.533459	1.053488
C109	C	0.102469	-0.159000	0.223116
C110	C	0.352469	0.091000	0.473116
C111	C	0.602469	0.341000	0.723116
C112	C	0.852469	0.591000	0.973116
C113	C	0.055554	-0.159005	0.223123
C114	C	0.305554	0.090995	0.473123
C115	C	0.555554	0.340995	0.723123
C116	C	0.805554	0.590995	0.973123
C117	C	0.032104	-0.187778	0.263313
C118	C	0.282104	0.062222	0.513313
C119	C	0.532104	0.312222	0.763313
C120	C	0.782104	0.562222	1.013313
C121	C	0.055569	-0.216546	0.303495
C122	C	0.305569	0.033454	0.553495
C123	C	0.555569	0.283454	0.803495
C124	C	0.805569	0.533454	1.053495
C125	C	0.102497	-0.274082	0.383870
C126	C	0.352497	-0.024082	0.633870
C127	C	0.602497	0.225918	0.883870
C128	C	0.852497	0.475918	1.133870
C129	C	0.055576	-0.274081	0.383878
C130	C	0.305576	-0.024081	0.633878
C131	C	0.555576	0.225919	0.883878
C132	C	0.805576	0.475919	1.133878
C133	C	0.032111	-0.245312	0.343692
C134	C	0.282111	0.004688	0.593692
C135	C	0.532111	0.254688	0.843692
C136	C	0.782111	0.504688	1.093692
C137	C	-0.014797	-0.245324	0.343692
C138	C	0.235203	0.004676	0.593692
C139	C	0.485203	0.254676	0.843692
C140	C	0.735203	0.504676	1.093692
N141	N	-0.038264	-0.216553	0.303514
N142	N	0.211736	0.033447	0.553514
N143	N	0.461736	0.283447	0.803514
N144	N	0.711736	0.533447	1.053514
C145	C	-0.014814	-0.187780	0.263324
C146	C	0.235186	0.062220	0.513324
C147	C	0.485186	0.312220	0.763324
C148	C	0.735186	0.562220	1.013324
C149	C	0.412152	-0.245294	0.343607
C150	C	0.662152	0.004706	0.593607
C151	C	0.912152	0.254706	0.843607
C152	C	1.162152	0.504706	1.093607
C153	C	0.459070	-0.245292	0.343596
C154	C	0.709070	0.004708	0.593596
C155	C	0.959070	0.254708	0.843596
C156	C	1.209070	0.504708	1.093596
C157	C	0.459053	-0.187746	0.263224
C158	C	0.709053	0.062254	0.513224
C159	C	0.959053	0.312254	0.763224
C160	C	1.209053	0.562254	1.013224
C161	C	0.412134	-0.187750	0.263232
C162	C	0.662134	0.062250	0.513232
C163	C	0.912134	0.312250	0.763232
C164	C	1.162134	0.562250	1.013232
C165	C	0.388685	-0.216523	0.303429
C166	C	0.638685	0.033477	0.553429
C167	C	0.888685	0.283477	0.803429
C168	C	1.138685	0.533477	1.053429
C169	C	-0.113340	-0.187793	0.263342
C170	C	0.136660	0.062207	0.513342
C171	C	0.386660	0.312207	0.763342
C172	C	0.636660	0.562207	1.013342
C173	C	-0.160260	-0.187803	0.263352
C174	C	0.089740	0.062197	0.513352
C175	C	0.339740	0.312197	0.763352
C176	C	0.589740	0.562197	1.013352
C177	C	-0.160238	-0.245347	0.343726
C178	C	0.089762	0.004653	0.593726
C179	C	0.339762	0.254653	0.843726
C180	C	0.589762	0.504653	1.093726
C181	C	-0.113323	-0.245340	0.343714
C182	C	0.136677	0.004660	0.593714
C183	C	0.386677	0.254660	0.843714
C184	C	0.636677	0.504660	1.093714
C185	C	-0.089875	-0.216559	0.303521
C186	C	0.160125	0.033441	0.553521
C187	C	0.410125	0.283441	0.803521
C188	C	0.660125	0.533441	1.053521
O189	O	-0.039091	-0.269791	0.377840
O190	O	0.210909	-0.019791	0.627840
O191	O	0.460909	0.230209	0.877840
O192	O	0.710909	0.480209	1.127840
O193	O	-0.039089	-0.163309	0.229161
O194	O	0.210911	0.086691	0.479161
O195	O	0.460911	0.336691	0.729161
O196	O	0.710911	0.586691	0.979161
C197	C	0.172850	-0.187763	0.263290
C198	C	0.422850	0.062237	0.513290
C199	C	0.672850	0.312237	0.763290
C200	C	0.922850	0.562237	1.013290
C201	C	0.196315	-0.216530	0.303472
C202	C	0.446315	0.033470	0.553472
C203	C	0.696315	0.283470	0.803472
C204	C	0.946315	0.533470	1.053472
C205	C	0.172865	-0.245303	0.343662
C206	C	0.422865	0.004697	0.593662
C207	C	0.672865	0.254697	0.843662
C208	C	0.922865	0.504697	1.093662
C209	C	0.243233	-0.216529	0.303462
C210	C	0.493233	0.033471	0.553462
C211	C	0.743233	0.283471	0.803462
C212	C	0.993233	0.533471	1.053462
C213	C	0.266683	-0.187756	0.263272
C214	C	0.516683	0.062244	0.513272
C215	C	0.766683	0.312244	0.763272
C216	C	1.016683	0.562244	1.013272
C217	C	0.243216	-0.158985	0.223093
C218	C	0.493216	0.091015	0.473093
C219	C	0.743216	0.341015	0.723093
C220	C	0.993216	0.591015	0.973093
C221	C	0.196300	-0.158990	0.223101
C222	C	0.446300	0.091010	0.473101
C223	C	0.696300	0.341010	0.723101
C224	C	0.946300	0.591010	0.973101
C225	C	0.196333	-0.274075	0.383841
C226	C	0.446333	-0.024075	0.633841
C227	C	0.696333	0.225925	0.883841
C228	C	0.946333	0.475925	1.133841
C229	C	0.243248	-0.274067	0.383829
C230	C	0.493248	-0.024067	0.633829
C231	C	0.743248	0.225933	0.883829
C232	C	0.993248	0.475933	1.133829
C233	C	0.266698	-0.245294	0.343640
C234	C	0.516698	0.004706	0.593640
C235	C	0.766698	0.254706	0.843640
C236	C	1.016698	0.504706	1.093640
C237	C	0.649096	-0.333264	0.303435
C238	C	0.899096	-0.083264	0.553435
C239	C	1.149096	0.166736	0.803435
C240	C	1.399096	0.416736	1.053435
C241	C	0.649103	-0.383199	0.303443
C242	C	0.899103	-0.133199	0.553443
C243	C	1.149103	0.116801	0.803443
C244	C	1.399103	0.366801	1.053443
C245	C	0.677954	-0.692837	0.263276
C246	C	0.927954	-0.442837	0.513276
C247	C	1.177954	-0.192837	0.763276
C248	C	1.427954	0.057163	1.013276
C249	C	0.678010	-0.880511	0.263301
C250	C	0.928010	-0.630511	0.513301
C251	C	1.178010	-0.380511	0.763301
C252	C	1.428010	-0.130511	1.013301
O253	O	0.702476	-0.904772	0.229126
O254	O	0.952476	-0.654772	0.479126
O255	O	1.202476	-0.404772	0.729126
O256	O	1.452476	-0.154772	0.979126
N257	N	0.649271	-0.903984	0.303514
N258	N	0.899271	-0.653984	0.553514
N259	N	1.149271	-0.403984	0.803514
N260	N	1.399271	-0.153984	1.053514
C261	C	0.620518	-0.880536	0.343726
C262	C	0.870518	-0.630536	0.593726
C263	C	1.120518	-0.380536	0.843726
C264	C	1.370518	-0.130536	1.093726
O265	O	0.596078	-0.904807	0.377935
O266	O	0.846078	-0.654807	0.627935
O267	O	1.096078	-0.404807	0.877935
O268	O	1.346078	-0.154807	1.127935
C269	C	0.620465	-0.692863	0.343704
C270	C	0.870465	-0.442863	0.593704
C271	C	1.120465	-0.192863	0.843704
C272	C	1.370465	0.057137	1.093704
C273	C	0.649203	-0.669393	0.303484
C274	C	0.899203	-0.419393	0.553484
C275	C	1.149203	-0.169393	0.803484
C276	C	1.399203	0.080607	1.053484
C277	C	0.706690	-0.669367	0.223060
C278	C	0.956690	-0.419367	0.473060
C279	C	1.206690	-0.169367	0.723060
C280	C	1.456690	0.080633	0.973060
C281	C	0.706674	-0.622451	0.223052
C282	C	0.956674	-0.372451	0.473052
C283	C	1.206674	-0.122451	0.723052
C284	C	1.456674	0.127549	0.973052
C285	C	0.677922	-0.599007	0.263260
C286	C	0.927922	-0.349007	0.513260
C287	C	1.177922	-0.099007	0.763260
C288	C	1.427922	0.150993	1.013260
C289	C	0.649187	-0.622477	0.303476
C290	C	0.899187	-0.372477	0.553476
C291	C	1.149187	-0.122477	0.803476
C292	C	1.399187	0.127523	1.053476
C293	C	0.591715	-0.669416	0.383920
C294	C	0.841715	-0.419416	0.633920
C295	C	1.091715	-0.169416	0.883920
C296	C	1.341715	0.080584	1.133920
C297	C	0.591705	-0.622495	0.383912
C298	C	0.841705	-0.372495	0.633912
C299	C	1.091705	-0.122495	0.883912
C300	C	1.341705	0.127505	1.133912
C301	C	0.620443	-0.599025	0.343692
C302	C	0.870443	-0.349025	0.593692
C303	C	1.120443	-0.099025	0.843692
C304	C	1.370443	0.150975	1.093692
C305	C	0.620419	-0.552117	0.343676
C306	C	0.870419	-0.302117	0.593676
C307	C	1.120419	-0.052117	0.843676
C308	C	1.370419	0.197883	1.093676
N309	N	0.649158	-0.528644	0.303463
N310	N	0.899158	-0.278644	0.553463
N311	N	1.149158	-0.028644	0.803463
N312	N	1.399158	0.221356	1.053463
C313	C	0.677910	-0.552089	0.263255
C314	C	0.927910	-0.302089	0.513255
C315	C	1.177910	-0.052089	0.763255
C316	C	1.427910	0.197911	1.013255
C317	C	0.620547	-0.979066	0.343734
C318	C	0.870547	-0.729066	0.593734
C319	C	1.120547	-0.479066	0.843734
C320	C	1.370547	-0.229066	1.093734
C321	C	0.620560	-1.025984	0.343739
C322	C	0.870560	-0.775984	0.593739
C323	C	1.120560	-0.525984	0.843739
C324	C	1.370560	-0.275984	1.093739
C325	C	0.678052	-1.025956	0.263314
C326	C	0.928052	-0.775956	0.513314
C327	C	1.178052	-0.525956	0.763314
C328	C	1.428052	-0.275956	1.013314
C329	C	0.678037	-0.979037	0.263307
C330	C	0.928037	-0.729037	0.513307
C331	C	1.178037	-0.479037	0.763307
C332	C	1.428037	-0.229037	1.013307
C333	C	0.649286	-0.955593	0.303521
C334	C	0.899286	-0.705593	0.553521
C335	C	1.149286	-0.455593	0.803521
C336	C	1.399286	-0.205593	1.053521
C337	C	0.677874	-0.453563	0.263241
C338	C	0.927874	-0.203563	0.513241
C339	C	1.177874	0.046437	0.763241
C340	C	1.427874	0.296437	1.013241
C341	C	0.677854	-0.406643	0.263235
C342	C	0.927854	-0.156643	0.513235
C343	C	1.177854	0.093357	0.763235
C344	C	1.427854	0.343357	1.013235
C345	C	0.620364	-0.406676	0.343661
C346	C	0.870364	-0.156676	0.593661
C347	C	1.120364	0.093324	0.843661
C348	C	1.370364	0.343324	1.093661
C349	C	0.620382	-0.453591	0.343666
C350	C	0.870382	-0.203591	0.593666
C351	C	1.120382	0.046409	0.843666
C352	C	1.370382	0.296409	1.093666
C353	C	0.649140	-0.477034	0.303453
C354	C	0.899140	-0.227034	0.553453
C355	C	1.149140	0.022966	0.803453
C356	C	1.399140	0.272966	1.053453
O357	O	0.595970	-0.527827	0.377838
O358	O	0.845970	-0.277827	0.627838
O359	O	1.095970	-0.027827	0.877838
O360	O	1.345970	0.222173	1.127838
O361	O	0.702353	-0.527809	0.229062
O362	O	0.952353	-0.277809	0.479062
O363	O	1.202353	-0.027809	0.729062
O364	O	1.452353	0.222191	0.979062
C365	C	0.677970	-0.739753	0.263285
C366	C	0.927970	-0.489753	0.513285
C367	C	1.177970	-0.239753	0.763285
C368	C	1.427970	0.010247	1.013285
C369	C	0.649234	-0.763224	0.303501
C370	C	0.899234	-0.513224	0.553501
C371	C	1.149234	-0.263224	0.803501
C372	C	1.399234	-0.013224	1.053501
C373	C	0.620483	-0.739779	0.343709
C374	C	0.870483	-0.489779	0.593709
C375	C	1.120483	-0.239779	0.843709
C376	C	1.370483	0.010221	1.093709
C377	C	0.649247	-0.810141	0.303505
C378	C	0.899247	-0.560141	0.553505
C379	C	1.149247	-0.310141	0.803505
C380	C	1.399247	-0.060141	1.053505
C381	C	0.677998	-0.833586	0.263297
C382	C	0.927998	-0.583586	0.513297
C383	C	1.177998	-0.333586	0.763297
C384	C	1.427998	-0.083586	1.013297
C385	C	0.706737	-0.810113	0.223085
C386	C	0.956737	-0.560113	0.473085
C387	C	1.206737	-0.310113	0.723085
C388	C	1.456737	-0.060113	0.973085
C389	C	0.706721	-0.763198	0.223077
C390	C	0.956721	-0.513198	0.473077
C391	C	1.206721	-0.263198	0.723077
C392	C	1.456721	-0.013198	0.973077
C393	C	0.591744	-0.763252	0.383922
C394	C	0.841744	-0.513252	0.633922
C395	C	1.091744	-0.263252	0.883922
C396	C	1.341744	-0.013252	1.133922
C397	C	0.591762	-0.810167	0.383926
C398	C	0.841762	-0.560167	0.633926
C399	C	1.091762	-0.310167	0.883926
C400	C	1.341762	-0.060167	1.133926
C401	C	0.620513	-0.833612	0.343718
C402	C	0.870513	-0.583612	0.593718
C403	C	1.120513	-0.333612	0.843718
C404	C	1.370513	-0.083612	1.093718
C405	C	0.766356	-0.216565	0.303519
C406	C	1.016356	0.033435	0.553519
C407	C	1.266356	0.283435	0.803519
C408	C	1.516356	0.533435	1.053519
C409	C	0.816290	-0.216575	0.303541
C410	C	1.066290	0.033425	0.553541
C411	C	1.316290	0.283425	0.803541
C412	C	1.566290	0.533425	1.053541
C413	C	0.649215	-0.216532	0.467656
C414	C	0.899215	0.033468	0.717656
C415	C	1.149215	0.283468	0.967656
C416	C	1.399215	0.533468	1.217656
C417	C	0.649231	-0.216528	0.537625
C418	C	0.899231	0.033472	0.787625
C419	C	1.149231	0.283472	1.037625
C420	C	1.399231	0.533472	1.287625
C421	C	0.649271	-0.099363	0.303511
C422	C	0.899271	0.150637	0.553511
C423	C	1.149271	0.400637	0.803511
C424	C	1.399271	0.650637	1.053511
C425	C	0.649311	-0.049429	0.303531
C426	C	0.899311	0.200571	0.553531
C427	C	1.149311	0.450571	0.803531
C428	C	1.399311	0.700571	1.053531
C429	C	0.649166	-0.216519	0.139915
C430	C	0.899166	0.033481	0.389915
C431	C	1.149166	0.283481	0.639915
C432	C	1.399166	0.533481	0.889915
C433	C	0.649237	-0.216396	0.069947
C434	C	0.899237	0.033604	0.319947
C435	C	1.149237	0.283604	0.569947
C436	C	1.399237	0.533604	0.819947
C437	C	0.677986	-0.187799	0.570516
C438	C	0.927986	0.062201	0.820516
C439	C	1.177986	0.312201	1.070516
C440	C	1.427986	0.562201	1.320516
C441	C	0.677985	-0.187780	0.636259
C442	C	0.927985	0.062220	0.886259
C443	C	1.177985	0.312220	1.136259
C444	C	1.427985	0.562220	1.386259
C445	C	0.649234	-0.216497	0.669107
C446	C	0.899234	0.033503	0.919107
C447	C	1.149234	0.283503	1.169107
C448	C	1.399234	0.533503	1.419107
C449	C	0.620473	-0.245228	0.636208
C450	C	0.870473	0.004772	0.886208
C451	C	1.120473	0.254772	1.136208
C452	C	1.370473	0.504772	1.386208
C453	C	0.620471	-0.245244	0.570466
C454	C	0.870471	0.004756	0.820466
C455	C	1.120471	0.254756	1.070466
C456	C	1.370471	0.504756	1.320466
N457	N	0.645761	-0.255797	0.772323
N458	N	0.895761	-0.005797	1.022323
N459	N	1.145761	0.244203	1.272323
N460	N	1.395761	0.494203	1.522323
N461	N	0.645765	-0.255781	0.834774
N462	N	0.895765	-0.005781	1.084774
N463	N	1.145765	0.244219	1.334774
N464	N	1.395765	0.494219	1.584774
C465	C	0.649237	-0.216452	0.867182
C466	C	0.899237	0.033548	1.117182
C467	C	1.149237	0.283548	1.367182
C468	C	1.399237	0.533548	1.617182
N469	N	0.652713	-0.177138	0.834779
N470	N	0.902713	0.072862	1.084779
N471	N	1.152713	0.322862	1.334779
N472	N	1.402713	0.572862	1.584779
N473	N	0.652711	-0.177154	0.772322
N474	N	0.902711	0.072846	1.022322
N475	N	1.152711	0.322846	1.272322
N476	N	1.402711	0.572846	1.522322
C477	C	0.649233	-0.216483	0.740393
C478	C	0.899233	0.033517	0.990393
C479	C	1.149233	0.283517	1.240393
C480	C	1.399233	0.533517	1.490393
C481	C	0.677993	-0.187699	0.971359
C482	C	0.927993	0.062301	1.221359
C483	C	1.177993	0.312301	1.471359
C484	C	1.427993	0.562301	1.721359
C485	C	0.677989	-0.187679	1.037103
C486	C	0.927989	0.062321	1.287103
C487	C	1.177989	0.312321	1.537103
C488	C	1.427989	0.562321	1.787103
C489	C	0.620480	-0.245131	1.037051
C490	C	0.870480	0.004869	1.287051
C491	C	1.120480	0.254869	1.537051
C492	C	1.370480	0.504869	1.787051
C493	C	0.620481	-0.245148	0.971308
C494	C	0.870481	0.004852	1.221308
C495	C	1.120481	0.254852	1.471308
C496	C	1.370481	0.504852	1.721308
C497	C	0.649240	-0.216432	0.938466
C498	C	0.899240	0.033568	1.188466
C499	C	1.149240	0.283568	1.438466
C500	C	1.399240	0.533568	1.688466
H501	H	0.036453	-0.135578	0.190400
H502	H	0.286453	0.114422	0.440400
H503	H	0.536453	0.364422	0.690400
H504	H	0.786453	0.614422	0.940400
F505	F	0.737266	-0.597478	0.180251
F506	F	0.987266	-0.347478	0.430251
F507	F	1.237266	-0.097478	0.680251
F508	F	1.487266	0.152522	0.930251
H509	H	0.730147	-0.829210	0.190344
H510	H	0.980147	-0.579210	0.440344
H511	H	1.230147	-0.329210	0.690344
H512	H	1.480147	-0.079210	0.940344
H513	H	-0.094216	-0.268770	0.376432
H514	H	0.155784	-0.018770	0.626432
H515	H	0.405784	0.231230	0.876432
H516	H	0.655784	0.481230	1.126432
H517	H	0.177199	-0.135562	0.190378
H518	H	0.427199	0.114438	0.440378
H519	H	0.677199	0.364438	0.690378
H520	H	0.927199	0.614438	0.940378
H521	H	0.568293	-0.603409	0.416661
H522	H	0.818293	-0.353409	0.666661
H523	H	1.068293	-0.103409	0.916661
H524	H	1.318293	0.146591	1.166661
H525	H	0.596953	-0.387580	0.376396
H526	H	0.846953	-0.137580	0.626396
H527	H	1.096953	0.112420	0.876396
H528	H	1.346953	0.362420	1.126396
F529	F	0.561132	-0.694385	0.426733
F530	F	0.811132	-0.444385	0.676733
F531	F	1.061132	-0.194385	0.926733
F532	F	1.311132	0.055615	1.176733
H533	H	0.596982	-0.472702	0.376418
H534	H	0.846982	-0.222702	0.626418
H535	H	1.096982	0.027298	0.876418
H536	H	1.346982	0.277298	1.126418
F537	F	0.708592	-0.157235	0.535567
F538	F	0.958592	0.092765	0.785567
F539	F	1.208592	0.342765	1.035567
F540	F	1.458592	0.592765	1.285567
F541	F	0.589865	-0.275822	0.535460
F542	F	0.839865	-0.025822	0.785460
F543	F	1.089865	0.224178	1.035460
F544	F	1.339865	0.474178	1.285460
F545	F	0.708442	-0.381667	0.220425
F546	F	0.958442	-0.131667	0.470425
F547	F	1.208442	0.118333	0.720425
F548	F	1.458442	0.368333	0.970425
H549	H	0.262317	-0.135558	0.190367
H550	H	0.512317	0.114442	0.440367
H551	H	0.762317	0.364442	0.690367
H552	H	1.012317	0.614442	0.940367
H553	H	0.701405	-0.164282	1.063882
H554	H	0.951405	0.085718	1.313882
H555	H	1.201405	0.335718	1.563882
H556	H	1.451405	0.585718	1.813882
F557	F	0.561172	-0.835142	0.426735
F558	F	0.811172	-0.585142	0.676735
F559	F	1.061172	-0.335142	0.926735
F560	F	1.311172	-0.085142	1.176735
F561	F	0.708584	-0.157194	0.671272
F562	F	0.958584	0.092806	0.921272
F563	F	1.208584	0.342806	1.171272
F564	F	1.458584	0.592806	1.421272
H565	H	0.597062	-0.268609	0.662957
H566	H	0.847062	-0.018609	0.912957
H567	H	1.097062	0.231391	1.162957
H568	H	1.347062	0.481391	1.412957
H569	H	0.730122	-0.744091	0.190326
H570	H	0.980122	-0.494091	0.440326
H571	H	1.230122	-0.244091	0.690326
H572	H	1.480122	0.005909	0.940326
H573	H	0.701438	-0.959930	0.230556
H574	H	0.951438	-0.709930	0.480556
H575	H	1.201438	-0.459930	0.730556
H576	H	1.451438	-0.209930	0.980556
F577	F	0.589877	-0.275692	1.072006
F578	F	0.839877	-0.025692	1.322006
F579	F	1.089877	0.224308	1.572006
F580	F	1.339877	0.474308	1.822006
F581	F	0.708482	-0.478506	0.220443
F582	F	0.958482	-0.228506	0.470443
F583	F	1.208482	0.021494	0.720443
F584	F	1.458482	0.271494	0.970443
H585	H	0.568331	-0.744167	0.416665
H586	H	0.818331	-0.494167	0.666665
H587	H	1.068331	-0.244167	0.916665
H588	H	1.318331	0.005833	1.166665
F589	F	0.708599	-0.157136	0.936404
F590	F	0.958599	0.092864	1.186404
F591	F	1.208599	0.342864	1.436404
F592	F	1.458599	0.592864	1.686404
F593	F	-0.185230	-0.157181	0.220578
F594	F	0.064770	0.092819	0.470578
F595	F	0.314770	0.342819	0.720578
F596	F	0.564770	0.592819	0.970578
F597	F	0.268216	-0.304693	0.426601
F598	F	0.518216	-0.054693	0.676601
F599	F	0.768216	0.195307	0.926601
F600	F	1.018216	0.445307	1.176601
H601	H	0.597068	-0.268545	0.944527
H602	H	0.847068	-0.018545	1.194527
H603	H	1.097068	0.231455	1.444527
H604	H	1.347068	0.481455	1.694527
H605	H	-0.094254	-0.164356	0.230616
H606	H	0.155746	0.085644	0.480616
H607	H	0.405746	0.335644	0.730616
H608	H	0.655746	0.585644	0.980616
F609	F	0.484018	-0.157124	0.220451
F610	F	0.734018	0.092876	0.470451
F611	F	0.984018	0.342876	0.720451
F612	F	1.234018	0.592876	0.970451
H613	H	0.121558	-0.135567	0.190389
H614	H	0.371558	0.114433	0.440389
H615	H	0.621558	0.364433	0.690389
H616	H	0.871558	0.614433	0.940389
H617	H	-0.179340	-0.268775	0.376445
H618	H	0.070660	-0.018775	0.626445
H619	H	0.320660	0.231225	0.876445
H620	H	0.570660	0.481225	1.126445
H621	H	0.393032	-0.164322	0.230512
H622	H	0.643032	0.085678	0.480512
H623	H	0.893032	0.335678	0.730512
H624	H	1.143032	0.585678	0.980512
H625	H	0.478172	-0.268724	0.376313
H626	H	0.728172	-0.018724	0.626313
H627	H	0.978172	0.231276	0.876313
H628	H	1.228172	0.481276	1.126313
H629	H	0.121594	-0.297510	0.416593
H630	H	0.371594	-0.047510	0.666593
H631	H	0.621594	0.202490	0.916593
H632	H	0.871594	0.452490	1.166593
F633	F	0.387201	-0.275921	0.386391
F634	F	0.637201	-0.025921	0.636391
F635	F	0.887201	0.224079	0.886391
F636	F	1.137201	0.474079	1.136391
H637	H	0.701463	-1.045052	0.230575
H638	H	0.951463	-0.795052	0.480575
H639	H	1.201463	-0.545052	0.730575
H640	H	1.451463	-0.295052	0.980575
F641	F	0.737294	-0.694311	0.180263
F642	F	0.987294	-0.444311	0.430263
F643	F	1.237294	-0.194311	0.680263
F644	F	1.487294	0.055689	0.930263
F645	F	0.030622	-0.304705	0.426663
F646	F	0.280622	-0.054705	0.676663
F647	F	0.530622	0.195295	0.926663
F648	F	0.780622	0.445295	1.176663
F649	F	0.589968	-1.050958	0.386539
F650	F	0.839968	-0.800958	0.636539
F651	F	1.089968	-0.550958	0.886539
F652	F	1.339968	-0.300958	1.136539
F653	F	0.589944	-0.954121	0.386538
F654	F	0.839944	-0.704121	0.636538
F655	F	1.089944	-0.454121	0.886538
F656	F	1.339944	-0.204121	1.136538
F657	F	0.171381	-0.304701	0.426618
F658	F	0.421381	-0.054701	0.676618
F659	F	0.671381	0.195299	0.926618
F660	F	0.921381	0.445299	1.176618
