data_functionalizedCrystal
_audit_creation_method	'MofGen! by Chris Wilmer'
_symmetry_space_group_name_H-M	'P1'
_symmetry_Int_Tables_number	1
_symmetry_cell_setting	triclinic
loop_
_symmetry_equiv_pos_as_xyz
  x,y,z
_cell_length_a	19.188933
_cell_length_b	15.995350
_cell_length_c	15.072220
_cell_angle_alpha	89.994173
_cell_angle_beta	90.003485
_cell_angle_gamma	96.681028
loop_
_atom_site_label
_atom_site_type_symbol
_atom_site_fract_x
_atom_site_fract_y
_atom_site_fract_z
O1	O	0.926410	-0.104545	0.073749
O2	O	1.426410	0.395455	0.573749
O3	O	0.723135	-0.118616	0.073756
O4	O	1.223135	0.381384	0.573756
O5	O	0.830329	0.010328	0.073751
O6	O	1.330329	0.510328	0.573751
O7	O	0.819216	-0.233488	0.073754
O8	O	1.319216	0.266512	0.573754
O9	O	0.830320	0.010339	-0.073814
O10	O	1.330320	0.510339	0.426186
O11	O	0.723126	-0.118604	-0.073809
O12	O	1.223126	0.381396	0.426191
O13	O	0.926401	-0.104533	-0.073816
O14	O	1.426401	0.395467	0.426184
Zn15	Zn	0.824762	-0.111567	-0.097242
Zn16	Zn	1.324762	0.388433	0.402758
Zn17	Zn	0.824774	-0.111582	0.097182
Zn18	Zn	1.324774	0.388418	0.597182
O19	O	0.819207	-0.233476	-0.073812
O20	O	1.319207	0.266524	0.426188
C21	C	0.829865	0.041527	-0.000029
C22	C	1.329865	0.541527	0.499971
C23	C	0.828488	0.134472	-0.000024
C24	C	1.328488	0.634472	0.499976
C25	C	0.697118	-0.118154	-0.000025
C26	C	1.197118	0.381846	0.499975
C27	C	0.619610	-0.116785	-0.000022
C28	C	1.119610	0.383215	0.499978
N29	N	0.824758	-0.111555	-0.229931
N30	N	1.324758	0.388445	0.270069
C31	C	0.066335	-0.107024	0.080406
C32	C	0.566335	0.392976	0.580406
C33	C	0.139163	-0.108305	0.080409
C34	C	0.639163	0.391695	0.580409
C35	C	0.175576	-0.108942	-0.000028
C36	C	0.675576	0.391058	0.499972
C37	C	0.139158	-0.108278	-0.080475
C38	C	0.639158	0.391722	0.419525
C39	C	0.066333	-0.106988	-0.080476
C40	C	0.566333	0.393012	0.419524
N41	N	0.284719	-0.158608	-0.059901
N42	N	0.784719	0.341392	0.440099
N43	N	0.353899	-0.159834	-0.059894
N44	N	0.853899	0.340166	0.440106
C45	C	0.394995	-0.112825	-0.000029
C46	C	0.894995	0.387175	0.499971
N47	N	0.364294	-0.064554	0.059842
N48	N	0.864294	0.435446	0.559842
N49	N	0.295107	-0.063331	0.059838
N50	N	0.795107	0.436669	0.559838
C51	C	0.254543	-0.110340	-0.000036
C52	C	0.754543	0.389660	0.499964
C53	C	0.510372	-0.114873	0.080416
C54	C	1.010372	0.385127	0.580416
C55	C	0.583201	-0.116149	0.080416
C56	C	1.083201	0.383851	0.580416
C57	C	0.583195	-0.116130	-0.080471
C58	C	1.083195	0.383870	0.419529
C59	C	0.510368	-0.114846	-0.080468
C60	C	1.010368	0.385154	0.419532
C61	C	0.473960	-0.114222	-0.000023
C62	C	0.973960	0.385778	0.499977
C63	C	0.952418	-0.104995	-0.000033
C64	C	1.452418	0.395005	0.499967
C65	C	1.029926	-0.106364	-0.000030
C66	C	1.529926	0.393636	0.499970
C67	C	0.819671	-0.264675	-0.000029
C68	C	1.319671	0.235325	0.499971
C69	C	0.821048	-0.357621	-0.000028
C70	C	1.321048	0.142379	0.499972
C71	C	0.823541	0.472201	-0.000027
C72	C	1.323541	0.972201	0.499973
C73	C	0.747199	0.424488	0.000307
C74	C	1.247199	0.924488	0.500307
C75	C	0.748577	0.327803	-0.000026
C76	C	1.248577	0.827803	0.499974
C77	C	0.825995	0.304650	-0.000025
C78	C	1.325995	0.804650	0.499975
C79	C	0.863644	0.345872	-0.084292
C80	C	1.363644	0.845872	0.415708
C81	C	0.861726	0.442500	-0.084362
C82	C	1.361726	0.942500	0.415638
C83	C	0.863314	0.442851	0.083447
C84	C	1.363314	0.942851	0.583447
C85	C	0.863296	0.345905	0.084560
C86	C	1.363296	0.845905	0.584560
C87	C	0.827385	0.209957	-0.000027
C88	C	1.327385	0.709957	0.499973
C89	C	0.822153	0.566894	-0.000031
C90	C	1.322153	1.066894	0.499969
C91	C	0.824767	-0.111566	-0.410928
C92	C	1.324767	0.388434	0.089072
C93	C	0.882138	-0.042595	-0.448572
C94	C	1.382138	0.457405	0.051428
C95	C	0.882346	-0.042777	-0.551398
C96	C	1.382346	0.457223	-0.051398
C97	C	0.824775	-0.111576	-0.589132
C98	C	1.324775	0.388424	-0.089132
C99	C	0.840385	-0.198991	-0.551787
C100	C	1.340385	0.301009	-0.051787
C101	C	0.840792	-0.198581	-0.448929
C102	C	1.340792	0.301419	0.051071
C103	C	0.751614	-0.093910	-0.448844
C104	C	1.251614	0.406090	0.051156
C105	C	0.752109	-0.091929	-0.551709
C106	C	1.252109	0.408071	-0.051709
C107	C	0.824778	-0.111587	-0.689845
C108	C	1.324778	0.388413	-0.189845
C109	C	0.824765	-0.111561	-0.310215
C110	C	1.324765	0.388439	0.189785
N111	N	0.824783	-0.111587	0.229870
N112	N	1.324783	0.388413	0.729870
H113	H	0.036697	-0.106512	0.145911
H114	H	0.536697	0.393488	0.645911
F115	F	0.827594	0.309763	0.166053
F116	F	1.327594	0.809763	0.666053
F117	F	0.471616	-0.114155	-0.166081
F118	F	0.971616	0.385845	0.333919
H119	H	0.718982	0.299268	0.060380
H120	H	1.218982	0.799268	0.560380
H121	H	0.920520	0.331954	-0.087425
H122	H	1.420520	0.831954	0.412575
H123	H	0.612843	-0.116646	-0.145964
H124	H	1.112843	0.383354	0.354036
H125	H	0.612845	-0.116680	0.145920
H126	H	1.112845	0.383320	0.645920
H127	H	0.716690	0.442904	0.060736
H128	H	1.216690	0.942904	0.560736
F129	F	0.177920	-0.109008	0.166024
F130	F	0.677920	0.390992	0.666024
F131	F	0.825829	0.466299	-0.166694
F132	F	1.325829	0.966299	0.333306
F133	F	0.177913	-0.108954	-0.166082
F134	F	0.677913	0.391046	0.333918
F135	F	0.707386	0.450241	-0.078020
F136	F	1.207386	0.950241	0.421980
F137	F	0.936883	0.484634	0.084190
F138	F	1.436883	0.984634	0.584190
F139	F	0.027582	-0.106288	-0.166091
F140	F	0.527582	0.393712	0.333909
H141	H	0.718775	0.299834	-0.060533
H142	H	1.218775	0.799834	0.439467
F143	F	0.829456	0.308660	-0.166259
F144	F	1.329456	0.808660	0.333741
H145	H	0.919752	0.330749	0.089649
H146	H	1.419752	0.830749	0.589649
H147	H	0.838358	0.463294	0.147316
H148	H	1.338358	0.963294	0.647316
H149	H	0.917775	0.474954	-0.088185
H150	H	1.417775	0.974954	0.411815
H151	H	0.873095	0.022200	-0.576649
H152	H	1.373095	0.522200	-0.076649
F153	F	0.870246	0.042624	-0.416257
F154	F	1.370246	0.542624	0.083743
H155	H	0.480728	-0.114362	0.145920
H156	H	0.980728	0.385638	0.645920
H157	H	0.936122	-0.053713	-0.422708
H158	H	1.436122	0.446287	0.077292
F159	F	0.953309	-0.057541	-0.583559
F160	F	1.453309	0.442459	-0.083559
H161	H	0.894132	-0.214129	-0.424934
H162	H	1.394132	0.285871	0.075066
F163	F	0.788638	-0.268114	-0.416377
F164	F	1.288638	0.231886	0.083623
H165	H	0.799698	-0.251557	-0.576227
H166	H	1.299698	0.248443	-0.076227
F167	F	0.909307	-0.219814	-0.585450
F168	F	1.409307	0.280186	-0.085450
F169	F	0.731911	-0.012365	-0.414953
F170	F	1.231911	0.487635	0.085047
F171	F	0.736607	-0.007885	-0.583630
F172	F	1.236607	0.492115	-0.083630
F173	F	0.693720	-0.153335	-0.585273
F174	F	1.193720	0.346665	-0.085273
H175	H	0.708924	-0.144208	-0.424499
H176	H	1.208924	0.355792	0.075501
