data_functionalizedCrystal
_audit_creation_method	'MofGen! by Chris Wilmer'
_symmetry_space_group_name_H-M	'P1'
_symmetry_Int_Tables_number	1
_symmetry_cell_setting	triclinic
loop_
_symmetry_equiv_pos_as_xyz
  x,y,z
_cell_length_a	21.395364
_cell_length_b	12.827892
_cell_length_c	21.395356
_cell_angle_alpha	89.977501
_cell_angle_beta	89.976411
_cell_angle_gamma	90.030343
loop_
_atom_site_label
_atom_site_type_symbol
_atom_site_fract_x
_atom_site_fract_y
_atom_site_fract_z
Zn1	Zn	0.957920	-0.415643	-0.354284
Zn2	Zn	0.957852	-0.590397	-0.249516
Zn3	Zn	0.853137	-0.415716	-0.249521
Zn4	Zn	0.853132	-0.590388	-0.354256
O5	O	0.905510	-0.503036	-0.301894
O6	O	1.045589	-0.438797	-0.340396
O7	O	0.943935	-0.567260	-0.161839
O8	O	0.867067	-0.269471	-0.263431
O9	O	1.045539	-0.567189	-0.263423
O10	O	0.944050	-0.269416	-0.340401
O11	O	0.867001	-0.438923	-0.161842
O12	O	0.765458	-0.438914	-0.263405
O13	O	0.867059	-0.567173	-0.441938
O14	O	0.765455	-0.567244	-0.340353
O15	O	0.944046	-0.438788	-0.441958
O16	O	0.943931	-0.736632	-0.263397
O17	O	0.866993	-0.736625	-0.340349
C18	C	0.742723	-0.503087	-0.301877
C19	C	0.673081	-0.503134	-0.301884
C20	C	0.640417	-0.436390	-0.342026
C21	C	0.574981	-0.436362	-0.342028
C22	C	0.542213	-0.503097	-0.301895
C23	C	0.574886	-0.569846	-0.261746
C24	C	0.640320	-0.569864	-0.261740
C25	C	0.438504	-0.597208	-0.296863
C26	C	0.373071	-0.597191	-0.296873
C27	C	0.340392	-0.503039	-0.301909
C28	C	0.373155	-0.408902	-0.306949
C29	C	0.438589	-0.408920	-0.306943
C30	C	0.471261	-0.503084	-0.301897
C31	C	0.236775	-0.436260	-0.342056
C32	C	0.171338	-0.436230	-0.342054
C33	C	0.171244	-0.569723	-0.261775
C34	C	0.236680	-0.569743	-0.261774
C35	C	0.269441	-0.503013	-0.301917
C36	C	0.905471	-0.774546	-0.301883
C37	C	0.905512	-0.890699	-0.301899
C38	C	0.943589	-0.942374	-0.340020
C39	C	0.943631	-1.062424	-0.340037
C40	C	1.068933	-0.502986	-0.301912
C41	C	1.138575	-0.502964	-0.301920
C42	C	0.905559	-0.502971	-0.465318
C43	C	0.905580	-0.502944	-0.534959
C44	C	0.905567	-0.230466	-0.301920
C45	C	0.905591	-0.114313	-0.301930
C46	C	0.865532	-0.436111	-0.567664
C47	C	0.865530	-0.436092	-0.633099
C48	C	0.905587	-0.502894	-0.665827
C49	C	0.945639	-0.569740	-0.633114
C50	C	0.945636	-0.569764	-0.567680
C51	C	0.962041	-0.511085	-0.769514
C52	C	0.962045	-0.511053	-0.834947
C53	C	0.905598	-0.502823	-0.867648
C54	C	0.849144	-0.494604	-0.834908
C55	C	0.849141	-0.494629	-0.769474
C56	C	0.905595	-0.502875	-0.736780
C57	C	0.865543	-0.435966	-0.971306
C58	C	0.865540	-0.435954	-1.036742
C59	C	0.945655	-0.569597	-1.036756
C60	C	0.945653	-0.569614	-0.971321
C61	C	0.905598	-0.502793	-0.938600
C62	C	0.905497	-0.503025	-0.139107
C63	C	0.905598	-0.502758	-0.069466
H64	H	0.263451	-0.381917	-0.374739
C65	C	0.272616	-0.643171	-0.217625
H66	H	0.316278	-0.633620	-0.223366
H67	H	0.261867	-0.713401	-0.226723
H68	H	0.261878	-0.627776	-0.175541
C69	C	0.989715	-0.643118	-0.935343
H70	H	1.013576	-0.682895	-0.964205
H71	H	0.965739	-0.688668	-0.909802
H72	H	1.017023	-0.603133	-0.909834
H73	H	0.144565	-0.624060	-0.229098
H74	H	0.548380	-0.382006	-0.374715
H75	H	0.978254	-0.624131	-0.659766
H76	H	0.144744	-0.381873	-0.374741
H77	H	0.978251	-0.624187	-0.541052
H78	H	0.465261	-0.332270	-0.311044
C79	C	0.676451	-0.362977	-0.386174
H80	H	0.647621	-0.323214	-0.410077
H81	H	0.701977	-0.403011	-0.413431
H82	H	0.701980	-0.317393	-0.362244
H83	H	0.872941	-0.935335	-0.269278
H84	H	0.346549	-0.332234	-0.311050
C85	C	0.821470	-0.362616	-0.531674
H86	H	0.797615	-0.322815	-0.560528
H87	H	0.845446	-0.317088	-0.506161
H88	H	0.794156	-0.402612	-0.506136
H89	H	1.008013	-0.517741	-0.861599
H90	H	1.008011	-0.517778	-0.742894
H91	H	0.832927	-0.381557	-0.944663
H92	H	0.346401	-0.673844	-0.292773
H93	H	0.465105	-0.673883	-0.292761
C94	C	0.538847	-0.643255	-0.217601
H95	H	0.567675	-0.683005	-0.193689
H96	H	0.513314	-0.688834	-0.241523
H97	H	0.513324	-0.603206	-0.190343
C98	C	0.676253	-0.643295	-0.217588
H99	H	0.647368	-0.683042	-0.193688
H100	H	0.701786	-0.603272	-0.190329
H101	H	0.701767	-0.688891	-0.241515
C102	C	0.987587	-0.882084	-0.384092
H103	H	0.981790	-0.809306	-0.378296
H104	H	0.978415	-0.899893	-0.426194
H105	H	1.029708	-0.899851	-0.374968
H106	H	0.976233	-1.106863	-0.372672
H107	H	0.832923	-0.381534	-1.063370
H108	H	0.872992	-1.069881	-0.269289
C109	C	0.821478	-0.362566	-0.669083
H110	H	0.797626	-0.322770	-0.640223
H111	H	0.794171	-0.402531	-0.694598
H112	H	0.845468	-0.317019	-0.694618
C113	C	0.787049	-0.485600	-0.733459
H114	H	0.795134	-0.486788	-0.689807
H115	H	0.760682	-0.542451	-0.744167
H116	H	0.767027	-0.421977	-0.744179
C117	C	0.787047	-0.485581	-0.870870
H118	H	0.795131	-0.486764	-0.914529
H119	H	0.767013	-0.421980	-0.860154
H120	H	0.760691	-0.542457	-0.860122
H121	H	0.978272	-0.623986	-1.063403
