data_functionalizedCrystal
_audit_creation_method	'MofGen! by Chris Wilmer'
_symmetry_space_group_name_H-M	'P1'
_symmetry_Int_Tables_number	1
_symmetry_cell_setting	triclinic
loop_
_symmetry_equiv_pos_as_xyz
  x,y,z
_cell_length_a	30.700949
_cell_length_b	30.711328
_cell_length_c	30.700811
_cell_angle_alpha	59.996513
_cell_angle_beta	89.996803
_cell_angle_gamma	59.999829
loop_
_atom_site_label
_atom_site_type_symbol
_atom_site_fract_x
_atom_site_fract_y
_atom_site_fract_z
O1	O	0.371244	-0.384093	0.683021
O2	O	0.307905	-0.294925	0.530484
O3	O	0.307902	-0.384088	0.619676
O4	O	0.371247	-0.294930	0.593829
O5	O	0.235457	-0.311667	0.619676
O6	O	0.235460	-0.222504	0.530484
O7	O	0.298799	-0.311671	0.683021
Zn8	Zn	0.255627	-0.255589	0.606752
Zn9	Zn	0.351076	-0.351007	0.606753
O10	O	0.298802	-0.222508	0.593829
C11	C	0.371914	-0.137110	0.587946
C12	C	0.345035	-0.083372	0.591645
C13	C	0.424335	-0.163187	0.587578
C14	C	0.371915	-0.215960	0.587946
C15	C	0.345036	-0.246527	0.591645
C16	C	0.424336	-0.241917	0.587578
C17	C	0.450790	-0.215959	0.587946
C18	C	0.508246	-0.246526	0.591645
C19	C	0.345579	-0.163188	0.587578
C20	C	0.110279	-0.071081	0.102848
C21	C	0.057858	-0.018309	0.076513
C22	C	0.110280	-0.071079	0.181723
C23	C	0.057859	-0.018307	0.155268
C24	C	0.031404	0.007769	0.102848
C25	C	0.136615	-0.097037	0.155268
C26	C	0.238042	-0.213079	0.054685
C27	C	0.263043	-0.242109	0.029859
C28	C	0.236090	-0.217194	-0.022087
C29	C	0.263192	-0.248674	-0.049003
C30	C	0.184137	-0.163243	-0.049207
C31	C	0.159143	-0.134213	-0.024384
C32	C	0.186098	-0.159134	0.027565
C33	C	-0.158805	0.183635	-0.024913
C34	C	-0.212671	0.233445	-0.049914
C35	C	-0.239694	0.258432	-0.022964
C36	C	-0.298099	0.312432	-0.050063
C37	C	-0.212845	0.233608	0.028989
C38	C	-0.158979	0.183807	0.053985
C39	C	-0.131963	0.158820	0.027028
C40	C	0.238046	-0.213072	0.371931
C41	C	0.263046	-0.242104	0.425798
C42	C	0.236095	-0.217187	0.452820
C43	C	0.263197	-0.248665	0.511227
C44	C	0.184143	-0.163241	0.425974
C45	C	0.159146	-0.134213	0.372108
C46	C	0.186104	-0.159130	0.345089
C47	C	0.158989	-0.127654	0.054479
C48	C	0.137383	-0.102561	0.075933
C49	C	0.137385	-0.102557	0.240128
C50	C	0.158992	-0.127648	0.286682
C51	C	-0.027001	0.061769	0.075744
C52	C	-0.073556	0.104815	0.054138
C53	C	0.031746	-0.535519	0.645984
C54	C	0.058201	-0.588291	0.646353
C55	C	0.110622	-0.535520	0.645984
C56	C	0.136957	-0.588291	0.646353
C57	C	0.110622	-0.614369	0.645984
C58	C	0.058201	-0.509562	0.646353
C59	C	-0.158462	-0.393523	0.631704
C60	C	-0.212327	-0.364493	0.627666
C61	C	-0.239348	-0.389410	0.625639
C62	C	-0.297755	-0.357931	0.621251
C63	C	-0.212500	-0.443361	0.627655
C64	C	-0.158637	-0.472390	0.631699
C65	C	-0.131618	-0.447469	0.633724
C66	C	0.158787	-0.790237	0.631704
C67	C	0.183614	-0.840048	0.627666
C68	C	0.235558	-0.865034	0.625637
C69	C	0.262478	-0.919035	0.621252
C70	C	0.262678	-0.840209	0.627652
C71	C	0.237856	-0.790408	0.631699
C72	C	0.185905	-0.765422	0.633722
C73	C	0.158787	-0.393524	0.631704
C74	C	0.183611	-0.364490	0.627659
C75	C	0.235558	-0.389407	0.625632
C76	C	0.262476	-0.357928	0.621245
C77	C	0.262676	-0.443353	0.627645
C78	C	0.237849	-0.472382	0.631688
C79	C	0.185905	-0.447465	0.633722
C80	C	-0.073213	-0.478948	0.638105
C81	C	-0.026659	-0.504040	0.641599
C82	C	0.137537	-0.504041	0.641599
C83	C	0.158992	-0.478949	0.638105
C84	C	0.137537	-0.668370	0.641599
C85	C	0.158992	-0.711416	0.638105
O86	O	0.682986	-0.384087	0.619676
O87	O	0.530454	-0.294928	0.593829
O88	O	0.619641	-0.384091	0.683021
O89	O	0.593799	-0.294924	0.530484
O90	O	0.619639	-0.311670	0.683021
O91	O	0.530452	-0.222507	0.593829
O92	O	0.682984	-0.311665	0.619676
Zn93	Zn	0.606718	-0.255587	0.606752
Zn94	Zn	0.606721	-0.351006	0.606752
O95	O	0.593797	-0.222502	0.530484
O96	O	0.307902	0.063287	0.619676
O97	O	0.371245	-0.063355	0.593829
O98	O	0.371243	-0.063359	0.683021
O99	O	0.307904	0.063292	0.530484
O100	O	0.298798	-0.063359	0.683021
O101	O	0.298800	-0.063354	0.593829
O102	O	0.235457	0.063288	0.619676
Zn103	Zn	0.255626	-0.000033	0.606753
Zn104	Zn	0.351076	-0.000034	0.606752
O105	O	0.235459	0.063292	0.530484
O106	O	-0.469889	0.456752	-0.085662
O107	O	-0.317357	0.330111	-0.022323
O108	O	-0.406544	0.330105	-0.022313
O109	O	-0.380703	0.456757	-0.085672
O110	O	-0.406545	0.330104	-0.094757
O111	O	-0.317359	0.330110	-0.094768
O112	O	-0.469891	0.456750	-0.158107
Zn113	Zn	-0.393625	0.393430	-0.137939
Zn114	Zn	-0.393623	0.393432	-0.042490
O115	O	-0.380704	0.456756	-0.158117
O116	O	0.298795	-0.311683	-0.157766
O117	O	0.235452	-0.222519	-0.094427
O118	O	0.235455	-0.311685	-0.094416
O119	O	0.298792	-0.222517	-0.157776
O120	O	0.307900	-0.384104	-0.021972
O121	O	0.307898	-0.294939	-0.021982
O122	O	0.371241	-0.384102	-0.085321
Zn123	Zn	0.351071	-0.351019	-0.042149
Zn124	Zn	0.255621	-0.255603	-0.137598
O125	O	0.371238	-0.294936	-0.085331
C126	C	0.450784	-0.469499	0.841565
C127	C	0.508239	-0.523240	0.868444
C128	C	0.424329	-0.443423	0.867900
C129	C	0.371910	-0.390645	0.762687
C130	C	0.345033	-0.360075	0.705229
C131	C	0.345575	-0.364689	0.789142
C132	C	0.371909	-0.390649	0.841565
C133	C	0.345030	-0.360084	0.868444
C134	C	0.424330	-0.443419	0.789142
C135	C	0.625519	-0.390645	0.841564
C136	C	0.621837	-0.360087	0.868447
C137	C	0.625865	-0.443403	0.867894
C138	C	0.625512	-0.390637	0.762684
C139	C	0.621821	-0.360071	0.705228
C140	C	0.625858	-0.443396	0.789134
C141	C	0.625482	-0.469470	0.841555
C142	C	0.621759	-0.523193	0.868427
C143	C	0.625895	-0.364690	0.789144
C144	C	0.371910	-0.215973	0.841566
C145	C	0.345032	-0.246542	0.868446
C146	C	0.424330	-0.241932	0.867900
C147	C	0.371910	-0.137119	0.762687
C148	C	0.345032	-0.083378	0.705229
C149	C	0.424331	-0.163197	0.789141
C150	C	0.450785	-0.215972	0.841564
C151	C	0.508240	-0.246540	0.868442
C152	C	0.345575	-0.163199	0.789143
C153	C	0.567502	0.007469	0.102835
C154	C	0.567135	-0.018607	0.076499
C155	C	0.567501	-0.071386	0.181712
C156	C	0.567134	-0.097342	0.155256
C157	C	0.567504	-0.071380	0.102833
C158	C	0.567132	-0.018613	0.155258
C159	C	0.581779	0.183341	0.054673
C160	C	0.585817	0.233154	0.029847
C161	C	0.587845	0.258144	-0.022101
C162	C	0.592232	0.312148	-0.049018
C163	C	0.585831	0.233321	-0.049223
C164	C	0.581787	0.183518	-0.024399
C165	C	0.579761	0.158528	0.027551
C166	C	0.581790	-0.133793	-0.024937
C167	C	0.585829	-0.162646	-0.049940
C168	C	0.587859	-0.216603	-0.022991
C169	C	0.592246	-0.247895	-0.050092
C170	C	0.585842	-0.241703	0.028964
C171	C	0.581793	-0.212847	0.053963
C172	C	0.579771	-0.158889	0.027006
C173	C	0.581774	-0.133824	0.371927
C174	C	0.585817	-0.162687	0.425796
C175	C	0.587844	-0.216644	0.452817
C176	C	0.592230	-0.247943	0.511226
C177	C	0.585833	-0.241738	0.425969
C178	C	0.581792	-0.212876	0.372103
C179	C	0.579758	-0.158914	0.345084
C180	C	0.575381	0.104520	0.054466
C181	C	0.571887	0.061472	0.075920
C182	C	0.571884	-0.102681	0.240119
C183	C	0.575377	-0.127624	0.286675
C184	C	0.571891	-0.102668	0.075727
C185	C	0.575386	-0.127606	0.054119
O186	O	0.593841	-0.294958	0.978031
O187	O	0.619646	-0.384102	0.914681
O188	O	0.530474	-0.294918	0.914675
O189	O	0.683012	-0.384142	0.978037
O190	O	0.530502	-0.222513	0.842234
O191	O	0.619673	-0.311697	0.842240
O192	O	0.593868	-0.222553	0.905590
Zn193	Zn	0.606775	-0.255629	0.862413
Zn194	Zn	0.606739	-0.351026	0.957858
O195	O	0.683040	-0.311737	0.905596
C196	C	0.031766	0.464509	0.102834
C197	C	0.058222	0.490467	0.076499
C198	C	0.110639	0.385655	0.181713
C199	C	0.136975	0.411733	0.155258
C200	C	0.110642	0.464508	0.102835
C201	C	0.058218	0.411735	0.155257
C202	C	-0.158442	0.526939	0.054666
C203	C	-0.212307	0.555795	0.029838
C204	C	-0.239326	0.609753	-0.022110
C205	C	-0.297732	0.641050	-0.049029
C206	C	-0.212476	0.634850	-0.049231
C207	C	-0.158614	0.605989	-0.024405
C208	C	-0.131597	0.552031	0.027545
C209	C	0.158813	0.606507	-0.024931
C210	C	0.183641	0.635537	-0.049932
C211	C	0.235585	0.610622	-0.022981
C212	C	0.262506	0.642097	-0.050081
C213	C	0.262703	0.556669	0.028974
C214	C	0.237880	0.527635	0.053971
C215	C	0.185929	0.552563	0.027013
C216	C	0.158796	0.209777	0.371926
C217	C	0.183617	0.159968	0.425795
C218	C	0.235563	0.134980	0.452818
C219	C	0.262479	0.080976	0.511226
C220	C	0.262683	0.159805	0.425971
C221	C	0.237859	0.209614	0.372104
C222	C	0.185915	0.234593	0.345084
C223	C	-0.073193	0.520744	0.054462
C224	C	-0.026638	0.495802	0.075917
C225	C	0.137552	0.331651	0.240119
C226	C	0.159004	0.288602	0.286675
C227	C	0.137559	0.495987	0.075731
C228	C	0.159015	0.521079	0.054124
H229	H	0.445568	-0.141353	0.586975
C230	C	0.453015	-0.472905	0.926086
H231	H	0.429734	-0.449805	0.938049
H232	H	0.484002	-0.473118	0.928121
H233	H	0.462997	-0.513981	0.947986
C234	C	0.588034	0.260454	0.059678
H235	H	0.590727	0.293700	0.037452
H236	H	0.618229	0.229580	0.091332
H237	H	0.556505	0.274937	0.068647
H238	H	0.445566	-0.141365	0.767900
H239	H	0.036954	-0.467087	0.646929
H240	H	0.445573	-0.465242	0.767903
H241	H	0.116490	-0.373229	0.633355
H242	H	0.445566	-0.284396	0.910974
H243	H	0.580153	-0.233311	0.350246
H244	H	0.587479	0.253675	-0.091520
C245	C	0.319819	-0.470768	0.625422
H246	H	0.330725	-0.445759	0.622733
H247	H	0.320657	-0.472218	0.595224
H248	H	0.343330	-0.511241	0.656949
C249	C	0.287392	-0.133715	0.760450
H250	H	0.275427	-0.156819	0.783725
H251	H	0.285360	-0.133493	0.729458
H252	H	0.265494	-0.092642	0.750474
C253	C	0.566333	-0.154708	0.183946
H254	H	0.566168	-0.166508	0.219022
H255	H	0.597104	-0.187500	0.185758
H256	H	0.535224	-0.145498	0.164757
H257	H	0.302507	-0.141360	0.586983
C258	C	0.579575	-0.240452	0.111106
H259	H	0.576873	-0.215536	0.122132
H260	H	0.611098	-0.280934	0.134563
H261	H	0.549375	-0.241906	0.111875
H262	H	-0.136811	0.163296	-0.046866
C263	C	0.267684	-0.763102	0.633916
H264	H	0.245459	-0.729865	0.636617
H265	H	0.276655	-0.748620	0.602391
H266	H	0.299337	-0.793978	0.664117
C267	C	0.588068	-0.301050	0.058612
H268	H	0.586283	-0.311862	0.093130
H269	H	0.620505	-0.333462	0.061844
H270	H	0.558782	-0.294434	0.039155
C271	C	0.029167	0.011179	0.183957
H272	H	0.052441	-0.011923	0.219032
H273	H	-0.001824	0.011398	0.185774
H274	H	0.019190	0.052252	0.164766
H275	H	0.179687	-0.139500	0.176504
H276	H	-0.234527	0.253651	-0.092212
H277	H	0.566532	0.003231	0.033422
H278	H	0.566530	0.003218	0.176494
C279	C	-0.129451	0.156503	0.111127
H280	H	-0.153257	0.178512	0.123602
H281	H	-0.100265	0.159752	0.111176
H282	H	-0.116621	0.114397	0.133862
C283	C	0.453026	-0.299269	0.586759
H284	H	0.488098	-0.311056	0.586589
H285	H	0.433831	-0.290054	0.555653
H286	H	0.454855	-0.332080	0.617536
H287	H	0.587453	-0.142249	0.447652
C288	C	0.195155	0.382256	0.183953
H289	H	0.207118	0.347029	0.219030
H290	H	0.197181	0.411210	0.185763
H291	H	0.217060	0.370337	0.164769
C292	C	0.029176	0.011196	0.018318
H293	H	0.052451	-0.011904	0.006352
H294	H	0.019209	0.052264	-0.003562
H295	H	-0.001822	0.011428	0.016264
H296	H	0.580118	-0.089886	0.349931
C297	C	0.154494	-0.135838	-0.106343
H298	H	0.176819	-0.160856	-0.117243
H299	H	0.145530	-0.095367	-0.129862
H300	H	0.122845	-0.134394	-0.107171
H301	H	0.304981	0.139458	0.447977
H302	H	0.305346	-0.286029	0.447654
C303	C	0.267701	-0.240478	0.342211
H304	H	0.302218	-0.276766	0.365914
H305	H	0.270930	-0.211277	0.313019
H306	H	0.248248	-0.250307	0.329370
H307	H	0.304997	0.536383	0.050919
C308	C	0.579544	0.155862	0.111812
H309	H	0.581315	0.177782	0.124406
H310	H	0.608826	0.113752	0.134485
H311	H	0.547103	0.159110	0.111793
H312	H	0.036982	0.532934	0.033426
C313	C	0.153814	0.694881	-0.107074
H314	H	0.176041	0.708598	-0.118102
H315	H	0.122161	0.725836	-0.107843
H316	H	0.144845	0.686816	-0.130533
C317	C	0.626715	-0.307337	0.760452
H318	H	0.626881	-0.295545	0.725377
H319	H	0.657820	-0.316546	0.779643
H320	H	0.595940	-0.274532	0.758626
H321	H	0.162198	-0.142952	0.447978
H322	H	0.580140	0.163317	-0.046488
H323	H	0.580140	-0.089859	-0.046890
H324	H	0.587470	-0.142205	-0.092241
H325	H	-0.234846	0.253959	0.050930
H326	H	0.259996	-0.233375	0.096982
H327	H	0.305342	-0.286035	0.051944
H328	H	0.626458	-0.465228	0.910967
H329	H	0.161523	-0.320559	0.626011
H330	H	0.626396	-0.465182	0.767875
C331	C	0.287426	-0.307251	0.760416
H332	H	0.275472	-0.295429	0.725328
H333	H	0.285479	-0.274510	0.758629
H334	H	0.265463	-0.316364	0.779556
H335	H	0.587485	-0.285676	0.447974
C336	C	0.029529	0.382246	0.183948
H337	H	-0.005545	0.405348	0.160672
H338	H	0.027714	0.382020	0.214942
H339	H	0.048719	0.341175	0.193921
H340	H	0.161531	0.139760	0.447651
H341	H	0.116500	0.230115	0.349929
C342	C	-0.128726	0.467585	0.111805
H343	H	-0.152428	0.456768	0.124398
H344	H	-0.115886	0.474191	0.134478
H345	H	-0.099535	0.435173	0.111786
C346	C	-0.241838	0.528194	0.059671
H347	H	-0.218035	0.491931	0.094167
H348	H	-0.254674	0.518298	0.040290
H349	H	-0.271021	0.557327	0.062971
C350	C	-0.242196	0.694199	-0.106368
H351	H	-0.278122	0.707797	-0.117269
H352	H	-0.225229	0.686201	-0.129886
H353	H	-0.241579	0.725221	-0.107197
C354	C	-0.129084	0.633595	-0.054234
H355	H	-0.152889	0.669866	-0.088726
H356	H	-0.099897	0.604470	-0.057534
H357	H	-0.116255	0.643493	-0.034847
C358	C	0.101676	0.633920	-0.054585
H359	H	0.089085	0.670203	-0.089107
H360	H	0.079004	0.643747	-0.035133
H361	H	0.101695	0.604720	-0.057816
C362	C	0.267707	0.468294	0.111115
H363	H	0.302197	0.457612	0.123590
H364	H	0.271006	0.435819	0.111165
H365	H	0.248320	0.474847	0.133848
C366	C	0.102000	-0.074875	-0.054211
H367	H	0.090976	-0.061153	-0.031987
H368	H	0.078545	-0.082942	-0.063178
H369	H	0.101230	-0.043915	-0.085868
C370	C	0.102005	-0.074871	0.342579
H371	H	0.089536	-0.064185	0.366383
H372	H	0.079270	-0.081417	0.329747
H373	H	0.101961	-0.042397	0.313392
C374	C	0.195143	-0.617781	0.647162
H375	H	0.207110	-0.594680	0.647328
H376	H	0.197184	-0.618005	0.616392
H377	H	0.217036	-0.658853	0.678275
H378	H	0.259944	0.229823	0.350249
C379	C	-0.129102	-0.531738	0.633930
H380	H	-0.093151	-0.545461	0.636635
H381	H	-0.146134	-0.523683	0.602409
H382	H	-0.129792	-0.562690	0.664134
H383	H	-0.136467	-0.373227	0.633354
C384	C	0.029510	-0.617774	0.647152
H385	H	-0.005568	-0.594667	0.647309
H386	H	0.048696	-0.658847	0.678257
H387	H	0.027696	-0.617986	0.616375
H388	H	-0.234183	-0.320567	0.626024
H389	H	0.116489	-0.769899	0.633354
C390	C	-0.242222	-0.470764	0.625424
H391	H	-0.278148	-0.445747	0.622723
H392	H	-0.225257	-0.511236	0.656944
H393	H	-0.241605	-0.472207	0.595219
H394	H	0.161528	-0.860254	0.626023
H395	H	0.304976	-0.860559	0.626007
H396	H	0.259933	-0.516306	0.633326
