data_functionalizedCrystal
_audit_creation_method	'MofGen! by Chris Wilmer'
_symmetry_space_group_name_H-M	'P1'
_symmetry_Int_Tables_number	1
_symmetry_cell_setting	triclinic
loop_
_symmetry_equiv_pos_as_xyz
  x,y,z
_cell_length_a	11.169417
_cell_length_b	12.759394
_cell_length_c	11.169409
_cell_angle_alpha	89.965534
_cell_angle_beta	89.979747
_cell_angle_gamma	90.016086
loop_
_atom_site_label
_atom_site_type_symbol
_atom_site_fract_x
_atom_site_fract_y
_atom_site_fract_z
Zn1	Zn	1.834934	-0.418147	-0.678515
Zn2	Zn	1.834805	-0.593873	-0.477824
Zn3	Zn	1.634217	-0.418212	-0.477850
Zn4	Zn	1.634211	-0.593788	-0.678470
O5	O	1.734542	-0.506005	-0.578165
O6	O	2.002866	-0.441465	-0.651900
O7	O	1.808145	-0.570633	-0.309877
O8	O	1.660899	-0.271182	-0.504498
O9	O	2.002771	-0.570570	-0.504454
O10	O	1.808364	-0.271135	-0.651926
O11	O	1.660774	-0.441576	-0.309897
O12	O	1.466266	-0.441495	-0.504455
O13	O	1.660889	-0.570427	-0.846426
O14	O	1.466262	-0.570490	-0.651849
O15	O	1.808359	-0.441384	-0.846458
O16	O	1.808139	-0.740883	-0.504410
O17	O	1.660764	-0.740821	-0.651824
C18	C	1.422717	-0.505991	-0.578151
C19	C	1.289317	-0.506010	-0.578173
C20	C	1.734470	-0.778973	-0.578136
C21	C	1.734548	-0.895749	-0.578163
C22	C	1.888125	-0.895760	-0.424776
C23	C	1.964945	-0.950627	-0.348097
C24	C	1.965015	-1.060348	-0.348130
C25	C	1.888260	-1.115206	-0.424852
C26	C	1.811441	-1.060340	-0.501532
C27	C	1.811376	-0.950616	-0.501488
C28	C	1.657872	-1.060329	-0.654923
C29	C	1.657793	-0.950607	-0.654886
C30	C	1.581117	-1.115186	-0.731646
C31	C	1.504289	-1.060320	-0.808321
C32	C	1.504221	-0.950592	-0.808284
C33	C	1.580974	-0.895741	-0.731565
C34	C	2.047584	-0.506020	-0.578179
C35	C	2.180984	-0.506026	-0.578185
C36	C	1.734638	-0.505889	-0.891207
C37	C	1.734679	-0.505839	-1.024607
C38	C	1.734647	-0.231972	-0.578220
C39	C	1.734691	-0.115195	-0.578244
C40	C	1.734515	-0.506045	-0.266340
C41	C	1.734706	-0.505799	-0.132940
H42	H	2.027441	-0.905952	-0.285632
O43	O	2.039675	-1.113488	-0.273533
C44	C	2.107431	-1.041549	-0.205833
H45	H	2.058233	-0.963370	-0.201609
H46	H	2.198558	-1.029784	-0.249850
C47	C	2.185232	-1.180485	-0.083316
C48	C	2.124801	-1.084467	-0.078120
H49	H	2.195953	-1.206959	-0.004538
H50	H	2.139587	-1.228953	-0.128929
H51	H	2.261165	-1.170668	-0.120002
H52	H	2.048865	-1.094288	-0.041448
H53	H	2.170434	-1.036002	-0.032498
O54	O	1.888449	-1.221789	-0.424704
C55	C	1.972740	-1.258452	-0.340603
H56	H	1.989535	-1.195267	-0.270470
H57	H	2.060245	-1.277812	-0.388271
C58	C	1.903290	-1.435304	-0.365223
C59	C	1.923912	-1.357702	-0.279078
H60	H	1.873175	-1.496529	-0.327275
H61	H	1.846505	-1.410605	-0.421887
H62	H	1.976217	-1.451425	-0.404939
H63	H	1.850983	-1.341573	-0.239375
H64	H	1.980684	-1.382401	-0.222407
H65	H	1.441670	-0.905925	-0.870730
O66	O	1.581073	-1.221769	-0.731874
C67	C	1.496839	-1.258419	-0.816011
H68	H	1.479965	-1.195142	-0.886095
H69	H	1.409356	-1.277991	-0.768366
C70	C	1.566522	-1.435207	-0.791528
C71	C	1.545804	-1.357493	-0.877612
H72	H	1.596721	-1.496323	-0.829523
H73	H	1.623269	-1.410517	-0.734840
H74	H	1.493613	-1.451504	-0.751831
H75	H	1.618714	-1.341187	-0.917296
H76	H	1.489069	-1.382182	-0.934308
H77	H	1.888060	-0.806419	-0.424727
H78	H	1.441807	-1.104994	-0.870788
H79	H	1.580918	-0.806400	-0.731520
