data_functionalizedCrystal
_audit_creation_method	'MofGen! by Chris Wilmer'
_symmetry_space_group_name_H-M	'P1'
_symmetry_Int_Tables_number	1
_symmetry_cell_setting	triclinic
loop_
_symmetry_equiv_pos_as_xyz
  x,y,z
_cell_length_a	19.188930
_cell_length_b	19.188930
_cell_length_c	18.266242
_cell_angle_alpha	90.022918
_cell_angle_beta	89.988525
_cell_angle_gamma	96.855221
loop_
_atom_site_label
_atom_site_type_symbol
_atom_site_fract_x
_atom_site_fract_y
_atom_site_fract_z
O1	O	0.087169	-0.926149	-0.061124
O2	O	0.098903	-0.722838	-0.061075
O3	O	-0.008620	-0.830361	-0.061087
O4	O	0.194691	-0.818627	-0.061113
O5	O	-0.008625	-0.830343	0.060675
O6	O	0.098897	-0.722820	0.060687
O7	O	0.087163	-0.926131	0.060638
Zn8	Zn	0.093029	-0.824473	0.079994
Zn9	Zn	0.093037	-0.824497	-0.080432
O10	O	0.194686	-0.818608	0.060649
C11	C	0.098520	-0.696818	-0.000188
C12	C	0.097380	-0.619313	-0.000169
N13	N	0.093024	-0.824461	0.189481
C14	C	-0.034634	-0.829972	-0.000204
C15	C	-0.112138	-0.828831	-0.000197
C16	C	-0.157062	-0.891922	-0.000209
C17	C	-0.229886	-0.890850	-0.000220
C18	C	-0.257782	-0.826684	-0.000206
C19	C	-0.212849	-0.763585	-0.000198
C20	C	-0.140026	-0.764658	-0.000194
N21	N	-0.365789	-0.777631	0.041244
N22	N	-0.434968	-0.776615	0.041242
C23	C	-0.477191	-0.823446	-0.000220
N24	N	-0.447624	-0.871341	-0.041669
N25	N	-0.378439	-0.872359	-0.041664
C26	C	-0.336745	-0.825513	-0.000210
C27	C	-0.601079	-0.885379	-0.000245
C28	C	-0.673904	-0.884305	-0.000261
C29	C	-0.656865	-0.757038	-0.000231
C30	C	-0.584042	-0.758114	-0.000222
C31	C	-0.556154	-0.822287	-0.000226
C32	C	0.220700	-0.818997	-0.000236
C33	C	0.298204	-0.820138	-0.000247
C34	C	0.087546	-0.952151	-0.000252
C35	C	0.088687	-1.029656	-0.000276
C36	C	0.160470	-0.574389	-0.000188
C37	C	0.159399	-0.501566	-0.000196
C38	C	0.095233	-0.473669	-0.000199
C39	C	0.032133	-0.518603	-0.000175
C40	C	0.033207	-0.591425	-0.000160
N41	N	0.046188	-0.365695	-0.041663
N42	N	0.045172	-0.296516	-0.041679
C43	C	0.091994	-0.254260	-0.000243
N44	N	0.139881	-0.283795	0.041200
N45	N	0.140899	-0.352980	0.041213
C46	C	0.094062	-0.394707	-0.000215
C47	C	0.153928	-0.130372	-0.000270
C48	C	0.152853	-0.057547	-0.000274
C49	C	0.025586	-0.074586	-0.000261
C50	C	0.026662	-0.147409	-0.000250
C51	C	0.090835	-0.175298	-0.000258
N52	N	0.093037	-0.824513	-0.189919
C53	C	0.045436	-0.872088	0.227785
C54	C	0.045433	-0.872092	0.304430
C55	C	0.093030	-0.824477	0.342768
C56	C	0.140621	-0.776841	0.304455
C57	C	0.140618	-0.776834	0.227812
N58	N	0.154837	-0.815401	0.463094
N59	N	0.154838	-0.815413	0.535902
C60	C	0.093040	-0.824496	0.573691
N61	N	0.031239	-0.833582	0.535920
N62	N	0.031240	-0.833574	0.463106
C63	C	0.093038	-0.824480	0.425875
C64	C	0.045444	-0.872131	0.695101
C65	C	0.045440	-0.872130	0.771748
C66	C	0.140634	-0.776882	0.771772
C67	C	0.140632	-0.776879	0.695127
C68	C	0.093038	-0.824507	0.656796
H69	H	-0.134360	-0.944176	-0.000214
F70	F	-0.005212	-0.922817	0.654307
H71	H	-0.710481	-0.935683	-0.000274
H72	H	0.006685	-0.910911	0.802935
F73	F	0.191275	-0.726163	0.345258
F74	F	-0.040488	-0.195223	-0.000233
H75	H	-0.679578	-0.704792	-0.000222
F76	F	-0.005219	-0.922774	0.186993
F77	F	0.228769	-0.604066	-0.000195
F78	F	-0.036157	-0.488912	-0.000175
H79	H	0.206181	-0.153080	-0.000267
F80	F	0.191286	-0.726202	0.812570
F81	F	-0.005219	-0.922786	0.345202
H82	H	0.179371	-0.738049	0.196624
H83	H	-0.266470	-0.942228	-0.000233
H84	H	0.204232	-0.020970	-0.000285
F85	F	-0.242539	-0.695295	-0.000187
F86	F	-0.092213	-0.697505	-0.000182
F87	F	-0.042705	-0.044901	-0.000257
H88	H	0.210776	-0.464982	-0.000210
H89	H	0.179386	-0.738100	0.663938
F90	F	-0.571396	-0.953676	-0.000245
F91	F	-0.536229	-0.690963	-0.000207
H92	H	-0.018171	-0.628003	-0.000145
