data_functionalizedCrystal
_audit_creation_method	'MofGen! by Chris Wilmer'
_symmetry_space_group_name_H-M	'P1'
_symmetry_Int_Tables_number	1
_symmetry_cell_setting	triclinic
loop_
_symmetry_equiv_pos_as_xyz
  x,y,z
_cell_length_a	16.992694
_cell_length_b	17.666332
_cell_length_c	16.992695
_cell_angle_alpha	89.993578
_cell_angle_beta	89.331777
_cell_angle_gamma	90.003580
loop_
_atom_site_label
_atom_site_type_symbol
_atom_site_fract_x
_atom_site_fract_y
_atom_site_fract_z
O1	O	1.050856	0.062854	-0.166918
O2	O	0.822456	0.062876	-0.165087
O3	O	0.935740	0.062859	-0.051803
O4	O	0.937572	0.062871	-0.280203
O5	O	0.935719	-0.063037	-0.051795
O6	O	0.822434	-0.063020	-0.165079
O7	O	1.050834	-0.063043	-0.166911
Cu8	Cu	0.936632	-0.074527	-0.165994
Cu9	Cu	0.936658	0.074361	-0.166003
O10	O	0.937550	-0.063026	-0.280195
C11	C	0.793085	-0.000069	-0.162727
C12	C	0.705600	-0.000061	-0.155699
C13	C	0.659610	-0.000058	-0.223517
C14	C	0.577409	-0.000069	-0.216908
C15	C	0.541201	-0.000077	-0.142480
C16	C	0.587198	-0.000082	-0.074657
C17	C	0.669397	-0.000077	-0.081267
C18	C	0.295886	-0.000099	-0.115086
C19	C	0.213681	-0.000102	-0.108481
C20	C	0.203898	-0.000090	-0.250732
C21	C	0.286099	-0.000080	-0.257335
C22	C	0.332089	-0.000089	-0.189512
N23	N	0.457178	-0.000086	-0.135723
N24	N	0.416110	-0.000086	-0.196270
N25	N	0.936620	-0.179246	-0.165988
C26	C	0.986802	-0.218864	-0.115853
C27	C	0.986806	-0.298111	-0.115849
C28	C	0.936637	-0.337738	-0.165995
C29	C	0.886446	-0.298112	-0.216133
C30	C	0.886438	-0.218865	-0.216130
N31	N	0.930982	-0.462153	-0.235021
N32	N	0.930994	-0.537433	-0.235022
C33	C	0.936659	-0.576502	-0.166007
N34	N	0.942325	-0.537447	-0.096989
N35	N	0.942317	-0.462160	-0.096989
C36	C	0.936641	-0.423668	-0.166004
C37	C	0.986847	-0.702049	-0.115864
C38	C	0.986846	-0.781298	-0.115859
C39	C	0.886491	-0.781297	-0.216150
C40	C	0.886488	-0.702049	-0.216148
C41	C	0.936670	-0.662430	-0.166006
C42	C	1.080205	-0.000095	-0.169270
C43	C	1.167690	-0.000099	-0.176299
C44	C	0.933374	-0.000089	-0.022439
C45	C	0.926345	-0.000088	0.065046
N46	N	0.936676	0.179080	-0.166004
C47	C	0.939917	-0.000076	-0.309559
C48	C	0.946945	-0.000072	-0.397044
C49	C	0.994163	-0.000095	0.111037
C50	C	0.987554	-0.000087	0.193238
C51	C	0.913127	-0.000078	0.229446
C52	C	0.845303	-0.000068	0.183449
C53	C	0.851913	-0.000070	0.101250
C54	C	0.885732	-0.000064	0.474760
C55	C	0.879127	-0.000064	0.556966
C56	C	1.021379	-0.000082	0.566749
C57	C	1.027982	-0.000089	0.484547
C58	C	0.960159	-0.000076	0.438558
N59	N	0.906369	-0.000072	0.313468
N60	N	0.966917	-0.000076	0.354537
H61	H	0.689084	-0.000051	-0.284124
H62	H	1.088589	-0.000097	0.455073
H63	H	1.027707	-0.813555	-0.075029
C64	C	0.772008	-0.000065	0.305109
C65	C	0.763490	-0.000060	0.223247
H66	H	0.721498	-0.000067	0.329675
H67	H	0.800150	0.043833	0.320582
H68	H	0.800144	-0.043974	0.320587
H69	H	0.735360	0.043852	0.207769
H70	H	0.735337	-0.043962	0.207768
H71	H	0.830505	-0.000054	0.437325
C72	C	0.710641	-0.000058	0.099831
C73	C	0.777366	-0.000064	0.050693
H74	H	0.664619	-0.000056	0.068618
H75	H	0.711031	0.043842	0.132088
H76	H	0.711018	-0.043965	0.132102
H77	H	0.776992	0.043846	0.018426
H78	H	0.776975	-0.043968	0.018422
H79	H	0.818516	-0.000069	0.586443
C80	C	0.303032	0.064655	-0.380615
C81	C	0.325880	-0.000067	-0.339157
H82	H	0.327584	0.064663	-0.431132
H83	H	0.318523	0.108546	-0.352476
H84	H	0.247492	0.064641	-0.386364
H85	H	0.381420	-0.000050	-0.333402
H86	H	0.310395	-0.043970	-0.367302
C87	C	1.096482	0.064635	0.664849
C88	C	1.095927	-0.000087	0.617301
H89	H	1.142511	0.064636	0.696054
H90	H	1.051217	0.064633	0.698175
H91	H	1.096108	0.108531	0.632563
H92	H	1.096296	-0.043983	0.649588
H93	H	1.141205	-0.000092	0.583972
H94	H	0.539966	-0.000065	-0.272133
C95	C	0.170257	-0.064800	-0.369942
C96	C	0.153347	-0.000086	-0.325282
H97	H	0.139052	-0.064795	-0.415971
H98	H	0.158790	-0.108697	-0.339634
H99	H	0.224396	-0.064787	-0.384521
H100	H	0.099209	-0.000101	-0.310698
H101	H	0.164808	0.043822	-0.355596
H102	H	0.184203	-0.000108	-0.047870
H103	H	0.333322	-0.000107	-0.059859
H104	H	0.557710	-0.000100	-0.014056
C105	C	1.040586	-0.000075	0.323587
C106	C	1.062101	-0.000090	0.243792
H107	H	1.086612	-0.000069	0.354796
H108	H	1.010280	-0.043972	0.335055
H109	H	1.010286	0.043834	0.335028
H110	H	1.092397	-0.044002	0.232349
H111	H	1.092421	0.043812	0.232319
H112	H	1.027671	-0.330373	-0.075021
C113	C	0.799749	-0.000078	-0.028237
C114	C	0.719954	-0.000080	-0.006720
H115	H	0.830959	-0.000087	0.017787
H116	H	0.811206	0.043826	-0.058538
H117	H	0.811199	-0.043981	-0.058544
H118	H	0.708503	0.043826	0.023582
H119	H	0.708492	-0.043988	0.023594
C120	C	0.753073	-0.322534	-0.253734
C121	C	0.831298	-0.341669	-0.271251
H122	H	0.719025	-0.349429	-0.287758
H123	H	0.745889	-0.269675	-0.260911
H124	H	0.741251	-0.335535	-0.200653
H125	H	0.843122	-0.328663	-0.324331
H126	H	0.838485	-0.394540	-0.264081
C127	C	1.085997	-0.226831	-0.016719
C128	C	1.041953	-0.175315	-0.060728
H129	H	1.120040	-0.199943	0.017316
H130	H	1.116367	-0.257725	-0.051280
H131	H	1.051452	-0.257753	0.013664
H132	H	1.076498	-0.144396	-0.091116
H133	H	1.011581	-0.144408	-0.026163
C134	C	0.848745	-0.194455	-0.349482
C135	C	0.831281	-0.175313	-0.271248
H136	H	0.814696	-0.167563	-0.383511
H137	H	0.841563	-0.247315	-0.356653
H138	H	0.901817	-0.181457	-0.361343
H139	H	0.778210	-0.188316	-0.259386
H140	H	0.838456	-0.122441	-0.264074
H141	H	1.027707	-0.669790	-0.075033
H142	H	0.845629	-0.669791	-0.256976
C143	C	0.753116	-0.805705	-0.253757
C144	C	0.831341	-0.824846	-0.271270
H145	H	0.719068	-0.832597	-0.287783
H146	H	0.745937	-0.752845	-0.260934
H147	H	0.741290	-0.818706	-0.200677
H148	H	0.843169	-0.811841	-0.324349
H149	H	0.838524	-0.877718	-0.264099
C150	C	1.134106	-0.000100	0.128972
C151	C	1.075977	-0.000101	0.071241
H152	H	1.184616	-0.000095	0.104403
H153	H	1.128566	-0.044000	0.160832
H154	H	1.128567	0.043806	0.160825
H155	H	1.081513	-0.044010	0.039391
H156	H	1.081521	0.043804	0.039368
