data_functionalizedCrystal
_audit_creation_method	'MofGen! by Chris Wilmer'
_symmetry_space_group_name_H-M	'P1'
_symmetry_Int_Tables_number	1
_symmetry_cell_setting	triclinic
loop_
_symmetry_equiv_pos_as_xyz
  x,y,z
_cell_length_a	17.699077
_cell_length_b	16.974813
_cell_length_c	16.176319
_cell_angle_alpha	86.338635
_cell_angle_beta	89.993140
_cell_angle_gamma	83.338069
loop_
_atom_site_label
_atom_site_type_symbol
_atom_site_fract_x
_atom_site_fract_y
_atom_site_fract_z
O1	O	1.004154	0.099970	-0.075422
O2	O	1.504154	0.599970	0.424578
O3	O	0.783784	0.112984	-0.076297
O4	O	1.283784	0.612984	0.423703
O5	O	0.900112	-0.008639	-0.068154
O6	O	1.400112	0.491361	0.431846
O7	O	0.887826	0.221592	-0.083565
O8	O	1.387826	0.721592	0.416435
O9	O	0.900096	-0.008647	0.069339
O10	O	1.400096	0.491353	0.569339
O11	O	0.783768	0.112976	0.061197
O12	O	1.283768	0.612976	0.561197
O13	O	1.004138	0.099962	0.062071
O14	O	1.504138	0.599962	0.562071
Cu15	Cu	0.893952	0.106468	0.074188
Cu16	Cu	1.393952	0.606468	0.574188
Cu17	Cu	0.893971	0.106478	-0.088414
Cu18	Cu	1.393971	0.606478	0.411586
O19	O	0.887810	0.221585	0.053929
O20	O	1.387810	0.721585	0.553929
C21	C	0.755579	0.112515	-0.007519
C22	C	1.255579	0.612515	0.492481
C23	C	0.671560	0.111118	-0.007427
C24	C	1.171560	0.611118	0.492573
C25	C	0.632083	0.110456	0.067565
C26	C	1.132083	0.610456	0.567565
C27	C	0.553140	0.109131	0.067655
C28	C	1.053140	0.609131	0.567655
C29	C	0.513673	0.108474	-0.007249
C30	C	1.013673	0.608474	0.492751
C31	C	0.553156	0.109134	-0.082248
C32	C	1.053156	0.609134	0.417752
C33	C	0.632099	0.110453	-0.082336
C34	C	1.132099	0.610453	0.417664
C35	C	0.234789	0.103813	-0.081893
C36	C	0.734789	0.603813	0.418107
C37	C	0.155840	0.102496	-0.081799
C38	C	0.655840	0.602496	0.418201
C39	C	0.155830	0.102491	0.068098
C40	C	0.655830	0.602491	0.568098
C41	C	0.234772	0.103810	0.068010
C42	C	0.734772	0.603810	0.568010
C43	C	0.274248	0.104465	-0.006988
C44	C	0.774248	0.604465	0.493012
C45	C	0.359848	0.105900	-0.007084
C46	C	0.859848	0.605900	0.492916
C47	C	0.428074	0.107045	-0.007155
C48	C	0.928074	0.607045	0.492845
C49	C	0.899637	-0.038100	0.002563
C50	C	1.399637	0.461900	0.502563
C51	C	0.898234	-0.125875	0.008432
C52	C	1.398234	0.374125	0.508432
C53	C	0.897586	-0.167102	-0.063757
C54	C	1.397586	0.332898	0.436243
C55	C	0.896264	-0.249575	-0.058239
C56	C	1.396264	0.250425	0.441761
C57	C	0.895595	-0.290819	0.019469
C58	C	1.395595	0.209181	0.519469
C59	C	0.896241	-0.249585	0.091664
C60	C	1.396241	0.250415	0.591664
C61	C	0.897558	-0.167113	0.086145
C62	C	1.397558	0.332887	0.586145
C63	C	0.891651	-0.537474	0.044011
C64	C	1.391651	-0.037474	0.544011
C65	C	0.890336	-0.619952	0.049525
C66	C	1.390336	-0.119952	0.549525
C67	C	0.890357	-0.619936	-0.100380
C68	C	1.390357	-0.119936	0.399620
C69	C	0.891679	-0.537463	-0.105891
C70	C	1.391679	-0.037463	0.394109
C71	C	0.892321	-0.496236	-0.033696
C72	C	1.392321	0.003764	0.466304
N73	N	0.894246	-0.375120	0.025111
N74	N	1.394246	0.124880	0.525111
N75	N	0.893665	-0.411936	-0.039339
N76	N	1.393665	0.088064	0.460661
C77	C	1.032343	0.100431	-0.006708
C78	C	1.532343	0.600431	0.493292
C79	C	1.116363	0.101828	-0.006805
C80	C	1.616363	0.601828	0.493195
C81	C	0.888286	0.251046	-0.016790
C82	C	1.388286	0.751046	0.483210
C83	C	0.889688	0.338821	-0.022665
C84	C	1.389688	0.838821	0.477335
N85	N	0.893944	0.106461	0.188554
N86	N	1.393944	0.606461	0.688554
N87	N	0.893984	0.106478	-0.202779
N88	N	1.393984	0.606478	0.297221
C89	C	0.945469	0.052629	0.235422
C90	C	1.445469	0.552629	0.735422
C91	C	0.945473	0.052628	0.321970
C92	C	1.445473	0.552628	0.821970
C93	C	0.893955	0.106464	0.361647
C94	C	1.393955	0.606464	0.861647
C95	C	0.842424	0.160299	0.314772
C96	C	1.342424	0.660299	0.814772
C97	C	0.842417	0.160296	0.228227
C98	C	1.342417	0.660296	0.728227
C99	C	0.842450	0.160314	0.663799
C100	C	1.342450	0.660314	1.163799
C101	C	0.842462	0.160315	0.750351
C102	C	1.342462	0.660315	1.250351
C103	C	0.945506	0.052646	0.757542
C104	C	1.445506	0.552646	1.257542
C105	C	0.945499	0.052643	0.670997
C106	C	1.445499	0.552643	1.170997
C107	C	0.893966	0.106475	0.624130
C108	C	1.393966	0.606475	1.124130
C109	C	0.893961	0.106474	0.530286
C110	C	1.393961	0.606474	1.030286
C111	C	0.893962	0.106469	0.455489
C112	C	1.393962	0.606469	0.955489
H113	H	0.266921	0.104344	-0.142961
H114	H	0.766921	0.604344	0.357039
F115	F	1.000351	-0.004650	0.807428
F116	F	1.500351	0.495350	1.307428
F117	F	0.511128	0.108437	0.147472
F118	F	1.011128	0.608437	0.647472
H119	H	0.889788	-0.653530	0.112807
H120	H	1.389788	-0.153530	0.612807
H121	H	0.664210	0.110997	0.128561
H122	H	1.164210	0.610997	0.628561
H123	H	0.898075	-0.133545	0.144930
H124	H	1.398075	0.366455	0.644930
F125	F	0.889674	-0.663818	-0.177209
F126	F	1.389674	-0.163818	0.322791
H127	H	0.895692	-0.283172	0.154936
H128	H	1.395692	0.216828	0.654936
H129	H	0.123709	0.101960	-0.142799
H130	H	0.623709	0.601960	0.357201
F131	F	1.000307	-0.004668	0.193203
F132	F	1.500307	0.495332	0.693203
F133	F	1.000311	-0.004667	0.371851
F134	F	1.500311	0.495333	0.871851
H135	H	0.266901	0.104349	0.129004
H136	H	0.766901	0.604349	0.629004
H137	H	0.987453	0.008807	0.638695
H138	H	1.487453	0.508807	1.138695
H139	H	0.800507	0.204157	0.782654
H140	H	1.300507	0.704157	1.282654
F141	F	0.674112	0.111155	-0.162154
F142	F	1.174112	0.611155	0.337846
H143	H	0.898135	-0.133528	-0.127036
H144	H	1.398135	0.366472	0.372964
H145	H	0.892189	-0.503918	0.102798
H146	H	1.392189	-0.003918	0.602798
H147	H	0.800491	0.204147	0.625647
H148	H	1.300491	0.704147	1.125647
H149	H	0.123679	0.101953	0.129165
H150	H	0.623679	0.601953	0.629165
H151	H	0.800473	0.204131	0.347082
H152	H	1.300473	0.704131	0.847082
F153	F	0.511154	0.108411	-0.161966
F154	F	1.011154	0.608411	0.338034
F155	F	0.895575	-0.293449	-0.135074
F156	F	1.395575	0.206551	0.364926
F157	F	0.892392	-0.493574	-0.188599
F158	F	1.392392	0.006426	0.311401
H159	H	0.800459	0.204131	0.190067
H160	H	1.300459	0.704131	0.690067
