data_functionalizedCrystal
_audit_creation_method	'MofGen! by Chris Wilmer'
_symmetry_space_group_name_H-M	'P1'
_symmetry_Int_Tables_number	1
_symmetry_cell_setting	triclinic
loop_
_symmetry_equiv_pos_as_xyz
  x,y,z
_cell_length_a	14.971482
_cell_length_b	10.723023
_cell_length_c	14.048226
_cell_angle_alpha	89.994597
_cell_angle_beta	89.994098
_cell_angle_gamma	84.040078
loop_
_atom_site_label
_atom_site_type_symbol
_atom_site_fract_x
_atom_site_fract_y
_atom_site_fract_z
O1	O	1.187822	0.162594	-0.079146
O2	O	0.927526	0.182073	-0.079151
O3	O	1.063678	-0.009306	-0.079144
O4	O	1.051669	0.353973	-0.079152
O5	O	1.063662	-0.009317	0.079177
O6	O	0.927509	0.182061	0.079171
O7	O	1.187805	0.162583	0.079175
Zn8	Zn	1.057655	0.172320	0.104310
Zn9	Zn	1.057676	0.172335	-0.104285
O10	O	1.051653	0.353961	0.079169
C11	C	0.894188	0.181197	0.000010
C12	C	0.794877	0.178589	0.000008
C13	C	0.748216	0.177354	0.086310
C14	C	0.654905	0.174884	0.086311
C15	C	0.608254	0.173657	0.000009
C16	C	0.654921	0.174888	-0.086300
C17	C	0.748232	0.177349	-0.086300
C18	C	0.460432	0.169761	-0.086293
C19	C	0.367114	0.167301	-0.086294
C20	C	0.367105	0.167295	0.086317
C21	C	0.460415	0.169757	0.086317
C22	C	0.507076	0.170990	0.000008
C23	C	1.062796	-0.055802	0.000015
C24	C	1.060182	-0.194329	0.000012
C25	C	1.059025	-0.256076	-0.082004
C26	C	1.056323	-0.399251	-0.082009
C27	C	1.221143	0.163459	0.000013
C28	C	1.320454	0.166067	0.000008
C29	C	1.052535	0.400458	0.000007
C30	C	1.055149	0.538984	0.000004
N31	N	1.057646	0.172310	0.246671
N32	N	1.057692	0.172336	-0.246646
C33	C	1.117954	0.087602	0.296491
C34	C	1.117960	0.087602	0.396149
C35	C	1.057662	0.172315	0.445984
C36	C	0.997348	0.257026	0.396156
C37	C	0.997338	0.257020	0.296500
C38	C	0.997374	0.257036	0.603871
C39	C	0.997384	0.257044	0.703533
C40	C	1.117995	0.087617	0.703519
C41	C	1.117986	0.087611	0.603863
C42	C	1.057672	0.172324	0.554042
H43	H	0.616920	0.173858	0.156587
H44	H	0.498420	0.170765	-0.156575
H45	H	1.055333	-0.452353	-0.152227
H46	H	0.498395	0.170763	0.156592
Cl47	Cl	1.056692	-0.379047	0.108424
Cl48	Cl	1.058616	-0.276348	0.108422
Cl49	Cl	0.806892	0.178895	-0.194798
Cl50	Cl	0.921575	0.363543	0.766176
H51	H	0.329109	0.166292	0.156593
Cl52	Cl	1.193766	-0.018896	0.233852
Cl53	Cl	1.193775	-0.018891	0.458783
H54	H	1.167104	0.018641	0.744089
H55	H	1.167089	0.018637	0.563288
H56	H	1.060031	-0.202944	-0.152218
Cl57	Cl	0.308469	0.165756	-0.194789
H58	H	0.948257	0.326014	0.563310
H59	H	0.948247	0.325998	0.436738
H60	H	0.948228	0.325996	0.255937
H61	H	0.616932	0.173880	-0.156568
H62	H	0.786192	0.178364	0.156587
