data_functionalizedCrystal
_audit_creation_method	'MofGen! by Chris Wilmer'
_symmetry_space_group_name_H-M	'P1'
_symmetry_Int_Tables_number	1
_symmetry_cell_setting	triclinic
loop_
_symmetry_equiv_pos_as_xyz
  x,y,z
_cell_length_a	16.625547
_cell_length_b	12.594516
_cell_length_c	16.625539
_cell_angle_alpha	90.023675
_cell_angle_beta	89.975178
_cell_angle_gamma	89.973331
loop_
_atom_site_label
_atom_site_type_symbol
_atom_site_fract_x
_atom_site_fract_y
_atom_site_fract_z
Zn1	Zn	1.232657	0.423742	-0.456027
Zn2	Zn	1.482657	0.673742	-0.206027
Zn3	Zn	1.732657	0.923742	0.043973
Zn4	Zn	1.982657	1.173742	0.293973
Zn5	Zn	1.232550	0.601743	-0.321205
Zn6	Zn	1.482550	0.851743	-0.071205
Zn7	Zn	1.732550	1.101743	0.178795
Zn8	Zn	1.982550	1.351743	0.428795
Zn9	Zn	1.097818	0.423779	-0.321197
Zn10	Zn	1.347818	0.673779	-0.071197
Zn11	Zn	1.597818	0.923779	0.178803
Zn12	Zn	1.847818	1.173779	0.428803
Zn13	Zn	1.097779	0.601679	-0.455985
Zn14	Zn	1.347779	0.851679	-0.205985
Zn15	Zn	1.597779	1.101679	0.044015
Zn16	Zn	1.847779	1.351679	0.294015
O17	O	1.165201	0.512736	-0.388603
O18	O	1.415201	0.762736	-0.138603
O19	O	1.665201	1.012736	0.111397
O20	O	1.915201	1.262736	0.361397
O21	O	1.345475	0.447366	-0.438163
O22	O	1.595475	0.697366	-0.188163
O23	O	1.845475	0.947366	0.061837
O24	O	2.095475	1.197366	0.311837
O25	O	1.214649	0.578178	-0.208371
O26	O	1.464649	0.828178	0.041629
O27	O	1.714649	1.078178	0.291629
O28	O	1.964649	1.328178	0.541629
O29	O	1.115766	0.274828	-0.339097
O30	O	1.365766	0.524828	-0.089097
O31	O	1.615766	0.774828	0.160903
O32	O	1.865766	1.024828	0.410903
O33	O	1.345396	0.578143	-0.339110
O34	O	1.595396	0.828143	-0.089110
O35	O	1.845396	1.078143	0.160890
O36	O	2.095396	1.328143	0.410890
O37	O	1.214831	0.274801	-0.438156
O38	O	1.464831	0.524801	-0.188156
O39	O	1.714831	0.774801	0.061844
O40	O	1.964831	1.024801	0.311844
O41	O	1.115663	0.447429	-0.208366
O42	O	1.365663	0.697429	0.041634
O43	O	1.615663	0.947429	0.291634
O44	O	1.865663	1.197429	0.541634
O45	O	0.984981	0.447366	-0.339056
O46	O	1.234981	0.697366	-0.089056
O47	O	1.484981	0.947366	0.160944
O48	O	1.734981	1.197366	0.410944
O49	O	1.115699	0.578032	-0.568823
O50	O	1.365699	0.828032	-0.318823
O51	O	1.615699	1.078032	-0.068823
O52	O	1.865699	1.328032	0.181177
O53	O	0.984952	0.578068	-0.438084
O54	O	1.234952	0.828068	-0.188084
O55	O	1.484952	1.078068	0.061916
O56	O	1.734952	1.328068	0.311916
O57	O	1.214793	0.447303	-0.568854
O58	O	1.464793	0.697303	-0.318854
O59	O	1.714793	0.947303	-0.068854
O60	O	1.964793	1.197303	0.181146
O61	O	1.214611	0.750681	-0.339069
O62	O	1.464611	1.000681	-0.089069
O63	O	1.714611	1.250681	0.160931
O64	O	1.964611	1.500681	0.410931
O65	O	1.115595	0.750633	-0.438091
O66	O	1.365595	1.000633	-0.188091
O67	O	1.615595	1.250633	0.061909
O68	O	1.865595	1.500633	0.311909
C69	C	0.955710	0.512715	-0.388565
C70	C	1.205710	0.762715	-0.138565
C71	C	1.455710	1.012715	0.111435
C72	C	1.705710	1.262715	0.361435
C73	C	0.866089	0.512732	-0.388568
C74	C	1.116089	0.762732	-0.138568
C75	C	1.366089	1.012732	0.111432
C76	C	1.616089	1.262732	0.361432
C77	C	0.793307	0.512734	-0.388578
C78	C	1.043307	0.762734	-0.138578
C79	C	1.293307	1.012734	0.111422
C80	C	1.543307	1.262734	0.361422
C81	C	0.701998	0.512740	-0.388598
C82	C	0.951998	0.762740	-0.138598
C83	C	1.201998	1.012740	0.111402
C84	C	1.451998	1.262740	0.361402
C85	C	0.629222	0.512749	-0.388619
C86	C	0.879222	0.762749	-0.138619
C87	C	1.129222	1.012749	0.111381
C88	C	1.379222	1.262749	0.361381
C89	C	0.537907	0.512757	-0.388638
C90	C	0.787907	0.762757	-0.138638
C91	C	1.037907	1.012757	0.111362
C92	C	1.287907	1.262757	0.361362
C93	C	1.165109	0.789277	-0.388594
C94	C	1.415109	1.039277	-0.138594
C95	C	1.665109	1.289277	0.111406
C96	C	1.915109	1.539277	0.361406
C97	C	1.165143	0.907582	-0.388617
C98	C	1.415143	1.157582	-0.138617
C99	C	1.665143	1.407582	0.111383
C100	C	1.915143	1.657582	0.361383
C101	C	1.111274	0.976848	-0.442437
C102	C	1.361274	1.226848	-0.192437
C103	C	1.611274	1.476848	0.057563
C104	C	1.861274	1.726848	0.307563
C105	C	1.091619	1.047709	-0.368861
C106	C	1.341619	1.297709	-0.118861
C107	C	1.591619	1.547709	0.131139
C108	C	1.841619	1.797709	0.381139
C109	C	1.184842	1.047521	-0.462205
C110	C	1.434842	1.297521	-0.212205
C111	C	1.684842	1.547521	0.037795
C112	C	1.934842	1.797521	0.287795
C113	C	1.145450	0.976884	-0.315002
C114	C	1.395450	1.226884	-0.065002
C115	C	1.645450	1.476884	0.184998
C116	C	1.895450	1.726884	0.434998
C117	C	1.238707	0.976690	-0.408396
C118	C	1.488707	1.226690	-0.158396
C119	C	1.738707	1.476690	0.091604
C120	C	1.988707	1.726690	0.341604
C121	C	1.219080	1.047519	-0.334769
C122	C	1.469080	1.297519	-0.084769
C123	C	1.719080	1.547519	0.165231
C124	C	1.969080	1.797519	0.415231
C125	C	1.375510	0.512757	-0.388642
C126	C	1.625510	0.762757	-0.138642
C127	C	1.875510	1.012757	0.111358
C128	C	2.125510	1.262757	0.361358
C129	C	1.465131	0.512766	-0.388659
C130	C	1.715131	0.762766	-0.138659
C131	C	1.965131	1.012766	0.111341
C132	C	2.215131	1.262766	0.361341
C133	C	1.165280	1.235115	-0.388629
C134	C	1.415280	1.485115	-0.138629
C135	C	1.665280	1.735115	0.111371
C136	C	1.915280	1.985115	0.361371
C137	C	1.165223	1.116809	-0.388637
C138	C	1.415223	1.366809	-0.138637
C139	C	1.665223	1.616809	0.111363
C140	C	1.915223	1.866809	0.361363
C141	C	1.165253	0.512656	-0.598912
C142	C	1.415253	0.762656	-0.348912
C143	C	1.665253	1.012656	-0.098912
C144	C	1.915253	1.262656	0.151088
C145	C	1.165276	0.512623	-0.688534
C146	C	1.415276	0.762623	-0.438534
C147	C	1.665276	1.012623	-0.188534
C148	C	1.915276	1.262623	0.061466
C149	C	1.165313	0.512503	-1.016709
C150	C	1.415313	0.762503	-0.766709
C151	C	1.665313	1.012503	-0.516709
C152	C	1.915313	1.262503	-0.266709
C153	C	1.165300	0.512540	-0.925401
C154	C	1.415300	0.762540	-0.675401
C155	C	1.665300	1.012540	-0.425401
C156	C	1.915300	1.262540	-0.175401
C157	C	1.165295	0.512564	-0.852624
C158	C	1.415295	0.762564	-0.602624
C159	C	1.665295	1.012564	-0.352624
C160	C	1.915295	1.262564	-0.102624
C161	C	1.165281	0.512599	-0.761310
C162	C	1.415281	0.762599	-0.511310
C163	C	1.665281	1.012599	-0.261310
C164	C	1.915281	1.262599	-0.011310
C165	C	1.165195	0.512738	-0.179113
C166	C	1.415195	0.762738	0.070887
C167	C	1.665195	1.012738	0.320887
C168	C	1.915195	1.262738	0.570887
C169	C	1.165329	0.512472	-0.089492
C170	C	1.415329	0.762472	0.160508
C171	C	1.665329	1.012472	0.410508
C172	C	1.915329	1.262472	0.660508
H173	H	1.065649	0.945817	-0.487885
H174	H	1.315649	1.195817	-0.237885
H175	H	1.565649	1.445817	0.012115
H176	H	1.815649	1.695817	0.262115
H177	H	1.029445	1.078927	-0.352149
H178	H	1.279445	1.328927	-0.102149
H179	H	1.529445	1.578927	0.147851
H180	H	1.779445	1.828927	0.397851
C181	C	1.207312	1.089435	-0.546262
C182	C	1.457312	1.339435	-0.296262
C183	C	1.707312	1.589435	-0.046262
C184	C	1.957312	1.839435	0.203738
H185	H	1.168956	1.065224	-0.584425
H186	H	1.418956	1.315224	-0.334425
H187	H	1.668956	1.565224	-0.084425
H188	H	1.918956	1.815224	0.165575
H189	H	1.207663	1.164852	-0.545551
H190	H	1.457663	1.414852	-0.295551
H191	H	1.707663	1.664852	-0.045551
H192	H	1.957663	1.914852	0.204449
H193	H	1.259175	1.064063	-0.560674
H194	H	1.509175	1.314063	-0.310674
H195	H	1.759175	1.564063	-0.060674
H196	H	2.009175	1.814063	0.189326
H197	H	1.264670	1.078354	-0.289211
H198	H	1.514670	1.328354	-0.039211
H199	H	1.764670	1.578354	0.210789
H200	H	2.014670	1.828354	0.460789
C201	C	1.122879	0.935151	-0.230921
C202	C	1.372879	1.185151	0.019079
C203	C	1.622879	1.435151	0.269079
C204	C	1.872879	1.685151	0.519079
H205	H	1.122959	0.859721	-0.231435
H206	H	1.372959	1.109721	0.018565
H207	H	1.622959	1.359721	0.268565
H208	H	1.872959	1.609721	0.518565
H209	H	1.160930	0.959911	-0.192665
H210	H	1.410930	1.209911	0.057335
H211	H	1.660930	1.459911	0.307335
H212	H	1.910930	1.709911	0.557335
H213	H	1.070808	0.960059	-0.216800
H214	H	1.320808	1.210059	0.033200
H215	H	1.570808	1.460059	0.283200
H216	H	1.820808	1.710059	0.533200
C217	C	1.322693	0.934553	-0.431004
C218	C	1.572693	1.184553	-0.181004
C219	C	1.822693	1.434553	0.068996
C220	C	2.072693	1.684553	0.318996
H221	H	1.336588	0.958706	-0.483321
H222	H	1.586588	1.208706	-0.233321
H223	H	1.836588	1.458706	0.016679
H224	H	2.086588	1.708706	0.266679
H225	H	1.361102	0.959828	-0.393302
H226	H	1.611102	1.209828	-0.143302
H227	H	1.861102	1.459828	0.106698
H228	H	2.111102	1.709828	0.356698
H229	H	1.322201	0.859132	-0.430352
H230	H	1.572201	1.109132	-0.180352
H231	H	1.822201	1.359132	0.069648
H232	H	2.072201	1.609132	0.319648
