data_functionalizedCrystal
_audit_creation_method	'MofGen! by Chris Wilmer'
_symmetry_space_group_name_H-M	'P1'
_symmetry_Int_Tables_number	1
_symmetry_cell_setting	triclinic
loop_
_symmetry_equiv_pos_as_xyz
  x,y,z
_cell_length_a	14.044220
_cell_length_b	23.532407
_cell_length_c	13.101039
_cell_angle_alpha	93.336507
_cell_angle_beta	86.340132
_cell_angle_gamma	88.018778
loop_
_atom_site_label
_atom_site_type_symbol
_atom_site_fract_x
_atom_site_fract_y
_atom_site_fract_z
O1	O	1.261651	0.134360	-0.085125
O2	O	0.985730	0.129407	-0.085150
O3	O	1.132009	0.049404	-0.085118
O4	O	1.115371	0.214364	-0.085157
O5	O	1.121514	0.055154	0.085309
O6	O	0.975234	0.135158	0.085277
O7	O	1.251155	0.140111	0.085302
Zn8	Zn	1.111528	0.138547	0.112349
Zn9	Zn	1.125356	0.130971	-0.112197
O10	O	1.104875	0.220114	0.085270
C11	C	0.945188	0.130115	0.000061
C12	C	0.840024	0.123648	0.000052
C13	C	0.647472	0.111828	0.000075
C14	C	0.589407	0.157687	0.000068
C15	C	0.482265	0.151110	0.000081
C16	C	0.754624	0.118404	0.000062
C17	C	1.126338	0.031040	0.000098
C18	C	1.125063	-0.032246	0.000106
C19	C	1.203641	-0.427092	0.000057
C20	C	1.202458	-0.486556	0.000049
O21	O	1.275300	-0.519354	0.000018
N22	N	1.115494	-0.513896	0.000042
C23	C	1.029708	-0.481769	0.000032
O24	O	0.955630	-0.510484	0.000024
C25	C	1.030893	-0.422306	0.000033
C26	C	1.117862	-0.394968	0.000050
C27	C	1.290603	-0.399754	0.000073
C28	C	1.291786	-0.340294	0.000083
C29	C	1.206007	-0.308170	0.000077
C30	C	1.119045	-0.335508	0.000060
C31	C	0.945109	-0.390179	0.000016
C32	C	0.946301	-0.330712	0.000015
C33	C	1.033270	-0.303375	0.000033
C34	C	1.034448	-0.243924	0.000063
N35	N	1.121412	-0.216584	0.000070
C36	C	1.207191	-0.248707	0.000077
C37	C	1.027228	-0.606646	0.000029
C38	C	1.026042	-0.666108	0.000036
C39	C	1.198792	-0.670891	0.000051
C40	C	1.199977	-0.611428	0.000052
C41	C	1.114192	-0.579306	0.000036
C42	C	1.209668	-0.123835	0.000099
C43	C	1.210843	-0.064369	0.000113
C44	C	1.038093	-0.059591	0.000092
C45	C	1.036917	-0.119052	0.000084
C46	C	1.122713	-0.151173	0.000083
O47	O	0.961644	-0.211090	0.000090
O48	O	1.281258	-0.219985	0.000071
C49	C	1.291697	0.139403	0.000089
C50	C	1.396862	0.145869	0.000091
C51	C	1.110547	0.238478	0.000052
C52	C	1.111822	0.301763	0.000037
N53	N	1.102098	0.143718	0.265595
N54	N	1.134794	0.125796	-0.265443
C55	C	1.089267	0.150758	0.474635
C56	C	1.147622	0.118757	0.525524
C57	C	1.140483	0.122674	0.641841
C58	C	1.096405	0.146842	0.358308
H59	H	1.281666	-0.042114	0.000130
H60	H	1.202943	0.088418	0.481734
H61	H	0.616718	0.067631	0.000091
H62	H	0.955222	-0.688360	0.000039
C63	C	1.302914	-0.158602	0.000156
C64	C	1.379314	-0.121923	0.000200
C65	C	1.465224	-0.153928	0.000273
H66	H	1.309849	-0.183903	-0.059261
H67	H	1.302437	-0.179887	0.059610
H68	H	1.379792	-0.100648	-0.059248
H69	H	1.372411	-0.096622	0.059613
H70	H	1.464746	-0.175213	0.059728
H71	H	1.472148	-0.179228	-0.059145
H72	H	1.517070	-0.129046	0.000313
H73	H	0.968254	-0.033425	0.000090
C74	C	0.630281	0.216656	-0.000127
C75	C	0.604567	0.243179	-0.087808
C76	C	0.642193	0.297503	-0.088023
H77	H	0.697888	0.213386	-0.000190
H78	H	0.605622	0.238789	0.059266
H79	H	0.629231	0.221052	-0.147185
H80	H	0.536967	0.246464	-0.087763
H81	H	0.617534	0.319636	-0.028630
H82	H	0.709799	0.294228	-0.088083
H83	H	0.624745	0.315508	-0.147507
C84	C	1.386313	-0.310726	0.000040
C85	C	1.461173	-0.351596	0.000015
C86	C	1.548270	-0.324385	-0.000041
H87	H	1.386852	-0.285631	0.059456
H88	H	1.394082	-0.289645	-0.059415
H89	H	1.453406	-0.372668	0.059465
H90	H	1.460665	-0.376694	-0.059396
H91	H	1.556039	-0.303304	-0.059496
H92	H	1.548799	-0.299290	0.059376
H93	H	1.599073	-0.352111	-0.000067
H94	H	0.966099	-0.141310	0.000098
C95	C	1.383730	-0.434660	-0.000128
C96	C	1.393529	-0.471881	-0.087819
C97	C	1.479316	-0.504034	-0.088039
H98	H	1.383300	-0.456005	0.059236
H99	H	1.435712	-0.409874	-0.000174
H100	H	1.341560	-0.496664	-0.087763
H101	H	1.393975	-0.450551	-0.147198
H102	H	1.531299	-0.479248	-0.088085
H103	H	1.478879	-0.525376	-0.028671
H104	H	1.485980	-0.529289	-0.147541
C105	C	1.294502	-0.581858	0.000006
C106	C	1.369365	-0.622726	-0.000012
C107	C	1.456459	-0.595512	-0.000072
H108	H	1.295038	-0.556760	0.059419
H109	H	1.302270	-0.560780	-0.059452
H110	H	1.361599	-0.643795	0.059440
H111	H	1.368859	-0.647826	-0.059421
H112	H	1.464227	-0.574433	-0.059530
H113	H	1.456986	-0.570414	0.059342
H114	H	1.507265	-0.623236	-0.000094
C115	C	0.933976	-0.571870	0.000081
C116	C	0.857571	-0.608546	0.000102
C117	C	0.771654	-0.576534	0.000163
H118	H	0.934362	-0.550568	-0.059333
H119	H	0.927131	-0.546585	0.059539
H120	H	0.864413	-0.633821	-0.059349
H121	H	0.857154	-0.629849	0.059512
H122	H	0.764809	-0.551249	0.059620
H123	H	0.772049	-0.555233	-0.059252
H124	H	0.719802	-0.601413	0.000187
H125	H	1.268639	-0.697057	0.000052
C126	C	1.015607	0.191201	0.533200
C127	C	1.023111	0.187110	0.638597
C128	C	0.955284	0.224363	0.692591
H129	H	0.953411	0.181315	0.515813
H130	H	1.026717	0.229138	0.515730
H131	H	1.011994	0.149180	0.656059
H132	H	1.085292	0.197001	0.656014
H133	H	0.966393	0.262301	0.675121
H134	H	0.893092	0.214474	0.675195
H135	H	0.960371	0.221596	0.764108
C136	C	0.850666	-0.419824	-0.000223
C137	C	0.804274	-0.406868	-0.087929
C138	C	0.717271	-0.434170	-0.088193
H139	H	0.811596	-0.407115	0.059131
H140	H	0.862191	-0.459847	-0.000281
H141	H	0.792746	-0.366854	-0.087861
H142	H	0.843316	-0.419578	-0.147297
H143	H	0.728796	-0.474193	-0.088251
H144	H	0.678210	-0.421460	-0.028835
H145	H	0.685788	-0.425388	-0.147704
H146	H	0.876442	-0.304561	0.000002
