data_functionalizedCrystal
_audit_creation_method	'MofGen! by Chris Wilmer'
_symmetry_space_group_name_H-M	'P1'
_symmetry_Int_Tables_number	1
_symmetry_cell_setting	triclinic
loop_
_symmetry_equiv_pos_as_xyz
  x,y,z
_cell_length_a	29.839134
_cell_length_b	14.908520
_cell_length_c	14.908308
_cell_angle_alpha	83.639235
_cell_angle_beta	93.268592
_cell_angle_gamma	86.683852
loop_
_atom_site_label
_atom_site_type_symbol
_atom_site_fract_x
_atom_site_fract_y
_atom_site_fract_z
Zn1	Zn	0.660286	0.390008	-0.532806
Zn2	Zn	0.660235	0.532654	-0.390177
Zn3	Zn	0.589761	0.381296	-0.381439
Zn4	Zn	0.580545	0.541310	-0.541457
O5	O	0.622707	0.461317	-0.461470
O6	O	0.723144	0.408954	-0.513923
O7	O	0.654722	0.505307	-0.262358
O8	O	0.602995	0.255788	-0.394241
O9	O	0.723107	0.513754	-0.409134
O10	O	0.654809	0.262189	-0.505450
O11	O	0.602945	0.394105	-0.255939
O12	O	0.525673	0.402500	-0.402629
O13	O	0.587287	0.528509	-0.666969
O14	O	0.518902	0.520061	-0.520193
O15	O	0.645872	0.417348	-0.660613
O16	O	0.645785	0.660466	-0.417522
O17	O	0.587237	0.666826	-0.528666
C18	C	0.505987	0.461275	-0.461402
C19	C	0.456053	0.461280	-0.461396
C20	C	0.615517	0.696490	-0.475001
C21	C	0.612482	0.797099	-0.480819
C22	C	0.615557	0.474866	-0.697550
C23	C	0.612510	0.480639	-0.798154
C24	C	0.142889	0.522613	-0.522620
C25	C	-0.044786	0.522641	-0.522661
O26	O	-0.072041	0.574743	-0.574675
N27	N	-0.064739	0.461354	-0.461540
C28	C	-0.037770	0.400053	-0.400407
O29	O	-0.059047	0.347919	-0.348427
C30	C	0.149904	0.400021	-0.400371
C31	C	0.169855	0.461318	-0.461490
C32	C	0.162840	0.583904	-0.583735
C33	C	0.209756	0.583900	-0.583720
C34	C	0.236721	0.522604	-0.522591
C35	C	0.216771	0.461313	-0.461476
C36	C	0.176873	0.338716	-0.339243
C37	C	0.223794	0.338712	-0.339241
C38	C	0.243744	0.400008	-0.400361
C39	C	0.290652	0.400014	-0.400332
N40	N	0.310605	0.461300	-0.461454
C41	C	0.283640	0.522596	-0.522583
C42	C	-0.136302	0.400075	-0.400430
C43	C	-0.183220	0.400083	-0.400438
C44	C	-0.190233	0.522671	-0.522693
C45	C	-0.143313	0.522666	-0.522680
C46	C	-0.116349	0.461361	-0.461551
C47	C	0.382167	0.522583	-0.522548
C48	C	0.429087	0.522575	-0.522526
C49	C	0.436096	0.399985	-0.400274
C50	C	0.389180	0.399995	-0.400292
C51	C	0.362216	0.461297	-0.461437
O52	O	0.317935	0.347932	-0.348353
O53	O	0.304926	0.574708	-0.574569
C54	C	0.095973	0.522617	-0.522634
C55	C	0.076023	0.461326	-0.461519
C56	C	0.102988	0.400031	-0.400389
C57	C	0.029104	0.461335	-0.461527
C58	C	0.002139	0.522630	-0.522656
C59	C	0.022092	0.583917	-0.583778
C60	C	0.069008	0.583913	-0.583763
C61	C	0.083035	0.338745	-0.339268
C62	C	0.036119	0.338755	-0.339286
C63	C	0.009154	0.400050	-0.400416
C64	C	0.739882	0.461360	-0.461538
C65	C	0.789815	0.461379	-0.461567
C66	C	0.629936	0.225228	-0.447906
C67	C	0.633016	0.124620	-0.442126
C68	C	0.667800	0.979476	-0.376112
C69	C	0.664949	1.074008	-0.381576
C70	C	0.603933	1.080695	-0.497217
C71	C	0.606783	0.986164	-0.491752
C72	C	0.638717	0.935558	-0.431197
C73	C	0.641565	0.841024	-0.425728
C74	C	0.580551	0.847713	-0.541373
C75	C	0.577700	0.942245	-0.546837
C76	C	0.667790	0.375715	-0.980581
C77	C	0.664928	0.381137	-1.075107
C78	C	0.603925	0.496899	-1.081733
C79	C	0.606786	0.491477	-0.987207
C80	C	0.638720	0.430884	-0.936634
C81	C	0.641583	0.425468	-0.842107
C82	C	0.580578	0.541225	-0.848734
C83	C	0.577716	0.546646	-0.943260
C84	C	0.629856	0.447756	-0.226304
C85	C	0.632998	0.441728	-0.125686
H86	H	0.445328	0.572494	-0.572297
Cl87	Cl	0.563796	1.144330	-0.573348
H88	H	0.551702	0.983461	-0.596142
H89	H	0.551716	0.595977	-0.984449
H90	H	0.556869	0.811944	-0.586224
H91	H	0.556908	0.586150	-0.812943
H92	H	0.360218	0.572499	-0.572339
H93	H	-0.114350	0.350152	-0.350647
H94	H	0.667586	0.376131	-0.800932
Cl95	Cl	0.094081	0.660974	-0.660605
H96	H	0.693793	0.326383	-0.939404
Cl97	Cl	0.701474	0.311777	-1.130352
H98	H	0.693799	0.938272	-0.326799
H99	H	0.225995	0.633812	-0.633492
H100	H	0.140889	0.633819	-0.633519
H101	H	0.577926	0.546230	-1.122925
H102	H	-0.212196	0.572580	-0.572467
Cl103	Cl	-0.118238	0.599725	-0.599521
H104	H	0.160637	0.288804	-0.289471
H105	H	0.667567	0.799821	-0.376419
H106	H	0.245747	0.288784	-0.289467
Cl107	Cl	-0.208294	0.323032	-0.323587
H108	H	0.372935	0.350084	-0.350522
H109	H	0.458060	0.350083	-0.350501
Cl110	Cl	-0.011816	0.660976	-0.660622
H111	H	0.104986	0.288829	-0.289488
Cl112	Cl	0.011045	0.261690	-0.262440
Cl113	Cl	0.701513	1.129218	-0.312326
