data_functionalizedCrystal
_audit_creation_method	'MofGen! by Chris Wilmer'
_symmetry_space_group_name_H-M	'P1'
_symmetry_Int_Tables_number	1
_symmetry_cell_setting	triclinic
loop_
_symmetry_equiv_pos_as_xyz
  x,y,z
_cell_length_a	10.654562
_cell_length_b	14.519731
_cell_length_c	9.130313
_cell_angle_alpha	89.997760
_cell_angle_beta	89.996930
_cell_angle_gamma	84.089478
loop_
_atom_site_label
_atom_site_type_symbol
_atom_site_fract_x
_atom_site_fract_y
_atom_site_fract_z
O1	O	1.666592	0.129583	-0.121899
O2	O	1.300999	0.141911	-0.121881
O3	O	1.493475	0.001560	-0.121878
O4	O	1.474116	0.269934	-0.121903
O5	O	1.493472	0.001564	0.121721
O6	O	1.300996	0.141915	0.121717
O7	O	1.666590	0.129586	0.121700
Cu8	Cu	1.483793	0.135751	0.143951
Cu9	Cu	1.483796	0.135747	-0.144133
O10	O	1.474114	0.269937	0.121696
C11	C	1.254208	0.141006	-0.000080
C12	C	1.114792	0.138290	-0.000072
C13	C	1.049272	0.137025	0.132702
C14	C	0.918274	0.134481	0.132678
C15	C	0.918326	0.134470	-0.132907
C16	C	1.049323	0.137008	-0.132881
C17	C	1.114740	0.138308	0.265511
C18	C	1.049220	0.137044	0.398296
C19	C	0.918222	0.134500	0.398272
C20	C	0.852744	0.133219	0.265462
C21	C	1.492566	-0.032802	-0.000078
C22	C	1.489848	-0.135196	-0.000077
C23	C	1.487640	-0.218352	-0.000080
C24	C	1.484880	-0.322675	-0.000091
C25	C	1.482690	-0.405826	-0.000100
C26	C	1.479930	-0.510155	-0.000109
C27	C	1.713380	0.130492	-0.000106
C28	C	1.852797	0.133208	-0.000122
C29	C	1.475022	0.304300	-0.000107
C30	C	1.477740	0.406694	-0.000118
N31	N	1.483800	0.135754	0.346574
N32	N	1.483798	0.135737	-0.346756
C33	C	1.569050	0.073628	0.423227
C34	C	1.569047	0.073617	0.576564
C35	C	1.398539	0.197866	0.576580
C36	C	1.398537	0.197872	0.423246
C37	C	1.654313	0.011510	0.346555
C38	C	1.739571	-0.050621	0.423209
C39	C	1.739567	-0.050632	0.576546
C40	C	1.654306	0.011488	0.653229
H41	H	1.102670	0.138042	-0.240998
C42	C	1.832025	-0.118000	0.339696
C43	C	1.813784	-0.104696	0.189005
C44	C	1.898919	-0.166759	0.112032
H45	H	1.818279	-0.179671	0.364675
H46	H	1.915905	-0.107439	0.364707
H47	H	1.729925	-0.115264	0.164004
H48	H	1.827541	-0.043037	0.163982
H49	H	1.982799	-0.156199	0.137043
H50	H	1.885166	-0.228427	0.137023
H51	H	1.886562	-0.157735	0.009780
C52	C	1.831922	-0.118195	0.659849
C53	C	1.764907	-0.175136	0.747846
C54	C	1.849949	-0.237393	0.824588
H55	H	1.884302	-0.084770	0.719787
H56	H	1.882679	-0.155240	0.592267
H57	H	1.714173	-0.138095	0.815421
H58	H	1.712533	-0.208581	0.687946
H59	H	1.900705	-0.274438	0.757006
H60	H	1.902323	-0.203961	0.884517
H61	H	1.804492	-0.276040	0.884292
C62	C	1.305780	0.265202	0.659757
C63	C	1.182345	0.249382	0.622501
C64	C	1.096863	0.311388	0.699108
H65	H	1.319383	0.326887	0.634694
H66	H	1.317909	0.256295	0.762069
H67	H	1.170221	0.258297	0.520212
H68	H	1.168701	0.187709	0.647567
H69	H	1.108992	0.302481	0.801420
H70	H	1.110478	0.373070	0.674039
H71	H	1.013103	0.300658	0.673851
H72	H	1.654302	0.011467	0.778086
C73	C	1.306131	0.265474	0.340085
C74	C	1.326718	0.356241	0.377347
C75	C	1.241624	0.418538	0.300752
H76	H	1.222243	0.255006	0.365152
H77	H	1.318348	0.256638	0.237771
H78	H	1.314490	0.365073	0.479638
H79	H	1.410589	0.366738	0.352276
H80	H	1.253842	0.409703	0.198438
H81	H	1.157742	0.408062	0.325825
H82	H	1.255589	0.480130	0.326013
H83	H	1.102542	0.138080	0.506424
C84	C	0.846896	0.133259	0.542320
C85	C	0.757732	0.210986	0.550038
C86	C	0.691993	0.209870	0.682708
H87	H	0.904496	0.134429	0.621540
H88	H	0.805161	0.078608	0.547847
H89	H	0.799464	0.265624	0.544525
H90	H	0.700105	0.209833	0.470849
H91	H	0.650259	0.155219	0.688235
H92	H	0.749603	0.211038	0.761917
H93	H	0.631480	0.262602	0.687956
H94	H	1.221405	0.140382	0.265546
H95	H	0.746077	0.131145	0.265453
H96	H	0.865004	0.133429	-0.241034
H97	H	1.654326	0.011515	0.221700
