data_functionalizedCrystal
_audit_creation_method	'MofGen! by Chris Wilmer'
_symmetry_space_group_name_H-M	'P1'
_symmetry_Int_Tables_number	1
_symmetry_cell_setting	triclinic
loop_
_symmetry_equiv_pos_as_xyz
  x,y,z
_cell_length_a	13.897448
_cell_length_b	10.686220
_cell_length_c	10.686551
_cell_angle_alpha	90.308082
_cell_angle_beta	94.407384
_cell_angle_gamma	85.600540
loop_
_atom_site_label
_atom_site_type_symbol
_atom_site_fract_x
_atom_site_fract_y
_atom_site_fract_z
Zn1	Zn	-0.235165	-1.972272	0.562377
Zn2	Zn	0.264835	-1.472272	1.062377
Zn3	Zn	-0.409754	-1.956032	0.352612
Zn4	Zn	0.090246	-1.456032	0.852612
Zn5	Zn	-0.259840	-1.746389	0.368693
Zn6	Zn	0.240160	-1.246389	0.868693
Zn7	Zn	-0.407799	-1.762462	0.578389
Zn8	Zn	0.092201	-1.262462	1.078389
O9	O	-0.328139	-1.859289	0.465518
O10	O	0.171861	-1.359289	0.965518
O11	O	-0.248816	-2.145660	0.521120
O12	O	0.251184	-1.645660	1.021120
O13	O	-0.401012	-1.914699	0.179199
O14	O	0.098988	-1.414699	0.679199
O15	O	-0.121579	-1.776423	0.394415
O16	O	0.378421	-1.276423	0.894415
O17	O	-0.377086	-2.133728	0.367006
O18	O	0.122914	-1.633728	0.867006
O19	O	-0.103450	-1.942379	0.536713
O20	O	0.396550	-1.442379	1.036713
O21	O	-0.290871	-1.760675	0.191014
O22	O	0.209129	-1.260675	0.691014
O23	O	-0.288976	-1.572979	0.409942
O24	O	0.211024	-1.072979	0.909942
O25	O	-0.373754	-1.803817	0.751811
O26	O	0.126246	-1.303817	1.251811
O27	O	-0.397681	-1.584787	0.564004
O28	O	0.102319	-1.084787	1.064004
O29	O	-0.246920	-1.957964	0.740047
O30	O	0.253080	-1.457964	1.240047
O31	O	-0.544482	-1.930284	0.382532
O32	O	-0.044482	-1.430284	0.882532
O33	O	-0.543046	-1.788069	0.548410
O34	O	-0.043046	-1.288069	1.048410
C35	C	-0.578761	-1.859194	0.465489
C36	C	-0.078761	-1.359194	0.965489
C37	C	-0.685969	-1.859272	0.465509
C38	C	-0.185969	-1.359272	0.965509
C39	C	-0.345794	-1.533367	0.490456
C40	C	0.154206	-1.033367	0.990456
C41	C	-0.353368	-1.393938	0.501155
C42	C	0.146632	-0.893938	1.001155
C43	C	-0.307367	-1.884495	0.792719
C44	C	0.192633	-1.384495	1.292719
C45	C	-0.298514	-1.895236	0.932152
C46	C	0.201486	-1.395236	1.432152
C47	C	-0.882252	-1.859410	0.465578
C48	C	-0.382252	-1.359410	0.965578
C49	C	-0.773026	-1.859330	0.465544
C50	C	-0.273026	-1.359330	0.965544
C51	C	-0.076535	-1.859420	0.465572
C52	C	0.423465	-1.359420	0.965572
C53	C	0.030683	-1.859475	0.465595
C54	C	0.530683	-1.359475	0.965595
C55	C	-0.310416	-2.186483	0.440483
C56	C	0.189584	-1.686483	0.940483
C57	C	-0.302864	-2.325914	0.429814
C58	C	0.197136	-1.825914	0.929814
C59	C	-0.348758	-1.834253	0.139584
C60	C	0.151242	-1.334253	0.639584
C61	C	-0.357325	-1.823755	0.000133
C62	C	0.142675	-1.323755	0.500133
H63	H	-0.253831	-1.374343	0.360550
H64	H	0.246169	-0.874343	0.860550
H65	H	-0.241392	-1.964662	0.980628
H66	H	0.258608	-1.464662	1.480628
C67	C	-0.418669	-1.329139	0.593484
C68	C	0.081331	-0.829139	1.093484
C69	C	-0.413434	-1.199092	0.586127
C70	C	0.086566	-0.699092	1.086127
C71	C	-0.473564	-1.139360	0.671171
C72	C	0.026436	-0.639360	1.171171
H73	H	-0.483525	-1.348968	0.573449
H74	H	0.016475	-0.848968	1.073449
H75	H	-0.398139	-1.356995	0.676210
H76	H	0.101861	-0.856995	1.176210
H77	H	-0.433969	-1.171246	0.503419
H78	H	0.066031	-0.671246	1.003419
H79	H	-0.348593	-1.179226	0.606174
H80	H	0.151407	-0.679226	1.106174
H81	H	-0.453034	-1.167216	0.753898
H82	H	0.046966	-0.667216	1.253898
H83	H	-0.538416	-1.159198	0.651129
H84	H	-0.038416	-0.659198	1.151129
H85	H	-0.470014	-1.051118	0.666200
H86	H	0.029986	-0.551118	1.166200
C87	C	-0.433549	-1.731385	0.935332
C88	C	0.066451	-1.231385	1.435332
C89	C	-0.496232	-1.796656	0.854635
C90	C	0.003768	-1.296656	1.354635
C91	C	-0.566454	-1.711606	0.794897
C92	C	-0.066454	-1.211606	1.294897
H93	H	-0.469363	-1.687938	0.996529
H94	H	0.030637	-1.187938	1.496529
H95	H	-0.402846	-1.672872	0.888330
H96	H	0.097154	-1.172872	1.388330
H97	H	-0.526933	-1.855147	0.901635
H98	H	-0.026933	-1.355147	1.401635
H99	H	-0.460446	-1.840099	0.793415
H100	H	0.039554	-1.340099	1.293415
H101	H	-0.535751	-1.653093	0.747895
H102	H	-0.035751	-1.153093	1.247895
H103	H	-0.602261	-1.668164	0.856103
H104	H	-0.102261	-1.168164	1.356103
H105	H	-0.608987	-1.755879	0.740129
H106	H	-0.108987	-1.255879	1.240129
