data_functionalizedCrystal
_audit_creation_method	'MofGen! by Chris Wilmer'
_symmetry_space_group_name_H-M	'P1'
_symmetry_Int_Tables_number	1
_symmetry_cell_setting	triclinic
loop_
_symmetry_equiv_pos_as_xyz
  x,y,z
_cell_length_a	14.044209
_cell_length_b	14.044220
_cell_length_c	13.101039
_cell_angle_alpha	86.332523
_cell_angle_beta	93.659214
_cell_angle_gamma	93.188415
loop_
_atom_site_label
_atom_site_type_symbol
_atom_site_fract_x
_atom_site_fract_y
_atom_site_fract_z
O1	O	-1.281968	-0.225339	-0.085094
O2	O	-1.005298	-0.217034	-0.085123
O3	O	-1.139480	-0.082851	-0.085099
O4	O	-1.147787	-0.359521	-0.085118
O5	O	-1.129854	-0.092496	0.085329
O6	O	-0.995672	-0.226679	0.085305
O7	O	-1.272342	-0.234984	0.085334
Zn8	Zn	-1.132479	-0.232362	0.112379
Zn9	Zn	-1.145161	-0.219655	-0.112168
O10	O	-1.138161	-0.369166	0.085310
C11	C	-0.964864	-0.218221	0.000087
C12	C	-0.858721	-0.207376	0.000077
C13	C	-0.664383	-0.187553	0.000096
C14	C	-0.613253	-0.264467	0.000094
C15	C	-0.505116	-0.253437	0.000105
C16	C	-0.772529	-0.198581	0.000085
N17	N	-1.123830	-0.241035	0.265626
C18	C	-1.131031	-0.052052	0.000115
C19	C	-1.120187	0.054091	0.000115
C20	C	-0.312777	-0.233798	0.000118
C21	C	-0.418920	-0.244648	0.000114
C22	C	-1.146609	-0.399965	0.000093
C23	C	-1.157454	-0.506108	0.000087
C24	C	-1.100361	0.248429	0.000099
C25	C	-1.177275	0.299560	0.000103
C26	C	-1.166244	0.407696	0.000094
C27	C	-1.111391	0.140283	0.000108
N28	N	-1.153817	-0.210975	-0.265415
C29	C	-1.112064	-0.252843	0.474666
C30	C	-1.165580	-0.199170	0.525551
C31	C	-1.159033	-0.205740	0.641869
C32	C	-1.118610	-0.246274	0.358338
H33	H	-0.626945	-0.113426	0.000106
C34	C	-1.000220	0.298999	0.000096
H35	H	-1.005851	0.366098	0.000103
H36	H	-0.969864	0.284417	-0.059332
H37	H	-0.963170	0.277699	0.059539
H38	H	-1.061335	-0.303725	0.518454
C39	C	-0.663825	-0.364613	0.000065
H40	H	-0.730925	-0.358987	0.000047
H41	H	-0.642539	-0.401692	0.059489
H42	H	-0.649224	-0.394936	-0.059383
C43	C	-1.277422	0.248988	0.000137
H44	H	-1.271796	0.181888	0.000153
H45	H	-1.314494	0.270283	-0.059286
H46	H	-1.307750	0.263581	0.059586
C47	C	-1.234148	-0.130460	0.466398
H48	H	-1.229629	-0.135018	0.394847
H49	H	-1.217349	-0.066845	0.483907
H50	H	-1.297785	-0.147155	0.483935
