data_functionalizedCrystal
_audit_creation_method	'MofGen! by Chris Wilmer'
_symmetry_space_group_name_H-M	'P1'
_symmetry_Int_Tables_number	1
_symmetry_cell_setting	triclinic
loop_
_symmetry_equiv_pos_as_xyz
  x,y,z
_cell_length_a	11.792241
_cell_length_b	11.792241
_cell_length_c	10.268362
_cell_angle_alpha	90.005218
_cell_angle_beta	90.000408
_cell_angle_gamma	84.193416
loop_
_atom_site_label
_atom_site_type_symbol
_atom_site_fract_x
_atom_site_fract_y
_atom_site_fract_z
O1	O	-1.506910	-0.155568	-0.108155
O2	O	-1.176569	-0.171601	-0.108189
O3	O	-1.349756	0.001586	-0.108162
O4	O	-1.333723	-0.328755	-0.108182
O5	O	-1.349738	0.001592	0.108438
O6	O	-1.176551	-0.171595	0.108411
O7	O	-1.506892	-0.155562	0.108446
Cu8	Cu	-1.341720	-0.163578	0.128206
Cu9	Cu	-1.341741	-0.163585	-0.127949
O10	O	-1.333705	-0.328749	0.108419
C11	C	-1.134269	-0.170591	0.000106
C12	C	-1.008255	-0.167576	0.000093
N13	N	-1.341714	-0.163572	0.308372
C14	C	-1.348740	0.043880	0.000138
C15	C	-1.345726	0.169894	0.000136
C16	C	-0.777543	-0.162034	0.000128
C17	C	-0.905928	-0.165113	0.000109
C18	C	-0.549192	-0.156572	0.000144
C19	C	-0.675206	-0.159587	0.000139
C20	C	-1.334721	-0.371043	0.000116
C21	C	-1.337736	-0.497057	0.000109
C22	C	-1.340183	0.400606	0.000114
C23	C	-1.343262	0.272221	0.000126
C24	C	-1.341728	-0.163586	0.574042
C25	C	-1.341716	-0.163581	0.426204
N26	N	-1.341745	-0.163586	0.691885
