data_functionalizedCrystal
_audit_creation_method	'MofGen! by Chris Wilmer'
_symmetry_space_group_name_H-M	'P1'
_symmetry_Int_Tables_number	1
_symmetry_cell_setting	triclinic
loop_
_symmetry_equiv_pos_as_xyz
  x,y,z
_cell_length_a	16.109302
_cell_length_b	14.853559
_cell_length_c	15.186229
_cell_angle_alpha	89.998446
_cell_angle_beta	89.994701
_cell_angle_gamma	83.546617
loop_
_atom_site_label
_atom_site_type_symbol
_atom_site_fract_x
_atom_site_fract_y
_atom_site_fract_z
O1	O	1.103290	0.115884	-0.073264
O2	O	0.861248	0.130305	-0.073256
O3	O	0.988738	-0.008146	-0.073259
O4	O	0.975800	0.254335	-0.073261
O5	O	0.988729	-0.008148	0.073198
O6	O	0.861239	0.130303	0.073201
O7	O	1.103281	0.115882	0.073193
Zn8	Zn	0.982259	0.123092	0.096450
Zn9	Zn	0.982270	0.123095	-0.096513
O10	O	0.975791	0.254334	0.073196
C11	C	0.830268	0.129720	-0.000027
C12	C	0.737970	0.127968	-0.000024
C13	C	0.525619	0.123917	0.079801
C14	C	0.438897	0.122261	0.079798
C15	C	0.438916	0.122268	-0.079878
C16	C	0.525638	0.123917	-0.079874
C17	C	0.568986	0.124746	-0.000032
C18	C	0.395543	0.121441	-0.000039
C19	C	0.301514	0.119646	-0.000043
C20	C	0.663021	0.126539	-0.000028
C21	C	0.988149	-0.041735	-0.000032
C22	C	0.986396	-0.141816	-0.000037
C23	C	0.978964	-0.564978	-0.079871
C24	C	0.978954	-0.564975	0.079802
C25	C	0.980608	-0.470944	0.079803
C26	C	0.981439	-0.423926	-0.000034
C27	C	0.980615	-0.470939	-0.079873
C28	C	0.981423	-0.423924	0.159640
C29	C	0.983076	-0.329887	0.159644
C30	C	0.983913	-0.282868	0.079805
C31	C	0.983090	-0.329887	-0.000036
C32	C	0.983921	-0.282868	-0.079874
C33	C	0.983104	-0.329886	-0.159716
C34	C	0.981452	-0.423920	-0.159711
C35	C	0.985565	-0.188835	0.079800
C36	C	0.985572	-0.188829	-0.079875
C37	C	1.134261	0.116467	-0.000038
C38	C	1.226559	0.118219	-0.000046
C39	C	0.976380	0.287922	-0.000032
C40	C	0.978133	0.388004	-0.000033
N41	N	0.982257	0.123090	0.228143
N42	N	0.982278	0.123090	-0.228206
C43	C	1.038729	0.061804	0.453865
C44	C	1.038732	0.061802	0.546054
C45	C	0.925800	0.184378	0.546066
C46	C	0.925794	0.184376	0.453878
C47	C	0.982264	0.123090	0.407780
C48	C	0.982272	0.123090	0.592157
C49	C	0.982274	0.123089	0.692114
C50	C	0.982260	0.123090	0.307817
H51	H	0.403591	0.121586	0.144806
H52	H	0.403611	0.121594	-0.144882
Cl53	Cl	0.977946	-0.624084	-0.180239
H54	H	0.560949	0.124590	-0.144887
Cl55	Cl	0.580112	0.124953	0.180173
Cl56	Cl	0.986622	-0.129729	-0.180249
H57	H	0.978273	-0.603262	0.144802
H58	H	0.983774	-0.291590	-0.224720
Cl59	Cl	1.109716	-0.015244	0.395916
H60	H	0.879826	0.234277	0.583608
Cl61	Cl	0.980360	-0.483033	0.260000
Cl62	Cl	0.854800	0.261422	0.395937
H63	H	0.980786	-0.462209	-0.224715
Cl64	Cl	1.109718	-0.015247	0.603987
Cl65	Cl	0.986590	-0.129731	0.180165
Cl66	Cl	0.984100	-0.270788	0.260015
