data_functionalizedCrystal
_audit_creation_method	'MofGen! by Chris Wilmer'
_symmetry_space_group_name_H-M	'P1'
_symmetry_Int_Tables_number	1
_symmetry_cell_setting	triclinic
loop_
_symmetry_equiv_pos_as_xyz
  x,y,z
_cell_length_a	17.640280
_cell_length_b	17.639123
_cell_length_c	17.640968
_cell_angle_alpha	109.671805
_cell_angle_beta	65.682561
_cell_angle_gamma	92.177824
loop_
_atom_site_label
_atom_site_type_symbol
_atom_site_fract_x
_atom_site_fract_y
_atom_site_fract_z
Zn1	Zn	0.104637	-1.336877	-0.738979
Zn2	Zn	0.604637	-0.836877	-0.238979
Zn3	Zn	-0.061048	-1.336812	-0.573324
Zn4	Zn	0.438952	-0.836812	-0.073324
Zn5	Zn	0.037646	-1.182435	-0.561985
Zn6	Zn	0.537646	-0.682435	-0.061985
Zn7	Zn	-0.060979	-1.226880	-0.683204
Zn8	Zn	0.439021	-0.726880	-0.183204
O9	O	0.005064	-1.270751	-0.639373
O10	O	0.505064	-0.770751	-0.139373
O11	O	0.110665	-1.447509	-0.745092
O12	O	0.610665	-0.947509	-0.245092
O13	O	-0.076021	-1.297706	-0.451762
O14	O	0.423979	-0.797706	0.048238
O15	O	0.157147	-1.184349	-0.604061
O16	O	0.657147	-0.684349	-0.104061
O17	O	-0.011063	-1.447461	-0.623386
O18	O	0.488937	-0.947461	-0.123386
O19	O	0.206365	-1.297816	-0.734097
O20	O	0.706365	-0.797816	-0.234097
O21	O	-0.003511	-1.184286	-0.443431
O22	O	0.496489	-0.684286	0.056569
O23	O	-0.003444	-1.077690	-0.549978
O24	O	0.496556	-0.577690	-0.049978
O25	O	-0.010945	-1.260099	-0.810661
O26	O	0.489055	-0.760099	-0.310661
O27	O	-0.075903	-1.110344	-0.639037
O28	O	0.424097	-0.610344	-0.139037
O29	O	0.110732	-1.340913	-0.851638
O30	O	0.610732	-0.840913	-0.351638
O31	O	-0.171654	-1.340803	-0.569303
O32	O	0.328346	-0.840803	-0.069303
O33	O	-0.171603	-1.260036	-0.650032
O34	O	0.328397	-0.760036	-0.150032
C35	C	-0.046936	-1.065329	-0.587225
C36	C	0.453064	-0.565329	-0.087225
C37	C	-0.069196	-0.977455	-0.564933
C38	C	0.430804	-0.477455	-0.064933
C39	C	-0.163884	-0.853548	-0.470082
C40	C	0.336116	-0.353548	0.029918
C41	C	-0.142960	-0.936119	-0.491036
C42	C	0.357040	-0.436119	0.008964
C43	C	-0.016329	-0.936230	-0.617908
C44	C	0.483671	-0.436230	-0.117908
C45	C	-0.037245	-0.853658	-0.596967
C46	C	0.462755	-0.353658	-0.096967
C47	C	-0.111023	-0.812324	-0.523053
C48	C	0.388977	-0.312324	-0.023053
C49	C	0.015616	-0.812434	-0.649938
C50	C	0.515616	-0.312434	-0.149938
C51	C	-0.005296	-0.729868	-0.628996
C52	C	0.494704	-0.229868	-0.128996
C53	C	-0.079069	-0.688527	-0.555083
C54	C	0.420931	-0.188527	-0.055083
C55	C	-0.131935	-0.729758	-0.502111
C56	C	0.368065	-0.229758	-0.002111
C57	C	0.089397	-0.853768	-0.723849
C58	C	0.589397	-0.353768	-0.223849
C59	C	0.142258	-0.812544	-0.776819
C60	C	0.642258	-0.312544	-0.276819
C61	C	0.121343	-0.729978	-0.755881
C62	C	0.621343	-0.229978	-0.255881
C63	C	0.047570	-0.688637	-0.681969
C64	C	0.547570	-0.188637	-0.181969
C65	C	0.174209	-0.688747	-0.808854
C66	C	0.674209	-0.188747	-0.308854
C67	C	0.153297	-0.606181	-0.787912
C68	C	0.653297	-0.106181	-0.287912
C69	C	0.026658	-0.606071	-0.661026
C70	C	0.526658	-0.106071	-0.161026
C71	C	-0.200300	-1.305260	-0.604870
C72	C	0.299700	-0.805260	-0.104870
C73	C	-0.288130	-1.320099	-0.590156
C74	C	0.211870	-0.820099	-0.090156
C75	C	-0.577128	-1.158388	-0.751546
C76	C	-0.077128	-0.658388	-0.251546
C77	C	-0.659664	-1.172329	-0.737693
C78	C	-0.159664	-0.672329	-0.237693
C79	C	-0.659610	-1.256511	-0.653757
C80	C	-0.159610	-0.756511	-0.153757
C81	C	-0.577071	-1.242580	-0.667607
C82	C	-0.077071	-0.742580	-0.167607
C83	C	-0.535837	-1.193517	-0.716501
C84	C	-0.035837	-0.693517	-0.216501
C85	C	-0.535779	-1.277709	-0.632562
C86	C	-0.035779	-0.777709	-0.132562
C87	C	-0.453249	-1.263775	-0.646406
C88	C	0.046751	-0.763775	-0.146406
C89	C	-0.412010	-1.214712	-0.695296
C90	C	0.087990	-0.714712	-0.195296
C91	C	-0.453306	-1.179583	-0.730345
C92	C	0.046694	-0.679583	-0.230345
C93	C	-0.577017	-1.326767	-0.583663
C94	C	-0.077017	-0.826767	-0.083663
C95	C	-0.535725	-1.361896	-0.548617
C96	C	-0.035725	-0.861896	-0.048617
C97	C	-0.453191	-1.347967	-0.562467
C98	C	0.046809	-0.847967	-0.062467
C99	C	-0.411952	-1.298904	-0.611357
C100	C	0.088048	-0.798904	-0.111357
C101	C	-0.411895	-1.383096	-0.527417
C102	C	0.088105	-0.883096	-0.027417
C103	C	-0.329364	-1.369163	-0.541262
C104	C	0.170636	-0.869163	-0.041262
C105	C	-0.329422	-1.284970	-0.625201
C106	C	0.170578	-0.784970	-0.125201
C107	C	0.211239	-1.236132	-0.674036
C108	C	0.711239	-0.736132	-0.174036
C109	C	0.299099	-1.221379	-0.688807
C110	C	0.799099	-0.721379	-0.188807
C111	C	0.057374	-1.305471	-0.863150
C112	C	0.557374	-0.805471	-0.363150
C113	C	0.079665	-1.320267	-0.958510
C114	C	0.579665	-0.820267	-0.458510
C115	C	0.057268	-0.476973	-0.691716
C116	C	0.557268	0.023027	-0.191716
C117	C	0.079519	-0.564847	-0.713997
C118	C	0.579519	-0.064847	-0.213997
C119	C	-0.163775	-1.158582	-1.165470
C120	C	0.336225	-0.658582	-0.665470
C121	C	-0.142814	-1.172499	-1.255081
C122	C	0.357186	-0.672499	-0.755081
C123	C	-0.016122	-1.256644	-1.297737
C124	C	0.483878	-0.756644	-0.797737
C125	C	-0.037070	-1.242730	-1.208127
C126	C	0.462930	-0.742730	-0.708127
C127	C	-0.110898	-1.193699	-1.142000
C128	C	0.389102	-0.693699	-0.642000
C129	C	0.015807	-1.277847	-1.184657
C130	C	0.515807	-0.777847	-0.684657
C131	C	-0.005142	-1.263937	-1.095056
C132	C	0.494858	-0.763937	-0.595056
C133	C	-0.078967	-1.214911	-1.028924
C134	C	0.421033	-0.714911	-0.528924
C135	C	-0.131847	-1.179789	-1.052398
C136	C	0.368153	-0.679789	-0.552398
C137	C	0.089631	-1.326882	-1.250787
C138	C	0.589631	-0.826882	-0.750787
C139	C	0.142508	-1.361999	-1.227317
C140	C	0.642508	-0.861999	-0.727317
C141	C	0.121563	-1.348086	-1.137713
C142	C	0.621563	-0.848086	-0.637713
C143	C	0.047737	-1.299059	-1.071581
C144	C	0.547737	-0.799059	-0.571581
C145	C	0.174442	-1.383207	-1.114239
C146	C	0.674442	-0.883207	-0.614239
C147	C	0.153493	-1.369297	-1.024637
C148	C	0.653493	-0.869297	-0.524637
C149	C	0.026788	-1.285149	-0.981980
C150	C	0.526788	-0.785149	-0.481980
C151	C	-0.046974	-1.236202	-0.416488
C152	C	0.453026	-0.736202	0.083512
C153	C	-0.069004	-1.221522	-0.321205
C154	C	0.430996	-0.721522	0.178795
H155	H	-0.096085	-0.621293	-0.538023
H156	H	0.403915	-0.121293	-0.038023
H157	H	-0.033425	-0.572417	-0.600844
H158	H	0.466575	-0.072417	-0.100844
H159	H	0.202329	-0.846209	-0.836999
H160	H	0.702329	-0.346209	-0.336999
H161	H	-0.445483	-1.423037	-0.487601
H162	H	0.054517	-0.923037	0.012399
H163	H	0.234282	-0.722412	-0.869030
H164	H	0.734282	-0.222412	-0.369030
H165	H	-0.543551	-1.118442	-0.791368
H166	H	-0.043551	-0.618442	-0.291368
H167	H	0.043742	-0.969895	-0.678088
H168	H	0.543742	-0.469895	-0.178088
H169	H	-0.644217	-1.338113	-0.572395
H170	H	-0.144217	-0.838113	-0.072395
H171	H	0.202617	-1.401923	-1.281169
H172	H	0.702617	-0.901923	-0.781169
H173	H	-0.693276	-1.143730	-0.766248
H174	H	-0.193276	-0.643730	-0.266248
H175	H	0.106423	-0.920997	-0.740894
H176	H	0.606423	-0.420997	-0.240894
H177	H	-0.569310	-1.401840	-0.508805
H178	H	-0.069310	-0.901840	-0.008805
H179	H	-0.693195	-1.296456	-0.613945
H180	H	-0.193195	-0.796456	-0.113945
H181	H	-0.096025	-1.203590	-0.955965
H182	H	0.403975	-0.703590	-0.455965
H183	H	-0.223966	-0.819894	-0.409900
H184	H	0.276034	-0.319894	0.090100
H185	H	0.196344	-0.572614	-0.831043
H186	H	0.696344	-0.072614	-0.331043
H187	H	-0.186011	-0.969682	-0.447896
H188	H	0.313989	-0.469682	0.052104
H189	H	0.106683	-1.338208	-1.323745
H190	H	0.606683	-0.838208	-0.823745
H191	H	-0.295845	-1.245025	-0.665023
H192	H	0.204155	-0.745025	-0.165023
H193	H	0.234548	-1.423134	-1.168093
H194	H	0.734548	-0.923134	-0.668093
H195	H	-0.344811	-1.203362	-0.706559
H196	H	0.155189	-0.703362	-0.206559
H197	H	-0.223878	-1.118634	-1.111622
H198	H	0.276122	-0.618634	-0.611622
H199	H	0.196552	-1.397892	-1.005529
H200	H	0.696552	-0.897892	-0.505529
H201	H	-0.295745	-1.397768	-0.512723
H202	H	0.204255	-0.897768	-0.012723
H203	H	-0.192017	-0.696104	-0.441928
H204	H	0.307983	-0.196104	0.058072
H205	H	-0.185879	-1.143899	-1.274183
H206	H	0.314121	-0.643899	-0.774183
H207	H	-0.033315	-1.245201	-0.928132
H208	H	0.466685	-0.745201	-0.428132
H209	H	-0.191950	-1.139841	-0.998551
H210	H	0.308050	-0.639841	-0.498551
H211	H	-0.419729	-1.139638	-0.770168
H212	H	0.080271	-0.639638	-0.270168
H213	H	0.043986	-1.296567	-1.351589
H214	H	0.543986	-0.796567	-0.851589
