data_functionalizedCrystal
_audit_creation_method	'MofGen! by Chris Wilmer'
_symmetry_space_group_name_H-M	'P1'
_symmetry_Int_Tables_number	1
_symmetry_cell_setting	triclinic
loop_
_symmetry_equiv_pos_as_xyz
  x,y,z
_cell_length_a	10.654551
_cell_length_b	9.730223
_cell_length_c	8.597304
_cell_angle_alpha	97.699907
_cell_angle_beta	95.089828
_cell_angle_gamma	89.998634
loop_
_atom_site_label
_atom_site_type_symbol
_atom_site_fract_x
_atom_site_fract_y
_atom_site_fract_z
O1	O	-1.669009	0.140342	0.220460
O2	O	-1.303642	0.142842	0.241463
O3	O	-1.493516	0.114545	0.002575
O4	O	-1.479136	0.168639	0.459348
O5	O	-1.493504	-0.114033	0.002588
O6	O	-1.303630	-0.085737	0.241476
O7	O	-1.668997	-0.088236	0.220473
Zn8	Zn	-1.486311	-0.123278	0.230977
Zn9	Zn	-1.486328	0.177884	0.230959
O10	O	-1.479123	-0.059940	0.459361
C11	C	-1.256830	0.028371	0.239927
C12	C	-1.117362	0.027830	0.235312
C13	C	-0.907578	0.043962	0.371634
C14	C	-1.038622	0.044486	0.375971
C15	C	-1.065052	0.010663	0.090306
C16	C	-0.934010	0.010149	0.085970
C17	C	-0.828843	0.060605	0.512303
C18	C	-0.881145	0.077775	0.657309
C19	C	-1.012189	0.078299	0.661646
C20	C	-1.090933	0.061653	0.520977
N21	N	-1.486310	-0.328813	0.230988
C22	C	-1.491965	-0.006667	-0.055906
C23	C	-1.487348	-0.027297	-0.230182
C24	C	-0.715809	0.026238	0.222013
C25	C	-0.855275	0.026792	0.226639
C26	C	-1.563649	-0.389377	0.327066
C27	C	-1.563668	-0.533263	0.327036
C28	C	-1.408996	-0.556010	0.134847
C29	C	-1.408985	-0.412127	0.134869
C30	C	-1.640974	-0.306063	0.423184
C31	C	-1.718319	-0.366626	0.519271
C32	C	-1.718338	-0.510512	0.519242
C33	C	-1.641011	-0.593836	0.423125
N34	N	-1.486339	0.383417	0.230936
C35	C	-1.480674	0.061276	0.517842
C36	C	-1.485292	0.081915	0.692118
H37	H	-0.817024	0.091337	0.771836
H38	H	-1.346006	-0.362815	0.056637
O39	O	-1.141720	-0.005560	-0.046183
C40	C	-1.268596	-0.001392	-0.011263
H41	H	-1.275132	-0.030058	0.112083
H42	H	-1.326838	-0.078364	-0.100827
H43	H	-1.306415	0.107611	-0.016810
H44	H	-1.487060	0.191206	-0.241078
H45	H	-0.891425	-0.003830	-0.032097
O46	O	-1.641263	-0.733611	0.423067
C47	C	-1.763582	-0.787317	0.375260
H48	H	-1.835371	-0.701717	0.397891
H49	H	-1.783643	-0.875319	0.445071
H50	H	-1.770644	-0.828342	0.244164
H51	H	-1.781282	-0.298776	0.597517
O52	O	-1.485394	-0.157761	-0.309730
C53	C	-1.594954	-0.230846	-0.286463
H54	H	-1.634288	-0.182124	-0.173060
H55	H	-1.570689	-0.343754	-0.277286
H56	H	-1.668475	-0.225761	-0.390225
O57	O	-1.062843	0.095182	0.802596
C58	C	-1.022796	0.223740	0.888403
H59	H	-0.931411	0.258018	0.844628
H60	H	-1.006212	0.212568	1.018919
H61	H	-1.098378	0.304588	0.871051
O62	O	-0.701540	0.060354	0.508174
C63	C	-0.650502	0.187821	0.585113
H64	H	-0.726249	0.270569	0.585096
H65	H	-0.568526	0.219926	0.520673
H66	H	-0.615461	0.176045	0.711778
H67	H	-1.197637	0.062109	0.524520
H68	H	-1.346039	-0.623863	0.056596
H69	H	-1.640964	-0.188902	0.423223
O70	O	-1.793505	-0.569116	0.612715
C71	C	-1.861771	-0.464726	0.697518
H72	H	-1.809879	-0.361158	0.706087
H73	H	-1.871070	-0.491689	0.821034
H74	H	-1.959565	-0.456919	0.634011
