data_functionalizedCrystal
_audit_creation_method	'MofGen! by Chris Wilmer'
_symmetry_space_group_name_H-M	'P1'
_symmetry_Int_Tables_number	1
_symmetry_cell_setting	triclinic
loop_
_symmetry_equiv_pos_as_xyz
  x,y,z
_cell_length_a	16.625547
_cell_length_b	25.639240
_cell_length_c	25.639243
_cell_angle_alpha	90.013927
_cell_angle_beta	90.010627
_cell_angle_gamma	90.032694
loop_
_atom_site_label
_atom_site_type_symbol
_atom_site_fract_x
_atom_site_fract_y
_atom_site_fract_z
Zn1	Zn	1.232510	-0.208277	0.295653
Zn2	Zn	1.565843	0.125056	0.628986
Zn3	Zn	1.899176	0.458389	0.962319
Zn4	Zn	1.232422	-0.295678	0.208206
Zn5	Zn	1.565756	0.037656	0.541540
Zn6	Zn	1.899089	0.370989	0.874873
Zn7	Zn	1.097705	-0.208258	0.208224
Zn8	Zn	1.431038	0.125075	0.541557
Zn9	Zn	1.764372	0.458409	0.874891
Zn10	Zn	1.097618	-0.295683	0.295603
Zn11	Zn	1.430951	0.037650	0.628936
Zn12	Zn	1.764284	0.370983	0.962270
O13	O	1.165064	-0.251974	0.251921
O14	O	1.498397	0.081359	0.585255
O15	O	1.831730	0.414693	0.918588
O16	O	1.345331	-0.219877	0.284066
O17	O	1.678664	0.113457	0.617400
O18	O	2.011997	0.446790	0.950733
O19	O	1.214552	-0.284071	0.135043
O20	O	1.547885	0.049262	0.468377
O21	O	1.881218	0.382596	0.801710
O22	O	1.115660	-0.135095	0.219850
O23	O	1.448994	0.198238	0.553183
O24	O	1.782327	0.531571	0.886516
O25	O	1.345266	-0.284090	0.219820
O26	O	1.678600	0.049244	0.553153
O27	O	2.011933	0.382577	0.886486
O28	O	1.214701	-0.135109	0.284083
O29	O	1.548034	0.198224	0.617417
O30	O	1.881367	0.531557	0.950750
O31	O	1.115575	-0.219844	0.135056
O32	O	1.448909	0.113489	0.468390
O33	O	1.782242	0.446823	0.801723
O34	O	0.984861	-0.219849	0.219801
O35	O	1.318194	0.113484	0.553135
O36	O	1.651528	0.446817	0.886468
O37	O	1.115512	-0.284099	0.368775
O38	O	1.448845	0.049234	0.702108
O39	O	1.782178	0.382568	1.035441
O40	O	0.984797	-0.284081	0.283999
O41	O	1.318130	0.049253	0.617332
O42	O	1.651464	0.382586	0.950665
O43	O	1.214616	-0.219882	0.368811
O44	O	1.547950	0.113451	0.702145
O45	O	1.881283	0.446784	1.035478
O46	O	1.214467	-0.368844	0.219771
O47	O	1.547800	-0.035510	0.553105
O48	O	1.881134	0.297823	0.886438
O49	O	1.115427	-0.368848	0.283981
O50	O	1.448760	-0.035514	0.617315
O51	O	1.782093	0.297819	0.950648
C52	C	0.955573	-0.251964	0.251897
C53	C	1.288906	0.081369	0.585230
C54	C	1.622240	0.414703	0.918563
C55	C	0.865952	-0.251972	0.251899
C56	C	1.199285	0.081361	0.585232
C57	C	1.532618	0.414695	0.918565
C58	C	0.793169	-0.251973	0.251905
C59	C	1.126503	0.081360	0.585238
C60	C	1.459836	0.414694	0.918572
C61	C	0.701861	-0.251976	0.251918
C62	C	1.035194	0.081357	0.585251
C63	C	1.368528	0.414691	0.918585
C64	C	0.629084	-0.251981	0.251931
C65	C	0.962418	0.081353	0.585265
C66	C	1.295751	0.414686	0.918598
C67	C	0.537770	-0.251984	0.251944
C68	C	0.871103	0.081349	0.585277
C69	C	1.204437	0.414682	0.918611
C70	C	1.164950	-0.387817	0.251881
C71	C	1.498283	-0.054483	0.585214
C72	C	1.831616	0.278850	0.918547
C73	C	1.164975	-0.445931	0.251880
C74	C	1.498308	-0.112597	0.585214
C75	C	1.831641	0.220736	0.918547
C76	C	1.216660	-0.806263	0.285428
C77	C	1.549993	-0.472929	0.618762
C78	C	1.883326	-0.139596	0.952095
C79	C	1.216683	-0.860867	0.285439
C80	C	1.550017	-0.527534	0.618772
C81	C	1.883350	-0.194200	0.952106
O82	O	1.260492	-0.889077	0.313920
O83	O	1.593826	-0.555744	0.647254
O84	O	1.927159	-0.222411	0.980587
N85	N	1.165176	-0.888213	0.251972
N86	N	1.498509	-0.554880	0.585305
N87	N	1.831842	-0.221546	0.918639
C88	C	1.113635	-0.860952	0.218496
C89	C	1.446968	-0.527619	0.551829
C90	C	1.780301	-0.194286	0.885163
O91	O	1.069825	-0.889226	0.190031
O92	O	1.403158	-0.555893	0.523365
O93	O	1.736492	-0.222560	0.856698
C94	C	1.113608	-0.806349	0.218488
C95	C	1.446941	-0.473016	0.551822
C96	C	1.780274	-0.139682	0.885155
C97	C	1.165125	-0.779005	0.251954
C98	C	1.498458	-0.445672	0.585287
C99	C	1.831791	-0.112339	0.918620
C100	C	1.268172	-0.778919	0.318891
C101	C	1.601505	-0.445586	0.652225
C102	C	1.934839	-0.112253	0.985558
C103	C	1.268149	-0.724319	0.318880
C104	C	1.601482	-0.390985	0.652213
C105	C	1.934816	-0.057652	0.985547
C106	C	1.216614	-0.697062	0.285405
C107	C	1.549947	-0.363728	0.618739
C108	C	1.883280	-0.030395	0.952072
C109	C	1.165102	-0.724405	0.251942
C110	C	1.498435	-0.391072	0.585276
C111	C	1.831768	-0.057738	0.918609
C112	C	1.062063	-0.779089	0.185016
C113	C	1.395397	-0.445756	0.518349
C114	C	1.728730	-0.112422	0.851682
C115	C	1.062040	-0.724482	0.185011
C116	C	1.395373	-0.391149	0.518344
C117	C	1.728707	-0.057815	0.851678
C118	C	1.113557	-0.697139	0.218476
C119	C	1.446890	-0.363805	0.551810
C120	C	1.780224	-0.030472	0.885143
C121	C	1.113544	-0.642547	0.218456
C122	C	1.446877	-0.309214	0.551790
C123	C	1.780210	0.024119	0.885123
N124	N	1.165051	-0.615201	0.251923
N125	N	1.498385	-0.281868	0.585257
N126	N	1.831718	0.051466	0.918590
C127	C	1.216587	-0.642458	0.285398
C128	C	1.549920	-0.309125	0.618731
C129	C	1.883253	0.024208	0.952064
C130	C	1.113695	-0.975623	0.218515
C131	C	1.447028	-0.642289	0.551849
C132	C	1.780362	-0.308956	0.885182
C133	C	1.113726	-1.030225	0.218520
C134	C	1.447059	-0.696892	0.551853
C135	C	1.780392	-0.363558	0.885186
C136	C	1.216773	-1.030136	0.285463
C137	C	1.550107	-0.696803	0.618797
C138	C	1.883440	-0.363469	0.952130
C139	C	1.216746	-0.975533	0.285456
C140	C	1.550080	-0.642199	0.618789
C141	C	1.883413	-0.308866	0.952123
C142	C	1.165203	-0.948277	0.251982
C143	C	1.498536	-0.614943	0.585315
C144	C	1.831869	-0.281610	0.918649
C145	C	1.216535	-0.527793	0.285371
C146	C	1.549868	-0.194460	0.618704
C147	C	1.883202	0.138874	0.952038
C148	C	1.216510	-0.473188	0.285355
C149	C	1.549843	-0.139854	0.618688
C150	C	1.883177	0.193479	0.952022
C151	C	1.113459	-0.473282	0.218413
C152	C	1.446793	-0.139948	0.551747
C153	C	1.780126	0.193385	0.885080
C154	C	1.113487	-0.527882	0.218427
C155	C	1.446821	-0.194549	0.551761
C156	C	1.780154	0.138784	0.885094
C157	C	1.165028	-0.555137	0.251910
C158	C	1.498361	-0.221803	0.585244
C159	C	1.831694	0.111530	0.918577
O160	O	1.069755	-0.614302	0.189991
O161	O	1.403088	-0.280969	0.523324
O162	O	1.736421	0.052364	0.856658
O163	O	1.260382	-0.614178	0.313863
O164	O	1.593715	-0.280844	0.647196
O165	O	1.927048	0.052489	0.980529
C166	C	1.375373	-0.251985	0.251947
C167	C	1.708706	0.081349	0.585280
C168	C	2.042039	0.414682	0.918613
C169	C	1.464994	-0.251989	0.251957
C170	C	1.798327	0.081344	0.585291
C171	C	2.131660	0.414678	0.918624
C172	C	1.165064	-0.251993	0.388294
C173	C	1.498397	0.081340	0.721628
C174	C	1.831731	0.414673	1.054961
C175	C	1.165064	-0.252002	0.446408
C176	C	1.498397	0.081332	0.779742
C177	C	1.831731	0.414665	1.113075
C178	C	1.165200	-0.115601	0.251974
C179	C	1.498533	0.217732	0.585307
C180	C	1.831867	0.551066	0.918641
C181	C	1.165258	-0.057487	0.251996
C182	C	1.498591	0.275846	0.585330
C183	C	1.831925	0.609180	0.918663
C184	C	1.216665	-0.218540	0.806796
C185	C	1.549999	0.114793	1.140130
C186	C	1.883332	0.448127	1.473463
C187	C	1.216665	-0.218537	0.861401
C188	C	1.549998	0.114796	1.194734
C189	C	1.883332	0.448130	1.528067
O190	O	1.260525	-0.190090	0.889658
O191	O	1.593859	0.143243	1.222992
O192	O	1.927192	0.476576	1.556325
N193	N	1.165069	-0.251972	0.888691
N194	N	1.498403	0.081361	1.222024
N195	N	1.831736	0.414695	1.555358
C196	C	1.113465	-0.285408	0.861374
C197	C	1.446799	0.047925	1.194708
C198	C	1.780132	0.381259	1.528041
O199	O	1.069579	-0.313846	0.889601
O200	O	1.402912	0.019487	1.222934
O201	O	1.736245	0.352821	1.556268
C202	C	1.113462	-0.285408	0.806771
C203	C	1.446795	0.047925	1.140104
C204	C	1.780129	0.381259	1.473438
C205	C	1.165067	-0.251975	0.779483
C206	C	1.498400	0.081359	1.112817
C207	C	1.831733	0.414692	1.446150
C208	C	1.268265	-0.185109	0.779509
C209	C	1.601598	0.148224	1.112842
C210	C	1.934932	0.481557	1.446175
C211	C	1.268266	-0.185113	0.724908
C212	C	1.601599	0.148220	1.058241
C213	C	1.934933	0.481553	1.391575
C214	C	1.216668	-0.218548	0.697595
C215	C	1.550001	0.114785	1.030928
C216	C	1.883334	0.448119	1.364262
C217	C	1.165068	-0.251979	0.724883
C218	C	1.498401	0.081355	1.058216
C219	C	1.831735	0.414688	1.391549
C220	C	1.061854	-0.318841	0.779455
C221	C	1.395188	0.014492	1.112789
C222	C	1.728521	0.347826	1.446122
C223	C	1.061855	-0.318838	0.724848
C224	C	1.395189	0.014495	1.058182
C225	C	1.728522	0.347829	1.391515
C226	C	1.113460	-0.285405	0.697561
C227	C	1.446793	0.047929	1.030894
C228	C	1.780127	0.381262	1.364227
C229	C	1.113471	-0.285417	0.642969
C230	C	1.446804	0.047916	0.976303
C231	C	1.780137	0.381249	1.309636
N232	N	1.165066	-0.251982	0.615679
N233	N	1.498399	0.081351	0.949012
N234	N	1.831733	0.414684	1.282346
C235	C	1.216664	-0.218548	0.642992
C236	C	1.549998	0.114786	0.976325
C237	C	1.883331	0.448119	1.309659
C238	C	1.113475	-0.285405	0.976045
C239	C	1.446808	0.047929	1.309378
C240	C	1.780141	0.381262	1.642712
C241	C	1.113481	-0.285408	1.030647
C242	C	1.446815	0.047925	1.363981
C243	C	1.780148	0.381259	1.697314
C244	C	1.216680	-0.218536	1.030670
C245	C	1.550013	0.114797	1.364003
C246	C	1.883347	0.448130	1.697336
C247	C	1.216677	-0.218536	0.976066
C248	C	1.550010	0.114797	1.309400
C249	C	1.883344	0.448130	1.642733
C250	C	1.165070	-0.251970	0.948754
C251	C	1.498403	0.081363	1.282088
C252	C	1.831737	0.414697	1.615421
C253	C	1.216664	-0.218559	0.528327
C254	C	1.549997	0.114775	0.861660
C255	C	1.883330	0.448108	1.194993
C256	C	1.216663	-0.218567	0.473721
C257	C	1.549996	0.114766	0.807055
C258	C	1.883329	0.448100	1.140388
C259	C	1.113461	-0.285437	0.473704
C260	C	1.446795	0.047897	0.807037
C261	C	1.780128	0.381230	1.140370
C262	C	1.113465	-0.285430	0.528304
C263	C	1.446798	0.047903	0.861638
C264	C	1.780132	0.381236	1.194971
C265	C	1.165069	-0.251987	0.555614
C266	C	1.498402	0.081346	0.888948
C267	C	1.831735	0.414679	1.222281
O268	O	1.069630	-0.313848	0.614677
O269	O	1.402963	0.019485	0.948010
O270	O	1.736297	0.352819	1.281344
O271	O	1.260536	-0.190110	0.614759
O272	O	1.593869	0.143224	0.948092
O273	O	1.927203	0.476557	1.281425
C274	C	1.165062	-0.251970	1.116079
C275	C	1.498396	0.081364	1.449412
C276	C	1.831729	0.414697	1.782746
C277	C	1.165077	-0.251971	1.057965
C278	C	1.498411	0.081362	1.391298
C279	C	1.831744	0.414696	1.724632
H280	H	1.258464	-0.450926	0.312606
H281	H	1.591797	-0.117593	0.645940
H282	H	1.925131	0.215740	0.979273
H283	H	1.071469	-0.312638	1.052860
H284	H	1.404802	0.020695	1.386194
H285	H	1.738135	0.354028	1.719527
C286	C	1.273435	-0.181754	1.060724
C287	C	1.606768	0.151580	1.394058
C288	C	1.940101	0.484913	1.727391
N289	N	1.316179	-0.154050	1.083363
N290	N	1.649512	0.179283	1.416697
N291	N	1.982845	0.512616	1.750030
H292	H	1.071449	-0.312634	0.953811
H293	H	1.404783	0.020700	1.287144
H294	H	1.738116	0.354033	1.620478
H295	H	1.019832	-0.346066	0.801663
H296	H	1.353166	-0.012733	1.134997
H297	H	1.686499	0.320601	1.468330
H298	H	1.258697	-0.191311	0.953852
H299	H	1.592030	0.142022	1.287186
H300	H	1.925363	0.475356	1.620519
C301	C	1.057059	-1.060297	0.181701
C302	C	1.390393	-0.726963	0.515034
C303	C	1.723726	-0.393630	0.848368
N304	N	1.014372	-1.082945	0.153971
N305	N	1.347705	-0.749611	0.487304
N306	N	1.681039	-0.416278	0.820637
H307	H	1.258682	-0.191324	0.550556
H308	H	1.592015	0.142009	0.883890
H309	H	1.925348	0.475342	1.217223
C310	C	1.056821	-0.557961	0.181611
C311	C	1.390154	-0.224627	0.514944
C312	C	1.723487	0.108706	0.848278
N313	N	1.014133	-0.580612	0.153884
N314	N	1.347466	-0.247279	0.487217
N315	N	1.680799	0.086054	0.820551
C316	C	1.005384	-0.809155	0.148204
C317	C	1.338717	-0.475821	0.481537
C318	C	1.672050	-0.142488	0.814870
N319	N	0.962687	-0.831799	0.120477
N320	N	1.296020	-0.498466	0.453810
N321	N	1.629354	-0.165132	0.787143
H322	H	1.310138	-0.801106	0.346153
H323	H	1.643471	-0.467773	0.679487
H324	H	1.976804	-0.134439	1.012820
H325	H	1.258695	-0.953273	0.312706
H326	H	1.592029	-0.619940	0.646040
H327	H	1.925362	-0.286606	0.979373
C328	C	1.005338	-0.694504	0.148186
C329	C	1.338671	-0.361170	0.481519
C330	C	1.672004	-0.027837	0.814852
N331	N	0.962631	-0.671925	0.120447
N332	N	1.295965	-0.338592	0.453781
N333	N	1.629298	-0.005258	0.787114
C334	C	1.056770	-0.443288	0.181595
C335	C	1.390104	-0.109955	0.514929
C336	C	1.723437	0.223378	0.848262
N337	N	1.014066	-0.420696	0.153867
N338	N	1.347400	-0.087362	0.487201
N339	N	1.680733	0.245971	0.820534
H340	H	1.310286	-0.157887	0.702695
H341	H	1.643620	0.175446	1.036029
H342	H	1.976953	0.508779	1.369362
H343	H	1.071454	-0.312660	0.451456
H344	H	1.404787	0.020674	0.784789
H345	H	1.738120	0.354007	1.118122
C346	C	1.273458	-1.060129	0.322290
C347	C	1.606791	-0.726796	0.655624
C348	C	1.940124	-0.393463	0.988957
N349	N	1.316149	-1.082722	0.350027
N350	N	1.649482	-0.749389	0.683360
N351	N	1.982815	-0.416055	1.016694
C352	C	1.056992	-0.945646	0.181687
C353	C	1.390326	-0.612313	0.515020
C354	C	1.723659	-0.278979	0.848354
N355	N	1.014282	-0.923070	0.153949
N356	N	1.347616	-0.589737	0.487283
N357	N	1.680949	-0.256403	0.820616
C358	C	1.273430	-0.181784	0.443708
C359	C	1.606763	0.151549	0.777042
C360	C	1.940097	0.484883	1.110375
N361	N	1.316184	-0.154078	0.421104
N362	N	1.649517	0.179255	0.754438
N363	N	1.982850	0.512589	1.087771
C364	C	1.325035	-0.148327	0.809544
C365	C	1.658369	0.185006	1.142878
C366	C	1.991702	0.518340	1.476211
N367	N	1.367803	-0.120623	0.832163
N368	N	1.701137	0.212710	1.165497
N369	N	2.034470	0.546043	1.498830
H370	H	1.019821	-0.346059	0.702614
H371	H	1.353155	-0.012726	1.035947
H372	H	1.686488	0.320608	1.369280
H373	H	1.258499	-0.549977	0.312639
H374	H	1.591832	-0.216644	0.645973
H375	H	1.925165	0.116689	0.979306
C376	C	1.324825	-0.694248	0.355693
C377	C	1.658158	-0.360915	0.689026
C378	C	1.991492	-0.027581	1.022360
N379	N	1.367517	-0.671602	0.383422
N380	N	1.700851	-0.338269	0.716755
N381	N	2.034184	-0.004936	1.050089
H382	H	1.071452	-0.312659	0.550523
H383	H	1.404785	0.020674	0.883856
H384	H	1.738119	0.354007	1.217190
