data_functionalizedCrystal
_audit_creation_method	'MofGen! by Chris Wilmer'
_symmetry_space_group_name_H-M	'P1'
_symmetry_Int_Tables_number	1
_symmetry_cell_setting	triclinic
loop_
_symmetry_equiv_pos_as_xyz
  x,y,z
_cell_length_a	17.077404
_cell_length_b	19.121063
_cell_length_c	17.077396
_cell_angle_alpha	92.407870
_cell_angle_beta	89.982756
_cell_angle_gamma	92.469213
loop_
_atom_site_label
_atom_site_type_symbol
_atom_site_fract_x
_atom_site_fract_y
_atom_site_fract_z
Zn1	Zn	1.186680	-0.279604	-0.457151
Zn2	Zn	1.520013	0.053730	-0.123818
Zn3	Zn	1.853346	0.387063	0.209515
Zn4	Zn	1.180980	-0.397062	-0.331476
Zn5	Zn	1.514314	-0.063729	0.001857
Zn6	Zn	1.847647	0.269604	0.335191
Zn7	Zn	1.055415	-0.279630	-0.325901
Zn8	Zn	1.388749	0.053703	0.007433
Zn9	Zn	1.722082	0.387037	0.340766
Zn10	Zn	1.049770	-0.397019	-0.462698
Zn11	Zn	1.383103	-0.063686	-0.129364
Zn12	Zn	1.716437	0.269648	0.203969
O13	O	1.118211	-0.338329	-0.394306
O14	O	1.451545	-0.004996	-0.060973
O15	O	1.784878	0.328338	0.272360
O16	O	1.295770	-0.295192	-0.440492
O17	O	1.629104	0.038141	-0.107159
O18	O	1.962437	0.371475	0.226174
O19	O	1.164301	-0.381514	-0.220891
O20	O	1.497635	-0.048181	0.112442
O21	O	1.830968	0.285153	0.445776
O22	O	1.077575	-0.181342	-0.338657
O23	O	1.410909	0.151991	-0.005323
O24	O	1.744242	0.485325	0.328010
O25	O	1.291583	-0.381488	-0.348159
O26	O	1.624916	-0.048155	-0.014826
O27	O	1.958250	0.285178	0.318507
O28	O	1.174015	-0.181323	-0.435086
O29	O	1.507348	0.152011	-0.101753
O30	O	1.840681	0.485344	0.231581
O31	O	1.072049	-0.295237	-0.216795
O32	O	1.405383	0.038096	0.116539
O33	O	1.738716	0.371430	0.449872
O34	O	0.944820	-0.295195	-0.344035
O35	O	1.278153	0.038138	-0.010701
O36	O	1.611487	0.371472	0.322632
O37	O	1.067954	-0.381414	-0.571807
O38	O	1.401287	-0.048081	-0.238474
O39	O	1.734621	0.285252	0.094859
O40	O	0.940672	-0.381440	-0.444539
O41	O	1.274006	-0.048107	-0.111206
O42	O	1.607339	0.285227	0.222128
O43	O	1.168541	-0.295150	-0.567733
O44	O	1.501874	0.038183	-0.234399
O45	O	1.835207	0.371517	0.098934
O46	O	1.158828	-0.495341	-0.353537
O47	O	1.492161	-0.162008	-0.020204
O48	O	1.825494	0.171325	0.313129
O49	O	1.062428	-0.495309	-0.449945
O50	O	1.395761	-0.161976	-0.116612
O51	O	1.729094	0.171357	0.216721
C52	C	0.914264	-0.338316	-0.394284
C53	C	1.247597	-0.004983	-0.060951
C54	C	1.580931	0.328351	0.272383
C55	C	0.827014	-0.338328	-0.394294
C56	C	1.160347	-0.004994	-0.060961
C57	C	1.493680	0.328339	0.272373
C58	C	1.109418	-0.520809	-0.402965
C59	C	1.442751	-0.187476	-0.069632
C60	C	1.776085	0.145857	0.263701
C61	C	1.105728	-0.598875	-0.406696
C62	C	1.439061	-0.265542	-0.073363
C63	C	1.772395	0.067791	0.259971
C64	C	0.783881	-0.383303	-0.446549
C65	C	1.117215	-0.049970	-0.113216
C66	C	1.450548	0.283363	0.220117
C67	C	0.701901	-0.383305	-0.446562
C68	C	1.035234	-0.049971	-0.113229
C69	C	1.368567	0.283362	0.220105
C70	C	0.663054	-0.338334	-0.394315
C71	C	0.996387	-0.005000	-0.060982
C72	C	1.329721	0.328333	0.272352
C73	C	0.706193	-0.293353	-0.342057
C74	C	1.039526	0.039980	-0.008724
C75	C	1.372859	0.373314	0.324610
C76	C	0.788172	-0.293349	-0.342049
C77	C	1.121505	0.039985	-0.008716
C78	C	1.454838	0.373318	0.324618
C79	C	0.535322	-0.293367	-0.342077
C80	C	0.868655	0.039966	-0.008743
C81	C	1.201988	0.373300	0.324590
C82	C	0.453337	-0.293372	-0.342084
C83	C	0.786670	0.039961	-0.008750
C84	C	1.120004	0.373294	0.324583
C85	C	0.449051	-0.383323	-0.446590
C86	C	0.782384	-0.049990	-0.113256
C87	C	1.115718	0.283344	0.220077
C88	C	0.531030	-0.383319	-0.446581
C89	C	0.864363	-0.049985	-0.113248
C90	C	1.197697	0.283348	0.220085
C91	C	0.574163	-0.338339	-0.394323
C92	C	0.907496	-0.005005	-0.060989
C93	C	1.240830	0.328328	0.272344
C94	C	1.154223	-0.635544	-0.358296
C95	C	1.487557	-0.302211	-0.024963
C96	C	1.820890	0.031123	0.308371
C97	C	1.150758	-0.708895	-0.361809
C98	C	1.484091	-0.375562	-0.028476
C99	C	1.817424	-0.042229	0.304858
C100	C	1.098792	-0.745576	-0.413719
C101	C	1.432125	-0.412243	-0.080386
C102	C	1.765458	-0.078910	0.252948
C103	C	1.050294	-0.708902	-0.462125
C104	C	1.383627	-0.375569	-0.128791
C105	C	1.716961	-0.042236	0.204542
C106	C	1.053764	-0.635553	-0.458615
C107	C	1.387098	-0.302219	-0.125281
C108	C	1.720431	0.031114	0.208052
C109	C	1.085804	-0.967046	-0.426829
C110	C	1.419138	-0.633713	-0.093496
C111	C	1.752471	-0.300379	0.239837
C112	C	1.082336	-1.040401	-0.430334
C113	C	1.415669	-0.707068	-0.097001
C114	C	1.749003	-0.373734	0.236333
C115	C	1.182801	-1.040389	-0.330019
C116	C	1.516134	-0.707055	0.003314
C117	C	1.849468	-0.373722	0.336648
C118	C	1.186263	-0.967038	-0.326510
C119	C	1.519597	-0.633704	0.006823
C120	C	1.852930	-0.300371	0.340156
C121	C	1.137769	-0.930370	-0.374919
C122	C	1.471102	-0.597037	-0.041585
C123	C	1.804435	-0.263703	0.291748
C124	C	1.095246	-0.820553	-0.417310
C125	C	1.428579	-0.487220	-0.083976
C126	C	1.761913	-0.153886	0.249357
C127	C	1.141319	-0.855395	-0.371332
C128	C	1.474652	-0.522061	-0.037998
C129	C	1.807985	-0.188728	0.295335
C130	C	1.322955	-0.338342	-0.394329
C131	C	1.656288	-0.005009	-0.060996
C132	C	1.989622	0.328325	0.272337
C133	C	1.410205	-0.338348	-0.394339
C134	C	1.743538	-0.005014	-0.061006
C135	C	2.076871	0.328319	0.272328
C136	C	1.118253	-0.338274	-0.599048
C137	C	1.451587	-0.004941	-0.265715
C138	C	1.784920	0.328392	0.067618
C139	C	1.118271	-0.338251	-0.686297
C140	C	1.451605	-0.004918	-0.352964
C141	C	1.784938	0.328415	-0.019630
C142	C	1.127061	-0.155136	-0.385631
C143	C	1.460394	0.178198	-0.052297
C144	C	1.793727	0.511531	0.281036
C145	C	1.130832	-0.077070	-0.381934
C146	C	1.464165	0.256264	-0.048600
C147	C	1.797498	0.589597	0.284733
C148	C	1.070251	-0.293321	-0.725153
C149	C	1.403584	0.040012	-0.391820
C150	C	1.736918	0.373345	-0.058487
C151	C	1.070265	-0.293305	-0.807133
C152	C	1.403598	0.040028	-0.473800
C153	C	1.736931	0.373361	-0.140466
C154	C	1.118303	-0.338216	-0.850255
C155	C	1.451636	-0.004883	-0.516921
C156	C	1.784970	0.328450	-0.183588
C157	C	1.166325	-0.383151	-0.811393
C158	C	1.499659	-0.049818	-0.478060
C159	C	1.832992	0.283516	-0.144726
C160	C	1.166307	-0.383170	-0.729415
C161	C	1.499640	-0.049837	-0.396081
C162	C	1.832974	0.283497	-0.062748
C163	C	1.166361	-0.383107	-0.982261
C164	C	1.499695	-0.049774	-0.648928
C165	C	1.833028	0.283559	-0.315594
C166	C	1.166381	-0.383087	-1.064245
C167	C	1.499714	-0.049754	-0.730911
C168	C	1.833048	0.283579	-0.397578
C169	C	1.070319	-0.293243	-1.059979
C170	C	1.403652	0.040091	-0.726646
C171	C	1.736986	0.373424	-0.393312
C172	C	1.070301	-0.293262	-0.978001
C173	C	1.403634	0.040072	-0.644668
C174	C	1.736967	0.373405	-0.311334
C175	C	1.118324	-0.338196	-0.939145
C176	C	1.451658	-0.004862	-0.605812
C177	C	1.784991	0.328471	-0.272478
C178	C	1.118217	-0.338332	-0.190359
C179	C	1.451550	-0.004999	0.142975
C180	C	1.784884	0.328334	0.476308
C181	C	1.118361	-0.338158	-0.103101
C182	C	1.451694	-0.004824	0.230232
C183	C	1.785027	0.328509	0.563566
H184	H	0.815504	-0.419926	-0.489093
H185	H	1.148837	-0.086593	-0.155759
H186	H	1.482171	0.246740	0.177574
H187	H	1.031137	-0.256746	-0.690049
H188	H	1.364471	0.076588	-0.356716
H189	H	1.697804	0.409921	-0.023382
Br190	Br	0.846710	-0.232304	-0.271132
Br191	Br	1.180043	0.101029	0.062201
Br192	Br	1.513377	0.434363	0.395534
Br193	Br	1.231584	-0.444032	-1.122767
Br194	Br	1.564918	-0.110699	-0.789434
Br195	Br	1.898251	0.222635	-0.456100
Br196	Br	1.231531	-0.444094	-0.929528
Br197	Br	1.564865	-0.110761	-0.596195
Br198	Br	1.898198	0.222573	-0.262861
Br199	Br	1.231474	-0.444154	-0.676680
Br200	Br	1.564807	-0.110821	-0.343347
Br201	Br	1.898140	0.222513	-0.010014
H202	H	0.674557	-0.256734	-0.299520
H203	H	1.007891	0.076599	0.033813
H204	H	1.341224	0.409933	0.367147
Br205	Br	1.005047	-0.232365	-0.859866
Br206	Br	1.338380	0.100969	-0.526532
Br207	Br	1.671714	0.434302	-0.193199
H208	H	1.196536	-0.605683	-0.316022
H209	H	1.529870	-0.272350	0.017312
H210	H	1.863203	0.060983	0.350645
H211	H	1.222284	-1.070251	-0.290609
H212	H	1.555617	-0.736918	0.042724
H213	H	1.888950	-0.403585	0.376058
H214	H	1.031187	-0.256688	-0.942893
H215	H	1.364521	0.076645	-0.609560
H216	H	1.697854	0.409979	-0.276226
Br217	Br	1.005148	-0.232257	-1.112711
Br218	Br	1.338482	0.101076	-0.779378
Br219	Br	1.671815	0.434410	-0.446044
H220	H	0.570439	-0.256733	-0.299529
H221	H	0.903772	0.076600	0.033805
H222	H	1.237105	0.409933	0.367138
H223	H	0.413928	-0.419945	-0.489143
H224	H	0.747262	-0.086612	-0.155810
H225	H	1.080595	0.246721	0.177524
Br226	Br	1.024724	-0.870340	-0.487759
Br227	Br	1.358057	-0.537007	-0.154425
Br228	Br	1.691391	-0.203674	0.178908
Br229	Br	1.231514	-0.444109	-0.869915
Br230	Br	1.564847	-0.110776	-0.536581
Br231	Br	1.898181	0.222558	-0.203248
H232	H	1.190247	-0.738748	-0.322396
H233	H	1.523581	-0.405414	0.010937
H234	H	1.856914	-0.072081	0.344271
Br235	Br	1.011793	-1.090183	-0.500775
Br236	Br	1.345126	-0.756849	-0.167441
Br237	Br	1.678459	-0.423516	0.165892
Br238	Br	0.643366	-0.444344	-0.517485
Br239	Br	0.976700	-0.111011	-0.184152
Br240	Br	1.310033	0.222323	0.149182
H241	H	1.046317	-0.937197	-0.466244
H242	H	1.379650	-0.603864	-0.132911
H243	H	1.712983	-0.270530	0.200423
Br244	Br	0.583750	-0.444358	-0.517482
Br245	Br	0.917084	-0.111025	-0.184148
Br246	Br	1.250417	0.222309	0.149185
H247	H	0.421711	-0.256744	-0.299549
H248	H	0.755044	0.076589	0.033785
H249	H	1.088377	0.409922	0.367118
Br250	Br	0.987951	-0.585787	-0.524308
Br251	Br	1.321285	-0.252453	-0.190975
Br252	Br	1.654618	0.080880	0.142358
Br253	Br	1.256801	-0.917261	-0.256069
Br254	Br	1.590135	-0.583928	0.077265
Br255	Br	1.923468	-0.250594	0.410598
Br256	Br	0.979775	-0.758683	-0.532582
Br257	Br	1.313108	-0.425350	-0.199248
Br258	Br	1.646441	-0.092016	0.134085
H259	H	1.183633	-0.825527	-0.329069
H260	H	1.516966	-0.492193	0.004264
H261	H	1.850299	-0.158860	0.337597
