data_functionalizedCrystal
_audit_creation_method	'MofGen! by Chris Wilmer'
_symmetry_space_group_name_H-M	'P1'
_symmetry_Int_Tables_number	1
_symmetry_cell_setting	triclinic
loop_
_symmetry_equiv_pos_as_xyz
  x,y,z
_cell_length_a	19.188930
_cell_length_b	17.666332
_cell_length_c	19.188922
_cell_angle_alpha	89.992279
_cell_angle_beta	96.857064
_cell_angle_gamma	90.023133
loop_
_atom_site_label
_atom_site_type_symbol
_atom_site_fract_x
_atom_site_fract_y
_atom_site_fract_z
O1	O	0.926147	0.063196	-0.087168
O2	O	0.722835	0.063144	-0.098902
O3	O	0.830361	0.063162	0.008621
O4	O	0.818621	0.063178	-0.194691
O5	O	0.830343	-0.062735	0.008624
O6	O	0.722816	-0.062752	-0.098899
O7	O	0.926128	-0.062701	-0.087165
Cu8	Cu	0.824470	-0.074222	-0.093032
Cu9	Cu	0.824493	0.074665	-0.093035
O10	O	0.818602	-0.062718	-0.194688
C11	C	0.696815	0.000189	-0.098521
C12	C	0.619310	0.000169	-0.097380
N13	N	0.824460	-0.178941	-0.093029
C14	C	0.574384	0.000186	-0.160471
C15	C	0.501560	0.000195	-0.159399
C16	C	0.473666	0.000201	-0.095233
C17	C	0.518602	0.000180	-0.032134
C18	C	0.591424	0.000164	-0.033207
N19	N	0.365694	0.043076	-0.046187
N20	N	0.296515	0.043092	-0.045171
C21	C	0.254257	0.000247	-0.091995
N22	N	0.283790	-0.042606	-0.139883
N23	N	0.352975	-0.042619	-0.140900
C24	C	0.394704	0.000218	-0.094062
C25	C	0.130367	0.000272	-0.153928
C26	C	0.057542	0.000276	-0.152854
C27	C	0.074585	0.000268	-0.025586
C28	C	0.147408	0.000257	-0.026663
C29	C	0.175295	0.000263	-0.090835
C30	C	0.866667	-0.218530	-0.135274
C31	C	0.866679	-0.297778	-0.135272
C32	C	0.824469	-0.337434	-0.093033
C33	C	0.782259	-0.297836	-0.050778
C34	C	0.782254	-0.218590	-0.050776
N35	N	0.763321	-0.461889	-0.091313
N36	N	0.763327	-0.537169	-0.091318
C37	C	0.824482	-0.576198	-0.093035
N38	N	0.885631	-0.537101	-0.094759
N39	N	0.885624	-0.461814	-0.094757
C40	C	0.824470	-0.423363	-0.093030
C41	C	0.866705	-0.701715	-0.135281
C42	C	0.866718	-0.780964	-0.135274
C43	C	0.782292	-0.781021	-0.050784
C44	C	0.782286	-0.701773	-0.050787
C45	C	0.824491	-0.662125	-0.093039
C46	C	0.952148	0.000256	-0.087546
C47	C	1.029653	0.000281	-0.088687
C48	C	0.829973	0.000212	0.034634
C49	C	0.828835	0.000210	0.112139
N50	N	0.824509	0.179385	-0.093033
C51	C	0.828314	0.068836	0.148536
C52	C	0.827234	0.068840	0.221359
C53	C	0.826690	0.000215	0.257783
C54	C	0.827207	-0.068420	0.221377
C55	C	0.828279	-0.068423	0.148554
N56	N	0.864731	-0.050852	0.377448
N57	N	0.863714	-0.050844	0.446626
C58	C	0.823458	0.000220	0.477193
N59	N	0.784266	0.051288	0.435968
N60	N	0.785286	0.051283	0.366784
C61	C	0.825527	0.000211	0.336747
C62	C	0.821765	0.068856	0.592552
C63	C	0.820682	0.068858	0.665376
C64	C	0.820661	-0.068404	0.665394
C65	C	0.821738	-0.068404	0.592571
C66	C	0.822293	0.000228	0.556155
C67	C	0.818992	0.000231	0.779300
C68	C	0.820136	0.000232	0.701795
H69	H	0.597084	0.000192	-0.212726
H70	H	0.901093	-0.813196	-0.169673
Cl71	Cl	0.203890	0.000240	0.052657
H72	H	0.747882	-0.186357	-0.016374
Cl73	Cl	0.820022	0.155139	0.711133
Cl74	Cl	0.819973	-0.154677	0.711177
H75	H	0.826806	0.124726	0.250998
Cl76	Cl	0.826517	-0.154691	0.267166
H77	H	0.828701	-0.124308	0.118920
Cl78	Cl	0.919712	-0.168691	-0.188405
H79	H	0.828764	0.124721	0.118890
Cl80	Cl	0.039525	0.000267	0.055081
H81	H	0.747913	-0.669540	-0.016389
H82	H	0.822213	0.124741	0.562901
Cl83	Cl	0.919778	-0.651869	-0.188381
H84	H	0.464975	0.000206	-0.210777
Cl85	Cl	0.919744	-0.347556	-0.188385
H86	H	0.747925	-0.813308	-0.016391
Cl87	Cl	0.483536	0.000183	0.048533
Cl88	Cl	0.647906	0.000143	0.046114
H89	H	0.153073	0.000265	-0.206182
Cl90	Cl	0.001062	0.000293	-0.232176
H91	H	0.822168	-0.124287	0.562936
H92	H	0.747892	-0.330129	-0.016386
