data_functionalizedCrystal
_audit_creation_method	'MofGen! by Chris Wilmer'
_symmetry_space_group_name_H-M	'P1'
_symmetry_Int_Tables_number	1
_symmetry_cell_setting	triclinic
loop_
_symmetry_equiv_pos_as_xyz
  x,y,z
_cell_length_a	12.503572
_cell_length_b	14.044220
_cell_length_c	14.044220
_cell_angle_alpha	93.188878
_cell_angle_beta	93.843168
_cell_angle_gamma	86.164750
loop_
_atom_site_label
_atom_site_type_symbol
_atom_site_fract_x
_atom_site_fract_y
_atom_site_fract_z
O1	O	0.089210	-1.282200	-0.225116
O2	O	0.422543	-0.948867	0.108217
O3	O	0.755877	-0.615533	0.441550
O4	O	0.089237	-1.005530	-0.216809
O5	O	0.422570	-0.672197	0.116524
O6	O	0.755904	-0.338863	0.449858
O7	O	0.089213	-1.139712	-0.082627
O8	O	0.422547	-0.806378	0.250706
O9	O	0.755880	-0.473045	0.584039
O10	O	0.089234	-1.148019	-0.359298
O11	O	0.422567	-0.814685	-0.025964
O12	O	0.755900	-0.481352	0.307369
O13	O	-0.089427	-1.129622	-0.092737
O14	O	0.243907	-0.796289	0.240596
O15	O	0.577240	-0.462955	0.573930
O16	O	-0.089403	-0.995440	-0.226918
O17	O	0.243930	-0.662107	0.106415
O18	O	0.577264	-0.328774	0.439748
O19	O	-0.089430	-1.272110	-0.235226
O20	O	0.243903	-0.938777	0.098108
O21	O	0.577237	-0.605444	0.431441
Cu22	Cu	-0.105728	-1.132854	-0.231995
Cu23	Cu	0.227605	-0.799521	0.101338
Cu24	Cu	0.560939	-0.466187	0.434672
Cu25	Cu	0.105535	-1.144786	-0.220040
Cu26	Cu	0.438868	-0.811453	0.113294
Cu27	Cu	0.772202	-0.478120	0.446627
O28	O	-0.089406	-1.137929	-0.369407
O29	O	0.243927	-0.804595	-0.036074
O30	O	0.577260	-0.471262	0.297259
C31	C	-0.000080	-0.964864	-0.218228
C32	C	0.333254	-0.631530	0.115105
C33	C	0.666587	-0.298197	0.448439
C34	C	-0.000070	-0.858721	-0.207383
C35	C	0.333264	-0.525388	0.125951
C36	C	0.666597	-0.192055	0.459284
N37	N	-0.254319	-1.124469	-0.240404
N38	N	0.079015	-0.791135	0.092929
N39	N	0.412348	-0.457802	0.426263
C40	C	-0.000107	-1.131031	-0.052060
C41	C	0.333227	-0.797698	0.281273
C42	C	0.666560	-0.464365	0.614606
C43	C	-0.000107	-1.120187	0.054082
C44	C	0.333226	-0.786853	0.387416
C45	C	0.666560	-0.453520	0.720749
C46	C	-0.473432	-1.112134	-0.252782
C47	C	-0.140098	-0.778800	0.080551
C48	C	0.193235	-0.445467	0.413885
C49	C	-0.526768	-1.165511	-0.199249
C50	C	-0.193435	-0.832178	0.134085
C51	C	0.139898	-0.498844	0.467418
C52	C	-0.648690	-1.158648	-0.206136
C53	C	-0.315357	-0.825314	0.127198
C54	C	0.017976	-0.491981	0.460531
C55	C	-0.351499	-1.118996	-0.245896
C56	C	-0.018165	-0.785662	0.087437
C57	C	0.315168	-0.452329	0.420771
N58	N	0.254126	-1.153179	-0.211624
N59	N	0.587459	-0.819846	0.121710
N60	N	0.920792	-0.486512	0.455043
C61	C	-0.000111	-1.312777	-0.233807
C62	C	0.333222	-0.979444	0.099527
C63	C	0.666556	-0.646110	0.432860
C64	C	-0.000114	-1.418920	-0.244651
C65	C	0.333219	-1.085586	0.088682
C66	C	0.666553	-0.752253	0.422015
C67	C	-0.000092	-0.664382	-0.187558
C68	C	0.333241	-0.331049	0.145776
C69	C	0.666574	0.002284	0.479109
C70	C	-0.000091	-0.613253	-0.264472
C71	C	0.333242	-0.279919	0.068861
C72	C	0.666575	0.053414	0.402195
C73	C	-0.000104	-0.505116	-0.253441
C74	C	0.333229	-0.171782	0.079892
C75	C	0.666563	0.161551	0.413225
C76	C	-0.000080	-0.772529	-0.198587
C77	C	0.333254	-0.439196	0.134746
C78	C	0.666587	-0.105863	0.468079
C79	C	-0.000084	-1.146609	-0.399974
C80	C	0.333249	-0.813276	-0.066641
C81	C	0.666583	-0.479943	0.266692
C82	C	-0.000077	-1.157454	-0.506117
C83	C	0.333257	-0.824121	-0.172783
C84	C	0.666590	-0.490788	0.160550
C85	C	-0.000090	-1.100361	0.248421
C86	C	0.333244	-0.767028	0.581754
C87	C	0.666577	-0.433695	0.915088
C88	C	-0.000094	-1.177275	0.299551
C89	C	0.333239	-0.843942	0.632884
C90	C	0.666573	-0.510609	0.966217
C91	C	-0.000084	-1.166244	0.407687
C92	C	0.333249	-0.832911	0.741021
C93	C	0.666582	-0.499578	1.074354
C94	C	-0.000099	-1.111391	0.140274
C95	C	0.333234	-0.778058	0.473608
C96	C	0.666567	-0.444724	0.806941
H97	H	-0.519330	-1.061285	-0.303783
H98	H	-0.185997	-0.727952	0.029550
H99	H	0.147337	-0.394619	0.362883
O100	O	-0.472181	-1.226204	-0.138325
O101	O	-0.138848	-0.892871	0.195008
O102	O	0.194486	-0.559538	0.528341
C103	C	-0.545785	-1.274508	-0.089926
C104	C	-0.212452	-0.941175	0.243408
C105	C	0.120882	-0.607842	0.576741
H106	H	-0.625984	-1.230824	-0.090035
H107	H	-0.292651	-0.897490	0.243298
H108	H	0.040682	-0.564157	0.576632
H109	H	-0.513191	-1.284319	-0.013090
H110	H	-0.179858	-0.950986	0.320244
H111	H	0.153476	-0.617652	0.653577
H112	H	-0.557697	-1.347440	-0.127512
H113	H	-0.224364	-1.014107	0.205821
H114	H	0.108969	-0.680774	0.539154
H115	H	-0.000104	-0.626945	-0.113431
H116	H	0.333230	-0.293612	0.219902
H117	H	0.666563	0.039722	0.553236
H118	H	-0.000029	-1.251413	0.262115
H119	H	0.333304	-0.918079	0.595449
H120	H	0.666638	-0.584746	0.928782
O121	O	-0.000255	-0.657863	-0.352942
O122	O	0.333079	-0.324530	-0.019609
O123	O	0.666412	0.008804	0.313725
C124	C	-0.092750	-0.625909	-0.408088
C125	C	0.240583	-0.292576	-0.074755
C126	C	0.573917	0.040758	0.258579
H127	H	-0.157437	-0.597123	-0.358672
H128	H	0.175897	-0.263789	-0.025338
H129	H	0.509230	0.069544	0.307995
H130	H	-0.123780	-0.687995	-0.455462
H131	H	0.209554	-0.354662	-0.122129
H132	H	0.542887	-0.021329	0.211204
H133	H	-0.071829	-0.566772	-0.454722
H134	H	0.261505	-0.233439	-0.121389
H135	H	0.594838	0.099894	0.211945
H136	H	-0.000080	-1.026234	0.285859
H137	H	0.333253	-0.692901	0.619192
H138	H	0.666587	-0.359568	0.952525
