data_functionalizedCrystal
_audit_creation_method	'MofGen! by Chris Wilmer'
_symmetry_space_group_name_H-M	'P1'
_symmetry_Int_Tables_number	1
_symmetry_cell_setting	triclinic
loop_
_symmetry_equiv_pos_as_xyz
  x,y,z
_cell_length_a	6.817900
_cell_length_b	11.102188
_cell_length_c	10.943624
_cell_angle_alpha	91.862487
_cell_angle_beta	108.838799
_cell_angle_gamma	108.603875
loop_
_atom_site_label
_atom_site_type_symbol
_atom_site_fract_x
_atom_site_fract_y
_atom_site_fract_z
V1	V	-4.114273	-0.175806	-0.402551
O2	O	-4.073263	0.008482	-0.394888
O3	O	-4.091022	-0.348626	-0.399798
O4	O	-4.092254	-0.173086	-0.578118
O5	O	-4.072022	-0.168272	-0.215334
V6	V	-4.591224	-0.153764	-0.380159
O7	O	-4.389948	-0.224155	-0.451671
O8	O	-4.765746	-0.105415	-0.331038
O9	O	-4.391268	0.019056	-0.382912
O10	O	-4.749630	-0.338052	-0.387822
O11	O	-4.750872	-0.161298	-0.567376
O12	O	-4.390036	-0.156484	-0.204592
C13	C	-3.941287	-0.390756	-0.393448
C14	C	-4.003739	-0.532039	-0.392367
C15	C	-3.972102	-0.580274	-0.273626
C16	C	-4.030807	-0.713026	-0.272616
C17	C	-4.152777	-0.749296	-0.509098
C18	C	-4.094087	-0.616547	-0.510107
C19	C	-3.942858	-0.166836	-0.620910
C20	C	-4.006305	-0.165757	-0.764437
C21	C	-3.851186	-0.158485	-0.841584
C22	C	-4.039794	-0.266416	-0.947575
C23	C	-3.930776	-0.055914	-0.914188
C24	C	-4.194123	-0.273789	-0.868550
C25	C	-4.085026	-0.063191	-0.835140
C26	C	-4.273770	-0.171153	-0.941100
C27	C	-4.204346	0.061180	-0.389258
C28	C	-4.121133	0.202461	-0.390348
C29	C	-4.202774	-0.162738	-0.161793
C30	C	-4.118564	-0.163811	-0.018265
H31	H	-4.119865	-0.577276	-0.606807
H32	H	-4.453047	-0.176534	-0.984345
Br33	Br	-4.115651	0.080015	-0.753490
H34	H	-4.226340	-0.818118	-0.604957
H35	H	-4.005042	-0.752291	-0.175925
Br36	Br	-4.378714	-0.427430	-0.834319
Br37	Br	-3.552566	-0.149792	-0.769159
H38	H	-3.820067	0.036144	-0.934950
Br39	Br	-4.009037	-0.409616	-1.029161
H40	H	-3.898537	-0.511470	-0.177755
