data_functionalizedCrystal
_audit_creation_method	'MofGen! by Chris Wilmer'
_symmetry_space_group_name_H-M	'P1'
_symmetry_Int_Tables_number	1
_symmetry_cell_setting	triclinic
loop_
_symmetry_equiv_pos_as_xyz
  x,y,z
_cell_length_a	12.827893
_cell_length_b	16.625546
_cell_length_c	12.827885
_cell_angle_alpha	90.035124
_cell_angle_beta	90.019272
_cell_angle_gamma	90.022439
loop_
_atom_site_label
_atom_site_type_symbol
_atom_site_fract_x
_atom_site_fract_y
_atom_site_fract_z
Zn1	Zn	1.597618	-0.320963	0.590810
Zn2	Zn	2.097618	0.179037	1.090810
Zn3	Zn	1.597491	-0.455817	0.416054
Zn4	Zn	2.097491	0.044183	0.916054
Zn5	Zn	1.422860	-0.321002	0.416084
Zn6	Zn	1.922860	0.178998	0.916084
Zn7	Zn	1.422823	-0.455757	0.590754
Zn8	Zn	1.922823	0.044243	1.090754
O9	O	1.510198	-0.388385	0.503425
O10	O	2.010198	0.111615	1.003425
O11	O	1.743837	-0.338861	0.567639
O12	O	2.243837	0.161139	1.067639
O13	O	1.574287	-0.437976	0.269822
O14	O	2.074287	0.062024	0.769822
O15	O	1.446110	-0.208165	0.439297
O16	O	1.946110	0.291835	0.939297
O17	O	1.743744	-0.437937	0.439247
O18	O	2.243744	0.062063	0.939247
O19	O	1.574505	-0.208136	0.567668
O20	O	2.074505	0.291864	1.067668
O21	O	1.445987	-0.338928	0.269843
O22	O	1.945987	0.161072	0.769843
O23	O	1.276619	-0.338869	0.439243
O24	O	1.776619	0.161131	0.939243
O25	O	1.446048	-0.437835	0.736997
O26	O	1.946048	0.062165	1.236997
O27	O	1.276592	-0.437873	0.567572
O28	O	1.776592	0.062127	1.067572
O29	O	1.574469	-0.338802	0.737039
O30	O	2.074469	0.161198	1.237039
O31	O	1.574252	-0.568642	0.439192
O32	O	2.074252	-0.068642	0.939192
O33	O	1.445925	-0.568598	0.567544
O34	O	1.945925	-0.068598	1.067544
C35	C	1.238688	-0.388370	0.503405
C36	C	1.738688	0.111630	1.003405
C37	C	1.122535	-0.388382	0.503422
C38	C	1.622535	0.111618	1.003422
C39	C	1.070765	-0.437449	0.566825
C40	C	1.570765	0.062551	1.066825
C41	C	0.950714	-0.437464	0.566844
C42	C	1.450714	0.062536	1.066844
C43	C	1.510099	-0.597876	0.503382
C44	C	2.010099	-0.097876	1.003382
C45	C	1.510152	-0.687497	0.503398
C46	C	2.010152	-0.187497	1.003398
C47	C	1.510335	-1.015673	0.503507
C48	C	2.010335	-0.515673	1.003507
C49	C	1.510281	-0.924364	0.503479
C50	C	2.010281	-0.424364	1.003479
C51	C	1.510243	-0.851588	0.503452
C52	C	2.010243	-0.351588	1.003452
C53	C	1.510190	-0.760274	0.503425
C54	C	2.010190	-0.260274	1.003425
C55	C	1.782768	-0.388401	0.503446
C56	C	2.282768	0.111599	1.003446
C57	C	1.898921	-0.388408	0.503455
C58	C	2.398921	0.111592	1.003455
C59	C	1.510269	-0.388308	0.775996
C60	C	2.010269	0.111692	1.275996
C61	C	1.510299	-0.388275	0.892149
C62	C	2.010299	0.111725	1.392149
C63	C	1.510326	-0.178076	0.503492
C64	C	2.010326	0.321924	1.003492
C65	C	1.510380	-0.088455	0.503521
C66	C	2.010380	0.411545	1.003521
C67	C	1.510187	-0.388404	0.231915
C68	C	2.010187	0.111596	0.731915
C69	C	1.510359	-0.388210	0.115763
C70	C	2.010359	0.111790	0.615763
C71	C	1.573853	-0.339261	0.943954
C72	C	2.073853	0.160739	1.443954
C73	C	1.573886	-0.339225	1.064004
C74	C	2.073886	0.160775	1.564004
H75	H	0.906193	-0.479474	0.621123
H76	H	1.406193	0.020526	1.121123
H77	H	1.628236	-0.297321	0.899429
H78	H	2.128236	0.202679	1.399429
H79	H	1.455950	-0.430178	1.071218
H80	H	1.955950	0.069822	1.571218
C81	C	1.437953	-0.444300	0.951559
C82	C	1.937953	0.055700	1.451559
C83	C	1.497170	-0.495934	1.014187
C84	C	1.997170	0.004066	1.514187
C85	C	1.430560	-0.547565	1.068915
C86	C	1.930560	-0.047565	1.568915
H87	H	1.392466	-0.413508	0.994230
H88	H	1.892466	0.086492	1.494230
H89	H	1.398097	-0.475103	0.903520
H90	H	1.898097	0.024897	1.403520
H91	H	1.537009	-0.465134	1.062220
H92	H	2.037009	0.034866	1.562220
H93	H	1.542655	-0.526743	0.971541
H94	H	2.042655	-0.026743	1.471541
H95	H	1.390704	-0.578368	1.020877
H96	H	1.890704	-0.078368	1.520877
H97	H	1.385076	-0.516767	1.111581
H98	H	1.885076	-0.016767	1.611581
H99	H	1.470729	-0.582609	1.111408
H100	H	1.970729	-0.082609	1.611408
C101	C	1.130296	-0.493321	0.639251
C102	C	1.630296	0.006679	1.139251
C103	C	1.193024	-0.447676	0.706253
C104	C	1.693024	0.052324	1.206253
C105	C	1.247888	-0.499119	0.772979
C106	C	1.747888	0.000881	1.272979
H107	H	1.082371	-0.524126	0.679132
H108	H	1.582371	-0.024126	1.179132
H109	H	1.172907	-0.528367	0.599176
H110	H	1.672907	-0.028367	1.099176
H111	H	1.150418	-0.412644	0.746324
H112	H	1.650418	0.087356	1.246324
H113	H	1.240970	-0.416872	0.666401
H114	H	1.740970	0.083128	1.166401
H115	H	1.290498	-0.534165	0.732904
H116	H	1.790498	-0.034165	1.232904
H117	H	1.199954	-0.529922	0.812853
H118	H	1.699954	-0.029922	1.312853
H119	H	1.290462	-0.468158	0.818441
H120	H	1.790462	0.031842	1.318441
C121	C	0.958404	-0.332521	0.431006
C122	C	1.458404	0.167479	0.931006
C123	C	1.021037	-0.378151	0.363985
C124	C	1.521037	0.121849	0.863985
C125	C	1.075866	-0.326696	0.297242
C126	C	1.575866	0.173304	0.797242
H127	H	0.910457	-0.301727	0.391140
H128	H	1.410457	0.198273	0.891140
H129	H	1.001075	-0.297464	0.471067
H130	H	1.501075	0.202536	0.971067
H131	H	0.978369	-0.413194	0.323929
H132	H	1.478369	0.086806	0.823929
H133	H	1.069003	-0.408943	0.403823
H134	H	1.569003	0.091057	0.903823
H135	H	1.118537	-0.291639	0.337302
H136	H	1.618537	0.208361	0.837302
H137	H	1.027912	-0.295905	0.257382
H138	H	1.527912	0.204095	0.757382
H139	H	1.118376	-0.357648	0.251766
H140	H	1.618376	0.142352	0.751766
C141	C	1.646324	-0.283297	1.123587
C142	C	2.146324	0.216703	1.623587
C143	C	1.631928	-0.294360	1.230813
C144	C	2.131928	0.205640	1.730813
C145	C	1.698630	-0.242842	1.285735
C146	C	2.198630	0.257158	1.785735
H147	H	1.716586	-0.295039	1.105879
H148	H	2.216586	0.204961	1.605879
H149	H	1.631059	-0.229097	1.105826
H150	H	2.131059	0.270903	1.605826
H151	H	1.647201	-0.348548	1.248567
H152	H	2.147201	0.151452	1.748567
H153	H	1.561680	-0.282612	1.248552
H154	H	2.061680	0.217388	1.748552
H155	H	1.683365	-0.188642	1.267973
H156	H	2.183365	0.311358	1.767973
H157	H	1.768888	-0.254588	1.268018
H158	H	2.268888	0.245412	1.768018
H159	H	1.688865	-0.250336	1.358493
H160	H	2.188865	0.249664	1.858493
H161	H	1.077981	-0.346382	0.449157
H162	H	1.577981	0.153618	0.949157
