data_functionalizedCrystal
_audit_creation_method	'MofGen! by Chris Wilmer'
_symmetry_space_group_name_H-M	'P1'
_symmetry_Int_Tables_number	1
_symmetry_cell_setting	triclinic
loop_
_symmetry_equiv_pos_as_xyz
  x,y,z
_cell_length_a	17.640112
_cell_length_b	21.395361
_cell_length_c	21.395356
_cell_angle_alpha	90.028219
_cell_angle_beta	101.171778
_cell_angle_gamma	78.744210
loop_
_atom_site_label
_atom_site_type_symbol
_atom_site_fract_x
_atom_site_fract_y
_atom_site_fract_z
Zn1	Zn	1.208336	0.055602	-0.160935
Zn2	Zn	1.541670	0.388935	0.172398
Zn3	Zn	1.875003	0.722269	0.505732
Zn4	Zn	1.208216	0.160398	-0.056176
Zn5	Zn	1.541549	0.493731	0.277158
Zn6	Zn	1.874883	0.827065	0.610491
Zn7	Zn	1.076152	0.076825	-0.077320
Zn8	Zn	1.409485	0.410159	0.256013
Zn9	Zn	1.742818	0.743492	0.589346
Zn10	Zn	1.076111	0.181559	-0.182052
Zn11	Zn	1.409444	0.514892	0.151282
Zn12	Zn	1.742778	0.848225	0.484615
O13	O	1.142204	0.118596	-0.119121
O14	O	1.475537	0.451929	0.214213
O15	O	1.808870	0.785263	0.547546
O16	O	1.318926	0.051766	-0.129352
O17	O	1.652260	0.385099	0.203981
O18	O	1.985593	0.718432	0.537315
O19	O	1.190664	0.149338	0.028692
O20	O	1.523997	0.482671	0.362025
O21	O	1.857331	0.816005	0.695359
O22	O	1.093754	-0.013679	-0.088423
O23	O	1.427087	0.319655	0.244910
O24	O	1.760420	0.652988	0.578243
O25	O	1.318838	0.128759	-0.052386
O26	O	1.652171	0.462092	0.280947
O27	O	1.985504	0.795426	0.614281
O28	O	1.190869	-0.029271	-0.149855
O29	O	1.524202	0.304062	0.183478
O30	O	1.857536	0.637395	0.516812
O31	O	1.093637	0.087937	0.013157
O32	O	1.426970	0.421271	0.346491
O33	O	1.760304	0.754604	0.679824
O34	O	0.965540	0.108456	-0.108899
O35	O	1.298874	0.441789	0.224434
O36	O	1.632207	0.775123	0.557767
O37	O	1.093684	0.164824	-0.266923
O38	O	1.427018	0.498157	0.066410
O39	O	1.760351	0.831491	0.399744
O40	O	0.965511	0.185403	-0.185845
O41	O	1.298844	0.518736	0.147488
O42	O	1.632177	0.852070	0.480821
O43	O	1.190830	0.072284	-0.251409
O44	O	1.524163	0.405618	0.081925
O45	O	1.857496	0.738951	0.415258
O46	O	1.190624	0.250894	-0.072862
O47	O	1.523958	0.584227	0.260471
O48	O	1.857291	0.917560	0.593805
O49	O	1.093568	0.266440	-0.165342
O50	O	1.426901	0.599774	0.167991
O51	O	1.760234	0.933107	0.501324
C52	C	0.936847	0.151529	-0.151959
C53	C	1.270180	0.484863	0.181375
C54	C	1.603513	0.818196	0.514708
C55	C	0.848994	0.165633	-0.166022
C56	C	1.182327	0.498967	0.167312
C57	C	1.515661	0.832300	0.500645
C58	C	0.560026	0.011438	-0.012290
C59	C	0.893359	0.344771	0.321043
C60	C	1.226692	0.678104	0.654376
C61	C	0.477475	0.024703	-0.025513
C62	C	0.810808	0.358037	0.307820
C63	C	1.144141	0.691370	0.641153
C64	C	0.477498	0.104939	-0.105499
C65	C	0.810831	0.438272	0.227835
C66	C	1.144164	0.771605	0.561168
C67	C	0.560050	0.091678	-0.092285
C68	C	0.893384	0.425011	0.241049
C69	C	1.226717	0.758344	0.574382
C70	C	0.601308	0.044927	-0.045679
C71	C	0.934641	0.378260	0.287654
C72	C	1.267975	0.711594	0.620987
C73	C	0.601333	0.125167	-0.125674
C74	C	0.934666	0.458500	0.207660
C75	C	1.267999	0.791834	0.540993
C76	C	0.683878	0.111909	-0.112458
C77	C	1.017212	0.445242	0.220875
C78	C	1.350545	0.778576	0.554208
C79	C	0.725141	0.065162	-0.065854
C80	C	1.058475	0.398495	0.267480
C81	C	1.391808	0.731829	0.600813
C82	C	0.683853	0.031669	-0.032464
C83	C	1.017187	0.365003	0.300869
C84	C	1.350520	0.698336	0.634203
C85	C	0.560074	0.171921	-0.172276
C86	C	0.893407	0.505254	0.161058
C87	C	1.226740	0.838587	0.494391
C88	C	0.601356	0.205410	-0.205665
C89	C	0.934689	0.538743	0.127669
C90	C	1.268023	0.872076	0.461002
C91	C	0.683903	0.192149	-0.192453
C92	C	1.017236	0.525482	0.140881
C93	C	1.350570	0.858816	0.474214
C94	C	0.725166	0.145402	-0.145848
C95	C	1.058500	0.478735	0.187485
C96	C	1.391833	0.812069	0.520819
C97	C	0.725191	0.225642	-0.225842
C98	C	1.058524	0.558975	0.107491
C99	C	1.391858	0.892308	0.440824
C100	C	0.807736	0.212384	-0.212627
C101	C	1.141070	0.545717	0.120706
C102	C	1.474403	0.879051	0.454040
C103	C	0.807712	0.132144	-0.132633
C104	C	1.141045	0.465477	0.200701
C105	C	1.474378	0.798811	0.534034
C106	C	1.142100	0.281400	-0.119109
C107	C	1.475433	0.614734	0.214224
C108	C	1.808767	0.948067	0.547557
C109	C	1.142128	0.351037	-0.119114
C110	C	1.475461	0.684370	0.214219
C111	C	1.808795	1.017704	0.547553
C112	C	1.142266	0.118547	-0.282534
C113	C	1.475599	0.451880	0.050799
C114	C	1.808933	0.785214	0.384133
C115	C	1.142292	0.118526	-0.352171
C116	C	1.475626	0.451860	-0.018838
C117	C	1.808959	0.785193	0.314496
C118	C	1.348363	0.085535	-0.086155
C119	C	1.681696	0.418868	0.247178
C120	C	2.015029	0.752201	0.580512
C121	C	1.436216	0.071446	-0.072107
C122	C	1.769549	0.404779	0.261226
C123	C	2.102882	0.738112	0.594560
C124	C	1.192710	0.375627	-0.070995
C125	C	1.526044	0.708960	0.262339
C126	C	1.859377	1.042294	0.595672
C127	C	1.192747	0.441056	-0.071006
C128	C	1.526081	0.774390	0.262328
C129	C	1.859414	1.107723	0.595661
C130	C	1.142188	0.481896	-0.119131
C131	C	1.475521	0.815229	0.214202
C132	C	1.808855	1.148562	0.547535
C133	C	1.091602	0.457298	-0.167259
C134	C	1.424935	0.790632	0.166074
C135	C	1.758269	1.123965	0.499408
C136	C	1.091572	0.391869	-0.167250
C137	C	1.424905	0.725202	0.166083
C138	C	1.758239	1.058536	0.499416
C139	C	1.071021	0.597027	-0.135432
C140	C	1.404354	0.930361	0.197901
C141	C	1.737688	1.263694	0.531235
C142	C	1.071050	0.662456	-0.135437
C143	C	1.404383	0.995789	0.197897
C144	C	1.737716	1.329122	0.531230
C145	C	1.142281	0.683701	-0.119162
C146	C	1.475614	1.017035	0.214171
C147	C	1.808947	1.350368	0.547505
C148	C	1.213486	0.639511	-0.102869
C149	C	1.546819	0.972844	0.230464
C150	C	1.880152	1.306177	0.563797
C151	C	1.213456	0.574081	-0.102861
C152	C	1.546789	0.907415	0.230473
C153	C	1.880122	1.240748	0.563806
C154	C	1.142215	0.552844	-0.119147
C155	C	1.475548	0.886177	0.214187
C156	C	1.808882	1.219510	0.547520
C157	C	1.192908	0.779237	-0.071052
C158	C	1.526241	1.112570	0.262282
C159	C	1.859574	1.445904	0.595615
C160	C	1.192946	0.844667	-0.071067
C161	C	1.526279	1.178001	0.262267
C162	C	1.859613	1.511334	0.595600
C163	C	1.091793	0.860909	-0.167318
C164	C	1.425127	1.194242	0.166015
C165	C	1.758460	1.527576	0.499348
C166	C	1.091762	0.795479	-0.167305
C167	C	1.425095	1.128812	0.166028
C168	C	1.758429	1.462145	0.499361
C169	C	1.142318	0.754647	-0.119169
C170	C	1.475651	1.087980	0.214164
C171	C	1.808985	1.421313	0.547498
C172	C	1.142330	0.955152	-0.119153
C173	C	1.475664	1.288486	0.214180
C174	C	1.808997	1.621819	0.547514
C175	C	1.142387	0.885502	-0.119194
C176	C	1.475720	1.218835	0.214140
C177	C	1.809053	1.552169	0.547473
C178	C	1.091784	0.086548	-0.392961
C179	C	1.425117	0.419882	-0.059628
C180	C	1.758451	0.753215	0.273706
C181	C	1.091781	0.086537	-0.458397
C182	C	1.425115	0.419871	-0.125064
C183	C	1.758448	0.753204	0.208270
C184	C	1.142301	0.118495	-0.483038
C185	C	1.475635	0.451828	-0.149705
C186	C	1.808968	0.785162	0.183629
C187	C	1.192813	0.150480	-0.442240
C188	C	1.526146	0.483814	-0.108906
C189	C	1.859480	0.817147	0.224427
C190	C	1.192809	0.150496	-0.376806
C191	C	1.526142	0.483829	-0.043473
C192	C	1.859475	0.817163	0.289861
C193	C	1.213516	0.111996	-0.575331
C194	C	1.546849	0.445330	-0.241997
C195	C	1.880182	0.778663	0.091336
C196	C	1.213521	0.111976	-0.640763
C197	C	1.546855	0.445309	-0.307429
C198	C	1.880188	0.778643	0.025904
C199	C	1.142314	0.118451	-0.684857
C200	C	1.475648	0.451784	-0.351524
C201	C	1.808981	0.785117	-0.018190
C202	C	1.071099	0.124933	-0.663511
C203	C	1.404433	0.458266	-0.330178
C204	C	1.737766	0.791600	0.003155
C205	C	1.071095	0.124948	-0.598078
C206	C	1.404428	0.458282	-0.264744
C207	C	1.737762	0.791615	0.068589
C208	C	1.142311	0.118482	-0.553989
C209	C	1.475645	0.451815	-0.220656
C210	C	1.808978	0.785149	0.112678
C211	C	1.091799	0.086459	-0.796601
C212	C	1.425132	0.419793	-0.463267
C213	C	1.758465	0.753126	-0.129934
C214	C	1.091795	0.086453	-0.862038
C215	C	1.425128	0.419786	-0.528705
C216	C	1.758461	0.753119	-0.195371
C217	C	1.192833	0.150391	-0.845878
C218	C	1.526167	0.483725	-0.512545
C219	C	1.859500	0.817058	-0.179212
C220	C	1.192830	0.150402	-0.780443
C221	C	1.526164	0.483736	-0.447110
C222	C	1.859497	0.817069	-0.113777
C223	C	1.142314	0.118433	-0.755808
C224	C	1.475647	0.451766	-0.422475
C225	C	1.808981	0.785099	-0.089142
C226	C	1.142187	0.118592	0.043664
C227	C	1.475521	0.451925	0.376998
C228	C	1.808854	0.785259	0.710331
C229	C	1.142314	0.118412	0.113325
C230	C	1.475647	0.451745	0.446659
C231	C	1.808981	0.785078	0.779992
H232	H	0.443866	-0.002576	0.001675
H233	H	0.777199	0.330758	0.335009
H234	H	1.110532	0.664091	0.668342
H235	H	1.013070	0.698432	-0.148697
H236	H	1.346403	1.031765	0.184636
H237	H	1.679737	1.365098	0.517970
H238	H	1.050630	0.894159	-0.206506
H239	H	1.383964	1.227493	0.126828
H240	H	1.717297	1.560826	0.460161
Cl241	Cl	0.859638	0.254487	-0.254601
Cl242	Cl	1.192971	0.587820	0.078733
Cl243	Cl	1.526305	0.921153	0.412066
H244	H	1.050438	0.490554	-0.206444
H245	H	1.383771	0.823887	0.126889
H246	H	1.717104	1.157220	0.460222
H247	H	0.717448	-0.006409	0.005478
H248	H	1.050781	0.326924	0.338811
H249	H	1.384114	0.660258	0.672144
H250	H	1.013011	0.579738	-0.148688
H251	H	1.346345	0.913071	0.184645
H252	H	1.679678	1.246404	0.517979
Cl253	Cl	1.302966	0.518530	-0.082385
Cl254	Cl	1.636299	0.851863	0.250948
Cl255	Cl	1.969633	1.185196	0.584281
H256	H	1.050647	0.060519	-0.372908
H257	H	1.383980	0.393852	-0.039575
H258	H	1.717313	0.727186	0.293758
Cl259	Cl	0.859584	0.073366	-0.074046
Cl260	Cl	1.192918	0.406700	0.259287
Cl261	Cl	1.526251	0.740033	0.592621
H262	H	0.691587	0.263710	-0.263784
H263	H	1.024920	0.597044	0.069549
H264	H	1.358253	0.930377	0.402883
H265	H	1.233946	0.176501	-0.462307
H266	H	1.567280	0.509834	-0.128973
H267	H	1.900613	0.843167	0.204360
H268	H	0.593620	-0.026641	0.025651
H269	H	0.926953	0.306693	0.358984
H270	H	1.260287	0.640026	0.692318
Cl271	Cl	1.027977	0.360955	-0.227748
Cl272	Cl	1.361310	0.694288	0.105585
Cl273	Cl	1.694643	1.027621	0.438919
Cl274	Cl	1.256547	0.875579	-0.010572
Cl275	Cl	1.589880	1.208913	0.322762
Cl276	Cl	1.923214	1.542246	0.656095
Cl277	Cl	1.028298	0.046317	-0.509683
Cl278	Cl	1.361631	0.379650	-0.176349
Cl279	Cl	1.694964	0.712983	0.156984
Cl280	Cl	0.828914	0.048497	-0.049236
Cl281	Cl	1.162248	0.381830	0.284098
Cl282	Cl	1.495581	0.715163	0.617431
H283	H	0.443895	0.143005	-0.143443
H284	H	0.777228	0.476338	0.189890
H285	H	1.110561	0.809672	0.523224
Cl286	Cl	0.549482	0.264187	-0.264244
Cl287	Cl	0.882815	0.597521	0.069089
Cl288	Cl	1.216149	0.930854	0.402422
Cl289	Cl	0.981572	0.133101	-0.571245
Cl290	Cl	1.314905	0.466435	-0.237911
Cl291	Cl	1.648239	0.799768	0.095422
H292	H	1.050665	0.060428	-0.776542
H293	H	1.383998	0.393762	-0.443209
H294	H	1.717331	0.727095	-0.109875
H295	H	1.013116	0.130201	-0.699412
H296	H	1.346449	0.463534	-0.366079
H297	H	1.679783	0.796867	-0.032746
Cl298	Cl	1.256312	0.190699	-0.325524
Cl299	Cl	1.589645	0.524032	0.007809
Cl300	Cl	1.922978	0.857366	0.341143
H301	H	1.233969	0.176411	-0.865940
H302	H	1.567303	0.509744	-0.532607
H303	H	1.900636	0.843077	-0.199273
Cl304	Cl	1.256462	0.727903	-0.010539
Cl305	Cl	1.589795	1.061236	0.322795
Cl306	Cl	1.923128	1.394569	0.656128
Cl307	Cl	1.028270	0.046269	-0.913322
Cl308	Cl	1.361603	0.379603	-0.579989
Cl309	Cl	1.694936	0.712936	-0.246655
Cl310	Cl	1.256278	0.324297	-0.010488
Cl311	Cl	1.589611	0.657630	0.322846
Cl312	Cl	1.922945	0.990964	0.656179
Cl313	Cl	0.456301	0.188595	-0.188881
Cl314	Cl	0.789634	0.521929	0.144452
Cl315	Cl	1.122967	0.855262	0.477785
Cl316	Cl	1.256336	0.190600	-0.729161
Cl317	Cl	1.589669	0.523934	-0.395827
Cl318	Cl	1.923003	0.857267	-0.062494
H319	H	1.233940	0.461081	-0.031821
H320	H	1.567274	0.794415	0.301513
H321	H	1.900607	1.127748	0.634846
Cl322	Cl	1.303039	0.666211	-0.082402
Cl323	Cl	1.636373	0.999544	0.250931
Cl324	Cl	1.969706	1.332878	0.584265
H325	H	1.271509	0.106695	-0.658137
H326	H	1.604842	0.440028	-0.324803
H327	H	1.938175	0.773361	0.008530
H328	H	1.050570	0.775457	-0.206487
H329	H	1.383903	1.108790	0.126847
H330	H	1.717237	1.442124	0.460180
H331	H	1.271506	0.106718	-0.539432
H332	H	1.604839	0.440051	-0.206099
H333	H	1.938172	0.773384	0.127234
