data_functionalizedCrystal
_audit_creation_method	'MofGen! by Chris Wilmer'
_symmetry_space_group_name_H-M	'P1'
_symmetry_Int_Tables_number	1
_symmetry_cell_setting	triclinic
loop_
_symmetry_equiv_pos_as_xyz
  x,y,z
_cell_length_a	12.784905
_cell_length_b	15.500215
_cell_length_c	12.837942
_cell_angle_alpha	87.113735
_cell_angle_beta	96.031870
_cell_angle_gamma	93.427580
loop_
_atom_site_label
_atom_site_type_symbol
_atom_site_fract_x
_atom_site_fract_y
_atom_site_fract_z
O1	O	1.415766	0.071950	-0.010302
O2	O	1.110767	0.071950	-0.054294
O3	O	1.256503	0.071945	0.117996
O4	O	1.270030	0.071955	-0.182591
O5	O	1.246890	-0.071945	0.125730
O6	O	1.101154	-0.071939	-0.046559
O7	O	1.406153	-0.071940	-0.002567
Cu8	Cu	1.252776	-0.085078	-0.023857
Cu9	Cu	1.264144	0.085088	-0.033004
O10	O	1.260417	-0.071934	-0.174857
C11	C	1.066651	0.000006	-0.053288
C12	C	0.949520	0.000006	-0.061801
N13	N	1.244788	-0.204763	-0.017422
C14	C	0.735569	0.000015	0.111641
C15	C	0.625514	0.000015	0.103648
C16	C	0.619352	0.000012	-0.085782
C17	C	0.729407	0.000012	-0.077788
C18	C	0.787512	0.000012	0.020927
C19	C	0.897569	0.000006	0.028920
C20	C	0.891406	0.000009	-0.160508
C21	C	0.781350	0.000009	-0.168502
C22	C	1.311959	-0.250034	-0.071573
C23	C	1.305930	-0.340608	-0.066698
C24	C	1.232726	-0.385908	-0.007679
C25	C	1.165552	-0.340631	0.046478
C26	C	1.171586	-0.250060	0.041609
C27	C	1.211001	-0.659377	0.009858
C28	C	1.204969	-0.749955	0.014721
C29	C	1.345350	-0.749925	-0.098455
C30	C	1.351373	-0.659352	-0.103324
C31	C	1.284203	-0.614083	-0.049162
C32	C	1.226560	-0.478489	-0.002698
C33	C	1.290375	-0.521504	-0.054138
C34	C	1.450270	0.000007	-0.003573
C35	C	1.567401	0.000012	0.004939
C36	C	1.247128	0.000000	0.160072
C37	C	1.233500	0.000002	0.273920
N38	N	1.272140	0.204774	-0.039430
C39	C	1.269793	0.000012	-0.216933
C40	C	1.283421	0.000016	-0.330782
C41	C	1.397333	0.000020	0.529645
C42	C	1.384533	0.000021	0.636617
C43	C	1.195103	0.000012	0.594838
C44	C	1.207902	0.000011	0.487866
C45	C	1.309020	0.000013	0.455274
C46	C	1.321818	0.000006	0.348300
C47	C	1.132389	0.000003	0.306523
C48	C	1.119590	0.000005	0.413495
H49	H	0.944876	0.000004	0.109299
Cl50	Cl	1.126520	-0.602479	0.077903
Cl51	Cl	0.992477	0.000009	0.454479
H52	H	0.933709	0.000002	-0.234375
Cl53	Cl	1.524447	0.000001	0.488669
H54	H	1.112777	0.000020	0.621394
H55	H	1.371564	-0.213157	-0.119639
Cl56	Cl	1.382404	-0.464553	-0.128327
H57	H	0.782879	0.000009	0.192019
H58	H	1.360630	-0.377463	-0.110792
Cl59	Cl	1.443365	-0.602409	-0.177571
H60	H	0.583227	0.000019	0.177516
Cl61	Cl	0.546290	0.000032	-0.209870
H62	H	0.734027	0.000013	-0.248873
Cl63	Cl	1.021361	-0.000016	0.213021
H64	H	1.400036	-0.786793	-0.142549
Cl65	Cl	1.112935	-0.806904	0.088923
Cl66	Cl	1.087149	-0.193147	0.109699
H67	H	1.105952	-0.377522	0.094539
H68	H	1.166956	-0.515383	0.045355
H69	H	1.404154	0.000004	0.321767
H70	H	1.456447	0.000029	0.697168
