data_functionalizedCrystal
_audit_creation_method	'MofGen! by Chris Wilmer'
_symmetry_space_group_name_H-M	'P1'
_symmetry_Int_Tables_number	1
_symmetry_cell_setting	triclinic
loop_
_symmetry_equiv_pos_as_xyz
  x,y,z
_cell_length_a	19.188930
_cell_length_b	14.044220
_cell_length_c	13.101039
_cell_angle_alpha	86.332523
_cell_angle_beta	86.639939
_cell_angle_gamma	91.833172
loop_
_atom_site_label
_atom_site_type_symbol
_atom_site_fract_x
_atom_site_fract_y
_atom_site_fract_z
O1	O	0.937307	-0.113041	-0.085551
O2	O	0.735021	-0.128972	-0.085481
O3	O	0.833127	0.016965	-0.085505
O4	O	0.839201	-0.258978	-0.085527
O5	O	0.826089	0.006477	0.084927
O6	O	0.727983	-0.139460	0.084950
O7	O	0.930269	-0.123529	0.084881
Zn8	Zn	0.828009	-0.133160	0.111975
Zn9	Zn	0.837282	-0.119341	-0.112576
O10	O	0.832163	-0.269466	0.084904
C11	C	0.705457	-0.133701	-0.000256
C12	C	0.627852	-0.132154	-0.000229
C13	C	0.588454	-0.217783	-0.000252
C14	C	0.515537	-0.216328	-0.000263
C15	C	0.482021	-0.129238	-0.000272
C16	C	0.521427	-0.043598	-0.000243
C17	C	0.594343	-0.045056	-0.000222
N18	N	0.372142	-0.059097	-0.058313
N19	N	0.302875	-0.057717	-0.058336
C20	C	0.262331	-0.124839	-0.000335
N21	N	0.293671	-0.193406	0.057677
N22	N	0.362944	-0.194788	0.057695
C23	C	0.402957	-0.127647	-0.000295
C24	C	0.143869	-0.208896	-0.000368
C25	C	0.070950	-0.207437	-0.000373
C26	C	0.076842	-0.034705	-0.000363
C27	C	0.149759	-0.036166	-0.000348
C28	C	0.183268	-0.123264	-0.000355
C29	C	0.826950	0.047024	-0.000288
C30	C	0.819021	0.152217	-0.000284
C31	C	0.959833	-0.118800	-0.000346
C32	C	1.037439	-0.120346	-0.000380
C33	C	0.838340	-0.299525	-0.000315
C34	C	0.846269	-0.404717	-0.000326
N35	N	0.821685	-0.142590	0.265225
C36	C	0.804526	0.344819	-0.000293
C37	C	0.860762	0.402686	-0.000316
C38	C	0.852696	0.509857	-0.000321
C39	C	0.812590	0.237638	-0.000288
N40	N	0.843610	-0.109904	-0.265826
C41	C	0.813083	-0.155429	0.474270
C42	C	0.852211	-0.097068	0.525136
C43	C	0.847424	-0.104212	0.641456
C44	C	0.817868	-0.148286	0.357940
H45	H	0.615733	-0.288704	-0.000260
H46	H	0.889304	-0.041740	0.481325
O47	O	0.732730	0.385796	-0.000253
H48	H	0.737582	0.464761	-0.000246
O49	O	0.763957	-0.228727	0.532289
H50	H	0.767869	-0.222913	0.615869
O51	O	0.040705	0.059233	-0.000373
H52	H	-0.016617	0.045863	-0.000397
H53	H	0.483454	-0.286059	-0.000279
O54	O	0.485284	0.050338	-0.000253
H55	H	0.427963	0.036968	-0.000282
H56	H	0.626420	0.024675	-0.000204
O57	O	0.932563	0.361712	-0.000331
H58	H	0.936045	0.312961	0.069142
O59	O	0.180015	-0.302834	-0.000353
H60	H	0.167491	-0.339702	-0.069815
O61	O	0.028451	-0.299799	-0.000389
H62	H	0.043915	-0.337209	-0.069861
O63	O	0.192260	0.056191	-0.000332
H64	H	0.156706	0.116997	-0.000346
