data_functionalizedCrystal
_audit_creation_method	'MofGen! by Chris Wilmer'
_symmetry_space_group_name_H-M	'P1'
_symmetry_Int_Tables_number	1
_symmetry_cell_setting	triclinic
loop_
_symmetry_equiv_pos_as_xyz
  x,y,z
_cell_length_a	14.971490
_cell_length_b	12.996460
_cell_length_c	14.971486
_cell_angle_alpha	90.006353
_cell_angle_beta	96.385112
_cell_angle_gamma	89.992083
loop_
_atom_site_label
_atom_site_type_symbol
_atom_site_fract_x
_atom_site_fract_y
_atom_site_fract_z
O1	O	-1.186944	0.085623	0.116580
O2	O	-0.926544	0.085613	0.130536
O3	O	-1.063723	0.085611	-0.006642
O4	O	-1.049765	0.085625	0.253758
O5	O	-1.063709	-0.085523	-0.006650
O6	O	-0.926530	-0.085521	0.130528
O7	O	-1.186930	-0.085511	0.116573
Cu8	Cu	-1.056728	-0.101142	0.123550
Cu9	Cu	-1.056745	0.101244	0.123559
O10	O	-1.049750	-0.085509	0.253750
C11	C	-0.893212	0.000045	0.129907
C12	C	-0.793915	0.000041	0.128035
C13	C	-0.366217	0.093345	0.119961
C14	C	-0.459518	0.093342	0.121717
C15	C	-0.506156	0.000054	0.122597
C16	C	-0.459490	-0.093237	0.121712
C17	C	-0.366192	-0.093233	0.119949
C18	C	-0.653952	-0.093239	0.125388
C19	C	-0.747256	-0.093243	0.127152
C20	C	-0.747277	0.093336	0.127156
C21	C	-0.653980	0.093340	0.125393
C22	C	-0.607320	0.000049	0.124510
N23	N	-1.056723	-0.243489	0.123543
C24	C	-1.056744	-0.663303	0.123559
C25	C	-1.056736	-0.546498	0.123558
C26	C	-1.056734	-0.453400	0.123552
C27	C	-1.056725	-0.336587	0.123549
C28	C	-0.220261	0.000057	0.117202
C29	C	-0.319558	0.000061	0.119078
C30	C	-1.063092	0.000044	-0.039971
C31	C	-1.061221	0.000045	-0.139268
N32	N	-1.056758	0.243591	0.123558
C33	C	-1.141810	0.000048	-0.196492
C34	C	-1.140047	0.000058	-0.289791
C35	C	-1.057694	0.000058	-0.325865
C36	C	-0.977099	0.000059	-0.268633
C37	C	-0.978863	0.000056	-0.175336
C38	C	-0.973428	0.000063	-0.463096
C39	C	-0.971663	0.000064	-0.556400
C40	C	-1.134612	0.000064	-0.577552
C41	C	-1.136376	0.000061	-0.484254
C42	C	-1.055780	0.000060	-0.427029
C43	C	-1.050382	0.000060	0.287079
C44	C	-1.052252	0.000066	0.386376
H45	H	-1.208872	0.000041	-0.167129
C46	C	-0.271284	0.201582	0.041154
C47	C	-0.314956	0.195891	0.118996
H48	H	-0.239635	0.264890	0.040561
H49	H	-0.314445	0.197701	-0.010269
H50	H	-0.230141	0.146023	0.040387
H51	H	-0.356104	0.251447	0.119759
H52	H	-0.271790	0.199783	0.170432
H53	H	-0.785225	-0.169207	0.127873
C54	C	-0.880880	0.088033	-0.345892
C55	C	-0.884836	0.000061	-0.400191
H56	H	-0.826186	0.088029	-0.307062
H57	H	-0.930173	0.088027	-0.311062
H58	H	-0.883581	0.147706	-0.382731
H59	H	-0.882141	-0.059612	-0.363352
H60	H	-0.835529	0.000058	-0.435025
H61	H	-0.910045	0.000066	-0.298012
H62	H	-0.497505	0.169303	0.122431
C63	C	-0.663369	0.277768	0.125564
C64	C	-0.602713	0.195883	0.124423
H65	H	-0.631718	0.341072	0.124957
H66	H	-0.692987	0.273898	0.178370
H67	H	-0.706528	0.273873	0.074130
H68	H	-0.559557	0.199773	0.175861
H69	H	-0.573080	0.199755	0.071612
C70	C	-0.450092	-0.277662	0.121519
C71	C	-0.510752	-0.195784	0.122673
H72	H	-0.481740	-0.340970	0.122108
H73	H	-0.406939	-0.273778	0.172949
H74	H	-0.420468	-0.273774	0.068709
H75	H	-0.540371	-0.199668	0.175487
H76	H	-0.553921	-0.199670	0.071239
H77	H	-1.205671	0.000058	-0.336380
C78	C	-0.817619	0.000048	-0.163793
C79	C	-0.890277	0.000051	-0.112431
H80	H	-0.762929	0.000042	-0.124957
H81	H	-0.820327	0.059722	-0.200616
H82	H	-0.820319	-0.059635	-0.200630
H83	H	-0.887580	0.059738	-0.075599
H84	H	-0.887568	-0.059629	-0.075593
C85	C	-1.297268	0.000066	-0.514528
C86	C	-1.226899	0.000060	-0.444600
H87	H	-1.353153	0.000073	-0.490045
H88	H	-1.293189	-0.059607	-0.550482
H89	H	-1.293193	0.059750	-0.550473
H90	H	-1.230970	-0.059628	-0.408659
H91	H	-1.230980	0.059739	-0.408630
H92	H	-0.615963	-0.169207	0.124679
C93	C	-0.890303	0.176187	0.129848
C94	C	-0.798563	0.195886	0.128123
H95	H	-0.921965	0.239496	0.130443
H96	H	-0.898819	0.137866	0.182250
H97	H	-0.912344	0.137854	0.078010
H98	H	-0.776520	0.234212	0.179964
H99	H	-0.790042	0.234224	0.075715
C100	C	-1.204271	0.000099	-0.729959
C101	C	-1.223206	0.000082	-0.640450
H102	H	-1.258964	0.000115	-0.768790
H103	H	-1.170510	-0.059576	-0.740911
H104	H	-1.170509	0.059781	-0.740881
H105	H	-1.256962	-0.059604	-0.629526
H106	H	-1.256981	0.059763	-0.629494
C107	C	-0.271237	-0.201476	0.041130
C108	C	-0.314901	-0.195775	0.118978
H109	H	-0.239578	-0.264786	0.040527
H110	H	-0.230113	-0.145924	0.040361
H111	H	-0.314412	-0.197601	-0.010294
H112	H	-0.271725	-0.199642	0.170402
H113	H	-0.356028	-0.251343	0.119756
H114	H	-0.904604	0.000048	-0.585767
