data_functionalizedCrystal
_audit_creation_method	'MofGen! by Chris Wilmer'
_symmetry_space_group_name_H-M	'P1'
_symmetry_Int_Tables_number	1
_symmetry_cell_setting	triclinic
loop_
_symmetry_equiv_pos_as_xyz
  x,y,z
_cell_length_a	19.805407
_cell_length_b	12.759394
_cell_length_c	19.805399
_cell_angle_alpha	90.023967
_cell_angle_beta	90.019573
_cell_angle_gamma	90.014837
loop_
_atom_site_label
_atom_site_type_symbol
_atom_site_fract_x
_atom_site_fract_y
_atom_site_fract_z
Zn1	Zn	1.034790	-0.418291	0.382737
Zn2	Zn	1.034728	-0.593984	0.269556
Zn3	Zn	0.921605	-0.418320	0.269561
Zn4	Zn	0.921591	-0.593928	0.382702
O5	O	0.978178	-0.506131	0.326139
O6	O	1.129498	-0.441608	0.367735
O7	O	1.019701	-0.570717	0.174840
O8	O	0.936651	-0.271295	0.284591
O9	O	1.129453	-0.570689	0.284581
O10	O	1.019808	-0.271274	0.367740
O11	O	0.936590	-0.441658	0.174844
O12	O	0.826886	-0.441603	0.284558
O13	O	0.936628	-0.570594	0.477423
O14	O	0.826876	-0.570622	0.367682
O15	O	1.019794	-0.441554	0.477449
O16	O	1.019688	-0.740998	0.284548
O17	O	0.936567	-0.740957	0.367676
C18	C	0.802322	-0.506111	0.326117
C19	C	0.727090	-0.506127	0.326124
C20	C	0.691759	-0.573409	0.369336
C21	C	0.621070	-0.573411	0.369346
C22	C	0.585715	-0.506136	0.326139
C23	C	0.621051	-0.438847	0.282924
C24	C	0.691739	-0.438841	0.282919
C25	C	0.335978	-0.438870	0.282947
C26	C	0.265286	-0.438884	0.282954
C27	C	0.265310	-0.573440	0.369374
C28	C	0.335997	-0.573434	0.369368
C29	C	0.371327	-0.506142	0.326157
C30	C	0.447976	-0.506139	0.326148
C31	C	0.509068	-0.506143	0.326144
C32	C	0.978138	-0.779098	0.326123
C33	C	0.978182	-0.895875	0.326138
C34	C	1.064801	-0.895864	0.239641
C35	C	1.108128	-0.950720	0.196401
C36	C	1.108168	-1.060441	0.196419
C37	C	1.064877	-1.115310	0.239684
C38	C	1.021550	-1.060455	0.282925
C39	C	1.021514	-0.950730	0.282900
C40	C	0.934936	-1.060465	0.369424
C41	C	0.934892	-0.950744	0.369403
C42	C	0.891645	-1.115334	0.412689
C43	C	0.848314	-1.060478	0.455927
C44	C	0.848275	-0.950750	0.455906
C45	C	0.891565	-0.895888	0.412644
C46	C	1.154721	-0.506152	0.326161
C47	C	1.229953	-0.506161	0.326171
C48	C	0.978216	-0.506065	0.502682
C49	C	0.978233	-0.506036	0.577914
C50	C	0.978238	-0.232097	0.326170
C51	C	0.978263	-0.115321	0.326183
C52	C	0.978180	-0.506121	0.150283
C53	C	0.978295	-0.505853	0.075051
C54	C	1.021539	-0.438842	0.613272
C55	C	1.021545	-0.438811	0.683961
C56	C	0.978249	-0.505982	0.719289
C57	C	0.934939	-0.573179	0.683926
C58	C	0.934929	-0.573203	0.613239
C59	C	0.934977	-0.573081	0.969000
C60	C	0.934992	-0.573054	1.039692
C61	C	1.021594	-0.438689	1.039721
C62	C	1.021584	-0.438713	0.969034
C63	C	0.978271	-0.505907	0.933677
C64	C	0.978263	-0.505937	0.857028
C65	C	0.978260	-0.505957	0.795937
H66	H	0.720505	-0.384048	0.247734
O67	O	1.063619	-0.373493	0.579061
C68	C	1.101854	-0.314197	0.625431
H69	H	1.074137	-0.310540	0.675814
H70	H	1.153252	-0.352673	0.632955
C71	C	1.145671	-0.206880	0.535980
C72	C	1.111626	-0.202381	0.597860
H73	H	1.151703	-0.137908	0.518972
H74	H	1.119914	-0.246831	0.504739
H75	H	1.188500	-0.238948	0.542259
H76	H	1.068796	-0.170326	0.591579
H77	H	1.137377	-0.162422	0.629099
O78	O	1.150114	-0.897258	0.154396
C79	C	1.140803	-0.788651	0.163660
H80	H	1.088553	-0.773705	0.185781
H81	H	1.180923	-0.757425	0.199731
C82	C	1.211195	-0.750745	0.068000
C83	C	1.147017	-0.732387	0.095165
H84	H	1.215031	-0.716037	0.025750
H85	H	1.217470	-0.823915	0.061760
H86	H	1.244620	-0.724722	0.098066
H87	H	1.113593	-0.758421	0.065103
H88	H	1.140736	-0.659220	0.101398
O89	O	1.063663	-0.373365	0.934821
C90	C	1.101899	-0.314066	0.981188
H91	H	1.074185	-0.310408	1.031572
H92	H	1.153299	-0.352541	0.988710
C93	C	1.145711	-0.206752	0.891733
C94	C	1.111669	-0.202251	0.953614
H95	H	1.151741	-0.137781	0.874724
H96	H	1.119952	-0.246704	0.860494
H97	H	1.188540	-0.238818	0.898010
H98	H	1.068838	-0.170197	0.947335
H99	H	1.137421	-0.162290	0.984852
H100	H	0.899658	-0.627910	0.584451
H101	H	1.143452	-1.105105	0.161213
O102	O	1.064984	-1.221893	0.239600
C103	C	1.112524	-1.258544	0.192175
H104	H	1.122000	-1.195348	0.152624
H105	H	1.161871	-1.277914	0.219062
C106	C	1.073357	-1.435399	0.206057
C107	C	1.084991	-1.357784	0.157476
H108	H	1.056375	-1.496617	0.184654
H109	H	1.041329	-1.410708	0.238010
H110	H	1.114482	-1.451528	0.228458
H111	H	1.043864	-1.341647	0.135081
H112	H	1.117011	-1.382474	0.125518
H113	H	0.813073	-1.105161	0.491153
H114	H	0.364780	-0.628219	0.404550
H115	H	0.236535	-0.628229	0.404562
O116	O	0.891746	-1.221916	0.412818
C117	C	0.909094	-1.258479	0.477714
H118	H	0.938566	-1.195179	0.505707
H119	H	0.861168	-1.277976	0.507002
C120	C	0.916776	-1.435334	0.436843
C121	C	0.952978	-1.357591	0.471223
H122	H	0.943843	-1.496474	0.432841
H123	H	0.905085	-1.410702	0.393122
H124	H	0.876839	-1.451569	0.461255
H125	H	0.992909	-1.341348	0.446807
H126	H	0.964677	-1.382223	0.514940
O127	O	0.370397	-0.373549	0.241030
C128	C	0.440369	-0.387979	0.250274
H129	H	0.450045	-0.422486	0.302471
H130	H	0.460404	-0.443847	0.210064
C131	C	0.464783	-0.239276	0.180070
C132	C	0.476668	-0.281650	0.244182
H133	H	0.487175	-0.173690	0.176310
H134	H	0.417642	-0.229556	0.173840
H135	H	0.481479	-0.285843	0.146569
H136	H	0.459965	-0.235090	0.277681
H137	H	0.523808	-0.291360	0.250417
O138	O	0.726175	-0.638614	0.411342
C139	C	0.767076	-0.578882	0.455133
H140	H	0.777667	-0.499214	0.431347
H141	H	0.739856	-0.567440	0.505306
C142	C	0.821211	-0.734556	0.496534
C143	C	0.834223	-0.636710	0.467318
H144	H	0.862629	-0.770228	0.504054
H145	H	0.793653	-0.774800	0.467034
H146	H	0.798525	-0.725007	0.538343
H147	H	0.856901	-0.646260	0.425507
H148	H	0.861787	-0.596469	0.496812
H149	H	0.592306	-0.628199	0.404534
O150	O	0.806125	-0.897629	0.497935
C151	C	0.767944	-0.969590	0.536136
H152	H	0.765640	-1.047836	0.508424
H153	H	0.792715	-0.981174	0.587562
C154	C	0.698716	-0.830749	0.579870
C155	C	0.695882	-0.926850	0.545830
H156	H	0.654266	-0.804384	0.585852
H157	H	0.724441	-0.782267	0.554135
H158	H	0.719362	-0.840415	0.622721
H159	H	0.675245	-0.917180	0.502977
H160	H	0.670152	-0.975330	0.571557
H161	H	0.891533	-0.806547	0.412618
O162	O	0.231019	-0.373575	0.240886
C163	C	0.248253	-0.396407	0.173399
H164	H	0.299571	-0.436785	0.171949
H165	H	0.208455	-0.450379	0.150540
C166	C	0.188486	-0.244304	0.134299
C167	C	0.251519	-0.293889	0.132517
H168	H	0.190497	-0.181068	0.109080
H169	H	0.176873	-0.228923	0.179766
H170	H	0.155328	-0.289292	0.115251
H171	H	0.284674	-0.248907	0.151573
H172	H	0.263138	-0.309260	0.087053
O173	O	0.892875	-0.638436	0.934764
C174	C	0.854649	-0.697689	0.981107
H175	H	0.882389	-0.701334	1.031494
H176	H	0.803263	-0.659181	0.988633
C177	C	0.810765	-0.805027	0.891611
C178	C	0.844839	-0.809513	0.953496
H179	H	0.804711	-0.874004	0.874579
H180	H	0.836517	-0.765106	0.860389
H181	H	0.767947	-0.772933	0.897891
H182	H	0.887659	-0.841594	0.947214
H183	H	0.819094	-0.849442	0.984717
H184	H	1.056811	-0.384097	0.712746
O185	O	0.893026	-0.638417	1.074040
C186	C	0.931552	-0.706252	1.114937
H187	H	0.984854	-0.712760	1.093640
H188	H	0.933904	-0.673751	1.168514
C189	C	0.832990	-0.807471	1.142161
C190	C	0.898456	-0.815471	1.116000
H191	H	0.812574	-0.874841	1.142820
H192	H	0.807034	-0.761767	1.114610
H193	H	0.834959	-0.780383	1.186806
H194	H	0.896486	-0.842546	1.071353
H195	H	0.924412	-0.861182	1.143544
H196	H	1.064765	-0.806523	0.239613
H197	H	1.056859	-0.383973	1.068518
H198	H	0.899684	-0.627866	0.712696
H199	H	0.592259	-0.384066	0.247747
