data_functionalizedCrystal
_audit_creation_method	'MofGen! by Chris Wilmer'
_symmetry_space_group_name_H-M	'P1'
_symmetry_Int_Tables_number	1
_symmetry_cell_setting	triclinic
loop_
_symmetry_equiv_pos_as_xyz
  x,y,z
_cell_length_a	19.805407
_cell_length_b	21.295417
_cell_length_c	19.805399
_cell_angle_alpha	90.030843
_cell_angle_beta	90.019573
_cell_angle_gamma	90.030507
loop_
_atom_site_label
_atom_site_type_symbol
_atom_site_fract_x
_atom_site_fract_y
_atom_site_fract_z
Zn1	Zn	1.034716	-0.250624	0.382704
Zn2	Zn	1.368050	0.082710	0.716038
Zn3	Zn	1.701383	0.416043	1.049371
Zn4	Zn	1.034623	-0.355893	0.269510
Zn5	Zn	1.367956	-0.022559	0.602843
Zn6	Zn	1.701290	0.310774	0.936176
Zn7	Zn	0.921531	-0.250641	0.269529
Zn8	Zn	1.254864	0.082692	0.602862
Zn9	Zn	1.588198	0.416026	0.936196
Zn10	Zn	0.921486	-0.355859	0.382656
Zn11	Zn	1.254820	-0.022526	0.715990
Zn12	Zn	1.588153	0.310808	1.049323
O13	O	0.978089	-0.303254	0.326100
O14	O	1.311423	0.030079	0.659433
O15	O	1.644756	0.363413	0.992766
O16	O	1.129421	-0.264595	0.367701
O17	O	1.462754	0.068739	0.701034
O18	O	1.796087	0.402072	1.034367
O19	O	1.019601	-0.341952	0.174796
O20	O	1.352934	-0.008619	0.508129
O21	O	1.686268	0.324715	0.841462
O22	O	0.936603	-0.162549	0.284570
O23	O	1.269936	0.170784	0.617903
O24	O	1.603270	0.504117	0.951237
O25	O	1.129352	-0.341935	0.284537
O26	O	1.462685	-0.008602	0.617870
O27	O	1.796019	0.324732	0.951204
O28	O	1.019760	-0.162537	0.367719
O29	O	1.353093	0.170797	0.701053
O30	O	1.686426	0.504130	1.034386
O31	O	0.936513	-0.264624	0.174810
O32	O	1.269846	0.068709	0.508143
O33	O	1.603179	0.402042	0.841476
O34	O	0.826809	-0.264592	0.284523
O35	O	1.160142	0.068742	0.617857
O36	O	1.493475	0.402075	0.951190
O37	O	0.936527	-0.341878	0.477379
O38	O	1.269860	-0.008545	0.810713
O39	O	1.603194	0.324789	1.144046
O40	O	0.826776	-0.341895	0.367638
O41	O	1.160109	-0.008562	0.700971
O42	O	1.493442	0.324772	1.034304
O43	O	1.019717	-0.264562	0.477415
O44	O	1.353050	0.068771	0.810748
O45	O	1.686383	0.402104	1.144081
O46	O	1.019558	-0.443977	0.284491
O47	O	1.352891	-0.110644	0.617824
O48	O	1.686224	0.222689	0.951157
O49	O	0.936437	-0.443953	0.367619
O50	O	1.269770	-0.110620	0.700952
O51	O	1.603103	0.222714	1.034286
C52	C	0.802233	-0.303242	0.326078
C53	C	1.135567	0.030091	0.659411
C54	C	1.468900	0.363425	0.992745
C55	C	0.727001	-0.303252	0.326085
C56	C	1.060335	0.030081	0.659418
C57	C	1.393668	0.363415	0.992751
C58	C	0.691658	-0.343564	0.369292
C59	C	1.024991	-0.010231	0.702625
C60	C	1.358324	0.323102	1.035959
C61	C	0.620969	-0.343566	0.369302
C62	C	0.954303	-0.010232	0.702635
C63	C	1.287636	0.323101	1.035968
C64	C	0.585626	-0.303257	0.326100
C65	C	0.918959	0.030076	0.659433
C66	C	1.252292	0.363410	0.992766
C67	C	0.620974	-0.262940	0.282890
C68	C	0.954307	0.070393	0.616224
C69	C	1.287641	0.403726	0.949557
C70	C	0.691661	-0.262936	0.282885
C71	C	1.024995	0.070397	0.616218
C72	C	1.358328	0.403730	0.949551
C73	C	0.335901	-0.262954	0.282913
C74	C	0.669234	0.070379	0.616246
C75	C	1.002568	0.403713	0.949579
C76	C	0.265209	-0.262962	0.282920
C77	C	0.598542	0.070371	0.616254
C78	C	0.931875	0.403704	0.949587
C79	C	0.265209	-0.343583	0.369330
C80	C	0.598542	-0.010250	0.702663
C81	C	0.931876	0.323083	1.035996
C82	C	0.335896	-0.343579	0.369324
C83	C	0.669229	-0.010246	0.702657
C84	C	1.002563	0.323087	1.035991
C85	C	0.371238	-0.303261	0.326117
C86	C	0.704572	0.030073	0.659451
C87	C	1.037905	0.363406	0.992784
C88	C	0.447887	-0.303259	0.326109
C89	C	0.781220	0.030074	0.659442
C90	C	1.114553	0.363408	0.992775
C91	C	0.508979	-0.303261	0.326105
C92	C	0.842312	0.030072	0.659438
C93	C	1.175645	0.363405	0.992771
C94	C	0.978001	-0.466806	0.326062
C95	C	1.311334	-0.133472	0.659396
C96	C	1.644667	0.199861	0.992729
C97	C	0.978024	-0.536774	0.326069
C98	C	1.311358	-0.203441	0.659402
C99	C	1.644691	0.129893	0.992736
C100	C	1.021344	-0.569632	0.282828
C101	C	1.354677	-0.236299	0.616162
C102	C	1.688011	0.097034	0.949495
C103	C	1.021376	-0.635375	0.282844
C104	C	1.354709	-0.302042	0.616177
C105	C	1.688042	0.031292	0.949510
C106	C	0.978076	-0.668256	0.326092
C107	C	1.311409	-0.334923	0.659426
C108	C	1.644743	-0.001590	0.992759
C109	C	0.934753	-0.635390	0.369341
C110	C	1.268087	-0.302057	0.702675
C111	C	1.601420	0.031277	1.036008
C112	C	0.934728	-0.569649	0.369330
C113	C	1.268061	-0.236315	0.702663
C114	C	1.601394	0.097018	1.035996
N115	N	0.918865	-0.771522	0.331245
N116	N	1.252199	-0.438189	0.664578
N117	N	1.585532	-0.104856	0.997911
N118	N	0.918892	-0.833974	0.331252
N119	N	1.252225	-0.500640	0.664585
N120	N	1.585558	-0.167307	0.997919
C121	C	0.978152	-0.866331	0.326131
C122	C	1.311485	-0.532998	0.659464
C123	C	1.644818	-0.199664	0.992798
N124	N	1.037386	-0.833878	0.320989
N125	N	1.370719	-0.500544	0.654323
N126	N	1.704052	-0.167211	0.987656
N127	N	1.037358	-0.771421	0.320979
N128	N	1.370692	-0.438087	0.654312
N129	N	1.704025	-0.104754	0.987646
C130	C	0.978099	-0.739542	0.326110
C131	C	1.311433	-0.406208	0.659443
C132	C	1.644766	-0.072875	0.992777
C133	C	1.021509	-0.970475	0.282905
C134	C	1.354843	-0.637142	0.616238
C135	C	1.688176	-0.303808	0.949571
C136	C	1.021542	-1.036219	0.282925
C137	C	1.354875	-0.702885	0.616258
C138	C	1.688209	-0.369552	0.949591
C139	C	0.934914	-1.036233	0.369419
C140	C	1.268247	-0.702899	0.702752
C141	C	1.601580	-0.369566	1.036085
C142	C	0.934887	-0.970490	0.369402
C143	C	1.268220	-0.637157	0.702736
C144	C	1.601553	-0.303823	1.036069
C145	C	0.978184	-0.937615	0.326142
C146	C	1.311517	-0.604282	0.659475
C147	C	1.644850	-0.270949	0.992808
C148	C	1.154632	-0.303267	0.326122
C149	C	1.487965	0.030067	0.659455
C150	C	1.821299	0.363400	0.992789
C151	C	1.229864	-0.303272	0.326132
C152	C	1.563197	0.030061	0.659465
C153	C	1.896531	0.363395	0.992798
C154	C	0.978127	-0.303214	0.502643
C155	C	1.311461	0.030119	0.835976
C156	C	1.644794	0.363452	1.169309
C157	C	0.978143	-0.303198	0.577875
C158	C	1.311477	0.030136	0.911208
C159	C	1.644810	0.363469	1.244541
C160	C	0.978197	-0.139064	0.326152
C161	C	1.311530	0.194269	0.659486
C162	C	1.644863	0.527603	0.992819
C163	C	0.978243	-0.069096	0.326175
C164	C	1.311576	0.264238	0.659508
C165	C	1.644909	0.597571	0.992841
C166	C	0.978090	-0.303248	0.150244
C167	C	1.311424	0.030085	0.483577
C168	C	1.644757	0.363418	0.816910
C169	C	0.978205	-0.303088	0.075012
C170	C	1.311539	0.030246	0.408346
C171	C	1.644872	0.363579	0.741679
C172	C	1.021461	-0.262937	0.613238
C173	C	1.354795	0.070396	0.946572
C174	C	1.688128	0.403729	1.279905
C175	C	1.021468	-0.262919	0.683927
C176	C	1.354801	0.070414	1.017260
C177	C	1.688135	0.403748	1.350593
C178	C	0.978160	-0.303165	0.719250
C179	C	1.311494	0.030169	1.052584
C180	C	1.644827	0.363502	1.385917
C181	C	0.934838	-0.343427	0.683882
C182	C	1.268171	-0.010094	1.017215
C183	C	1.601504	0.323240	1.350548
C184	C	0.934828	-0.343442	0.613195
C185	C	1.268161	-0.010108	0.946528
C186	C	1.601494	0.323225	1.279861
C187	C	0.934876	-0.343368	0.968955
C188	C	1.268209	-0.010035	1.302289
C189	C	1.601543	0.323298	1.635622
C190	C	0.934891	-0.343352	1.039647
C191	C	1.268224	-0.010018	1.372981
C192	C	1.601557	0.323315	1.706314
C193	C	1.021516	-0.262846	1.039687
C194	C	1.354850	0.070488	1.373021
C195	C	1.688183	0.403821	1.706354
C196	C	1.021506	-0.262860	0.969000
C197	C	1.354840	0.070473	1.302333
C198	C	1.688173	0.403806	1.635667
C199	C	0.978182	-0.303120	0.933638
C200	C	1.311515	0.030214	1.266971
C201	C	1.644848	0.363547	1.600304
C202	C	0.978174	-0.303138	0.856989
C203	C	1.311507	0.030195	1.190323
C204	C	1.644840	0.363528	1.523656
C205	C	0.978171	-0.303150	0.795897
C206	C	1.311504	0.030183	1.129231
C207	C	1.644838	0.363517	1.462564
H208	H	0.592192	-0.230118	0.247718
H209	H	0.925525	0.103216	0.581051
H210	H	1.258858	0.436549	0.914384
N211	N	0.890640	-0.936924	0.413578
N212	N	1.223974	-0.603591	0.746912
N213	N	1.557307	-0.270258	1.080245
N214	N	0.895099	-0.944224	0.476039
N215	N	1.228432	-0.610891	0.809373
N216	N	1.561766	-0.277557	1.142706
H217	H	0.863850	-0.920519	0.507244
H218	H	1.197183	-0.587186	0.840577
H219	H	1.530517	-0.253852	1.173911
H220	H	0.720429	-0.376391	0.404470
H221	H	1.053763	-0.043057	0.737803
H222	H	1.387096	0.290276	1.071137
H223	H	0.592196	-0.376393	0.404485
H224	H	0.925529	-0.043059	0.737818
H225	H	1.258862	0.290274	1.071152
H226	H	0.364669	-0.376405	0.404501
H227	H	0.698003	-0.043072	0.737835
H228	H	1.031336	0.290262	1.071168
N229	N	0.890619	-0.384483	0.932834
N230	N	1.223952	-0.051149	1.266167
N231	N	1.557286	0.282184	1.599500
N232	N	0.847493	-0.362335	0.893396
N233	N	1.180826	-0.029002	1.226729
N234	N	1.514159	0.304331	1.560062
H235	H	0.816232	-0.391373	0.867883
H236	H	1.149565	-0.058039	1.201216
H237	H	1.482898	0.275294	1.534550
N238	N	1.065769	-0.221724	1.075821
N239	N	1.399102	0.111610	1.409154
N240	N	1.732435	0.444943	1.742487
N241	N	1.065774	-0.221713	1.138934
N242	N	1.399108	0.111620	1.472267
N243	N	1.732441	0.444954	1.805600
H244	H	1.097028	-0.192673	1.164453
H245	H	1.430362	0.140660	1.497786
H246	H	1.763695	0.473993	1.831119
N247	N	1.065709	-0.221826	0.577170
N248	N	1.399042	0.111507	0.910503
N249	N	1.732375	0.444840	1.243836
N250	N	1.104381	-0.185882	0.608756
N251	N	1.437714	0.147451	0.942090
N252	N	1.771048	0.480785	1.275423
H253	H	1.135631	-0.156844	0.583285
H254	H	1.468965	0.176489	0.916619
H255	H	1.802298	0.509822	1.249952
N256	N	0.229096	-0.384766	0.413461
N257	N	0.562429	-0.051433	0.746794
N258	N	0.895763	0.281901	1.080128
N259	N	0.165983	-0.384767	0.413463
N260	N	0.499317	-0.051434	0.746796
N261	N	0.832650	0.281900	1.080130
H262	H	0.140479	-0.413853	0.444628
H263	H	0.473812	-0.080520	0.777961
H264	H	0.807145	0.252813	1.111294
H265	H	0.899621	-0.376126	1.068406
H266	H	1.232954	-0.042793	1.401739
H267	H	1.566288	0.290541	1.735073
H268	H	0.899451	-0.542895	0.404542
H269	H	1.232784	-0.209561	0.737875
H270	H	1.566118	0.123772	1.071209
N271	N	0.890512	-0.668975	0.413507
N272	N	1.223845	-0.335642	0.746840
N273	N	1.557178	-0.002308	1.080173
N274	N	0.828056	-0.661686	0.408955
N275	N	1.161389	-0.328353	0.742288
N276	N	1.494723	0.004980	1.075621
H277	H	0.796809	-0.685406	0.440149
H278	H	1.130142	-0.352072	0.773482
H279	H	1.463476	-0.018739	1.106815
N280	N	1.065567	-0.536044	0.238645
N281	N	1.398900	-0.202711	0.571979
N282	N	1.732233	0.130623	0.905312
N283	N	1.108668	-0.499300	0.262481
N284	N	1.442001	-0.165966	0.595814
N285	N	1.775335	0.167367	0.929147
H286	H	1.139896	-0.475573	0.231274
H287	H	1.473229	-0.142239	0.564608
H288	H	1.806562	0.191094	0.897941
N289	N	0.229115	-0.221783	0.238783
N290	N	0.562449	0.111551	0.572116
N291	N	0.895782	0.444884	0.905449
N292	N	0.260678	-0.185787	0.200209
N293	N	0.594011	0.147546	0.533542
N294	N	0.927344	0.480879	0.866875
H295	H	0.235187	-0.156706	0.169037
H296	H	0.568520	0.176627	0.502370
H297	H	0.901854	0.509960	0.835704
N298	N	0.890598	-0.384528	0.719972
N299	N	1.223931	-0.051195	1.053305
N300	N	1.557265	0.282138	1.386639
N301	N	0.890612	-0.384511	0.783085
N302	N	1.223945	-0.051177	1.116418
N303	N	1.557279	0.282156	1.449752
H304	H	0.859367	-0.413540	0.808574
H305	H	1.192701	-0.080207	1.141907
H306	H	1.526034	0.253126	1.475240
N307	N	0.371986	-0.221771	0.238772
N308	N	0.705319	0.111562	0.572105
N309	N	1.038652	0.444896	0.905438
N310	N	0.340418	-0.185789	0.200199
N311	N	0.673751	0.147544	0.533532
N312	N	1.007085	0.480877	0.866866
H313	H	0.365905	-0.156703	0.169020
H314	H	0.699238	0.176630	0.502353
H315	H	1.032571	0.509964	0.835687
H316	H	0.720437	-0.230107	0.247704
H317	H	1.053770	0.103227	0.581038
H318	H	1.387104	0.436560	0.914371
H319	H	0.899547	-0.376219	0.584402
H320	H	1.232881	-0.042886	0.917736
H321	H	1.566214	0.290447	1.251069
H322	H	1.056654	-0.662134	0.247632
H323	H	1.389988	-0.328800	0.580965
H324	H	1.723321	0.004533	0.914299
H325	H	1.056822	-1.062971	0.247714
H326	H	1.390156	-0.729638	0.581048
H327	H	1.723489	-0.396304	0.914381
H328	H	1.056767	-0.943707	0.247681
H329	H	1.390100	-0.610374	0.581014
H330	H	1.723433	-0.277041	0.914348
H331	H	0.899661	-1.063004	0.404636
H332	H	1.232994	-0.729671	0.737969
H333	H	1.566328	-0.396337	1.071302
N334	N	1.065720	-0.221790	0.720039
N335	N	1.399054	0.111544	1.053372
N336	N	1.732387	0.444877	1.386706
N337	N	1.104388	-0.185863	0.688492
N338	N	1.437722	0.147471	1.021826
N339	N	1.771055	0.480804	1.355159
H340	H	1.135644	-0.156813	0.713996
H341	H	1.468978	0.176520	1.047329
H342	H	1.802311	0.509854	1.380662
H343	H	1.056774	-0.230090	0.940243
H344	H	1.390108	0.103243	1.273576
H345	H	1.723441	0.436577	1.606910
