data_functionalizedCrystal
_audit_creation_method	'MofGen! by Chris Wilmer'
_symmetry_space_group_name_H-M	'P1'
_symmetry_Int_Tables_number	1
_symmetry_cell_setting	triclinic
loop_
_symmetry_equiv_pos_as_xyz
  x,y,z
_cell_length_a	10.489711
_cell_length_b	10.489741
_cell_length_c	13.930277
_cell_angle_alpha	89.995758
_cell_angle_beta	89.991249
_cell_angle_gamma	84.533091
loop_
_atom_site_label
_atom_site_type_symbol
_atom_site_fract_x
_atom_site_fract_y
_atom_site_fract_z
O1	O	1.694081	0.179786	-0.079865
O2	O	1.322880	0.196719	-0.079859
O3	O	1.516927	0.002654	-0.079857
O4	O	1.500034	0.373851	-0.079868
O5	O	1.516900	0.002649	0.079805
O6	O	1.322853	0.196714	0.079803
O7	O	1.694054	0.179782	0.079797
Zn8	Zn	1.508449	0.188247	0.105149
Zn9	Zn	1.508485	0.188253	-0.105212
O10	O	1.500007	0.373847	0.079794
C11	C	1.275334	0.195446	-0.000028
C12	C	1.133703	0.191644	-0.000025
C13	C	0.951317	0.308348	-0.000040
C14	C	1.043476	0.250055	-0.078758
C15	C	1.043422	0.250019	0.078656
C16	C	0.973525	0.126512	-0.078829
C17	C	0.973461	0.126494	0.078656
C18	C	1.065593	0.068111	-0.000082
C19	C	1.515638	-0.044880	-0.000026
C20	C	1.511820	-0.186509	-0.000028
C21	C	1.388354	-0.254636	-0.000033
C22	C	1.446665	-0.346767	0.078688
C23	C	1.446721	-0.346737	-0.078726
C24	C	1.570182	-0.276775	0.078758
C25	C	1.570221	-0.276735	-0.078727
C26	C	1.628622	-0.368839	0.000013
C27	C	1.741600	0.181055	-0.000037
C28	C	1.883231	0.184857	-0.000046
C29	C	1.501296	0.421381	-0.000038
C30	C	1.505114	0.563010	-0.000043
N31	N	1.508434	0.188243	0.248715
N32	N	1.508510	0.188248	-0.248778
C33	C	1.422557	0.274151	0.700984
C34	C	1.594448	0.102346	0.700955
C35	C	1.594432	0.102342	0.600460
C36	C	1.508480	0.188245	0.550221
C37	C	1.422542	0.274152	0.600479
C38	C	1.680377	0.016445	0.550195
C39	C	1.680366	0.016438	0.449693
C40	C	1.594406	0.102336	0.399453
C41	C	1.508464	0.188246	0.449716
C42	C	1.422512	0.274149	0.399478
C43	C	1.336562	0.360054	0.449739
C44	C	1.336582	0.360050	0.550238
C45	C	1.594387	0.102340	0.298954
C46	C	1.422496	0.274150	0.298973
H47	H	1.115050	-0.033484	-0.000119
O48	O	1.384211	-0.383908	0.157985
C49	C	1.277277	-0.446696	0.129728
H50	H	1.292973	-0.485868	0.053875
H51	H	1.264622	-0.529022	0.181218
H52	H	1.187767	-0.375972	0.131240
H53	H	1.266607	0.429992	0.591168
H54	H	1.074482	0.302313	-0.145309
H55	H	0.942427	0.074283	0.145213
O56	O	1.763970	-0.067061	0.598845
C57	C	1.839794	-0.142910	0.532937
H58	H	1.841736	-0.090588	0.461299
H59	H	1.941477	-0.161419	0.561970
H60	H	1.797485	-0.238056	0.522246
H61	H	1.074366	0.302291	0.145207
O62	O	1.338874	0.357424	0.250131
C63	C	1.259574	0.288354	0.191993
H64	H	1.256504	0.187730	0.222281
H65	H	1.158663	0.339418	0.190868
H66	H	1.299427	0.282061	0.115820
O67	O	0.892079	0.429454	-0.000304
C68	C	0.927577	0.494098	-0.083451
H69	H	0.960348	0.421186	-0.141172
H70	H	0.841918	0.558898	-0.110930
H71	H	1.009166	0.554484	-0.065488
O72	O	1.749753	-0.428012	-0.000011
C73	C	1.744860	-0.561865	-0.000789
H74	H	1.649039	-0.585206	-0.031437
H75	H	1.825969	-0.608295	-0.047179
H76	H	1.755617	-0.600330	0.075617
H77	H	1.622429	-0.245694	-0.145285
H78	H	1.394475	-0.377694	-0.145285
H79	H	1.286841	-0.204974	0.000048
H80	H	1.750349	-0.053511	0.408776
O81	O	1.677740	0.018741	0.250162
C82	C	1.655906	-0.107747	0.274736
H83	H	1.553788	-0.109385	0.302394
H84	H	1.669983	-0.171607	0.208636
H85	H	1.726291	-0.144532	0.333049
O86	O	0.936710	0.064443	-0.158389
C87	C	0.851713	0.147845	-0.212876
H88	H	0.867346	0.251267	-0.195035
H89	H	0.870228	0.129738	-0.292584
H90	H	0.748836	0.129971	-0.195071
H91	H	1.266584	0.430003	0.408824
O92	O	1.339194	0.357550	0.749950
C93	C	1.357604	0.339110	0.849427
H94	H	1.458581	0.292415	0.863142
H95	H	1.344296	0.435575	0.887619
H96	H	1.284824	0.274432	0.877960
O97	O	1.632560	-0.239875	0.158146
C98	C	1.740234	-0.178107	0.130056
H99	H	1.725261	-0.139129	0.054086
H100	H	1.753278	-0.095751	0.181419
H101	H	1.829231	-0.249489	0.131949
H102	H	1.664434	0.032412	0.741863
