data_functionalizedCrystal
_audit_creation_method	'MofGen! by Chris Wilmer'
_symmetry_space_group_name_H-M	'P1'
_symmetry_Int_Tables_number	1
_symmetry_cell_setting	triclinic
loop_
_symmetry_equiv_pos_as_xyz
  x,y,z
_cell_length_a	15.995292
_cell_length_b	15.995292
_cell_length_c	15.072220
_cell_angle_alpha	90.002061
_cell_angle_beta	89.986330
_cell_angle_gamma	83.468616
loop_
_atom_site_label
_atom_site_type_symbol
_atom_site_fract_x
_atom_site_fract_y
_atom_site_fract_z
O1	O	1.111004	0.107692	-0.073800
O2	O	1.611004	0.607692	0.426200
O3	O	0.867219	0.121071	-0.073796
O4	O	1.367219	0.621071	0.426204
O5	O	0.995801	-0.007511	-0.073799
O6	O	1.495801	0.492489	0.426201
O7	O	0.982422	0.236274	-0.073797
O8	O	1.482422	0.736274	0.426203
O9	O	0.995769	-0.007504	0.073766
O10	O	1.495769	0.492496	0.573766
O11	O	0.867187	0.121078	0.073769
O12	O	1.367187	0.621078	0.573769
O13	O	1.110972	0.107699	0.073765
O14	O	1.610972	0.607699	0.573765
Zn15	Zn	0.989075	0.114390	0.097196
Zn16	Zn	1.489075	0.614390	0.597196
Zn17	Zn	0.989116	0.114380	-0.097227
Zn18	Zn	1.489116	0.614380	0.402773
O19	O	0.982390	0.236281	0.073769
O20	O	1.482390	0.736281	0.573769
C21	C	0.836008	0.120530	-0.000013
C22	C	1.336008	0.620530	0.499987
C23	C	0.743055	0.118898	-0.000012
C24	C	1.243055	0.618898	0.499988
C25	C	0.995240	-0.038703	-0.000019
C26	C	1.495240	0.461297	0.499981
C27	C	0.993608	-0.131655	-0.000026
C28	C	1.493608	0.368345	0.499974
C29	C	0.405318	0.112896	-0.000022
C30	C	0.905318	0.612896	0.499978
C31	C	0.428611	0.205703	-0.000350
C32	C	0.928611	0.705703	0.499650
C33	C	0.525286	0.207467	-0.000014
C34	C	1.025286	0.707467	0.499986
C35	C	0.572873	0.115874	-0.000017
C36	C	1.072873	0.615874	0.499983
C37	C	0.543763	0.069479	0.084246
C38	C	1.043763	0.569479	0.584246
C39	C	0.446973	0.068362	0.084313
C40	C	0.946973	0.568362	0.584313
C41	C	0.447154	0.066459	-0.083496
C42	C	0.947154	0.566459	0.416504
C43	C	0.543646	0.069898	-0.084606
C44	C	1.043646	0.569898	0.415394
C45	C	0.667569	0.117552	-0.000012
C46	C	1.167569	0.617552	0.499988
C47	C	0.310622	0.111215	-0.000021
C48	C	0.810622	0.611215	0.499979
C49	C	0.987607	-0.469393	-0.000018
C50	C	1.487607	0.030607	0.499982
C51	C	1.080413	-0.446100	0.000310
C52	C	1.580413	0.053900	0.500310
C53	C	1.082177	-0.349424	-0.000025
C54	C	1.582177	0.150576	0.499975
C55	C	0.990584	-0.301837	-0.000021
C56	C	1.490584	0.198163	0.499979
C57	C	0.944204	-0.330933	-0.084284
C58	C	1.444204	0.169067	0.415716
C59	C	0.943086	-0.427723	-0.084352
C60	C	1.443086	0.072277	0.415648
C61	C	0.941155	-0.427572	0.083457
C62	C	1.441155	0.072428	0.583457
C63	C	0.944594	-0.331080	0.084568
C64	C	1.444594	0.168920	0.584568
C65	C	0.992263	-0.207141	-0.000026
C66	C	1.492263	0.292859	0.499974
C67	C	0.985926	-0.564088	-0.000019
C68	C	1.485926	-0.064088	0.499981
C69	C	1.142183	0.108240	-0.000020
C70	C	1.642183	0.608240	0.499980
C71	C	1.235136	0.109873	-0.000027
C72	C	1.735136	0.609873	0.499973
C73	C	0.982951	0.267473	-0.000014
C74	C	1.482951	0.767473	0.499986
C75	C	0.984583	0.360426	-0.000013
C76	C	1.484583	0.860426	0.499987
N77	N	0.989052	0.114396	0.229885
N78	N	1.489052	0.614396	0.729885
N79	N	0.989146	0.114368	-0.229916
N80	N	1.489146	0.614368	0.270084
C81	C	0.989115	0.114377	0.589087
C82	C	1.489115	0.614377	1.089087
C83	C	0.920082	0.182948	0.551482
C84	C	1.420082	0.682948	1.051482
C85	C	0.920240	0.183198	0.448656
C86	C	1.420240	0.683198	0.948656
C87	C	0.989083	0.114386	0.410883
C88	C	1.489083	0.614386	0.910883
C89	C	1.076446	0.133450	0.448173
C90	C	1.576446	0.633450	0.948173
C91	C	1.076059	0.133938	0.551030
C92	C	1.576059	0.633938	1.051030
C93	C	0.971563	0.026539	0.551186
C94	C	1.471563	0.526539	1.051186
C95	C	0.969558	0.027125	0.448323
C96	C	1.469558	0.527125	0.948323
C97	C	0.989070	0.114390	0.310169
C98	C	1.489070	0.614390	0.810169
C99	C	0.989133	0.114375	0.689800
C100	C	1.489133	0.614375	1.189800
H101	H	0.400620	0.241472	-0.060779
H102	H	0.900620	0.741472	0.439221
H103	H	1.129032	0.085962	0.575904
H104	H	1.629032	0.585962	1.075904
N105	N	0.850667	-0.446079	0.084220
N106	N	1.350667	0.053921	0.584220
H107	H	0.839778	-0.481376	0.030787
H108	H	1.339778	0.018624	0.530787
H109	H	0.839486	-0.477746	0.140161
H110	H	1.339486	0.022254	0.640161
H111	H	1.016573	-0.026291	0.422613
H112	H	1.516573	0.473709	0.922613
N113	N	0.979639	-0.465003	0.168062
N114	N	1.479639	0.034997	0.668062
H115	H	1.027579	-0.509456	0.153133
H116	H	1.527579	-0.009456	0.653133
H117	H	1.001515	-0.419251	0.204625
H118	H	1.501515	0.080749	0.704625
N119	N	0.586001	-0.019796	0.088408
N120	N	1.086001	0.480204	0.588408
H121	H	0.566366	-0.048415	0.143090
H122	H	1.066366	0.451585	0.643090
H123	H	0.570887	-0.051419	0.033783
H124	H	1.070887	0.448581	0.533783
H125	H	0.905293	0.012657	0.423952
H126	H	1.405293	0.512657	0.923952
N127	N	0.985682	-0.463264	-0.167781
N128	N	1.485682	0.036736	0.332219
H129	H	0.985387	-0.526368	-0.168658
H130	H	1.485387	-0.026368	0.331342
H131	H	0.954481	-0.437839	-0.221333
H132	H	1.454481	0.062161	0.278667
H133	H	0.875040	-0.442259	-0.088167
H134	H	1.375040	0.057741	0.411833
N135	N	0.411422	0.110937	0.167747
N136	N	0.911422	0.610937	0.667747
H137	H	0.370186	0.161142	0.151418
H138	H	0.870186	0.661142	0.651418
H139	H	0.381659	0.069887	0.203552
H140	H	0.881659	0.569887	0.703552
H141	H	0.877739	-0.298096	0.089660
H142	H	1.377739	0.201904	0.589660
N143	N	0.834223	0.168160	0.415253
N144	N	1.334223	0.668160	0.915253
H145	H	0.795861	0.161310	0.467347
H146	H	1.295861	0.661310	0.967347
H147	H	0.810153	0.217705	0.378133
H148	H	1.310153	0.717705	0.878133
H149	H	1.021905	-0.024489	0.575503
H150	H	1.521905	0.475511	1.075503
N151	N	1.146121	0.069055	0.415770
N152	N	1.646121	0.569055	0.915770
H153	H	1.121665	0.026805	0.376510
H154	H	1.621665	0.526805	0.876510
H155	H	1.188268	0.098218	0.380879
H156	H	1.688268	0.598218	0.880879
N157	N	0.854923	-0.288710	-0.088438
N158	N	1.354923	0.211290	0.411562
H159	H	0.843657	-0.250221	-0.035612
H160	H	1.343657	0.249779	0.464388
H161	H	0.846798	-0.254780	-0.144913
H162	H	1.346798	0.245220	0.355087
N163	N	0.888994	0.002266	0.585577
N164	N	1.388994	0.502266	1.085577
H165	H	0.878976	-0.054272	0.560433
H166	H	1.378976	0.445728	1.060433
H167	H	0.891010	-0.001132	0.652466
H168	H	1.391010	0.498868	1.152466
H169	H	0.544318	0.243797	-0.060419
H170	H	1.044318	0.743797	0.439581
H171	H	1.092286	0.196779	0.422404
H172	H	1.592286	0.696779	0.922404
H173	H	0.399572	0.241279	0.059741
H174	H	0.899572	0.741279	0.559741
H175	H	0.543669	0.244027	0.060494
H176	H	1.043669	0.744027	0.560494
N177	N	0.427707	-0.021768	0.089379
N178	N	0.927707	0.478232	0.589379
H179	H	0.482069	-0.060597	0.091564
H180	H	0.982069	0.439403	0.591564
H181	H	0.393725	-0.029699	0.144611
H182	H	0.893725	0.470301	0.644611
H183	H	0.418834	0.095464	-0.147363
H184	H	0.918834	0.595464	0.352637
N185	N	0.833780	0.168164	0.584280
N186	N	1.333780	0.668164	1.084280
H187	H	0.838590	0.116876	0.623837
H188	H	1.338590	0.616876	1.123837
H189	H	0.808519	0.218892	0.618953
H190	H	1.308519	0.718892	1.118953
H191	H	1.091529	0.197997	0.575012
H192	H	1.591529	0.697997	1.075012
H193	H	0.931446	0.248382	0.424042
H194	H	1.431446	0.748382	0.924042
N195	N	0.570302	0.112157	0.167319
N196	N	1.070302	0.612157	0.667319
H197	H	0.601174	0.161534	0.150563
H198	H	1.101174	0.661534	0.650563
H199	H	0.518828	0.132663	0.203428
H200	H	1.018828	0.632663	0.703428
H201	H	0.931134	0.247765	0.577320
H202	H	1.431134	0.747765	1.077320
N203	N	0.568266	0.114629	-0.167182
N204	N	1.068266	0.614629	0.332818
H205	H	0.540585	0.174615	-0.166649
H206	H	1.040585	0.674615	0.333351
H207	H	0.631414	0.114407	-0.168798
H208	H	1.131414	0.614407	0.331202
N209	N	0.587332	-0.018660	-0.091358
N210	N	1.087332	0.481340	0.408642
H211	H	0.626863	-0.030284	-0.039446
H212	H	1.126863	0.469716	0.460554
H213	H	0.543965	-0.059879	-0.090640
H214	H	1.043965	0.440121	0.409360
N215	N	1.130281	-0.324237	0.079996
N216	N	1.630281	0.175763	0.579996
H217	H	1.189752	-0.353178	0.077815
H218	H	1.689752	0.146822	0.577815
H219	H	1.131461	-0.261241	0.079898
H220	H	1.631461	0.238759	0.579898
N221	N	0.428646	-0.024030	-0.084259
N222	N	0.928646	0.475970	0.415741
H223	H	0.393340	-0.034927	-0.030825
H224	H	0.893340	0.465073	0.469175
H225	H	0.396989	-0.035201	-0.140200
H226	H	0.896989	0.464799	0.359800
H227	H	0.978366	-0.312518	0.146905
H228	H	1.478366	0.187482	0.646905
N229	N	1.127787	-0.483181	0.080357
N230	N	1.627787	0.016819	0.580357
H231	H	1.089553	-0.515443	0.117185
H232	H	1.589553	-0.015443	0.617185
H233	H	1.178121	-0.522451	0.060184
H234	H	1.678121	-0.022451	0.560184
H235	H	1.116000	-0.475128	-0.059781
H236	H	1.616000	0.024872	0.440219
N237	N	1.130608	-0.325064	-0.080184
N238	N	1.630608	0.174936	0.419816
H239	H	1.102273	-0.342701	-0.135925
H240	H	1.602273	0.157299	0.364075
H241	H	1.131953	-0.262092	-0.080664
H242	H	1.631953	0.237908	0.419336
N243	N	0.986897	-0.304382	-0.167358
N244	N	1.486897	0.195618	0.332642
H245	H	1.036272	-0.273513	-0.150602
H246	H	1.536272	0.226487	0.349398
H247	H	1.007409	-0.355851	-0.203464
H248	H	1.507409	0.144149	0.296536
