data_functionalizedCrystal
_audit_creation_method	'MofGen! by Chris Wilmer'
_symmetry_space_group_name_H-M	'P1'
_symmetry_Int_Tables_number	1
_symmetry_cell_setting	triclinic
loop_
_symmetry_equiv_pos_as_xyz
  x,y,z
_cell_length_a	11.792254
_cell_length_b	10.489741
_cell_length_c	10.268362
_cell_angle_alpha	90.001054
_cell_angle_beta	90.004577
_cell_angle_gamma	84.368886
loop_
_atom_site_label
_atom_site_type_symbol
_atom_site_fract_x
_atom_site_fract_y
_atom_site_fract_z
O1	O	1.507373	0.174902	0.108298
O2	O	1.177082	0.192904	0.108301
O3	O	1.349743	-0.001720	0.108292
O4	O	1.334712	0.369526	0.108308
O5	O	1.349727	-0.001713	-0.108309
O6	O	1.177066	0.192910	-0.108299
O7	O	1.507356	0.174909	-0.108302
Cu8	Cu	1.342209	0.183910	-0.128078
Cu9	Cu	1.342229	0.183902	0.128077
O10	O	1.334695	0.369533	-0.108293
C11	C	1.134780	0.191773	0.000001
C12	C	1.008758	0.188379	0.000002
C13	C	0.906414	0.185621	0.000008
C14	C	0.778018	0.182173	0.000008
C15	C	1.348600	-0.049245	-0.000008
C16	C	1.345203	-0.190863	-0.000005
C17	C	1.235344	-0.258634	0.000005
C18	C	1.287232	-0.350928	-0.106791
C19	C	1.287275	-0.350909	0.106761
C20	C	1.397136	-0.281291	-0.106889
C21	C	1.397164	-0.281263	0.106758
C22	C	1.449132	-0.373529	-0.000064
C23	C	1.549658	0.176040	0.000001
C24	C	1.675680	0.179434	0.000008
C25	C	1.335839	0.417057	0.000009
C26	C	1.339235	0.558675	0.000016
N27	N	1.342204	0.183915	-0.308244
C28	C	1.342212	0.183916	-0.426086
C29	C	1.342226	0.183904	-0.573924
N30	N	1.342244	0.183888	0.308243
H31	H	1.240741	-0.381780	-0.197078
H32	H	1.443573	-0.250612	-0.197278
H33	H	1.443615	-0.250377	0.197050
H34	H	1.539538	-0.423256	-0.000124
O35	O	1.127515	-0.199236	-0.000175
C36	C	1.048744	-0.292031	-0.001378
H37	H	1.091286	-0.385556	-0.042923
H38	H	0.972457	-0.256778	-0.064415
H39	H	1.018791	-0.308793	0.102226
O40	O	1.231662	-0.387511	0.214438
C41	C	1.118974	-0.328468	0.214011
H42	H	1.114262	-0.238302	0.151486
H43	H	1.091994	-0.301765	0.317871
H44	H	1.059545	-0.397592	0.172332
