data_functionalizedCrystal
_audit_creation_method	'MofGen! by Chris Wilmer'
_symmetry_space_group_name_H-M	'P1'
_symmetry_Int_Tables_number	1
_symmetry_cell_setting	triclinic
loop_
_symmetry_equiv_pos_as_xyz
  x,y,z
_cell_length_a	12.759401
_cell_length_b	15.297327
_cell_length_c	12.759393
_cell_angle_alpha	80.358266
_cell_angle_beta	90.018496
_cell_angle_gamma	99.706546
loop_
_atom_site_label
_atom_site_type_symbol
_atom_site_fract_x
_atom_site_fract_y
_atom_site_fract_z
Zn1	Zn	1.533799	-0.359102	0.666297
Zn2	Zn	1.503249	-0.509990	0.521002
Zn3	Zn	1.358091	-0.359150	0.490645
Zn4	Zn	1.327659	-0.509920	0.696630
O5	O	1.430699	-0.434541	0.593643
O6	O	1.676766	-0.379127	0.647033
O7	O	1.483944	-0.490029	0.369964
O8	O	1.406921	-0.232898	0.488547
O9	O	1.654320	-0.489984	0.540286
O10	O	1.536012	-0.232864	0.617597
O11	O	1.377297	-0.379208	0.347661
O12	O	1.207035	-0.379140	0.517960
O13	O	1.355053	-0.489865	0.839617
O14	O	1.184677	-0.489911	0.669295
O15	O	1.506503	-0.379060	0.817332
O16	O	1.454435	-0.636226	0.569698
O17	O	1.325430	-0.636175	0.698731
C18	C	1.157735	-0.434524	0.593626
C19	C	1.040956	-0.434539	0.593648
C20	C	1.383343	-0.668934	0.640823
C21	C	1.363180	-0.769208	0.661042
C22	C	0.974461	-0.492309	0.672355
C23	C	0.864734	-0.492321	0.672369
C24	C	0.888009	-0.376788	0.514958
C25	C	0.997734	-0.376773	0.514949
C26	C	1.017683	-0.550075	0.751054
C27	C	0.951186	-0.607851	0.829768
C28	C	0.841460	-0.607862	0.829781
C29	C	0.798230	-0.550098	0.751081
C30	C	1.575241	-1.051846	0.449495
C31	C	1.594185	-0.957633	0.430493
C32	C	1.536436	-0.910523	0.488129
C33	C	1.459739	-0.957634	0.564769
C34	C	1.440787	-1.051856	0.583767
C35	C	1.401982	-0.910532	0.622401
C36	C	1.325285	-0.957643	0.699042
C37	C	1.306338	-1.051856	0.718037
C38	C	1.364087	-1.098967	0.660401
C39	C	1.420933	-0.816310	0.603403
C40	C	1.286480	-0.816320	0.737676
C41	C	1.267536	-0.910532	0.756677
C42	C	1.704729	-0.434558	0.593662
C43	C	1.821504	-0.434565	0.593670
C44	C	1.430791	-0.434450	0.867659
C45	C	1.430831	-0.434411	0.984427
C46	C	1.478269	-0.199232	0.546302
C47	C	1.498541	-0.098957	0.526129
C48	C	1.430681	-0.434566	0.320681
C49	C	1.430897	-0.434351	0.203862
C50	C	1.509701	-0.376709	1.027686
C51	C	1.509733	-0.376676	1.137404
C52	C	1.352019	-0.492055	1.160596
C53	C	1.351984	-0.492083	1.050879
C54	C	1.588548	-0.319037	0.961234
C55	C	1.667426	-0.261331	1.004492
C56	C	1.667457	-0.261299	1.114210
C57	C	1.588611	-0.318972	1.180669
H58	H	1.107026	-0.550073	0.751050
N59	N	1.588633	-0.318930	1.299006
H60	H	1.650559	-0.273621	1.316328
H61	H	1.595402	-0.380841	1.337810
N62	N	0.769734	-0.670173	0.914671
H63	H	0.791672	-0.656245	0.986962
H64	H	0.775844	-0.734585	0.911093
N65	N	1.266926	-0.554322	1.004211
H66	H	1.225639	-0.517665	0.951314
H67	H	1.217060	-0.590847	1.063017
N68	N	0.997806	-0.670147	0.914651
H69	H	1.077406	-0.661377	0.902700
H70	H	0.965610	-0.734562	0.911138
H71	H	0.708884	-0.550104	0.751106
N72	N	0.841384	-0.314501	0.430067
H73	H	0.857646	-0.328441	0.357783
H74	H	0.873511	-0.250079	0.433624
N75	N	1.676910	-0.906825	0.347847
H76	H	1.733444	-0.867672	0.382696
H77	H	1.642006	-0.867847	0.291277
N78	N	1.223610	-1.102660	0.800695
H79	H	1.258430	-1.141690	0.857288
H80	H	1.167090	-1.141760	0.765770
H81	H	1.731614	-0.214371	0.950373
H82	H	1.051878	-0.329724	0.450865
H83	H	1.483380	-0.777960	0.541002
N84	N	1.556862	-0.808908	0.467637
H85	H	1.614212	-0.786211	0.410342
H86	H	1.580671	-0.786224	0.535186
N87	N	1.637503	-1.102656	0.387319
H88	H	1.613852	-1.169490	0.410980
H89	H	1.715858	-1.086135	0.400389
N90	N	1.588519	-0.319056	0.842894
H91	H	1.519795	-0.302467	0.813126
H92	H	1.595347	-0.380963	0.828992
H93	H	1.348670	-1.175683	0.675871
N94	N	1.184814	-0.961348	0.839336
H95	H	1.181576	-1.028181	0.842621
H96	H	1.113086	-0.944946	0.819613
N97	N	1.224180	-0.765520	0.799841
H98	H	1.247825	-0.698686	0.776179
H99	H	1.237189	-0.781926	0.878198
N100	N	1.752511	-0.199048	1.160867
H101	H	1.802448	-0.162517	1.102118
H102	H	1.793723	-0.235755	1.213784
N103	N	1.266973	-0.554247	1.232269
H104	H	1.278962	-0.545471	1.308338
H105	H	1.270279	-0.618688	1.226056
