data_functionalizedCrystal
_audit_creation_method	'MofGen! by Chris Wilmer'
_symmetry_space_group_name_H-M	'P1'
_symmetry_Int_Tables_number	1
_symmetry_cell_setting	triclinic
loop_
_symmetry_equiv_pos_as_xyz
  x,y,z
_cell_length_a	10.540539
_cell_length_b	11.026607
_cell_length_c	9.482900
_cell_angle_alpha	78.636152
_cell_angle_beta	80.569012
_cell_angle_gamma	83.444246
loop_
_atom_site_label
_atom_site_type_symbol
_atom_site_fract_x
_atom_site_fract_y
_atom_site_fract_z
O1	O	0.517017	-1.633556	0.120883
O2	O	1.017017	-1.133556	0.620883
O3	O	0.456370	-1.279725	0.120886
O4	O	0.956370	-0.779725	0.620886
O5	O	0.303756	-1.464712	0.120883
O6	O	0.803756	-0.964712	0.620883
O7	O	0.669632	-1.448568	0.120886
O8	O	1.169632	-0.948568	0.620886
O9	O	0.334914	-1.427139	-0.120909
O10	O	0.834914	-0.927139	0.379091
O11	O	0.487529	-1.242151	-0.120905
O12	O	0.987529	-0.742151	0.379095
O13	O	0.548176	-1.595982	-0.120909
O14	O	1.048176	-1.095982	0.379091
Cu15	Cu	0.520697	-1.415636	-0.142985
Cu16	Cu	1.020697	-0.915636	0.357015
Cu17	Cu	0.483849	-1.460071	0.142962
Cu18	Cu	0.983849	-0.960071	0.642962
O19	O	0.700790	-1.410994	-0.120905
O20	O	1.200790	-0.910994	0.379095
C21	C	0.460761	-1.215630	-0.000009
C22	C	0.960761	-0.715630	0.499991
C23	C	0.427408	-1.080627	-0.000008
C24	C	0.927408	-0.580627	0.499992
C25	C	0.271766	-1.444715	-0.000011
C26	C	0.771766	-0.944715	0.499989
C27	C	0.130024	-1.441094	-0.000003
C28	C	0.630024	-0.941094	0.499997
C29	C	0.543785	-1.660077	-0.000010
C30	C	1.043785	-1.160077	0.499990
C31	C	0.577136	-1.795082	-0.000002
C32	C	1.077136	-1.295082	0.499998
C33	C	-0.083877	-1.302374	0.000541
C34	C	0.416123	-0.802374	0.500541
C35	C	0.063616	-1.305961	-0.000003
C36	C	0.563616	-0.805961	0.499997
C37	C	0.100404	-1.484669	-0.138078
C38	C	0.600404	-0.984669	0.361922
C39	C	-0.047136	-1.480039	-0.138195
C40	C	0.452864	-0.980039	0.361805
C41	C	-0.082485	-1.525516	0.136768
C42	C	0.417515	-1.025516	0.636768
C43	C	0.064534	-1.527044	0.138593
C44	C	0.564534	-1.027044	0.638593
C45	C	0.732779	-1.430992	-0.000009
C46	C	1.232779	-0.930992	0.499991
C47	C	0.874520	-1.434615	-0.000007
C48	C	1.374520	-0.934615	0.499993
N49	N	0.546616	-1.384391	-0.344104
N50	N	1.046616	-0.884391	0.155896
C51	C	0.519500	-1.007620	-0.000006
C52	C	1.019500	-0.507620	0.499994
C53	C	0.485031	-0.868087	-0.000004
C54	C	0.985031	-0.368087	0.499996
C55	C	0.491485	-1.450847	-0.416305
C56	C	0.991485	-0.950847	0.083695
C57	C	0.513061	-1.424860	-0.583722
C58	C	1.013061	-0.924860	-0.083722
N59	N	0.457922	-1.491325	0.344082
N60	N	0.957922	-0.991325	0.844082
H61	H	0.082256	-1.270172	0.098975
H62	H	0.582256	-0.770172	0.598975
H63	H	0.623863	-1.048415	-0.000013
H64	H	1.123863	-0.548415	0.499987
Cl65	Cl	0.092082	-1.478705	0.296323
Cl66	Cl	0.592082	-0.978705	0.796323
Cl67	Cl	0.323893	-0.805116	-0.000016
Cl68	Cl	0.823893	-0.305116	0.499984
H69	H	0.145156	-1.583109	-0.143213
H70	H	0.645156	-1.083109	0.356787
H71	H	0.609784	-1.308252	-0.406233
H72	H	1.109784	-0.808252	0.093767
Cl73	Cl	0.360710	-1.609142	-0.560017
Cl74	Cl	0.860710	-1.109142	-0.060017
H75	H	-0.136929	-1.264380	0.099558
H76	H	0.363071	-0.764380	0.599558
H77	H	0.681507	-0.835869	-0.000011
H78	H	1.181507	-0.335869	0.499989
Cl79	Cl	0.133592	-1.681158	0.151476
Cl80	Cl	0.633592	-1.181158	0.651476
H81	H	0.576233	-1.348716	-0.645845
H82	H	1.076233	-0.848716	-0.145845
H83	H	-0.108451	-1.623266	0.137695
H84	H	0.391549	-1.123266	0.637695
H85	H	0.323041	-1.039837	0.000029
H86	H	0.823041	-0.539837	0.500029
H87	H	-0.113041	-1.233910	-0.097919
H88	H	0.386959	-0.733910	0.402081
H89	H	0.106861	-1.239026	-0.099145
H90	H	0.606861	-0.739026	0.400855
H91	H	0.428305	-1.526977	-0.354178
H92	H	0.928305	-1.026977	0.145822
H93	H	-0.137104	-1.498043	0.241420
H94	H	0.362896	-0.998043	0.741420
Cl95	Cl	-0.086399	-1.381067	-0.297542
Cl96	Cl	0.413601	-0.881067	0.202458
Cl97	Cl	-0.087087	-1.628574	-0.147888
Cl98	Cl	0.412913	-1.128574	0.352112
H99	H	0.146349	-1.423527	-0.240829
H100	H	0.646349	-0.923527	0.259171
