data_functionalizedCrystal
_audit_creation_method	'MofGen! by Chris Wilmer'
_symmetry_space_group_name_H-M	'P1'
_symmetry_Int_Tables_number	1
_symmetry_cell_setting	triclinic
loop_
_symmetry_equiv_pos_as_xyz
  x,y,z
_cell_length_a	8.597366
_cell_length_b	8.559649
_cell_length_c	7.088929
_cell_angle_alpha	84.655564
_cell_angle_beta	103.954530
_cell_angle_gamma	77.624671
loop_
_atom_site_label
_atom_site_type_symbol
_atom_site_fract_x
_atom_site_fract_y
_atom_site_fract_z
O1	O	2.074461	0.219466	0.182742
O2	O	2.574461	0.719466	0.682742
O3	O	1.606581	0.245558	0.105667
O4	O	2.106581	0.745558	0.605667
O5	O	1.881742	-0.000149	0.150998
O6	O	2.381742	0.499851	0.650998
O7	O	1.799300	0.465172	0.137411
O8	O	2.299300	0.965172	0.637411
O9	O	1.918524	-0.033059	0.475033
O10	O	2.418524	0.466941	0.975033
O11	O	1.643363	0.212647	0.429701
O12	O	2.143363	0.712647	0.929701
O13	O	2.111242	0.186556	0.506777
O14	O	2.611242	0.686556	1.006777
Cu15	Cu	1.880661	0.196596	0.497826
Cu16	Cu	2.380661	0.696596	0.997826
Cu17	Cu	1.837163	0.235517	0.114617
Cu18	Cu	2.337163	0.735517	0.614617
O19	O	1.836082	0.432262	0.461445
O20	O	2.336082	0.932262	0.961445
C21	C	1.565628	0.228135	0.257908
C22	C	2.065628	0.728135	0.757908
C23	C	1.388803	0.225231	0.228778
C24	C	1.888803	0.725231	0.728778
C25	C	1.906380	-0.076142	0.314041
C26	C	2.406380	0.423858	0.814041
C27	C	1.924976	-0.253547	0.317095
C28	C	2.424976	0.246453	0.817095
C29	C	2.152195	0.203979	0.354532
C30	C	2.652195	0.703979	0.854532
C31	C	2.329019	0.206884	0.383648
C32	C	2.829019	0.706884	0.883648
N33	N	1.911267	0.169221	0.767356
N34	N	2.411267	0.669221	1.267356
C35	C	1.811443	0.508256	0.298398
C36	C	2.311443	1.008256	0.798398
C37	C	1.792846	0.685662	0.295331
C38	C	2.292846	1.185662	0.795331
N39	N	1.806571	0.262879	-0.154910
N40	N	2.306571	0.762879	0.345090
H41	H	1.304711	0.238707	0.073892
H42	H	1.804711	0.738707	0.573892
H43	H	2.052326	0.662776	0.338085
H44	H	2.552326	1.162776	0.838085
H45	H	1.665489	0.769346	0.274362
H46	H	2.165489	1.269346	0.774362
H47	H	1.413122	0.193396	0.538546
H48	H	1.913122	0.693396	1.038546
H49	H	1.698066	0.359937	0.745568
H50	H	2.198066	0.859937	1.245568
H51	H	2.019790	0.072169	0.866891
H52	H	2.519790	0.572169	1.366891
