data_functionalizedCrystal
_audit_creation_method	'MofGen! by Chris Wilmer'
_symmetry_space_group_name_H-M	'P1'
_symmetry_Int_Tables_number	1
_symmetry_cell_setting	triclinic
loop_
_symmetry_equiv_pos_as_xyz
  x,y,z
_cell_length_a	10.686220
_cell_length_b	16.120484
_cell_length_c	10.686551
_cell_angle_alpha	91.292191
_cell_angle_beta	89.691918
_cell_angle_gamma	97.070967
loop_
_atom_site_label
_atom_site_type_symbol
_atom_site_fract_x
_atom_site_fract_y
_atom_site_fract_z
Zn1	Zn	1.957921	-0.203137	0.579045
Zn2	Zn	2.457921	0.296863	1.079045
Zn3	Zn	1.931025	-0.353948	0.381655
Zn4	Zn	2.431025	0.146052	0.881655
Zn5	Zn	1.730532	-0.224452	0.387111
Zn6	Zn	2.230532	0.275548	0.887111
Zn7	Zn	1.737575	-0.352260	0.607294
Zn8	Zn	2.237575	0.147740	1.107294
O9	O	1.839263	-0.283449	0.488776
O10	O	2.339263	0.216551	0.988776
O11	O	2.130476	-0.214929	0.538756
O12	O	2.630476	0.285071	1.038756
O13	O	1.890226	-0.346397	0.207623
O14	O	2.390226	0.153603	0.707623
O15	O	1.769004	-0.105021	0.403033
O16	O	2.269004	0.394979	0.903033
O17	O	2.110716	-0.325729	0.393734
O18	O	2.610716	0.174271	0.893734
O19	O	1.936065	-0.089361	0.544046
O20	O	2.436065	0.410639	1.044046
O21	O	1.742924	-0.251257	0.211631
O22	O	2.242924	0.248743	0.711631
O23	O	1.555343	-0.249619	0.430424
O24	O	2.055343	0.250381	0.930424
O25	O	1.781008	-0.322851	0.778303
O26	O	2.281008	0.177149	1.278303
O27	O	1.560518	-0.343519	0.592192
O28	O	2.060518	0.156481	1.092192
O29	O	1.942895	-0.213292	0.757549
O30	O	2.442895	0.286708	1.257549
O31	O	1.897056	-0.470327	0.421125
O32	O	2.397056	0.029673	0.921125
O33	O	1.754928	-0.469087	0.586902
O34	O	2.254928	0.030913	1.086902
C35	C	1.512264	-0.298700	0.514966
C36	C	2.012264	0.201300	1.014966
C37	C	1.372373	-0.305242	0.526202
C38	C	1.872373	0.194758	1.026202
C39	C	1.823874	-0.499938	0.506511
C40	C	2.323874	0.000062	1.006511
C41	C	1.817409	-0.592545	0.514131
C42	C	2.317409	-0.092545	1.014131
C43	C	1.805615	-0.762098	0.528067
C44	C	2.305615	-0.262098	1.028067
C45	C	1.873138	-0.803948	0.449488
C46	C	2.373138	-0.303948	0.949488
C47	C	1.866576	-0.898293	0.457242
C48	C	2.366576	-0.398293	0.957242
C49	C	1.812176	-0.667744	0.520315
C50	C	2.312176	-0.167744	1.020315
C51	C	2.167539	-0.268140	0.462485
C52	C	2.667539	0.231860	0.962485
C53	C	2.307431	-0.261616	0.451281
C54	C	2.807431	0.238384	0.951281
C55	C	1.865737	-0.265505	0.814505
C56	C	2.365737	0.234495	1.314505
C57	C	1.877019	-0.257859	0.953311
C58	C	2.377019	0.242141	1.453311
C59	C	1.854749	-0.066112	0.470997
C60	C	2.354749	0.433888	0.970997
C61	C	1.861348	0.026504	0.463420
C62	C	2.361348	0.526504	0.963420
C63	C	1.812969	-0.301259	0.164304
C64	C	2.312969	0.198741	0.664304
C65	C	1.801948	-0.308660	0.025460
C66	C	2.301948	0.191340	0.525460
H67	H	1.320945	-0.347606	0.598938
H68	H	1.820945	0.152394	1.098938
C69	C	1.956564	-0.757230	0.351865
C70	C	2.456564	-0.257230	0.851865
C71	C	1.882240	-0.715094	0.273435
C72	C	2.382240	-0.215094	0.773435
C73	C	1.959037	-0.672055	0.183480
C74	C	2.459037	-0.172055	0.683480
H75	H	2.017590	-0.717977	0.392388
H76	H	2.517590	-0.217977	0.892388
H77	H	1.998036	-0.795876	0.303506
H78	H	2.498036	-0.295876	0.803506
H79	H	1.840789	-0.676451	0.321787
H80	H	2.340789	-0.176451	0.821787
H81	H	1.821217	-0.754327	0.232882
H82	H	2.321217	-0.254327	0.732882
H83	H	2.000509	-0.710702	0.135121
H84	H	2.500509	-0.210702	0.635121
H85	H	2.020059	-0.632807	0.224014
H86	H	2.520059	-0.132807	0.724014
H87	H	1.908619	-0.643467	0.130247
H88	H	2.408619	-0.143467	0.630247
H89	H	1.729049	-0.358005	0.981039
H90	H	2.229049	0.141995	1.481039
H91	H	1.949930	-0.208516	0.997738
H92	H	2.449930	0.291484	1.497738
C93	C	1.376133	-0.205266	0.354218
C94	C	1.876133	0.294734	0.854218
C95	C	1.441760	-0.253287	0.271949
C96	C	1.941760	0.246713	0.771949
C97	C	1.505084	-0.201404	0.182527
C98	C	2.005084	0.298596	0.682527
H99	H	1.316773	-0.178754	0.308588
H100	H	1.816773	0.321246	0.808588
H101	H	1.433954	-0.164014	0.395000
H102	H	1.933954	0.335986	0.895000
H103	H	1.383944	-0.294523	0.231170
H104	H	1.883944	0.205477	0.731170
H105	H	1.501140	-0.279798	0.317542
H106	H	2.001140	0.220202	0.817542
H107	H	1.562905	-0.160153	0.223309
H108	H	2.062905	0.339847	0.723309
H109	H	1.445715	-0.174895	0.136907
H110	H	1.945715	0.325105	0.636907
H111	H	1.549628	-0.233977	0.126704
H112	H	2.049628	0.266023	0.626704
H113	H	1.742882	-0.797121	0.601158
H114	H	2.242882	-0.297121	1.101158
