data_functionalizedCrystal
_audit_creation_method	'MofGen! by Chris Wilmer'
_symmetry_space_group_name_H-M	'P1'
_symmetry_Int_Tables_number	1
_symmetry_cell_setting	triclinic
loop_
_symmetry_equiv_pos_as_xyz
  x,y,z
_cell_length_a	10.489716
_cell_length_b	10.489741
_cell_length_c	12.376593
_cell_angle_alpha	102.566949
_cell_angle_beta	102.560163
_cell_angle_gamma	84.534155
loop_
_atom_site_label
_atom_site_type_symbol
_atom_site_fract_x
_atom_site_fract_y
_atom_site_fract_z
O1	O	1.716084	0.201844	0.093995
O2	O	1.344885	0.218771	0.094000
O3	O	1.538929	0.024707	0.093991
O4	O	1.522040	0.395908	0.094004
O5	O	1.494884	-0.019354	-0.094020
O6	O	1.300840	0.174709	-0.094011
O7	O	1.672038	0.157783	-0.094015
Zn8	Zn	1.479446	0.159250	-0.123864
Zn9	Zn	1.537478	0.217303	0.123848
O10	O	1.477994	0.351846	-0.094006
C11	C	1.275330	0.195468	-0.000005
C12	C	1.133700	0.191664	-0.000004
C13	C	1.036027	0.310670	0.000003
C14	C	0.936963	0.226059	-0.092703
C15	C	0.980395	0.269472	0.092661
C16	C	1.036483	0.107085	-0.092787
C17	C	1.079940	0.150535	0.092660
C18	C	0.980919	0.065832	-0.000069
C19	C	1.515631	-0.044855	-0.000014
C20	C	1.511814	-0.186484	-0.000012
C21	C	1.388350	-0.254610	-0.000002
C22	C	1.424958	-0.368463	-0.092702
C23	C	1.468412	-0.324996	0.092662
C24	C	1.548454	-0.298489	-0.092788
C25	C	1.591911	-0.254993	0.092659
C26	C	1.628603	-0.368823	-0.000063
C27	C	1.741594	0.181086	-0.000008
C28	C	1.883226	0.184892	-0.000002
C29	C	1.501293	0.421409	0.000001
C30	C	1.505112	0.563039	0.000006
N31	N	1.439850	0.119630	-0.292921
C32	C	1.669008	0.348905	-0.647914
C33	C	1.696709	0.376649	-0.529575
C34	C	1.632497	0.312396	-0.470406
C35	C	1.540578	0.220396	-0.529587
C36	C	1.512866	0.192657	-0.647937
C37	C	1.476356	0.156148	-0.470429
C38	C	1.384436	0.064147	-0.529610
C39	C	1.356730	0.036412	-0.647949
C40	C	1.420942	0.100665	-0.707118
C41	C	1.504068	0.183887	-0.352078
C42	C	1.347926	0.027638	-0.352102
C43	C	1.320224	-0.000106	-0.470440
N44	N	1.577083	0.256913	0.292905
H45	H	0.956475	-0.037774	-0.000126
H46	H	1.730195	-0.418268	-0.000116
H47	H	1.281873	-0.038491	-0.696131
N48	N	1.226341	-0.094079	-0.530916
N49	N	1.201621	-0.118833	-0.636579
H50	H	1.135318	-0.185203	-0.679292
N51	N	0.948912	0.355548	0.190988
N52	N	1.005041	0.338715	0.287196
H53	H	0.982810	0.399512	0.356638
N54	N	1.260973	-0.192351	-0.000120
N55	N	1.167839	-0.229654	-0.079594
H56	H	1.077879	-0.185685	-0.079682
N57	N	1.336381	-0.430394	-0.191011
N58	N	1.218247	-0.393139	-0.207527
H59	H	1.155682	-0.436873	-0.276954
H60	H	1.295635	-0.024678	-0.303926
H61	H	1.582270	-0.286048	-0.171246
H62	H	1.060677	0.414167	-0.000079
N63	N	1.680441	-0.193027	0.190975
N64	N	1.739987	-0.258135	0.261634
H65	H	1.802506	-0.214370	0.331080
N66	N	0.859394	0.266048	-0.191018
N67	N	0.868635	0.377899	-0.207533
H68	H	0.813858	0.406150	-0.276966
N69	N	1.734608	0.414534	-0.708335
N70	N	1.816683	0.496666	-0.655488
H71	H	1.863019	0.543023	-0.698160
N72	N	1.425866	-0.340818	0.190965
N73	N	1.315462	-0.295813	0.207456
H74	H	1.285402	-0.306985	0.276877
H75	H	1.141796	0.118704	0.171036
N76	N	1.067770	0.021060	-0.191214
N77	N	1.113086	0.065306	-0.260241
H78	H	1.135186	0.004557	-0.329756
N79	N	1.597981	0.277835	-0.291648
N80	N	1.713617	0.260606	-0.304865
H81	H	1.779955	0.326957	-0.262187
N82	N	1.790570	0.470650	-0.469144
N83	N	1.847877	0.528026	-0.521982
H84	H	1.914163	0.594428	-0.479303
N85	N	1.660774	0.340716	-0.349526
N86	N	1.571826	0.384628	-0.296708
H87	H	1.591802	0.404626	-0.211332
N88	N	1.392671	0.072328	-0.828002
N89	N	1.450027	0.129696	-0.880810
H90	H	1.430066	0.109684	-0.966187
