data_functionalizedCrystal
_audit_creation_method	'MofGen! by Chris Wilmer'
_symmetry_space_group_name_H-M	'P1'
_symmetry_Int_Tables_number	1
_symmetry_cell_setting	triclinic
loop_
_symmetry_equiv_pos_as_xyz
  x,y,z
_cell_length_a	12.827893
_cell_length_b	17.640280
_cell_length_c	12.827885
_cell_angle_alpha	78.769256
_cell_angle_beta	89.980728
_cell_angle_gamma	78.800662
loop_
_atom_site_label
_atom_site_type_symbol
_atom_site_fract_x
_atom_site_fract_y
_atom_site_fract_z
Zn1	Zn	1.681787	-0.314632	-0.506827
Zn2	Zn	1.717023	-0.446826	-0.296785
Zn3	Zn	1.507038	-0.314670	-0.332090
Zn4	Zn	1.542340	-0.446767	-0.471501
O5	O	1.612047	-0.380724	-0.401801
O6	O	1.832699	-0.332176	-0.478973
O7	O	1.689141	-0.429336	-0.155221
O8	O	1.500699	-0.204058	-0.384829
O9	O	1.858587	-0.429298	-0.324656
O10	O	1.629086	-0.204030	-0.513207
O11	O	1.534866	-0.332242	-0.181160
O12	O	1.365483	-0.332185	-0.350575
O13	O	1.560865	-0.429198	-0.622434
O14	O	1.391419	-0.429235	-0.452999
O15	O	1.663316	-0.332119	-0.648388
O16	O	1.723371	-0.557424	-0.290402
O17	O	1.595032	-0.557381	-0.418765
C18	C	1.340533	-0.380708	-0.401785
C19	C	1.224383	-0.380721	-0.401798
C20	C	1.185480	-0.428820	-0.452363
C21	C	1.065433	-0.428834	-0.452377
C22	C	1.666884	-0.586082	-0.346942
C23	C	1.690439	-0.673935	-0.323508
C24	C	1.433529	-0.962898	-0.580206
C25	C	1.455665	-1.045449	-0.558153
C26	C	1.589387	-1.045429	-0.424624
C27	C	1.567266	-0.962876	-0.446669
C28	C	1.489335	-0.921617	-0.524461
C29	C	1.623072	-0.921595	-0.390924
C30	C	1.600949	-0.839049	-0.412964
C31	C	1.523019	-0.797784	-0.490750
C32	C	1.467212	-0.839071	-0.546501
C33	C	1.700998	-0.962855	-0.313128
C34	C	1.756804	-0.921574	-0.257382
C35	C	1.734686	-0.839027	-0.279427
C36	C	1.656757	-0.797762	-0.357213
C37	C	1.790494	-0.797740	-0.223676
C38	C	1.768370	-0.715194	-0.245716
C39	C	1.634633	-0.715216	-0.379253
C40	C	1.884621	-0.380739	-0.401817
C41	C	2.000776	-0.380746	-0.401824
C42	C	1.612098	-0.380648	-0.674391
C43	C	1.612119	-0.380615	-0.790553
C44	C	1.557024	-0.174563	-0.456897
C45	C	1.533576	-0.086710	-0.480375
C46	C	1.662820	-0.332568	-0.855183
C47	C	1.662843	-0.332534	-0.975243
C48	C	1.612041	-0.380742	-0.130286
C49	C	1.612162	-0.380552	-0.014184
H50	H	1.168815	-0.339549	-0.358523
C51	C	1.721439	-0.277032	-0.809869
H52	H	1.713740	-0.284345	-0.735118
H53	H	1.691993	-0.223907	-0.841900
H54	H	1.794763	-0.288594	-0.824619
H55	H	1.652835	-1.079033	-0.361283
H56	H	1.706254	-0.291401	-1.030773
H57	H	1.403760	-0.805476	-0.609854
C58	C	1.829758	-0.669778	-0.184409
H59	H	1.805414	-0.614708	-0.208672
H60	H	1.903575	-0.683258	-0.196170
H61	H	1.818138	-0.683342	-0.110554
C62	C	1.347820	-0.917508	-0.665789
H63	H	1.317750	-0.953914	-0.695838
H64	H	1.379140	-0.885266	-0.719957
H65	H	1.293683	-0.885348	-0.634362
H66	H	1.568758	-0.421692	-0.958658
C67	C	1.553499	-0.436154	-0.835862
H68	H	1.521681	-0.466299	-0.779746
H69	H	1.602703	-0.470552	-0.869255
H70	H	1.499929	-0.405868	-0.886528
H71	H	1.031929	-0.470015	-0.495664
C72	C	1.260532	-0.484438	-0.510835
H73	H	1.220557	-0.514613	-0.542567
H74	H	1.312278	-0.518806	-0.461562
H75	H	1.295051	-0.454203	-0.564470
C76	C	1.046017	-0.325109	-0.343338
H77	H	0.989880	-0.294945	-0.311619
H78	H	1.079432	-0.290732	-0.392603
H79	H	1.096647	-0.355332	-0.289693
H80	H	1.820252	-0.955179	-0.194042
C81	C	1.548917	-0.669822	-0.464828
H82	H	1.543742	-0.614749	-0.469971
H83	H	1.482347	-0.683395	-0.445856
H84	H	1.567798	-0.683310	-0.531458
C85	C	1.394280	-1.090856	-0.619486
H86	H	1.344707	-1.054459	-0.668976
H87	H	1.357413	-1.123104	-0.570865
H88	H	1.442857	-1.123011	-0.656473
C89	C	1.725335	-1.053654	-0.288877
H90	H	1.779729	-1.072314	-0.234554
H91	H	1.748367	-1.072293	-0.351350
H92	H	1.662920	-1.072372	-0.265744
C93	C	1.876209	-0.843131	-0.138110
H94	H	1.881393	-0.898204	-0.132970
H95	H	1.857343	-0.829638	-0.071485
H96	H	1.942781	-0.829560	-0.157100
H97	H	1.505001	-0.730570	-0.508686
