data_functionalizedCrystal
_audit_creation_method	'MofGen! by Chris Wilmer'
_symmetry_space_group_name_H-M	'P1'
_symmetry_Int_Tables_number	1
_symmetry_cell_setting	triclinic
loop_
_symmetry_equiv_pos_as_xyz
  x,y,z
_cell_length_a	11.026607
_cell_length_b	10.654550
_cell_length_c	9.482900
_cell_angle_alpha	99.426343
_cell_angle_beta	78.636152
_cell_angle_gamma	96.535460
loop_
_atom_site_label
_atom_site_type_symbol
_atom_site_fract_x
_atom_site_fract_y
_atom_site_fract_z
O1	O	1.633381	0.511463	-0.120893
O2	O	1.279571	0.451467	-0.120895
O3	O	1.464610	0.300492	-0.120889
O4	O	1.448342	0.662438	-0.120899
O5	O	1.427025	0.331316	0.120903
O6	O	1.241986	0.482291	0.120896
O7	O	1.595797	0.542287	0.120898
Cu8	Cu	1.415460	0.515103	0.142975
Cu9	Cu	1.459908	0.478650	-0.142971
O10	O	1.410758	0.693262	0.120892
C11	C	1.215474	0.455811	0.000000
C12	C	1.080483	0.422816	-0.000001
C13	C	1.007444	0.513919	-0.000004
C14	C	0.867923	0.479820	-0.000005
C15	C	1.444623	0.268847	0.000005
C16	C	1.441050	0.128627	0.000000
C17	C	1.549998	0.072791	0.000005
C18	C	1.546634	-0.058961	-0.000005
C19	C	1.325364	-0.079031	-0.000019
C20	C	1.328730	0.052718	-0.000019
C21	C	1.662318	0.148701	0.000025
C22	C	1.771274	0.092866	0.000031
C23	C	1.767910	-0.038887	0.000021
C24	C	1.655590	-0.114805	0.000004
C25	C	1.659894	0.537943	-0.000000
C26	C	1.794887	0.570936	-0.000009
C27	C	1.430745	0.724907	-0.000005
C28	C	1.434319	0.865125	-0.000010
N29	N	1.384206	0.540743	0.344094
N30	N	1.491171	0.453003	-0.344091
C31	C	1.450681	0.486205	0.416295
C32	C	1.424686	0.507549	0.583712
H33	H	0.835639	0.674185	-0.000002
H34	H	1.652862	-0.222088	-0.000019
H35	H	0.827174	0.376567	-0.000039
H36	H	1.856630	-0.084345	0.000012
O37	O	1.032060	0.299590	0.000064
C38	C	1.127066	0.221498	0.000027
H39	H	1.206455	0.281965	0.045803
H40	H	1.088863	0.143637	0.070224
H41	H	1.162703	0.175745	-0.115973
O42	O	1.216355	-0.152949	0.000040
C43	C	1.236752	-0.281212	0.000008
H44	H	1.324258	-0.284744	0.045785
H45	H	1.153906	-0.328745	0.070206
H46	H	1.248585	-0.333862	-0.115991
H47	H	1.240015	0.098180	-0.000022
H48	H	1.665069	0.255982	0.000038
H49	H	1.348521	0.570043	0.645833
H50	H	1.567327	0.390498	0.593788
O51	O	1.055959	0.637141	0.000250
C52	C	0.997327	0.713334	0.125454
H53	H	0.956680	0.650845	0.212982
H54	H	1.068145	0.789495	0.167488
H55	H	0.919747	0.761272	0.097136
H56	H	1.308046	0.603233	0.406221
H57	H	1.526832	0.423704	0.354170
O58	O	1.880333	0.166713	-0.000153
C59	C	1.908382	0.227544	-0.125391
H60	H	1.819320	0.233248	-0.167142
H61	H	1.953193	0.328027	-0.097220
H62	H	1.975314	0.170549	-0.213081
