data_functionalizedCrystal
_audit_creation_method	'MofGen! by Chris Wilmer'
_symmetry_space_group_name_H-M	'P1'
_symmetry_Int_Tables_number	1
_symmetry_cell_setting	triclinic
loop_
_symmetry_equiv_pos_as_xyz
  x,y,z
_cell_length_a	19.805407
_cell_length_b	10.686285
_cell_length_c	19.805399
_cell_angle_alpha	85.609337
_cell_angle_beta	89.983114
_cell_angle_gamma	85.631507
loop_
_atom_site_label
_atom_site_type_symbol
_atom_site_fract_x
_atom_site_fract_y
_atom_site_fract_z
Zn1	Zn	1.055482	-0.502358	-0.362111
Zn2	Zn	1.064125	-0.713374	-0.240266
Zn3	Zn	0.942304	-0.502398	-0.248934
Zn4	Zn	0.950980	-0.713302	-0.353416
O5	O	1.003223	-0.607858	-0.301182
O6	O	1.151346	-0.530363	-0.345960
O7	O	1.047951	-0.685435	-0.146697
O8	O	0.950070	-0.325817	-0.271214
O9	O	1.157695	-0.685396	-0.256441
O10	O	1.033221	-0.325788	-0.354364
O11	O	0.958450	-0.530431	-0.153066
O12	O	0.848738	-0.530361	-0.262782
O13	O	0.964856	-0.685273	-0.449288
O14	O	0.855112	-0.685311	-0.339545
O15	O	1.041634	-0.530293	-0.455676
O16	O	1.056363	-0.889940	-0.248009
O17	O	0.973236	-0.889887	-0.331140
C18	C	0.827366	-0.607834	-0.301161
C19	C	0.752134	-0.607854	-0.301167
C20	C	0.720132	-0.688658	-0.341062
C21	C	0.649444	-0.688660	-0.341071
C22	C	0.610759	-0.607864	-0.301182
C23	C	0.642766	-0.527051	-0.261285
C24	C	0.713453	-0.527043	-0.261280
C25	C	0.357694	-0.527078	-0.261306
C26	C	0.287003	-0.527095	-0.261313
C27	C	0.293685	-0.688696	-0.341098
C28	C	0.364371	-0.688688	-0.341093
C29	C	0.396372	-0.607871	-0.301199
C30	C	0.473020	-0.607868	-0.301190
C31	C	0.534112	-0.607872	-0.301186
C32	C	1.016697	-0.935697	-0.287705
C33	C	1.022524	-1.075948	-0.281963
C34	C	1.179766	-0.607883	-0.301203
C35	C	1.254999	-0.607894	-0.301212
C36	C	1.003249	-0.607770	-0.477728
C37	C	1.003260	-0.607733	-0.552962
C38	C	0.989714	-0.278738	-0.314726
C39	C	0.983957	-0.138487	-0.320498
C40	C	0.956669	-0.527015	-0.591622
C41	C	0.956677	-0.526991	-0.662311
C42	C	1.003280	-0.607678	-0.694340
C43	C	1.049874	-0.688405	-0.655674
C44	C	1.049862	-0.688435	-0.584986
C45	C	1.049922	-0.688287	-0.940753
C46	C	1.049932	-0.688248	-1.011446
C47	C	0.956738	-0.526843	-1.018078
C48	C	0.956726	-0.526873	-0.947389
C49	C	1.003316	-0.607603	-0.908730
C50	C	1.003306	-0.607631	-0.832081
C51	C	1.003294	-0.607646	-0.770988
C52	C	1.003232	-0.607854	-0.125326
C53	C	1.003337	-0.607536	-0.050107
H54	H	0.623391	-0.754460	-0.373557
O55	O	0.934310	-1.067289	-0.370016
H56	H	0.906970	-1.135156	-0.397333
H57	H	0.395865	-0.754485	-0.373573
H58	H	0.918722	-0.461302	-0.565550
H59	H	1.087853	-0.754037	-0.909284
H60	H	0.918735	-0.461267	-0.693785
H61	H	1.059997	-1.129708	-0.244570
O62	O	0.906490	-0.439758	-1.059779
H63	H	0.874367	-0.496196	-1.089657
O64	O	0.906467	-0.439836	-0.912843
H65	H	0.874067	-0.383706	-0.951602
O66	O	0.601049	-0.439934	-0.218240
H67	H	0.546520	-0.453533	-0.224933
O68	O	1.100188	-0.775302	-1.045995
H69	H	1.132577	-0.831459	-1.007237
H70	H	1.087806	-0.754155	-0.553510
O71	O	0.761855	-0.775798	-0.384089
H72	H	0.727723	-0.831975	-0.411838
O73	O	0.259171	-0.775853	-0.384138
H74	H	0.203518	-0.762279	-0.377449
O75	O	1.100142	-0.775435	-0.690214
H76	H	1.092329	-0.761845	-0.745864
H77	H	0.383741	-0.461282	-0.228817
O78	O	0.245269	-0.439950	-0.218290
H79	H	0.254755	-0.340940	-0.234061
O80	O	0.747976	-0.439906	-0.218242
H81	H	0.709203	-0.383735	-0.190497
