data_functionalizedCrystal
_audit_creation_method	'MofGen! by Chris Wilmer'
_symmetry_space_group_name_H-M	'P1'
_symmetry_Int_Tables_number	1
_symmetry_cell_setting	triclinic
loop_
_symmetry_equiv_pos_as_xyz
  x,y,z
_cell_length_a	16.959455
_cell_length_b	21.295417
_cell_length_c	16.959447
_cell_angle_alpha	89.965854
_cell_angle_beta	89.985678
_cell_angle_gamma	90.026649
loop_
_atom_site_label
_atom_site_type_symbol
_atom_site_fract_x
_atom_site_fract_y
_atom_site_fract_z
Zn1	Zn	1.208331	-0.250648	-0.446888
Zn2	Zn	1.708331	0.249352	0.053112
Zn3	Zn	1.208231	-0.355925	-0.314700
Zn4	Zn	1.708231	0.144075	0.185300
Zn5	Zn	1.076159	-0.250668	-0.314725
Zn6	Zn	1.576159	0.249332	0.185275
Zn7	Zn	1.076102	-0.355878	-0.446839
Zn8	Zn	1.576102	0.144122	0.053161
O9	O	1.142206	-0.303280	-0.380788
O10	O	1.642206	0.196720	0.119212
O11	O	1.318929	-0.264625	-0.429363
O12	O	1.818929	0.235375	0.070637
O13	O	1.190694	-0.341990	-0.204093
O14	O	1.690694	0.158010	0.295907
O15	O	1.093758	-0.162576	-0.332288
O16	O	1.593758	0.337424	0.167712
O17	O	1.318855	-0.341971	-0.332245
O18	O	1.818855	0.158029	0.167755
O19	O	1.190864	-0.162561	-0.429387
O20	O	1.690864	0.337439	0.070613
O21	O	1.093661	-0.264658	-0.204111
O22	O	1.593661	0.235342	0.295889
O23	O	0.965541	-0.264613	-0.332240
O24	O	1.465541	0.235387	0.167760
O25	O	1.093660	-0.341891	-0.557456
O26	O	1.593660	0.158109	-0.057456
O27	O	0.965499	-0.341910	-0.429304
O28	O	1.465499	0.158090	0.070696
O29	O	1.190808	-0.264579	-0.557492
O30	O	1.690808	0.235421	-0.057492
O31	O	1.190638	-0.444008	-0.332198
O32	O	1.690638	0.055992	0.167802
O33	O	1.093563	-0.443973	-0.429280
O34	O	1.593563	0.056027	0.070720
C35	C	0.936840	-0.303259	-0.380770
C36	C	1.436840	0.196741	0.119230
C37	C	0.848983	-0.303265	-0.380781
C38	C	1.348983	0.196735	0.119219
C39	C	0.477505	-0.262998	-0.330353
C40	C	0.977505	0.237002	0.169647
C41	C	0.477510	-0.343613	-0.431269
C42	C	0.977510	0.156387	0.068731
C43	C	0.560056	-0.343604	-0.431264
C44	C	1.060056	0.156396	0.068736
C45	C	0.601330	-0.303292	-0.380802
C46	C	1.101330	0.196708	0.119198
C47	C	0.560058	-0.262989	-0.330345
C48	C	1.060058	0.237011	0.169655
C49	C	0.601333	-0.383911	-0.481714
C50	C	1.101333	0.116089	0.018286
C51	C	0.683884	-0.383904	-0.481711
C52	C	1.183884	0.116096	0.018289
C53	C	0.725160	-0.343588	-0.431252
C54	C	1.225160	0.156412	0.068748
C55	C	0.683884	-0.303283	-0.380794
C56	C	1.183884	0.196717	0.119206
C57	C	0.725158	-0.262971	-0.330332
C58	C	1.225158	0.237029	0.169668
C59	C	0.683883	-0.222662	-0.279877
C60	C	1.183883	0.277338	0.220123
C61	C	0.601334	-0.222673	-0.279886
C62	C	1.101334	0.277327	0.220114
C63	C	0.807709	-0.343577	-0.431243
C64	C	1.307709	0.156423	0.068757
C65	C	0.807711	-0.262962	-0.330324
C66	C	1.307711	0.237038	0.169676
C67	C	1.142105	-0.466831	-0.380748
C68	C	1.642105	0.033169	0.119252
C69	C	1.142134	-0.536799	-0.380757
C70	C	1.642134	-0.036799	0.119243
C71	C	1.192668	-0.569601	-0.431353
C72	C	1.692668	-0.069601	0.068647
C73	C	1.192696	-0.635344	-0.431372
C74	C	1.692696	-0.135344	0.068628
C75	C	1.142198	-0.668282	-0.380782
C76	C	1.642198	-0.168282	0.119218
C77	C	1.091654	-0.635472	-0.330183
C78	C	1.591654	-0.135472	0.169817
C79	C	1.091622	-0.569731	-0.330170
C80	C	1.591622	-0.069731	0.169830
N81	N	1.136233	-0.771547	-0.311606
N82	N	1.636233	-0.271547	0.188394
N83	N	1.136268	-0.833998	-0.311620
N84	N	1.636268	-0.333998	0.188380
C85	C	1.142291	-0.866356	-0.380818
C86	C	1.642291	-0.366356	0.119182
N87	N	1.148292	-0.833904	-0.450002
N88	N	1.648292	-0.333904	0.049998
N89	N	1.148261	-0.771447	-0.449987
N90	N	1.648261	-0.271447	0.050013
C91	C	1.142227	-0.739567	-0.380790
C92	C	1.642227	-0.239567	0.119210
C93	C	1.192858	-0.970444	-0.431439
C94	C	1.692858	-0.470444	0.068561
C95	C	1.192880	-1.036188	-0.431460
C96	C	1.692880	-0.536188	0.068540
C97	C	1.091842	-1.036315	-0.330263
C98	C	1.591842	-0.536315	0.169737
C99	C	1.091816	-0.970572	-0.330249
C100	C	1.591816	-0.470572	0.169751
C101	C	1.142328	-0.937641	-0.380836
C102	C	1.642328	-0.437641	0.119164
C103	C	1.348374	-0.303301	-0.380807
C104	C	1.848374	0.196699	0.119193
C105	C	1.436231	-0.303310	-0.380815
C106	C	1.936231	0.196690	0.119185
C107	C	1.142239	-0.303228	-0.586956
C108	C	1.642239	0.196772	-0.086956
C109	C	1.142253	-0.303205	-0.674813
C110	C	1.642253	0.196795	-0.174813
C111	C	1.142328	-0.139089	-0.380845
C112	C	1.642328	0.360911	0.119155
C113	C	1.142381	-0.069121	-0.380870
C114	C	1.642381	0.430879	0.119130
C115	C	1.091767	-0.343392	-1.046273
C116	C	1.591767	0.156608	-0.546273
C117	C	1.192928	-0.262886	-1.046305
C118	C	1.692928	0.237114	-0.546305
C119	C	1.192907	-0.262900	-0.963759
C120	C	1.692907	0.237100	-0.463759
C121	C	1.142316	-0.303160	-0.922466
C122	C	1.642316	0.196840	-0.422466
C123	C	1.091746	-0.343407	-0.963719
C124	C	1.591746	0.156593	-0.463719
C125	C	1.243482	-0.222658	-0.922500
C126	C	1.743482	0.277342	-0.422500
C127	C	1.243463	-0.222670	-0.839949
C128	C	1.743463	0.277330	-0.339949
C129	C	1.192867	-0.262928	-0.798654
C130	C	1.692867	0.237072	-0.298654
C131	C	1.142295	-0.303176	-0.839912
C132	C	1.642295	0.196824	-0.339912
C133	C	1.091704	-0.343437	-0.798619
C134	C	1.591704	0.156563	-0.298619
C135	C	1.041126	-0.383682	-0.839876
C136	C	1.541126	0.116318	-0.339876
C137	C	1.041150	-0.383665	-0.922425
C138	C	1.541150	0.116335	-0.422425
C139	C	1.192844	-0.262945	-0.716106
C140	C	1.692844	0.237055	-0.216106
C141	C	1.091683	-0.343453	-0.716066
C142	C	1.591683	0.156547	-0.216066
C143	C	1.142219	-0.303286	-0.175422
C144	C	1.642219	0.196714	0.324578
C145	C	1.142358	-0.303131	-0.087566
C146	C	1.642358	0.196869	0.412434
H147	H	0.841311	-0.376398	-0.472320
H148	H	1.341311	0.123602	0.027680
O149	O	0.723858	-0.183487	-0.230781
O150	O	1.223858	0.316513	0.269219
C151	C	0.669734	-0.147899	-0.186263
C152	C	1.169734	0.352101	0.313737
H153	H	0.610872	-0.173678	-0.183474
H154	H	1.110872	0.326322	0.316526
H155	H	0.693568	-0.141126	-0.123998
H156	H	1.193568	0.358874	0.376002
H157	H	0.660995	-0.100118	-0.215316
H158	H	1.160995	0.399882	0.284684
H159	H	1.234121	-0.230111	-1.079931
H160	H	1.734121	0.269889	-0.579931
O161	O	1.042640	-0.667396	-0.280929
O162	O	1.542640	-0.167396	0.219071
C163	C	1.059968	-0.651377	-0.202161
C164	C	1.559968	-0.151377	0.297839
H165	H	1.090330	-0.603624	-0.200540
H166	H	1.590330	-0.103624	0.299460
H167	H	1.002943	-0.649189	-0.166668
H168	H	1.502943	-0.149189	0.333332
H169	H	1.100642	-0.688364	-0.175579
H170	H	1.600642	-0.188364	0.324421
O171	O	0.437294	-0.223903	-0.281368
O172	O	0.937294	0.276097	0.218632
C173	C	0.355582	-0.232537	-0.292209
C174	C	0.855582	0.267463	0.207791
H175	H	0.344291	-0.281143	-0.317984
H176	H	0.844291	0.218857	0.182016
H177	H	0.324190	-0.228208	-0.233016
H178	H	0.824190	0.271792	0.266984
H179	H	0.332192	-0.195242	-0.334392
H180	H	0.832192	0.304758	0.165608
H181	H	0.841311	-0.230131	-0.289236
H182	H	1.341311	0.269869	0.210764
O183	O	1.042758	-0.938607	-0.281168
O184	O	1.542758	-0.438607	0.218832
C185	C	1.053572	-0.873520	-0.291990
C186	C	1.553572	-0.373520	0.208010
H187	H	1.079415	-0.864488	-0.353012
H188	H	1.579415	-0.364488	0.146988
H189	H	0.994358	-0.848578	-0.286570
H190	H	1.494358	-0.348578	0.213430
H191	H	1.095687	-0.854864	-0.245140
H192	H	1.595687	-0.354864	0.254860
O193	O	1.241829	-0.667281	-0.480415
O194	O	1.741829	-0.167281	0.019585
C195	C	1.292942	-0.705288	-0.435464
C196	C	1.792942	-0.205288	0.064536
H197	H	1.265105	-0.715194	-0.375541
H198	H	1.765105	-0.215194	0.124459
H199	H	1.303542	-0.751490	-0.467680
H200	H	1.803542	-0.251490	0.032320
H201	H	1.351510	-0.679915	-0.426822
H202	H	1.851510	-0.179915	0.073178
O203	O	1.042453	-0.382475	-0.675924
O204	O	1.542453	0.117525	-0.175924
C205	C	0.991429	-0.346645	-0.628170
C206	C	1.491429	0.153355	-0.128170
H207	H	0.986589	-0.297059	-0.653063
H208	H	1.486589	0.202941	-0.153063
H209	H	0.930582	-0.369406	-0.627226
H210	H	1.430582	0.130594	-0.127226
H211	H	1.015854	-0.344496	-0.565609
H212	H	1.515854	0.155504	-0.065609
H213	H	0.567721	-0.189857	-0.238807
H214	H	1.067721	0.310143	0.261193
H215	H	1.050586	-0.376157	-1.079867
H216	H	1.550586	0.123843	-0.579867
O217	O	0.991879	-0.422767	-0.799852
O218	O	1.491879	0.077233	-0.299852
C219	C	0.913108	-0.408994	-0.820001
C220	C	1.413108	0.091006	-0.320001
H221	H	0.911490	-0.384779	-0.879945
H222	H	1.411490	0.115221	-0.379945
H223	H	0.877639	-0.454424	-0.822806
H224	H	1.377639	0.045576	-0.322806
H225	H	0.886499	-0.376643	-0.773548
H226	H	1.386499	0.123357	-0.273548
O227	O	1.241890	-0.938353	-0.480508
O228	O	1.741890	-0.438353	0.019492
C229	C	1.231017	-0.873293	-0.469658
C230	C	1.731017	-0.373293	0.030342
H231	H	1.205168	-0.864369	-0.408631
H232	H	1.705168	-0.364369	0.091369
H233	H	1.290209	-0.848266	-0.475069
H234	H	1.790209	-0.348266	0.024931
H235	H	1.188883	-0.854635	-0.516498
H236	H	1.688883	-0.354635	-0.016498
H237	H	1.234031	-1.062894	-0.472665
H238	H	1.734031	-0.562894	0.027335
O239	O	1.042425	-0.537933	-0.281055
O240	O	1.542425	-0.037933	0.218945
C241	C	0.963639	-0.554024	-0.298276
C242	C	1.463639	-0.054024	0.201724
H243	H	0.962001	-0.601739	-0.328670
H244	H	1.462001	-0.101739	0.171330
H245	H	0.928234	-0.556331	-0.241199
H246	H	1.428234	-0.056331	0.258801
H247	H	0.936976	-0.517016	-0.338883
H248	H	1.436976	-0.017016	0.161117
O249	O	1.042744	-1.068370	-0.281232
O250	O	1.542744	-0.568370	0.218768
C251	C	0.991667	-1.106389	-0.326201
C252	C	1.491667	-0.606389	0.173799
H253	H	1.019514	-1.116185	-0.386127
H254	H	1.519514	-0.616185	0.113873
H255	H	0.981108	-1.152644	-0.294005
H256	H	1.481108	-0.652644	0.205995
H257	H	0.933076	-1.081082	-0.334832
H258	H	1.433076	-0.581082	0.165168
H259	H	0.443899	-0.376437	-0.472348
H260	H	0.943899	0.123563	0.027652
O261	O	0.992140	-0.422825	-0.962538
O262	O	1.492140	0.077175	-0.462538
C263	C	1.037127	-0.463466	-1.010282
C264	C	1.537127	0.036534	-0.510282
H265	H	1.099369	-0.467368	-0.985397
H266	H	1.599369	0.032632	-0.485397
H267	H	1.008502	-0.511907	-1.011203
H268	H	1.508502	-0.011907	-0.511203
H269	H	1.039886	-0.443989	-1.072852
H270	H	1.539886	0.056011	-0.572852
O271	O	1.292513	-0.183490	-0.962649
O272	O	1.792513	0.316510	-0.462649
C273	C	1.247557	-0.142828	-1.010433
C274	C	1.747557	0.357172	-0.510433
H275	H	1.185302	-0.138928	-0.985552
H276	H	1.685302	0.361072	-0.485552
H277	H	1.276190	-0.094390	-1.011401
H278	H	1.776190	0.405610	-0.511401
H279	H	1.244825	-0.162284	-1.072984
H280	H	1.744825	0.337716	-0.572984
O281	O	1.292657	-0.183657	-0.799834
O282	O	1.792657	0.316343	-0.299834
C283	C	1.343658	-0.219496	-0.752037
C284	C	1.843658	0.280504	-0.252037
H285	H	1.348535	-0.269070	-0.776887
H286	H	1.848535	0.230930	-0.276887
H287	H	1.404496	-0.196721	-0.751095
H288	H	1.904496	0.303279	-0.251095
H289	H	1.319185	-0.221677	-0.689480
H290	H	1.819185	0.278323	-0.189480
H291	H	0.717483	-0.416725	-0.522795
H292	H	1.217483	0.083275	-0.022795
H293	H	1.234025	-0.230179	-0.682519
H294	H	1.734025	0.269821	-0.182519
O295	O	0.561199	-0.422974	-0.530813
O296	O	1.061199	0.077026	-0.030813
C297	C	0.513472	-0.387181	-0.581933
C298	C	1.013472	0.112819	-0.081933
H299	H	0.538385	-0.337609	-0.586928
H300	H	1.038385	0.162391	-0.086928
H301	H	0.512535	-0.410007	-0.642712
H302	H	1.012535	0.089993	-0.142712
H303	H	0.450905	-0.384985	-0.557499
H304	H	0.950905	0.115015	-0.057499
H305	H	1.233796	-0.542790	-0.472546
H306	H	1.733796	-0.042790	0.027454
