data_functionalizedCrystal
_audit_creation_method	'MofGen! by Chris Wilmer'
_symmetry_space_group_name_H-M	'P1'
_symmetry_Int_Tables_number	1
_symmetry_cell_setting	triclinic
loop_
_symmetry_equiv_pos_as_xyz
  x,y,z
_cell_length_a	17.077404
_cell_length_b	16.625546
_cell_length_c	17.077396
_cell_angle_alpha	89.968950
_cell_angle_beta	89.982756
_cell_angle_gamma	90.022693
loop_
_atom_site_label
_atom_site_type_symbol
_atom_site_fract_x
_atom_site_fract_y
_atom_site_fract_z
Zn1	Zn	1.200039	-0.320990	-0.443833
Zn2	Zn	1.533373	0.012343	-0.110500
Zn3	Zn	1.866706	0.345677	0.222833
Zn4	Zn	1.199953	-0.455835	-0.312563
Zn5	Zn	1.533286	-0.122501	0.020770
Zn6	Zn	1.866619	0.210832	0.354103
Zn7	Zn	1.068776	-0.321020	-0.312581
Zn8	Zn	1.402110	0.012313	0.020752
Zn9	Zn	1.735443	0.345646	0.354085
Zn10	Zn	1.068740	-0.455785	-0.443787
Zn11	Zn	1.402074	-0.122452	-0.110454
Zn12	Zn	1.735407	0.210882	0.222880
O13	O	1.134377	-0.388408	-0.378191
O14	O	1.467710	-0.055074	-0.044858
O15	O	1.801044	0.278259	0.288476
O16	O	1.309875	-0.338886	-0.426432
O17	O	1.643208	-0.005552	-0.093099
O18	O	1.976541	0.327781	0.240235
O19	O	1.182531	-0.437985	-0.202719
O20	O	1.515864	-0.104652	0.130615
O21	O	1.849197	0.228682	0.463948
O22	O	1.086240	-0.208184	-0.330019
O23	O	1.419574	0.125149	0.003314
O24	O	1.752907	0.458483	0.336648
O25	O	1.309811	-0.437956	-0.329988
O26	O	1.643144	-0.104622	0.003345
O27	O	1.976478	0.228711	0.336678
O28	O	1.182679	-0.208162	-0.426449
O29	O	1.516012	0.125172	-0.093116
O30	O	1.849345	0.458505	0.240217
O31	O	1.086156	-0.338937	-0.202732
O32	O	1.419489	-0.005604	0.130601
O33	O	1.752823	0.327729	0.463935
O34	O	0.958925	-0.338889	-0.329974
O35	O	1.292258	-0.005556	0.003359
O36	O	1.625591	0.327778	0.336693
O37	O	1.086178	-0.437871	-0.553640
O38	O	1.419512	-0.104537	-0.220307
O39	O	1.752845	0.228796	0.113027
O40	O	0.958898	-0.437900	-0.426370
O41	O	1.292231	-0.104567	-0.093037
O42	O	1.625565	0.228767	0.240296
O43	O	1.182643	-0.338837	-0.553674
O44	O	1.515977	-0.005504	-0.220341
O45	O	1.849310	0.327829	0.112993
O46	O	1.182496	-0.568661	-0.329943
O47	O	1.515829	-0.235327	0.003390
O48	O	1.849162	0.098006	0.336723
O49	O	1.086094	-0.568624	-0.426353
O50	O	1.419428	-0.235291	-0.093020
O51	O	1.752761	0.098043	0.240314
C52	C	0.930429	-0.388393	-0.378169
C53	C	1.263763	-0.055060	-0.044836
C54	C	1.597096	0.278274	0.288497
C55	C	0.843180	-0.388406	-0.378179
C56	C	1.176513	-0.055073	-0.044845
C57	C	1.509846	0.278261	0.288488
C58	C	0.802196	-0.440039	-0.428292
C59	C	1.135529	-0.106706	-0.094959
C60	C	1.468863	0.226628	0.238375
C61	C	0.720216	-0.440041	-0.428304
C62	C	1.053549	-0.106707	-0.094971
C63	C	1.386882	0.226626	0.238362
C64	C	0.679220	-0.388413	-0.378199
C65	C	1.012553	-0.055080	-0.044866
C66	C	1.345887	0.278254	0.288467
C67	C	0.720209	-0.336775	-0.328084
C68	C	1.053543	-0.003441	0.005249
C69	C	1.386876	0.329892	0.338582
C70	C	0.802188	-0.336769	-0.328076
C71	C	1.135522	-0.003436	0.005257
C72	C	1.468855	0.329897	0.338590
C73	C	0.549339	-0.336790	-0.328103
C74	C	0.882673	-0.003457	0.005230
C75	C	1.216006	0.329876	0.338564
C76	C	0.467355	-0.336797	-0.328110
C77	C	0.800688	-0.003463	0.005224
C78	C	1.134021	0.329870	0.338557
C79	C	0.467367	-0.440062	-0.428331
C80	C	0.800700	-0.106728	-0.094998
C81	C	1.134033	0.226605	0.238335
C82	C	0.549346	-0.440057	-0.428323
C83	C	0.882679	-0.106723	-0.094990
C84	C	1.216012	0.226610	0.238343
C85	C	0.590329	-0.388419	-0.378207
C86	C	0.923662	-0.055086	-0.044873
C87	C	1.256996	0.278248	0.288460
C88	C	1.134303	-0.597898	-0.378158
C89	C	1.467636	-0.264565	-0.044825
C90	C	1.800970	0.068768	0.288508
C91	C	1.134343	-0.687520	-0.378170
C92	C	1.467676	-0.354186	-0.044837
C93	C	1.801010	-0.020853	0.288496
C94	C	1.134480	-1.015695	-0.378252
C95	C	1.467813	-0.682362	-0.044919
C96	C	1.801147	-0.349028	0.288414
C97	C	1.134439	-0.924387	-0.378232
C98	C	1.467773	-0.591053	-0.044898
C99	C	1.801106	-0.257720	0.288435
C100	C	1.134411	-0.851610	-0.378211
C101	C	1.467744	-0.518277	-0.044878
C102	C	1.801077	-0.184944	0.288456
C103	C	1.134371	-0.760296	-0.378191
C104	C	1.467705	-0.426963	-0.044858
C105	C	1.801038	-0.093629	0.288475
C106	C	1.339121	-0.388423	-0.378213
C107	C	1.672455	-0.055090	-0.044880
C108	C	2.005788	0.278244	0.288453
C109	C	1.426371	-0.388429	-0.378223
C110	C	1.759705	-0.055096	-0.044889
C111	C	2.093038	0.278237	0.288444
C112	C	1.134417	-0.388345	-0.582936
C113	C	1.467750	-0.055012	-0.249602
C114	C	1.801083	0.278322	0.083731
C115	C	1.134433	-0.388319	-0.670185
C116	C	1.467767	-0.054985	-0.336852
C117	C	1.801100	0.278348	-0.003519
C118	C	1.134473	-0.178099	-0.378241
C119	C	1.467806	0.155235	-0.044908
C120	C	1.801140	0.488568	0.288425
C121	C	1.134514	-0.088478	-0.378263
C122	C	1.467847	0.244856	-0.044929
C123	C	1.801181	0.578189	0.288404
C124	C	1.084266	-0.336738	-0.711182
C125	C	1.417600	-0.003405	-0.377848
C126	C	1.750933	0.329928	-0.044515
C127	C	1.084279	-0.336720	-0.793162
C128	C	1.417613	-0.003387	-0.459829
C129	C	1.750946	0.329947	-0.126496
C130	C	1.134464	-0.388278	-0.834145
C131	C	1.467797	-0.054945	-0.500812
C132	C	1.801130	0.278388	-0.167478
C133	C	1.184633	-0.439864	-0.793143
C134	C	1.517966	-0.106531	-0.459809
C135	C	1.851299	0.226802	-0.126476
C136	C	1.184615	-0.439886	-0.711164
C137	C	1.517949	-0.106553	-0.377830
C138	C	1.851282	0.226781	-0.044497
C139	C	1.184667	-0.439814	-0.964013
C140	C	1.518000	-0.106481	-0.630680
C141	C	1.851333	0.226853	-0.297346
C142	C	1.184685	-0.439791	-1.045998
C143	C	1.518019	-0.106458	-0.712664
C144	C	1.851352	0.226875	-0.379331
C145	C	1.084331	-0.336648	-1.046011
C146	C	1.417664	-0.003314	-0.712678
C147	C	1.750997	0.330019	-0.379345
C148	C	1.084313	-0.336670	-0.964032
C149	C	1.417647	-0.003336	-0.630699
C150	C	1.750980	0.329997	-0.297366
C151	C	1.134484	-0.388255	-0.923036
C152	C	1.467817	-0.054921	-0.589703
C153	C	1.801150	0.278412	-0.256369
C154	C	1.134383	-0.388412	-0.174243
C155	C	1.467716	-0.055078	0.159090
C156	C	1.801050	0.278255	0.492423
C157	C	1.134518	-0.388211	-0.086994
C158	C	1.467852	-0.054878	0.246339
C159	C	1.801185	0.278456	0.579673
H160	H	0.686824	-0.294735	-0.287291
H161	H	1.020158	0.038598	0.046042
H162	H	1.353491	0.371932	0.379375
H163	H	0.433994	-0.482105	-0.469140
H164	H	0.767327	-0.148771	-0.135807
H165	H	1.100661	0.184562	0.197526
H166	H	1.225528	-0.481813	-0.930636
H167	H	1.558861	-0.148480	-0.597303
H168	H	1.892194	0.184854	-0.263969
H169	H	1.043481	-0.294644	-1.079395
H170	H	1.376814	0.038689	-0.746061
H171	H	1.710148	0.372022	-0.412728
H172	H	1.225550	-0.481775	-1.079363
H173	H	1.558883	-0.148441	-0.746030
H174	H	1.892216	0.184892	-0.412697
H175	H	0.686850	-0.482086	-0.469111
H176	H	1.020184	-0.148753	-0.135777
H177	H	1.353517	0.184581	0.197556
N178	N	1.235916	-0.492520	-0.834991
N179	N	1.569250	-0.159186	-0.501657
N180	N	1.902583	0.174147	-0.168324
N181	N	1.280713	-0.538562	-0.798374
N182	N	1.614046	-0.205228	-0.465041
N183	N	1.947379	0.128105	-0.131707
H184	H	1.316940	-0.575746	-0.827927
H185	H	1.650273	-0.242412	-0.494594
H186	H	1.983606	0.090921	-0.161260
N187	N	0.591233	-0.492798	-0.479489
N188	N	0.924566	-0.159465	-0.146156
N189	N	1.257899	0.173868	0.187178
N190	N	0.636949	-0.544136	-0.451767
N191	N	0.970282	-0.210803	-0.118434
N192	N	1.303615	0.122531	0.214899
H193	H	0.666532	-0.581387	-0.487903
H194	H	0.999865	-0.248053	-0.154569
H195	H	1.333199	0.085280	0.178764
H196	H	1.043425	-0.294721	-0.826538
H197	H	1.376759	0.038612	-0.493205
H198	H	1.710092	0.371945	-0.159871
H199	H	1.225472	-0.481882	-0.677785
H200	H	1.558806	-0.148549	-0.344452
H201	H	1.892139	0.184785	-0.011119
H202	H	0.433978	-0.294747	-0.287319
H203	H	0.767312	0.038586	0.046014
H204	H	1.100645	0.371919	0.379347
H205	H	0.835556	-0.294720	-0.287273
H206	H	1.168889	0.038613	0.046060
H207	H	1.502223	0.371946	0.379394
N208	N	0.591192	-0.284030	-0.276915
N209	N	0.924525	0.049303	0.056418
N210	N	1.257859	0.382637	0.389752
N211	N	0.554582	-0.237935	-0.232184
N212	N	0.887915	0.095398	0.101150
N213	N	1.221249	0.428732	0.434483
H214	H	0.584140	-0.200673	-0.196032
H215	H	0.917473	0.132660	0.137301
H216	H	1.250807	0.465993	0.470634
N217	N	1.033008	-0.284057	-0.669335
N218	N	1.366341	0.049277	-0.336002
N219	N	1.699675	0.382610	-0.002668
N220	N	0.988222	-0.238005	-0.705953
N221	N	1.321555	0.095328	-0.372619
N222	N	1.654889	0.428662	-0.039286
H223	H	0.952019	-0.200796	-0.676401
H224	H	1.285352	0.132538	-0.343068
H225	H	1.618685	0.465871	-0.009735
H226	H	1.043452	-0.294682	-0.930667
H227	H	1.376786	0.038651	-0.597333
H228	H	1.710119	0.371984	-0.264000
H229	H	0.835569	-0.482083	-0.469091
H230	H	1.168902	-0.148750	-0.135757
H231	H	1.502235	0.184584	0.197576
