data_functionalizedCrystal
_audit_creation_method	'MofGen! by Chris Wilmer'
_symmetry_space_group_name_H-M	'P1'
_symmetry_Int_Tables_number	1
_symmetry_cell_setting	triclinic
loop_
_symmetry_equiv_pos_as_xyz
  x,y,z
_cell_length_a	18.050591
_cell_length_b	18.050583
_cell_length_c	19.077068
_cell_angle_alpha	92.259717
_cell_angle_beta	92.323298
_cell_angle_gamma	89.977979
loop_
_atom_site_label
_atom_site_type_symbol
_atom_site_fract_x
_atom_site_fract_y
_atom_site_fract_z
Zn1	Zn	1.123424	-0.431891	-0.280224
Zn2	Zn	1.118344	-0.312684	-0.397941
Zn3	Zn	0.999240	-0.307704	-0.280254
Zn4	Zn	0.994205	-0.436816	-0.397876
O5	O	1.058803	-0.372274	-0.339074
O6	O	1.226674	-0.416101	-0.295853
O7	O	1.102525	-0.208100	-0.382370
O8	O	1.019947	-0.320032	-0.181760
O9	O	1.222942	-0.328520	-0.382340
O10	O	1.111184	-0.411273	-0.181737
O11	O	1.015020	-0.204441	-0.295906
O12	O	0.894648	-0.324808	-0.295843
O13	O	1.011366	-0.540086	-0.382229
O14	O	0.890949	-0.419666	-0.382259
O15	O	1.106303	-0.536468	-0.295790
O16	O	1.097643	-0.333295	-0.496423
O17	O	1.006439	-0.424495	-0.496375
C18	C	0.865852	-0.372232	-0.339048
C19	C	0.783306	-0.372232	-0.339053
C20	C	1.058839	-0.565976	-0.338999
C21	C	1.058855	-0.648521	-0.338967
C22	C	1.050964	-0.379986	-0.521936
C23	C	1.047678	-0.383310	-0.600166
C24	C	0.585848	-0.320760	-0.292006
C25	C	0.533707	-0.305201	-0.356204
C26	C	0.632175	-0.372266	-0.339075
C27	C	0.537233	-0.387824	-0.274899
C28	C	0.486189	-0.372298	-0.339090
C29	C	0.581120	-0.356673	-0.403306
C30	C	0.584652	-0.439327	-0.321958
C31	C	0.532532	-0.423795	-0.386201
C32	C	0.716274	-0.372246	-0.339065
C33	C	0.402092	-0.372319	-0.339106
C34	C	1.252508	-0.372317	-0.339101
C35	C	1.335053	-0.372335	-0.339112
C36	C	1.110532	-0.846003	-0.291939
C37	C	1.043529	-0.894661	-0.274708
C38	C	1.058885	-0.799651	-0.338955
C39	C	1.125918	-0.898072	-0.356140
C40	C	1.058920	-0.945635	-0.338942
C41	C	0.991847	-0.847221	-0.321691
C42	C	1.074281	-0.850628	-0.403153
C43	C	1.007229	-0.899265	-0.385947
C44	C	1.058866	-0.715553	-0.338960
C45	C	1.058932	-1.029732	-0.338936
C46	C	1.058812	-0.179323	-0.339098
C47	C	1.058949	-0.096770	-0.338932
C48	C	1.093656	-0.337429	-0.636920
C49	C	1.090570	-0.340560	-0.710424
C50	C	1.041502	-0.389569	-0.747174
C51	C	0.995522	-0.435456	-0.710415
C52	C	0.998612	-0.432328	-0.636911
C53	C	1.027167	-0.404014	-0.967005
C54	C	1.024078	-0.407137	-1.040514
C55	C	1.119128	-0.312241	-1.040518
C56	C	1.122211	-0.309115	-0.967014
C57	C	1.076234	-0.355004	-0.930261
N58	N	1.038344	-0.392769	-0.822307
N59	N	1.079395	-0.351808	-0.855129
C60	C	1.066694	-0.364548	-0.155497
C61	C	1.070056	-0.361255	-0.077268
H62	H	0.511354	-0.248503	-0.370692
H63	H	0.989729	-0.441378	-0.937087
O64	O	1.091543	-0.824848	-0.475049
H65	H	1.147229	-0.845190	-0.489201
O66	O	0.942587	-0.488310	-0.750046
H67	H	0.948153	-0.482769	-0.807333
O68	O	0.614332	-0.514390	-0.302743
H69	H	0.592099	-0.557256	-0.341290
H70	H	0.600397	-0.343464	-0.457601
O71	O	0.501768	-0.481507	-0.438990
H72	H	0.519373	-0.468426	-0.492193
O73	O	0.511547	-0.405242	-0.203012
H74	H	0.532821	-0.460490	-0.188459
O75	O	1.026285	-0.920401	-0.202789
H76	H	1.025927	-0.981918	-0.203576
H77	H	1.154140	-0.822676	-0.252154
H78	H	1.182591	-0.920387	-0.370680
H79	H	1.133610	-0.297517	-0.607003
O80	O	1.140156	-0.291069	-0.750069
H81	H	1.174787	-0.256457	-0.712166
H82	H	0.935160	-0.824997	-0.307087
H83	H	0.963520	-0.922451	-0.425701
H84	H	1.162166	-0.269207	-0.937094
O85	O	1.168738	-0.262769	-1.080157
H86	H	1.158358	-0.273185	-1.137442
O87	O	0.971158	-0.460005	-1.080156
H88	H	0.939711	-0.491396	-1.042251
O89	O	0.949014	-0.481805	-0.597264
H90	H	0.914366	-0.516403	-0.635165
H91	H	0.609190	-0.277159	-0.252244
