data_functionalizedCrystal
_audit_creation_method	'MofGen! by Chris Wilmer'
_symmetry_space_group_name_H-M	'P1'
_symmetry_Int_Tables_number	1
_symmetry_cell_setting	triclinic
loop_
_symmetry_equiv_pos_as_xyz
  x,y,z
_cell_length_a	23.532407
_cell_length_b	14.044209
_cell_length_c	13.101039
_cell_angle_alpha	86.334262
_cell_angle_beta	86.668910
_cell_angle_gamma	91.981684
loop_
_atom_site_label
_atom_site_type_symbol
_atom_site_fract_x
_atom_site_fract_y
_atom_site_fract_z
O1	O	0.764354	-0.109759	-0.085092
O2	O	1.097688	0.223575	0.248242
O3	O	1.431021	0.556908	0.581575
O4	O	0.599394	-0.126398	-0.085122
O5	O	0.932727	0.206936	0.248211
O6	O	1.266060	0.540269	0.581544
O7	O	0.679398	0.019883	-0.085093
O8	O	1.012732	0.353216	0.248240
O9	O	1.346065	0.686549	0.581574
O10	O	0.684350	-0.256039	-0.085121
O11	O	1.017683	0.077295	0.248212
O12	O	1.351017	0.410628	0.581546
O13	O	0.673659	0.009370	0.085335
O14	O	1.006992	0.342703	0.418668
O15	O	1.340325	0.676037	0.752002
O16	O	0.593654	-0.136910	0.085305
O17	O	0.926988	0.196423	0.418639
O18	O	1.260321	0.529756	0.751972
O19	O	0.758615	-0.120271	0.085336
O20	O	1.091948	0.213062	0.418669
O21	O	1.425282	0.546395	0.752003
Zn22	Zn	0.675223	-0.130260	0.112380
Zn23	Zn	1.008557	0.203073	0.445713
Zn24	Zn	1.341890	0.536407	0.779046
Zn25	Zn	0.682785	-0.116409	-0.112166
Zn26	Zn	1.016119	0.216924	0.221167
Zn27	Zn	1.349452	0.550258	0.554501
O28	O	0.678611	-0.266551	0.085307
O29	O	1.011944	0.066782	0.418640
O30	O	1.345277	0.400115	0.751973
C31	C	0.575285	-0.131230	0.000088
C32	C	0.908619	0.202103	0.333421
C33	C	1.241952	0.535437	0.666754
C34	C	0.512000	-0.129955	0.000076
C35	C	0.845333	0.203378	0.333410
C36	C	1.178666	0.536712	0.666743
C37	C	0.674361	0.049920	0.000122
C38	C	1.007694	0.383254	0.333455
C39	C	1.341028	0.716587	0.666789
C40	C	0.667895	0.155085	0.000126
C41	C	1.001229	0.488418	0.333459
C42	C	1.334562	0.821752	0.666792
C43	C	0.656076	0.347636	0.000115
C44	C	0.989409	0.680969	0.333448
C45	C	1.322742	1.014303	0.666782
C46	C	0.701935	0.405701	0.000122
C47	C	1.035268	0.739034	0.333455
C48	C	1.368601	1.072367	0.666789
C49	C	0.695358	0.512843	0.000116
C50	C	1.028691	0.846176	0.333449
C51	C	1.362025	1.179509	0.666783
C52	C	0.662651	0.240484	0.000121
C53	C	0.995985	0.573817	0.333454
C54	C	1.329318	0.907151	0.666788
C55	C	0.117154	-0.208533	0.000115
C56	C	0.450487	0.124800	0.333448
C57	C	0.783820	0.458134	0.666781
C58	C	0.057689	-0.207350	0.000121
C59	C	0.391022	0.125984	0.333454
C60	C	0.724356	0.459317	0.666788
O61	O	0.024891	-0.280192	0.000151
O62	O	0.358225	0.053141	0.333484
O63	O	0.691558	0.386475	0.666818
N64	N	0.030350	-0.120386	0.000128
N65	N	0.363683	0.212948	0.333462
N66	N	0.697016	0.546281	0.666795
C67	C	0.062477	-0.034600	0.000140
C68	C	0.395811	0.298734	0.333473
C69	C	0.729144	0.632067	0.666806
O70	O	0.033763	0.039479	0.000147
O71	O	0.367096	0.372812	0.333481
O72	O	0.700429	0.706145	0.666814
C73	C	0.121941	-0.035784	0.000141
C74	C	0.455274	0.297549	0.333474
C75	C	0.788607	0.630882	0.666807
C76	C	0.149277	-0.122753	0.000123
C77	C	0.482611	0.210580	0.333456
C78	C	0.815944	0.543913	0.666790
C79	C	0.144491	-0.295495	0.000098
C80	C	0.477824	0.037838	0.333432
C81	C	0.811157	0.371172	0.666765
C82	C	0.203951	-0.296678	0.000090
C83	C	0.537284	0.036656	0.333423
C84	C	0.870618	0.369989	0.666757
C85	C	0.236075	-0.210898	0.000098
C86	C	0.569408	0.122435	0.333431
C87	C	0.902741	0.455768	0.666765
C88	C	0.208738	-0.123936	0.000115
C89	C	0.542071	0.209397	0.333448
C90	C	0.875405	0.542731	0.666781
C91	C	0.154067	0.050000	0.000159
C92	C	0.487401	0.383333	0.333492
C93	C	0.820734	0.716667	0.666826
C94	C	0.213534	0.048808	0.000161
C95	C	0.546868	0.382141	0.333494
C96	C	0.880201	0.715475	0.666827
C97	C	0.240871	-0.038161	0.000143
C98	C	0.574204	0.295172	0.333477
C99	C	0.907538	0.628505	0.666810
C100	C	0.300322	-0.039339	0.000114
C101	C	0.633655	0.293994	0.333448
C102	C	0.966989	0.627327	0.666781
N103	N	0.327662	-0.126303	0.000107
N104	N	0.660995	0.207030	0.333441
N105	N	0.994328	0.540363	0.666774
C106	C	0.295538	-0.212083	0.000099
C107	C	0.628871	0.121250	0.333432
C108	C	0.962205	0.454584	0.666766
C109	C	-0.062400	-0.032119	0.000139
C110	C	0.270934	0.301215	0.333473
C111	C	0.604267	0.634548	0.666806
C112	C	-0.121861	-0.030933	0.000131
C113	C	0.211472	0.302401	0.333464
C114	C	0.544805	0.635734	0.666798
C115	C	-0.126646	-0.203683	0.000115
C116	C	0.206688	0.129650	0.333448
C117	C	0.540021	0.462983	0.666781
C118	C	-0.067183	-0.204868	0.000116
C119	C	0.266151	0.128465	0.333449
C120	C	0.599484	0.461799	0.666782
C121	C	-0.035060	-0.119083	0.000132
C122	C	0.298273	0.214250	0.333466
C123	C	0.631607	0.547584	0.666799
C124	C	0.420410	-0.214560	0.000081
C125	C	0.753743	0.118773	0.333414
C126	C	1.087076	0.452107	0.666747
C127	C	0.479876	-0.215735	0.000068
C128	C	0.813209	0.117599	0.333402
C129	C	1.146543	0.450932	0.666735
C130	C	0.484655	-0.042985	0.000090
C131	C	0.817988	0.290348	0.333423
C132	C	1.151321	0.623682	0.666757
C133	C	0.425194	-0.041809	0.000097
C134	C	0.758527	0.291524	0.333431
C135	C	1.091861	0.624857	0.666764
C136	C	0.393073	-0.127605	0.000096
C137	C	0.726406	0.205729	0.333429
C138	C	1.059739	0.539062	0.666763
O139	O	0.333157	0.033464	0.000089
O140	O	0.666490	0.366798	0.333422
O141	O	0.999823	0.700131	0.666756
O142	O	0.324260	-0.286150	0.000105
O143	O	0.657593	0.047184	0.333438
O144	O	0.990927	0.380517	0.666772
C145	C	0.782724	-0.115439	0.000124
C146	C	1.116057	0.217895	0.333457
C147	C	1.449390	0.551228	0.666790
C148	C	0.846009	-0.116713	0.000128
C149	C	1.179343	0.216620	0.333462
C150	C	1.512676	0.549954	0.666795
N151	N	0.670067	-0.139712	0.265626
N152	N	1.003400	0.193621	0.598960
N153	N	1.336733	0.526955	0.932293
C154	C	0.683649	0.703411	0.000097
C155	C	1.016982	1.036744	0.333431
C156	C	1.350316	1.370078	0.666764
C157	C	0.690117	0.598246	0.000111
C158	C	1.023451	0.931579	0.333445
C159	C	1.356784	1.264913	0.666778
N160	N	0.687946	-0.106949	-0.265413
N161	N	1.021279	0.226384	0.067921
N162	N	1.354613	0.559718	0.401254
C163	C	0.663051	-0.152581	0.474666
C164	C	0.996385	0.180752	0.808000
C165	C	1.329718	0.514086	1.141333
C166	C	0.694960	-0.094083	0.525554
C167	C	1.028293	0.239250	0.858887
C168	C	1.361626	0.572583	1.192221
C169	C	0.691056	-0.101244	0.641871
C170	C	1.024390	0.232090	0.975204
C171	C	1.357723	0.565423	1.308538
C172	C	0.666954	-0.145422	0.358339
C173	C	1.000288	0.187912	0.691672
C174	C	1.333621	0.521245	1.025006
H175	H	0.746138	0.374949	0.000060
H176	H	1.079471	0.708283	0.333394
H177	H	1.412804	1.041616	0.666727
Br178	Br	0.582409	0.398895	0.000094
Br179	Br	0.915742	0.732228	0.333427
Br180	Br	1.249076	1.065561	0.666761
Br181	Br	0.516972	-0.333771	0.000038
Br182	Br	0.850306	-0.000438	0.333371
Br183	Br	1.183639	0.332895	0.666704
H184	H	0.394263	-0.284423	0.000083
H185	H	0.727596	0.048910	0.333416
H186	H	1.060930	0.382244	0.666750
H187	H	0.226203	-0.367497	0.000075
H188	H	0.559537	-0.034163	0.333409
H189	H	0.892870	0.299170	0.666742
H190	H	0.632805	-0.208037	0.518452
H191	H	0.966138	0.125297	0.851786
H192	H	1.299471	0.458630	1.185119
H193	H	0.725209	-0.038625	0.481763
H194	H	1.058542	0.294708	0.815096
H195	H	1.391876	0.628042	1.148429
H196	H	0.118341	-0.365351	0.000095
H197	H	0.451675	-0.032018	0.333429
H198	H	0.785008	0.301315	0.666762
H199	H	-0.044929	-0.275686	0.000107
H200	H	0.288404	0.057647	0.333440
H201	H	0.621737	0.390981	0.666774
Br202	Br	-0.170254	-0.320100	0.000106
Br203	Br	0.163080	0.013234	0.333439
Br204	Br	0.496413	0.346567	0.666773
H205	H	-0.144113	0.039887	0.000129
H206	H	0.189220	0.373220	0.333463
H207	H	0.522553	0.706554	0.666796
Br208	Br	0.116984	0.168038	0.000160
Br209	Br	0.450317	0.501372	0.333494
Br210	Br	0.783650	0.834705	0.666827
Br211	Br	-0.018810	0.084316	0.000153
Br212	Br	0.314523	0.417649	0.333486
Br213	Br	0.647857	0.750983	0.666820
H214	H	0.239686	0.118666	0.000175
H215	H	0.573019	0.451999	0.333508
H216	H	0.906352	0.785333	0.666842
Br217	Br	0.528262	0.073424	0.000104
Br218	Br	0.861596	0.406757	0.333437
Br219	Br	1.194929	0.740091	0.666770
H220	H	0.402936	0.029009	0.000097
H221	H	0.736269	0.362342	0.333430
H222	H	1.069603	0.695676	0.666763
