data_functionalizedCrystal
_audit_creation_method	'MofGen! by Chris Wilmer'
_symmetry_space_group_name_H-M	'P1'
_symmetry_Int_Tables_number	1
_symmetry_cell_setting	triclinic
loop_
_symmetry_equiv_pos_as_xyz
  x,y,z
_cell_length_a	19.188930
_cell_length_b	15.944551
_cell_length_c	15.021413
_cell_angle_alpha	90.003065
_cell_angle_beta	89.978833
_cell_angle_gamma	83.321759
loop_
_atom_site_label
_atom_site_type_symbol
_atom_site_fract_x
_atom_site_fract_y
_atom_site_fract_z
O1	O	0.926420	0.104855	-0.074320
O2	O	1.176420	0.354855	0.175680
O3	O	1.426420	0.604855	0.425680
O4	O	1.676420	0.854855	0.675680
O5	O	0.723145	0.118971	-0.074259
O6	O	0.973145	0.368971	0.175741
O7	O	1.223145	0.618971	0.425741
O8	O	1.473145	0.868971	0.675741
O9	O	0.830333	-0.010383	-0.074283
O10	O	1.080333	0.239617	0.175717
O11	O	1.330333	0.489617	0.425717
O12	O	1.580333	0.739617	0.675717
O13	O	0.819231	0.234209	-0.074296
O14	O	1.069231	0.484209	0.175704
O15	O	1.319231	0.734209	0.425704
O16	O	1.569231	0.984209	0.675704
O17	O	0.830316	-0.010364	0.073781
O18	O	1.080316	0.239636	0.323781
O19	O	1.330316	0.489636	0.573781
O20	O	1.580316	0.739636	0.823781
O21	O	0.723128	0.118990	0.073805
O22	O	0.973128	0.368990	0.323805
O23	O	1.223128	0.618990	0.573805
O24	O	1.473128	0.868990	0.823805
O25	O	0.926403	0.104873	0.073744
O26	O	1.176403	0.354873	0.323744
O27	O	1.426403	0.604873	0.573744
O28	O	1.676403	0.854873	0.823744
Zn29	Zn	0.824763	0.111934	0.097283
Zn30	Zn	1.074763	0.361934	0.347283
Zn31	Zn	1.324763	0.611934	0.597283
Zn32	Zn	1.574763	0.861934	0.847283
Zn33	Zn	0.824785	0.111910	-0.097798
Zn34	Zn	1.074785	0.361910	0.152202
Zn35	Zn	1.324785	0.611910	0.402202
Zn36	Zn	1.574785	0.861910	0.652202
O37	O	0.819214	0.234227	0.073768
O38	O	1.069214	0.484227	0.323768
O39	O	1.319214	0.734227	0.573768
O40	O	1.569214	0.984227	0.823768
C41	C	0.829864	-0.041666	-0.000251
C42	C	1.079864	0.208334	0.249749
C43	C	1.329864	0.458334	0.499749
C44	C	1.579864	0.708334	0.749749
C45	C	0.828482	-0.134906	-0.000250
C46	C	1.078482	0.115094	0.249750
C47	C	1.328482	0.365094	0.499750
C48	C	1.578482	0.615094	0.749750
C49	C	0.697124	0.118524	-0.000219
C50	C	0.947124	0.368524	0.249781
C51	C	1.197124	0.618524	0.499781
C52	C	1.447124	0.868524	0.749781
C53	C	0.619616	0.117151	-0.000196
C54	C	0.869616	0.367151	0.249804
C55	C	1.119616	0.617151	0.499804
C56	C	1.369616	0.867151	0.749804
C57	C	0.758739	-0.349502	-0.000242
C58	C	1.008739	-0.099502	0.249758
C59	C	1.258739	0.150498	0.499758
C60	C	1.508739	0.400498	0.749758
C61	C	0.791117	-0.410631	0.072753
C62	C	1.041117	-0.160631	0.322753
C63	C	1.291117	0.089369	0.572753
C64	C	1.541117	0.339369	0.822753
C65	C	0.825983	-0.305623	-0.000256
C66	C	1.075983	-0.055623	0.249744
C67	C	1.325983	0.194377	0.499744
C68	C	1.575983	0.444377	0.749744
C69	C	0.791150	-0.410633	-0.073226
C70	C	1.041150	-0.160633	0.176774
C71	C	1.291150	0.089367	0.426774
C72	C	1.541150	0.339367	0.676774
C73	C	0.823563	-0.470527	-0.000266
C74	C	1.073563	-0.220527	0.249734
C75	C	1.323563	0.029473	0.499734
C76	C	1.573563	0.279473	0.749734
C77	C	0.858379	-0.365524	0.072799
C78	C	1.108379	-0.115524	0.322799
C79	C	1.358379	0.134476	0.572799
C80	C	1.608379	0.384476	0.822799
C81	C	0.858402	-0.365519	-0.073246
C82	C	1.108402	-0.115519	0.176754
C83	C	1.358402	0.134481	0.426754
C84	C	1.608402	0.384481	0.676754
C85	C	0.890829	-0.426631	-0.000234
C86	C	1.140829	-0.176631	0.249766
C87	C	1.390829	0.073369	0.499766
C88	C	1.640829	0.323369	0.749766
C89	C	0.827374	-0.210626	-0.000250
C90	C	1.077374	0.039374	0.249750
C91	C	1.327374	0.289374	0.499750
C92	C	1.577374	0.539374	0.749750
C93	C	0.822176	-0.565522	-0.000266
C94	C	1.072176	-0.315522	0.249734
C95	C	1.322176	-0.065522	0.499734
C96	C	1.572176	0.184478	0.749734
C97	C	0.574889	0.193052	-0.000214
C98	C	0.824889	0.443052	0.249786
C99	C	1.074889	0.693052	0.499786
C100	C	1.324889	0.943052	0.749786
C101	C	0.502061	0.191763	-0.000224
C102	C	0.752061	0.441763	0.249776
C103	C	1.002061	0.691763	0.499776
C104	C	1.252061	0.941763	0.749776
C105	C	0.473965	0.114568	-0.000233
C106	C	0.723965	0.364568	0.249767
C107	C	0.973965	0.614568	0.499767
C108	C	1.223965	0.864568	0.749767
C109	C	0.518703	0.038658	-0.000210
C110	C	0.768703	0.288658	0.249790
C111	C	1.018703	0.538658	0.499790
C112	C	1.268703	0.788658	0.749790
C113	C	0.591528	0.039949	-0.000192
C114	C	0.841528	0.289949	0.249808
C115	C	1.091528	0.539949	0.499808
C116	C	1.341528	0.789949	0.749808
N117	N	0.365838	0.055557	-0.050659
N118	N	0.615838	0.305557	0.199341
N119	N	0.865838	0.555557	0.449341
N120	N	1.115838	0.805557	0.699341
N121	N	0.296657	0.054335	-0.050678
N122	N	0.546657	0.304335	0.199322
N123	N	0.796657	0.554335	0.449322
N124	N	1.046657	0.804335	0.699322
C125	C	0.254547	0.110673	-0.000288
C126	C	0.504547	0.360673	0.249712
C127	C	0.754547	0.610673	0.499712
C128	C	1.004547	0.860673	0.749712
N129	N	0.284230	0.168291	0.050112
N130	N	0.534230	0.418291	0.300112
N131	N	0.784230	0.668291	0.550112
N132	N	1.034230	0.918291	0.800112
N133	N	0.353418	0.169515	0.050128
N134	N	0.603418	0.419515	0.300128
N135	N	0.853418	0.669515	0.550128
N136	N	1.103418	0.919515	0.800128
C137	C	0.394999	0.113160	-0.000253
C138	C	0.644999	0.363160	0.249747
C139	C	0.894999	0.613160	0.499747
C140	C	1.144999	0.863160	0.749747
C141	C	0.130851	0.185181	-0.000315
C142	C	0.380851	0.435181	0.249685
C143	C	0.630851	0.685181	0.499685
C144	C	0.880851	0.935181	0.749685
C145	C	0.058023	0.183888	-0.000319
C146	C	0.308023	0.433888	0.249681
C147	C	0.558023	0.683888	0.499681
C148	C	0.808023	0.933888	0.749681
C149	C	0.074666	0.030781	-0.000315
C150	C	0.324666	0.280781	0.249685
C151	C	0.574666	0.530781	0.499685
C152	C	0.824666	0.780781	0.749685
C153	C	0.147492	0.032076	-0.000302
C154	C	0.397492	0.282076	0.249698
C155	C	0.647492	0.532076	0.499698
C156	C	0.897492	0.782076	0.749698
C157	C	0.175580	0.109278	-0.000306
C158	C	0.425580	0.359278	0.249694
C159	C	0.675580	0.609278	0.499694
C160	C	0.925580	0.859278	0.749694
C161	C	0.952423	0.105321	-0.000298
C162	C	1.202423	0.355321	0.249702
C163	C	1.452423	0.605321	0.499702
C164	C	1.702423	0.855321	0.749702
C165	C	1.029932	0.106693	-0.000327
C166	C	1.279932	0.356693	0.249673
C167	C	1.529932	0.606693	0.499673
C168	C	1.779932	0.856693	0.749673
C169	C	0.819684	0.265510	-0.000266
C170	C	1.069684	0.515510	0.249734
C171	C	1.319684	0.765510	0.499734
C172	C	1.569684	1.015510	0.749734
C173	C	0.821066	0.358751	-0.000273
C174	C	1.071066	0.608751	0.249727
C175	C	1.321066	0.858751	0.499727
C176	C	1.571066	1.108751	0.749727
N177	N	0.824752	0.111951	0.230420
N178	N	1.074752	0.361951	0.480420
N179	N	1.324752	0.611951	0.730420
N180	N	1.574752	0.861951	0.980420
N181	N	0.824801	0.111887	-0.230936
N182	N	1.074801	0.361887	0.019064
N183	N	1.324801	0.611887	0.269064
N184	N	1.574801	0.861887	0.519064
C185	C	0.775181	0.171736	0.470115
C186	C	1.025181	0.421736	0.720115
C187	C	1.275181	0.671736	0.970115
C188	C	1.525181	0.921736	1.220115
C189	C	0.838271	0.187807	0.529429
C190	C	1.088271	0.437807	0.779429
C191	C	1.338271	0.687807	1.029429
C192	C	1.588271	0.937807	1.279429
C193	C	0.824770	0.111929	0.412027
C194	C	1.074770	0.361929	0.662027
C195	C	1.324770	0.611929	0.912027
C196	C	1.574770	0.861929	1.162027
C197	C	0.761697	0.095877	0.529455
C198	C	1.011697	0.345877	0.779455
C199	C	1.261697	0.595877	1.029455
C200	C	1.511697	0.845877	1.279455
C201	C	0.824782	0.111911	0.587451
C202	C	1.074782	0.361911	0.837451
C203	C	1.324782	0.611911	1.087451
C204	C	1.574782	0.861911	1.337451
C205	C	0.887892	0.128038	0.470035
C206	C	1.137892	0.378038	0.720035
C207	C	1.387892	0.628038	0.970035
C208	C	1.637892	0.878038	1.220035
C209	C	0.811277	0.036076	0.470056
C210	C	1.061277	0.286076	0.720056
C211	C	1.311277	0.536076	0.970056
C212	C	1.561277	0.786076	1.220056
C213	C	0.874413	0.052114	0.529343
C214	C	1.124413	0.302114	0.779343
C215	C	1.374413	0.552114	1.029343
C216	C	1.624413	0.802114	1.279343
C217	C	0.824763	0.111942	0.310970
C218	C	1.074763	0.361942	0.560970
C219	C	1.324763	0.611942	0.810970
C220	C	1.574763	0.861942	1.060970
C221	C	0.824797	0.111898	0.688507
C222	C	1.074797	0.361898	0.938507
C223	C	1.324797	0.611898	1.188507
C224	C	1.574797	0.861898	1.438507
H225	H	0.702924	-0.315986	-0.000152
H226	H	0.952924	-0.065986	0.249848
H227	H	1.202924	0.184014	0.499848
H228	H	1.452924	0.434014	0.749848
Cl229	Cl	0.710501	0.249881	0.429956
Cl230	Cl	0.960501	0.499881	0.679956
Cl231	Cl	1.210501	0.749881	0.929956
Cl232	Cl	1.460501	0.999881	1.179956
Cl233	Cl	0.445822	0.287188	-0.000244
Cl234	Cl	0.695822	0.537188	0.249756
Cl235	Cl	0.945822	0.787188	0.499756
Cl236	Cl	1.195822	1.037188	0.749756
H237	H	0.941248	0.141684	0.444045
H238	H	1.191248	0.391684	0.694045
H239	H	1.441248	0.641684	0.944045
H240	H	1.691248	0.891684	1.194045
Cl241	Cl	0.679339	0.074925	0.569753
Cl242	Cl	0.929339	0.324925	0.819753
Cl243	Cl	1.179339	0.574925	1.069753
Cl244	Cl	1.429339	0.824925	1.319753
H245	H	0.183911	-0.029731	-0.000292
H246	H	0.433911	0.220269	0.249708
H247	H	0.683911	0.470269	0.499708
H248	H	0.933911	0.720269	0.749708
H249	H	0.495822	-0.024194	-0.000230
H250	H	0.745822	0.225806	0.249770
H251	H	0.995822	0.475806	0.499770
H252	H	1.245822	0.725806	0.749770
H253	H	0.946693	-0.459999	-0.000209
H254	H	1.196693	-0.209999	0.249791
H255	H	1.446693	0.040001	0.499791
H256	H	1.696693	0.290001	0.749791
H257	H	0.762669	-0.430626	0.134481
H258	H	1.012669	-0.180626	0.384481
H259	H	1.262669	0.069374	0.634481
H260	H	1.512669	0.319374	0.884481
Cl261	Cl	0.855909	0.286832	0.569696
Cl262	Cl	1.105909	0.536832	0.819696
Cl263	Cl	1.355909	0.786832	1.069696
Cl264	Cl	1.605909	1.036832	1.319696
Cl265	Cl	0.647761	-0.055477	-0.000170
Cl266	Cl	0.897761	0.194523	0.249830
Cl267	Cl	1.147761	0.444523	0.499830
Cl268	Cl	1.397761	0.694523	0.749830
Cl269	Cl	0.939234	-0.025987	0.569251
Cl270	Cl	1.189234	0.224013	0.819251
Cl271	Cl	1.439234	0.474013	1.069251
Cl272	Cl	1.689234	0.724013	1.319251
Cl273	Cl	0.001792	0.279316	-0.000337
Cl274	Cl	0.251792	0.529316	0.249663
Cl275	Cl	0.501792	0.779316	0.499663
Cl276	Cl	0.751792	1.029316	0.749663
H277	H	0.153721	0.248043	-0.000305
H278	H	0.403721	0.498043	0.249695
H279	H	0.653721	0.748043	0.499695
H280	H	0.903721	0.998043	0.749695
H281	H	0.886789	-0.345632	0.134578
H282	H	1.136789	-0.095632	0.384578
H283	H	1.386789	0.154368	0.634578
H284	H	1.636789	0.404368	0.884578
Cl285	Cl	0.039352	-0.066264	-0.000316
Cl286	Cl	0.289352	0.183736	0.249684
Cl287	Cl	0.539352	0.433736	0.499684
Cl288	Cl	0.789352	0.683736	0.749684
H289	H	0.799834	-0.028043	0.443955
H290	H	1.049834	0.221957	0.693955
H291	H	1.299834	0.471957	0.943955
H292	H	1.549834	0.721957	1.193955
Cl293	Cl	0.902287	-0.334612	-0.168555
Cl294	Cl	1.152287	-0.084612	0.081445
Cl295	Cl	1.402287	0.165388	0.331445
Cl296	Cl	1.652287	0.415388	0.581445
H297	H	0.762707	-0.430611	-0.134942
H298	H	1.012707	-0.180611	0.115058
H299	H	1.262707	0.069389	0.365058
H300	H	1.512707	0.319389	0.615058
H301	H	0.597753	0.255916	-0.000219
H302	H	0.847753	0.505916	0.249781
H303	H	1.097753	0.755916	0.499781
H304	H	1.347753	1.005916	0.749781
