data_functionalizedCrystal
_audit_creation_method	'MofGen! by Chris Wilmer'
_symmetry_space_group_name_H-M	'P1'
_symmetry_Int_Tables_number	1
_symmetry_cell_setting	triclinic
loop_
_symmetry_equiv_pos_as_xyz
  x,y,z
_cell_length_a	34.490303
_cell_length_b	34.489386
_cell_length_c	34.485816
_cell_angle_alpha	60.004462
_cell_angle_beta	60.008900
_cell_angle_gamma	59.994399
loop_
_atom_site_label
_atom_site_type_symbol
_atom_site_fract_x
_atom_site_fract_y
_atom_site_fract_z
O1	O	0.053846	-0.566517	0.473678
O2	O	0.553846	-0.066517	0.973678
O3	O	0.020329	-0.441078	0.381663
O4	O	0.520329	0.058922	0.881663
O5	O	0.099768	-0.520436	0.381578
O6	O	0.599768	-0.020436	0.881578
O7	O	-0.025592	-0.487159	0.473762
O8	O	0.474408	0.012841	0.973762
O9	O	0.126127	-0.494082	0.407849
O10	O	0.626127	0.005918	0.907849
O11	O	0.046689	-0.414724	0.407933
O12	O	0.546689	0.085276	0.907933
O13	O	0.080206	-0.540163	0.499949
O14	O	0.580206	-0.040163	0.999949
Zn15	Zn	0.067632	-0.473259	0.458112
Zn16	Zn	0.567632	0.026741	0.958112
Zn17	Zn	0.032903	-0.507982	0.423499
Zn18	Zn	0.532903	-0.007982	0.923499
O19	O	0.000767	-0.460805	0.500033
O20	O	0.500767	0.039195	1.000033
N21	N	0.091336	-0.449565	0.481736
N22	N	0.591336	0.050435	0.981736
N23	N	0.009203	-0.531680	0.399875
N24	N	0.509203	-0.031680	0.899875
C25	C	0.142510	-0.268211	0.532817
C26	C	0.642510	0.231789	1.032817
C27	C	0.142641	-0.398441	0.662987
C28	C	0.642641	0.101559	1.162987
C29	C	0.142524	-0.398421	0.532817
C30	C	0.642524	0.101579	1.032817
C31	C	0.272762	-0.398394	0.532723
C32	C	0.772762	0.101606	1.032723
C33	C	0.156853	-0.311177	0.547124
C34	C	0.656853	0.188823	1.047124
C35	C	0.156928	-0.384109	0.620020
C36	C	0.656928	0.115891	1.120020
C37	C	0.229794	-0.384081	0.547073
C38	C	0.729794	0.115919	1.047073
C39	C	0.156863	-0.384097	0.547124
C40	C	0.656863	0.115903	1.047124
C41	C	0.124253	-0.213522	0.514606
C42	C	0.624253	0.286478	1.014606
C43	C	0.124277	-0.416652	0.514606
C44	C	0.624277	0.083348	1.014606
C45	C	0.175110	-0.365866	0.565335
C46	C	0.675110	0.134134	1.065335
C47	C	0.352285	-0.384669	0.490824
C48	C	0.852285	0.115331	0.990824
C49	C	0.401998	-0.401229	0.474223
C50	C	0.901998	0.098771	0.974223
C51	C	0.402027	-0.481671	0.504898
C52	C	0.902027	0.018329	1.004898
C53	C	0.352316	-0.465109	0.521500
C54	C	0.852316	0.034891	1.021500
C55	C	0.136220	-0.188652	0.465734
C56	C	0.636220	0.311348	0.965734
C57	C	0.119621	-0.138936	0.449181
C58	C	0.619621	0.361064	0.949181
C59	C	0.079092	-0.138961	0.530374
C60	C	0.579092	0.361039	1.030374
C61	C	0.095691	-0.188678	0.546927
C62	C	0.595691	0.311322	1.046927
C63	C	0.075398	-0.404656	0.526651
C64	C	0.575398	0.095344	1.026651
C65	C	0.058814	-0.421229	0.510091
C66	C	0.558814	0.078771	1.010091
C67	C	0.139984	-0.461794	0.469452
C68	C	0.639984	0.038206	0.969452
C69	C	0.156570	-0.445221	0.486007
C70	C	0.656570	0.054779	0.986007
C71	C	0.075593	-0.404694	0.742565
C72	C	0.575593	0.095306	1.242565
C73	C	0.059066	-0.421281	0.792280
C74	C	0.559066	0.078719	1.292280
C75	C	0.140274	-0.461856	0.792215
C76	C	0.640274	0.038144	1.292215
C77	C	0.156800	-0.445269	0.742499
C78	C	0.656800	0.054731	1.242499
C79	C	0.124458	-0.416687	0.717675
C80	C	0.624458	0.083313	1.217675
C81	C	0.327446	-0.416608	0.514460
C82	C	0.827446	0.083392	1.014460
C83	C	-0.023585	-0.564792	0.161919
C84	C	0.476415	-0.064792	0.661919
C85	C	-0.023910	-0.769260	0.366530
C86	C	0.476090	-0.269260	0.866530
C87	C	-0.023880	-0.564780	0.366623
C88	C	0.476120	-0.064780	0.866623
C89	C	-0.228325	-0.564561	0.366222
C90	C	0.271675	-0.064561	0.866222
C91	C	-0.129610	-0.597564	0.333467
C92	C	0.370390	-0.097564	0.833467
C93	C	-0.056729	-0.597644	0.333613
C94	C	0.443271	-0.097644	0.833613
C95	C	-0.074925	-0.615849	0.315324
C96	C	0.425075	-0.115849	0.815324
C97	C	-0.088689	-0.695351	0.357144
C98	C	0.411311	-0.195351	0.857144
C99	C	-0.072155	-0.745068	0.373736
C100	C	0.427845	-0.245068	0.873736
C101	C	0.008283	-0.745150	0.343188
C102	C	0.508283	-0.245150	0.843188
C103	C	-0.008252	-0.695435	0.326596
C104	C	0.491748	-0.195435	0.826596
C105	C	-0.154529	-0.609541	0.382326
C106	C	0.345471	-0.109541	0.882326
C107	C	-0.204241	-0.592916	0.398818
C108	C	0.295759	-0.092916	0.898818
C109	C	-0.204114	-0.552341	0.317588
C110	C	0.295886	-0.052341	0.817588
C111	C	-0.154401	-0.568966	0.301096
C112	C	0.345599	-0.068966	0.801096
C113	C	-0.068707	-0.548770	0.321590
C114	C	0.431293	-0.048770	0.821590
C115	C	-0.052166	-0.532225	0.338221
C116	C	0.447834	-0.032225	0.838221
C117	C	-0.011669	-0.613425	0.378886
C118	C	0.488331	-0.113425	0.878886
C119	C	-0.028210	-0.629972	0.362261
C120	C	0.471790	-0.129972	0.862261
C121	C	-0.068581	-0.548777	0.235758
C122	C	0.431419	-0.048777	0.735758
C123	C	-0.051939	-0.532234	0.186043
C124	C	0.448061	-0.032234	0.686043
C125	C	-0.011379	-0.613438	0.186090
C126	C	0.488621	-0.113438	0.686090
C127	C	-0.028020	-0.629981	0.235806
C128	C	0.471980	-0.129981	0.735806
C129	C	-0.056622	-0.597649	0.260639
C130	C	0.443378	-0.097649	0.760639
C131	C	-0.056739	-0.670537	0.333576
C132	C	0.443261	-0.170537	0.833576
C133	C	-0.005614	-0.545951	0.107238
C134	C	0.494386	-0.045951	0.607238
C135	C	-0.006360	-0.823943	0.385033
C136	C	0.493640	-0.323943	0.885033
C137	C	-0.005995	-0.545937	0.384582
C138	C	0.494005	-0.045937	0.884582
C139	C	-0.283006	-0.545971	0.383725
C140	C	0.216994	-0.045971	0.883725
N141	N	0.426163	-0.449489	0.481488
N142	N	0.926163	0.050511	0.981488
O143	O	0.588601	-0.457377	0.364497
O144	O	1.088601	0.042623	0.864497
O145	O	0.588789	-0.549696	0.489801
O146	O	1.088789	-0.049696	0.989801
O147	O	0.588709	-0.549485	0.410335
O148	O	1.088709	-0.049485	0.910335
O149	O	0.588681	-0.457588	0.443963
O150	O	1.088681	0.042412	0.943963
O151	O	0.509731	-0.523223	0.436741
O152	O	1.009731	-0.023223	0.936741
O153	O	0.509811	-0.523434	0.516207
O154	O	1.009811	-0.023434	1.016207
O155	O	0.509624	-0.431115	0.390903
O156	O	1.009624	0.068885	0.890903
Zn157	Zn	0.497178	-0.473105	0.457747
Zn158	Zn	0.997178	0.026895	0.957747
Zn159	Zn	0.601234	-0.507706	0.422956
Zn160	Zn	1.101234	-0.007706	0.922956
O161	O	0.509704	-0.431326	0.470368
O162	O	1.009704	0.068674	0.970368
N163	N	0.672250	-0.531322	0.399211
N164	N	1.172250	-0.031322	0.899211
N165	N	0.091303	-0.114798	0.481730
N166	N	0.591303	0.385202	0.981730
O167	O	-0.025603	0.047729	0.473733
O168	O	0.474397	0.547729	0.973733
O169	O	0.099703	0.047764	0.381394
O170	O	0.599703	0.547764	0.881394
O171	O	0.020199	0.047731	0.381655
O172	O	0.520199	0.547731	0.881655
O173	O	0.053901	0.047761	0.473472
O174	O	0.553901	0.547761	0.973472
O175	O	0.046564	-0.031252	0.407974
O176	O	0.546564	0.468748	0.907974
O177	O	0.126068	-0.031219	0.407713
O178	O	0.626068	0.468781	0.907713
O179	O	0.000762	-0.031254	0.500052
O180	O	0.500762	0.468746	1.000052
Zn181	Zn	0.067601	-0.043777	0.458061
Zn182	Zn	0.567601	0.456223	0.958061
Zn183	Zn	0.032864	0.060287	0.423385
Zn184	Zn	0.532864	0.560287	0.923385
O185	O	0.080266	-0.031222	0.499791
O186	O	0.580266	0.468778	0.999791
N187	N	0.009156	0.131307	0.399717
N188	N	0.509156	0.631307	0.899717
N189	N	0.091635	-0.449614	0.816396
N190	N	0.591635	0.050386	1.316396
O191	O	0.083664	-0.566502	0.978913
O192	O	0.583664	-0.066502	1.478913
O193	O	-0.008637	-0.441152	0.978954
O194	O	0.491363	0.058848	1.478954
O195	O	-0.008421	-0.520640	0.978930
O196	O	0.491579	-0.020640	1.478930
O197	O	0.083448	-0.487013	0.978936
O198	O	0.583448	0.012987	1.478936
O199	O	0.017877	-0.494296	0.899950
O200	O	0.517877	0.005704	1.399950
O201	O	0.017661	-0.414807	0.899974
O202	O	0.517661	0.085193	1.399974
O203	O	0.109961	-0.540157	0.899933
O204	O	0.609961	-0.040157	1.399933
Zn205	Zn	0.067986	-0.473299	0.887414
Zn206	Zn	0.567986	0.026701	1.387414
Zn207	Zn	0.033338	-0.508010	0.991473
Zn208	Zn	0.533338	-0.008010	1.491473
O209	O	0.109746	-0.460669	0.899956
O210	O	0.609746	0.039331	1.399956
N211	N	0.009689	-0.531700	1.062491
N212	N	0.509689	-0.031700	1.562491
C213	C	0.030367	-0.412095	0.382120
C214	C	0.530367	0.087905	0.882120
C215	C	0.128741	-0.510370	0.382016
C216	C	0.628741	-0.010370	0.882016
C217	C	0.070168	-0.569147	0.499490
C218	C	0.570168	-0.069147	0.999490
C219	C	-0.028207	-0.470871	0.499595
C220	C	0.471793	0.029129	0.999595
C221	C	0.549323	-0.549278	0.518791
C222	C	1.049323	-0.049278	1.018791
C223	C	0.549225	-0.549017	0.420381
C224	C	1.049225	-0.049017	0.920381
C225	C	0.549087	-0.431532	0.361914
C226	C	1.049087	0.068468	0.861914
C227	C	0.549188	-0.431794	0.460322
C228	C	1.049188	0.068206	0.960322
C229	C	0.128638	0.008374	0.381806
C230	C	0.628638	0.508374	0.881806
C231	C	0.030215	0.008236	0.382161
C232	C	0.530215	0.508236	0.882161
C233	C	-0.028206	0.008233	0.499608
C234	C	0.471794	0.508233	0.999608
C235	C	0.070250	0.008272	0.499285
C236	C	0.570250	0.508272	0.999285
C237	C	-0.008199	-0.412187	0.939469
C238	C	0.491801	0.087813	1.439469
C239	C	-0.007927	-0.510619	0.939425
C240	C	0.492073	-0.010619	1.439425
C241	C	0.109523	-0.569121	0.939417
C242	C	0.609523	-0.069121	1.439417
C243	C	0.109257	-0.470684	0.939444
C244	C	0.609257	0.029316	1.439444
H245	H	0.049253	-0.381417	0.722357
H246	H	0.549253	0.118583	1.222357
O247	O	0.143646	-0.462017	0.939418
O248	O	0.643646	0.037983	1.439418
C249	C	0.126343	-0.415338	0.939443
C250	C	0.626343	0.084662	1.439443
H251	H	0.095849	-0.392869	0.924502
H252	H	0.595849	0.107131	1.424502
H253	H	0.156077	-0.399358	0.916511
H254	H	0.656077	0.100642	1.416511
H255	H	0.113112	-0.416042	0.977337
H256	H	0.613112	0.083958	1.477337
O257	O	0.548954	-0.396967	0.318987
O258	O	1.048954	0.103033	0.818987
C259	C	0.508022	-0.385961	0.310516
C260	C	1.008022	0.114039	0.810516
H261	H	0.494429	-0.417374	0.332676
H262	H	0.994429	0.082626	0.832676
H263	H	0.517174	-0.378194	0.271250
H264	H	1.017174	0.121806	0.771250
H265	H	0.479366	-0.353417	0.320772
H266	H	0.979366	0.146583	0.820772
O267	O	0.021912	-0.369128	0.347594
O268	O	0.521912	0.130872	0.847594
C269	C	0.062702	-0.369013	0.306631
C270	C	0.562702	0.130987	0.806631
H271	H	0.095332	-0.397095	0.317040
H272	H	0.595332	0.102905	0.817040
H273	H	0.066894	-0.332569	0.288899
H274	H	0.566894	0.167431	0.788899
H275	H	0.058862	-0.377282	0.280832
H276	H	0.558862	0.122718	0.780832
H277	H	-0.037176	-0.376187	0.939482
H278	H	0.462824	0.123813	1.439482
H279	H	-0.091926	-0.522444	0.298262
H280	H	0.408074	-0.022444	0.798262
H281	H	0.549182	-0.402927	0.467517
H282	H	1.049182	0.097073	0.967517
H283	H	0.164551	0.008603	0.352745
H284	H	0.664551	0.508603	0.852745
H285	H	0.019274	-0.411508	0.812539
H286	H	0.519274	0.088492	1.312539
H287	H	0.055841	-0.118733	0.556693
H288	H	0.555841	0.381267	1.056693
O289	O	0.021541	0.008193	0.347809
O290	O	0.521541	0.508193	0.847809
C291	C	-0.025140	0.008182	0.365128
C292	C	0.474860	0.508182	0.865128
H293	H	-0.037612	-0.006759	0.405578
H294	H	0.462388	0.493241	0.905578
H295	H	-0.025827	-0.014771	0.350693
H296	H	0.474173	0.485229	0.850693
H297	H	-0.049726	0.046066	0.353116
H298	H	0.450274	0.546066	0.853116
H299	H	0.549371	-0.578259	0.554780
H300	H	1.049371	-0.078259	1.054780
H301	H	0.164745	-0.517463	0.353068
H302	H	0.664745	-0.017463	0.853068
H303	H	0.077330	-0.605181	0.528391
H304	H	0.577330	-0.105181	1.028391
O305	O	-0.042286	-0.519256	0.939361
O306	O	0.457714	-0.019256	1.439361
C307	C	-0.024986	-0.565938	0.939346
C308	C	0.475014	-0.065938	1.439346
H309	H	0.015463	-0.578440	0.924411
H310	H	0.515463	-0.078440	1.424411
H311	H	-0.039428	-0.566607	0.916386
H312	H	0.460572	-0.066607	1.416386
H313	H	-0.037004	-0.590514	0.977226
H314	H	0.462996	-0.090514	1.477226
H315	H	0.138503	-0.605120	0.939399
H316	H	0.638503	-0.105120	1.439399
O317	O	-0.071140	-0.462502	0.534176
O318	O	0.428860	0.037498	1.034176
C319	C	-0.071163	-0.503342	0.575095
C320	C	0.428837	-0.003342	1.075095
H321	H	-0.043061	-0.535931	0.564622
H322	H	0.456939	-0.035931	1.064622
H323	H	-0.107582	-0.507593	0.592861
H324	H	0.392418	-0.007593	1.092861
H325	H	-0.062867	-0.499526	0.600890
H326	H	0.437133	0.000474	1.100890
O327	O	-0.071172	0.008251	0.534130
O328	O	0.428828	0.508251	1.034130
C329	C	-0.100741	0.008228	0.517063
C330	C	0.399259	0.508228	1.017063
H331	H	-0.087902	0.023174	0.476612
H332	H	0.412098	0.523174	0.976612
H333	H	-0.138779	0.031159	0.531629
H334	H	0.361221	0.531159	1.031629
H335	H	-0.099454	-0.029667	0.529147
H336	H	0.400546	0.470333	1.029147
O337	O	0.078908	0.008190	0.533718
O338	O	0.578908	0.508190	1.033718
C339	C	0.117389	-0.032703	0.544595
C340	C	0.617389	0.467297	1.044595
H341	H	0.121123	-0.061294	0.534166
H342	H	0.621123	0.438706	1.034166
H343	H	0.110729	-0.046440	0.584325
H344	H	0.610729	0.453560	1.084325
H345	H	0.151429	-0.023444	0.524092
H346	H	0.651429	0.476556	1.024092
O347	O	0.171755	-0.489630	0.816256
O348	O	0.671755	0.010370	1.316256
C349	C	0.218430	-0.496649	0.783627
C350	C	0.718430	0.003351	1.283627
H351	H	0.218308	-0.491082	0.748197
H352	H	0.718308	0.008918	1.248197
H353	H	0.242054	-0.534355	0.797966
H354	H	0.742054	-0.034355	1.297966
H355	H	0.232671	-0.470187	0.778335
H356	H	0.732671	0.029813	1.278335
H357	H	0.196592	-0.455039	0.722237
H358	H	0.696592	0.044961	1.222237
O359	O	0.549216	-0.583400	0.411729
O360	O	1.049216	-0.083400	0.911729
C361	C	0.549170	-0.566102	0.365058
C362	C	1.049170	-0.066102	0.865058
H363	H	0.534178	-0.525652	0.352582
H364	H	1.034178	-0.025652	0.852582
H365	H	0.526246	-0.580583	0.364394
H366	H	1.026246	-0.080583	0.864394
H367	H	0.587047	-0.578084	0.340459
H368	H	1.087047	-0.078084	0.840459
H369	H	0.019013	-0.411451	0.519888
H370	H	0.519013	0.088549	1.019888
O371	O	0.044009	-0.376833	0.554357
O372	O	0.544009	0.123167	1.054357
C373	C	0.015229	-0.335144	0.529283
C374	C	0.515229	0.164856	1.029283
H375	H	0.034397	-0.328222	0.489505
H376	H	0.534397	0.171778	0.989505
H377	H	0.007715	-0.303829	0.538179
H378	H	0.507715	0.196171	1.038179
H379	H	-0.019697	-0.339669	0.539888
H380	H	0.480303	0.160331	1.039888
O381	O	0.171420	-0.489528	0.441661
O382	O	0.671420	0.010472	0.941661
C383	C	0.218118	-0.496573	0.434595
C384	C	0.718118	0.003427	0.934595
H385	H	0.218032	-0.466601	0.440148
H386	H	0.718032	0.033399	0.940148
H387	H	0.241693	-0.496822	0.396882
H388	H	0.741693	0.003178	0.896882
H389	H	0.232390	-0.531992	0.461039
H390	H	0.732390	-0.031992	0.961039
H391	H	0.196371	-0.454985	0.476195
H392	H	0.696371	0.045015	0.976195
H393	H	0.332093	-0.491119	0.540748
H394	H	0.832093	0.008881	1.040748
H395	H	0.422223	-0.375220	0.454977
H396	H	0.922223	0.124780	0.954977
O397	O	0.426112	-0.528801	0.511791
O398	O	0.926112	-0.028801	1.011791
C399	C	0.393528	-0.553440	0.536203
C400	C	0.893528	-0.053440	1.036203
H401	H	0.358098	-0.531760	0.556591
H402	H	0.858098	-0.031760	1.056591
H403	H	0.407921	-0.589292	0.562142
H404	H	0.907921	-0.089292	1.062142
H405	H	0.388217	-0.559194	0.509616
H406	H	0.888217	-0.059194	1.009616
H407	H	0.332037	-0.345175	0.485091
H408	H	0.832037	0.154825	0.985091
H409	H	0.129365	-0.118686	0.409385
H410	H	0.629365	0.381314	0.909385
O411	O	0.163942	-0.212710	0.434273
O412	O	0.663942	0.287290	0.934273
C413	C	0.170950	-0.180098	0.387586
C414	C	0.670950	0.319902	0.887586
H415	H	0.140967	-0.144666	0.387697
H416	H	0.640967	0.355334	0.887697
H417	H	0.171190	-0.194459	0.363992
H418	H	0.671190	0.305541	0.863992
H419	H	0.206360	-0.174796	0.373318
H420	H	0.706360	0.325204	0.873318
H421	H	-0.061683	-0.492436	0.165791
H422	H	0.438317	0.007564	0.665791
O423	O	0.084121	-0.212800	0.594408
O424	O	0.584121	0.287200	1.094408
C425	C	0.101135	-0.200622	0.615018
C426	C	0.601135	0.299378	1.115018
H427	H	0.131781	-0.186950	0.586688
H428	H	0.631781	0.313050	1.086688
H429	H	0.114068	-0.233308	0.644320
H430	H	0.614068	0.266692	1.144320
H431	H	0.071316	-0.171762	0.630711
H432	H	0.571316	0.328238	1.130711
O433	O	-0.096336	-0.517303	0.259806
O434	O	0.403664	-0.017303	0.759806
C435	C	-0.103330	-0.470619	0.227185
C436	C	0.396670	0.029381	0.727185
H437	H	-0.073325	-0.470745	0.191775
H438	H	0.426675	0.029255	0.691775
H439	H	-0.103596	-0.447026	0.241565
H440	H	0.396404	0.052974	0.741565
H441	H	-0.138723	-0.456337	0.221836
H442	H	0.361277	0.043663	0.721836
H443	H	-0.018278	-0.669778	0.256062
H444	H	0.481722	-0.169778	0.756062
O445	O	0.016342	-0.644893	0.162024
O446	O	0.516342	-0.144893	0.662024
C447	C	-0.008780	-0.673587	0.174115
C448	C	0.491220	-0.173587	0.674115
H449	H	-0.037758	-0.674036	0.210180
H450	H	0.462242	-0.174036	0.710180
H451	H	0.016706	-0.711307	0.175856
H452	H	0.516706	-0.211307	0.675856
H453	H	-0.025601	-0.658622	0.146085
H454	H	0.474399	-0.158622	0.646085
O455	O	-0.063731	-0.484745	0.326458
O456	O	0.436269	0.015255	0.826458
C457	C	-0.046659	-0.464135	0.276666
C458	C	0.453341	0.035865	0.776666
H459	H	-0.016000	-0.492476	0.260684
H460	H	0.484000	0.007524	0.760684
H461	H	-0.033726	-0.434861	0.267178
H462	H	0.466274	0.065139	0.767178
H463	H	-0.076443	-0.448403	0.261871
H464	H	0.423557	0.051597	0.761871
O465	O	0.016015	-0.644893	0.406723
O466	O	0.516015	-0.144893	0.906723
C467	C	0.023049	-0.691577	0.413753
C468	C	0.523049	-0.191577	0.913753
H469	H	-0.006900	-0.691455	0.408132
H470	H	0.493100	-0.191455	0.908132
H471	H	0.023251	-0.715173	0.451477
H472	H	0.523251	-0.215173	0.951477
H473	H	0.058485	-0.705854	0.387334
H474	H	0.558485	-0.205854	0.887334
H475	H	-0.018458	-0.669769	0.372051
H476	H	0.481542	-0.169769	0.872051
H477	H	0.017768	-0.675232	0.307405
H478	H	0.517768	-0.175232	0.807405
H479	H	-0.098172	-0.765271	0.392919
H480	H	0.401828	-0.265271	0.892919
O481	O	0.055399	-0.769319	0.336327
O482	O	0.555399	-0.269319	0.836327
C483	C	0.081107	-0.757195	0.287257
C484	C	0.581107	-0.257195	0.787257
H485	H	0.056720	-0.743505	0.266663
H486	H	0.556720	-0.243505	0.766663
H487	H	0.111995	-0.789912	0.279250
H488	H	0.611995	-0.289912	0.779250
H489	H	0.095396	-0.728363	0.276179
H490	H	0.595396	-0.228363	0.776179
O491	O	-0.135779	-0.671183	0.363847
O492	O	0.364221	-0.171183	0.863847
C493	C	-0.150915	-0.683325	0.341470
C494	C	0.349085	-0.183325	0.841470
H495	H	-0.119137	-0.697032	0.312137
H496	H	0.380863	-0.197032	0.812137
H497	H	-0.178248	-0.650612	0.325479
H498	H	0.321752	-0.150612	0.825479
H499	H	-0.167599	-0.712149	0.368700
H500	H	0.332401	-0.212149	0.868700
O501	O	-0.130520	-0.637298	0.413833
O502	O	0.369480	-0.137298	0.913833
C503	C	-0.163175	-0.644310	0.460496
C504	C	0.336825	-0.144310	0.960496
H505	H	-0.198590	-0.614307	0.460350
H506	H	0.301410	-0.114307	0.960350
H507	H	-0.148852	-0.644585	0.484144
H508	H	0.351148	-0.144585	0.984144
H509	H	-0.168490	-0.679707	0.474726
H510	H	0.331510	-0.179707	0.974726
H511	H	-0.224531	-0.602667	0.438605
H512	H	0.275469	-0.102667	0.938605
H513	H	-0.224299	-0.529059	0.291228
H514	H	0.275701	-0.029059	0.791228
H515	H	-0.134111	-0.559208	0.261309
H516	H	0.365889	-0.059208	0.761309
