data_functionalizedCrystal
_audit_creation_method	'MofGen! by Chris Wilmer'
_symmetry_space_group_name_H-M	'P1'
_symmetry_Int_Tables_number	1
_symmetry_cell_setting	triclinic
loop_
_symmetry_equiv_pos_as_xyz
  x,y,z
_cell_length_a	12.594517
_cell_length_b	25.639239
_cell_length_c	12.594509
_cell_angle_alpha	89.965872
_cell_angle_beta	89.985695
_cell_angle_gamma	90.038644
loop_
_atom_site_label
_atom_site_type_symbol
_atom_site_fract_x
_atom_site_fract_y
_atom_site_fract_z
Zn1	Zn	1.627099	-0.208136	-0.601617
Zn2	Zn	1.626920	-0.295578	-0.423620
Zn3	Zn	1.449103	-0.208158	-0.423668
Zn4	Zn	1.449015	-0.295542	-0.601572
O5	O	1.538035	-0.251853	-0.512619
O6	O	1.776021	-0.219741	-0.578004
O7	O	1.603294	-0.284006	-0.274681
O8	O	1.472827	-0.134990	-0.447312
O9	O	1.775890	-0.283984	-0.447231
O10	O	1.603600	-0.134973	-0.578050
O11	O	1.472653	-0.219779	-0.274715
O12	O	1.300146	-0.219744	-0.447268
O13	O	1.472677	-0.283923	-0.750524
O14	O	1.300081	-0.283945	-0.577974
O15	O	1.603514	-0.219706	-0.750557
O16	O	1.603209	-0.368738	-0.447187
O17	O	1.472503	-0.368712	-0.577928
C18	C	1.261494	-0.251843	-0.512622
C19	C	1.143188	-0.251852	-0.512648
C20	C	1.003167	-0.286833	-0.583607
C21	C	1.073927	-0.299560	-0.486463
C22	C	1.073999	-0.239148	-0.609781
C23	C	1.003163	-0.264620	-0.415421
C24	C	1.003229	-0.204186	-0.538805
C25	C	1.073957	-0.216894	-0.441594
C26	C	1.537856	-0.387696	-0.512570
C27	C	1.537876	-0.445810	-0.512585
C28	C	1.606271	-0.806174	-0.444659
C29	C	1.606312	-0.860779	-0.444673
O30	O	1.664278	-0.889016	-0.386866
N31	N	1.538222	-0.888092	-0.512690
C32	C	1.470093	-0.860799	-0.580704
O33	O	1.412182	-0.889046	-0.638560
C34	C	1.470058	-0.806196	-0.580695
C35	C	1.538145	-0.778885	-0.512666
C36	C	1.674353	-0.778863	-0.376636
C37	C	1.674310	-0.724263	-0.376621
C38	C	1.606185	-0.696973	-0.444628
C39	C	1.538102	-0.724284	-0.512650
C40	C	1.401936	-0.778904	-0.648714
C41	C	1.401907	-0.724297	-0.648699
C42	C	1.469994	-0.696986	-0.580670
C43	C	1.469934	-0.642394	-0.580642
N44	N	1.538024	-0.615080	-0.512625
C45	C	1.606150	-0.642370	-0.444618
C46	C	1.470173	-0.975470	-0.580721
C47	C	1.470202	-1.030072	-0.580726
C48	C	1.606423	-1.030048	-0.444695
C49	C	1.606388	-0.975444	-0.444686
C50	C	1.538264	-0.948156	-0.512704
C51	C	1.606054	-0.527705	-0.444590
C52	C	1.606002	-0.473100	-0.444578
C53	C	1.469786	-0.473129	-0.580612
C54	C	1.469833	-0.527729	-0.580621
C55	C	1.537976	-0.555016	-0.512607
O56	O	1.412001	-0.614122	-0.638423
O57	O	1.664061	-0.614117	-0.386782
C58	C	1.815655	-0.251864	-0.512617
C59	C	1.933961	-0.251868	-0.512616
C60	C	1.538106	-0.251808	-0.790240
C61	C	1.538136	-0.251788	-0.908546
C62	C	1.538243	-0.115480	-0.512691
C63	C	1.538332	-0.057366	-0.512722
C64	C	1.466996	-0.286696	-0.977781
C65	C	1.564106	-0.299471	-1.048557
C66	C	1.441102	-0.238982	-1.048569
C67	C	1.635297	-0.264588	-0.977763
C68	C	1.512227	-0.204077	-0.977769
C69	C	1.609405	-0.216834	-1.048513
C70	C	1.538025	-0.251861	-0.236078
C71	C	1.538201	-0.251734	-0.117773
H72	H	0.972178	-0.275420	-0.333240
Cl73	Cl	1.384514	-0.941170	-0.666229
Cl74	Cl	1.478296	-0.141836	-0.929721
Cl75	Cl	1.692065	-1.064365	-0.359198
Cl76	Cl	1.121635	-0.171227	-0.348826
Cl77	Cl	1.316262	-0.689994	-0.734215
Cl78	Cl	1.691987	-0.941116	-0.359162
H79	H	0.972085	-0.316432	-0.643553
H80	H	1.586055	-0.339796	-1.079651
H81	H	1.104982	-0.339877	-0.464318
H82	H	1.414315	-0.450901	-0.635980
H83	H	1.729756	-0.702029	-0.321229
Cl84	Cl	0.955238	-0.141958	-0.573038
Cl85	Cl	1.316347	-0.813224	-0.734254
Cl86	Cl	1.122041	-0.222548	-0.736625
H87	H	1.661446	-0.450865	-0.389177
Cl88	Cl	1.691718	-0.562000	-0.359084
H89	H	1.414395	-0.549967	-0.636019
H90	H	1.717409	-0.275443	-0.946792
H91	H	1.729835	-0.801077	-0.321256
Cl92	Cl	1.702434	-0.171221	-1.096170
Cl93	Cl	1.314367	-0.222292	-1.096589
H94	H	1.406882	-0.316262	-0.946725
H95	H	1.414749	-1.052304	-0.636112
