data_functionalizedCrystal
_audit_creation_method	'MofGen! by Chris Wilmer'
_symmetry_space_group_name_H-M	'P1'
_symmetry_Int_Tables_number	1
_symmetry_cell_setting	triclinic
loop_
_symmetry_equiv_pos_as_xyz
  x,y,z
_cell_length_a	23.532407
_cell_length_b	10.654541
_cell_length_c	9.130307
_cell_angle_alpha	90.000178
_cell_angle_beta	89.992076
_cell_angle_gamma	96.333697
loop_
_atom_site_label
_atom_site_type_symbol
_atom_site_fract_x
_atom_site_fract_y
_atom_site_fract_z
O1	O	0.079977	-1.665305	-0.121771
O2	O	0.087599	-1.299584	-0.121786
O3	O	0.000928	-1.493473	-0.121751
O4	O	0.166648	-1.471416	-0.121806
O5	O	0.000928	-1.493467	0.121848
O6	O	0.087598	-1.299578	0.121813
O7	O	0.079977	-1.665299	0.121828
Cu8	Cu	0.083787	-1.482438	0.144063
Cu9	Cu	0.083788	-1.482445	-0.144021
O10	O	0.166647	-1.471410	0.121793
C11	C	0.087039	-1.252801	0.000012
C12	C	0.085366	-1.113410	0.000008
C13	C	-0.020292	-1.492908	0.000052
C14	C	-0.083520	-1.491219	0.000063
N15	N	0.083786	-1.482442	0.346686
C16	C	-0.481945	-1.595367	-0.000013
C17	C	-0.541355	-1.593798	-0.000024
O18	O	-0.577471	-1.690344	-0.000074
N19	N	-0.564732	-1.478531	-0.000028
C20	C	-0.528695	-1.364826	-0.000035
O21	O	-0.554034	-1.266639	-0.000040
C22	C	-0.469285	-1.366396	-0.000034
C23	C	-0.445912	-1.481670	-0.000016
C24	C	-0.458571	-1.710632	0.000004
C25	C	-0.399164	-1.712200	0.000018
C26	C	-0.363132	-1.598503	0.000015
C27	C	-0.386506	-1.483238	-0.000002
C28	C	-0.433249	-1.252692	-0.000052
C29	C	-0.373836	-1.254272	-0.000052
C30	C	-0.350463	-1.369546	-0.000034
C31	C	-0.291067	-1.371110	0.000009
N32	N	-0.267690	-1.486377	0.000013
C33	C	-0.303723	-1.600073	0.000016
C34	C	-0.653459	-1.361537	-0.000039
C35	C	-0.712867	-1.359966	-0.000029
C36	C	-0.725523	-1.588939	-0.000021
C37	C	-0.666114	-1.590509	-0.000020
C38	C	-0.630082	-1.476804	-0.000035
C39	C	-0.178964	-1.603358	0.000046
C40	C	-0.119552	-1.604916	0.000066
C41	C	-0.106901	-1.375944	0.000050
C42	C	-0.166308	-1.374385	0.000038
C43	C	-0.202339	-1.488102	0.000031
O44	O	-0.254916	-1.274615	0.000054
O45	O	-0.278375	-1.698244	0.000002
C46	C	0.187867	-1.471975	-0.000013
C47	C	0.251096	-1.473663	-0.000034
C48	C	0.080536	-1.712082	0.000026
C49	C	0.082210	-1.851472	0.000021
C50	C	0.189004	-1.082156	-0.000044
C51	C	0.240035	-1.001045	-0.000076
C52	C	0.238459	-0.870077	-0.000077
C53	C	0.185847	-0.820218	-0.000042
C54	C	0.134816	-0.901329	-0.000010
C55	C	0.136398	-1.032299	-0.000013
C56	C	0.031179	-0.932583	0.000053
C57	C	0.032754	-1.063552	0.000043
C58	C	-0.021433	-0.882725	0.000088
C59	C	-0.072465	-0.963837	0.000110
C60	C	-0.070887	-1.094812	0.000109
C61	C	-0.018277	-1.144663	0.000075
N62	N	0.083785	-1.482451	-0.346644
C63	C	0.007062	-1.654199	0.346706
C64	C	-0.031299	-1.740086	0.423383
C65	C	-0.031299	-1.740098	0.576717
C66	C	0.007064	-1.654212	0.653377
C67	C	0.045425	-1.568325	0.576700
C68	C	0.045422	-1.568325	0.423363
C69	C	0.122146	-1.396564	0.576679
C70	C	0.122150	-1.396555	0.423346
C71	C	0.160509	-1.310678	0.653339
C72	C	0.198873	-1.224795	0.576662
C73	C	0.198872	-1.224787	0.423320
C74	C	0.160510	-1.310669	0.346669
H75	H	-0.100525	-1.698790	0.000085
Br76	Br	0.183709	-0.642474	-0.000010
Br77	Br	-0.016131	-1.322405	0.000061
H78	H	0.160504	-1.310687	0.778191
H79	H	0.280013	-0.804035	-0.000093
Br80	Br	0.250927	-1.108236	0.680703
Br81	Br	-0.140147	-1.204882	0.000170
H82	H	-0.062538	-1.810030	0.639147
Br83	Br	0.250931	-1.108208	0.319272
Br84	Br	-0.744580	-1.203517	-0.000019
Br85	Br	-0.143860	-0.896165	0.000176
Br86	Br	0.007068	-1.654211	0.138609
H87	H	-0.344501	-1.161677	-0.000066
Br88	Br	-0.083365	-1.856634	0.319345
Br89	Br	0.191147	-1.259898	-0.000078
Br90	Br	0.311434	-1.068714	-0.000120
H91	H	-0.754872	-1.681517	-0.000025
Br92	Br	-0.604563	-1.207209	-0.000047
H93	H	-0.185339	-1.280520	0.000064
Br94	Br	-0.227854	-1.757690	0.000035
Br95	Br	-0.367453	-1.868652	0.000001
H96	H	-0.452269	-1.158824	-0.000076
Br97	Br	-0.023573	-0.704982	0.000100
H98	H	0.007057	-1.654218	0.778229
H99	H	-0.077553	-1.283375	0.000053
Br100	Br	-0.507462	-1.864956	0.000006
H101	H	0.160508	-1.310674	0.221817
H102	H	-0.647088	-1.684375	-0.000007
