data_functionalizedCrystal
_audit_creation_method	'MofGen! by Chris Wilmer'
_symmetry_space_group_name_H-M	'P1'
_symmetry_Int_Tables_number	1
_symmetry_cell_setting	triclinic
loop_
_symmetry_equiv_pos_as_xyz
  x,y,z
_cell_length_a	19.288864
_cell_length_b	19.188924
_cell_length_c	17.766277
_cell_angle_alpha	89.991559
_cell_angle_beta	89.976791
_cell_angle_gamma	83.139105
loop_
_atom_site_label
_atom_site_type_symbol
_atom_site_fract_x
_atom_site_fract_y
_atom_site_fract_z
O1	O	0.921357	0.087100	-0.062839
O2	O	1.421357	0.587100	0.437161
O3	O	0.719097	0.098849	-0.062788
O4	O	1.219097	0.598849	0.437212
O5	O	0.826067	-0.008682	-0.062806
O6	O	1.326067	0.491318	0.437194
O7	O	0.814388	0.194631	-0.062821
O8	O	1.314388	0.694631	0.437179
O9	O	0.826048	-0.008688	0.062382
O10	O	1.326048	0.491312	0.562382
O11	O	0.719079	0.098844	0.062401
O12	O	1.219079	0.598844	0.562401
O13	O	0.921339	0.087094	0.062350
O14	O	1.421339	0.587094	0.562350
Cu15	Cu	0.820207	0.092968	0.073806
Cu16	Cu	1.320207	0.592968	0.573806
Cu17	Cu	0.820229	0.092975	-0.074244
Cu18	Cu	1.320229	0.592975	0.425756
O19	O	0.814369	0.194625	0.062368
O20	O	1.314369	0.694625	0.562368
C21	C	0.693212	0.098468	-0.000187
C22	C	1.193212	0.598468	0.499813
C23	C	0.616108	0.097333	-0.000167
C24	C	1.116108	0.597333	0.499833
C25	C	0.825680	-0.034696	-0.000211
C26	C	1.325680	0.465304	0.499789
C27	C	0.824547	-0.112201	-0.000209
C28	C	1.324547	0.387799	0.499791
C29	C	0.571415	0.160428	-0.000184
C30	C	1.071415	0.660428	0.499816
C31	C	0.498968	0.159362	-0.000192
C32	C	0.998968	0.659362	0.499808
C33	C	0.471217	0.095197	-0.000199
C34	C	0.971217	0.595197	0.499801
C35	C	0.515920	0.032095	-0.000178
C36	C	1.015920	0.532095	0.499822
C37	C	0.588365	0.033163	-0.000162
C38	C	1.088365	0.533163	0.499838
C39	C	0.362959	0.044759	-0.044080
C40	C	0.862959	0.544759	0.455920
C41	C	0.290514	0.043694	-0.044100
C42	C	0.790514	0.543694	0.455900
C43	C	0.247771	0.091901	-0.000244
C44	C	0.747771	0.591901	0.499756
C45	C	0.277480	0.141185	0.043622
C46	C	0.777480	0.641185	0.543622
C47	C	0.349925	0.142253	0.043638
C48	C	0.849925	0.642253	0.543638
C49	C	0.392663	0.094032	-0.000216
C50	C	0.892663	0.594032	0.499784
C51	C	0.124522	0.153843	-0.000268
C52	C	0.624522	0.653843	0.499732
C53	C	0.052074	0.152775	-0.000272
C54	C	0.552074	0.652775	0.499728
C55	C	0.069028	0.025506	-0.000266
C56	C	0.569028	0.525506	0.499734
C57	C	0.141474	0.026576	-0.000255
C58	C	0.641474	0.526576	0.499745
C59	C	0.169217	0.090747	-0.000260
C60	C	0.669217	0.590747	0.499740
C61	C	0.824029	-0.148596	-0.068449
C62	C	1.324029	0.351404	0.431551
C63	C	0.822954	-0.221419	-0.068454
C64	C	1.322954	0.278581	0.431546
C65	C	0.822412	-0.257845	-0.000216
C66	C	1.322412	0.242155	0.499784
C67	C	0.822927	-0.221440	0.068034
C68	C	1.322927	0.278560	0.568034
C69	C	0.823994	-0.148618	0.068037
C70	C	1.323994	0.351382	0.568037
N71	N	0.860256	-0.377513	0.050563
N72	N	1.360256	0.122487	0.550563
N73	N	0.859243	-0.446691	0.050555
N74	N	1.359243	0.053309	0.550555
C75	C	0.819195	-0.477254	-0.000222
C76	C	1.319195	0.022746	0.499778
N77	N	0.780206	-0.436026	-0.051003
N78	N	1.280206	0.063974	0.448997
N79	N	0.781222	-0.366842	-0.050997
N80	N	1.281222	0.133158	0.449003
C81	C	0.821255	-0.336808	-0.000212
C82	C	1.321255	0.163192	0.499788
C83	C	0.817511	-0.592612	-0.068473
C84	C	1.317511	-0.092612	0.431527
C85	C	0.816432	-0.665436	-0.068476
C86	C	1.316432	-0.165436	0.431524
C87	C	0.816412	-0.665456	0.068014
C88	C	1.316412	-0.165456	0.568014
C89	C	0.817484	-0.592633	0.068015
C90	C	1.317484	-0.092633	0.568015
C91	C	0.818036	-0.556216	-0.000231
C92	C	1.318036	-0.056216	0.499769
C93	C	0.947225	0.087475	-0.000253
C94	C	1.447225	0.587475	0.499747
C95	C	1.024328	0.088610	-0.000278
C96	C	1.524328	0.588610	0.499722
C97	C	0.814756	0.220639	-0.000229
C98	C	1.314756	0.720639	0.499771
C99	C	0.815889	0.298144	-0.000236
C100	C	1.315889	0.798144	0.499764
N101	N	0.820196	0.092963	0.177936
N102	N	1.320196	0.592963	0.677936
N103	N	0.820245	0.092974	-0.178374
N104	N	1.320245	0.592974	0.321626
C105	C	0.867578	0.045372	0.217315
C106	C	1.367578	0.545372	0.717315
C107	C	0.867582	0.045369	0.296117
C108	C	1.367582	0.545369	0.796117
C109	C	0.820211	0.092969	0.335537
C110	C	1.320211	0.592969	0.835537
C111	C	0.772821	0.140564	0.296148
C112	C	1.272821	0.640564	0.796148
C113	C	0.772814	0.140561	0.217348
C114	C	1.272814	0.640561	0.717348
C115	C	0.810915	0.156586	0.460371
C116	C	1.310915	0.656586	0.960371
C117	C	0.810928	0.156590	0.539170
C118	C	1.310928	0.656590	1.039170
C119	C	0.820230	0.092977	0.578583
C120	C	1.320230	0.592977	1.078583
C121	C	0.829534	0.029359	0.539187
C122	C	1.329534	0.529359	1.039187
C123	C	0.829527	0.029356	0.460387
C124	C	1.329527	0.529356	0.960387
C125	C	0.820213	0.092977	0.420982
C126	C	1.320213	0.592977	0.920982
C127	C	0.867618	0.045378	0.703408
C128	C	1.367618	0.545378	1.203408
C129	C	0.867617	0.045374	0.782211
C130	C	1.367617	0.545374	1.282211
C131	C	0.772860	0.140576	0.782241
C132	C	1.272860	0.640576	1.282241
C133	C	0.772857	0.140574	0.703439
C134	C	1.272857	0.640574	1.203439
C135	C	0.820240	0.092976	0.664027
C136	C	1.320240	0.592976	1.164027
H137	H	0.593998	0.212681	-0.000189
H138	H	1.093998	0.712681	0.499811
C139	C	0.800682	0.226569	0.417025
C140	C	1.300682	0.726569	0.917025
N141	N	0.792975	0.279279	0.384378
N142	N	1.292975	0.779279	0.884378
C143	C	0.919694	-0.006994	0.173967
C144	C	1.419694	0.493006	0.673967
N145	N	0.958946	-0.046439	0.141315
N146	N	1.458946	0.453561	0.641315
C147	C	0.002910	0.222187	-0.000279
C148	C	0.502910	0.722187	0.499721
N149	N	-0.034120	0.274470	-0.000282
N150	N	0.465880	0.774470	0.499718
H151	H	0.906166	0.006612	0.328185
H152	H	1.406166	0.506612	0.828185
H153	H	0.906198	0.006616	0.814274
H154	H	1.406198	0.506616	1.314274
C155	C	0.720710	0.192922	0.339512
C156	C	1.220710	0.692922	0.839512
N157	N	0.681456	0.232356	0.372173
N158	N	1.181456	0.732356	0.872173
C159	C	0.824630	-0.108541	-0.143522
C160	C	1.324630	0.391459	0.356478
N161	N	0.825081	-0.078370	-0.200067
N162	N	1.325081	0.421630	0.299933
H163	H	0.822484	-0.251102	0.123594
H164	H	1.322484	0.248898	0.623594
H165	H	0.837101	-0.022444	0.428314
H166	H	1.337101	0.477556	0.928314
H167	H	0.734287	0.179330	0.814336
H168	H	1.234287	0.679330	1.314336
H169	H	0.837108	-0.022441	0.571275
H170	H	1.337108	0.477559	1.071275
C171	C	0.824569	-0.108581	0.143110
C172	C	1.324569	0.391419	0.643110
N173	N	0.825004	-0.078426	0.199656
N174	N	1.325004	0.421574	0.699656
H175	H	0.493321	-0.020148	-0.000194
H176	H	0.993321	0.479852	0.499806
C177	C	0.038506	-0.045076	-0.000272
C178	C	0.538506	0.454924	0.499728
N179	N	0.015514	-0.098240	-0.000276
N180	N	0.515514	0.401760	0.499724
C181	C	0.637530	-0.036249	-0.000149
C182	C	1.137530	0.463751	0.499851
N183	N	0.674562	-0.088532	-0.000142
N184	N	1.174562	0.411468	0.499858
C185	C	0.409970	-0.008273	-0.092331
C186	C	0.909970	0.491727	0.407669
N187	N	0.445377	-0.048215	-0.128675
N188	N	0.945377	0.451785	0.371325
H189	H	0.177865	-0.024802	-0.000245
H190	H	0.677865	0.475198	0.499755
C191	C	0.257843	-0.010523	-0.092349
C192	C	0.757843	0.489477	0.407651
N193	N	0.233236	-0.051364	-0.128688
N194	N	0.733236	0.448636	0.371312
C195	C	0.720783	0.192979	0.660121
C196	C	1.220783	0.692979	1.160121
N197	N	0.681574	0.232469	0.627494
N198	N	1.181574	0.732469	1.127494
C199	C	0.382603	0.196458	0.091898
C200	C	0.882603	0.696458	0.591898
N201	N	0.407216	0.237283	0.128252
N202	N	0.907216	0.737283	0.628252
C203	C	0.155041	0.224432	-0.000264
C204	C	0.655041	0.724432	0.499736
N205	N	0.178026	0.277600	-0.000260
N206	N	0.678026	0.777600	0.499740
C207	C	0.800686	0.226571	0.582498
C208	C	1.300686	0.726571	1.082498
N209	N	0.792967	0.279282	0.615131
N210	N	1.292967	0.779282	1.115131
C211	C	0.815816	-0.705520	0.143078
C212	C	1.315816	-0.205520	0.643078
N213	N	0.815366	-0.735700	0.199618
N214	N	1.315366	-0.235700	0.699618
H215	H	0.822528	-0.251058	-0.124026
H216	H	1.322528	0.248942	0.375974
H217	H	0.816006	-0.695067	-0.124047
H218	H	1.316006	-0.195067	0.375953
H219	H	0.817957	-0.562959	-0.124043
H220	H	1.317957	-0.062959	0.375957
C221	C	0.720718	0.192948	0.174030
C222	C	1.220718	0.692948	0.674030
N223	N	0.681491	0.232419	0.141402
N224	N	1.181491	0.732419	0.641402
H225	H	0.817912	-0.563000	0.123584
H226	H	1.317912	-0.063000	0.623584
H227	H	0.462572	0.210742	-0.000203
H228	H	0.962572	0.710742	0.499797
H229	H	0.242679	0.180439	0.079335
H230	H	0.742679	0.680439	0.579335
C231	C	0.919733	-0.006986	0.660052
C232	C	1.419733	0.493014	1.160052
N233	N	0.958985	-0.046429	0.627399
N234	N	1.458985	0.453571	1.127399
