data_functionalizedCrystal
_audit_creation_method	'MofGen! by Chris Wilmer'
_symmetry_space_group_name_H-M	'P1'
_symmetry_Int_Tables_number	1
_symmetry_cell_setting	triclinic
loop_
_symmetry_equiv_pos_as_xyz
  x,y,z
_cell_length_a	21.395364
_cell_length_b	18.215405
_cell_length_c	21.395355
_cell_angle_alpha	90.018720
_cell_angle_beta	90.024727
_cell_angle_gamma	90.022153
loop_
_atom_site_label
_atom_site_type_symbol
_atom_site_fract_x
_atom_site_fract_y
_atom_site_fract_z
Zn1	Zn	0.957889	-0.293102	0.354263
Zn2	Zn	1.457889	0.206898	0.854263
Zn3	Zn	0.957804	-0.416151	0.249486
Zn4	Zn	1.457804	0.083849	0.749486
Zn5	Zn	0.853104	-0.293099	0.249500
Zn6	Zn	1.353104	0.206901	0.749500
Zn7	Zn	0.853086	-0.416128	0.354225
Zn8	Zn	1.353086	0.083872	0.854225
O9	O	0.905471	-0.354620	0.301869
O10	O	1.405471	0.145380	0.801869
O11	O	1.045556	-0.309436	0.340374
O12	O	1.545556	0.190564	0.840374
O13	O	0.943888	-0.399835	0.161810
O14	O	1.443888	0.100165	0.661810
O15	O	0.867047	-0.190115	0.263419
O16	O	1.367047	0.309885	0.763419
O17	O	1.045493	-0.399839	0.263395
O18	O	1.545493	0.100161	0.763395
O19	O	0.944032	-0.190118	0.340388
O20	O	1.444032	0.309882	0.840388
O21	O	0.866965	-0.309430	0.161820
O22	O	1.366965	0.190570	0.661820
O23	O	0.765424	-0.309408	0.263382
O24	O	1.265424	0.190592	0.763382
O25	O	0.867016	-0.399800	0.441908
O26	O	1.367016	0.100200	0.941908
O27	O	0.765410	-0.399797	0.340323
O28	O	1.265410	0.100203	0.840323
O29	O	0.944015	-0.309414	0.441936
O30	O	1.444015	0.190586	0.941936
O31	O	0.943870	-0.519132	0.263358
O32	O	1.443870	-0.019132	0.763358
O33	O	0.866934	-0.519115	0.340310
O34	O	1.366934	-0.019115	0.840310
C35	C	0.742683	-0.354600	0.301851
C36	C	1.242683	0.145400	0.801851
C37	C	0.673042	-0.354610	0.301858
C38	C	1.173042	0.145390	0.801858
C39	C	0.171255	-0.401772	0.341893
C40	C	0.671255	0.098228	0.841893
C41	C	0.236691	-0.401772	0.341887
C42	C	0.736691	0.098228	0.841887
C43	C	0.269404	-0.354636	0.301888
C44	C	0.769404	0.145364	0.801888
C45	C	0.236676	-0.307510	0.261882
C46	C	0.736676	0.192490	0.761882
C47	C	0.171242	-0.307516	0.261886
C48	C	0.671242	0.192484	0.761886
C49	C	0.373086	-0.288313	0.297037
C50	C	0.873086	0.211687	0.797037
C51	C	0.438519	-0.288306	0.297038
C52	C	0.938519	0.211694	0.797038
C53	C	0.471224	-0.354617	0.301875
C54	C	0.971224	0.145383	0.801875
C55	C	0.438489	-0.420937	0.306723
C56	C	0.938489	0.079063	0.806723
C57	C	0.373055	-0.420944	0.306726
C58	C	0.873055	0.079056	0.806726
C59	C	0.340356	-0.354624	0.301880
C60	C	0.840356	0.145376	0.801880
C61	C	0.574897	-0.401744	0.341868
C62	C	1.074897	0.098256	0.841868
C63	C	0.640333	-0.401745	0.341857
C64	C	1.140333	0.098255	0.841857
C65	C	0.640317	-0.307476	0.261856
C66	C	1.140317	0.192524	0.761856
C67	C	0.574882	-0.307482	0.261864
C68	C	1.074882	0.192518	0.761864
C69	C	0.542176	-0.354614	0.301873
C70	C	1.042176	0.145386	0.801873
C71	C	0.905408	-0.545826	0.301842
C72	C	1.405408	-0.045826	0.801842
C73	C	0.905438	-0.627625	0.301851
C74	C	1.405438	-0.127625	0.801851
C75	C	0.945616	-0.892667	0.261867
C76	C	1.445616	-0.392667	0.761867
C77	C	0.945590	-0.815808	0.261852
C78	C	1.445590	-0.315808	0.761852
C79	C	0.865403	-0.815832	0.341913
C80	C	1.365403	-0.315832	0.841913
C81	C	0.865426	-0.892689	0.341923
C82	C	1.365426	-0.392689	0.841923
C83	C	0.905536	-0.931105	0.301901
C84	C	1.405536	-0.431105	0.801901
C85	C	0.905487	-0.777389	0.301876
C86	C	1.405487	-0.277389	0.801876
C87	C	0.905459	-0.694055	0.301861
C88	C	1.405459	-0.194055	0.801861
C89	C	0.905564	-1.014444	0.301916
C90	C	1.405564	-0.514444	0.801916
C91	C	1.068894	-0.354640	0.301887
C92	C	1.568894	0.145360	0.801887
C93	C	1.138535	-0.354649	0.301895
C94	C	1.638535	0.145351	0.801895
C95	C	0.905523	-0.354605	0.465292
C96	C	1.405523	0.145395	0.965292
C97	C	0.905545	-0.354599	0.534933
C98	C	1.405545	0.145401	1.034933
C99	C	0.905551	-0.162667	0.301909
C100	C	1.405551	0.337333	0.801909
C101	C	0.905585	-0.080868	0.301927
C102	C	1.405585	0.419132	0.801927
C103	C	0.905455	-0.354582	0.139081
C104	C	1.405455	0.145418	0.639081
C105	C	0.905554	-0.354381	0.069440
C106	C	1.405554	0.145619	0.569440
C107	C	0.945636	-0.307532	0.567662
C108	C	1.445636	0.192468	1.067662
C109	C	0.945635	-0.307501	0.633097
C110	C	1.445635	0.192499	1.133097
C111	C	0.905550	-0.354549	0.665802
C112	C	1.405550	0.145451	1.165802
C113	C	0.865451	-0.401618	0.633065
C114	C	1.365451	0.098382	1.133065
C115	C	0.865448	-0.401643	0.567631
C116	C	1.365448	0.098357	1.067631
C117	C	0.900581	-0.420812	0.769467
C118	C	1.400581	0.079188	1.269467
C119	C	0.900587	-0.420789	0.834900
C120	C	1.400587	0.079211	1.334900
C121	C	0.905554	-0.354471	0.867622
C122	C	1.405554	0.145529	1.367622
C123	C	0.910526	-0.288175	0.834904
C124	C	1.410526	0.211825	1.334904
C125	C	0.910524	-0.288200	0.769470
C126	C	1.410524	0.211800	1.269470
C127	C	0.905548	-0.354526	0.736754
C128	C	1.405548	0.145474	1.236754
C129	C	0.945646	-0.307366	0.971304
C130	C	1.445646	0.192634	1.471304
C131	C	0.945641	-0.307333	1.036740
C132	C	1.445641	0.192667	1.536740
C133	C	0.865459	-0.401457	1.036707
C134	C	1.365459	0.098543	1.536707
C135	C	0.865461	-0.401483	0.971271
C136	C	1.365461	0.098517	1.471271
C137	C	0.905558	-0.354439	0.938574
C138	C	1.405558	0.145561	1.438574
H139	H	0.548241	-0.269107	0.229295
H140	H	1.048241	0.230893	0.729295
H141	H	0.978292	-0.269056	0.944680
H142	H	1.478292	0.230944	1.444680
H143	H	0.978285	-0.269224	0.541043
H144	H	1.478285	0.230776	1.041043
H145	H	0.832786	-0.923986	0.374526
H146	H	1.332786	-0.423986	0.874526
H147	H	0.978276	-0.923942	0.229278
H148	H	1.478276	-0.423942	0.729278
H149	H	0.896542	-0.474771	0.861534
H150	H	1.396542	0.025229	1.361534
Cl151	Cl	0.815044	-0.460818	0.526484
Cl152	Cl	1.315044	0.039182	1.026484
Cl153	Cl	0.814988	-0.767533	0.392229
Cl154	Cl	1.314988	-0.267533	0.892229
Cl155	Cl	0.533777	-0.460998	0.392161
Cl156	Cl	1.033777	0.039002	0.892161
Cl157	Cl	0.479665	-0.204932	0.290953
Cl158	Cl	0.979665	0.295068	0.790953
H159	H	0.666973	-0.440123	0.374427
H160	H	1.166973	0.059877	0.874427
Cl161	Cl	0.996056	-0.248170	1.077886
Cl162	Cl	1.496056	0.251830	1.577886
H163	H	0.978226	-0.784514	0.229252
H164	H	1.478226	-0.284514	0.729252
Cl165	Cl	0.815055	-0.460761	0.674178
Cl166	Cl	1.315055	0.039239	1.174178
H167	H	0.978281	-0.269170	0.659750
H168	H	1.478281	0.230830	1.159750
H169	H	0.666952	-0.269100	0.229287
H170	H	1.166952	0.230900	0.729287
Cl171	Cl	0.894356	-0.504194	0.728337
Cl172	Cl	1.394356	-0.004194	1.228337
H173	H	0.346462	-0.234312	0.293089
H174	H	0.846462	0.265688	0.793089
H175	H	0.914571	-0.234219	0.742833
H176	H	1.414571	0.265781	1.242833
H177	H	0.144630	-0.440153	0.374470
H178	H	0.644630	0.059847	0.874470
Cl179	Cl	0.277833	-0.461015	0.392175
Cl180	Cl	0.777833	0.038985	0.892175
H181	H	0.465117	-0.474934	0.310666
H182	H	0.965117	0.025066	0.810666
Cl183	Cl	0.916772	-0.204798	0.876033
Cl184	Cl	1.416772	0.295202	1.376033
Cl185	Cl	0.815060	-0.460597	1.077815
Cl186	Cl	1.315060	0.039403	1.577815
H187	H	0.832818	-0.439814	0.944623
H188	H	1.332818	0.060186	1.444623
H189	H	0.346405	-0.474944	0.310672
H190	H	0.846405	0.025056	0.810672
H191	H	0.263315	-0.269133	0.229315
H192	H	0.763315	0.230867	0.729315
H193	H	0.144601	-0.269141	0.229314
H194	H	0.644601	0.230859	0.729314
