data_functionalizedCrystal
_audit_creation_method	'MofGen! by Chris Wilmer'
_symmetry_space_group_name_H-M	'P1'
_symmetry_Int_Tables_number	1
_symmetry_cell_setting	triclinic
loop_
_symmetry_equiv_pos_as_xyz
  x,y,z
_cell_length_a	10.489741
_cell_length_b	10.489741
_cell_length_c	9.565339
_cell_angle_alpha	90.000900
_cell_angle_beta	90.000516
_cell_angle_gamma	95.460826
loop_
_atom_site_label
_atom_site_type_symbol
_atom_site_fract_x
_atom_site_fract_y
_atom_site_fract_z
O1	O	0.179959	-1.694053	-0.116173
O2	O	0.196852	-1.322857	-0.116194
O3	O	0.002807	-1.516901	-0.116175
O4	O	0.374003	-1.500009	-0.116192
O5	O	0.002819	-1.516886	0.116345
O6	O	0.196864	-1.322842	0.116326
O7	O	0.179971	-1.694038	0.116347
Zn8	Zn	0.188419	-1.508437	0.153254
Zn9	Zn	0.188403	-1.508458	-0.153101
O10	O	0.374015	-1.499993	0.116328
C11	C	0.195582	-1.275318	0.000063
C12	C	0.191765	-1.133688	0.000055
N13	N	0.188429	-1.508433	0.362334
C14	C	-0.044718	-1.515618	0.000084
C15	C	-0.186348	-1.511801	0.000082
C16	C	-0.254488	-1.388336	0.000064
C17	C	-0.346604	-1.446652	0.114712
C18	C	-0.346591	-1.446696	-0.114534
C19	C	-0.276599	-1.570168	0.114824
C20	C	-0.276576	-1.570195	-0.114525
C21	C	-0.368665	-1.628600	0.000150
C22	C	0.421541	-1.501277	0.000066
C23	C	0.563170	-1.505094	0.000059
C24	C	0.181241	-1.741577	0.000087
C25	C	0.185058	-1.883206	0.000086
C26	C	0.068300	-1.065548	0.000074
C27	C	0.126617	-0.973429	-0.114571
C28	C	0.126659	-0.973448	0.114676
C29	C	0.250133	-1.043435	-0.114684
C30	C	0.250157	-1.043463	0.114665
C31	C	0.308564	-0.951371	-0.000007
N32	N	0.188383	-1.508472	-0.362180
C33	C	0.278138	-1.418666	0.453528
C34	C	0.303949	-1.534163	0.546712
C35	C	0.162629	-1.392986	0.546704
C36	C	0.214298	-1.623988	0.453466
C37	C	0.072928	-1.482735	0.453451
C38	C	0.098690	-1.598314	0.546593
H39	H	-0.204837	-1.286824	0.000174
F40	F	-0.387133	-1.378364	0.241396
F41	F	0.431592	-1.562610	0.600257
H42	H	0.140828	-1.295338	0.587664
F43	F	-0.054678	-1.454244	0.399861
H44	H	-0.245762	-1.622356	0.211859
F45	F	0.318356	-1.083732	-0.241514
F46	F	0.377386	-1.319535	0.400110
F47	F	-0.433269	-1.761401	0.000237
H48	H	0.236217	-1.721659	0.412683
H49	H	-0.245536	-1.622398	-0.211451
F50	F	-0.387097	-1.378394	-0.241217
F51	F	0.058333	-0.932901	-0.241255
F52	F	-0.064382	-1.130446	-0.000066
F53	F	0.441365	-0.886766	-0.000092
H54	H	0.302360	-1.074503	0.211590
F55	F	0.058357	-0.932951	0.241364
F56	F	-0.000500	-1.697666	0.599676
