data_functionalizedCrystal
_audit_creation_method	'MofGen! by Chris Wilmer'
_symmetry_space_group_name_H-M	'P1'
_symmetry_Int_Tables_number	1
_symmetry_cell_setting	triclinic
loop_
_symmetry_equiv_pos_as_xyz
  x,y,z
_cell_length_a	6.817900
_cell_length_b	9.109307
_cell_length_c	10.943624
_cell_angle_alpha	97.376200
_cell_angle_beta	108.838799
_cell_angle_gamma	111.764999
loop_
_atom_site_label
_atom_site_type_symbol
_atom_site_fract_x
_atom_site_fract_y
_atom_site_fract_z
V1	V	-4.147508	-0.225312	-0.427519
O2	O	-4.071659	0.010871	-0.393684
O3	O	-4.156928	-0.446798	-0.449309
O4	O	-4.124976	-0.221827	-0.602699
O5	O	-4.103833	-0.215658	-0.239232
V6	V	-4.620292	-0.197064	-0.401996
O7	O	-4.432324	-0.287276	-0.483505
O8	O	-4.785674	-0.135100	-0.346009
O9	O	-4.387666	0.024422	-0.380205
O10	O	-4.813538	-0.433247	-0.435831
O11	O	-4.781364	-0.206719	-0.590282
O12	O	-4.419618	-0.200549	-0.226815
C13	C	-4.015158	-0.500793	-0.448942
C14	C	-4.104319	-0.681860	-0.467925
C15	C	-3.974398	-0.213817	-0.644604
C16	C	-4.037641	-0.212433	-0.787977
C17	C	-3.881147	-0.203114	-0.864092
C18	C	-4.090158	-0.341438	-0.985410
C19	C	-3.941346	-0.071659	-0.922128
C20	C	-4.245882	-0.350887	-0.907433
C21	C	-4.096972	-0.080986	-0.844114
C22	C	-4.306126	-0.219349	-0.965407
C23	C	-4.192780	0.078408	-0.380570
C24	C	-4.082859	0.259474	-0.361595
C25	C	-4.233539	-0.208564	-0.184904
C26	C	-4.149532	-0.209940	-0.041529
H27	H	-4.190888	-0.770169	-0.573518
H28	H	-3.700997	-0.196435	-0.819903
C29	C	-3.831096	0.087982	-1.067474
C30	C	-3.768389	0.087660	-0.932437
H31	H	-3.724300	0.186329	-1.073833
H32	H	-3.981391	0.082420	-1.102301
H33	H	-3.830085	-0.004577	-1.117862
H34	H	-3.769416	0.180212	-0.882050
H35	H	-3.618054	0.093238	-0.897593
C36	C	-3.865328	-0.481366	-1.016507
C37	C	-4.087176	-0.490075	-1.067977
H38	H	-3.863477	-0.573120	-1.067483
H39	H	-3.823460	-0.482781	-0.925189
H40	H	-3.758598	-0.382299	-1.021967
H41	H	-4.193904	-0.589137	-1.062508
H42	H	-4.129072	-0.488676	-1.159318
C43	C	-3.772457	-0.640434	-0.143210
C44	C	-3.966026	-0.621343	-0.219049
H45	H	-3.700341	-0.566855	-0.055205
H46	H	-3.666710	-0.616824	-0.185238
H47	H	-3.819055	-0.750570	-0.137738
H48	H	-3.919425	-0.511209	-0.224530
H49	H	-4.071793	-0.644942	-0.177010
H50	H	-4.374050	-0.469026	-0.899980
C51	C	-4.640169	-0.237040	-0.926527
C52	C	-4.549513	-0.228657	-1.024829
H53	H	-4.790433	-0.242803	-0.963221
H54	H	-4.543311	-0.141616	-0.851921
H55	H	-4.648281	-0.332406	-0.897789
H56	H	-4.541385	-0.133283	-1.053559
H57	H	-4.646396	-0.324091	-1.099459
H58	H	-4.099104	0.029129	-0.782928
