data_functionalizedCrystal
_audit_creation_method	'MofGen! by Chris Wilmer'
_symmetry_space_group_name_H-M	'P1'
_symmetry_Int_Tables_number	1
_symmetry_cell_setting	triclinic
loop_
_symmetry_equiv_pos_as_xyz
  x,y,z
_cell_length_a	13.897449
_cell_length_b	13.897447
_cell_length_c	13.897441
_cell_angle_alpha	90.029327
_cell_angle_beta	90.020733
_cell_angle_gamma	90.020810
loop_
_atom_site_label
_atom_site_type_symbol
_atom_site_fract_x
_atom_site_fract_y
_atom_site_fract_z
Zn1	Zn	1.474690	-0.383951	0.545390
Zn2	Zn	1.808024	-0.050618	0.878723
Zn3	Zn	2.141357	0.282715	1.212056
Zn4	Zn	1.474579	-0.545273	0.384095
Zn5	Zn	1.807912	-0.211940	0.717428
Zn6	Zn	2.141246	0.121394	1.050761
Zn7	Zn	1.313379	-0.383997	0.384108
Zn8	Zn	1.646713	-0.050664	0.717441
Zn9	Zn	1.980046	0.282670	1.050775
Zn10	Zn	1.313356	-0.545210	0.545347
Zn11	Zn	1.646689	-0.211876	0.878681
Zn12	Zn	1.980023	0.121457	1.212014
O13	O	1.394001	-0.464608	0.464735
O14	O	1.727335	-0.131274	0.798068
O15	O	2.060668	0.202059	1.131402
O16	O	1.609657	-0.405358	0.524006
O17	O	1.942990	-0.072025	0.857339
O18	O	2.276324	0.261308	1.190672
O19	O	1.453159	-0.523925	0.249115
O20	O	1.786492	-0.190592	0.582448
O21	O	2.119826	0.142742	0.915781
O22	O	1.334834	-0.249009	0.405526
O23	O	1.668167	0.084324	0.738859
O24	O	2.001501	0.417657	1.072192
O25	O	1.609575	-0.523881	0.405503
O26	O	1.942909	-0.190547	0.738836
O27	O	2.276242	0.142786	1.072170
O28	O	1.453348	-0.248976	0.524019
O29	O	1.786682	0.084358	0.857352
O30	O	2.120015	0.417691	1.190685
O31	O	1.334726	-0.405436	0.249125
O32	O	1.668060	-0.072103	0.582458
O33	O	2.001393	0.261230	0.915791
O34	O	1.178395	-0.405375	0.405485
O35	O	1.511728	-0.072042	0.738818
O36	O	1.845061	0.261292	1.072151
O37	O	1.334794	-0.523773	0.680335
O38	O	1.668127	-0.190439	1.013668
O39	O	2.001461	0.142894	1.347001
O40	O	1.178377	-0.523817	0.523946
O41	O	1.511711	-0.190484	0.857280
O42	O	1.845044	0.142850	1.190613
O43	O	1.453326	-0.405297	0.680366
O44	O	1.786659	-0.071963	1.013699
O45	O	2.119992	0.261370	1.347032
O46	O	1.453136	-0.680246	0.405462
O47	O	1.786470	-0.346913	0.738795
O48	O	2.119803	-0.013579	1.072128
O49	O	1.334686	-0.680200	0.523933
O50	O	1.668020	-0.346866	0.857267
O51	O	2.001353	-0.013533	1.190600
C52	C	1.143387	-0.464595	0.464713
C53	C	1.476720	-0.131261	0.798046
C54	C	1.810054	0.202072	1.131380
C55	C	1.036173	-0.464613	0.464726
C56	C	1.369506	-0.131279	0.798060
C57	C	1.702840	0.202054	1.131393
C58	C	1.393923	-0.715222	0.464713
C59	C	1.727256	-0.381889	0.798046
C60	C	2.060589	-0.048555	1.131379
C61	C	1.393977	-0.822436	0.464735
C62	C	1.727311	-0.489103	0.798069
C63	C	2.060644	-0.155769	1.131402
C64	C	0.839878	-0.464616	0.464752
C65	C	1.173211	-0.131283	0.798085
C66	C	1.506544	0.202051	1.131418
C67	C	0.949110	-0.464611	0.464735
C68	C	1.282444	-0.131278	0.798068
C69	C	1.615777	0.202056	1.131402
C70	C	1.394024	-0.909506	0.464757
C71	C	1.727357	-0.576172	0.798091
C72	C	2.060691	-0.242839	1.131424
C73	C	1.394092	-1.018738	0.464782
C74	C	1.727425	-0.685405	0.798115
C75	C	2.060758	-0.352071	1.131449
C76	C	1.645594	-0.464621	0.464758
C77	C	1.978927	-0.131288	0.798091
C78	C	2.312261	0.202045	1.131424
C79	C	1.752808	-0.464627	0.464767
C80	C	2.086141	-0.131294	0.798101
C81	C	2.419475	0.202040	1.131434
C82	C	1.394070	-0.464522	0.716328
C83	C	1.727403	-0.131189	1.049661
C84	C	2.060736	0.202144	1.382995
C85	C	1.394099	-0.464486	0.823542
C86	C	1.727432	-0.131153	1.156875
C87	C	2.060765	0.202181	1.490209
C88	C	1.394106	-0.213015	0.464778
C89	C	1.727440	0.120319	0.798112
C90	C	2.060773	0.453652	1.131445
C91	C	1.394151	-0.105801	0.464797
C92	C	1.727484	0.227533	0.798130
C93	C	2.060818	0.560866	1.131464
C94	C	1.393989	-0.464623	0.214121
C95	C	1.727322	-0.131290	0.547454
C96	C	2.060655	0.202044	0.880787
C97	C	1.394146	-0.464388	0.106907
C98	C	1.727480	-0.131054	0.440241
C99	C	2.060813	0.202279	0.773574
C100	C	1.394125	-0.464421	1.019837
C101	C	1.727458	-0.131088	1.353171
C102	C	2.060792	0.202246	1.686504
C103	C	1.394107	-0.464460	0.910605
C104	C	1.727441	-0.131127	1.243938
C105	C	2.060774	0.202207	1.577271
