data_functionalizedCrystal
_audit_creation_method	'MofGen! by Chris Wilmer'
_symmetry_space_group_name_H-M	'P1'
_symmetry_Int_Tables_number	1
_symmetry_cell_setting	triclinic
loop_
_symmetry_equiv_pos_as_xyz
  x,y,z
_cell_length_a	21.395364
_cell_length_b	19.077114
_cell_length_c	19.077579
_cell_angle_alpha	89.934476
_cell_angle_beta	87.686417
_cell_angle_gamma	87.673269
loop_
_atom_site_label
_atom_site_type_symbol
_atom_site_fract_x
_atom_site_fract_y
_atom_site_fract_z
Zn1	Zn	0.962988	0.263832	-0.408556
Zn2	Zn	0.954505	0.386063	-0.295766
Zn3	Zn	0.853848	0.268569	-0.291062
Zn4	Zn	0.854142	0.381302	-0.413233
O5	O	0.906371	0.324942	-0.352154
O6	O	1.049541	0.280056	-0.393606
O7	O	0.937479	0.374453	-0.196810
O8	O	0.871753	0.169608	-0.302722
O9	O	1.043308	0.369859	-0.310740
O10	O	0.951938	0.166127	-0.389044
O11	O	0.863527	0.288130	-0.193354
O12	O	0.766209	0.283514	-0.307257
O13	O	0.872254	0.361745	-0.510945
O14	O	0.766425	0.366338	-0.397015
O15	O	0.952223	0.275440	-0.507509
O16	O	0.937764	0.483765	-0.315275
O17	O	0.864027	0.480267	-0.401577
C18	C	0.743583	0.324924	-0.352133
C19	C	0.673942	0.324933	-0.352142
C20	C	0.900024	0.507512	-0.359459
C21	C	0.897368	0.585616	-0.362608
C22	C	0.172270	0.368153	-0.398852
C23	C	0.237705	0.368153	-0.398844
C24	C	0.270304	0.324956	-0.352177
C25	C	0.237461	0.281769	-0.305502
C26	C	0.172027	0.281775	-0.305506
C27	C	0.375963	0.261849	-0.344192
C28	C	0.441396	0.261842	-0.344193
C29	C	0.472125	0.324938	-0.352161
C30	C	0.437412	0.388044	-0.360143
C31	C	0.371978	0.388050	-0.360147
C32	C	0.341256	0.324945	-0.352168
C33	C	0.575911	0.368127	-0.398822
C34	C	0.641348	0.368129	-0.398810
C35	C	0.641102	0.281739	-0.305471
C36	C	0.575667	0.281743	-0.305480
C37	C	0.543076	0.324936	-0.352159
C38	C	0.934543	0.624105	-0.319191
C39	C	0.932048	0.697492	-0.322156
C40	C	0.892374	0.732387	-0.368535
C41	C	0.855198	0.693892	-0.411957
C42	C	0.857697	0.620507	-0.408994
C43	C	0.880784	0.951672	-0.382213
C44	C	0.878287	1.025062	-0.385170
C45	C	0.955138	1.028656	-0.295371
C46	C	0.957630	0.955270	-0.292410
C47	C	0.920457	0.916781	-0.335833
N48	N	0.889822	0.807400	-0.371566
N49	N	0.923013	0.841770	-0.332806
C50	C	1.069794	0.324960	-0.352176
C51	C	1.139435	0.324968	-0.352185
C52	C	0.913218	0.317533	-0.535436
C53	C	0.916135	0.314376	-0.613540
C54	C	0.912754	1.141658	-0.344846
C55	C	0.915462	1.063552	-0.341754
C56	C	0.937061	0.291782	-1.052988
C57	C	0.934315	0.294752	-0.979602
C58	C	0.891304	0.341167	-0.944701
C59	C	0.851040	0.384621	-0.983191
C60	C	0.853789	0.381654	-1.056576
C61	C	0.878620	0.354862	-0.725414
C62	C	0.875873	0.357824	-0.652024
C63	C	0.959150	0.267956	-0.648440
C64	C	0.961892	0.264990	-0.721827
C65	C	0.921630	0.308446	-0.760310
N66	N	0.888495	0.344203	-0.869688
N67	N	0.924443	0.305414	-0.835322
C68	C	0.899588	0.332271	-0.169584
C69	C	0.896798	0.335231	-0.091473
H70	H	0.145738	0.403326	-0.436859
C71	C	0.834646	1.063445	-0.436198
N72	N	0.801777	1.092356	-0.474630
C73	C	0.839925	0.909343	-0.430017
N74	N	0.809160	0.877457	-0.466038
C75	C	1.001257	0.916891	-0.241371
N76	N	1.034110	0.887985	-0.202920
H77	H	0.822898	0.722310	-0.449722
H78	H	0.549374	0.403298	-0.436830
C79	C	0.273831	0.415656	-0.450188
N80	N	0.301039	0.451433	-0.488862
H81	H	0.966846	0.595699	-0.281421
C82	C	0.677465	0.415641	-0.450146
N83	N	0.704670	0.451429	-0.488814
C84	C	0.996028	1.070999	-0.247610
N85	N	1.026830	1.102892	-0.211636
H86	H	0.462429	0.439423	-0.366636
C87	C	0.333796	0.457466	-0.368913
N88	N	0.305037	0.509752	-0.375510
H89	H	0.350949	0.210466	-0.337692
C90	C	0.816802	0.578169	-0.456756
N91	N	0.786000	0.546281	-0.492734
C92	C	0.828561	0.408893	-0.613635
N93	N	0.792928	0.447358	-0.584720
C94	C	0.984377	0.240721	-1.091373
N95	N	1.020019	0.202263	-1.120282
C96	C	0.834325	0.402658	-0.767736
N97	N	0.800957	0.438658	-0.799616
C98	C	0.676957	0.234223	-0.254135
N99	N	0.703966	0.198435	-0.215466
H100	H	0.264007	0.246599	-0.267504
C101	C	0.135908	0.234261	-0.254172
N102	N	0.108702	0.198471	-0.215509
H103	H	0.996919	0.227197	-0.750238
H104	H	0.967103	0.259374	-0.948271
H105	H	0.962319	0.728827	-0.286802
C106	C	0.803726	0.435677	-0.944797
N107	N	0.768085	0.474131	-0.915879
C108	C	1.003438	0.220162	-0.606103
N109	N	1.036800	0.184164	-0.574214
C110	C	0.809495	0.429449	-1.098908
N111	N	0.776133	0.465451	-1.130792
H112	H	0.548933	0.246575	-0.267481
H113	H	0.469655	0.210457	-0.337703
