data_functionalizedCrystal
_audit_creation_method	'MofGen! by Chris Wilmer'
_symmetry_space_group_name_H-M	'P1'
_symmetry_Int_Tables_number	1
_symmetry_cell_setting	triclinic
loop_
_symmetry_equiv_pos_as_xyz
  x,y,z
_cell_length_a	6.817900
_cell_length_b	11.102244
_cell_length_c	9.514088
_cell_angle_alpha	88.634471
_cell_angle_beta	118.843545
_cell_angle_gamma	108.604870
loop_
_atom_site_label
_atom_site_type_symbol
_atom_site_fract_x
_atom_site_fract_y
_atom_site_fract_z
V1	V	-4.243916	-0.178092	-0.500739
O2	O	-4.200436	0.006240	-0.491211
O3	O	-4.219780	-0.350896	-0.497310
O4	O	-4.278438	-0.176369	-0.719130
O5	O	-4.141372	-0.169495	-0.267855
V6	V	-4.713655	-0.155923	-0.472885
O7	O	-4.535410	-0.226720	-0.561839
O8	O	-4.872357	-0.107295	-0.411784
O9	O	-4.514584	0.016881	-0.476313
O10	O	-4.874531	-0.340254	-0.482412
O11	O	-4.933595	-0.164520	-0.705768
O12	O	-4.455926	-0.157645	-0.254493
C13	C	-4.068000	-0.392990	-0.489410
C14	C	-4.130106	-0.534266	-0.488062
C15	C	-4.060229	-0.581836	-0.340362
C16	C	-4.118604	-0.714583	-0.339114
C17	C	-4.316728	-0.752179	-0.633279
C18	C	-4.258368	-0.619435	-0.634526
C19	C	-3.945834	-0.560131	-0.170527
C20	C	-4.004209	-0.692878	-0.169280
C21	C	-4.142822	-0.170363	-0.772361
C22	C	-4.252492	-0.170098	-0.950897
C23	C	-4.329705	0.058969	-0.484209
C24	C	-4.246841	0.200243	-0.485568
C25	C	-4.254881	-0.163656	-0.201254
C26	C	-4.124448	-0.163914	-0.022716
H27	H	-4.134252	-0.732469	-0.122534
H28	H	-3.930930	-0.158835	-0.947620
H29	H	-3.833235	-0.715574	-0.097593
H30	H	-3.744808	-0.507066	-0.111872
Cl31	Cl	-4.346256	-0.559638	-0.820215
Cl32	Cl	-4.477969	-0.859256	-0.817395
H33	H	-4.446033	-0.175193	-1.026004
H34	H	-4.028967	-0.520772	-0.111802
