data_functionalizedCrystal
_audit_creation_method	'MofGen! by Chris Wilmer'
_symmetry_space_group_name_H-M	'P1'
_symmetry_Int_Tables_number	1
_symmetry_cell_setting	triclinic
loop_
_symmetry_equiv_pos_as_xyz
  x,y,z
_cell_length_a	16.959454
_cell_length_b	16.959455
_cell_length_c	11.169409
_cell_angle_alpha	89.971901
_cell_angle_beta	89.967057
_cell_angle_gamma	90.017095
loop_
_atom_site_label
_atom_site_type_symbol
_atom_site_fract_x
_atom_site_fract_y
_atom_site_fract_z
Zn1	Zn	-0.314680	1.208444	-0.678803
Zn2	Zn	-0.446887	1.208349	-0.478117
Zn3	Zn	-0.314720	1.076255	-0.478108
Zn4	Zn	-0.446814	1.076237	-0.678733
O5	O	-0.380775	1.142321	-0.578440
O6	O	-0.332232	1.319042	-0.652214
O7	O	-0.429402	1.190794	-0.310166
O8	O	-0.204103	1.093837	-0.504756
O9	O	-0.429364	1.318972	-0.504772
O10	O	-0.204075	1.190956	-0.652205
O11	O	-0.332299	1.093745	-0.310159
O12	O	-0.332228	0.965642	-0.504688
O13	O	-0.429239	1.093807	-0.846692
O14	O	-0.429277	0.965629	-0.652087
O15	O	-0.332161	1.190939	-0.846743
O16	O	-0.557488	1.190777	-0.504704
O17	O	-0.557434	1.093715	-0.652096
C18	C	-0.380749	0.936955	-0.578380
C19	C	-0.380757	0.849098	-0.578382
C20	C	-0.431302	0.477576	-0.501628
C21	C	-0.330314	0.477670	-0.655399
C22	C	-0.330301	0.560216	-0.655370
C23	C	-0.380790	0.601445	-0.578470
C24	C	-0.431292	0.560129	-0.501599
C25	C	-0.279806	0.601538	-0.732248
C26	C	-0.279792	0.684089	-0.732223
C27	C	-0.330277	0.725320	-0.655316
C28	C	-0.380780	0.683999	-0.578441
C29	C	-0.431269	0.725229	-0.501541
C30	C	-0.481769	0.683909	-0.424659
C31	C	-0.481777	0.601360	-0.424692
C32	C	-0.330269	0.807869	-0.655282
C33	C	-0.431259	0.807782	-0.501512
C34	C	-0.586141	1.142255	-0.578420
C35	C	-0.673998	1.142299	-0.578451
C36	C	-1.045476	1.091854	-0.655179
C37	C	-1.045472	1.193008	-0.501824
C38	C	-0.962926	1.192981	-0.501813
C39	C	-0.921651	1.142388	-0.578485
C40	C	-0.962922	1.091824	-0.655168
C41	C	-0.921649	1.243539	-0.425123
C42	C	-0.839098	1.243512	-0.425108
C43	C	-0.797821	1.192923	-0.501787
C44	C	-0.839097	1.142357	-0.578474
C45	C	-0.797823	1.091765	-0.655145
C46	C	-0.839097	1.041203	-0.731839
C47	C	-0.921646	1.041235	-0.731847
C48	C	-0.715273	1.192891	-0.501779
C49	C	-0.715269	1.091734	-0.655134
C50	C	-0.174607	1.142409	-0.578487
C51	C	-0.086750	1.142447	-0.578507
C52	C	-0.380802	1.348489	-0.578502
C53	C	-0.380813	1.436346	-0.578528
C54	C	-0.380687	1.142382	-0.891483
C55	C	-0.380650	1.142408	-1.024883
C56	C	-0.380806	1.142306	-0.266616
C57	C	-0.380620	1.142434	-0.133216
H58	H	-0.681668	1.050539	-0.717575
H59	H	-0.805482	1.000006	-0.794261
C60	C	-0.536704	0.556455	-0.341436
C61	C	-0.587434	0.509107	-0.409289
C62	C	-0.638050	0.467733	-0.332641
H63	H	-0.506525	0.524165	-0.289211
H64	H	-0.566819	0.592804	-0.295649
H65	H	-0.557322	0.472762	-0.455056
H66	H	-0.617629	0.541377	-0.461510
H67	H	-0.668165	0.504082	-0.286854
H68	H	-0.607865	0.435448	-0.280421
H69	H	-0.672481	0.435608	-0.378669
C70	C	-0.670603	1.247864	-0.418470
C71	C	-0.724418	1.292184	-0.351340
C72	C	-0.683298	1.342843	-0.274589
H73	H	-0.638440	1.217716	-0.366027
H74	H	-0.638375	1.282323	-0.464396
H75	H	-0.756633	1.257729	-0.305417
H76	H	-0.756582	1.322348	-0.403751
H77	H	-0.651070	1.377302	-0.320515
H78	H	-0.651137	1.312689	-0.222154
H79	H	-0.719805	1.372925	-0.229040
H80	H	-0.955260	1.284722	-0.362692
C81	C	-0.486165	0.852400	-0.417973
C82	C	-0.530402	0.798544	-0.350678
C83	C	-0.580997	0.839617	-0.273723
H84	H	-0.455976	0.884590	-0.365642
H85	H	-0.520680	0.884598	-0.463759
H86	H	-0.495891	0.766360	-0.304895
H87	H	-0.560607	0.766353	-0.402976
H88	H	-0.615512	0.871814	-0.319509
H89	H	-0.550801	0.871805	-0.221400
H90	H	-0.611023	0.803082	-0.228062
H91	H	-0.289213	0.444096	-0.718014
C92	C	-0.225022	0.556633	-0.815601
C93	C	-0.235822	0.475497	-0.799141
C94	C	-0.185356	0.434103	-0.875894
H95	H	-0.236597	0.570097	-0.896258
H96	H	-0.171882	0.570120	-0.798157
H97	H	-0.288950	0.462016	-0.816593
H98	H	-0.224241	0.462011	-0.718500
H99	H	-0.132216	0.447589	-0.858450
H100	H	-0.196936	0.447572	-0.956545
H101	H	-0.192672	0.379048	-0.864728
C102	C	-0.224873	0.728804	-0.815726
C103	C	-0.180647	0.675028	-0.883055
C104	C	-0.130038	0.716191	-0.959976
H105	H	-0.255052	0.761034	-0.868037
H106	H	-0.190352	0.760970	-0.769914
H107	H	-0.215164	0.642876	-0.928865
H108	H	-0.150452	0.642797	-0.830776
H109	H	-0.095517	0.748356	-0.914163
H110	H	-0.160223	0.748419	-1.012278
H111	H	-0.100019	0.679710	-1.005659
H112	H	-0.289154	0.841508	-0.717881
H113	H	-0.472415	0.443929	-0.439029
C114	C	-1.090384	1.037087	-0.738511
C115	C	-1.137723	1.081834	-0.815495
C116	C	-1.179113	1.031409	-0.892267
H117	H	-1.054069	1.006934	-0.784284
H118	H	-1.122678	1.002688	-0.692588
H119	H	-1.105433	1.116220	-0.861414
H120	H	-1.174053	1.111985	-0.769756
H121	H	-1.211407	0.997010	-0.846343
H122	H	-1.142792	1.001259	-0.938031
H123	H	-1.211243	1.061762	-0.944502
H124	H	-1.079082	1.234193	-0.439394
H125	H	-0.955259	1.000069	-0.794285
H126	H	-0.522881	0.717489	-0.362053
H127	H	-0.805497	1.284684	-0.362661
