data_functionalizedCrystal
_audit_creation_method	'MofGen! by Chris Wilmer'
_symmetry_space_group_name_H-M	'P1'
_symmetry_Int_Tables_number	1
_symmetry_cell_setting	triclinic
loop_
_symmetry_equiv_pos_as_xyz
  x,y,z
_cell_length_a	16.625546
_cell_length_b	13.897449
_cell_length_c	13.897441
_cell_angle_alpha	89.979267
_cell_angle_beta	90.033447
_cell_angle_gamma	89.976252
loop_
_atom_site_label
_atom_site_type_symbol
_atom_site_fract_x
_atom_site_fract_y
_atom_site_fract_z
Zn1	Zn	-0.320948	-1.474671	0.545362
Zn2	Zn	-0.070948	-1.224671	0.795362
Zn3	Zn	0.179052	-0.974671	1.045362
Zn4	Zn	0.429052	-0.724671	1.295362
Zn5	Zn	-0.455799	-1.474551	0.384055
Zn6	Zn	-0.205799	-1.224551	0.634055
Zn7	Zn	0.044201	-0.974551	0.884055
Zn8	Zn	0.294201	-0.724551	1.134055
Zn9	Zn	-0.320987	-1.313360	0.384080
Zn10	Zn	-0.070987	-1.063360	0.634080
Zn11	Zn	0.179013	-0.813360	0.884080
Zn12	Zn	0.429013	-0.563360	1.134080
Zn13	Zn	-0.455746	-1.313328	0.545308
Zn14	Zn	-0.205746	-1.063328	0.795308
Zn15	Zn	0.044254	-0.813328	1.045308
Zn16	Zn	0.294254	-0.563328	1.295308
O17	O	-0.388370	-1.393977	0.464702
O18	O	-0.138370	-1.143977	0.714702
O19	O	0.111630	-0.893977	0.964702
O20	O	0.361630	-0.643977	1.214702
O21	O	-0.338843	-1.609636	0.523977
O22	O	-0.088843	-1.359636	0.773977
O23	O	0.161157	-1.109636	1.023977
O24	O	0.411157	-0.859636	1.273977
O25	O	-0.437954	-1.453132	0.249077
O26	O	-0.187954	-1.203132	0.499077
O27	O	0.062046	-0.953132	0.749077
O28	O	0.312046	-0.703132	0.999077
O29	O	-0.208149	-1.334821	0.405508
O30	O	0.041851	-1.084821	0.655508
O31	O	0.291851	-0.834821	0.905508
O32	O	0.541851	-0.584821	1.155508
O33	O	-0.437917	-1.609549	0.405465
O34	O	-0.187917	-1.359549	0.655465
O35	O	0.062083	-1.109549	0.905465
O36	O	0.312083	-0.859549	1.155465
O37	O	-0.208121	-1.453336	0.524001
O38	O	0.041879	-1.203336	0.774001
O39	O	0.291879	-0.953336	1.024001
O40	O	0.541879	-0.703336	1.274001
O41	O	-0.338908	-1.334705	0.249095
O42	O	-0.088908	-1.084705	0.499095
O43	O	0.161092	-0.834705	0.749095
O44	O	0.411092	-0.584705	0.999095
O45	O	-0.338857	-1.178374	0.405455
O46	O	-0.088857	-0.928374	0.655455
O47	O	0.161143	-0.678374	0.905455
O48	O	0.411143	-0.428374	1.155455
O49	O	-0.437826	-1.334767	0.680297
O50	O	-0.187826	-1.084767	0.930297
O51	O	0.062174	-0.834767	1.180297
O52	O	0.312174	-0.584767	1.430297
O53	O	-0.437864	-1.178351	0.523909
O54	O	-0.187864	-0.928351	0.773909
O55	O	0.062136	-0.678351	1.023909
O56	O	0.312136	-0.428351	1.273909
O57	O	-0.338791	-1.453305	0.680337
O58	O	-0.088791	-1.203305	0.930337
O59	O	0.161209	-0.953305	1.180337
O60	O	0.411209	-0.703305	1.430337
O61	O	-0.568624	-1.453101	0.405413
O62	O	-0.318624	-1.203101	0.655413
O63	O	-0.068624	-0.953101	0.905413
O64	O	0.181376	-0.703101	1.155413
O65	O	-0.568585	-1.334651	0.523884
O66	O	-0.318585	-1.084651	0.773884
O67	O	-0.068585	-0.834651	1.023884
O68	O	0.181415	-0.584651	1.273884
C69	C	-0.388359	-1.143363	0.464680
C70	C	-0.138359	-0.893363	0.714680
C71	C	0.111641	-0.643363	0.964680
C72	C	0.361641	-0.393363	1.214680
C73	C	-0.388374	-1.036149	0.464693
C74	C	-0.138374	-0.786149	0.714693
C75	C	0.111626	-0.536149	0.964693
C76	C	0.361626	-0.286149	1.214693
C77	C	-0.597861	-1.393886	0.464661
C78	C	-0.347861	-1.143886	0.714661
C79	C	-0.097861	-0.893886	0.964661
C80	C	0.152139	-0.643886	1.214661
C81	C	-0.687482	-1.393935	0.464676
C82	C	-0.437482	-1.143935	0.714676
C83	C	-0.187482	-0.893935	0.964676
C84	C	0.062518	-0.643935	1.214676
C85	C	-0.388299	-1.394046	0.716295
C86	C	-0.138299	-1.144046	0.966295
C87	C	0.111701	-0.894046	1.216295
C88	C	0.361701	-0.644046	1.466295
C89	C	-0.388268	-1.394075	0.823509
C90	C	-0.138268	-1.144075	1.073509
C91	C	0.111732	-0.894075	1.323509
C92	C	0.361732	-0.644075	1.573509
C93	C	-1.015657	-1.394104	0.464777
C94	C	-0.765657	-1.144104	0.714777
C95	C	-0.515657	-0.894104	0.964777
C96	C	-0.265657	-0.644104	1.214777
C97	C	-0.924349	-1.394054	0.464751
C98	C	-0.674349	-1.144054	0.714751
C99	C	-0.424349	-0.894054	0.964751
C100	C	-0.174349	-0.644054	1.214751
C101	C	-0.851573	-1.394019	0.464726
C102	C	-0.601573	-1.144019	0.714726
C103	C	-0.351573	-0.894019	0.964726
C104	C	-0.101573	-0.644019	1.214726
C105	C	-0.760258	-1.393970	0.464702
C106	C	-0.510258	-1.143970	0.714702
C107	C	-0.260258	-0.893970	0.964702
C108	C	-0.010258	-0.643970	1.214702
C109	C	-0.178061	-1.394095	0.464763
C110	C	0.071939	-1.144095	0.714763
C111	C	0.321939	-0.894095	0.964763
C112	C	0.571939	-0.644095	1.214763
C113	C	-0.088440	-1.394146	0.464789
C114	C	0.161560	-1.144146	0.714789
C115	C	0.411560	-0.894146	0.964789
C116	C	0.661560	-0.644146	1.214789
C117	C	-0.388381	-1.645570	0.464724
C118	C	-0.138381	-1.395570	0.714724
C119	C	0.111619	-1.145570	0.964724
C120	C	0.361619	-0.895570	1.214724
C121	C	-0.388386	-1.752784	0.464734
C122	C	-0.138386	-1.502784	0.714734
C123	C	0.111614	-1.252784	0.964734
C124	C	0.361614	-1.002784	1.214734
C125	C	-0.388377	-0.839854	0.464718
C126	C	-0.138377	-0.589854	0.714718
C127	C	0.111623	-0.339854	0.964718
C128	C	0.361623	-0.089854	1.214718
C129	C	-0.388373	-0.949086	0.464702
C130	C	-0.138373	-0.699086	0.714702
C131	C	0.111627	-0.449086	0.964702
C132	C	0.361627	-0.199086	1.214702
C133	C	-0.388383	-1.393965	0.214087
C134	C	-0.138383	-1.143965	0.464087
C135	C	0.111617	-0.893965	0.714087
C136	C	0.361617	-0.643965	0.964087
C137	C	-0.388186	-1.394122	0.106874
C138	C	-0.138186	-1.144122	0.356874
C139	C	0.111814	-0.894122	0.606874
C140	C	0.361814	-0.644122	0.856874
C141	C	-0.388214	-1.394101	1.019804
C142	C	-0.138214	-1.144101	1.269804
C143	C	0.111786	-0.894101	1.519804
C144	C	0.361786	-0.644101	1.769804
C145	C	-0.388246	-1.394084	0.910571
C146	C	-0.138246	-1.144084	1.160571
C147	C	0.111754	-0.894084	1.410571
C148	C	0.361754	-0.644084	1.660571
