data_functionalizedCrystal
_audit_creation_method	'MofGen! by Chris Wilmer'
_symmetry_space_group_name_H-M	'P1'
_symmetry_Int_Tables_number	1
_symmetry_cell_setting	triclinic
loop_
_symmetry_equiv_pos_as_xyz
  x,y,z
_cell_length_a	21.295417
_cell_length_b	19.121102
_cell_length_c	19.120904
_cell_angle_alpha	90.088173
_cell_angle_beta	92.409419
_cell_angle_gamma	87.583861
loop_
_atom_site_label
_atom_site_type_symbol
_atom_site_fract_x
_atom_site_fract_y
_atom_site_fract_z
Zn1	Zn	-0.307921	1.054819	-0.442038
Zn2	Zn	-0.057921	1.304819	-0.192038
Zn3	Zn	0.192079	1.554819	0.057962
Zn4	Zn	0.442079	1.804819	0.307962
Zn5	Zn	-0.408895	1.059730	-0.324794
Zn6	Zn	-0.158895	1.309730	-0.074794
Zn7	Zn	0.091105	1.559730	0.175206
Zn8	Zn	0.341105	1.809730	0.425206
Zn9	Zn	-0.298968	0.942589	-0.319823
Zn10	Zn	-0.048968	1.192589	-0.069823
Zn11	Zn	0.201032	1.442589	0.180177
Zn12	Zn	0.451032	1.692589	0.430177
Zn13	Zn	-0.408472	0.937541	-0.436996
Zn14	Zn	-0.158472	1.187541	-0.186996
Zn15	Zn	0.091528	1.437541	0.063004
Zn16	Zn	0.341528	1.687541	0.313004
O17	O	-0.356064	0.998670	-0.380912
O18	O	-0.106064	1.248670	-0.130912
O19	O	0.143936	1.498670	0.119088
O20	O	0.393936	1.748670	0.369088
O21	O	-0.325240	1.153575	-0.430676
O22	O	-0.075240	1.403575	-0.180676
O23	O	0.174760	1.653575	0.069324
O24	O	0.424760	1.903575	0.319324
O25	O	-0.390743	1.048358	-0.226029
O26	O	-0.140743	1.298358	0.023971
O27	O	0.109257	1.548358	0.273971
O28	O	0.359257	1.798358	0.523971
O29	O	-0.212069	0.957533	-0.336065
O30	O	0.037931	1.207533	-0.086065
O31	O	0.287931	1.457533	0.163935
O32	O	0.537931	1.707533	0.413935
O33	O	-0.399425	1.157183	-0.344537
O34	O	-0.149425	1.407183	-0.094537
O35	O	0.100575	1.657183	0.155463
O36	O	0.350575	1.907183	0.405463
O37	O	-0.218647	1.039988	-0.425856
O38	O	0.031353	1.289988	-0.175856
O39	O	0.281353	1.539988	0.074144
O40	O	0.531353	1.789988	0.324144
O41	O	-0.309980	0.962295	-0.222377
O42	O	-0.059980	1.212295	0.027623
O43	O	0.190020	1.462295	0.277623
O44	O	0.440020	1.712295	0.527623
O45	O	-0.309570	0.843814	-0.331175
O46	O	-0.059570	1.093814	-0.081175
O47	O	0.190430	1.343814	0.168825
O48	O	0.440430	1.593814	0.418825
O49	O	-0.398704	0.948931	-0.535769
O50	O	-0.148704	1.198931	-0.285769
O51	O	0.101296	1.448931	-0.035769
O52	O	0.351296	1.698931	0.214231
O53	O	-0.390022	0.840106	-0.417262
O54	O	-0.140022	1.090106	-0.167262
O55	O	0.109978	1.340106	0.082738
O56	O	0.359978	1.590106	0.332738
O57	O	-0.324829	1.035094	-0.539474
O58	O	-0.074829	1.285094	-0.289474
O59	O	0.175171	1.535094	-0.039474
O60	O	0.425171	1.785094	0.210526
O61	O	-0.496925	1.043464	-0.339648
O62	O	-0.246925	1.293464	-0.089648
O63	O	0.003075	1.543464	0.160352
O64	O	0.253075	1.793464	0.410352
O65	O	-0.496614	0.953692	-0.422082
O66	O	-0.246614	1.203692	-0.172082
O67	O	0.003386	1.453692	0.077918
O68	O	0.253386	1.703692	0.327918
C69	C	-0.348779	0.816522	-0.373133
C70	C	-0.098779	1.066522	-0.123133
C71	C	0.151221	1.316522	0.126867
C72	C	0.401221	1.566522	0.376867
C73	C	-0.345678	0.738598	-0.369821
C74	C	-0.095678	0.988598	-0.119821
C75	C	0.154322	1.238598	0.130179
C76	C	0.404322	1.488598	0.380179
C77	C	-0.386167	0.700080	-0.413015
C78	C	-0.136167	0.950080	-0.163015
C79	C	0.113833	1.200080	0.086985
C80	C	0.363833	1.450080	0.336985
C81	C	-0.383245	0.626862	-0.409907
C82	C	-0.133245	0.876862	-0.159907
C83	C	0.116755	1.126862	0.090093
C84	C	0.366755	1.376862	0.340093
C85	C	-0.339837	0.592163	-0.363600
C86	C	-0.089837	0.842163	-0.113600
C87	C	0.160163	1.092163	0.136400
C88	C	0.410163	1.342163	0.386400
C89	C	-0.299344	0.630687	-0.320404
C90	C	-0.049344	0.880687	-0.070404
C91	C	0.200656	1.130687	0.179596
C92	C	0.450656	1.380687	0.429596
C93	C	-0.302263	0.703903	-0.323516
C94	C	-0.052263	0.953903	-0.073516
C95	C	0.197737	1.203903	0.176484
C96	C	0.447737	1.453903	0.426484
C97	C	-0.328921	0.371192	-0.351968
C98	C	-0.078921	0.621192	-0.101968
C99	C	0.171079	0.871192	0.148032
C100	C	0.421079	1.121192	0.398032
C101	C	-0.326007	0.297970	-0.348857
C102	C	-0.076007	0.547970	-0.098857
C103	C	0.173993	0.797970	0.151143
C104	C	0.423993	1.047970	0.401143
C105	C	-0.409907	0.294150	-0.438361
C106	C	-0.159907	0.544150	-0.188361
C107	C	0.090093	0.794150	0.061639
C108	C	0.340093	1.044150	0.311639
C109	C	-0.412825	0.367368	-0.441467
C110	C	-0.162825	0.617368	-0.191467
C111	C	0.087175	0.867368	0.058533
C112	C	0.337175	1.117368	0.308533
C113	C	-0.372330	0.405885	-0.398273
C114	C	-0.122330	0.655885	-0.148273
C115	C	0.127670	0.905885	0.101727
C116	C	0.377670	1.155885	0.351727
C117	C	-0.336851	0.517323	-0.360421
C118	C	-0.086851	0.767323	-0.110421
C119	C	0.163149	1.017323	0.139579
C120	C	0.413149	1.267323	0.389579
C121	C	-0.375313	0.480724	-0.401457
C122	C	-0.125313	0.730724	-0.151457
C123	C	0.124687	0.980724	0.098543
C124	C	0.374687	1.230724	0.348543
C125	C	-0.519611	0.998582	-0.380873
C126	C	-0.269611	1.248582	-0.130873
C127	C	-0.019611	1.498582	0.119127
C128	C	0.230389	1.748582	0.369127
C129	C	-0.589580	0.998607	-0.380883
C130	C	-0.339580	1.248607	-0.130883
C131	C	-0.089580	1.498607	0.119117
C132	C	0.160420	1.748607	0.369117
C133	C	-0.625815	1.041515	-0.427668
C134	C	-0.375815	1.291515	-0.177668
C135	C	-0.125815	1.541515	0.072332
C136	C	0.124185	1.791515	0.322332
C137	C	-0.691559	1.041539	-0.427686
C138	C	-0.441559	1.291539	-0.177686
C139	C	-0.191559	1.541539	0.072314
C140	C	0.058441	1.791539	0.322314
C141	C	-0.721066	0.998663	-0.380907
C142	C	-0.471066	1.248663	-0.130907
C143	C	-0.221066	1.498663	0.119093
C144	C	0.028934	1.748663	0.369093
C145	C	-0.684823	0.955747	-0.334118
C146	C	-0.434823	1.205747	-0.084118
C147	C	-0.184823	1.455747	0.165882
C148	C	0.065177	1.705747	0.415882
C149	C	-0.619080	0.955719	-0.334106
C150	C	-0.369080	1.205719	-0.084106
C151	C	-0.119080	1.455719	0.165894
C152	C	0.130920	1.705719	0.415894
N153	N	-0.821870	0.995988	-0.319328
N154	N	-0.571870	1.245988	-0.069328
N155	N	-0.321870	1.495988	0.180672
N156	N	-0.071870	1.745988	0.430672
N157	N	-0.884323	0.996019	-0.319341
N158	N	-0.634323	1.246019	-0.069341
N159	N	-0.384323	1.496019	0.180659
N160	N	-0.134323	1.746019	0.430659
C161	C	-0.919145	0.998744	-0.380942
C162	C	-0.669145	1.248744	-0.130942
C163	C	-0.419145	1.498744	0.119058
C164	C	-0.169145	1.748744	0.369058
N165	N	-0.889155	1.001450	-0.442531
N166	N	-0.639155	1.251450	-0.192531
N167	N	-0.389155	1.501450	0.057469
N168	N	-0.139155	1.751450	0.307469
N169	N	-0.826696	1.001423	-0.442516
N170	N	-0.576696	1.251423	-0.192516
N171	N	-0.326696	1.501423	0.057484
N172	N	-0.076696	1.751423	0.307484
C173	C	-0.792353	0.998688	-0.380915
C174	C	-0.542353	1.248688	-0.130915
C175	C	-0.292353	1.498688	0.119085
C176	C	-0.042353	1.748688	0.369085
C177	C	-1.026667	1.041679	-0.427751
C178	C	-0.776667	1.291679	-0.177751
C179	C	-0.526667	1.541679	0.072249
C180	C	-0.276667	1.791679	0.322249
C181	C	-1.092413	1.041698	-0.427771
C182	C	-0.842413	1.291698	-0.177771
C183	C	-0.592413	1.541698	0.072229
C184	C	-0.342413	1.791698	0.322229
C185	C	-1.085675	0.955911	-0.334197
C186	C	-0.835675	1.205911	-0.084197
C187	C	-0.585675	1.455911	0.165803
C188	C	-0.335675	1.705911	0.415803
C189	C	-1.019931	0.955888	-0.334183
C190	C	-0.769931	1.205888	-0.084183
C191	C	-0.519931	1.455888	0.165817
C192	C	-0.269931	1.705888	0.415817
C193	C	-0.990431	0.998776	-0.380960
C194	C	-0.740431	1.248776	-0.130960
C195	C	-0.490431	1.498776	0.119040
C196	C	-0.240431	1.748776	0.369040
C197	C	-0.191880	0.998776	-0.380968
C198	C	0.058120	1.248776	-0.130968
C199	C	0.308120	1.498776	0.119032
C200	C	0.558120	1.748776	0.369032
C201	C	-0.121915	0.998822	-0.380992
C202	C	0.128085	1.248822	-0.130992
C203	C	0.378085	1.498822	0.119008
C204	C	0.628085	1.748822	0.369008
C205	C	-0.362718	0.990902	-0.563770
C206	C	-0.112718	1.240902	-0.313770
C207	C	0.137282	1.490902	-0.063770
C208	C	0.387282	1.740902	0.186230
C209	C	-0.365554	0.987591	-0.641693
C210	C	-0.115554	1.237591	-0.391693
C211	C	0.134446	1.487591	-0.141693
C212	C	0.384446	1.737591	0.108307
C213	C	-0.363378	1.181528	-0.388723
C214	C	-0.113378	1.431528	-0.138723
C215	C	0.136622	1.681528	0.111277
C216	C	0.386622	1.931528	0.361277
C217	C	-0.366495	1.259452	-0.392052
C218	C	-0.116495	1.509452	-0.142052
C219	C	0.133505	1.759452	0.107948
C220	C	0.383505	2.009452	0.357948
C221	C	-0.328425	1.030895	-0.680232
C222	C	-0.078425	1.280895	-0.430232
C223	C	0.171575	1.530895	-0.180232
C224	C	0.421575	1.780895	0.069768
C225	C	-0.331087	1.027776	-0.753448
C226	C	-0.081087	1.277776	-0.503448
C227	C	0.168913	1.527776	-0.253448
C228	C	0.418913	1.777776	-0.003448
C229	C	-0.370881	0.981357	-0.788125
C230	C	-0.120881	1.231357	-0.538125
C231	C	0.129119	1.481357	-0.288125
C232	C	0.379119	1.731357	-0.038125
C233	C	-0.408011	0.938049	-0.749582
C234	C	-0.158011	1.188049	-0.499582
C235	C	0.091989	1.438049	-0.249582
C236	C	0.341989	1.688049	0.000418
C237	C	-0.405345	0.941165	-0.676366
C238	C	-0.155345	1.191165	-0.426366
C239	C	0.094655	1.441165	-0.176366
C240	C	0.344655	1.691165	0.073634
C241	C	-0.380849	0.969701	-1.009092
C242	C	-0.130849	1.219701	-0.759092
C243	C	0.119151	1.469701	-0.509092
C244	C	0.369151	1.719701	-0.259092
C245	C	-0.383513	0.966590	-1.082313
C246	C	-0.133513	1.216590	-0.832313
C247	C	0.116487	1.466590	-0.582313
C248	C	0.366487	1.716590	-0.332313
C249	C	-0.306588	1.056317	-1.086174
C250	C	-0.056588	1.306317	-0.836174
C251	C	0.193412	1.556317	-0.586174
C252	C	0.443412	1.806317	-0.336174
C253	C	-0.303929	1.059432	-1.012957
C254	C	-0.053929	1.309432	-0.762957
C255	C	0.196071	1.559432	-0.512957
C256	C	0.446071	1.809432	-0.262957
C257	C	-0.341057	1.016121	-0.974420
C258	C	-0.091057	1.266121	-0.724420
C259	C	0.158943	1.516121	-0.474420
C260	C	0.408943	1.766121	-0.224420
C261	C	-0.373604	0.978169	-0.862965
C262	C	-0.123604	1.228169	-0.612965
C263	C	0.126396	1.478169	-0.362965
C264	C	0.376396	1.728169	-0.112965
C265	C	-0.338330	1.019305	-0.899582
C266	C	-0.088330	1.269305	-0.649582
C267	C	0.161670	1.519305	-0.399582
C268	C	0.411670	1.769305	-0.149582
C269	C	-0.349392	1.006448	-0.198768
C270	C	-0.099392	1.256448	0.051232
C271	C	0.150608	1.506448	0.301232
C272	C	0.400608	1.756448	0.551232
C273	C	-0.346385	1.009894	-0.120851
C274	C	-0.096385	1.259894	0.129149
C275	C	0.153615	1.509894	0.379149
C276	C	0.403615	1.759894	0.629149
H277	H	-0.295952	0.402544	-0.316791
H278	H	-0.045952	0.652544	-0.066791
H279	H	0.204048	0.902544	0.183209
H280	H	0.454048	1.152544	0.433209
F281	F	-0.426338	0.585871	-0.455881
F282	F	-0.176338	0.835871	-0.205881
F283	F	0.073662	1.085871	0.044119
F284	F	0.323662	1.335871	0.294119
H285	H	-1.121914	1.076638	-0.465872
H286	H	-0.871914	1.326638	-0.215872
H287	H	-0.621914	1.576638	0.034128
H288	H	-0.371914	1.826638	0.284128
H289	H	-0.305927	1.057097	-0.871344
H290	H	-0.055927	1.307097	-0.621344
H291	H	0.194073	1.557097	-0.371344
H292	H	0.444073	1.807097	-0.121344
H293	H	-0.721067	1.076473	-0.465792
H294	H	-0.471067	1.326473	-0.215792
H295	H	-0.221067	1.576473	0.034208
H296	H	0.028933	1.826473	0.284208
F297	F	-0.444861	0.895073	-0.635351
F298	F	-0.194861	1.145073	-0.385351
F299	F	0.055139	1.395073	-0.135351
F300	F	0.305139	1.645073	0.114649
H301	H	-0.406007	0.940378	-0.891207
H302	H	-0.156007	1.190378	-0.641207
H303	H	0.093993	1.440378	-0.391207
H304	H	0.343993	1.690378	-0.141207
F305	F	-0.716227	0.910113	-0.284336
F306	F	-0.466227	1.160113	-0.034336
F307	F	-0.216227	1.410113	0.215664
F308	F	0.033773	1.660113	0.465664
H309	H	-0.300854	1.063040	-0.784823
H310	H	-0.050854	1.313040	-0.534823
H311	H	0.199146	1.563040	-0.284823
H312	H	0.449146	1.813040	-0.034823
H313	H	-0.589576	0.920778	-0.296007
H314	H	-0.339576	1.170778	-0.046007
H315	H	-0.089576	1.420778	0.203993
H316	H	0.160424	1.670778	0.453993
F317	F	-0.261575	1.108837	-0.976056
F318	F	-0.011575	1.358837	-0.726056
F319	F	0.238425	1.608837	-0.476056
F320	F	0.488425	1.858837	-0.226056
H321	H	-1.002648	1.076599	-0.465842
H322	H	-0.752648	1.326599	-0.215842
H323	H	-0.502648	1.576599	0.034158
H324	H	-0.252648	1.826599	0.284158
H325	H	-0.421516	0.728326	-0.450721
H326	H	-0.171516	0.978326	-0.200721
H327	H	0.078484	1.228326	0.049279
H328	H	0.328484	1.478326	0.299279
F329	F	-0.459027	0.404291	-0.490751
F330	F	-0.209027	0.654291	-0.240751
F331	F	0.040973	0.904291	0.009249
F332	F	0.290973	1.154291	0.259249
H333	H	-0.410653	0.508979	-0.439163
H334	H	-0.160653	0.758979	-0.189163
H335	H	0.089347	1.008979	0.060837
H336	H	0.339347	1.258979	0.310837
H337	H	-0.301509	0.489063	-0.322716
H338	H	-0.051509	0.739063	-0.072716
H339	H	0.198491	0.989063	0.177284
H340	H	0.448491	1.239063	0.427284
H341	H	-0.296023	1.068696	-0.652003
H342	H	-0.046023	1.318696	-0.402003
H343	H	0.203977	1.568696	-0.152003
H344	H	0.453977	1.818696	0.097997
F345	F	-0.450360	0.888643	-0.786490
F346	F	-0.200360	1.138643	-0.536490
F347	F	0.049640	1.388643	-0.286490
F348	F	0.299640	1.638643	-0.036490
H349	H	-0.990426	0.920952	-0.296084
H350	H	-0.740426	1.170952	-0.046084
H351	H	-0.490426	1.420952	0.203916
H352	H	-0.240426	1.670952	0.453916
F353	F	-0.453003	0.253152	-0.484327
F354	F	-0.203003	0.503152	-0.234327
F355	F	0.046997	0.753152	0.015673
F356	F	0.296997	1.003152	0.265673
F357	F	-1.117073	0.910277	-0.284412
F358	F	-0.867073	1.160277	-0.034412
F359	F	-0.617073	1.410277	0.215588
F360	F	-0.367073	1.660277	0.465588
H361	H	-0.263998	0.602429	-0.282703
H362	H	-0.013998	0.852429	-0.032703
H363	H	0.236002	1.102429	0.217297
H364	H	0.486002	1.352429	0.467297
H365	H	-0.290652	0.269721	-0.311153
H366	H	-0.040652	0.519721	-0.061153
H367	H	0.209348	0.769721	0.188847
H368	H	0.459348	1.019721	0.438847
H369	H	-0.269290	0.735264	-0.288347
H370	H	-0.019290	0.985264	-0.038347
H371	H	0.230710	1.235264	0.211653
H372	H	0.480710	1.485264	0.461653
F373	F	-0.425867	0.917180	-1.119217
F374	F	-0.175867	1.167180	-0.869217
F375	F	0.074133	1.417180	-0.619217
F376	F	0.324133	1.667180	-0.369217
F377	F	-0.594423	1.087156	-0.477455
F378	F	-0.344423	1.337156	-0.227455
F379	F	-0.094423	1.587156	0.022545
F380	F	0.155577	1.837156	0.272545
H381	H	-0.411091	0.934445	-0.977724
H382	H	-0.161091	1.184445	-0.727724
H383	H	0.088909	1.434445	-0.477724
H384	H	0.338909	1.684445	-0.227724
F385	F	-0.267076	1.102406	-1.127193
F386	F	-0.017076	1.352406	-0.877193
F387	F	0.232924	1.602406	-0.627193
F388	F	0.482924	1.852406	-0.377193
