data_functionalizedCrystal
_audit_creation_method	'MofGen! by Chris Wilmer'
_symmetry_space_group_name_H-M	'P1'
_symmetry_Int_Tables_number	1
_symmetry_cell_setting	triclinic
loop_
_symmetry_equiv_pos_as_xyz
  x,y,z
_cell_length_a	17.639054
_cell_length_b	18.050590
_cell_length_c	17.640968
_cell_angle_alpha	78.766172
_cell_angle_beta	70.330395
_cell_angle_gamma	101.206423
loop_
_atom_site_label
_atom_site_type_symbol
_atom_site_fract_x
_atom_site_fract_y
_atom_site_fract_z
Zn1	Zn	1.354484	0.098333	-0.721370
Zn2	Zn	1.326522	-0.057356	-0.583516
Zn3	Zn	1.188765	0.035383	-0.555623
Zn4	Zn	1.216603	-0.057292	-0.693389
O5	O	1.271594	0.004767	-0.638474
O6	O	1.466131	0.103999	-0.726467
O7	O	1.284896	-0.071426	-0.464468
O8	O	1.210799	0.147675	-0.577646
O9	O	1.445587	-0.010386	-0.625186
O10	O	1.332553	0.193924	-0.699420
O11	O	1.183686	-0.003291	-0.443975
O12	O	1.077102	-0.003229	-0.550514
O13	O	1.258246	-0.010277	-0.812448
O14	O	1.097555	-0.071317	-0.651730
O15	O	1.359547	0.104061	-0.833006
O16	O	1.311890	-0.161289	-0.598054
O17	O	1.231133	-0.161242	-0.678777
C18	C	1.057418	-0.044097	-0.595059
C19	C	0.965796	-0.065015	-0.576506
C20	C	1.271524	-0.188207	-0.638428
C21	C	1.271575	-0.270739	-0.638452
C22	C	0.825948	-0.153991	-0.497548
C23	C	0.912041	-0.134329	-0.514988
C24	C	0.933473	-0.015338	-0.620612
C25	C	0.847380	-0.034992	-0.603184
C26	C	0.793624	-0.104320	-0.541650
C27	C	0.815057	0.014679	-0.647286
C28	C	0.728971	-0.004972	-0.629856
C29	C	0.675208	-0.074294	-0.568324
C30	C	0.707538	-0.123971	-0.524220
C31	C	0.868814	0.084009	-0.708815
C32	C	0.836490	0.133681	-0.752918
C33	C	0.750403	0.114027	-0.735492
C34	C	0.696641	0.044705	-0.673960
C35	C	0.718074	0.163703	-0.779596
C36	C	0.631988	0.144052	-0.762166
C37	C	0.610555	0.025053	-0.656530
C38	C	1.315620	-0.470145	-0.594655
C39	C	1.350970	-0.497704	-0.673961
C40	C	1.271628	-0.421851	-0.638494
C41	C	1.236369	-0.541347	-0.559238
C42	C	1.271680	-0.567820	-0.638529
C43	C	1.307024	-0.448305	-0.717848
C44	C	1.192379	-0.491963	-0.603067
C45	C	1.227710	-0.519495	-0.682420
C46	C	1.271600	-0.337762	-0.638474
C47	C	1.271710	-0.651905	-0.638558
C48	C	1.486606	0.053821	-0.682059
C49	C	1.578231	0.074725	-0.700632
C50	C	1.315121	0.053921	-0.853472
C51	C	1.333670	0.074868	-0.945091
C52	C	1.271690	0.198504	-0.638543
C53	C	1.271731	0.281063	-0.638572
C54	C	1.130997	-0.153887	-1.192905
C55	C	1.148444	-0.134191	-1.278999
C56	C	1.253919	-0.015142	-1.300393
C57	C	1.236478	-0.034826	-1.214299
C58	C	1.175017	-0.104200	-1.160562
C59	C	1.280498	0.014861	-1.181956
C60	C	1.263062	-0.004823	-1.095869
C61	C	1.201605	-0.074195	-1.042127
C62	C	1.157580	-0.123885	-1.074476
C63	C	1.341964	0.084232	-1.235695
C64	C	1.385984	0.133919	-1.203352
C65	C	1.368543	0.114238	-1.117263
C66	C	1.307086	0.044866	-1.063521
C67	C	1.412568	0.163927	-1.084915
C68	C	1.395131	0.144242	-0.998829
C69	C	1.289650	0.025181	-0.977435
C70	C	1.228283	-0.044132	-0.424322
C71	C	1.209894	-0.064833	-0.332736
H72	H	0.566784	-0.031404	-0.606430
H73	H	1.436028	0.190402	-1.247117
Br74	Br	1.206227	-0.068964	-0.904495
H75	H	1.187413	-0.090224	-0.972031
H76	H	1.107512	-0.180363	-1.030715
H77	H	0.977253	0.041110	-0.670710
Br78	Br	1.165755	-0.555379	-0.744321
H79	H	1.430976	0.184703	-0.972494
H80	H	0.782177	-0.210449	-0.447448
Br81	Br	1.186632	-0.608256	-0.447503
Br82	Br	0.558374	-0.100962	-0.544660
H83	H	0.880269	0.190128	-0.803016
Br84	Br	0.955908	-0.201756	-0.455139
Br85	Br	1.088694	-0.201631	-1.322891
Br86	Br	1.377664	-0.433981	-0.532944
H87	H	0.761854	0.220153	-0.829690
Br88	Br	0.634579	-0.218076	-0.440736
H89	H	1.462615	0.220407	-1.128681
H90	H	0.938909	0.100009	-0.723001
Br91	Br	1.462720	-0.503080	-0.723953
H92	H	1.080929	-0.210365	-1.149145
Br93	Br	0.588113	0.211469	-0.822012
Br94	Br	1.356903	-0.381521	-0.829643
Br95	Br	1.080653	-0.486542	-0.553067
H96	H	1.356160	0.100256	-1.305792
Br97	Br	1.337332	0.079003	-1.373330
