data_functionalizedCrystal
_audit_creation_method	'MofGen! by Chris Wilmer'
_symmetry_space_group_name_H-M	'P1'
_symmetry_Int_Tables_number	1
_symmetry_cell_setting	triclinic
loop_
_symmetry_equiv_pos_as_xyz
  x,y,z
_cell_length_a	6.817900
_cell_length_b	11.168121
_cell_length_c	16.305550
_cell_angle_alpha	93.901156
_cell_angle_beta	103.455250
_cell_angle_gamma	108.508496
loop_
_atom_site_label
_atom_site_type_symbol
_atom_site_fract_x
_atom_site_fract_y
_atom_site_fract_z
V1	V	-4.052075	-0.175770	-0.263038
O2	O	-4.012761	0.007350	-0.258024
O3	O	-4.028756	-0.347468	-0.261246
O4	O	-4.003154	-0.173548	-0.377755
O5	O	-4.038540	-0.167775	-0.140708
V6	V	-4.532520	-0.153810	-0.248406
O7	O	-4.320084	-0.223942	-0.295136
O8	O	-4.714708	-0.105639	-0.216308
O9	O	-4.332632	0.017888	-0.250198
O10	O	-4.689230	-0.336930	-0.253420
O11	O	-4.663451	-0.161806	-0.370736
O12	O	-4.358234	-0.156033	-0.133689
C13	C	-3.879875	-0.389310	-0.257099
C14	C	-3.942093	-0.529678	-0.256398
C15	C	-4.143791	-0.598385	-0.260087
C16	C	-4.208100	-0.743464	-0.259363
C17	C	-3.847216	-0.167455	-0.405716
C18	C	-3.888668	-0.166774	-0.499498
C19	C	-4.039367	-0.164135	-0.840243
C20	C	-3.802168	-0.156300	-0.799315
C21	C	-3.759155	-0.157531	-0.701820
C22	C	-3.964601	-0.165443	-0.671196
C23	C	-4.149960	-0.290149	-0.721827
C24	C	-4.191720	-0.289444	-0.819377
C25	C	-4.077095	-0.048261	-0.794395
C26	C	-4.029020	-0.047274	-0.696553
C27	C	-3.922361	-0.166187	-0.575658
C28	C	-4.081618	-0.163399	-0.935782
C29	C	-4.144856	0.059723	-0.254343
C30	C	-4.061876	0.200090	-0.255049
C31	C	-4.177514	-0.162130	-0.105724
C32	C	-4.115300	-0.162804	-0.011941
H33	H	-4.268865	-0.549804	-0.263786
O34	O	-4.414110	-0.814019	-0.263009
C35	C	-4.418059	-0.873236	-0.189460
H36	H	-4.254228	-0.881461	-0.161236
H37	H	-4.457511	-0.813452	-0.140394
C38	C	-4.791610	-0.997466	-0.248193
C39	C	-4.590395	-1.007578	-0.213531
H40	H	-4.897920	-1.080333	-0.263039
H41	H	-4.788953	-0.957568	-0.297743
H42	H	-4.824457	-0.947641	-0.207299
H43	H	-4.557539	-1.057389	-0.254429
H44	H	-4.593050	-1.047489	-0.163989
H45	H	-3.817024	-0.578262	-0.252709
H46	H	-3.889082	-0.740854	-0.251889
H47	H	-3.619482	-0.067868	-0.666793
H48	H	-3.682791	-0.066213	-0.811675
H49	H	-3.971808	0.046228	-0.807759
H50	H	-3.769310	-0.239550	-0.830830
H51	H	-4.176080	-0.045722	-0.675205
O52	O	-3.695051	-0.258144	-0.682444
C53	C	-3.857543	-0.372904	-0.726420
H54	H	-4.018600	-0.357281	-0.743380
H55	H	-3.819915	-0.403724	-0.787356
C56	C	-3.670496	-0.496919	-0.648399
C57	C	-3.868312	-0.477734	-0.669224
H58	H	-3.677135	-0.561586	-0.613120
H59	H	-3.561017	-0.419604	-0.618773
H60	H	-3.639161	-0.522597	-0.699185
H61	H	-3.899631	-0.452041	-0.618439
H62	H	-3.977797	-0.555047	-0.698839
H63	H	-4.168465	-0.377164	-0.849762
O64	O	-4.401042	-0.302655	-0.852902
C65	C	-4.501849	-0.414099	-0.914181
H66	H	-4.375544	-0.440175	-0.939212
H67	H	-4.590029	-0.495997	-0.883573
C68	C	-4.818599	-0.357956	-0.957905
C69	C	-4.663470	-0.389976	-0.988654
H70	H	-4.918301	-0.343080	-1.003842
H71	H	-4.750688	-0.282876	-0.916618
H72	H	-4.892058	-0.426210	-0.932399
H73	H	-4.589996	-0.321717	-1.014150
H74	H	-4.731373	-0.465045	-1.029947
O75	O	-4.099602	-0.394970	-0.701847
C76	C	-4.267711	-0.506140	-0.747881
H77	H	-4.423164	-0.484387	-0.767012
H78	H	-4.227548	-0.539162	-0.807636
C79	C	-4.104679	-0.639074	-0.668108
C80	C	-4.295612	-0.612358	-0.691599
H81	H	-4.121885	-0.704597	-0.633393
H82	H	-3.991416	-0.564178	-0.637096
H83	H	-4.071230	-0.666585	-0.717910
H84	H	-4.329043	-0.584833	-0.641798
H85	H	-4.408882	-0.687253	-0.722602
O86	O	-3.868280	0.062651	-0.655447
C87	C	-3.698216	0.032913	-0.604012
H88	H	-3.762124	-0.067908	-0.588546
H89	H	-3.570942	0.038639	-0.639669
C90	C	-3.519551	0.252715	-0.539549
C91	C	-3.598048	0.128889	-0.520548
H92	H	-3.457754	0.311920	-0.488066
H93	H	-3.634122	0.272752	-0.574204
H94	H	-3.413501	0.257469	-0.569265
H95	H	-3.704114	0.124132	-0.490842
H96	H	-3.483492	0.108853	-0.485886
O97	O	-4.283213	-0.053932	-0.826507
C98	C	-4.392945	-0.162089	-0.890067
H99	H	-4.272043	-0.191626	-0.916850
H100	H	-4.487183	-0.244096	-0.861167
C101	C	-4.697327	-0.093277	-0.929461
C102	C	-4.548832	-0.129548	-0.962361
H103	H	-4.793493	-0.073208	-0.974054
H104	H	-4.623402	-0.020412	-0.886637
H105	H	-4.775835	-0.161623	-0.905378
H106	H	-4.470309	-0.061197	-0.986433
H107	H	-4.622748	-0.202401	-1.005190
H108	H	-4.304629	-0.300449	-0.702915
