data_functionalizedCrystal
_audit_creation_method	'MofGen! by Chris Wilmer'
_symmetry_space_group_name_H-M	'P1'
_symmetry_Int_Tables_number	1
_symmetry_cell_setting	triclinic
loop_
_symmetry_equiv_pos_as_xyz
  x,y,z
_cell_length_a	13.032831
_cell_length_b	17.077402
_cell_length_c	17.077396
_cell_angle_alpha	89.970216
_cell_angle_beta	82.809156
_cell_angle_gamma	82.827244
loop_
_atom_site_label
_atom_site_type_symbol
_atom_site_fract_x
_atom_site_fract_y
_atom_site_fract_z
Zn1	Zn	1.597631	-0.465146	-0.595967
Zn2	Zn	1.597508	-0.596409	-0.464687
Zn3	Zn	1.422874	-0.448477	-0.448074
Zn4	Zn	1.422832	-0.579673	-0.579277
O5	O	1.510211	-0.522426	-0.522001
O6	O	1.743854	-0.496538	-0.592490
O7	O	1.574308	-0.576813	-0.352633
O8	O	1.446126	-0.340848	-0.467725
O9	O	1.743763	-0.592977	-0.496039
O10	O	1.574519	-0.353094	-0.576382
O11	O	1.446006	-0.468128	-0.340428
O12	O	1.276629	-0.451900	-0.451541
O13	O	1.446053	-0.564453	-0.691341
O14	O	1.276598	-0.548290	-0.547935
O15	O	1.574478	-0.480310	-0.703604
O16	O	1.574267	-0.704029	-0.479855
O17	O	1.445933	-0.691734	-0.564044
C18	C	1.510110	-0.726365	-0.521960
C19	C	1.510163	-0.813619	-0.521978
C20	C	1.238696	-0.496471	-0.496125
C21	C	1.122540	-0.485386	-0.485074
C22	C	1.577054	-0.860992	-0.478201
C23	C	1.577106	-0.942978	-0.478226
C24	C	1.510259	-0.977588	-0.522024
C25	C	1.443364	-0.930209	-0.565806
C26	C	1.443319	-0.848226	-0.565785
C27	C	1.443461	-1.101088	-0.565845
C28	C	1.443505	-1.183077	-0.565865
C29	C	1.577247	-1.195840	-0.478286
C30	C	1.577202	-1.113857	-0.478265
C31	C	1.510306	-1.066483	-0.522046
C32	C	1.070766	-0.528212	-0.527769
C33	C	0.950714	-0.516756	-0.516348
C34	C	1.782787	-0.548484	-0.547979
C35	C	1.898943	-0.559588	-0.559049
C36	C	1.510274	-0.522374	-0.726752
C37	C	1.510301	-0.522352	-0.814004
C38	C	1.510341	-0.317694	-0.522062
C39	C	1.510396	-0.230450	-0.522088
C40	C	1.577175	-0.478535	-0.861381
C41	C	1.577187	-0.478510	-0.943363
C42	C	1.510331	-0.522307	-0.977966
C43	C	1.443451	-0.566126	-0.930583
C44	C	1.443433	-0.566146	-0.848603
C45	C	1.443493	-0.566083	-1.101457
C46	C	1.443511	-0.566064	-1.183444
C47	C	1.577246	-0.478447	-1.196217
C48	C	1.577229	-0.478467	-1.114237
C49	C	1.510350	-0.522287	-1.066859
C50	C	1.510208	-0.522427	-0.318053
C51	C	1.510384	-0.522247	-0.230821
H52	H	1.631575	-0.981546	-0.442578
H53	H	1.115320	-0.573355	-0.572780
C54	C	1.383871	-0.716882	-0.604643
C55	C	1.369790	-0.796149	-0.613906
H56	H	1.338483	-0.684735	-0.634359
H57	H	1.368605	-0.702039	-0.550442
H58	H	1.454075	-0.710113	-0.622862
H59	H	1.299589	-0.802919	-0.595682
H60	H	1.385049	-0.810997	-0.668119
H61	H	0.906164	-0.471603	-0.471340
C62	C	1.302877	-0.563593	-0.995863
C63	C	1.369979	-0.614258	-1.049387
H64	H	1.257494	-0.593339	-0.963724
H65	H	1.342683	-0.537521	-0.963519
H66	H	1.262933	-0.525567	-1.024049
H67	H	1.409928	-0.652281	-1.021201
H68	H	1.330168	-0.640343	-1.081735
H69	H	1.389011	-0.601783	-0.958764
H70	H	1.631620	-0.442873	-0.833213
H71	H	1.631628	-1.085677	-0.442598
C72	C	1.021874	-0.582276	-0.676235
C73	C	0.959070	-0.620538	-0.619817
H74	H	1.058997	-0.619906	-0.713747
H75	H	0.979319	-0.544089	-0.702298
H76	H	1.069911	-0.556896	-0.650921
H77	H	0.911028	-0.645914	-0.645131
H78	H	1.001628	-0.658740	-0.593751
H79	H	1.389068	-0.601726	-1.211615
H80	H	1.631644	-0.442832	-0.981934
C81	C	1.636913	-1.327198	-0.439599
C82	C	1.650920	-1.247923	-0.430277
H83	H	1.682435	-1.359356	-0.409995
H84	H	1.566768	-1.334033	-0.421292
H85	H	1.652054	-1.341969	-0.493831
H86	H	1.635771	-1.233149	-0.376045
H87	H	1.721080	-1.241083	-0.448580
H88	H	1.388991	-1.062519	-0.601500
C89	C	1.311327	-1.162233	-0.652455
C90	C	1.370041	-1.221124	-0.614020
H91	H	1.265982	-1.185725	-0.682189
H92	H	1.271350	-1.126492	-0.614422
H93	H	1.356835	-1.134553	-0.686831
H94	H	1.324533	-1.248800	-0.579640
H95	H	1.410022	-1.256879	-0.652058
H96	H	1.388968	-0.601818	-0.810028
C97	C	1.428815	-1.020952	-0.670013
C98	C	1.369885	-0.968253	-0.613949
H99	H	1.383447	-1.044441	-0.699730
H100	H	1.474295	-0.993268	-0.704395
H101	H	1.468656	-1.060896	-0.643934
H102	H	1.330050	-0.928306	-0.640029
H103	H	1.324387	-0.995939	-0.579562
H104	H	1.631484	-0.832818	-0.442532
H105	H	1.077987	-0.440236	-0.440069
H106	H	1.631675	-0.442809	-1.086065
H107	H	1.631700	-0.442766	-1.234796
