data_functionalizedCrystal
_audit_creation_method	'MofGen! by Chris Wilmer'
_symmetry_space_group_name_H-M	'P1'
_symmetry_Int_Tables_number	1
_symmetry_cell_setting	triclinic
loop_
_symmetry_equiv_pos_as_xyz
  x,y,z
_cell_length_a	17.639617
_cell_length_b	29.839131
_cell_length_c	29.839126
_cell_angle_alpha	90.021998
_cell_angle_beta	101.249351
_cell_angle_gamma	101.225424
loop_
_atom_site_label
_atom_site_type_symbol
_atom_site_fract_x
_atom_site_fract_y
_atom_site_fract_z
Zn1	Zn	1.208578	-0.040257	0.393126
Zn2	Zn	1.208426	-0.115392	0.317979
Zn3	Zn	1.076357	-0.055427	0.302789
Zn4	Zn	1.076296	-0.130535	0.377871
O5	O	1.142414	-0.085403	0.347941
O6	O	1.319189	-0.037537	0.395899
O7	O	1.190869	-0.107449	0.253092
O8	O	1.093985	0.009463	0.314800
O9	O	1.319078	-0.092739	0.340689
O10	O	1.191127	0.020608	0.381170
O11	O	1.093838	-0.063393	0.241932
O12	O	0.965717	-0.078076	0.300007
O13	O	1.093882	-0.118548	0.442766
O14	O	0.965673	-0.133258	0.355169
O15	O	1.191068	-0.052221	0.453974
O16	O	1.190811	-0.180278	0.325896
O17	O	1.093735	-0.191403	0.369898
C18	C	0.937009	-0.108957	0.324284
C19	C	0.849136	-0.119044	0.314175
C20	C	0.560392	-0.008760	0.424854
C21	C	0.477822	-0.018250	0.415346
C22	C	0.477728	-0.075636	0.357772
C23	C	0.560300	-0.066152	0.367278
C24	C	0.601626	-0.032714	0.400819
C25	C	0.601534	-0.090106	0.343242
C26	C	0.684098	-0.080621	0.352745
C27	C	0.725430	-0.047183	0.386284
C28	C	0.684190	-0.023229	0.410322
C29	C	0.560207	-0.123542	0.309699
C30	C	0.601440	-0.147496	0.285663
C31	C	0.684006	-0.138013	0.295169
C32	C	0.725338	-0.104575	0.328707
C33	C	0.725246	-0.161968	0.271130
C34	C	0.807810	-0.152483	0.280634
C35	C	0.807902	-0.095091	0.338210
C36	C	1.142272	-0.202142	0.347902
C37	C	1.142283	-0.252075	0.347909
C38	C	1.193053	-0.555887	0.325082
C39	C	1.193151	-0.743549	0.325110
O40	O	1.236205	-0.762868	0.305671
N41	N	1.142578	-0.772826	0.347994
C42	C	1.091981	-0.755185	0.370874
O43	O	1.048974	-0.784392	0.390343
C44	C	1.091888	-0.567523	0.370848
C45	C	1.142459	-0.538249	0.347959
C46	C	1.243620	-0.526612	0.302195
C47	C	1.243592	-0.479700	0.302186
C48	C	1.192997	-0.462062	0.325064
C49	C	1.142431	-0.491336	0.347950
C50	C	1.041296	-0.549883	0.393731
C51	C	1.041278	-0.502964	0.393723
C52	C	1.091849	-0.473689	0.370834
C53	C	1.091808	-0.426786	0.370819
N54	N	1.142381	-0.397509	0.347935
C55	C	1.192975	-0.415147	0.325058
C56	C	1.092033	-0.853710	0.370886
C57	C	1.092055	-0.900625	0.370892
C58	C	1.193226	-0.888985	0.325128
C59	C	1.193199	-0.842070	0.325120
C60	C	1.142605	-0.824432	0.348002
C61	C	1.192912	-0.316628	0.325040
C62	C	1.192878	-0.269713	0.325031
C63	C	1.091710	-0.281356	0.370797
C64	C	1.091741	-0.328268	0.370803
C65	C	1.142349	-0.345902	0.347924
O66	O	1.048783	-0.407434	0.390252
O67	O	1.235989	-0.385931	0.305601
C68	C	1.193081	-0.602799	0.325091
C69	C	1.142514	-0.632073	0.347977
C70	C	1.091920	-0.614435	0.370855
C71	C	1.142537	-0.678988	0.347983
C72	C	1.193131	-0.696626	0.325106
C73	C	1.243704	-0.667349	0.302222
C74	C	1.243676	-0.620437	0.302213
C75	C	1.041347	-0.643712	0.393738
C76	C	1.041378	-0.690624	0.393745
C77	C	1.091973	-0.708262	0.370867
C78	C	1.348622	-0.061757	0.371690
C79	C	1.436495	-0.051680	0.381811
C80	C	1.142485	-0.085382	0.465128
C81	C	1.142515	-0.085373	0.515065
C82	C	1.142579	0.031795	0.347992
C83	C	1.142649	0.081737	0.348014
C84	C	1.142389	-0.085386	0.231216
C85	C	1.142512	-0.085251	0.181296
C86	C	1.193029	-0.108254	0.877466
C87	C	1.193030	-0.108285	0.689793
O88	O	1.235971	-0.127811	0.670469
N89	N	1.142512	-0.085351	0.660510
C90	C	1.091986	-0.062411	0.678148
O91	O	1.049011	-0.042909	0.648935
C92	C	1.091981	-0.062383	0.865820
C93	C	1.142509	-0.085314	0.895101
C94	C	1.243551	-0.131184	0.906746
C95	C	1.243554	-0.131174	0.953662
C96	C	1.193033	-0.108234	0.971297
C97	C	1.142511	-0.085304	0.942017
C98	C	1.041452	-0.039445	0.883457
C99	C	1.041454	-0.039441	0.930378
C100	C	1.091981	-0.062372	0.959659
C101	C	1.091993	-0.062354	1.006568
N102	N	1.142511	-0.085288	1.035850
C103	C	1.193031	-0.108228	1.018215
C104	C	1.091993	-0.062426	0.579618
C105	C	1.091995	-0.062433	0.532701
C106	C	1.193039	-0.108308	0.544348
C107	C	1.193040	-0.108299	0.591267
C108	C	1.142511	-0.085360	0.608901
C109	C	1.193033	-0.108204	1.116741
C110	C	1.193033	-0.108191	1.163660
C111	C	1.091987	-0.062318	1.152008
C112	C	1.091989	-0.062329	1.105093
C113	C	1.142515	-0.085276	1.087461
O114	O	1.049068	-0.042843	1.025922
O115	O	1.235987	-0.127735	1.047434
C116	C	1.193027	-0.108264	0.830550
C117	C	1.142504	-0.085334	0.801269
C118	C	1.091984	-0.062394	0.818905
C119	C	1.142506	-0.085341	0.754352
C120	C	1.193026	-0.108280	0.736716
C121	C	1.243545	-0.131214	0.765999
C122	C	1.243547	-0.131204	0.812915
C123	C	1.041465	-0.039461	0.789622
C124	C	1.041468	-0.039472	0.742707
C125	C	1.091988	-0.062412	0.725072
H126	H	0.594042	0.018467	0.452169
O127	O	0.848175	-0.062638	0.370794
C128	C	0.929890	-0.059396	0.374016
H129	H	0.941123	-0.092754	0.360530
H130	H	0.953320	-0.030022	0.352837
C131	C	0.958531	-0.009501	0.440925
C132	C	0.972328	-0.050474	0.424365
H133	H	0.984710	-0.003996	0.471982
H134	H	0.903478	-0.011684	0.438753
H135	H	0.978056	0.014972	0.423272
H136	H	0.952794	-0.074947	0.442014
H137	H	1.027378	-0.048295	0.426541
H138	H	0.567782	-0.174720	0.258353
H139	H	0.792659	-0.039460	0.394019
H140	H	1.234176	-0.126986	0.529982
O141	O	1.042886	-0.040100	0.596672
C142	C	0.998292	-0.019871	0.560760
H143	H	1.030684	-0.014611	0.531055
H144	H	0.938225	-0.043210	0.548834
C145	C	0.947178	0.020190	0.614252
C146	C	0.986966	0.026653	0.577769
H147	H	0.940188	0.048887	0.624744
H148	H	0.977219	0.006560	0.638447
H149	H	0.897127	0.000738	0.604309
H150	H	1.037020	0.046099	0.587714
H151	H	0.956933	0.040287	0.553576
H152	H	0.691586	-0.189190	0.243818
H153	H	1.284855	-0.596604	0.283575
O154	O	0.992480	-0.017123	0.947568
C155	C	1.037525	0.017076	0.979901
H156	H	1.097418	0.008104	0.993838
H157	H	1.046253	0.051365	0.962831
C158	C	0.920472	0.031250	1.002333
C159	C	0.994031	0.020229	1.019454
H160	H	0.893643	0.033197	1.026730
H161	H	0.890123	0.008211	0.980549
H162	H	0.927756	0.059824	0.988108
H163	H	0.986746	-0.008347	1.033673
H164	H	1.024378	0.043263	1.041242
O165	O	0.724257	0.009218	0.442960
C166	C	0.704130	-0.002989	0.485401
H167	H	0.644167	-0.027144	0.479400
H168	H	0.750591	-0.020776	0.505833
C169	C	0.774034	0.070003	0.519640
C170	C	0.700382	0.040338	0.512269
H171	H	0.771725	0.096729	0.536214
H172	H	0.787596	0.078227	0.491047
H173	H	0.812743	0.055175	0.536664
H174	H	0.661677	0.055164	0.495240
H175	H	0.686813	0.032118	0.540859
H176	H	1.284773	-0.455867	0.283549
O177	O	1.242397	-0.906190	0.302977
C178	C	1.231576	-0.953874	0.307900
H179	H	1.205587	-0.963248	0.339551
H180	H	1.189570	-0.972067	0.276374
C181	C	1.343527	-0.957211	0.274235
C182	C	1.311613	-0.968724	0.313112
H183	H	1.392896	-0.966372	0.277448
H184	H	1.350816	-0.925086	0.270916
H185	H	1.308515	-0.972373	0.247968
H186	H	1.346620	-0.953558	0.339378
H187	H	1.304331	-1.000847	0.316435
H188	H	1.234124	-0.330980	0.306411
H189	H	1.050856	-0.043650	1.081252
H190	H	1.284691	-0.149877	0.836752
O191	O	1.042801	-0.836659	0.393117
C192	C	0.998187	-0.872564	0.413320
H193	H	0.995494	-0.906326	0.394607
H194	H	1.027107	-0.874205	0.450786
C195	C	0.917333	-0.822493	0.433043
C196	C	0.914020	-0.863960	0.410056
H197	H	0.865415	-0.817185	0.431031
H198	H	0.947392	-0.798303	0.419433
H199	H	0.941436	-0.823866	0.464262
H200	H	0.889926	-0.862584	0.378836
H201	H	0.883955	-0.888150	0.423661
H202	H	0.444253	0.001261	0.434919
H203	H	1.000306	-0.020773	0.859623
H204	H	1.000324	-0.020794	0.718870
H205	H	1.050856	-0.043639	1.166376
H206	H	1.284696	-0.149849	0.977498
O207	O	0.437545	-0.108169	0.325253
C208	C	0.389769	-0.142700	0.345280
H209	H	0.414677	-0.142662	0.383525
H210	H	0.327207	-0.135998	0.339651
C211	C	0.357851	-0.189572	0.276125
C212	C	0.388448	-0.189528	0.323098
H213	H	0.357032	-0.218458	0.262441
H214	H	0.390036	-0.166308	0.262632
H215	H	0.305719	-0.183985	0.271440
H216	H	0.440582	-0.195110	0.327782
H217	H	0.356271	-0.212795	0.336592
H218	H	1.000323	-0.020781	0.803975
H219	H	1.234180	-0.126886	1.102391
H220	H	0.841384	-0.171988	0.261061
H221	H	1.050868	-0.924458	0.389525
H222	H	1.284898	-0.681718	0.283593
O223	O	1.292796	-0.543669	0.279929
C224	C	1.337430	-0.507760	0.259741
H225	H	1.305026	-0.478054	0.254445
H226	H	1.397459	-0.495842	0.283131
C227	C	1.388668	-0.561250	0.219752
C228	C	1.348865	-0.524766	0.213243
H229	H	1.395725	-0.571740	0.191071
H230	H	1.358599	-0.585443	0.233354
H231	H	1.438688	-0.551313	0.239246
H232	H	1.298843	-0.534704	0.193755
H233	H	1.378926	-0.500575	0.199637
H234	H	1.284692	-0.149866	0.892393
O235	O	1.242400	-0.813695	0.302882
C236	C	1.287039	-0.839331	0.282681
H237	H	1.289773	-0.872451	0.301403
H238	H	1.258116	-0.847671	0.245218
C239	C	1.367823	-0.770650	0.262936
C240	C	1.371186	-0.811327	0.285933
H241	H	1.419728	-0.753376	0.264940
H242	H	1.337747	-0.753378	0.276544
H243	H	1.343716	-0.777606	0.231719
H244	H	1.395283	-0.804371	0.317151
H245	H	1.401268	-0.828597	0.272330
H246	H	0.492977	-0.131253	0.301953
O247	O	1.292506	-0.153560	0.748830
C248	C	1.247445	-0.187737	0.716479
H249	H	1.185180	-0.197650	0.723440
H250	H	1.244732	-0.174160	0.680612
C251	C	1.362476	-0.217845	0.711638
C252	C	1.286002	-0.230022	0.720190
H253	H	1.386261	-0.243928	0.713926
H254	H	1.392835	-0.194818	0.733432
H255	H	1.360205	-0.206530	0.681750
H256	H	1.288275	-0.241331	0.750080
H257	H	1.255644	-0.253052	0.698401
H258	H	1.000147	-0.629356	0.412369
O259	O	0.992148	-0.578246	0.416007
C260	C	0.947485	-0.552609	0.436188
H261	H	0.979855	-0.515433	0.441475
H262	H	0.887450	-0.554547	0.412797
C263	C	0.896309	-0.617864	0.476193
C264	C	0.936070	-0.572204	0.482691
H265	H	0.889264	-0.629952	0.504878
H266	H	0.926397	-0.635136	0.462596
H267	H	0.846284	-0.619473	0.456700
H268	H	0.986097	-0.570596	0.502179
H269	H	0.905990	-0.554932	0.496292
O270	O	0.992243	-0.485798	0.416012
C271	C	1.037215	-0.453450	0.450217
H272	H	1.099487	-0.460406	0.460192
H273	H	1.039926	-0.417586	0.436637
C274	C	0.922072	-0.448621	0.480199
C275	C	0.998555	-0.457168	0.492454
H276	H	0.898224	-0.450912	0.506252
H277	H	0.891773	-0.470413	0.457154
H278	H	0.924342	-0.418735	0.468882
H279	H	0.996283	-0.487055	0.503765
H280	H	1.028853	-0.435381	0.515502
H281	H	1.234181	-0.126864	1.187500
H282	H	1.234058	-0.245878	0.306391
O283	O	1.042682	-0.264182	0.393081
C284	C	1.087669	-0.231835	0.427283
H285	H	1.149937	-0.238800	0.437256
H286	H	1.090393	-0.195971	0.413699
C287	C	0.972541	-0.226984	0.457270
C288	C	1.049017	-0.235541	0.469522
H289	H	0.948698	-0.229268	0.483325
H290	H	0.942231	-0.248776	0.434227
H291	H	0.974821	-0.197098	0.445950
H292	H	1.046736	-0.265428	0.480836
H293	H	1.079326	-0.213754	0.492568
O294	O	0.992334	-0.719029	0.416055
C295	C	1.009565	-0.705540	0.462818
H296	H	1.072715	-0.685360	0.472381
H297	H	0.967159	-0.683187	0.469653
C298	C	0.922805	-0.773044	0.480004
C299	C	1.000369	-0.748262	0.491750
H300	H	0.917129	-0.799396	0.497851
H301	H	0.911193	-0.782131	0.448499
H302	H	0.887475	-0.754411	0.485700
H303	H	1.035697	-0.766892	0.486049
H304	H	1.011987	-0.739179	0.523256
H305	H	1.050565	-0.352105	0.389443
H306	H	1.234184	-0.126971	0.615105
H307	H	1.050860	-0.043754	0.508865
