data_functionalizedCrystal
_audit_creation_method	'MofGen! by Chris Wilmer'
_symmetry_space_group_name_H-M	'P1'
_symmetry_Int_Tables_number	1
_symmetry_cell_setting	triclinic
loop_
_symmetry_equiv_pos_as_xyz
  x,y,z
_cell_length_a	14.044220
_cell_length_b	10.654550
_cell_length_c	9.730223
_cell_angle_alpha	90.000193
_cell_angle_beta	90.004504
_cell_angle_gamma	91.163110
loop_
_atom_site_label
_atom_site_type_symbol
_atom_site_fract_x
_atom_site_fract_y
_atom_site_fract_z
O1	O	1.259693	-0.302980	-0.114137
O2	O	0.983652	-0.292047	-0.114172
O3	O	1.128019	-0.115412	-0.114149
O4	O	1.115326	-0.479615	-0.114161
O5	O	1.128018	-0.115417	0.114431
O6	O	0.983650	-0.292052	0.114408
O7	O	1.259691	-0.302985	0.114443
Zn8	Zn	1.121671	-0.297519	0.150717
Zn9	Zn	1.121673	-0.297513	-0.150447
O10	O	1.115324	-0.479620	0.114419
C11	C	0.948305	-0.287263	0.000113
C12	C	0.842986	-0.272988	0.000100
N13	N	1.121676	-0.297523	0.356254
C14	C	1.127086	-0.068523	0.000139
C15	C	1.124298	0.071201	0.000134
C16	C	0.650153	-0.246889	0.000128
C17	C	0.593185	-0.348137	0.000130
C18	C	0.485886	-0.333615	0.000146
C19	C	0.757461	-0.261409	0.000112
C20	C	1.295038	-0.307769	0.000154
C21	C	1.400358	-0.322044	0.000159
C22	C	1.116257	-0.526509	0.000128
C23	C	1.119045	-0.666233	0.000124
C24	C	1.209299	0.142144	0.000149
C25	C	1.206673	0.273429	0.000139
C26	C	1.034038	0.262814	0.000105
C27	C	1.036664	0.131532	0.000105
C28	C	1.296932	0.081813	0.000178
C29	C	1.381941	0.152758	0.000195
C30	C	1.379315	0.284043	0.000185
C31	C	1.291681	0.344383	0.000158
N32	N	1.121675	-0.297500	-0.355983
C33	C	1.185618	-0.219340	0.428190
C34	C	1.185616	-0.219324	0.572073
C35	C	1.057725	-0.375686	0.572070
C36	C	1.057724	-0.375694	0.428190
C37	C	1.249570	-0.141169	0.356253
C38	C	1.313518	-0.062980	0.428190
C39	C	1.313516	-0.062965	0.572073
C40	C	1.249565	-0.141138	0.644019
H41	H	0.624998	-0.445725	0.000121
H42	H	1.249580	-0.141177	0.239097
Cl43	Cl	1.393901	0.035301	0.337747
Cl44	Cl	0.923878	0.338672	0.000076
Cl45	Cl	0.977334	-0.473981	0.337753
Cl46	Cl	1.249558	-0.141101	0.824903
H47	H	1.005660	-0.439333	0.630659
H48	H	1.289550	0.451284	0.000135
Cl49	Cl	0.601039	-0.096230	0.000135
Cl50	Cl	0.929804	0.042339	0.000086
Cl51	Cl	1.300239	-0.083229	0.000195
H52	H	1.365579	0.000708	0.630642
Cl53	Cl	1.492102	0.076904	0.000210
Cl54	Cl	1.486180	0.373227	0.000191
