data_functionalizedCrystal
_audit_creation_method	'MofGen! by Chris Wilmer'
_symmetry_space_group_name_H-M	'P1'
_symmetry_Int_Tables_number	1
_symmetry_cell_setting	triclinic
loop_
_symmetry_equiv_pos_as_xyz
  x,y,z
_cell_length_a	9.065218
_cell_length_b	10.654554
_cell_length_c	9.130313
_cell_angle_alpha	89.995397
_cell_angle_beta	90.003979
_cell_angle_gamma	84.751364
loop_
_atom_site_label
_atom_site_type_symbol
_atom_site_fract_x
_atom_site_fract_y
_atom_site_fract_z
O1	O	0.207253	1.668659	-0.121819
O2	O	0.226990	1.303259	-0.121816
O3	O	0.002438	1.493512	-0.121814
O4	O	0.431805	1.478406	-0.121820
O5	O	0.002460	1.493495	0.121784
O6	O	0.227012	1.303242	0.121783
O7	O	0.207276	1.668642	0.121780
Cu8	Cu	0.217146	1.485941	0.144024
Cu9	Cu	0.217120	1.485960	-0.144060
O10	O	0.431828	1.478389	0.121779
C11	C	0.225551	1.256447	-0.000016
C12	C	0.221210	1.116987	-0.000015
C13	C	0.080837	0.933869	-0.000032
C14	C	0.084914	1.064907	-0.000017
C15	C	0.353439	1.038022	-0.000012
C16	C	0.349361	0.906987	-0.000017
C17	C	-0.074194	0.949392	-0.000041
C18	C	-0.070118	1.080430	-0.000026
C19	C	-0.052529	1.492052	-0.000017
C20	C	-0.216349	1.487711	-0.000024
C21	C	0.486795	1.479850	-0.000022
C22	C	0.650614	1.484190	-0.000024
C23	C	0.208715	1.715454	-0.000023
C24	C	0.213055	1.854914	-0.000034
N25	N	0.217164	1.485936	0.346647
C26	C	0.126809	1.408768	0.576650
C27	C	0.126829	1.408758	0.423314
C28	C	0.307474	1.563138	0.423325
C29	C	0.307445	1.563153	0.576659
C30	C	0.022519	1.319635	0.576643
C31	C	0.022539	1.319625	0.423306
N32	N	0.217115	1.485962	0.653317
H33	H	0.464415	1.080435	0.000003
H34	H	-0.134819	0.919782	0.101899
H35	H	-0.123570	0.913576	-0.105222
H36	H	0.058833	1.220715	0.381720
Br37	Br	-0.148169	1.156189	0.175286
H38	H	0.068882	1.225242	0.624234
Br39	Br	0.528807	0.799835	0.000009
Br40	Br	-0.167459	1.149665	-0.169946
H41	H	0.380966	1.626024	0.639075
H42	H	-0.093842	1.350101	0.618219
Br43	Br	0.430054	1.667896	0.319278
H44	H	-0.088552	1.358706	0.375716
