data_functionalizedCrystal
_audit_creation_method	'MofGen! by Chris Wilmer'
_symmetry_space_group_name_H-M	'P1'
_symmetry_Int_Tables_number	1
_symmetry_cell_setting	triclinic
loop_
_symmetry_equiv_pos_as_xyz
  x,y,z
_cell_length_a	13.897449
_cell_length_b	13.897448
_cell_length_c	13.897441
_cell_angle_alpha	90.030599
_cell_angle_beta	90.020733
_cell_angle_gamma	90.018972
loop_
_atom_site_label
_atom_site_type_symbol
_atom_site_fract_x
_atom_site_fract_y
_atom_site_fract_z
Zn1	Zn	1.474703	-0.383951	0.545381
Zn2	Zn	1.724703	-0.133951	0.795381
Zn3	Zn	1.974703	0.116049	1.045381
Zn4	Zn	2.224703	0.366049	1.295381
Zn5	Zn	1.474597	-0.545273	0.384083
Zn6	Zn	1.724597	-0.295273	0.634083
Zn7	Zn	1.974597	-0.045273	0.884083
Zn8	Zn	2.224597	0.204727	1.134083
Zn9	Zn	1.313392	-0.383997	0.384100
Zn10	Zn	1.563392	-0.133997	0.634100
Zn11	Zn	1.813392	0.116003	0.884100
Zn12	Zn	2.063392	0.366003	1.134100
Zn13	Zn	1.313373	-0.545210	0.545335
Zn14	Zn	1.563373	-0.295210	0.795335
Zn15	Zn	1.813373	-0.045210	1.045335
Zn16	Zn	2.063373	0.204790	1.295335
O17	O	1.394016	-0.464608	0.464725
O18	O	1.644016	-0.214608	0.714725
O19	O	1.894016	0.035392	0.964725
O20	O	2.144016	0.285392	1.214725
O21	O	1.609670	-0.405358	0.523997
O22	O	1.859670	-0.155358	0.773997
O23	O	2.109670	0.094642	1.023997
O24	O	2.359670	0.344642	1.273997
O25	O	1.453176	-0.523925	0.249103
O26	O	1.703176	-0.273925	0.499103
O27	O	1.953176	-0.023925	0.749103
O28	O	2.203176	0.226075	0.999103
O29	O	1.334842	-0.249009	0.405520
O30	O	1.584842	0.000991	0.655520
O31	O	1.834842	0.250991	0.905520
O32	O	2.084842	0.500991	1.155520
O33	O	1.609592	-0.523881	0.405491
O34	O	1.859592	-0.273881	0.655491
O35	O	2.109592	-0.023881	0.905491
O36	O	2.359592	0.226119	1.155491
O37	O	1.453356	-0.248976	0.524013
O38	O	1.703356	0.001024	0.774013
O39	O	1.953356	0.251024	1.024013
O40	O	2.203356	0.501024	1.274013
O41	O	1.334739	-0.405436	0.249116
O42	O	1.584739	-0.155436	0.499116
O43	O	1.834739	0.094564	0.749116
O44	O	2.084739	0.344564	0.999116
O45	O	1.178408	-0.405375	0.405476
O46	O	1.428408	-0.155375	0.655476
O47	O	1.678408	0.094625	0.905476
O48	O	1.928408	0.344625	1.155476
O49	O	1.334811	-0.523773	0.680323
O50	O	1.584811	-0.273773	0.930323
O51	O	1.834811	-0.023773	1.180323
O52	O	2.084811	0.226227	1.430323
O53	O	1.178394	-0.523817	0.523935
O54	O	1.428394	-0.273817	0.773935
O55	O	1.678394	-0.023817	1.023935
O56	O	1.928394	0.226183	1.273935
O57	O	1.453339	-0.405297	0.680357
O58	O	1.703339	-0.155297	0.930357
O59	O	1.953339	0.094703	1.180357
O60	O	2.203339	0.344703	1.430357
O61	O	1.453158	-0.680246	0.405447
O62	O	1.703158	-0.430246	0.655447
O63	O	1.953158	-0.180246	0.905447
O64	O	2.203158	0.069754	1.155447
O65	O	1.334708	-0.680200	0.523918
O66	O	1.584708	-0.430200	0.773918
O67	O	1.834708	-0.180200	1.023918
O68	O	2.084708	0.069800	1.273918
C69	C	1.143402	-0.464595	0.464703
C70	C	1.393402	-0.214595	0.714703
C71	C	1.643402	0.035405	0.964703
C72	C	1.893402	0.285405	1.214703
C73	C	1.036188	-0.464613	0.464716
C74	C	1.286188	-0.214613	0.714716
C75	C	1.536188	0.035387	0.964716
C76	C	1.786188	0.285387	1.214716
C77	C	1.393946	-0.715222	0.464697
C78	C	1.643946	-0.465222	0.714697
C79	C	1.893946	-0.215222	0.964697
C80	C	2.143946	0.034778	1.214697
C81	C	1.394004	-0.822436	0.464717
C82	C	1.644004	-0.572436	0.714717
C83	C	1.894004	-0.322436	0.964717
C84	C	2.144004	-0.072436	1.214717
C85	C	1.394105	-1.018731	0.464778
C86	C	1.644105	-0.768731	0.714778
C87	C	1.894105	-0.518731	0.964778
C88	C	2.144105	-0.268731	1.214778
C89	C	1.394046	-0.909499	0.464747
C90	C	1.644046	-0.659499	0.714747
C91	C	1.894046	-0.409499	0.964747
C92	C	2.144046	-0.159499	1.214747
C93	C	0.839893	-0.464616	0.464741
C94	C	1.089893	-0.214616	0.714741
C95	C	1.339893	0.035384	0.964741
C96	C	1.589893	0.285384	1.214741
C97	C	0.949125	-0.464611	0.464725
C98	C	1.199125	-0.214611	0.714725
C99	C	1.449125	0.035389	0.964725
C100	C	1.699125	0.285389	1.214725
C101	C	1.645609	-0.464621	0.464747
C102	C	1.895609	-0.214621	0.714747
C103	C	2.145609	0.035379	0.964747
C104	C	2.395609	0.285379	1.214747
C105	C	1.752823	-0.464627	0.464757
C106	C	2.002823	-0.214627	0.714757
C107	C	2.252823	0.035373	0.964757
C108	C	2.502823	0.285373	1.214757
C109	C	1.394085	-0.464522	0.716318
C110	C	1.644085	-0.214522	0.966318
C111	C	1.894085	0.035478	1.216318
C112	C	2.144085	0.285478	1.466318
C113	C	1.394114	-0.464486	0.823532
C114	C	1.644114	-0.214486	1.073532
C115	C	1.894114	0.035514	1.323532
C116	C	2.144114	0.285514	1.573532
C117	C	1.394113	-0.213015	0.464774
C118	C	1.644113	0.036985	0.714774
C119	C	1.894113	0.286985	0.964774
C120	C	2.144113	0.536985	1.214774
C121	C	1.394154	-0.105801	0.464795
C122	C	1.644154	0.144199	0.714795
C123	C	1.894154	0.394199	0.964795
C124	C	2.144154	0.644199	1.214795
C125	C	1.394003	-0.464623	0.214110
C126	C	1.644003	-0.214623	0.464110
C127	C	1.894003	0.035377	0.714110
C128	C	2.144003	0.285377	0.964110
C129	C	1.394161	-0.464388	0.106897
C130	C	1.644161	-0.214388	0.356897
C131	C	1.894161	0.035612	0.606897
C132	C	2.144161	0.285612	0.856897
C133	C	1.394140	-0.464421	1.019827
C134	C	1.644140	-0.214421	1.269827
C135	C	1.894140	0.035579	1.519827
C136	C	2.144140	0.285579	1.769827
C137	C	1.394122	-0.464460	0.910594
C138	C	1.644122	-0.214460	1.160594
C139	C	1.894122	0.035540	1.410594
C140	C	2.144122	0.285540	1.660594
