data_functionalizedCrystal
_audit_creation_method	'MofGen! by Chris Wilmer'
_symmetry_space_group_name_H-M	'P1'
_symmetry_Int_Tables_number	1
_symmetry_cell_setting	triclinic
loop_
_symmetry_equiv_pos_as_xyz
  x,y,z
_cell_length_a	16.625548
_cell_length_b	12.827892
_cell_length_c	12.827885
_cell_angle_alpha	89.970214
_cell_angle_beta	89.978764
_cell_angle_gamma	90.016460
loop_
_atom_site_label
_atom_site_type_symbol
_atom_site_fract_x
_atom_site_fract_y
_atom_site_fract_z
Zn1	Zn	1.232725	-0.415953	-0.590903
Zn2	Zn	1.482725	-0.165953	-0.340903
Zn3	Zn	1.732725	0.084047	-0.090903
Zn4	Zn	1.982725	0.334047	0.159097
Zn5	Zn	1.232644	-0.590730	-0.416164
Zn6	Zn	1.482644	-0.340730	-0.166164
Zn7	Zn	1.732644	-0.090730	0.083836
Zn8	Zn	1.982644	0.159270	0.333836
Zn9	Zn	1.097886	-0.416007	-0.416171
Zn10	Zn	1.347886	-0.166007	-0.166171
Zn11	Zn	1.597886	0.083993	0.083829
Zn12	Zn	1.847886	0.333993	0.333829
Zn13	Zn	1.097874	-0.590656	-0.590858
Zn14	Zn	1.347874	-0.340656	-0.340858
Zn15	Zn	1.597874	-0.090656	-0.090858
Zn16	Zn	1.847874	0.159344	0.159142
O17	O	1.165282	-0.503336	-0.503524
O18	O	1.415282	-0.253336	-0.253524
O19	O	1.665282	-0.003336	-0.003524
O20	O	1.915282	0.246664	0.246476
O21	O	1.345547	-0.439146	-0.567740
O22	O	1.595547	-0.189146	-0.317740
O23	O	1.845547	0.060854	-0.067740
O24	O	2.095547	0.310854	0.182260
O25	O	1.214738	-0.567606	-0.269929
O26	O	1.464738	-0.317606	-0.019929
O27	O	1.714738	-0.067606	0.230071
O28	O	1.964738	0.182394	0.480071
O29	O	1.115811	-0.269764	-0.439372
O30	O	1.365811	-0.019764	-0.189372
O31	O	1.615811	0.230236	0.060628
O32	O	1.865811	0.480236	0.310628
O33	O	1.345487	-0.567554	-0.439359
O34	O	1.595487	-0.317554	-0.189359
O35	O	1.845487	-0.067554	0.060641
O36	O	2.095487	0.182446	0.310641
O37	O	1.214878	-0.269724	-0.567747
O38	O	1.464878	-0.019724	-0.317747
O39	O	1.714878	0.230276	-0.067747
O40	O	1.964878	0.480276	0.182253
O41	O	1.115732	-0.439238	-0.269934
O42	O	1.365732	-0.189238	-0.019934
O43	O	1.615732	0.060762	0.230066
O44	O	1.865732	0.310762	0.480066
O45	O	0.985052	-0.439166	-0.439328
O46	O	1.235052	-0.189166	-0.189328
O47	O	1.485052	0.060834	0.060672
O48	O	1.735052	0.310834	0.310672
O49	O	1.115792	-0.567427	-0.737100
O50	O	1.365792	-0.317427	-0.487100
O51	O	1.615792	-0.067427	-0.237100
O52	O	1.865792	0.182573	0.012900
O53	O	0.985043	-0.567480	-0.567669
O54	O	1.235043	-0.317480	-0.317669
O55	O	1.485043	-0.067480	-0.067669
O56	O	1.735043	0.182520	0.182331
O57	O	1.214867	-0.439074	-0.737134
O58	O	1.464867	-0.189074	-0.487134
O59	O	1.714867	0.060926	-0.237134
O60	O	1.964867	0.310926	0.012866
O61	O	1.214727	-0.736956	-0.439315
O62	O	1.464727	-0.486956	-0.189315
O63	O	1.714727	-0.236956	0.060685
O64	O	1.964727	0.013044	0.310685
O65	O	1.115713	-0.736901	-0.567662
O66	O	1.365713	-0.486901	-0.317662
O67	O	1.615713	-0.236901	-0.067662
O68	O	1.865713	0.013099	0.182338
C69	C	1.165232	-0.774846	-0.503506
C70	C	1.415232	-0.524846	-0.253506
C71	C	1.665232	-0.274846	-0.003506
C72	C	1.915232	-0.024846	0.246494
C73	C	1.165284	-0.890999	-0.503533
C74	C	1.415284	-0.640999	-0.253533
C75	C	1.665284	-0.390999	-0.003533
C76	C	1.915284	-0.140999	0.246467
C77	C	0.955791	-0.503321	-0.503495
C78	C	1.205791	-0.253321	-0.253495
C79	C	1.455791	-0.003321	-0.003495
C80	C	1.705791	0.246679	0.246505
C81	C	0.866170	-0.503340	-0.503507
C82	C	1.116170	-0.253340	-0.253507
C83	C	1.366170	-0.003340	-0.003507
C84	C	1.616170	0.246660	0.246493
C85	C	1.214338	-0.942776	-0.440093
C86	C	1.464338	-0.692776	-0.190093
C87	C	1.714338	-0.442776	0.059907
C88	C	1.964338	-0.192776	0.309907
C89	C	1.214393	-1.062827	-0.440120
C90	C	1.464393	-0.812827	-0.190120
C91	C	1.714393	-0.562827	0.059880
C92	C	1.964393	-0.312827	0.309880
C93	C	0.537995	-0.503347	-0.503552
C94	C	0.787995	-0.253347	-0.253552
C95	C	1.037995	-0.003347	-0.003552
C96	C	1.287995	0.246653	0.246448
C97	C	0.629303	-0.503342	-0.503536
C98	C	0.879303	-0.253342	-0.253536
C99	C	1.129303	-0.003342	-0.003536
C100	C	1.379303	0.246658	0.246464
C101	C	0.702080	-0.503344	-0.503529
C102	C	0.952080	-0.253344	-0.253529
C103	C	1.202080	-0.003344	-0.003529
C104	C	1.452080	0.246656	0.246471
C105	C	0.793394	-0.503338	-0.503514
C106	C	1.043394	-0.253338	-0.253514
C107	C	1.293394	-0.003338	-0.003514
C108	C	1.543394	0.246662	0.246486
C109	C	1.375591	-0.503352	-0.503554
C110	C	1.625591	-0.253352	-0.253554
C111	C	1.875591	-0.003352	-0.003554
C112	C	2.125591	0.246648	0.246446
C113	C	1.465212	-0.503359	-0.503567
C114	C	1.715212	-0.253359	-0.253567
C115	C	1.965212	-0.003359	-0.003567
C116	C	2.215212	0.246641	0.246433
C117	C	1.165337	-0.503236	-0.776094
C118	C	1.415337	-0.253236	-0.526094
C119	C	1.665337	-0.003236	-0.276094
C120	C	1.915337	0.246764	-0.026094
C121	C	1.165361	-0.503193	-0.892248
C122	C	1.415361	-0.253193	-0.642248
C123	C	1.665361	-0.003193	-0.392248
C124	C	1.915361	0.246807	-0.142248
C125	C	1.165355	-0.230766	-0.503565
C126	C	1.415355	0.019234	-0.253565
C127	C	1.665355	0.269234	-0.003565
C128	C	1.915355	0.519234	0.246435
C129	C	1.165386	-0.114613	-0.503583
C130	C	1.415386	0.135387	-0.253583
C131	C	1.665386	0.385387	-0.003583
C132	C	1.915386	0.635387	0.246417
C133	C	1.214391	-0.439667	-0.944049
C134	C	1.464391	-0.189667	-0.694049
C135	C	1.714391	0.060333	-0.444049
C136	C	1.964391	0.310333	-0.194049
C137	C	1.214416	-0.439622	-1.064099
C138	C	1.464416	-0.189622	-0.814099
C139	C	1.714416	0.060378	-0.564099
C140	C	1.964416	0.310378	-0.314099
C141	C	1.165274	-0.503361	-0.232014
C142	C	1.415274	-0.253361	0.017986
C143	C	1.665274	-0.003361	0.267986
C144	C	1.915274	0.246639	0.517986
C145	C	1.165407	-0.503109	-0.115861
C146	C	1.415407	-0.253109	0.134139
C147	C	1.665407	-0.003109	0.384139
C148	C	1.915407	0.246891	0.634139
H149	H	1.256297	-0.898231	-0.385764
H150	H	1.506297	-0.648231	-0.135764
H151	H	1.756297	-0.398231	0.114236
H152	H	2.006297	-0.148231	0.364236
Cl153	Cl	1.279232	-1.131567	-0.356254
Cl154	Cl	1.529232	-0.881567	-0.106254
Cl155	Cl	1.779232	-0.631567	0.143746
Cl156	Cl	2.029232	-0.381567	0.393746
H157	H	1.256346	-0.385311	-0.899521
H158	H	1.506346	-0.135311	-0.649521
H159	H	1.756346	0.114689	-0.399521
H160	H	2.006346	0.364689	-0.149521
H161	H	1.123331	-0.935548	-0.557869
H162	H	1.373331	-0.685548	-0.307869
H163	H	1.623331	-0.435548	-0.057869
H164	H	1.873331	-0.185548	0.192131
Cl165	Cl	1.279233	-0.355654	-1.132872
Cl166	Cl	1.529233	-0.105654	-0.882872
Cl167	Cl	1.779233	0.144346	-0.632872
Cl168	Cl	2.029233	0.394346	-0.382872
Cl169	Cl	1.100573	-0.587109	-0.960986
Cl170	Cl	1.350573	-0.337109	-0.710986
Cl171	Cl	1.600573	-0.087109	-0.460986
Cl172	Cl	1.850573	0.162891	-0.210986
H173	H	1.123384	-1.070094	-0.557895
H174	H	1.373384	-0.820094	-0.307895
H175	H	1.623384	-0.570094	-0.057895
H176	H	1.873384	-0.320094	0.192105
H177	H	1.123431	-0.557503	-1.071320
H178	H	1.373431	-0.307503	-0.821320
H179	H	1.623431	-0.057503	-0.571320
H180	H	1.873431	0.192497	-0.321320
