data_functionalizedCrystal
_audit_creation_method	'MofGen! by Chris Wilmer'
_symmetry_space_group_name_H-M	'P1'
_symmetry_Int_Tables_number	1
_symmetry_cell_setting	triclinic
loop_
_symmetry_equiv_pos_as_xyz
  x,y,z
_cell_length_a	12.759401
_cell_length_b	25.639240
_cell_length_c	12.759386
_cell_angle_alpha	89.924894
_cell_angle_beta	89.958838
_cell_angle_gamma	90.033035
loop_
_atom_site_label
_atom_site_type_symbol
_atom_site_fract_x
_atom_site_fract_y
_atom_site_fract_z
Zn1	Zn	1.606358	-0.207957	-0.593891
Zn2	Zn	1.606128	-0.295451	-0.418172
Zn3	Zn	1.430591	-0.208031	-0.418230
Zn4	Zn	1.430593	-0.295363	-0.593813
O5	O	1.518418	-0.251701	-0.506026
O6	O	1.753349	-0.219568	-0.570589
O7	O	1.582745	-0.283922	-0.271158
O8	O	1.454002	-0.134856	-0.441588
O9	O	1.753179	-0.283850	-0.441489
O10	O	1.583138	-0.134801	-0.570646
O11	O	1.453779	-0.219696	-0.271201
O12	O	1.283570	-0.219611	-0.441513
O13	O	1.454007	-0.283701	-0.740845
O14	O	1.283572	-0.283773	-0.570514
O15	O	1.583140	-0.219484	-0.740902
O16	O	1.582747	-0.368604	-0.441414
O17	O	1.453783	-0.368540	-0.570457
C18	C	1.245450	-0.251691	-0.506012
C19	C	1.128674	-0.251700	-0.506031
C20	C	0.964109	-0.285168	-0.573103
C21	C	1.073833	-0.285162	-0.573092
C22	C	1.073784	-0.218245	-0.438969
C23	C	0.964062	-0.218254	-0.438975
C24	C	1.223761	-0.346824	-0.610379
C25	C	1.278646	-0.380273	-0.677451
C26	C	1.243108	-0.388336	-0.779936
C27	C	1.152687	-0.362942	-0.815370
C28	C	1.097807	-0.329489	-0.748305
C29	C	1.133343	-0.321436	-0.645805
C30	C	0.814133	-0.156591	-0.401698
C31	C	0.759251	-0.123136	-0.334637
C32	C	0.794787	-0.115067	-0.232150
C33	C	0.885212	-0.140452	-0.196720
C34	C	0.940093	-0.173908	-0.263781
C35	C	0.904550	-0.181977	-0.366266
C36	C	1.518269	-0.387543	-0.505944
C37	C	1.518302	-0.445657	-0.505944
C38	C	1.585692	-0.805953	-0.573348
C39	C	1.585723	-0.860557	-0.573369
O40	O	1.642844	-0.888737	-0.630594
N41	N	1.518563	-0.887940	-0.506128
C42	C	1.451361	-0.860715	-0.438869
O43	O	1.394239	-0.889019	-0.381677
C44	C	1.451325	-0.806111	-0.438853
C45	C	1.518497	-0.778732	-0.506091
C46	C	1.652857	-0.778574	-0.640581
C47	C	1.652827	-0.723973	-0.640558
C48	C	1.585632	-0.696752	-0.573302
C49	C	1.518467	-0.724131	-0.506068
C50	C	1.384119	-0.778887	-0.371600
C51	C	1.384088	-0.724280	-0.371591
C52	C	1.451260	-0.696901	-0.438829
C53	C	1.451242	-0.642310	-0.438789
N54	N	1.518402	-0.614928	-0.506030
C55	C	1.585597	-0.642149	-0.573287
C56	C	1.451439	-0.975385	-0.438907
C57	C	1.451479	-1.029988	-0.438916
C58	C	1.585840	-1.029827	-0.573419
C59	C	1.585805	-0.975223	-0.573403
C60	C	1.518599	-0.948003	-0.506148
C61	C	1.585529	-0.527484	-0.573233
C62	C	1.585497	-0.472878	-0.573201
C63	C	1.451132	-0.473044	-0.438703
C64	C	1.451169	-0.527645	-0.438730
C65	C	1.518371	-0.554863	-0.506004
O66	O	1.394147	-0.614095	-0.381597
O67	O	1.642700	-0.613838	-0.630478
C68	C	1.792451	-0.251710	-0.506042
C69	C	1.909227	-0.251715	-0.506048
C70	C	1.518599	-0.251574	-0.780060
C71	C	1.518677	-0.251521	-0.896837
C72	C	1.518595	-0.115328	-0.506132
C73	C	1.518671	-0.057213	-0.506177
C74	C	1.518297	-0.251789	-0.233059
C75	C	1.518423	-0.251695	-0.116282
C76	C	1.450852	-0.218458	-0.061492
C77	C	1.450982	-0.218369	0.048231
C78	C	1.586255	-0.284760	0.048365
C79	C	1.586130	-0.284845	-0.061357
C80	C	1.412793	-0.156726	0.197896
C81	C	1.345206	-0.123493	0.252690
C82	C	1.242547	-0.115862	0.217225
C83	C	1.207453	-0.141471	0.126968
C84	C	1.275035	-0.174707	0.072180
C85	C	1.377709	-0.182329	0.107643
C86	C	1.624308	-0.346489	-0.211023
C87	C	1.691885	-0.379729	-0.265814
C88	C	1.794546	-0.387366	-0.230351
C89	C	1.829636	-0.361766	-0.140091
C90	C	1.762059	-0.328526	-0.085300
C91	C	1.659399	-0.320888	-0.120770
H92	H	0.919466	-0.312414	-0.627717
H93	H	1.352268	-0.400948	-0.648590
N94	N	1.315423	-0.696476	-0.302903
N95	N	1.218481	-0.702613	-0.309800
H96	H	1.169986	-0.682977	-0.261289
H97	H	1.640199	-0.450588	-0.627954
N98	N	1.381031	-0.097328	0.344882
N99	N	1.336016	-0.104943	0.430593
H100	H	1.361309	-0.086464	0.495705
H101	H	1.913230	-0.367985	-0.111214
H102	H	1.396426	-0.450872	-0.383940
H103	H	0.785190	-0.163159	-0.485152
H104	H	1.013724	-0.194576	-0.234925
H105	H	1.396793	-1.052275	-0.384153
H106	H	1.252696	-0.340268	-0.526924
H107	H	0.750098	-0.087819	-0.177554
N108	N	1.173519	-0.081917	0.273210
N109	N	1.204857	-0.059060	0.353794
H110	H	1.156112	-0.035084	0.393338
N111	N	1.655404	-0.318617	0.104488
N112	N	1.655506	-0.318538	0.202453
H113	H	1.704342	-0.342452	0.242091
H114	H	1.287804	-0.415571	-0.834545
N115	N	1.797915	-0.302380	0.006900
N116	N	1.889579	-0.309203	0.038560
H117	H	1.914903	-0.290738	0.103676
N118	N	1.721447	-0.696018	-0.709249
N119	N	1.781430	-0.720338	-0.769291
H120	H	1.829895	-0.700599	-0.817811
H121	H	1.024190	-0.308812	-0.777156
N122	N	1.381703	-0.184586	-0.117581
N123	N	1.388048	-0.136308	-0.105612
H124	H	1.339211	-0.112383	-0.145221
N125	N	1.517668	-0.164510	0.234112
N126	N	1.578910	-0.126612	0.241215
H127	H	1.652979	-0.132109	0.266799
H128	H	1.396481	-0.549938	-0.383971
H129	H	0.914149	-0.133880	-0.113268
H130	H	1.707575	-0.800731	-0.695356
H131	H	1.396715	-0.953225	-0.384131
H132	H	1.123766	-0.369504	-0.898829
N133	N	1.129815	-0.184071	-0.370464
N134	N	1.227780	-0.184067	-0.370466
H135	H	1.267352	-0.159931	-0.322085
N136	N	1.654178	-0.555273	-0.641958
N137	N	1.714137	-0.530812	-0.701978
H138	H	1.762625	-0.550438	-0.750512
N139	N	0.666896	-0.097201	-0.370850
N140	N	0.635173	-0.104408	-0.462359
H141	H	0.569949	-0.086091	-0.487936
N142	N	1.239181	-0.200866	-0.020001
N143	N	1.147511	-0.194053	-0.051653
H144	H	1.122186	-0.212525	-0.116760
N145	N	1.654427	-0.947267	-0.642089
N146	N	1.714419	-0.971584	-0.702126
H147	H	1.762887	-0.951843	-0.750639
N148	N	1.654492	-1.057637	-0.642112
N149	N	1.721463	-1.088104	-0.605211
H150	H	1.769948	-1.107746	-0.653721
N151	N	1.315484	-0.806837	-0.302923
N152	N	1.255484	-0.782516	-0.242900
H153	H	1.206999	-0.802254	-0.194398
H154	H	1.123853	-0.135259	0.098107
N155	N	1.863557	-0.421328	-0.286321
N156	N	1.832217	-0.444190	-0.366899
H157	H	1.880956	-0.468176	-0.406426
N158	N	1.656021	-0.405884	-0.358000
N159	N	1.564355	-0.399062	-0.389657
H160	H	1.539024	-0.417534	-0.454762
H161	H	1.540715	-0.340269	-0.239913
