data_functionalizedCrystal
_audit_creation_method	'MofGen! by Chris Wilmer'
_symmetry_space_group_name_H-M	'P1'
_symmetry_Int_Tables_number	1
_symmetry_cell_setting	triclinic
loop_
_symmetry_equiv_pos_as_xyz
  x,y,z
_cell_length_a	10.489711
_cell_length_b	10.489716
_cell_length_c	16.176319
_cell_angle_alpha	89.997268
_cell_angle_beta	89.991071
_cell_angle_gamma	84.528072
loop_
_atom_site_label
_atom_site_type_symbol
_atom_site_fract_x
_atom_site_fract_y
_atom_site_fract_z
O1	O	1.694065	0.179792	-0.068768
O2	O	1.322863	0.196725	-0.068763
O3	O	1.516927	0.002658	-0.068769
O4	O	1.500001	0.373860	-0.068762
O5	O	1.516900	0.002645	0.068725
O6	O	1.322836	0.196712	0.068731
O7	O	1.694038	0.179780	0.068725
Cu8	Cu	1.508434	0.188245	0.081282
Cu9	Cu	1.508466	0.188260	-0.081320
O10	O	1.499974	0.373847	0.068731
C11	C	1.275317	0.195448	-0.000015
C12	C	1.133686	0.191646	-0.000014
C13	C	0.951289	0.308352	-0.000021
C14	C	1.043454	0.250062	-0.067812
C15	C	1.043400	0.250018	0.067745
C16	C	0.973513	0.126518	-0.067878
C17	C	0.973450	0.126491	0.067740
C18	C	1.065587	0.068111	-0.000068
C19	C	1.515642	-0.044880	-0.000025
C20	C	1.511837	-0.186511	-0.000032
C21	C	1.630843	-0.284198	-0.000026
C22	C	1.567971	-0.361545	-0.067814
C23	C	1.567916	-0.361522	0.067743
C24	C	1.449014	-0.261993	-0.067876
C25	C	1.448978	-0.261964	0.067742
C26	C	1.386018	-0.339263	-0.000063
C27	C	1.741584	0.181057	-0.000024
C28	C	1.883215	0.184859	-0.000031
C29	C	1.501259	0.421385	-0.000015
C30	C	1.505064	0.563016	-0.000013
N31	N	1.508421	0.188234	0.195647
N32	N	1.508490	0.188261	-0.195685
C33	C	1.594379	0.102336	0.238909
C34	C	1.594386	0.102335	0.325456
C35	C	1.508439	0.188238	0.368740
C36	C	1.422472	0.274139	0.325472
C37	C	1.422461	0.274133	0.238927
C38	C	1.422516	0.274164	0.674500
C39	C	1.422537	0.274166	0.761052
C40	C	1.594441	0.102365	0.761030
C41	C	1.594429	0.102359	0.674484
C42	C	1.508458	0.188256	0.631224
C43	C	1.508451	0.188254	0.537380
C44	C	1.508452	0.188247	0.462582
H45	H	0.942720	0.074319	-0.125258
H46	H	1.664419	0.032414	0.639245
H47	H	1.664378	0.032390	0.360679
H48	H	1.352463	0.344078	0.203704
H49	H	1.618219	-0.405040	-0.125127
H50	H	1.115053	-0.033485	-0.000104
H51	H	1.664440	0.032420	0.796261
H52	H	1.734358	-0.259532	-0.000097
H53	H	0.901590	0.409854	-0.000087
H54	H	1.398773	-0.218446	0.125057
H55	H	1.398816	-0.218679	-0.125249
H56	H	1.618168	-0.405005	0.125051
H57	H	1.074340	0.302287	0.125058
H58	H	1.282425	-0.363682	-0.000097
H59	H	1.352518	0.344106	0.639285
H60	H	1.352544	0.344121	0.796292
H61	H	1.664372	0.032390	0.203673
H62	H	1.352487	0.344079	0.360719
H63	H	0.942421	0.074276	0.125054
H64	H	1.074455	0.302323	-0.125121
