data_functionalizedCrystal
_audit_creation_method	'MofGen! by Chris Wilmer'
_symmetry_space_group_name_H-M	'P1'
_symmetry_Int_Tables_number	1
_symmetry_cell_setting	triclinic
loop_
_symmetry_equiv_pos_as_xyz
  x,y,z
_cell_length_a	8.497374
_cell_length_b	8.497374
_cell_length_c	17.077404
_cell_angle_alpha	89.995637
_cell_angle_beta	90.003463
_cell_angle_gamma	90.000262
loop_
_atom_site_label
_atom_site_type_symbol
_atom_site_fract_x
_atom_site_fract_y
_atom_site_fract_z
Zn1	Zn	0.892119	-0.628320	1.200080
Zn2	Zn	1.392119	-0.128320	1.700080
Zn3	Zn	0.628359	-0.892066	1.200087
Zn4	Zn	1.128359	-0.392066	1.700087
Zn5	Zn	0.628338	-0.628295	1.068849
Zn6	Zn	1.128338	-0.128295	1.568849
Zn7	Zn	0.892083	-0.892053	1.068843
Zn8	Zn	1.392083	-0.392053	1.568843
O9	O	0.760225	-0.760183	1.134465
O10	O	1.260225	-0.260183	1.634465
O11	O	0.857155	-0.663322	1.309928
O12	O	1.357155	-0.163322	1.809928
O13	O	0.407594	-0.857071	1.182683
O14	O	0.907594	-0.357071	1.682683
O15	O	0.663336	-0.407536	1.086257
O16	O	1.163336	0.092464	1.586257
O17	O	0.663372	-0.857095	1.309933
O18	O	1.163372	-0.357095	1.809933
O19	O	0.857134	-0.407554	1.182672
O20	O	1.357134	0.092446	1.682672
O21	O	0.407579	-0.663279	1.086263
O22	O	0.907579	-0.163279	1.586263
O23	O	0.663301	-0.663267	0.959001
O24	O	1.163301	-0.163267	1.459001
O25	O	1.112850	-0.857074	1.086247
O26	O	1.612850	-0.357074	1.586247
O27	O	0.857073	-0.857049	0.958997
O28	O	1.357073	-0.357049	1.458997
O29	O	1.112877	-0.663310	1.182666
O30	O	1.612877	-0.163310	1.682666
O31	O	0.663337	-1.112826	1.182678
O32	O	1.163337	-0.612826	1.682678
O33	O	0.857093	-1.112817	1.086253
O34	O	1.357093	-0.612817	1.586253
C35	C	0.760181	-0.760155	0.930517
C36	C	1.260181	-0.260155	1.430517
C37	C	0.760200	-0.760180	0.843267
C38	C	1.260200	-0.260180	1.343267
C39	C	1.171705	-0.760186	1.134459
C40	C	1.671705	-0.260186	1.634459
C41	C	1.350349	-0.760202	1.134461
C42	C	1.850349	-0.260202	1.634461
C43	C	0.860936	-0.861235	0.802295
C44	C	1.360936	-0.361235	1.302295
C45	C	0.860961	-0.861238	0.720315
C46	C	1.360961	-0.361238	1.220315
C47	C	0.760242	-0.760194	0.679308
C48	C	1.260242	-0.260194	1.179308
C49	C	0.659502	-0.659128	0.720285
C50	C	1.159502	-0.159128	1.220285
C51	C	0.659486	-0.659118	0.802264
C52	C	1.159486	-0.159118	1.302264
C53	C	0.659540	-0.659159	0.549415
C54	C	1.159540	-0.159159	1.049415
C55	C	0.659553	-0.659171	0.467431
C56	C	1.159553	-0.159171	0.967431
C57	C	0.861015	-0.861280	0.467466
C58	C	1.361015	-0.361280	0.967466
C59	C	0.860999	-0.861270	0.549445
C60	C	1.360999	-0.361270	1.049445
C61	C	0.760256	-0.760205	0.590417
C62	C	1.260256	-0.260205	1.090417
C63	C	0.760233	-0.348703	1.134458
C64	C	1.260233	0.151297	1.634458
C65	C	0.760237	-0.170059	1.134458
C66	C	1.260237	0.329941	1.634458
C67	C	0.760270	-0.760213	1.339209
C68	C	1.260270	-0.260213	1.839209
C69	C	0.760289	-0.760226	1.426459
C70	C	1.260289	-0.260226	1.926459
H71	H	0.942948	-0.943522	0.835677
H72	H	1.442948	-0.443522	1.335677
H73	H	0.943047	-0.943565	0.434103
H74	H	1.443047	-0.443565	0.934103
H75	H	0.943004	-0.943557	0.582831
H76	H	1.443004	-0.443557	1.082831
F77	F	0.552351	-0.551635	0.423789
F78	F	1.052351	-0.051635	0.923789
F79	F	0.552318	-0.551579	0.676640
F80	F	1.052318	-0.051579	1.176640
F81	F	0.552320	-0.551593	0.593019
F82	F	1.052320	-0.051593	1.093019
F83	F	0.552273	-0.551559	0.845869
F84	F	1.052273	-0.051559	1.345869
H85	H	0.942988	-0.943529	0.686959
H86	H	1.442988	-0.443529	1.186959
