data_functionalizedCrystal
_audit_creation_method	'MofGen! by Chris Wilmer'
_symmetry_space_group_name_H-M	'P1'
_symmetry_Int_Tables_number	1
_symmetry_cell_setting	triclinic
loop_
_symmetry_equiv_pos_as_xyz
  x,y,z
_cell_length_a	12.645330
_cell_length_b	11.169417
_cell_length_c	11.169409
_cell_angle_alpha	89.979436
_cell_angle_beta	89.967780
_cell_angle_gamma	90.018570
loop_
_atom_site_label
_atom_site_type_symbol
_atom_site_fract_x
_atom_site_fract_y
_atom_site_fract_z
Zn1	Zn	-0.421929	1.834910	-0.678543
Zn2	Zn	0.078071	2.334910	-0.178543
Zn3	Zn	-0.599240	1.834771	-0.477860
Zn4	Zn	-0.099240	2.334771	0.022140
Zn5	Zn	-0.421994	1.634193	-0.477878
Zn6	Zn	0.078006	2.134193	0.022122
Zn7	Zn	-0.599154	1.634177	-0.678505
Zn8	Zn	-0.099154	2.134177	-0.178505
O9	O	-0.510579	1.734513	-0.578197
O10	O	-0.010579	2.234513	-0.078197
O11	O	-0.445459	2.002841	-0.651931
O12	O	0.054541	2.502841	-0.151931
O13	O	-0.575791	1.808112	-0.309913
O14	O	-0.075791	2.308112	0.190087
O15	O	-0.273638	1.660883	-0.504519
O16	O	0.226362	2.160883	-0.004519
O17	O	-0.575728	2.002739	-0.504490
O18	O	-0.075728	2.502739	-0.004490
O19	O	-0.273591	1.808349	-0.651948
O20	O	0.226409	2.308349	-0.151948
O21	O	-0.445569	1.660749	-0.309925
O22	O	0.054431	2.160749	0.190075
O23	O	-0.445485	1.466241	-0.504483
O24	O	0.054515	1.966241	-0.004483
O25	O	-0.575582	1.660857	-0.846460
O26	O	-0.075582	2.160857	-0.346460
O27	O	-0.575644	1.466230	-0.651883
O28	O	-0.075644	1.966230	-0.151883
O29	O	-0.445375	1.808334	-0.846488
O30	O	0.054625	2.308334	-0.346488
O31	O	-0.747576	1.808097	-0.504453
O32	O	-0.247576	2.308097	-0.004453
O33	O	-0.747513	1.660722	-0.651866
O34	O	-0.247513	2.160722	-0.151866
C35	C	-0.510563	1.422688	-0.578181
C36	C	-0.010563	1.922688	-0.078181
C37	C	-0.510582	1.289288	-0.578203
C38	C	-0.010582	1.789288	-0.078203
C39	C	-0.786009	1.734425	-0.578180
C40	C	-0.286009	2.234425	-0.078180
C41	C	-0.903839	1.734498	-0.578213
C42	C	-0.403839	2.234498	-0.078213
C43	C	-1.071407	1.642166	-0.671236
C44	C	-0.571407	2.142166	-0.171236
C45	C	-0.948848	1.641694	-0.670937
C46	C	-0.448848	2.141694	-0.170937
C47	C	-0.948448	1.700252	-0.451730
C48	C	-0.448448	2.200252	0.048270
C49	C	-1.071046	1.699689	-0.452295
C50	C	-0.571046	2.199689	0.047705
C51	C	-1.070923	1.861639	-0.610646
C52	C	-0.570923	2.361639	-0.110646
C53	C	-0.948316	1.860860	-0.613412
C54	C	-0.448316	2.360860	-0.113412
C55	C	-0.234074	1.734633	-0.578240
C56	C	0.265926	2.234633	-0.078240
C57	C	-0.116244	1.734685	-0.578258
C58	C	0.383756	2.234685	-0.078258
C59	C	-0.510462	1.734609	-0.891239
C60	C	-0.010462	2.234609	-0.391239
C61	C	-0.510412	1.734650	-1.024639
C62	C	-0.010412	2.234650	-0.524639
C63	C	-0.510596	2.047555	-0.578213
C64	C	-0.010596	2.547555	-0.078213
C65	C	-0.510603	2.180955	-0.578220
C66	C	-0.010603	2.680955	-0.078220
C67	C	-0.510620	1.734486	-0.266372
C68	C	-0.010620	2.234486	0.233628
C69	C	-0.510371	1.734678	-0.132972
C70	C	-0.010371	2.234678	0.367028
H71	H	-0.918683	1.663120	-0.764723
H72	H	-0.418683	2.163120	-0.264723
N73	N	-1.109326	1.952943	-0.520946
N74	N	-0.609326	2.452943	-0.020946
H75	H	-1.189140	1.956016	-0.522357
H76	H	-0.689140	2.456016	-0.022357
H77	H	-1.079885	2.034275	-0.542256
H78	H	-0.579885	2.534275	-0.042256
N79	N	-0.907930	1.578598	-0.414718
N80	N	-0.407930	2.078598	0.085282
H81	H	-0.866333	1.586176	-0.337925
H82	H	-0.366333	2.086176	0.162075
H83	H	-0.860730	1.545557	-0.479757
H84	H	-0.360730	2.045557	0.020243
N85	N	-0.909692	1.895082	-0.736710
N86	N	-0.409692	2.395082	-0.236710
H87	H	-0.863573	1.829018	-0.769639
H88	H	-0.363573	2.329018	-0.269639
H89	H	-0.867398	1.971622	-0.731546
H90	H	-0.367398	2.471622	-0.231546
N91	N	-0.909831	1.786661	-0.357442
N92	N	-0.409831	2.286661	0.142558
H93	H	-0.972381	1.827266	-0.318542
H94	H	-0.472381	2.327266	0.181458
H95	H	-0.862919	1.848920	-0.395983
H96	H	-0.362919	2.348920	0.104017
H97	H	-1.100808	1.663396	-0.765330
H98	H	-0.600808	2.163396	-0.265330
H99	H	-1.101756	1.892877	-0.701309
H100	H	-0.601756	2.392877	-0.201309
N101	N	-0.910119	1.517031	-0.642497
N102	N	-0.410119	2.017031	-0.142497
H103	H	-0.830252	1.516205	-0.642186
H104	H	-0.330252	2.016205	-0.142186
H105	H	-0.937034	1.459391	-0.705120
H106	H	-0.437034	1.959391	-0.205120
N107	N	-1.109057	1.576758	-0.415959
N108	N	-0.609057	2.076758	0.084041
H109	H	-1.152870	1.541210	-0.482655
H110	H	-0.652870	2.041210	0.017345
H111	H	-1.153545	1.583344	-0.341128
H112	H	-0.653545	2.083344	0.158872
H113	H	-1.100711	1.764151	-0.380657
H114	H	-0.600711	2.264151	0.119343
H115	H	-1.102312	1.548637	-0.650053
H116	H	-0.602312	2.048637	-0.150053
H117	H	-0.917671	1.933421	-0.550623
H118	H	-0.417671	2.433421	-0.050623
