data_functionalizedCrystal
_audit_creation_method	'MofGen! by Chris Wilmer'
_symmetry_space_group_name_H-M	'P1'
_symmetry_Int_Tables_number	1
_symmetry_cell_setting	triclinic
loop_
_symmetry_equiv_pos_as_xyz
  x,y,z
_cell_length_a	16.109301
_cell_length_b	19.188930
_cell_length_c	14.586319
_cell_angle_alpha	89.991095
_cell_angle_beta	89.998857
_cell_angle_gamma	83.303183
loop_
_atom_site_label
_atom_site_type_symbol
_atom_site_fract_x
_atom_site_fract_y
_atom_site_fract_z
O1	O	1.102833	0.089745	-0.076200
O2	O	1.602833	0.589745	0.423800
O3	O	0.860734	0.100913	-0.076215
O4	O	1.360734	0.600913	0.423785
O5	O	0.988770	-0.006310	-0.076189
O6	O	1.488770	0.493690	0.423811
O7	O	0.974797	0.196968	-0.076226
O8	O	1.474797	0.696968	0.423774
O9	O	0.988761	-0.006312	0.076292
O10	O	1.488761	0.493688	0.576292
O11	O	0.860725	0.100912	0.076266
O12	O	1.360725	0.600912	0.576266
O13	O	1.102824	0.089743	0.076280
O14	O	1.602824	0.589743	0.576280
Cu15	Cu	0.981774	0.095327	0.090196
Cu16	Cu	1.481774	0.595327	0.590196
Cu17	Cu	0.981785	0.095329	-0.090130
Cu18	Cu	1.481785	0.595329	0.409870
O19	O	0.974788	0.196967	0.076255
O20	O	1.474788	0.696967	0.576255
C21	C	0.829757	0.100460	0.000024
C22	C	1.329757	0.600460	0.500024
C23	C	0.737466	0.099103	0.000020
C24	C	1.237466	0.599103	0.500020
C25	C	0.428271	0.158294	0.000025
C26	C	0.928271	0.658294	0.500025
C27	C	0.514987	0.159575	0.000019
C28	C	1.014987	0.659575	0.500019
C29	C	0.535282	0.032358	0.000030
C30	C	1.035282	0.532358	0.500030
C31	C	0.448568	0.031077	0.000029
C32	C	0.948568	0.531077	0.500029
C33	C	0.395064	0.094048	0.000031
C34	C	0.895064	0.594048	0.500031
C35	C	0.568495	0.096609	0.000027
C36	C	1.068495	0.596609	0.500027
C37	C	0.662516	0.097997	0.000021
C38	C	1.162516	0.597997	0.500021
C39	C	0.301037	0.092659	0.000035
C40	C	0.801037	0.592659	0.500035
C41	C	0.988313	-0.032323	0.000054
C42	C	1.488313	0.467677	0.500054
C43	C	0.986955	-0.109831	0.000062
C44	C	1.486955	0.390169	0.500062
C45	C	1.062082	-0.154579	0.000070
C46	C	1.562082	0.345421	0.500070
C47	C	1.060806	-0.227406	0.000056
C48	C	1.560806	0.272594	0.500056
C49	C	0.984398	-0.255481	0.000050
C50	C	1.484398	0.244519	0.500050
C51	C	0.909261	-0.210723	0.000036
C52	C	1.409261	0.289277	0.500036
C53	C	0.910540	-0.137898	0.000042
C54	C	1.410540	0.362102	0.500042
N55	N	0.925991	-0.363623	0.051939
N56	N	1.425991	0.136377	0.551939
N57	N	0.924782	-0.432805	0.051936
N58	N	1.424782	0.067195	0.551936
C59	C	0.980543	-0.474899	0.000032
C60	C	1.480543	0.025101	0.500032
N61	N	1.037571	-0.445200	-0.051858
N62	N	1.537571	0.054800	0.448142
N63	N	1.038783	-0.376012	-0.051850
N64	N	1.538783	0.123988	0.448150
C65	C	0.983004	-0.334447	0.000044
C66	C	1.483004	0.165553	0.500044
C67	C	1.054291	-0.598615	0.000023
C68	C	1.554291	-0.098615	0.500023
C69	C	1.053012	-0.671443	0.000003
C70	C	1.553012	-0.171443	0.500003
C71	C	0.901465	-0.654758	-0.000007
C72	C	1.401465	-0.154758	0.499993
C73	C	0.902747	-0.581932	0.000004
C74	C	1.402747	-0.081932	0.500004
C75	C	0.979162	-0.553865	0.000024
C76	C	1.479162	-0.053865	0.500024
C77	C	1.133802	0.090196	0.000039
C78	C	1.633802	0.590196	0.500039
C79	C	1.226093	0.091553	0.000038
C80	C	1.726093	0.591553	0.500038
C81	C	0.975245	0.222980	0.000010
C82	C	1.475245	0.722980	0.500010
C83	C	0.976604	0.300487	-0.000004
C84	C	1.476604	0.800487	0.499996
N85	N	0.981773	0.095325	0.217028
N86	N	1.481773	0.595325	0.717028
N87	N	0.981793	0.095325	-0.216962
N88	N	1.481793	0.595325	0.283038
C89	C	1.038486	0.047863	0.452045
C90	C	1.538486	0.547863	0.952045
C91	C	1.038488	0.047861	0.548027
C92	C	1.538488	0.547861	1.048027
C93	C	0.925074	0.142790	0.548014
C94	C	1.425074	0.642790	1.048014
C95	C	0.925068	0.142788	0.452034
C96	C	1.425068	0.642788	0.952034
C97	C	0.981779	0.095325	0.404052
C98	C	1.481779	0.595325	0.904052
C99	C	0.981787	0.095326	0.596013
C100	C	1.481787	0.595326	1.096013
C101	C	0.981789	0.095324	0.700080
C102	C	1.481789	0.595324	1.200080
C103	C	0.981776	0.095326	0.299979
C104	C	1.481776	0.595326	0.799979
H105	H	1.124306	-0.131732	0.000083
H106	H	1.624306	0.368268	0.500083
O107	O	1.093436	0.001698	0.405355
O108	O	1.593436	0.501698	0.905355
C109	C	1.049035	-0.041396	0.349898
C110	C	1.549035	0.458604	0.849898
H111	H	0.983896	-0.013576	0.335497
H112	H	1.483896	0.486424	0.835497
H113	H	1.083772	-0.052481	0.282414
H114	H	1.583772	0.447519	0.782414
H115	H	1.043535	-0.092976	0.386939
H116	H	1.543535	0.407024	0.886939
H117	H	0.542020	0.211890	0.000013
H118	H	1.042020	0.711890	0.500013
H119	H	0.839252	-0.677616	-0.000016
H120	H	1.339252	-0.177616	0.499984
H121	H	0.384711	0.209568	0.000026
H122	H	0.884711	0.709568	0.500026
H123	H	1.121986	-0.263847	0.000059
H124	H	1.621986	0.236153	0.500059
H125	H	0.878902	0.181434	0.587090
H126	H	1.378902	0.681434	1.087090
H127	H	1.114192	-0.707877	0.000005
H128	H	1.614192	-0.207877	0.500005
O129	O	0.835091	-0.238075	-0.000089
O130	O	1.335091	0.261925	0.499911
C131	C	0.829816	-0.279677	-0.079074
C132	C	1.329816	0.220323	0.420926
H133	H	0.895414	-0.297824	-0.105396
H134	H	1.395414	0.202176	0.394604
H135	H	0.796848	-0.327360	-0.061317
H136	H	1.296848	0.172640	0.438683
H137	H	0.792921	-0.247488	-0.134375
H138	H	1.292921	0.252512	0.365625
H139	H	0.841570	-0.545497	0.000002
H140	H	1.341570	-0.045497	0.500002
O141	O	1.093656	0.001731	0.594504
O142	O	1.593656	0.501731	1.094504
C143	C	1.143690	-0.040171	0.531569
C144	C	1.643690	0.459829	1.031569
H145	H	1.144520	-0.011543	0.463146
H146	H	1.644520	0.488457	0.963146
H147	H	1.210123	-0.050806	0.559297
H148	H	1.710123	0.449194	1.059297
H149	H	1.116887	-0.092045	0.521373
H150	H	1.616887	0.407955	1.021373
H151	H	0.878886	0.181438	0.412956
H152	H	1.378886	0.681438	0.912956
H153	H	0.849360	-0.101463	0.000035
H154	H	1.349360	0.398537	0.500035
O155	O	1.128590	-0.571461	-0.000015
O156	O	1.628590	-0.071461	0.499985
C157	C	1.194628	-0.626578	-0.000001
C158	C	1.694628	-0.126578	0.499999
H159	H	1.171503	-0.676041	-0.028871
H160	H	1.671503	-0.176041	0.471129
H161	H	1.247989	-0.611363	-0.044271
H162	H	1.747989	-0.111363	0.455729
H163	H	1.217794	-0.636901	0.073150
H164	H	1.717794	-0.136901	0.573150
H165	H	0.578855	-0.018910	0.000030
H166	H	1.078855	0.481090	0.500030
H167	H	0.421531	-0.021243	0.000031
H168	H	0.921531	0.478757	0.500031
