data_functionalizedCrystal
_audit_creation_method	'MofGen! by Chris Wilmer'
_symmetry_space_group_name_H-M	'P1'
_symmetry_Int_Tables_number	1
_symmetry_cell_setting	triclinic
loop_
_symmetry_equiv_pos_as_xyz
  x,y,z
_cell_length_a	21.295420
_cell_length_b	12.759400
_cell_length_c	12.759393
_cell_angle_alpha	89.971753
_cell_angle_beta	89.978261
_cell_angle_gamma	89.998156
loop_
_atom_site_label
_atom_site_type_symbol
_atom_site_fract_x
_atom_site_fract_y
_atom_site_fract_z
Zn1	Zn	0.962461	-0.418323	-0.594096
Zn2	Zn	0.962420	-0.594041	-0.418427
Zn3	Zn	0.857189	-0.418364	-0.418426
Zn4	Zn	0.857205	-0.593947	-0.594058
O5	O	0.909819	-0.506169	-0.506252
O6	O	1.050545	-0.441654	-0.570810
O7	O	0.948437	-0.570794	-0.271406
O8	O	0.871164	-0.271338	-0.441745
O9	O	1.050515	-0.570754	-0.441746
O10	O	0.948507	-0.271307	-0.570809
O11	O	0.871125	-0.441725	-0.271405
O12	O	0.769102	-0.441633	-0.441708
O13	O	0.871191	-0.570593	-0.741084
O14	O	0.769114	-0.570634	-0.570744
O15	O	0.948522	-0.441563	-0.741113
O16	O	0.948453	-0.741050	-0.441709
O17	O	0.871152	-0.740981	-0.570745
C18	C	0.746267	-0.506129	-0.506222
C19	C	0.676299	-0.506137	-0.506234
C20	C	0.176856	-0.439105	-0.573580
C21	C	0.242599	-0.439097	-0.573580
C22	C	0.275460	-0.506201	-0.506276
C23	C	0.242573	-0.573336	-0.438987
C24	C	0.176831	-0.573350	-0.438996
N25	N	0.378655	-0.514133	-0.414283
N26	N	0.441106	-0.514114	-0.414277
C27	C	0.473534	-0.506166	-0.506245
N28	N	0.441152	-0.498217	-0.598222
N29	N	0.378695	-0.498231	-0.598227
C30	C	0.346745	-0.506194	-0.506259
C31	C	0.577699	-0.439032	-0.573536
C32	C	0.643443	-0.439031	-0.573538
C33	C	0.643415	-0.573265	-0.438935
C34	C	0.577673	-0.573271	-0.438942
C35	C	0.544819	-0.506149	-0.506242
C36	C	0.909817	-0.779136	-0.506246
C37	C	0.909873	-0.895913	-0.506278
C38	C	0.909863	-0.506063	-0.780285
C39	C	0.909882	-0.506018	-0.897062
C40	C	1.074009	-0.506210	-0.506282
C41	C	1.143977	-0.506227	-0.506295
C42	C	0.909838	-0.232135	-0.506281
C43	C	0.909846	-0.115359	-0.506293
C44	C	0.950119	-0.060479	-0.573489
C45	C	0.950134	0.049245	-0.573479
C46	C	0.869599	0.049200	-0.439075
C47	C	0.869587	-0.060522	-0.439080
C48	C	0.990378	-0.115316	-0.640702
C49	C	1.030653	-0.060436	-0.707904
C50	C	1.030668	0.049288	-0.707894
C51	C	0.990408	0.104132	-0.640682
C52	C	0.950153	-0.438825	-0.951940
C53	C	0.950168	-0.438787	-1.061665
C54	C	0.869638	-0.573143	-1.061622
C55	C	0.869620	-0.573175	-0.951900
C56	C	0.990415	-0.371667	-0.897102
C57	C	1.030690	-0.304470	-0.951981
C58	C	1.030705	-0.304432	-1.061705
C59	C	0.990444	-0.371591	-1.116551
C60	C	0.909811	-0.506199	-0.233284
C61	C	0.909914	-0.505948	-0.116508
H62	H	0.990368	-0.204659	-0.640720
O63	O	0.830567	-0.638531	-1.114780
C64	C	0.844323	-0.743254	-1.087968
H65	H	0.868507	-0.745460	-1.008305
H66	H	0.798889	-0.790356	-1.084198
H67	H	0.876696	-0.778630	-1.149717
H68	H	0.269332	-0.627975	-0.384190
H69	H	0.670170	-0.627910	-0.384143
H70	H	0.836820	0.093861	-0.384355
H71	H	1.063466	0.093970	-0.762605
H72	H	0.990429	0.193477	-0.640672
O73	O	1.069882	-0.239284	-0.898823
C74	C	1.132624	-0.262269	-0.925625
H75	H	1.133938	-0.302629	-1.005284
H76	H	1.160857	-0.186450	-0.929396
H77	H	1.153813	-0.316310	-0.863868
H78	H	0.269374	-0.384433	-0.628371
O79	O	1.069725	-0.113595	-0.773337
C80	C	1.055971	-0.086735	-0.878043
H81	H	1.031787	-0.007054	-0.880203
H82	H	1.101406	-0.082980	-0.925171
H83	H	1.023598	-0.148449	-0.913421
O84	O	0.830596	-0.638500	-0.898458
C85	C	0.866430	-0.706390	-0.835005
H86	H	0.914136	-0.669346	-0.818605
H87	H	0.840785	-0.720476	-0.757830
H88	H	0.873345	-0.784243	-0.877268
O89	O	0.830556	-0.113884	-0.373697
C90	C	0.866381	-0.177419	-0.305870
H91	H	0.915961	-0.144371	-0.299392
H92	H	0.843603	-0.178702	-0.225010
H93	H	0.868546	-0.260558	-0.338359
O94	O	0.675453	-0.373775	-0.638758
C95	C	0.713450	-0.305835	-0.579042
H96	H	0.723280	-0.342805	-0.499364
H97	H	0.759690	-0.291795	-0.621853
H98	H	0.688107	-0.227967	-0.567620
O99	O	1.069793	-0.239010	-1.114897
C100	C	1.056032	-0.134302	-1.088114
H101	H	1.031820	-0.132146	-1.008445
H102	H	1.101468	-0.087209	-1.084373
H103	H	1.023683	-0.098880	-1.149866
O104	O	0.145040	-0.373877	-0.639058
C105	C	0.188163	-0.314612	-0.698427
H106	H	0.235030	-0.357640	-0.701987
H107	H	0.169192	-0.303498	-0.781226
H108	H	0.195136	-0.234776	-0.660078
O109	O	0.545634	-0.638434	-0.373673
C110	C	0.480563	-0.624039	-0.388094
H111	H	0.471604	-0.589721	-0.469230
H112	H	0.455583	-0.702733	-0.380848
H113	H	0.461884	-0.568027	-0.325868
O114	O	0.144987	-0.638585	-0.373529
C115	C	0.188085	-0.697837	-0.314144
H116	H	0.234944	-0.654795	-0.310570
H117	H	0.169068	-0.708955	-0.231351
H118	H	0.195091	-0.777671	-0.352490
H119	H	0.550947	-0.384377	-0.628335
H120	H	0.990453	-0.371543	-1.205895
H121	H	0.990408	-0.371693	-0.807759
