data_functionalizedCrystal
_audit_creation_method	'MofGen! by Chris Wilmer'
_symmetry_space_group_name_H-M	'P1'
_symmetry_Int_Tables_number	1
_symmetry_cell_setting	triclinic
loop_
_symmetry_equiv_pos_as_xyz
  x,y,z
_cell_length_a	12.837943
_cell_length_b	11.792241
_cell_length_c	11.892314
_cell_angle_alpha	85.662150
_cell_angle_beta	86.050622
_cell_angle_gamma	89.511178
loop_
_atom_site_label
_atom_site_type_symbol
_atom_site_fract_x
_atom_site_fract_y
_atom_site_fract_z
O1	O	1.371168	0.288110	0.093981
O2	O	1.069280	0.273526	0.093988
O3	O	1.227550	0.116391	0.093977
O4	O	1.212897	0.445245	0.093993
O5	O	1.239430	0.130631	-0.094024
O6	O	1.081159	0.287765	-0.094013
O7	O	1.383047	0.302350	-0.094019
Zn8	Zn	1.233989	0.297318	-0.123865
Zn9	Zn	1.218338	0.278557	0.123834
O10	O	1.224777	0.459484	-0.094008
C11	C	1.036571	0.275719	-0.000012
C12	C	0.921411	0.261025	-0.000009
C13	C	1.232570	0.081127	-0.000023
C14	C	1.229815	-0.045167	-0.000022
C15	C	0.681446	0.437671	-0.000017
C16	C	0.573243	0.423870	-0.000015
C17	C	0.596799	0.219624	-0.000013
C18	C	0.705003	0.233425	-0.000015
C19	C	0.747322	0.342452	-0.000015
C20	C	0.855527	0.356251	-0.000008
C21	C	0.879082	0.152006	-0.000014
C22	C	0.770878	0.138205	-0.000013
C23	C	1.224748	-0.276394	-0.000003
C24	C	1.227563	-0.147723	-0.000014
C25	C	1.415756	0.300157	-0.000017
C26	C	1.530915	0.314850	-0.000012
C27	C	1.219757	0.494749	-0.000005
C28	C	1.222512	0.621042	0.000001
N29	N	1.244679	0.310122	-0.292913
C30	C	1.319224	0.399283	-0.470407
C31	C	1.311719	0.390324	-0.352069
C32	C	1.185137	0.238876	-0.352103
C33	C	1.192642	0.247835	-0.470441
C34	C	1.259689	0.328039	-0.529589
C35	C	1.267198	0.336992	-0.647928
C36	C	1.140611	0.185550	-0.647960
C37	C	1.133106	0.176591	-0.529622
N38	N	1.207656	0.265745	0.292882
H39	H	0.889981	0.445026	-0.000010
C40	C	0.724326	0.018283	-0.000008
H41	H	0.779059	-0.036449	-0.000012
H42	H	0.678459	0.003696	0.065551
H43	H	0.686753	0.013613	-0.065577
C44	C	0.728001	0.557591	-0.000007
H45	H	0.673269	0.612326	-0.000010
H46	H	0.765579	0.562251	0.065553
H47	H	0.773863	0.572187	-0.065575
C48	C	0.951547	0.047260	-0.000010
H49	H	1.022052	0.071091	-0.000015
H50	H	0.934506	-0.001922	0.065550
H51	H	0.942802	0.008001	-0.065578
H52	H	1.360196	0.448341	-0.303888
C53	C	0.500782	0.528611	-0.000008
H54	H	0.541486	0.595515	0.000001
H55	H	0.462221	0.532438	-0.065564
H56	H	0.453943	0.522506	0.065564
H57	H	1.321794	0.402296	-0.696085
H58	H	0.562329	0.130866	-0.000107
C59	C	1.111425	0.150630	-0.287028
H60	H	1.115498	0.155489	-0.208075
H61	H	1.041796	0.165441	-0.306421
H62	H	1.131531	0.076498	-0.306428
C63	C	1.392971	0.487500	-0.535473
H64	H	1.427351	0.528652	-0.483277
H65	H	1.443369	0.449648	-0.581629
H66	H	1.353679	0.538644	-0.581642
H67	H	1.078516	0.111293	-0.481448
H68	H	1.092132	0.127539	-0.696158
