data_functionalizedCrystal
_audit_creation_method	'MofGen! by Chris Wilmer'
_symmetry_space_group_name_H-M	'P1'
_symmetry_Int_Tables_number	1
_symmetry_cell_setting	triclinic
loop_
_symmetry_equiv_pos_as_xyz
  x,y,z
_cell_length_a	14.519731
_cell_length_b	14.519709
_cell_length_c	14.048226
_cell_angle_alpha	89.992623
_cell_angle_beta	89.993451
_cell_angle_gamma	83.684499
loop_
_atom_site_label
_atom_site_type_symbol
_atom_site_fract_x
_atom_site_fract_y
_atom_site_fract_z
O1	O	1.223858	0.120987	-0.079165
O2	O	0.955384	0.135203	-0.079166
O3	O	1.096739	-0.006143	-0.079157
O4	O	1.082502	0.262333	-0.079174
O5	O	1.096722	-0.006151	0.079164
O6	O	0.955367	0.135194	0.079155
O7	O	1.223841	0.120978	0.079157
Zn8	Zn	1.089601	0.128085	0.104293
Zn9	Zn	1.089623	0.128096	-0.104303
O10	O	1.082485	0.262324	0.079147
C11	C	0.921016	0.134532	-0.000006
C12	C	0.818635	0.132536	-0.000006
C13	C	0.735491	0.130915	-0.000010
C14	C	0.631182	0.128888	-0.000010
C15	C	0.548043	0.127280	-0.000010
C16	C	0.443728	0.125253	-0.000012
C17	C	1.096067	-0.040507	0.000004
C18	C	1.094079	-0.142889	0.000004
C19	C	1.086759	-0.517785	-0.000020
C20	C	1.088792	-0.413477	-0.000013
C21	C	1.090419	-0.330340	-0.000007
C22	C	1.092452	-0.226025	-0.000002
C23	C	1.258209	0.121649	-0.000006
C24	C	1.360589	0.123645	-0.000012
C25	C	1.083157	0.296688	-0.000016
C26	C	1.085146	0.399070	-0.000023
N27	N	1.089592	0.128077	0.246653
N28	N	1.089639	0.128097	-0.246663
C29	C	1.152204	0.065515	0.296476
C30	C	1.152210	0.065514	0.396133
C31	C	1.089609	0.128081	0.445967
C32	C	1.026990	0.190646	0.396138
C33	C	1.026980	0.190642	0.296482
C34	C	1.027017	0.190653	0.603852
C35	C	1.027027	0.190659	0.703515
C36	C	1.152247	0.065526	0.703503
C37	C	1.152237	0.065521	0.603847
C38	C	1.089619	0.128088	0.554025
H39	H	1.203186	0.014570	0.255908
C40	C	0.903205	0.314323	0.386131
C41	C	0.958169	0.259416	0.450911
H42	H	0.860713	0.356774	0.419947
H43	H	0.941636	0.347587	0.347251
H44	H	0.869976	0.275841	0.347274
H45	H	0.991403	0.297897	0.489765
H46	H	0.919732	0.226149	0.489808
C47	C	1.007156	0.316099	0.184383
C48	C	0.958158	0.259412	0.241710
H49	H	0.964663	0.358549	0.150567
H50	H	1.045588	0.349364	0.223244
H51	H	1.044434	0.278824	0.140449
H52	H	0.920884	0.296687	0.285650
H53	H	0.919710	0.226144	0.202846
H54	H	1.203193	0.014571	0.436698
H55	H	1.203232	0.014582	0.744074
C56	C	1.276009	-0.058173	0.613841
C57	C	1.221049	-0.003253	0.549068
H58	H	1.318484	-0.100636	0.580020
H59	H	1.309247	-0.019708	0.652692
H60	H	1.237566	-0.091433	0.652729
H61	H	1.259491	0.030012	0.510184
H62	H	1.187808	-0.041723	0.510200
C63	C	0.903221	0.314318	0.693521
C64	C	0.958198	0.259415	0.758294
H65	H	0.860722	0.356757	0.727342
H66	H	0.941643	0.347596	0.654644
H67	H	0.870001	0.275832	0.654660
H68	H	0.991423	0.297901	0.797151
H69	H	0.919771	0.226134	0.797188
H70	H	0.976023	0.241598	0.563290
