data_functionalizedCrystal
_audit_creation_method	'MofGen! by Chris Wilmer'
_symmetry_space_group_name_H-M	'P1'
_symmetry_Int_Tables_number	1
_symmetry_cell_setting	triclinic
loop_
_symmetry_equiv_pos_as_xyz
  x,y,z
_cell_length_a	13.033293
_cell_length_b	12.759399
_cell_length_c	12.759393
_cell_angle_alpha	89.967969
_cell_angle_beta	82.789832
_cell_angle_gamma	97.184989
loop_
_atom_site_label
_atom_site_type_symbol
_atom_site_fract_x
_atom_site_fract_y
_atom_site_fract_z
Zn1	Zn	1.597793	-0.214382	-0.798418
Zn2	Zn	1.597687	-0.390115	-0.622723
Zn3	Zn	1.423020	-0.236732	-0.600395
Zn4	Zn	1.423008	-0.412316	-0.776014
O5	O	1.510377	-0.313386	-0.699387
O6	O	1.744026	-0.219049	-0.793832
O7	O	1.574478	-0.369830	-0.472735
O8	O	1.446254	-0.086740	-0.626694
O9	O	1.743948	-0.348159	-0.664750
O10	O	1.574659	-0.070320	-0.772181
O11	O	1.446151	-0.257140	-0.456330
O12	O	1.276772	-0.278668	-0.604971
O13	O	1.446233	-0.385998	-0.926012
O14	O	1.276763	-0.407669	-0.733997
O15	O	1.574647	-0.240577	-0.942472
O16	O	1.574466	-0.540087	-0.643026
O17	O	1.446130	-0.556398	-0.755648
C18	C	1.238847	-0.348004	-0.664631
C19	C	1.122686	-0.362838	-0.649786
C20	C	1.510313	-0.586362	-0.699355
C21	C	1.510381	-0.703130	-0.699389
C22	C	1.577282	-0.749454	-0.640833
C23	C	1.577349	-0.859169	-0.640876
C24	C	1.443606	-0.876228	-0.758035
C25	C	1.443545	-0.766514	-0.757996
C26	C	1.700705	-0.993313	-0.619269
C27	C	1.767597	-1.039642	-0.560696
C28	C	1.783676	-1.002053	-0.460242
C29	C	1.732849	-0.918138	-0.418340
C30	C	1.665950	-0.871816	-0.476908
C31	C	1.649890	-0.909401	-0.577378
C32	C	1.320187	-0.632368	-0.779592
C33	C	1.253282	-0.586045	-0.838154
C34	C	1.237191	-0.623633	-0.938608
C35	C	1.288000	-0.707554	-0.980504
C36	C	1.354906	-0.753877	-0.921942
C37	C	1.370998	-0.716281	-0.821489
C38	C	1.070935	-0.305670	-0.707134
C39	C	0.950876	-0.321001	-0.691794
C40	C	1.782967	-0.278634	-0.734280
C41	C	1.899129	-0.263825	-0.749150
C42	C	1.510450	-0.313271	-0.973430
C43	C	1.510481	-0.313221	-1.090211
C44	C	1.510470	-0.039341	-0.699446
C45	C	1.510509	0.077441	-0.699471
C46	C	1.443685	-0.254528	-1.136534
C47	C	1.443710	-0.254493	-1.246261
C48	C	1.577334	-0.371845	-1.263334
C49	C	1.577304	-0.371886	-1.153608
C50	C	1.320512	-0.232609	-1.380451
C51	C	1.253725	-0.173898	-1.426779
C52	C	1.237707	-0.073437	-1.389140
C53	C	1.288490	-0.031665	-1.305178
C54	C	1.355284	-0.090369	-1.258857
C55	C	1.371283	-0.190846	-1.296491
C56	C	1.700504	-0.393760	-1.019416
C57	C	1.767304	-0.452458	-0.973094
C58	C	1.783333	-0.552919	-1.010731
C59	C	1.732568	-0.594686	-1.094700
C60	C	1.665768	-0.535987	-1.141022
C61	C	1.649737	-0.435527	-1.103377
C62	C	1.510365	-0.313418	-0.426418
C63	C	1.510536	-0.313145	-0.309664
H64	H	1.631706	-0.697848	-0.593113
H65	H	1.837738	-0.600705	-0.973014
H66	H	1.396281	-0.822206	-0.956065
H67	H	1.333536	-0.314418	-1.411094
H68	H	1.624569	-0.803492	-0.442793
C69	C	1.062468	-0.444294	-0.568111
N70	N	1.017113	-0.505650	-0.506593
C71	C	1.370170	-0.190005	-1.066799
N72	N	1.314792	-0.141408	-1.014278
C73	C	1.750554	-0.876785	-0.307839
N74	N	1.763899	-0.845628	-0.224613
C75	C	1.197379	-0.493739	-0.792057
N76	N	1.155273	-0.424216	-0.757337
H77	H	1.274900	-0.738159	-1.062302
C78	C	1.857202	-1.053068	-0.395783
N79	N	1.912564	-1.091512	-0.347226
C80	C	1.683029	-1.034665	-0.729778
N81	N	1.669712	-1.065819	-0.813012
C82	C	1.197857	-0.219857	-1.519127
N83	N	1.155777	-0.254468	-1.588684
H84	H	1.333291	-0.601749	-0.697797
C85	C	1.650607	-0.436631	-1.333051
N86	N	1.705715	-0.485523	-1.385550
C87	C	1.131153	-0.224210	-0.788805
N88	N	1.176508	-0.162852	-0.850321
H89	H	1.396635	-0.056356	-1.190501
C90	C	1.609920	-0.581938	-1.233386
N91	N	1.567854	-0.616548	-1.302952
C92	C	0.890662	-0.402462	-0.610115
N93	N	0.845307	-0.463817	-0.548596
H94	H	1.182708	-0.585909	-0.986286
H95	H	0.943702	-0.203522	-0.809604
H96	H	1.275451	0.050146	-1.274548
H97	H	1.745625	-0.676487	-1.125349
H98	H	1.808981	-1.107965	-0.594822
H99	H	1.183327	-0.025635	-1.426868
C100	C	1.823148	-0.406509	-0.880727
N101	N	1.865206	-0.371902	-0.811155
H102	H	1.389188	-0.927849	-0.805749
C103	C	1.682863	-0.283251	-0.977997
N104	N	1.669579	-0.200016	-0.946798
