data_functionalizedCrystal
_audit_creation_method	'MofGen! by Chris Wilmer'
_symmetry_space_group_name_H-M	'P1'
_symmetry_Int_Tables_number	1
_symmetry_cell_setting	triclinic
loop_
_symmetry_equiv_pos_as_xyz
  x,y,z
_cell_length_a	16.109301
_cell_length_b	10.654550
_cell_length_c	15.186229
_cell_angle_alpha	89.996404
_cell_angle_beta	89.999362
_cell_angle_gamma	83.973206
loop_
_atom_site_label
_atom_site_type_symbol
_atom_site_fract_x
_atom_site_fract_y
_atom_site_fract_z
O1	O	1.104090	0.161419	-0.073173
O2	O	0.862148	0.181507	-0.073187
O3	O	0.988682	-0.011352	-0.073174
O4	O	0.977556	0.354278	-0.073185
O5	O	0.988673	-0.011354	0.073284
O6	O	0.862139	0.181504	0.073271
O7	O	1.104082	0.161416	0.073285
Zn8	Zn	0.983109	0.171460	0.096531
Zn9	Zn	0.983120	0.171463	-0.096433
O10	O	0.977548	0.354275	0.073272
C11	C	0.831164	0.180692	0.000040
C12	C	0.738854	0.178253	0.000035
C13	C	0.517228	0.287019	0.000042
C14	C	0.430494	0.284717	0.000048
C15	C	0.449008	0.055896	0.000051
C16	C	0.535741	0.058199	0.000052
C17	C	0.569848	0.173764	0.000043
C18	C	0.396382	0.169159	0.000048
C19	C	0.302341	0.166662	0.000054
C20	C	0.663895	0.176262	0.000038
C21	C	0.987861	-0.058140	0.000054
C22	C	0.985417	-0.197550	0.000053
C23	C	1.059918	-0.278046	0.000057
C24	C	1.057616	-0.409036	0.000046
C25	C	0.906306	-0.379020	0.000031
C26	C	0.908608	-0.248033	0.000035
C27	C	1.145364	-0.606070	-0.051264
C28	C	1.219869	-0.686572	-0.051245
C29	C	1.287407	-0.657317	0.000083
C30	C	1.280443	-0.547563	0.051414
C31	C	1.205937	-0.467068	0.051402
C32	C	1.138402	-0.496322	0.000054
C33	C	0.820866	-0.050997	0.051353
C34	C	0.746359	0.029500	0.051348
C35	C	0.678814	0.000249	0.000025
C36	C	0.685769	-0.109507	-0.051292
C37	C	0.760277	-0.190004	-0.051287
C38	C	0.827822	-0.160745	0.000034
C39	C	1.135066	0.162231	0.000056
C40	C	1.227376	0.164671	0.000055
C41	C	0.978369	0.401063	0.000042
C42	C	0.980813	0.540473	0.000037
N43	N	0.983108	0.171457	0.228224
N44	N	0.983129	0.171457	-0.228126
C45	C	1.039156	0.086088	0.453952
C46	C	1.039159	0.086085	0.546142
C47	C	0.927074	0.256830	0.546140
C48	C	0.927068	0.256826	0.453952
C49	C	0.983114	0.171456	0.407860
C50	C	0.983122	0.171457	0.592238
C51	C	0.983125	0.171455	0.692194
C52	C	0.983111	0.171457	0.307898
H53	H	0.421227	-0.038193	0.000064
H54	H	1.200266	-0.377712	0.093198
O55	O	0.586742	-0.051939	0.000012
C56	C	0.595960	-0.279141	0.000070
C57	C	0.538106	-0.154513	0.000089
H58	H	0.556661	-0.362104	0.000151
H59	H	0.637015	-0.283864	-0.061235
H60	H	0.637044	-0.283712	0.061349
H61	H	0.496970	-0.149859	-0.061148
H62	H	0.497107	-0.149842	0.061435
H63	H	0.740696	0.118862	0.093145
H64	H	0.881427	0.326344	0.416421
H65	H	0.544996	0.381119	0.000041
H66	H	0.387654	0.376940	0.000049
O67	O	0.620254	-0.137978	-0.101279
C68	C	0.569825	-0.176651	-0.247136
C69	C	0.644097	-0.144433	-0.190633
H70	H	0.589069	-0.181854	-0.319392
H71	H	0.550016	-0.271572	-0.225563
H72	H	0.515377	-0.100281	-0.238281
H73	H	0.698594	-0.220721	-0.199461
H74	H	0.663834	-0.049476	-0.212220
H75	H	1.122460	-0.236948	0.000069
O76	O	1.093641	0.003302	0.409119
C77	C	1.206933	-0.023492	0.304927
C78	C	1.145312	0.070423	0.355669
H79	H	1.248713	0.030737	0.261686
H80	H	1.247050	-0.084531	0.353647
H81	H	1.170607	-0.086225	0.261833
H82	H	1.181571	0.133238	0.398764
H83	H	1.105196	0.131373	0.306902
H84	H	1.335439	-0.523762	0.093216
H85	H	1.348071	-0.722871	0.000097
O86	O	1.226646	-0.793048	-0.101245
C87	C	1.221809	-0.881037	-0.247098
C88	C	1.214129	-0.760350	-0.190588
H89	H	1.211676	-0.854645	-0.319340
H90	H	1.286667	-0.933561	-0.238341
H91	H	1.172708	-0.944268	-0.225431
H92	H	1.263184	-0.697024	-0.212218
H93	H	1.149244	-0.707925	-0.199349
H94	H	1.084793	0.016568	0.583667
O95	O	1.079787	-0.634317	-0.101241
C96	C	0.984664	-0.568636	-0.218924
C97	C	1.058944	-0.536498	-0.162403
H98	H	0.967778	-0.489557	-0.268374
H99	H	1.002416	-0.660862	-0.255664
H100	H	0.928765	-0.579251	-0.174526
H101	H	1.114874	-0.525818	-0.206737
H102	H	1.041123	-0.444300	-0.125655
O103	O	0.831770	-0.428271	0.000061
C104	C	0.761163	-0.616760	0.000002
C105	C	0.845634	-0.561156	-0.000016
H106	H	0.772342	-0.724204	-0.000079
H107	H	0.724291	-0.583702	0.061307
H108	H	0.724313	-0.583524	-0.061278
H109	H	0.882551	-0.594367	0.061223
H110	H	0.882442	-0.594208	-0.061361
O111	O	0.767178	-0.296570	-0.101195
C112	C	0.840277	-0.412648	-0.218914
C113	C	0.832563	-0.291920	-0.162446
H114	H	0.893126	-0.408916	-0.268461
H115	H	0.854181	-0.498625	-0.174568
H116	H	0.779182	-0.419740	-0.255558
H117	H	0.893634	-0.284706	-0.125793
H118	H	0.818617	-0.206002	-0.206837
O119	O	0.872719	0.339715	0.591051
C120	C	0.823024	0.415351	0.733070
C121	C	0.884636	0.321431	0.682321
H122	H	0.832625	0.400584	0.806870
H123	H	0.834436	0.515968	0.715000
H124	H	0.756348	0.398972	0.714900
H125	H	0.951335	0.337694	0.700464
H126	H	0.873151	0.220847	0.700396
H127	H	0.618142	0.065794	0.000037
H128	H	0.875873	-0.027152	0.093129
