data_functionalizedCrystal
_audit_creation_method	'MofGen! by Chris Wilmer'
_symmetry_space_group_name_H-M	'P1'
_symmetry_Int_Tables_number	1
_symmetry_cell_setting	triclinic
loop_
_symmetry_equiv_pos_as_xyz
  x,y,z
_cell_length_a	23.096457
_cell_length_b	23.096457
_cell_length_c	14.628931
_cell_angle_alpha	60.001771
_cell_angle_beta	89.998103
_cell_angle_gamma	59.998679
loop_
_atom_site_label
_atom_site_type_symbol
_atom_site_fract_x
_atom_site_fract_y
_atom_site_fract_z
Zr1	Zr	0.557792	0.633716	-0.119937
O2	O	0.465345	0.754503	-0.265886
O3	O	0.586130	0.512929	-0.075201
O4	O	0.586133	0.633715	-0.265899
O5	O	0.465342	0.633718	0.075242
O6	O	0.681416	0.633712	-0.265902
O7	O	0.465342	0.633718	-0.075189
O8	O	0.681410	0.417649	0.075221
O9	O	0.465347	0.849781	-0.265880
O10	O	0.669327	0.562608	-0.056118
O11	O	0.598218	0.562610	0.056150
O12	O	0.598222	0.704820	-0.168371
O13	O	0.527114	0.704821	-0.056103
Zr14	Zr	0.709756	0.633713	0.119979
Zr15	Zr	0.709756	0.633712	-0.119942
Zr16	Zr	0.557792	0.633716	0.119984
Zr17	Zr	0.557796	0.785673	-0.119927
Zr18	Zr	0.709752	0.481755	0.119969
O19	O	0.681418	0.754499	0.075243
O20	O	0.681419	0.754498	-0.265894
O21	O	0.465345	0.754504	0.075251
O22	O	0.802203	0.512925	0.265928
O23	O	0.802204	0.512924	-0.075209
O24	O	0.586130	0.512930	0.265936
O25	O	0.802207	0.633710	-0.075200
O26	O	0.681415	0.633713	0.265941
O27	O	0.586133	0.633716	0.265944
O28	O	0.802207	0.633710	0.075231
O29	O	0.586139	0.849779	-0.265884
O30	O	0.681410	0.417650	0.265926
O31	O	0.802201	0.417647	0.265922
O32	O	0.802201	0.417646	0.075217
O33	O	0.465347	0.849782	-0.075175
O34	O	0.586139	0.849779	-0.075179
O35	O	0.669326	0.562609	0.168413
O36	O	0.740435	0.562607	0.056145
O37	O	0.669330	0.704818	-0.056108
O38	O	0.598222	0.704820	0.056160
C39	C	0.633769	0.443639	0.000008
C40	C	0.633768	0.379129	0.000004
C41	C	0.670881	0.348827	-0.058603
C42	C	0.670888	0.288204	-0.058594
C43	C	0.633768	0.257898	0.000007
C44	C	0.596653	0.288204	0.058627
C45	C	0.596653	0.348819	0.058625
N46	N	0.573362	0.195504	-0.008117
N47	N	0.573364	0.137923	-0.008121
C48	C	0.633767	0.075266	0.000018
N49	N	0.694168	0.072372	0.008139
N50	N	0.694165	0.129961	0.008138
C51	C	0.633764	0.192170	0.000016
C52	C	0.670891	-0.020770	-0.058582
C53	C	0.670900	-0.081397	-0.058565
C54	C	0.596659	-0.081391	0.058648
C55	C	0.596657	-0.020771	0.058638
C56	C	0.633771	0.009539	0.000017
C57	C	0.443690	0.633719	0.000027
C58	C	0.379177	0.633720	0.000030
C59	C	0.348874	0.633726	-0.082850
C60	C	0.288262	0.633719	-0.082850
C61	C	0.257947	0.633722	0.000022
C62	C	0.288259	0.633711	0.082916
C63	C	0.348874	0.633710	0.082920
N64	N	0.139596	0.680077	0.025114
N65	N	0.082013	0.680079	0.025103
C66	C	0.075317	0.633722	0.000016
N67	N	0.128375	0.587373	-0.025082
N68	N	0.185961	0.587374	-0.025077
C69	C	0.192220	0.633722	0.000027
C70	C	-0.020707	0.633719	-0.082868
C71	C	-0.081318	0.633706	-0.082861
C72	C	-0.081324	0.633707	0.082900
C73	C	-0.020710	0.633711	0.082897
C74	C	0.009592	0.633721	0.000007
C75	C	0.823858	0.633710	0.000015
C76	C	0.888371	0.633708	0.000012
C77	C	0.633774	0.633714	-0.300084
C78	C	0.633775	0.633713	-0.401937
C79	C	0.633779	0.823790	0.000034
C80	C	0.633781	0.888299	0.000038
C81	C	0.669046	0.563169	-0.496927
C82	C	0.669047	0.563167	-0.391655
C83	C	0.633774	0.633715	0.300126
C84	C	0.633774	0.633715	0.401979
C85	C	0.823854	0.443634	0.000002
C86	C	0.888365	0.379123	-0.000004
C87	C	0.633769	0.443639	0.300113
C88	C	0.633767	0.379129	0.401962
C89	C	0.823853	0.443635	0.300107
C90	C	0.888364	0.379123	0.401953
C91	C	0.443695	0.823794	-0.300065
C92	C	0.379184	0.888305	-0.401911
C93	C	0.443695	0.823794	0.000040
C94	C	0.379184	0.888306	0.000047
C95	C	0.633779	0.823789	-0.300071
C96	C	0.633781	0.888299	-0.401920
C97	C	0.881542	0.348828	-0.058618
C98	C	0.942152	0.288221	-0.058646
C99	C	1.009583	0.257906	-0.000054
C100	C	1.016404	0.288206	0.058561
C101	C	0.955795	0.348816	0.058582
C102	C	0.670884	0.348834	0.508401
C103	C	0.670880	0.288229	0.604108
C104	C	0.633762	0.257916	0.593373
C105	C	0.596641	0.288217	0.486922
C106	C	0.596642	0.348825	0.391218
C107	C	0.955784	0.348827	0.391179
C108	C	1.016404	0.288221	0.486865
C109	C	1.009604	0.257907	0.593325
C110	C	0.942178	0.288209	0.604097
C111	C	0.881559	0.348819	0.508412
C112	C	0.311765	0.918608	-0.391137
C113	C	0.251144	0.979234	-0.486823
C114	C	0.257944	1.009551	-0.593283
C115	C	0.325370	0.979245	-0.604055
C116	C	0.385990	0.918624	-0.508370
C117	C	0.386006	0.918606	0.058650
C118	C	0.325397	0.979230	0.058652
C119	C	0.257966	1.009548	0.000056
C120	C	0.251145	0.979244	-0.058554
C121	C	0.311753	0.918626	-0.058562
C122	C	0.670906	0.918593	-0.391149
C123	C	0.670921	0.979198	-0.486837
C124	C	0.633807	1.009513	-0.593295
C125	C	0.596682	0.979213	-0.604064
C126	C	0.596671	0.918605	-0.508377
H127	H	0.701111	0.263528	-0.106320
H128	H	0.961334	0.373500	0.304502
H129	H	0.306215	0.893928	-0.304460
H130	H	0.566419	0.373484	0.304554
F131	F	0.557153	0.255944	0.121002
F132	F	0.710395	0.381082	0.519852
F133	F	0.710434	1.011438	-0.475352
H134	H	0.826665	0.373478	0.517200
H135	H	0.603579	0.694111	-0.606637
F136	F	0.557141	0.255947	0.475514
H137	H	0.196249	1.003899	-0.478030
H138	H	0.961360	0.373474	0.106319
F139	F	0.457741	0.886375	-0.519854
H140	H	1.071300	0.263555	0.478074
H141	H	0.373547	0.633731	-0.150341
F142	F	0.332671	1.011468	0.121040
H143	H	1.071314	0.263515	0.106264
F144	F	0.193466	1.074063	0.000076
H145	H	0.826642	0.373510	-0.106344
F146	F	0.457766	0.886353	0.121017
F147	F	0.594296	0.712663	-0.515288
F148	F	0.557151	0.381069	0.121006
F149	F	0.710410	0.886340	-0.277857
F150	F	1.074128	0.193399	0.695153
F151	F	0.633824	1.074021	-0.695125
F152	F	0.710401	-0.113645	-0.120949
H153	H	0.699242	0.502770	-0.304930
F154	F	-0.113567	0.633706	-0.171071
F155	F	0.710395	0.011485	-0.120964
F156	F	0.934877	0.255982	-0.121031
F157	F	0.934952	0.255939	0.717409
F158	F	0.710393	0.255989	0.717389
F159	F	0.633769	0.193410	0.695241
F160	F	1.074082	0.193398	-0.000086
H161	H	0.003968	0.633723	-0.150360
H162	H	0.208578	1.058911	-0.671187
H163	H	0.566435	-0.106066	0.106362
F164	F	0.179373	1.011517	-0.120909
F165	F	0.332596	1.011517	-0.717367
F166	F	0.304481	0.886379	-0.120933
F167	F	0.557180	1.011490	-0.717374
F168	F	0.557149	0.886376	-0.519858
H169	H	0.701104	0.373501	-0.106332
H170	H	0.566432	0.003904	0.106358
F171	F	0.256006	0.633725	-0.171066
F172	F	0.381126	0.633705	0.171134
F173	F	0.255997	0.633711	0.171116
H174	H	-0.106004	0.633705	0.150379
H175	H	0.699247	0.502772	-0.488312
F176	F	0.011540	0.633711	0.171104
