data_functionalizedCrystal
_audit_creation_method	'MofGen! by Chris Wilmer'
_symmetry_space_group_name_H-M	'P1'
_symmetry_Int_Tables_number	1
_symmetry_cell_setting	triclinic
loop_
_symmetry_equiv_pos_as_xyz
  x,y,z
_cell_length_a	8.597213
_cell_length_b	23.532407
_cell_length_c	22.010155
_cell_angle_alpha	89.999577
_cell_angle_beta	82.289752
_cell_angle_gamma	84.098222
loop_
_atom_site_label
_atom_site_type_symbol
_atom_site_fract_x
_atom_site_fract_y
_atom_site_fract_z
O1	O	2.081184	0.084971	-0.159476
O2	O	1.624135	0.091495	-0.135552
O3	O	1.866442	0.005406	-0.148224
O4	O	1.838877	0.171060	-0.146804
O5	O	1.866398	0.005419	-0.047172
O6	O	1.624091	0.091508	-0.034500
O7	O	2.081140	0.084984	-0.058423
Cu8	Cu	1.852611	0.088247	-0.037235
Cu9	Cu	1.852663	0.088232	-0.156741
O10	O	1.838833	0.171072	-0.045751
C11	C	1.565651	0.090801	-0.081966
C12	C	1.391452	0.088709	-0.072847
C13	C	1.865718	-0.015809	-0.097660
C14	C	1.863607	-0.079042	-0.097545
C15	C	1.993763	-0.477154	-0.104391
C16	C	1.991802	-0.536569	-0.104293
O17	O	2.112457	-0.572395	-0.110630
N18	N	1.847751	-0.560292	-0.096752
C19	C	1.705651	-0.524596	-0.089315
O20	O	1.582944	-0.550230	-0.082893
C21	C	1.707613	-0.465182	-0.089418
C22	C	1.851673	-0.441463	-0.096953
C23	C	2.137811	-0.453434	-0.111926
C24	C	2.139771	-0.394023	-0.112022
C25	C	1.997682	-0.358332	-0.104584
C26	C	1.853633	-0.382052	-0.097049
C27	C	1.565515	-0.429488	-0.081985
C28	C	1.567489	-0.370070	-0.082089
C29	C	1.711550	-0.346351	-0.089624
C30	C	1.713504	-0.286950	-0.089708
N31	N	1.857555	-0.263227	-0.097249
C32	C	1.999644	-0.298918	-0.104687
C33	C	1.701541	-0.649370	-0.089102
C34	C	1.699577	-0.708783	-0.088995
C35	C	1.985729	-0.720752	-0.103973
C36	C	1.987691	-0.661338	-0.104076
C37	C	1.845592	-0.625647	-0.096642
C38	C	2.003749	-0.174150	-0.104889
C39	C	2.005696	-0.114733	-0.104983
C40	C	1.719545	-0.102769	-0.090007
C41	C	1.717597	-0.162181	-0.089911
C42	C	1.859712	-0.197870	-0.097354
O43	O	1.592912	-0.251089	-0.083376
O44	O	2.122331	-0.273276	-0.111116
C45	C	2.139624	0.085677	-0.112011
C46	C	2.313823	0.087769	-0.121134
C47	C	1.839557	0.192287	-0.096317
C48	C	1.841667	0.255521	-0.096436
N49	N	1.852586	0.088257	0.046819
N50	N	1.852701	0.088217	-0.240795
C51	C	1.959963	0.050117	0.460983
C52	C	1.959970	0.050113	0.524590
O53	O	2.051202	0.017692	0.552711
N54	N	1.852663	0.088220	0.562022
C55	C	1.745330	0.126329	0.535845
O56	O	1.654056	0.158740	0.573524
C57	C	1.745317	0.126329	0.472239
C58	C	1.852642	0.088224	0.434809
C59	C	2.067278	0.012015	0.423554
C60	C	2.067272	0.012020	0.359951
C61	C	1.959951	0.050127	0.333777
C62	C	1.852636	0.088229	0.371206
C63	C	1.637978	0.164435	0.446063
C64	C	1.637973	0.164432	0.382452
C65	C	1.745298	0.126327	0.345023
C66	C	1.745309	0.126341	0.281430
N67	N	1.852617	0.088234	0.243998
C68	C	1.959938	0.050127	0.270172
C69	C	1.745365	0.126324	0.669421
C70	C	1.745385	0.126326	0.733025
C71	C	1.960023	0.050110	0.721766
C72	C	1.960010	0.050111	0.658161
C73	C	1.852672	0.088217	0.631989
C74	C	1.959918	0.050140	0.136601
C75	C	1.959907	0.050150	0.072993
C76	C	1.745264	0.126364	0.084257
C77	C	1.745280	0.126357	0.147860
C78	C	1.852613	0.088240	0.174030
O79	O	1.654119	0.158744	0.253267
O80	O	2.051182	0.017716	0.232486
H81	H	2.123013	-0.095424	-0.111117
H82	H	2.154672	-0.019019	0.444858
C83	C	1.413371	-0.331225	-0.074055
C84	C	1.445904	-0.274114	-0.075768
C85	C	1.303974	-0.238316	-0.068376
H86	H	1.354130	-0.338433	-0.035728
H87	H	1.354274	-0.338469	-0.106217
H88	H	1.504976	-0.266873	-0.043609
H89	H	1.505123	-0.266889	-0.114092
H90	H	1.244877	-0.245560	-0.100538
H91	H	1.244743	-0.245529	-0.030049
H92	H	1.326028	-0.199563	-0.069543
C93	C	1.409262	-0.455339	-0.073791
C94	C	1.437918	-0.515012	-0.075281
C95	C	1.294008	-0.538843	-0.067729
H96	H	1.350720	-0.443199	-0.105960
H97	H	1.350754	-0.443174	-0.035480
H98	H	1.496402	-0.527172	-0.113587
H99	H	1.496437	-0.527168	-0.043114
H100	H	1.235499	-0.526678	-0.029418
H101	H	1.235476	-0.526699	-0.099899
H102	H	1.313431	-0.579333	-0.068733
C103	C	2.144262	-0.635698	-0.112303
C104	C	2.268266	-0.679678	-0.118809
C105	C	2.412526	-0.656084	-0.126400
H106	H	2.151196	-0.612775	-0.077439
H107	H	2.151079	-0.612788	-0.147914
H108	H	2.261452	-0.702578	-0.083201
H109	H	2.261384	-0.702605	-0.153673
H110	H	2.419343	-0.633175	-0.162011
H111	H	2.419444	-0.633161	-0.091534
H112	H	2.496680	-0.685921	-0.130820
C113	C	1.402763	0.088950	-0.185569
C114	C	1.344679	0.137339	-0.215781
C115	C	1.426597	0.138450	-0.275137
H116	H	1.388570	0.055545	-0.207542
H117	H	1.511936	0.090295	-0.183365
H118	H	1.235533	0.135989	-0.217988
H119	H	1.358874	0.170751	-0.193826
H120	H	1.535770	0.139795	-0.272933
H121	H	1.412398	0.105043	-0.297105
H122	H	1.387209	0.171284	-0.295642
H123	H	1.550583	0.195463	0.476530
C124	C	2.076626	0.008733	0.164889
C125	C	2.170619	-0.024621	0.118485
C126	C	2.278163	-0.062765	0.144520
H127	H	2.020744	-0.015357	0.192631
H128	H	2.141725	0.029576	0.186278
H129	H	2.105528	-0.045463	0.097106
H130	H	2.226536	-0.000547	0.090740
H131	H	2.343263	-0.041921	0.165908
H132	H	2.222268	-0.086850	0.172261
H133	H	2.341960	-0.085396	0.113038
C134	C	1.543214	-0.734564	-0.080686
C135	C	1.533674	-0.768315	-0.028194
C136	C	1.389643	-0.792065	-0.020520
H137	H	1.536356	-0.757529	-0.115526
H138	H	1.458833	-0.704810	-0.076235
H139	H	1.618032	-0.798065	-0.032649
H140	H	1.540504	-0.745363	0.006656
H141	H	1.305261	-0.762310	-0.016069
H142	H	1.382798	-0.815027	-0.055364
H143	H	1.383144	-0.814963	0.015099
H144	H	1.550561	0.195462	0.361147
C145	C	1.302650	0.087678	-0.008371
C146	C	1.409168	0.088979	0.034347
C147	C	1.327420	0.088037	0.093747
H148	H	1.251267	0.053800	-0.003332
H149	H	1.226336	0.120045	-0.002089
H150	H	1.485455	0.056615	0.028067
H151	H	1.460556	0.122854	0.029328
H152	H	1.251106	0.120404	0.100029
H153	H	1.276040	0.054159	0.098779
H154	H	1.399677	0.088924	0.122738
C155	C	2.183856	-0.029422	0.319425
C156	C	2.277800	-0.062802	0.355974
C157	C	2.385200	-0.100993	0.318669
H158	H	2.249017	-0.008631	0.291193
H159	H	2.127813	-0.053485	0.297565
H160	H	2.333839	-0.038742	0.377824
H161	H	2.212682	-0.083605	0.384206
H162	H	2.329157	-0.125056	0.296809
H163	H	2.450350	-0.080197	0.290438
H164	H	2.448944	-0.123649	0.343462
H165	H	1.657901	0.157391	0.178335
C166	C	1.565334	-0.063983	-0.082063
C167	C	1.558138	-0.029535	-0.133682
C168	C	1.416094	0.006199	-0.126394
H169	H	1.559983	-0.040503	-0.046586
H170	H	1.479203	-0.086595	-0.077592
H171	H	1.644245	-0.006925	-0.138146
H172	H	1.563462	-0.052999	-0.169166
H173	H	1.329963	-0.016413	-0.121923
H174	H	1.410756	0.029675	-0.090915
H175	H	1.411186	0.029572	-0.161418
H176	H	2.119473	-0.203202	-0.110953
H177	H	2.101426	-0.749823	-0.110032
H178	H	2.257080	-0.374717	-0.118160
H179	H	2.253524	-0.482489	-0.117985
C180	C	2.076596	0.008673	0.617632
C181	C	2.170555	-0.024706	0.654178
C182	C	2.277959	-0.062892	0.616869
H183	H	2.141747	0.029466	0.589399
H184	H	2.020556	-0.015392	0.595773
H185	H	2.226591	-0.000644	0.676027
H186	H	2.105448	-0.045512	0.682410
H187	H	2.221920	-0.086957	0.595010
H188	H	2.343099	-0.042094	0.588637
H189	H	2.341713	-0.085547	0.641660
H190	H	1.585820	-0.620314	-0.083043
H191	H	2.047408	0.019080	0.743088
H192	H	1.600292	-0.181494	-0.083758
C193	C	1.629088	0.167737	0.640918
C194	C	1.712126	0.203073	0.600039
C195	C	1.605068	0.241224	0.573768
H196	H	1.565148	0.190485	0.672257
H197	H	1.564091	0.146897	0.619476
H198	H	1.777097	0.223911	0.621479
H199	H	1.776061	0.180341	0.568688
H200	H	1.540070	0.220384	0.552327
H201	H	1.541133	0.263968	0.605112
H202	H	1.661393	0.265200	0.546025
H203	H	2.047310	0.019121	0.042519
H204	H	1.658007	0.157361	0.763495
H205	H	1.657889	0.157392	0.062937
