data_functionalizedCrystal
_audit_creation_method	'MofGen! by Chris Wilmer'
_symmetry_space_group_name_H-M	'P1'
_symmetry_Int_Tables_number	1
_symmetry_cell_setting	triclinic
loop_
_symmetry_equiv_pos_as_xyz
  x,y,z
_cell_length_a	12.759401
_cell_length_b	18.215405
_cell_length_c	18.215407
_cell_angle_alpha	90.011538
_cell_angle_beta	90.006460
_cell_angle_gamma	90.025046
loop_
_atom_site_label
_atom_site_type_symbol
_atom_site_fract_x
_atom_site_fract_y
_atom_site_fract_z
Zn1	Zn	1.606056	-0.293127	0.416037
Zn2	Zn	1.605956	-0.416157	0.292965
Zn3	Zn	1.430395	-0.293109	0.292991
Zn4	Zn	1.430316	-0.416156	0.415997
O5	O	1.518181	-0.354637	0.354498
O6	O	1.753064	-0.309455	0.399717
O7	O	1.582659	-0.399828	0.189984
O8	O	1.453772	-0.190127	0.309341
O9	O	1.752990	-0.399845	0.309296
O10	O	1.582829	-0.190140	0.399742
O11	O	1.453675	-0.309425	0.190004
O12	O	1.283363	-0.309424	0.309303
O13	O	1.453636	-0.399843	0.518987
O14	O	1.283305	-0.399826	0.399674
O15	O	1.582752	-0.309454	0.519016
O16	O	1.582582	-0.519141	0.309258
O17	O	1.453540	-0.519141	0.399649
C18	C	1.245213	-0.354624	0.354488
C19	C	1.128437	-0.354636	0.354501
C20	C	1.073572	-0.401784	0.401479
C21	C	0.963848	-0.401793	0.401487
C22	C	0.963863	-0.307505	0.307532
C23	C	1.073585	-0.307492	0.307528
C24	C	1.073562	-0.456222	0.455722
C25	C	0.963838	-0.456232	0.455730
C26	C	1.518070	-0.545844	0.354462
C27	C	1.518118	-0.627643	0.354472
C28	C	1.585469	-0.815812	0.307492
C29	C	1.585516	-0.892671	0.307509
C30	C	1.451027	-0.892710	0.401556
C31	C	1.450986	-0.815853	0.401542
C32	C	1.518205	-0.777406	0.354505
C33	C	1.518293	-0.931122	0.354538
C34	C	1.518344	-1.014456	0.354557
C35	C	1.518157	-0.694067	0.354486
C36	C	1.792214	-0.354652	0.354508
C37	C	1.908991	-0.354658	0.354512
C38	C	1.518197	-0.354650	0.546450
C39	C	1.518203	-0.354656	0.628249
C40	C	1.518321	-0.162685	0.354549
C41	C	1.518380	-0.080886	0.354571
C42	C	1.585350	-0.401714	0.893301
C43	C	1.585352	-0.401717	0.816442
C44	C	1.451028	-0.307586	0.816446
C45	C	1.451020	-0.307587	0.893303
C46	C	1.518187	-0.354650	0.931729
C47	C	1.518197	-0.354652	0.778013
C48	C	1.518199	-0.354656	0.694679
C49	C	1.518184	-0.354648	1.015068
C50	C	1.518165	-0.354644	1.163291
C51	C	1.518181	-0.354646	1.081492
H52	H	1.107569	-0.510326	0.435203
H53	H	1.118252	-0.269095	0.269278
C54	C	1.377138	-0.255812	0.935579
C55	C	1.294629	-0.287705	0.988398
C56	C	1.220746	-0.235935	1.030673
C57	C	1.229372	-0.152272	1.020130
C58	C	1.311885	-0.120375	0.967309
C59	C	1.385767	-0.172145	0.925034
H60	H	1.288240	-0.349641	0.996204
H61	H	1.159665	-0.259548	1.069775
H62	H	1.174680	-0.113949	1.051425
H63	H	1.318273	-0.058439	0.959502
H64	H	1.446848	-0.148532	0.885932
C65	C	1.659239	-0.453487	0.774176
C66	C	1.778677	-0.447473	0.784762
C67	C	1.852568	-0.499246	0.742497
C68	C	1.807022	-0.557031	0.689646
C69	C	1.687579	-0.563047	0.679057
C70	C	1.613687	-0.511275	0.721322
H71	H	1.812398	-0.404695	0.823887
H72	H	1.940989	-0.494792	0.750335
H73	H	1.861721	-0.595356	0.658359
H74	H	1.653857	-0.605825	0.639932
H75	H	1.525267	-0.515728	0.713484
H76	H	1.396213	-0.784581	0.439829
C77	C	1.659220	-0.453488	0.935572
C78	C	1.613648	-0.511263	0.988393
C79	C	1.687517	-0.563040	1.030662
C80	C	1.806959	-0.557042	1.020111
C81	C	1.852537	-0.499264	0.967288
C82	C	1.778668	-0.447487	0.925018
H83	H	1.525225	-0.515705	0.996206
H84	H	1.653776	-0.605811	1.069765
H85	H	1.861641	-0.595370	1.051401
H86	H	1.940960	-0.494822	0.959475
H87	H	1.812409	-0.404716	0.885915
C88	C	1.377154	-0.255815	0.774174
C89	C	1.422723	-0.198036	0.721357
C90	C	1.348850	-0.146262	0.679086
C91	C	1.229409	-0.152268	0.689634
C92	C	1.183834	-0.210050	0.742454
C93	C	1.257707	-0.261823	0.784724
H94	H	1.511146	-0.193588	0.713547
H95	H	1.382588	-0.103488	0.639985
H96	H	1.174723	-0.113942	0.658343
H97	H	1.095410	-0.214498	0.750263
H98	H	1.223968	-0.304597	0.823825
C99	C	0.903524	-0.255652	0.255860
C100	C	0.782834	-0.255661	0.255863
C101	C	0.722497	-0.203808	0.204190
C102	C	0.782851	-0.151946	0.152513
C103	C	0.903548	-0.151935	0.152508
C104	C	0.963884	-0.203788	0.204182
H105	H	0.738151	-0.294054	0.294119
H106	H	0.633149	-0.203816	0.204193
H107	H	0.738186	-0.113561	0.114261
H108	H	0.948231	-0.113542	0.114253
H109	H	1.053232	-0.203780	0.204178
H110	H	1.103357	-0.441048	0.512747
H111	H	1.396298	-0.924023	0.439851
C112	C	0.917882	-0.428782	0.528926
C113	C	0.991548	-0.405251	0.591640
C114	C	0.945590	-0.377799	0.664833
C115	C	0.825966	-0.373878	0.675312
C116	C	0.752292	-0.397410	0.612597
C117	C	0.798251	-0.424862	0.539404
H118	H	1.080108	-0.408153	0.583885
H119	H	1.000129	-0.360379	0.711259
H120	H	0.791945	-0.353557	0.729494
H121	H	0.663733	-0.394509	0.620352
H122	H	0.743712	-0.442282	0.492978
H123	H	0.934032	-0.513208	0.440361
H124	H	1.640289	-0.923938	0.269227
C125	C	1.659415	-0.773520	0.255759
C126	C	1.733408	-0.815770	0.204048
C127	C	1.807360	-0.773480	0.152315
C128	C	1.807319	-0.688939	0.152294
C129	C	1.733324	-0.646685	0.204006
C130	C	1.659372	-0.688975	0.255739
H131	H	1.733441	-0.878356	0.204063
H132	H	1.862136	-0.804760	0.114034
H133	H	1.862063	-0.657634	0.113998
H134	H	1.733291	-0.584099	0.203992
H135	H	1.604596	-0.657695	0.294020
