data_functionalizedCrystal
_audit_creation_method	'MofGen! by Chris Wilmer'
_symmetry_space_group_name_H-M	'P1'
_symmetry_Int_Tables_number	1
_symmetry_cell_setting	triclinic
loop_
_symmetry_equiv_pos_as_xyz
  x,y,z
_cell_length_a	21.395355
_cell_length_b	17.077404
_cell_length_c	17.077402
_cell_angle_alpha	90.020853
_cell_angle_beta	89.981955
_cell_angle_gamma	89.976690
loop_
_atom_site_label
_atom_site_type_symbol
_atom_site_fract_x
_atom_site_fract_y
_atom_site_fract_z
Zn1	Zn	-0.354243	1.200093	-0.312642
Zn2	Zn	-0.249466	1.199989	-0.443890
Zn3	Zn	-0.249482	1.068813	-0.312637
Zn4	Zn	-0.354209	1.068793	-0.443865
O5	O	-0.301850	1.134422	-0.378258
O6	O	-0.340352	1.309926	-0.330064
O7	O	-0.161790	1.182553	-0.426487
O8	O	-0.263399	1.086280	-0.202791
O9	O	-0.263373	1.309849	-0.426492
O10	O	-0.340367	1.182731	-0.202794
O11	O	-0.161802	1.086179	-0.330057
O12	O	-0.263366	0.958964	-0.330032
O13	O	-0.441891	1.086245	-0.426449
O14	O	-0.340309	0.958949	-0.426445
O15	O	-0.441916	1.182711	-0.330040
O16	O	-0.263340	1.182533	-0.553733
O17	O	-0.340293	1.086144	-0.553715
C18	C	-0.301836	0.930474	-0.378236
C19	C	-0.301845	0.843224	-0.378245
C20	C	-0.341989	0.802275	-0.328125
C21	C	-0.341992	0.720294	-0.328130
C22	C	-0.301853	0.679265	-0.378260
C23	C	-0.261705	0.720220	-0.428383
C24	C	-0.261699	0.802199	-0.428373
C25	C	-0.261720	0.549350	-0.428400
C26	C	-0.261726	0.467365	-0.428411
C27	C	-0.342013	0.467445	-0.328157
C28	C	-0.342007	0.549424	-0.328148
C29	C	-0.301859	0.590374	-0.378272
C30	C	-0.465273	1.134487	-0.378242
C31	C	-0.534914	1.134515	-0.378236
C32	C	-0.567642	1.184742	-0.328033
C33	C	-0.633077	1.184741	-0.328000
C34	C	-0.665783	1.134521	-0.378182
C35	C	-0.633048	1.084284	-0.428388
C36	C	-0.567613	1.084281	-0.428415
C37	C	-0.769449	1.128297	-0.448862
C38	C	-0.834882	1.128305	-0.448836
C39	C	-0.867604	1.134526	-0.378099
C40	C	-0.834884	1.140754	-0.307385
C41	C	-0.769450	1.140751	-0.307412
C42	C	-0.736735	1.134518	-0.378158
C43	C	-0.971283	1.184755	-0.327856
C44	C	-1.036720	1.184748	-0.327821
C45	C	-1.036689	1.084295	-0.428216
C46	C	-0.971254	1.084297	-0.428244
C47	C	-0.938555	1.134531	-0.378065
C48	C	-0.139062	1.134402	-0.378217
C49	C	-0.069421	1.134527	-0.378003
C50	C	-0.301825	1.134346	-0.582206
C51	C	-0.301835	1.134386	-0.669456
C52	C	-0.301864	1.339166	-0.378281
C53	C	-0.301870	1.426416	-0.378291
C54	C	-0.261808	1.184627	-0.710429
C55	C	-0.261824	1.184665	-0.792410
C56	C	-0.301864	1.134458	-0.833415
C57	C	-0.341896	1.084214	-0.792436
C58	C	-0.341882	1.084181	-0.710457
C59	C	-0.341919	1.084287	-0.963306
C60	C	-0.341932	1.084320	-1.045291
C61	C	-0.261861	1.184772	-1.045259
C62	C	-0.261848	1.184738	-0.963280
C63	C	-0.301879	1.134493	-0.922306
C64	C	-0.301889	1.134519	-0.173514
C65	C	-0.301905	1.134561	-0.086264
H66	H	-0.374695	0.582828	-0.287332
H67	H	-1.063318	1.043396	-0.469068
H68	H	-0.374682	0.686957	-0.287318
F69	F	-0.219187	1.238060	-0.666796
H70	H	-0.944607	1.043401	-0.469129
F71	F	-0.384526	1.030813	-0.919701
H72	H	-0.229230	1.225576	-0.825767
H73	H	-0.944658	1.225654	-0.286993
F74	F	-0.384513	1.030784	-0.836079
H75	H	-0.229026	0.582689	-0.469215
F76	F	-1.071551	1.238219	-0.274395
H77	H	-0.374477	1.043270	-0.677097
H78	H	-0.742812	1.123021	-0.506449
F79	F	-0.384713	0.845934	-0.274772
H80	H	-0.229020	0.686807	-0.469196
F81	F	-0.667915	1.238190	-0.274552
F82	F	-0.532782	1.030819	-0.481849
F83	F	-0.734630	1.147376	-0.232156
F84	F	-0.667856	1.030833	-0.481793
F85	F	-0.869698	1.121683	-0.524096
H86	H	-0.229009	0.835539	-0.469186
F87	F	-0.384740	0.423863	-0.274810
F88	F	-0.219232	1.238173	-0.919641
F89	F	-0.384541	1.030877	-1.088930
H90	H	-0.229042	0.433961	-0.469232
F91	F	-0.219253	1.238240	-1.088867
H92	H	-0.861525	1.145821	-0.249785
F93	F	-0.532845	1.238203	-0.274625
