data_functionalizedCrystal
_audit_creation_method	'MofGen! by Chris Wilmer'
_symmetry_space_group_name_H-M	'P1'
_symmetry_Int_Tables_number	1
_symmetry_cell_setting	triclinic
loop_
_symmetry_equiv_pos_as_xyz
  x,y,z
_cell_length_a	6.817900
_cell_length_b	12.200863
_cell_length_c	27.923456
_cell_angle_alpha	95.843266
_cell_angle_beta	98.963413
_cell_angle_gamma	107.143441
loop_
_atom_site_label
_atom_site_type_symbol
_atom_site_fract_x
_atom_site_fract_y
_atom_site_fract_z
V1	V	-3.995474	-0.160411	-0.151322
O2	O	-3.964542	0.005961	-0.148391
O3	O	-3.965518	-0.316388	-0.150336
O4	O	-3.925072	-0.158710	-0.217297
O5	O	-4.005267	-0.152808	-0.080967
V6	V	-4.479563	-0.140420	-0.142901
O7	O	-4.255491	-0.204262	-0.169795
O8	O	-4.669743	-0.096569	-0.124429
O9	O	-4.286312	0.015556	-0.143887
O10	O	-4.627891	-0.306793	-0.145833
O11	O	-4.587166	-0.148024	-0.213257
O12	O	-4.326757	-0.142121	-0.076927
C13	C	-3.815717	-0.354388	-0.147962
C14	C	-3.872365	-0.481905	-0.147595
C15	C	-3.976040	-0.715375	-0.146928
C16	C	-3.918339	-0.585456	-0.147299
C17	C	-3.764124	-0.153253	-0.233376
C18	C	-3.787969	-0.152894	-0.287311
C19	C	-4.117967	-0.156319	-0.624233
C20	C	-4.207672	-0.154928	-0.826940
O21	O	-4.374001	-0.159591	-0.855250
N22	N	-4.036921	-0.149006	-0.849813
C23	C	-3.843725	-0.143423	-0.822006
O24	O	-3.700543	-0.138342	-0.846111
C25	C	-3.754018	-0.144806	-0.619299
C26	C	-3.924788	-0.150741	-0.596430
C27	C	-4.288722	-0.162252	-0.601363
C28	C	-4.266298	-0.162606	-0.550689
C29	C	-4.073119	-0.157027	-0.522886
C30	C	-3.902365	-0.151095	-0.545756
C31	C	-3.560821	-0.139215	-0.591492
C32	C	-3.538408	-0.139558	-0.540813
C33	C	-3.709178	-0.145493	-0.517943
C34	C	-3.686762	-0.145870	-0.467280
N35	N	-3.857514	-0.151792	-0.444406
C36	C	-4.050692	-0.157371	-0.472210
C37	C	-3.890836	-0.142700	-0.928430
C38	C	-3.913263	-0.142356	-0.979106
C39	C	-4.277209	-0.153859	-0.984037
C40	C	-4.254783	-0.154211	-0.933360
C41	C	-4.061588	-0.148622	-0.905557
C42	C	-4.003587	-0.158115	-0.365792
C43	C	-3.981148	-0.158473	-0.315114
C44	C	-3.617203	-0.146964	-0.310188
C45	C	-3.639642	-0.146612	-0.360862
C46	C	-3.832848	-0.152184	-0.388662
O47	O	-3.520495	-0.141197	-0.438938
O48	O	-4.193835	-0.162426	-0.448093
C49	C	-4.140391	-0.155965	-0.674906
C50	C	-3.969636	-0.150033	-0.697776
C51	C	-3.776458	-0.144454	-0.669973
C52	C	-3.992063	-0.149689	-0.748453
C53	C	-4.185242	-0.155268	-0.776256
C54	C	-4.355993	-0.161190	-0.753383
C55	C	-4.333569	-0.161544	-0.702709
C56	C	-3.605706	-0.138531	-0.692846
C57	C	-3.628145	-0.138179	-0.743520
C58	C	-3.821324	-0.143758	-0.771323
C59	C	-4.099456	0.053550	-0.146261
C60	C	-4.022046	0.181066	-0.146630
C61	C	-4.151049	-0.147582	-0.060845
C62	C	-4.106442	-0.147935	-0.006910
H63	H	-4.120220	-0.163309	-0.296497
Br64	Br	-4.550924	-0.169827	-0.639087
Br65	Br	-3.355042	-0.139400	-0.272446
H66	H	-4.393842	-0.159043	-0.914743
Br67	Br	-3.407892	-0.138578	-0.391902
Br68	Br	-3.276195	-0.131961	-0.503082
H69	H	-4.472631	-0.166376	-0.684093
Br70	Br	-4.618170	-0.168770	-0.791126
Br71	Br	-3.343518	-0.130970	-0.655122
H72	H	-4.160911	-0.162654	-0.388422
H73	H	-4.405357	-0.167433	-0.532073
H74	H	-4.434508	-0.158405	-1.006683
H75	H	-3.489074	-0.133355	-0.762136
H76	H	-3.774211	-0.137541	-0.997724
Br77	Br	-3.628628	-0.135130	-0.890705
H78	H	-3.421757	-0.134383	-0.610104
