data_functionalizedCrystal
_audit_creation_method	'MofGen! by Chris Wilmer'
_symmetry_space_group_name_H-M	'P1'
_symmetry_Int_Tables_number	1
_symmetry_cell_setting	triclinic
loop_
_symmetry_equiv_pos_as_xyz
  x,y,z
_cell_length_a	11.169417
_cell_length_b	15.299816
_cell_length_c	11.169409
_cell_angle_alpha	80.352328
_cell_angle_beta	90.019824
_cell_angle_gamma	80.351153
loop_
_atom_site_label
_atom_site_type_symbol
_atom_site_fract_x
_atom_site_fract_y
_atom_site_fract_z
Zn1	Zn	1.917498	-0.358957	0.761244
Zn2	Zn	1.952071	-0.509805	0.595315
Zn3	Zn	1.716796	-0.359012	0.560591
Zn4	Zn	1.751459	-0.509731	0.795943
O5	O	1.834456	-0.434376	0.678274
O6	O	2.090035	-0.378975	0.739244
O7	O	1.920825	-0.489856	0.422772
O8	O	1.714444	-0.232798	0.558154
O9	O	2.115437	-0.489802	0.617337
O10	O	1.861898	-0.232757	0.705573
O11	O	1.747969	-0.379069	0.397260
O12	O	1.553443	-0.378998	0.591801
O13	O	1.773521	-0.489677	0.959278
O14	O	1.578909	-0.489730	0.764713
O15	O	1.895509	-0.378904	0.933785
O16	O	1.954435	-0.636002	0.650983
O17	O	1.807046	-0.635948	0.798384
C18	C	1.522628	-0.434363	0.678255
C19	C	1.389232	-0.434379	0.678280
C20	C	1.888286	-0.668699	0.732243
C21	C	1.911425	-0.768943	0.755371
C22	C	1.669867	-1.051898	0.513379
C23	C	1.648121	-0.957713	0.491651
C24	C	1.713945	-0.910516	0.557579
C25	C	1.801519	-0.957513	0.645239
C26	C	1.823261	-1.051706	0.666975
C27	C	1.867339	-0.910325	0.711175
C28	C	1.954913	-0.957321	0.798835
C29	C	1.976651	-1.051506	0.820566
C30	C	1.910827	-1.098703	0.754639
C31	C	1.845597	-0.816131	0.689439
C32	C	1.998991	-0.815940	0.843035
C33	C	2.020737	-0.910124	0.864763
C34	C	2.147502	-0.434391	0.678293
C35	C	2.280903	-0.434397	0.678301
C36	C	1.834525	-0.434276	0.991293
C37	C	1.834554	-0.434234	1.124683
C38	C	1.780448	-0.199139	0.624120
C39	C	1.757433	-0.098894	0.601043
C40	C	1.834441	-0.434411	0.366457
C41	C	1.834586	-0.434200	0.233009
H42	H	1.774294	-0.777875	0.618066
H43	H	1.696236	-0.833827	0.539882
C44	C	1.934640	-1.200964	0.778381
C45	C	2.025426	-1.232024	0.869252
C46	C	2.047396	-1.326222	0.891148
H47	H	1.862196	-1.222411	0.804062
H48	H	1.960426	-1.222348	0.705907
H49	H	1.999635	-1.210650	0.941711
H50	H	2.097887	-1.210602	0.843596
H51	H	2.073183	-1.347605	0.818674
H52	H	1.974947	-1.347660	0.916824
H53	H	2.109004	-1.347308	0.952797
C54	C	2.071825	-1.102370	0.915745
C55	C	2.124847	-1.040882	0.968804
C56	C	2.212541	-1.087703	1.056471
H57	H	2.034513	-1.139116	0.976588
H58	H	2.132676	-1.139084	0.878366
H59	H	2.064006	-1.004183	1.006183
H60	H	2.162183	-1.004133	0.907992
H61	H	2.273391	-1.124417	1.019092
H62	H	2.175219	-1.124448	1.117306
H63	H	2.248534	-1.045991	1.092475
C64	C	2.070382	-0.764545	0.914452
C65	C	2.032624	-0.672001	0.876631
C66	C	2.098365	-0.624622	0.942379
H67	H	2.056382	-0.779831	0.998653
H68	H	2.154599	-0.779887	0.900486
H69	H	1.948428	-0.656665	0.890608
H70	H	2.046628	-0.656688	0.792440
H71	H	2.182581	-0.639965	0.928412
H72	H	2.084359	-0.639916	1.026577
H73	H	2.072764	-0.561826	0.916719
H74	H	1.576818	-0.919452	0.420281
C75	C	1.598577	-1.103302	0.441892
C76	C	1.636383	-1.195846	0.479673
C77	C	1.570744	-1.243228	0.413830
H78	H	1.514352	-1.088018	0.455783
H79	H	1.612653	-1.087961	0.357699
H80	H	1.622298	-1.211181	0.563846
H81	H	1.720599	-1.211157	0.465779
H82	H	1.584819	-1.227887	0.329638
H83	H	1.486521	-1.227936	0.427726
H84	H	1.596393	-1.306023	0.439447
H85	H	2.092040	-0.948402	0.936136
