data_functionalizedCrystal
_audit_creation_method	'MofGen! by Chris Wilmer'
_symmetry_space_group_name_H-M	'P1'
_symmetry_Int_Tables_number	1
_symmetry_cell_setting	triclinic
loop_
_symmetry_equiv_pos_as_xyz
  x,y,z
_cell_length_a	9.130313
_cell_length_b	10.654550
_cell_length_c	10.654551
_cell_angle_alpha	95.514820
_cell_angle_beta	89.999511
_cell_angle_gamma	90.002987
loop_
_atom_site_label
_atom_site_type_symbol
_atom_site_fract_x
_atom_site_fract_y
_atom_site_fract_z
O1	O	0.121684	-1.667835	0.176393
O2	O	0.121710	-1.302356	0.193199
O3	O	0.121693	-1.493498	0.002057
O4	O	0.121701	-1.476693	0.367535
O5	O	-0.121906	-1.493495	0.002062
O6	O	-0.121889	-1.302354	0.193205
O7	O	-0.121915	-1.667832	0.176398
Cu8	Cu	-0.144144	-1.485093	0.184802
Cu9	Cu	0.143939	-1.485096	0.184796
O10	O	-0.121898	-1.476691	0.367541
C11	C	-0.000086	-1.255557	0.191968
C12	C	-0.000076	-1.116114	0.188276
N13	N	-0.346767	-1.485100	0.184806
C14	C	-0.000104	-1.492262	-0.044738
C15	C	-0.000097	-1.488570	-0.184181
C16	C	-0.423427	-1.569760	0.100197
C17	C	-0.576763	-1.569756	0.100182
C18	C	-0.576768	-1.400430	0.269395
C19	C	-0.423434	-1.400428	0.269403
C20	C	-0.423425	-1.667522	0.002506
C21	C	-0.576762	-1.667519	0.002491
N22	N	0.346562	-1.485098	0.184782
C23	C	-0.000116	-1.714632	0.177630
C24	C	-0.000116	-1.854075	0.181322
C25	C	-0.000078	-1.036629	0.300818
C26	C	-0.000103	-0.905608	0.297341
C27	C	-0.000119	-0.933570	0.068772
C28	C	-0.000104	-1.064589	0.072249
C29	C	0.132690	-1.486838	-0.249688
C30	C	0.132692	-1.483358	-0.380708
C31	C	-0.132893	-1.483347	-0.380705
C32	C	-0.132893	-1.486818	-0.249685
C33	C	-0.000098	-1.477926	0.414336
C34	C	-0.000095	-1.481619	0.553779
H35	H	-0.361019	-1.331481	0.338287
H36	H	0.240822	-1.488261	-0.196358
H37	H	-0.000066	-1.078576	0.395294
H38	H	-0.624308	-1.637006	-0.088731
O39	O	-0.626185	-1.782708	0.028224
C40	C	-0.562180	-1.992640	0.074953
C41	C	-0.506011	-1.862245	0.045859
H42	H	-0.465049	-2.056990	0.089193
H43	H	-0.631508	-1.982023	0.164336
H44	H	-0.631586	-2.035465	-0.007229
H45	H	-0.436545	-1.819346	0.127962
H46	H	-0.436763	-1.872942	-0.043567
O47	O	-0.000035	-0.828577	0.406782
C48	C	-0.000097	-0.814678	0.633858
C49	C	-0.000138	-0.902059	0.510006
H50	H	-0.000212	-0.874053	0.717347
H51	H	0.101862	-0.752647	0.638025
H52	H	-0.102029	-0.752629	0.637884
H53	H	0.101725	-0.964186	0.505898
H54	H	-0.102165	-0.964005	0.505890
O55	O	-0.000069	-0.883307	-0.043823
C56	C	-0.000180	-0.693860	-0.150482
C57	C	-0.000207	-0.750611	-0.022880
H58	H	-0.000322	-0.586568	-0.133594
H59	H	0.101789	-0.726413	-0.206179
H60	H	-0.102102	-0.726601	-0.206148
H61	H	0.101647	-0.717896	0.032888
H62	H	-0.102243	-0.718063	0.032721
H63	H	-0.000106	-1.129309	-0.019401
H64	H	0.240821	-1.481945	-0.434038
O65	O	-0.261920	-1.481437	-0.444259
C66	C	-0.488945	-1.371805	-0.471021
C67	C	-0.342859	-1.373792	-0.398972
H68	H	-0.554439	-1.284797	-0.434417
H69	H	-0.466221	-1.368951	-0.575922
H70	H	-0.554373	-1.460264	-0.456006
H71	H	-0.277358	-1.285351	-0.413884
H72	H	-0.365686	-1.376711	-0.294097
H73	H	-0.639206	-1.331492	0.338271
H74	H	-0.241031	-1.488221	-0.196348
H75	H	-0.375873	-1.758706	0.033095
O76	O	-0.374006	-1.641865	-0.112703
C77	C	-0.438016	-1.595284	-0.322682
C78	C	-0.494182	-1.624300	-0.192263
H79	H	-0.535149	-1.581101	-0.387050
H80	H	-0.368701	-1.505890	-0.312119
H81	H	-0.368599	-1.677478	-0.365453
H82	H	-0.563659	-1.542184	-0.149419
H83	H	-0.563418	-1.713736	-0.202907
