data_functionalizedCrystal
_audit_creation_method	'MofGen! by Chris Wilmer'
_symmetry_space_group_name_H-M	'P1'
_symmetry_Int_Tables_number	1
_symmetry_cell_setting	triclinic
loop_
_symmetry_equiv_pos_as_xyz
  x,y,z
_cell_length_a	12.827893
_cell_length_b	16.625539
_cell_length_c	12.827892
_cell_angle_alpha	90.023194
_cell_angle_beta	89.984447
_cell_angle_gamma	89.984909
loop_
_atom_site_label
_atom_site_type_symbol
_atom_site_fract_x
_atom_site_fract_y
_atom_site_fract_z
Zn1	Zn	1.597626	-0.455885	0.416046
Zn2	Zn	1.597533	-0.321060	0.590803
Zn3	Zn	1.422881	-0.321070	0.416077
Zn4	Zn	1.422853	-0.455855	0.590746
O5	O	1.510223	-0.388468	0.503418
O6	O	1.743850	-0.438009	0.439239
O7	O	1.574338	-0.208229	0.567662
O8	O	1.446112	-0.338971	0.269837
O9	O	1.743782	-0.338954	0.567632
O10	O	1.574497	-0.438019	0.269814
O11	O	1.446021	-0.208237	0.439292
O12	O	1.276641	-0.338941	0.439237
O13	O	1.446065	-0.568691	0.567535
O14	O	1.276621	-0.437967	0.567565
O15	O	1.574470	-0.568714	0.439183
O16	O	1.574311	-0.338924	0.737032
O17	O	1.445974	-0.437957	0.736990
C18	C	1.238713	-0.388452	0.503399
C19	C	1.122560	-0.388465	0.503416
C20	C	1.070809	-0.437557	0.439995
C21	C	0.950759	-0.437571	0.440011
C22	C	1.510275	-0.598777	0.503349
C23	C	1.510296	-0.688398	0.503320
C24	C	1.510313	-0.761180	0.503297
C25	C	1.510338	-0.852489	0.503258
C26	C	1.510362	-0.925265	0.503221
C27	C	1.510389	-1.016580	0.503183
C28	C	1.782793	-0.388483	0.503438
C29	C	1.898947	-0.388490	0.503447
C30	C	1.510158	-0.388453	0.774928
C31	C	1.510226	-0.388474	0.891081
C32	C	1.510232	-0.178977	0.503411
C33	C	1.510413	-0.089356	0.503146
C34	C	1.510317	-0.388500	0.230848
C35	C	1.510358	-0.388513	0.114695
C36	C	1.573806	-0.339524	0.942852
C37	C	1.573878	-0.339544	1.062902
H38	H	0.906254	-0.479603	0.385718
H39	H	0.943445	-0.346463	0.557752
H40	H	1.628308	-0.297634	1.107424
H41	H	1.077990	-0.346444	0.557722
C42	C	1.436813	-0.445134	1.054565
C43	C	1.445261	-0.536815	1.069389
C44	C	1.371717	-0.593437	1.009250
C45	C	1.289725	-0.558377	0.934288
C46	C	1.281274	-0.466691	0.919461
C47	C	1.354818	-0.410070	0.979599
H48	H	1.505960	-0.562773	1.124884
H49	H	1.377974	-0.661309	1.020227
H50	H	1.235283	-0.600291	0.889770
H51	H	1.220575	-0.440733	0.863966
H52	H	1.348561	-0.342198	0.968623
H53	H	1.628192	-0.297603	0.898301
H54	H	1.115380	-0.479573	0.385683
H55	H	1.455849	-0.430401	0.935635
