data_functionalizedCrystal
_audit_creation_method	'MofGen! by Chris Wilmer'
_symmetry_space_group_name_H-M	'P1'
_symmetry_Int_Tables_number	1
_symmetry_cell_setting	triclinic
loop_
_symmetry_equiv_pos_as_xyz
  x,y,z
_cell_length_a	14.519731
_cell_length_b	12.996460
_cell_length_c	14.519709
_cell_angle_alpha	89.985436
_cell_angle_beta	83.684499
_cell_angle_gamma	89.993310
loop_
_atom_site_label
_atom_site_type_symbol
_atom_site_fract_x
_atom_site_fract_y
_atom_site_fract_z
O1	O	-1.223857	0.085613	-0.120987
O2	O	-0.890523	0.418947	0.212347
O3	O	-0.557190	0.752280	0.545680
O4	O	-0.955382	0.085612	-0.135203
O5	O	-0.622049	0.418945	0.198131
O6	O	-0.288716	0.752278	0.531464
O7	O	-1.096738	0.085584	0.006143
O8	O	-0.763404	0.418917	0.339477
O9	O	-0.430071	0.752250	0.672810
O10	O	-1.082501	0.085641	-0.262332
O11	O	-0.749168	0.418975	0.071001
O12	O	-0.415835	0.752308	0.404334
O13	O	-1.096723	-0.085550	0.006151
O14	O	-0.763390	0.247783	0.339485
O15	O	-0.430056	0.581117	0.672818
O16	O	-0.955368	-0.085522	-0.135195
O17	O	-0.622034	0.247811	0.198139
O18	O	-0.288701	0.581145	0.531472
O19	O	-1.223842	-0.085521	-0.120979
O20	O	-0.890509	0.247813	0.212355
O21	O	-0.557175	0.581146	0.545688
Cu22	Cu	-1.089603	-0.101147	-0.128086
Cu23	Cu	-0.756270	0.232186	0.205247
Cu24	Cu	-0.422937	0.565519	0.538581
Cu25	Cu	-1.089621	0.101238	-0.128095
Cu26	Cu	-0.756288	0.434572	0.205238
Cu27	Cu	-0.422954	0.767905	0.538571
O28	O	-1.082487	-0.085493	-0.262325
O29	O	-0.749153	0.247841	0.071009
O30	O	-0.415820	0.581174	0.404342
C31	C	-0.921016	0.000044	-0.134532
C32	C	-0.587682	0.333378	0.198801
C33	C	-0.254349	0.666711	0.532134
C34	C	-0.818635	0.000042	-0.132536
C35	C	-0.485302	0.333376	0.200797
C36	C	-0.151969	0.666709	0.534130
C37	C	-0.735491	0.000045	-0.130915
C38	C	-0.402158	0.333378	0.202419
C39	C	-0.068825	0.666711	0.535752
C40	C	-0.631182	0.000042	-0.128888
C41	C	-0.297849	0.333376	0.204445
C42	C	0.035484	0.666709	0.537779
C43	C	-0.548043	0.000040	-0.127280
C44	C	-0.214710	0.333374	0.206054
C45	C	0.118623	0.666707	0.539387
C46	C	-0.443728	0.000040	-0.125253
C47	C	-0.110395	0.333373	0.208080
C48	C	0.222939	0.666707	0.541414
N49	N	-1.089598	-0.243494	-0.128079
N50	N	-0.756265	0.089839	0.205254
N51	N	-0.422931	0.423172	0.538588
C52	C	-1.089620	-0.663309	-0.128096
C53	C	-0.756286	-0.329975	0.205237
C54	C	-0.422953	0.003358	0.538570
C55	C	-1.089611	-0.546503	-0.128094
C56	C	-0.756277	-0.213170	0.205239
C57	C	-0.422944	0.120163	0.538572
C58	C	-1.089609	-0.453405	-0.128088
C59	C	-0.756276	-0.120072	0.205245
C60	C	-0.422943	0.213262	0.538578
C61	C	-1.089600	-0.336593	-0.128085
C62	C	-0.756266	-0.003259	0.205248
C63	C	-0.422933	0.330074	0.538582
C64	C	-0.258209	0.000044	-0.121649
C65	C	0.075125	0.333378	0.211685
C66	C	0.408458	0.666711	0.545018
C67	C	-0.360589	0.000038	-0.123645
C68	C	-0.027256	0.333371	0.209689
C69	C	0.306078	0.666705	0.543022
C70	C	-1.096067	0.000012	0.040507
C71	C	-0.762734	0.333345	0.373840
C72	C	-0.429400	0.666678	0.707174
C73	C	-1.094079	-0.000004	0.142889
C74	C	-0.760745	0.333329	0.476222
C75	C	-0.427412	0.666663	0.809555
N76	N	-1.089634	0.243585	-0.128095
N77	N	-0.756300	0.576919	0.205238
N78	N	-0.422967	0.910252	0.538572
C79	C	-1.086759	-0.000032	0.517785
C80	C	-0.753426	0.333301	0.851118
C81	C	-0.420093	0.666635	1.184452
C82	C	-1.088792	-0.000024	0.413477
C83	C	-0.755459	0.333309	0.746810
C84	C	-0.422125	0.666642	1.080144
C85	C	-1.090419	-0.000019	0.330340
C86	C	-0.757085	0.333315	0.663673
C87	C	-0.423752	0.666648	0.997007
C88	C	-1.092452	-0.000009	0.226025
C89	C	-0.759118	0.333324	0.559359
C90	C	-0.425785	0.666657	0.892692
C91	C	-1.083157	0.000045	0.703312
C92	C	-0.749824	0.333379	1.036645
C93	C	-0.416491	0.666712	1.369978
C94	C	-1.085146	-0.000042	0.600930
C95	C	-0.751812	0.333292	0.934264
C96	C	-0.418479	0.666625	1.267597
