data_functionalizedCrystal
_audit_creation_method	'MofGen! by Chris Wilmer'
_symmetry_space_group_name_H-M	'P1'
_symmetry_Int_Tables_number	1
_symmetry_cell_setting	triclinic
loop_
_symmetry_equiv_pos_as_xyz
  x,y,z
_cell_length_a	10.654562
_cell_length_b	10.654550
_cell_length_c	9.130313
_cell_angle_alpha	90.000110
_cell_angle_beta	89.996930
_cell_angle_gamma	95.512497
loop_
_atom_site_label
_atom_site_type_symbol
_atom_site_fract_x
_atom_site_fract_y
_atom_site_fract_z
O1	O	1.667825	-0.176469	-0.121892
O2	O	1.302348	-0.193259	-0.121873
O3	O	1.493490	-0.002125	-0.121877
O4	O	1.476683	-0.367603	-0.121887
O5	O	1.493487	-0.002130	0.121721
O6	O	1.302346	-0.193264	0.121726
O7	O	1.667822	-0.176474	0.121707
Cu8	Cu	1.485084	-0.184869	0.143959
Cu9	Cu	1.485087	-0.184863	-0.144125
O10	O	1.476681	-0.367608	0.121711
C11	C	1.255549	-0.192025	-0.000071
C12	C	1.116107	-0.188327	-0.000064
C13	C	1.050575	-0.186605	0.132710
C14	C	0.919553	-0.183140	0.132686
C15	C	0.919605	-0.183125	-0.132899
C16	C	1.050626	-0.186580	-0.132873
C17	C	1.116056	-0.188351	0.265519
C18	C	1.050523	-0.186630	0.398304
C19	C	0.919501	-0.183165	0.398280
C20	C	0.854011	-0.181421	0.265470
C21	C	1.492254	0.044671	-0.000080
C22	C	1.488563	0.184114	-0.000085
C23	C	1.714621	-0.177708	-0.000098
C24	C	1.854064	-0.181406	-0.000115
N25	N	1.485091	-0.184873	0.346582
C26	C	1.477916	-0.414403	-0.000090
C27	C	1.481608	-0.553847	-0.000094
C28	C	1.601103	0.263595	-0.000086
C29	C	1.597627	0.394615	-0.000096
C30	C	1.369059	0.366662	-0.000097
C31	C	1.372537	0.235644	-0.000098
C32	C	1.717129	0.212064	-0.000073
C33	C	1.829680	0.291546	-0.000072
C34	C	1.826203	0.422567	-0.000083
C35	C	1.710176	0.474106	-0.000093
N36	N	1.485089	-0.184850	-0.346748
C37	C	1.569750	-0.100268	0.423232
C38	C	1.569747	-0.100253	0.576568
C39	C	1.400421	-0.269459	0.576592
C40	C	1.400419	-0.269467	0.423258
C41	C	1.654422	-0.015674	0.346556
C42	C	1.739089	0.068937	0.423206
C43	C	1.739086	0.068952	0.576543
C44	C	1.654415	-0.015644	0.653229
H45	H	1.719973	0.105382	-0.000060
H46	H	1.331481	-0.338359	0.360849
H47	H	1.654435	-0.015681	0.221701
C48	C	1.906452	0.236198	0.438585
C49	C	1.832150	0.161928	0.338920
H50	H	1.963898	0.293613	0.386550
H51	H	1.952074	0.183501	0.498392
H52	H	1.853770	0.281866	0.498390
H53	H	1.884831	0.116252	0.279122
H54	H	1.786525	0.214631	0.279088
H55	H	1.917847	0.487279	-0.000097
H56	H	1.924144	0.249574	-0.000101
H57	H	1.103855	-0.188041	0.506432
C58	C	1.243851	0.072076	0.125128
C59	C	1.248831	0.148268	-0.000092
H60	H	1.167482	0.018130	0.125118
H61	H	1.247232	0.123767	0.210061
H62	H	1.313454	0.022643	0.125110
H63	H	1.179233	0.197709	-0.000069
H64	H	1.245438	0.096571	-0.085048
H65	H	1.654411	-0.015616	0.778087
C66	C	1.143478	0.325878	-0.000107
C67	C	1.241528	0.423311	-0.000102
H68	H	1.064746	0.360852	-0.000116
H69	H	1.149582	0.275360	0.084836
H70	H	1.149600	0.275356	-0.085061
H71	H	1.235411	0.473828	0.084859
H72	H	1.235421	0.473850	-0.085053
C73	C	1.077868	-0.295429	-0.359225
C74	C	1.122675	-0.188490	-0.278815
H75	H	1.122357	-0.296608	-0.449319
H76	H	0.990479	-0.293112	-0.378257
H77	H	1.090401	-0.369095	-0.304639
H78	H	1.110133	-0.114824	-0.333397
H79	H	1.210084	-0.190796	-0.259787
C80	C	1.764869	0.239649	0.748950
C81	C	1.832143	0.161959	0.660797
H82	H	1.822325	0.297071	0.800954
H83	H	1.714461	0.189272	0.816558
H84	H	1.712210	0.285308	0.689112
H85	H	1.884795	0.116293	0.720636
H86	H	1.882572	0.212341	0.593181
C87	C	0.718638	-0.177838	0.516171
C88	C	0.847466	-0.181255	0.544230
H89	H	0.674172	-0.176652	0.606280
H90	H	0.688246	-0.250375	0.461618
H91	H	0.706125	-0.104157	0.461604
H92	H	0.859980	-0.254941	0.598788
H93	H	0.877867	-0.108711	0.598807
C94	C	1.328540	-0.486187	0.623816
C95	C	1.307359	-0.362450	0.660876
H96	H	1.271081	-0.543595	0.675842
H97	H	1.412462	-0.500603	0.648948
H98	H	1.316421	-0.498282	0.521522
H99	H	1.319487	-0.350351	0.763168
H100	H	1.223417	-0.348028	0.635753
C101	C	1.290598	-0.301061	0.193236
C102	C	1.260078	-0.192146	0.265542
H103	H	1.379510	-0.303404	0.193256
H104	H	1.260977	-0.300260	0.095155
H105	H	1.252019	-0.373386	0.242279
H106	H	1.298649	-0.119821	0.216492
H107	H	1.289713	-0.192936	0.363641
C108	C	0.653158	-0.284195	0.193108
C109	C	0.709991	-0.177590	0.265426
H110	H	0.564250	-0.281822	0.193072
H111	H	0.673835	-0.358079	0.242165
H112	H	0.682835	-0.284969	0.095030
H113	H	0.680321	-0.176820	0.363508
H114	H	0.689304	-0.103687	0.216372
H115	H	0.866273	-0.181708	-0.241026
C116	C	1.767421	0.669394	-0.125343
C117	C	1.706354	0.618128	-0.000113
H118	H	1.765067	0.758306	-0.125344
H119	H	1.725996	0.634590	-0.210269
H120	H	1.852624	0.650071	-0.125328
H121	H	1.621148	0.637443	-0.000133
H122	H	1.747776	0.652944	0.084836
