data_functionalizedCrystal
_audit_creation_method	'MofGen! by Chris Wilmer'
_symmetry_space_group_name_H-M	'P1'
_symmetry_Int_Tables_number	1
_symmetry_cell_setting	triclinic
loop_
_symmetry_equiv_pos_as_xyz
  x,y,z
_cell_length_a	13.897449
_cell_length_b	12.759400
_cell_length_c	13.897441
_cell_angle_alpha	90.028817
_cell_angle_beta	89.979267
_cell_angle_gamma	89.984036
loop_
_atom_site_label
_atom_site_type_symbol
_atom_site_fract_x
_atom_site_fract_y
_atom_site_fract_z
Zn1	Zn	1.474723	0.418197	-0.545393
Zn2	Zn	1.474625	0.593907	-0.384100
Zn3	Zn	1.313412	0.418247	-0.384111
Zn4	Zn	1.313402	0.593838	-0.545352
O5	O	1.394040	0.506047	-0.464739
O6	O	1.609691	0.441513	-0.524009
O7	O	1.453203	0.570655	-0.249119
O8	O	1.334855	0.271219	-0.405528
O9	O	1.609620	0.570607	-0.405508
O10	O	1.453369	0.271183	-0.524021
O11	O	1.334760	0.441598	-0.249128
O12	O	1.178429	0.441532	-0.405488
O13	O	1.334838	0.570489	-0.680339
O14	O	1.178422	0.570538	-0.523951
O15	O	1.453360	0.441446	-0.680369
O16	O	1.453194	0.740919	-0.405468
O17	O	1.334744	0.740869	-0.523939
C18	C	1.143426	0.506033	-0.464717
C19	C	1.036212	0.506053	-0.464731
C20	C	1.393983	0.779015	-0.464719
C21	C	1.394047	0.895791	-0.464743
C22	C	1.394109	0.505955	-0.716332
C23	C	1.394138	0.505915	-0.823546
C24	C	0.839917	0.506056	-0.464756
C25	C	0.949150	0.506051	-0.464739
C26	C	1.645633	0.506062	-0.464762
C27	C	1.752847	0.506069	-0.464771
C28	C	1.394124	0.232014	-0.464780
C29	C	1.394160	0.115237	-0.464798
C30	C	1.455792	0.950645	-0.403123
C31	C	1.455852	1.060369	-0.403152
C32	C	1.332412	1.060376	-0.526425
C33	C	1.332358	0.950654	-0.526399
C34	C	1.517481	0.895782	-0.341466
C35	C	1.579231	0.950636	-0.279840
C36	C	1.579290	1.060360	-0.279870
C37	C	1.517600	1.115230	-0.341526
C38	C	1.394164	0.505844	-1.019841
C39	C	1.394147	0.505886	-0.910609
C40	C	1.394028	0.506064	-0.214125
C41	C	1.394186	0.505808	-0.106911
H42	H	1.629463	0.905955	-0.229648
H43	H	1.517437	0.806439	-0.341432
N44	N	1.642378	1.116377	-0.216930
N45	N	1.697453	1.067375	-0.161892
H46	H	1.742010	1.106934	-0.117435
H47	H	1.517660	1.204575	-0.341552
H48	H	1.282186	1.105060	-0.576621
H49	H	1.282080	0.905992	-0.576577
