data_functionalizedCrystal
_audit_creation_method	'MofGen! by Chris Wilmer'
_symmetry_space_group_name_H-M	'P1'
_symmetry_Int_Tables_number	1
_symmetry_cell_setting	triclinic
loop_
_symmetry_equiv_pos_as_xyz
  x,y,z
_cell_length_a	13.032831
_cell_length_b	19.121063
_cell_length_c	13.032268
_cell_angle_alpha	99.247498
_cell_angle_beta	90.886977
_cell_angle_gamma	85.565596
loop_
_atom_site_label
_atom_site_type_symbol
_atom_site_fract_x
_atom_site_fract_y
_atom_site_fract_z
Zn1	Zn	1.465022	-0.473659	-0.806576
Zn2	Zn	1.479383	-0.578156	-0.640274
Zn3	Zn	1.316950	-0.444360	-0.611224
Zn4	Zn	1.285899	-0.574364	-0.790193
O5	O	1.386814	-0.517635	-0.712067
O6	O	1.609870	-0.501370	-0.803529
O7	O	1.476841	-0.549733	-0.491924
O8	O	1.343577	-0.350107	-0.631836
O9	O	1.620421	-0.578143	-0.681348
O10	O	1.452365	-0.371633	-0.775360
O11	O	1.357502	-0.451434	-0.470581
O12	O	1.169889	-0.447756	-0.615951
O13	O	1.290655	-0.571680	-0.936863
O14	O	1.147076	-0.543270	-0.747439
O15	O	1.422256	-0.497693	-0.948899
O16	O	1.446733	-0.675793	-0.665463
O17	O	1.304581	-0.673007	-0.775608
C18	C	1.121419	-0.491923	-0.676766
C19	C	1.007877	-0.480942	-0.661690
C20	C	0.946005	-0.523366	-0.719935
C21	C	0.828653	-0.512018	-0.704355
C22	C	1.373870	-0.699851	-0.721936
C23	C	1.368422	-0.777815	-0.726206
C24	C	1.439917	-0.815879	-0.670926
C25	C	1.434798	-0.889136	-0.674948
C26	C	1.358179	-0.924327	-0.734244
C27	C	1.286681	-0.886258	-0.789530
C28	C	1.291805	-0.813003	-0.785514
C29	C	1.339006	-1.145437	-0.749244
C30	C	1.333886	-1.218697	-0.753254
C31	C	1.482005	-1.221570	-0.638672
C32	C	1.487118	-1.148313	-0.634656
C33	C	1.415624	-1.110251	-0.689946
C34	C	1.352943	-0.999207	-0.738354
C35	C	1.420865	-1.035374	-0.685842
C36	C	1.653245	-0.543448	-0.747506
C37	C	1.766782	-0.554448	-0.762608
C38	C	1.351390	-0.537532	-0.981395
C39	C	1.336295	-0.546011	-1.096167
C40	C	1.399833	-0.334712	-0.702185
C41	C	1.405381	-0.256761	-0.697974
C42	C	1.394678	-0.513183	-1.153291
C43	C	1.379078	-0.521945	-1.271914
C44	C	1.422162	-0.497771	-0.443791
C45	C	1.437469	-0.489113	-0.329036
H46	H	0.979912	-0.568086	-0.781340
H47	H	0.800683	-0.599170	-0.824020
H48	H	0.794751	-0.467290	-0.642953
N49	N	1.204038	-0.924206	-0.853488
H50	H	1.237087	-0.962118	-0.908553
H51	H	1.160154	-0.946907	-0.806786
H52	H	0.973970	-0.436217	-0.600292
N53	N	1.518986	-0.443285	-1.277517
H54	H	1.485631	-0.403480	-1.225489
H55	H	1.570115	-0.473140	-1.240662
H56	H	1.271503	-1.247349	-0.801559
H57	H	1.502304	-0.787232	-0.622636
H58	H	1.317533	-0.556535	-1.310822
N59	N	1.511910	-0.930192	-0.615325
H60	H	1.561220	-0.896782	-0.577147
H61	H	1.474525	-0.953069	-0.563653
N62	N	1.569770	-1.110362	-0.570718
H63	H	1.614292	-1.145593	-0.536315
H64	H	1.613594	-1.087617	-0.617420
H65	H	1.274755	-0.580597	-1.135080
N66	N	1.559110	-1.262621	-0.579036
H67	H	1.544240	-1.314367	-0.590573
H68	H	1.630829	-1.258026	-0.604160
H69	H	1.280791	-1.114453	-0.794261
N70	N	1.214696	-0.771945	-0.845140
H71	H	1.165379	-0.805352	-0.883312
H72	H	1.175115	-0.733907	-0.795124
N73	N	1.503498	-0.997417	-0.621890
H74	H	1.496502	-1.003210	-0.546696
H75	H	1.573427	-1.018390	-0.648468
N76	N	1.476195	-0.467366	-1.101756
H77	H	1.513015	-0.446663	-1.156175
H78	H	1.442770	-0.427600	-1.049720
N79	N	1.270297	-1.037159	-0.802301
H80	H	1.303348	-1.075069	-0.857367
H81	H	1.226423	-1.059863	-0.755594
