data_functionalizedCrystal
_audit_creation_method	'MofGen! by Chris Wilmer'
_symmetry_space_group_name_H-M	'P1'
_symmetry_Int_Tables_number	1
_symmetry_cell_setting	triclinic
loop_
_symmetry_equiv_pos_as_xyz
  x,y,z
_cell_length_a	8.559649
_cell_length_b	14.185328
_cell_length_c	8.559649
_cell_angle_alpha	106.283226
_cell_angle_beta	69.778664
_cell_angle_gamma	106.285732
loop_
_atom_site_label
_atom_site_type_symbol
_atom_site_fract_x
_atom_site_fract_y
_atom_site_fract_z
O1	O	2.155683	0.083418	-0.026236
O2	O	1.680199	0.083419	0.057546
O3	O	1.959831	0.083417	-0.222088
O4	O	1.876051	0.083420	0.253398
O5	O	1.902204	-0.083425	-0.279694
O6	O	1.622572	-0.083424	-0.000060
O7	O	2.098057	-0.083425	-0.083841
Cu8	Cu	1.855052	-0.098658	-0.047211
Cu9	Cu	1.923203	0.098652	0.020915
O10	O	1.818424	-0.083423	0.195792
C11	C	1.591077	-0.000002	0.035092
C12	C	1.411377	-0.000002	0.053991
N13	N	1.807131	-0.237436	-0.095129
C14	C	2.111795	-0.605043	0.209663
C15	C	2.075536	-0.710070	0.173336
C16	C	1.902952	-0.710055	0.000593
C17	C	1.939190	-0.605026	0.036912
C18	C	2.043614	-0.552528	0.141446
C19	C	1.871009	-0.552512	-0.031305
C20	C	1.907251	-0.447492	0.005004
C21	C	2.011675	-0.394987	0.109530
C22	C	2.079857	-0.447509	0.177756
C23	C	1.766595	-0.605012	-0.135849
C24	C	1.698413	-0.552497	-0.204066
C25	C	1.734646	-0.447476	-0.167747
C26	C	1.839070	-0.394970	-0.063221
C27	C	1.666464	-0.394954	-0.235972
C28	C	1.702707	-0.289934	-0.199663
C29	C	1.875312	-0.289951	-0.026912
C30	C	2.187180	-0.000001	-0.061387
C31	C	2.366881	0.000005	-0.080284
C32	C	1.937368	-0.000002	-0.311199
C33	C	1.956269	0.000003	-0.490897
N34	N	1.971139	0.237430	0.068818
C35	C	1.840888	-0.000001	0.284904
C36	C	1.821990	-0.000000	0.464604
H37	H	1.312003	0.000009	0.183415
H38	H	1.466269	0.000004	-0.209712
H39	H	1.581455	-0.437713	-0.321099
H40	H	1.960325	-0.247204	0.058231
H41	H	2.085694	-0.000005	-0.590288
H42	H	2.041186	-0.309473	0.139089
H43	H	2.164869	-0.404762	0.262898
H44	H	2.196808	-0.562296	0.294805
H45	H	2.131065	-0.752823	0.228897
H46	H	1.817935	-0.752813	-0.084526
H47	H	1.737100	-0.690525	-0.165420
H48	H	1.647183	-0.247176	-0.255209
H49	H	1.613396	-0.595255	-0.289185
H50	H	1.692569	-0.000003	-0.436019
