data_functionalizedCrystal
_audit_creation_method	'MofGen! by Chris Wilmer'
_symmetry_space_group_name_H-M	'P1'
_symmetry_Int_Tables_number	1
_symmetry_cell_setting	triclinic
loop_
_symmetry_equiv_pos_as_xyz
  x,y,z
_cell_length_a	16.992694
_cell_length_b	16.992695
_cell_length_c	8.140239
_cell_angle_alpha	89.996131
_cell_angle_beta	90.002898
_cell_angle_gamma	90.668223
loop_
_atom_site_label
_atom_site_type_symbol
_atom_site_fract_x
_atom_site_fract_y
_atom_site_fract_z
O1	O	1.050849	0.166915	-0.136409
O2	O	0.822449	0.165084	-0.136457
O3	O	0.935733	0.051800	-0.136420
O4	O	0.937564	0.280200	-0.136446
O5	O	0.935726	0.051798	0.136807
O6	O	0.822442	0.165082	0.136770
O7	O	1.050842	0.166914	0.136818
Zn8	Zn	0.936641	0.165998	0.180175
Zn9	Zn	0.936650	0.166000	-0.179814
O10	O	0.937557	0.280198	0.136781
C11	C	0.793085	0.162727	0.000150
C12	C	0.705600	0.155699	0.000132
C13	C	0.659610	0.223517	0.000126
C14	C	0.577409	0.216908	0.000149
C15	C	0.541201	0.142480	0.000167
C16	C	0.587198	0.074657	0.000178
C17	C	0.669397	0.081267	0.000167
C18	C	0.295886	0.115086	0.000214
C19	C	0.213681	0.108481	0.000221
C20	C	0.203898	0.250732	0.000194
C21	C	0.286099	0.257336	0.000173
C22	C	0.332089	0.189512	0.000193
N23	N	0.457178	0.135723	0.000186
N24	N	0.416110	0.196270	0.000186
C25	C	0.933374	0.022439	0.000192
C26	C	0.926345	-0.065046	0.000191
C27	C	0.994163	-0.111037	0.000207
C28	C	0.987554	-0.193238	0.000190
C29	C	0.913127	-0.229446	0.000168
C30	C	0.845303	-0.183449	0.000147
C31	C	0.851913	-0.101250	0.000153
C32	C	0.885732	-0.474760	0.000140
C33	C	0.879127	-0.556966	0.000140
C34	C	1.021379	-0.566749	0.000179
C35	C	1.027982	-0.484547	0.000194
C36	C	0.960159	-0.438558	0.000164
N37	N	0.906369	-0.313468	0.000156
N38	N	0.966917	-0.354537	0.000165
C39	C	1.080205	0.169270	0.000207
C40	C	1.167690	0.176299	0.000214
C41	C	0.939917	0.309559	0.000164
C42	C	0.946945	0.397044	0.000156
N43	N	0.936640	0.165996	0.425857
N44	N	0.936656	0.165996	-0.425497
H45	H	0.689084	0.284124	0.000110
H46	H	1.054770	-0.081563	0.000234
H47	H	0.830505	-0.437325	0.000116
H48	H	0.184203	0.047870	0.000234
H49	H	1.042779	-0.230680	0.000206
O50	O	0.527803	0.290055	0.000149
H51	H	0.541220	0.325424	-0.111231
O52	O	0.719008	0.008122	0.000168
H53	H	0.680022	-0.044744	0.000168
O54	O	0.325153	0.337611	0.000195
H55	H	0.279362	0.383660	0.000220
H56	H	1.088589	-0.455073	0.000212
O57	O	0.345486	0.041938	0.000235
H58	H	0.306495	-0.010925	0.000235
O59	O	1.094529	-0.616349	0.000200
H60	H	1.077433	-0.679591	0.000182
O61	O	0.765028	-0.222502	0.000143
H62	H	0.758616	-0.259722	-0.111209
O63	O	0.798849	-0.596024	0.000098
H64	H	0.752796	-0.550235	0.000060
H65	H	0.166444	0.305950	0.000182
H66	H	0.557710	0.014056	0.000216
O67	O	0.778768	-0.051639	0.000153
H68	H	0.725903	-0.090625	0.000156
