data_functionalizedCrystal
_audit_creation_method	'MofGen! by Chris Wilmer'
_symmetry_space_group_name_H-M	'P1'
_symmetry_Int_Tables_number	1
_symmetry_cell_setting	triclinic
loop_
_symmetry_equiv_pos_as_xyz
  x,y,z
_cell_length_a	16.959455
_cell_length_b	12.645330
_cell_length_c	16.959447
_cell_angle_alpha	89.971796
_cell_angle_beta	89.985299
_cell_angle_gamma	90.012074
loop_
_atom_site_label
_atom_site_type_symbol
_atom_site_fract_x
_atom_site_fract_y
_atom_site_fract_z
Zn1	Zn	1.208425	-0.422035	-0.446928
Zn2	Zn	1.208364	-0.599326	-0.314755
Zn3	Zn	1.076253	-0.422076	-0.314765
Zn4	Zn	1.076235	-0.599255	-0.446892
O5	O	1.142319	-0.510673	-0.380835
O6	O	1.319027	-0.445566	-0.429406
O7	O	1.190822	-0.575861	-0.204145
O8	O	1.093819	-0.273723	-0.332316
O9	O	1.318983	-0.575821	-0.332299
O10	O	1.190925	-0.273693	-0.429416
O11	O	1.093760	-0.445635	-0.204153
O12	O	0.965640	-0.445566	-0.332281
O13	O	1.093788	-0.575699	-0.557508
O14	O	0.965626	-0.575739	-0.429355
O15	O	1.190907	-0.445496	-0.557534
O16	O	1.190804	-0.747664	-0.332264
O17	O	1.093729	-0.747611	-0.429345
C18	C	0.936953	-0.510650	-0.380816
C19	C	0.849096	-0.510665	-0.380826
C20	C	0.807797	-0.578387	-0.330195
C21	C	0.807842	-0.442952	-0.431464
C22	C	0.725296	-0.442961	-0.431473
C23	C	0.683997	-0.510682	-0.380842
C24	C	0.725244	-0.578395	-0.330201
C25	C	0.684043	-0.375241	-0.482107
C26	C	0.601492	-0.375246	-0.482118
C27	C	0.560191	-0.442974	-0.431490
C28	C	0.601443	-0.510690	-0.380848
C29	C	0.560144	-0.578412	-0.330217
C30	C	0.601395	-0.646134	-0.279578
C31	C	0.683943	-0.646123	-0.279573
C32	C	0.477643	-0.442985	-0.431495
C33	C	0.477591	-0.578420	-0.330223
C34	C	1.142280	-0.786103	-0.380816
C35	C	1.142335	-0.903933	-0.380835
C36	C	1.203307	-1.071485	-0.319637
C37	C	1.203505	-0.948925	-0.319787
C38	C	1.164917	-0.948313	-0.464154
C39	C	1.165401	-1.070911	-0.463829
C40	C	1.058757	-1.071259	-0.359535
C41	C	1.059158	-0.948655	-0.357666
C42	C	1.348487	-0.510697	-0.380855
C43	C	1.436344	-0.510707	-0.380864
C44	C	1.142352	-0.510585	-0.587003
C45	C	1.142366	-0.510548	-0.674860
C46	C	1.142380	-0.234168	-0.380871
C47	C	1.142407	-0.116337	-0.380887
C48	C	1.091895	-0.578226	-1.046325
C49	C	1.193026	-0.442645	-1.046347
C50	C	1.193005	-0.442668	-0.963801
C51	C	1.142429	-0.510472	-0.922513
C52	C	1.091874	-0.578253	-0.963771
C53	C	1.243565	-0.374895	-0.922537
C54	C	1.243546	-0.374916	-0.839986
C55	C	1.192966	-0.442715	-0.798697
C56	C	1.142408	-0.510498	-0.839960
C57	C	1.091832	-0.578302	-0.798671
C58	C	1.041270	-0.646081	-0.839933
C59	C	1.041293	-0.646053	-0.922481
C60	C	1.192942	-0.442744	-0.716148
C61	C	1.091811	-0.578329	-0.716118
C62	C	1.142332	-0.510684	-0.175469
C63	C	1.142471	-0.510422	-0.087613
H64	H	0.841387	-0.633528	-0.288968
Cl65	Cl	1.181775	-1.117121	-0.223972
Cl66	Cl	0.977740	-0.731258	-0.974357
H67	H	0.444060	-0.387839	-0.472718
Cl68	Cl	1.099884	-1.116717	-0.536681
Cl69	Cl	1.259802	-1.114937	-0.491750
H70	H	1.234111	-0.387562	-0.682557
H71	H	0.841472	-0.387812	-0.472682
H72	H	1.050618	-0.633535	-0.682507
H73	H	1.189377	-0.918924	-0.258007
Cl74	Cl	1.098514	-0.903326	-0.536501
H75	H	1.264931	-1.102216	-0.333602
H76	H	1.234207	-0.387448	-1.079969
Cl77	Cl	0.735806	-0.731247	-0.215916
Cl78	Cl	1.032862	-0.903882	-0.263002
Cl79	Cl	0.735964	-0.290112	-0.545753
Cl80	Cl	0.425679	-0.663566	-0.266572
Cl81	Cl	1.258253	-0.900784	-0.492546
H82	H	1.265462	-0.919518	-0.333910
Cl83	Cl	0.549467	-0.731259	-0.215924
Cl84	Cl	1.027048	-1.119136	-0.267366
H85	H	0.567913	-0.320104	-0.523352
Cl86	Cl	1.307147	-0.289670	-0.974445
H87	H	1.011335	-0.918039	-0.399006
H88	H	1.050726	-0.633407	-1.079923
H89	H	1.013381	-1.100265	-0.404145
H90	H	1.000094	-0.701292	-0.806305
Cl91	Cl	1.307106	-0.289706	-0.788122
