data_functionalizedCrystal
_audit_creation_method	'MofGen! by Chris Wilmer'
_symmetry_space_group_name_H-M	'P1'
_symmetry_Int_Tables_number	1
_symmetry_cell_setting	triclinic
loop_
_symmetry_equiv_pos_as_xyz
  x,y,z
_cell_length_a	19.902436
_cell_length_b	23.196402
_cell_length_c	23.196401
_cell_angle_alpha	59.999265
_cell_angle_beta	90.006949
_cell_angle_gamma	59.997492
loop_
_atom_site_label
_atom_site_type_symbol
_atom_site_fract_x
_atom_site_fract_y
_atom_site_fract_z
Zr1	Zr	0.647324	0.630945	-0.075588
O2	O	0.540016	0.751237	-0.167649
O3	O	0.680217	0.510672	-0.047370
O4	O	0.680195	0.630958	-0.167645
O5	O	0.540059	0.630935	0.047504
O6	O	0.790774	0.630947	-0.167637
O7	O	0.540038	0.630951	-0.047375
O8	O	0.790814	0.415777	0.047512
O9	O	0.540019	0.846105	-0.167645
O10	O	0.776773	0.560127	-0.035325
O11	O	0.694264	0.560123	0.035476
O12	O	0.694238	0.701744	-0.106132
O13	O	0.611730	0.701740	-0.035331
Zr14	Zr	0.823717	0.630901	0.075745
Zr15	Zr	0.823685	0.630928	-0.075576
Zr16	Zr	0.647357	0.630919	0.075733
Zr17	Zr	0.647329	0.782248	-0.075582
Zr18	Zr	0.823713	0.479599	0.075738
O19	O	0.790824	0.751175	0.047527
O20	O	0.790778	0.751212	-0.167632
O21	O	0.540063	0.751200	0.047509
O22	O	0.931026	0.510610	0.167806
O23	O	0.930979	0.510647	-0.047353
O24	O	0.680264	0.510635	0.167789
O25	O	0.930983	0.630912	-0.047347
O26	O	0.790846	0.630889	0.167801
O27	O	0.680268	0.630900	0.167794
O28	O	0.931004	0.630895	0.047531
O29	O	0.680202	0.846090	-0.167635
O30	O	0.790840	0.415756	0.167792
O31	O	0.931023	0.415742	0.167802
O32	O	0.930997	0.415763	0.047522
O33	O	0.540045	0.846084	-0.047365
O34	O	0.680228	0.846070	-0.047356
O35	O	0.776803	0.560103	0.106289
O36	O	0.859312	0.560106	0.035487
O37	O	0.776777	0.701724	-0.035319
O38	O	0.694269	0.701720	0.035482
C39	C	0.735515	0.441667	0.000070
C40	C	0.735513	0.377435	0.000067
C41	C	0.514921	0.630946	0.000063
C42	C	0.440051	0.630953	0.000058
C43	C	0.778576	0.347267	-0.036893
C44	C	0.778584	0.286906	-0.036887
C45	C	0.735513	0.256727	0.000069
C46	C	0.692448	0.286900	0.037038
C47	C	0.692448	0.347254	0.037037
C48	C	0.663357	0.194706	-0.005211
C49	C	0.663355	0.134357	-0.005215
C50	C	0.735514	0.070572	0.000076
C51	C	0.807674	0.067152	0.005357
C52	C	0.807674	0.127506	0.005356
C53	C	0.735508	0.191283	0.000075
C54	C	0.778589	-0.025047	-0.036879
C55	C	0.778599	-0.085413	-0.036868
C56	C	0.692456	-0.085412	0.037051
C57	C	0.692453	-0.025054	0.037045
C58	C	0.735518	0.005128	0.000076
C59	C	0.168049	0.630913	0.000085
C60	C	0.144476	0.720248	-0.044367
C61	C	0.222313	0.720304	-0.044614
C62	C	0.302992	0.630934	0.000072
C63	C	0.300573	0.586577	-0.032503
C64	C	0.222345	0.587149	-0.032831
C65	C	0.223356	0.585295	0.077132
C66	C	0.300277	0.586974	0.077013
C67	C	0.379259	0.630940	0.000064
C68	C	0.091784	0.630904	0.000090
C69	C	0.956121	0.630901	0.000094
C70	C	1.030991	0.630894	0.000099
C71	C	0.735480	0.630956	-0.189201
C72	C	0.735466	0.630967	-0.253440
C73	C	0.735527	0.820180	0.000086
C74	C	0.735529	0.884412	0.000089
C75	C	0.796387	0.630962	-0.283599
C76	C	0.796405	0.630946	-0.343946
C77	C	0.735490	0.630951	-0.374140
C78	C	0.674564	0.630951	-0.343971
C79	C	0.674552	0.630959	-0.283622
C80	C	0.661148	0.678453	-0.493524
C81	C	0.661159	0.678450	-0.553875
C82	C	0.735526	0.630922	-0.560276
C83	C	0.809887	0.583407	-0.506323
C84	C	0.809875	0.583415	-0.445974
C85	C	0.735496	0.630941	-0.439578
C86	C	0.796472	0.630898	-0.655869
C87	C	0.796491	0.630877	-0.716214
C88	C	0.674643	0.630889	-0.716242
C89	C	0.674631	0.630903	-0.655894
C90	C	0.735545	0.630911	-0.625713
C91	C	0.735562	0.630891	0.189358
C92	C	0.735576	0.630880	0.253597
C93	C	0.956115	0.441645	0.000086
C94	C	1.030982	0.377405	0.000088
C95	C	0.735556	0.441635	0.189349
C96	C	0.735567	0.377392	0.253586
C97	C	0.956156	0.441612	0.189365
C98	C	1.031037	0.377362	0.253607
C99	C	0.514886	0.820235	-0.189208
C100	C	0.440005	0.884485	-0.253450
C101	C	0.514927	0.820202	0.000071
C102	C	0.440059	0.884441	0.000069
C103	C	0.735486	0.820212	-0.189193
C104	C	0.735474	0.884455	-0.253430
C105	C	1.023057	0.347249	-0.036881
C106	C	1.093396	0.286897	-0.036892
C107	C	1.171660	0.256700	0.000069
C108	C	1.179585	0.286862	0.037039
C109	C	1.109246	0.347217	0.037046
C110	C	0.778657	0.347212	0.320722
C111	C	0.778665	0.286857	0.381086
C112	C	0.735588	0.256680	0.374311
C113	C	0.692492	0.286865	0.307168
C114	C	0.692480	0.347223	0.246806
C115	C	1.109278	0.347191	0.246818
C116	C	1.179644	0.286829	0.307175
C117	C	1.171767	0.256635	0.374319
C118	C	1.093518	0.286812	0.381107
C119	C	1.023154	0.347177	0.320751
C120	C	0.361764	0.914663	-0.246661
C121	C	0.291398	0.975043	-0.307018
C122	C	0.299275	1.005241	-0.374162
C123	C	0.377524	0.975060	-0.380950
C124	C	0.447888	0.914685	-0.320594
C125	C	0.447985	0.914604	0.037031
C126	C	0.377646	0.974973	0.037026
C127	C	0.299382	1.005172	0.000063
C128	C	0.291457	0.975007	-0.036904
C129	C	0.361796	0.914644	-0.036903
C130	C	0.778561	0.914614	-0.246632
C131	C	0.778566	0.974969	-0.306984
C132	C	0.735479	1.005168	-0.374132
C133	C	0.692392	0.975004	-0.380928
C134	C	0.692392	0.914646	-0.320577
H135	H	0.813644	0.371837	-0.066993
F136	F	0.531274	0.882476	0.076374
F137	F	0.175900	0.622645	0.112701
F138	F	1.246514	0.192463	0.000056
H139	H	0.355331	0.890087	-0.067000
F140	F	0.735484	1.069409	-0.438357
F141	F	0.884471	0.123864	0.010980
F142	F	1.262915	0.254721	0.299936
H143	H	0.624942	0.630963	-0.259065
F144	F	1.117694	0.379301	0.076400
F145	F	0.092296	0.765863	-0.118208
F146	F	0.824513	0.379316	0.327949
F147	F	0.302584	0.626859	-0.105904
H148	H	0.813762	0.262287	0.435751
F149	F	1.262886	0.254714	0.076375
F150	F	1.085147	0.254669	0.452573
F151	F	0.386097	1.007064	0.076376
H152	H	0.241973	1.054402	-0.423302
F153	F	0.735609	0.192440	0.438560
F154	F	0.646614	0.254776	0.076374
H155	H	0.657312	0.999601	-0.435608
H156	H	0.657420	0.262286	0.301662
F157	F	0.219976	0.766096	-0.118900
H158	H	0.383928	0.999655	-0.435626
F159	F	0.224528	1.069416	0.000069
F160	F	0.861219	0.630967	-0.251478
H161	H	0.355334	0.890080	-0.191994
H162	H	0.511594	0.890114	-0.326130
H163	H	0.604597	0.137150	-0.009518
F164	F	0.208156	1.007154	-0.076239
F165	F	1.246663	0.192388	0.438550
H166	H	0.657394	0.371787	0.192143
H167	H	1.115708	0.371766	0.192151
F168	F	0.939885	0.379277	0.327987
H169	H	0.813647	0.890035	-0.191962
F170	F	0.824423	1.007065	-0.299736
F171	F	0.208127	1.007151	-0.299779
H172	H	0.959336	0.371835	-0.066988
H173	H	0.657302	0.890097	-0.326121
H174	H	0.813652	0.262338	-0.066985
F175	F	0.884476	-0.000727	0.010986
H176	H	0.357391	0.520867	-0.001683
F177	F	0.582020	0.729022	-0.611292
F178	F	0.824433	-0.117518	-0.076211
F179	F	0.824427	0.007072	-0.076220
H180	H	0.657386	-0.109983	0.067142
H181	H	0.357743	0.521772	0.112922
F182	F	0.646617	0.007057	0.076382
H183	H	0.604588	0.246649	-0.009534
H184	H	0.657379	0.371817	0.067134
H185	H	0.105315	0.755305	-0.022629
F186	F	0.220789	0.765791	-0.016056
H187	H	0.185791	0.618683	-0.089527
F188	F	0.299808	0.629236	0.108828
F189	F	0.247636	0.501481	0.006744
F190	F	0.249409	0.499275	0.120625
H191	H	0.846016	0.630942	-0.368506
F192	F	0.889012	0.532844	-0.388554
H193	H	0.870444	0.544705	-0.511531
F194	F	0.861337	0.630865	-0.748309
F195	F	0.861305	0.630902	-0.623745
H196	H	0.625047	0.630889	-0.740823
H197	H	0.625020	0.630911	-0.631339
F198	F	0.609736	0.630952	-0.376103
F199	F	0.581996	0.729088	-0.486745
H200	H	1.086928	0.262346	-0.066998
