data_functionalizedCrystal
_audit_creation_method	'MofGen! by Chris Wilmer'
_symmetry_space_group_name_H-M	'P1'
_symmetry_Int_Tables_number	1
_symmetry_cell_setting	triclinic
loop_
_symmetry_equiv_pos_as_xyz
  x,y,z
_cell_length_a	6.817900
_cell_length_b	15.300992
_cell_length_c	10.773894
_cell_angle_alpha	96.209485
_cell_angle_beta	96.645922
_cell_angle_gamma	104.175078
loop_
_atom_site_label
_atom_site_type_symbol
_atom_site_fract_x
_atom_site_fract_y
_atom_site_fract_z
V1	V	-3.952239	-0.121441	-0.389310
O2	O	-3.937688	0.009245	-0.381512
O3	O	-3.907615	-0.244077	-0.387019
O4	O	-3.869808	-0.118077	-0.558932
O5	O	-3.975757	-0.117627	-0.208410
V6	V	-4.439787	-0.105987	-0.367628
O7	O	-4.204668	-0.155343	-0.436872
O8	O	-4.637556	-0.072085	-0.320066
O9	O	-4.261205	0.016649	-0.369918
O10	O	-4.571735	-0.236673	-0.375425
O11	O	-4.533666	-0.109801	-0.548528
O12	O	-4.299011	-0.109351	-0.198006
C13	C	-3.754636	-0.274020	-0.380973
C14	C	-3.799210	-0.374267	-0.380231
C15	C	-3.802437	-0.409459	-0.265609
C16	C	-3.844338	-0.503652	-0.264916
C17	C	-3.882999	-0.562651	-0.378845
C18	C	-3.879777	-0.527453	-0.493476
C19	C	-3.837890	-0.433262	-0.494169
C20	C	-3.967076	-0.723777	-0.492025
C21	C	-4.008962	-0.817975	-0.491333
C22	C	-3.973525	-0.794167	-0.262772
C23	C	-3.931638	-0.699976	-0.263465
C24	C	-3.928415	-0.664784	-0.378096
C25	C	-3.706409	-0.113293	-0.600263
C26	C	-3.720321	-0.111354	-0.738933
C27	C	-3.898499	-0.114715	-0.806805
C28	C	-3.912882	-0.112711	-0.950127
C29	C	-4.077527	0.046587	-0.375961
C30	C	-4.012189	0.146833	-0.376711
C31	C	-4.125755	-0.114138	-0.156667
C32	C	-4.091081	-0.116072	-0.017997
H33	H	-3.846968	-0.532301	-0.171580
C34	C	-4.087947	-0.120674	-0.743014
C35	C	-4.237069	-0.200698	-0.795532
C36	C	-4.411630	-0.206213	-0.736814
H37	H	-4.053431	-0.121302	-0.655191
H38	H	-4.139744	-0.069506	-0.755403
H39	H	-4.185281	-0.251853	-0.783132
H40	H	-4.271645	-0.200088	-0.883349
H41	H	-4.463427	-0.155045	-0.749204
H42	H	-4.377094	-0.206837	-0.648993
H43	H	-4.512837	-0.260504	-0.772447
C44	C	-4.280549	-0.122031	-0.954219
C45	C	-4.429669	-0.202054	-1.006742
C46	C	-4.604240	-0.207568	-0.948035
H47	H	-4.246046	-0.122659	-0.866395
H48	H	-4.332342	-0.070862	-0.966613
H49	H	-4.377884	-0.253209	-0.994338
H50	H	-4.464231	-0.201444	-1.094561
H51	H	-4.656033	-0.156400	-0.960429
H52	H	-4.569717	-0.208193	-0.860213
H53	H	-4.705445	-0.261859	-0.983672
H54	H	-3.770970	-0.108344	-0.998118
C55	C	-3.889233	-0.635862	-0.139797
C56	C	-3.693310	-0.576825	-0.127623
C57	C	-3.654171	-0.517758	-0.013710
H58	H	-3.987756	-0.601436	-0.139187
H59	H	-3.897028	-0.670272	-0.071386
H60	H	-3.685533	-0.542418	-0.196017
H61	H	-3.594746	-0.611225	-0.128211
H62	H	-3.661966	-0.552168	0.054701
H63	H	-3.752705	-0.483338	-0.013110
H64	H	-3.521229	-0.477700	-0.005430
H65	H	-3.578422	-0.106988	-0.786929
H66	H	-3.976142	-0.822824	-0.169435
C67	C	-3.760902	-0.345458	-0.141889
C68	C	-3.931257	-0.365460	-0.078688
C69	C	-3.893092	-0.306516	0.035281
H70	H	-3.644801	-0.353049	-0.090676
H71	H	-3.735589	-0.284310	-0.158668
H72	H	-3.956544	-0.426594	-0.061905
H73	H	-4.047378	-0.357864	-0.129863
H74	H	-3.867780	-0.245367	0.018501
H75	H	-3.776988	-0.314111	0.086482
H76	H	-4.008677	-0.320073	0.078171
H77	H	-3.964488	-0.695129	-0.585371
C78	C	-4.051026	-0.881888	-0.615164
C79	C	-4.039322	-0.830913	-0.715704
C80	C	-4.078098	-0.889760	-0.829797
H81	H	-3.952388	-0.916252	-0.615848
H82	H	-4.183939	-0.922013	-0.623682
H83	H	-3.906429	-0.790804	-0.707188
H84	H	-4.137958	-0.796551	-0.715061
H85	H	-4.211011	-0.929885	-0.838316
H86	H	-3.979455	-0.924121	-0.830469
H87	H	-4.070181	-0.855183	-0.898028
C88	C	-3.921809	-0.591361	-0.617310
C89	C	-3.910076	-0.540378	-0.717842
C90	C	-3.948808	-0.599217	-0.831940
H91	H	-3.823162	-0.625721	-0.617985
H92	H	-4.054720	-0.631490	-0.625848
H93	H	-3.777183	-0.500265	-0.709307
H94	H	-4.008720	-0.506020	-0.717209
H95	H	-4.081719	-0.639346	-0.840478
H96	H	-3.850156	-0.633574	-0.832602
H97	H	-3.940870	-0.564635	-0.900165
C98	C	-3.834390	-0.394876	-0.618490
C99	C	-3.789491	-0.299762	-0.594716
C100	C	-3.786288	-0.264372	-0.709213
H101	H	-3.732745	-0.412200	-0.661439
H102	H	-3.964346	-0.418056	-0.669332
H103	H	-3.659553	-0.276590	-0.543894
H104	H	-3.891118	-0.282413	-0.551785
H105	H	-3.916245	-0.287552	-0.760055
H106	H	-3.684644	-0.281702	-0.752154
H107	H	-3.755844	-0.199835	-0.693099
