data_functionalizedCrystal
_audit_creation_method	'MofGen! by Chris Wilmer'
_symmetry_space_group_name_H-M	'P1'
_symmetry_Int_Tables_number	1
_symmetry_cell_setting	triclinic
loop_
_symmetry_equiv_pos_as_xyz
  x,y,z
_cell_length_a	12.759401
_cell_length_b	25.639239
_cell_length_c	12.759393
_cell_angle_alpha	89.962897
_cell_angle_beta	89.980163
_cell_angle_gamma	90.040211
loop_
_atom_site_label
_atom_site_type_symbol
_atom_site_fract_x
_atom_site_fract_y
_atom_site_fract_z
Zn1	Zn	1.606080	-0.208098	-0.593980
Zn2	Zn	1.605901	-0.295545	-0.418283
Zn3	Zn	1.430382	-0.208128	-0.418315
Zn4	Zn	1.430297	-0.295507	-0.593921
O5	O	1.518165	-0.251820	-0.506125
O6	O	1.753077	-0.219702	-0.570685
O7	O	1.582578	-0.283978	-0.271266
O8	O	1.453799	-0.134959	-0.441656
O9	O	1.752946	-0.283949	-0.441601
O10	O	1.582884	-0.134937	-0.570716
O11	O	1.453626	-0.219752	-0.271290
O12	O	1.283350	-0.219715	-0.441598
O13	O	1.453654	-0.283884	-0.740950
O14	O	1.283287	-0.283912	-0.570615
O15	O	1.582801	-0.219665	-0.740993
O16	O	1.582496	-0.368705	-0.441544
O17	O	1.453481	-0.368677	-0.570584
C18	C	1.245198	-0.251813	-0.506104
C19	C	1.128421	-0.251823	-0.506120
C20	C	1.073554	-0.285301	-0.573193
C21	C	0.963830	-0.285303	-0.573214
C22	C	0.963849	-0.218347	-0.439079
C23	C	1.073572	-0.218343	-0.439065
C24	C	1.517988	-0.387662	-0.506077
C25	C	1.518009	-0.445776	-0.506091
C26	C	1.585519	-0.806141	-0.439048
C27	C	1.585559	-0.860746	-0.439062
O28	O	1.642775	-0.888984	-0.382007
N29	N	1.518350	-0.888059	-0.506194
C30	C	1.451102	-0.860765	-0.573324
O31	O	1.393940	-0.889010	-0.630428
C32	C	1.451068	-0.806161	-0.573315
C33	C	1.518274	-0.778851	-0.506171
C34	C	1.652720	-0.778831	-0.371910
C35	C	1.652678	-0.724231	-0.371895
C36	C	1.585434	-0.696940	-0.439018
C37	C	1.518232	-0.724251	-0.506156
C38	C	1.383827	-0.778868	-0.640449
C39	C	1.383798	-0.724261	-0.640435
C40	C	1.451005	-0.696951	-0.573291
C41	C	1.450945	-0.642360	-0.573263
N42	N	1.518155	-0.615047	-0.506131
C43	C	1.585399	-0.642337	-0.439008
C44	C	1.451181	-0.975435	-0.573341
C45	C	1.451210	-1.030037	-0.573346
C46	C	1.585669	-1.030015	-0.439085
C47	C	1.585634	-0.975411	-0.439075
C48	C	1.518391	-0.948122	-0.506208
C49	C	1.585304	-0.527672	-0.438981
C50	C	1.585253	-0.473067	-0.438969
C51	C	1.450799	-0.473094	-0.573233
C52	C	1.450846	-0.527695	-0.573242
C53	C	1.518107	-0.554982	-0.506112
O54	O	1.393761	-0.614087	-0.630292
O55	O	1.642562	-0.614084	-0.381925
C56	C	1.792198	-0.251826	-0.506146
C57	C	1.908975	-0.251829	-0.506156
C58	C	1.518238	-0.251767	-0.780158
C59	C	1.518270	-0.251744	-0.896935
C60	C	1.518371	-0.115447	-0.506196
C61	C	1.518459	-0.057333	-0.506226
C62	C	1.451148	-0.218296	-0.951809
C63	C	1.451172	-0.218280	-1.061533
C64	C	1.585449	-0.285162	-1.061500
C65	C	1.585419	-0.285180	-0.951778
C66	C	1.518152	-0.251835	-0.233157
C67	C	1.518325	-0.251710	-0.116381
H68	H	0.919178	-0.191090	-0.384484
N69	N	1.657886	-0.321219	-1.120645
H70	H	1.641504	-0.358578	-1.101525
H71	H	1.647696	-0.316089	-1.198463
N72	N	1.132759	-0.182226	-0.366732
H73	H	1.081365	-0.161018	-0.324253
H74	H	1.178241	-0.203473	-0.318025
N75	N	1.657745	-0.443611	-0.366549
H76	H	1.700353	-0.469188	-0.324036
H77	H	1.706325	-0.420914	-0.409356
N78	N	1.378782	-0.182203	-1.120721
H79	H	1.330070	-0.203442	-1.166222
H80	H	1.336311	-0.161033	-1.069260
H81	H	1.640080	-0.312419	-0.907098
H82	H	1.640077	-0.549883	-0.384320
H83	H	1.118209	-0.312562	-0.627796
H84	H	1.707406	-0.701998	-0.317224
N85	N	0.904651	-0.321414	-0.645552
H86	H	0.956050	-0.342622	-0.688024
H87	H	0.859076	-0.345584	-0.602696
H88	H	1.707485	-0.801045	-0.317251
N89	N	1.378352	-0.557151	-0.645654
H90	H	1.421040	-0.579762	-0.694389
H91	H	1.329720	-0.579821	-0.602849
H92	H	1.640360	-0.953179	-0.384401
N93	N	1.658210	-1.059456	-0.366699
H94	H	1.700786	-1.033873	-0.324163
H95	H	1.615487	-1.082154	-0.318048
H96	H	1.396474	-1.052269	-0.628011
N97	N	1.378642	-0.946003	-0.645745
H98	H	1.336074	-0.971595	-0.688267
H99	H	1.330028	-0.923390	-0.602930
H100	H	1.329095	-0.801095	-0.695120
H101	H	1.329042	-0.702045	-0.695106
H102	H	1.396046	-0.450866	-0.627881
H103	H	1.396471	-0.191071	-0.907159
