data_functionalizedCrystal
_audit_creation_method	'MofGen! by Chris Wilmer'
_symmetry_space_group_name_H-M	'P1'
_symmetry_Int_Tables_number	1
_symmetry_cell_setting	triclinic
loop_
_symmetry_equiv_pos_as_xyz
  x,y,z
_cell_length_a	12.811453
_cell_length_b	13.596369
_cell_length_c	12.837942
_cell_angle_alpha	90.005289
_cell_angle_beta	90.587019
_cell_angle_gamma	84.562921
loop_
_atom_site_label
_atom_site_type_symbol
_atom_site_fract_x
_atom_site_fract_y
_atom_site_fract_z
O1	O	-1.406651	0.207258	0.139722
O2	O	-1.102585	0.180139	0.154903
O3	O	-1.247876	0.193091	-0.003619
O4	O	-1.261361	0.194306	0.298245
O5	O	-1.247859	0.029507	-0.003628
O6	O	-1.102568	0.016554	0.154895
O7	O	-1.406635	0.043674	0.139714
Zn8	Zn	-1.254599	0.004141	0.147303
Zn9	Zn	-1.254621	0.219671	0.147314
O10	O	-1.261344	0.030721	0.298236
C11	C	-1.063387	0.094851	0.154047
C12	C	-0.946614	0.084436	0.151495
N13	N	-1.254591	-0.142951	0.147295
C14	C	-0.727201	0.243223	0.146730
C15	C	-0.617482	0.233442	0.144333
C16	C	-0.617456	0.055092	0.144312
C17	C	-0.727174	0.064874	0.146709
C18	C	-0.782043	0.158942	0.147916
C19	C	-0.891764	0.168723	0.150306
C20	C	-0.891736	-0.009625	0.150292
C21	C	-0.782017	-0.019407	0.147895
C22	C	-1.254620	-0.544240	0.147315
C23	C	-1.254609	-0.432589	0.147313
C24	C	-1.254606	-0.343599	0.147306
C25	C	-1.254594	-0.231941	0.147302
C26	C	-0.445832	0.128962	0.140570
C27	C	-0.562606	0.139379	0.143122
C28	C	-1.243312	0.110893	-0.042264
C29	C	-1.229726	0.109683	-0.157400
N30	N	-1.254636	0.366764	0.147314
C31	C	-1.393056	0.124271	-0.397650
C32	C	-1.380296	0.123134	-0.505831
C33	C	-1.191446	0.106281	-0.481945
C34	C	-1.204206	0.107417	-0.373764
C35	C	-1.305015	0.116411	-0.331621
C36	C	-1.317774	0.117540	-0.223437
C37	C	-1.128925	0.100694	-0.199554
C38	C	-1.116164	0.099557	-0.307735
C39	C	-1.265908	0.112921	0.336881
C40	C	-1.279494	0.114138	0.452017
H41	H	-0.936437	0.245319	0.151288
H42	H	-0.737328	-0.095995	0.146916
N43	N	-0.786380	0.344679	0.148025
H44	H	-0.829820	0.352531	0.213229
H45	H	-0.833928	0.352830	0.084764
N46	N	-1.033959	0.092223	-0.128334
H47	H	-0.968165	0.086353	-0.171451
H48	H	-1.035138	0.031683	-0.082939
N49	N	-1.501778	0.133954	-0.352186
H50	H	-1.540853	0.198077	-0.376221
H51	H	-1.496409	0.133433	-0.273643
N52	N	-1.007442	0.089845	-0.353197
H53	H	-0.953604	0.085035	-0.294949
H54	H	-0.998030	0.149648	-0.397554
H55	H	-1.399858	0.124860	-0.189126
H56	H	-0.572762	-0.021494	0.143338
H57	H	-0.572833	0.302072	0.143369
H58	H	-1.451989	0.129538	-0.559589
N59	N	-0.950898	-0.100529	0.151578
H60	H	-0.929716	-0.141404	0.215367
H61	H	-0.933863	-0.140955	0.086903
H62	H	-1.109372	0.098969	-0.516278
