data_functionalizedCrystal
_audit_creation_method	'MofGen! by Chris Wilmer'
_symmetry_space_group_name_H-M	'P1'
_symmetry_Int_Tables_number	1
_symmetry_cell_setting	triclinic
loop_
_symmetry_equiv_pos_as_xyz
  x,y,z
_cell_length_a	14.971506
_cell_length_b	23.532407
_cell_length_c	14.048226
_cell_angle_alpha	89.988910
_cell_angle_beta	89.993237
_cell_angle_gamma	83.235533
loop_
_atom_site_label
_atom_site_type_symbol
_atom_site_fract_x
_atom_site_fract_y
_atom_site_fract_z
O1	O	1.186151	0.074271	-0.079177
O2	O	0.925660	0.083147	-0.079179
O3	O	1.063761	-0.004189	-0.079161
O4	O	1.048050	0.161607	-0.079196
O5	O	1.063744	-0.004194	0.079161
O6	O	0.925643	0.083141	0.079142
O7	O	1.186135	0.074266	0.079144
Zn8	Zn	1.055886	0.078703	0.104280
Zn9	Zn	1.055908	0.078710	-0.104315
O10	O	1.048034	0.161601	0.079126
C11	C	0.892331	0.082745	-0.000018
C12	C	0.793048	0.081549	-0.000018
C13	C	0.354271	0.128294	-0.000038
C14	C	0.447560	0.129413	-0.000042
C15	C	0.505322	0.078101	-0.000027
C16	C	0.469791	0.025665	-0.000017
C17	C	0.376505	0.024547	-0.000020
C18	C	0.664230	0.028000	-0.000010
C19	C	0.757523	0.029118	-0.000006
C20	C	0.735285	0.132867	-0.000032
C21	C	0.641998	0.131748	-0.000035
C22	C	0.606474	0.079313	-0.000023
C23	C	1.063352	-0.025409	0.000002
C24	C	1.062149	-0.088631	0.000010
C25	C	1.136330	-0.487413	-0.000042
C26	C	1.135213	-0.546818	-0.000049
O27	O	1.203980	-0.583265	-0.000084
N28	N	1.053112	-0.569800	-0.000049
C29	C	0.972123	-0.533373	-0.000051
O30	O	0.902188	-0.558375	-0.000053
C31	C	0.973242	-0.473969	-0.000051
C32	C	1.055348	-0.450991	-0.000041
C33	C	1.218430	-0.464435	-0.000034
C34	C	1.219547	-0.405034	-0.000025
C35	C	1.138564	-0.368611	-0.000024
C36	C	1.056465	-0.391590	-0.000032
C37	C	0.892254	-0.437543	-0.000060
C38	C	0.893379	-0.378136	-0.000060
C39	C	0.975485	-0.355158	-0.000051
C40	C	0.976599	-0.295767	-0.000023
N41	N	1.058700	-0.272785	-0.000023
C42	C	1.139683	-0.309207	-0.000024
C43	C	0.969781	-0.658126	-0.000054
C44	C	0.968662	-0.717528	-0.000047
C45	C	1.131752	-0.730970	-0.000047
C46	C	1.132870	-0.671566	-0.000047
C47	C	1.051882	-0.635144	-0.000054
C48	C	1.142022	-0.184461	-0.000004
C49	C	1.143132	-0.125054	0.000009
C50	C	0.980042	-0.111618	0.000004
C51	C	0.978932	-0.171019	-0.000004
C52	C	1.059929	-0.207440	-0.000011
O53	O	0.907869	-0.259285	0.000008
O54	O	1.209607	-0.284197	-0.000035
C55	C	1.219463	0.074668	-0.000019
C56	C	1.318747	0.075863	-0.000025
C57	C	1.048442	0.182822	-0.000040
C58	C	1.049645	0.246044	-0.000053
N59	N	1.055878	0.078698	0.246641
N60	N	1.055923	0.078710	-0.246676
C61	C	1.117048	0.040042	0.296467
C62	C	1.117054	0.040041	0.396125
C63	C	1.055894	0.078700	0.445954
C64	C	0.994717	0.117358	0.396121
C65	C	0.994708	0.117356	0.296465
C66	C	0.994743	0.117363	0.603835
C67	C	0.994753	0.117366	0.703498
C68	C	1.117090	0.040048	0.703495
C69	C	1.117080	0.040046	0.603839
C70	C	1.055904	0.078704	0.554013
H71	H	0.476479	0.172108	-0.000061
C72	C	0.888612	-0.196296	-0.000008
N73	N	0.820581	-0.215330	-0.000022
C74	C	0.927437	0.159884	0.549029
N75	N	0.876743	0.191910	0.507749
C76	C	0.774363	0.190546	-0.000053
N77	N	0.803801	0.233989	-0.000066
H78	H	0.804551	-0.012665	-0.000001
H79	H	0.307247	0.170080	-0.000043
H80	H	0.516829	-0.016115	-0.000011
H81	H	0.594970	0.173532	-0.000041
C82	C	0.880681	-0.618066	-0.000049
N83	N	0.813572	-0.587896	-0.000047
C84	C	0.927423	0.159885	0.241657
N85	N	0.876742	0.191920	0.200377
H86	H	0.347583	-0.018148	-0.000011
C87	C	1.184330	-0.002487	0.241663
N88	N	1.235006	-0.034523	0.200388
C89	C	1.184360	-0.002481	0.549028
N90	N	1.235033	-0.034515	0.507745
C91	C	1.184380	-0.002479	0.758305
N92	N	1.235063	-0.034508	0.799593
C93	C	0.625156	-0.029682	0.000005
N94	N	0.595726	-0.073127	0.000021
H95	H	1.284380	-0.494085	-0.000038
C96	C	1.233459	-0.099782	0.000017
N97	N	1.301491	-0.080750	0.000020
H98	H	1.166863	0.008564	0.436693
C99	C	1.231124	-0.224515	-0.000003
N100	N	1.298235	-0.254684	0.000006
H101	H	0.914109	-0.081952	0.000008
H102	H	1.286406	-0.386331	-0.000021
H103	H	1.199728	-0.652862	-0.000040
H104	H	0.901803	-0.736232	-0.000039
C105	C	0.801929	-0.462805	-0.000077
N106	N	0.733891	-0.481831	-0.000093
H107	H	0.944949	0.148846	0.744064
H108	H	1.197692	-0.760636	-0.000051
C109	C	0.804283	-0.338075	-0.000065
N110	N	0.737176	-0.307902	-0.000065
H111	H	0.944915	0.148833	0.436698
