data_functionalizedCrystal
_audit_creation_method	'MofGen! by Chris Wilmer'
_symmetry_space_group_name_H-M	'P1'
_symmetry_Int_Tables_number	1
_symmetry_cell_setting	triclinic
loop_
_symmetry_equiv_pos_as_xyz
  x,y,z
_cell_length_a	14.853568
_cell_length_b	14.421503
_cell_length_c	15.944556
_cell_angle_alpha	89.992667
_cell_angle_beta	83.568279
_cell_angle_gamma	89.995164
loop_
_atom_site_label
_atom_site_type_symbol
_atom_site_fract_x
_atom_site_fract_y
_atom_site_fract_z
O1	O	-1.196232	0.077076	-0.109656
O2	O	-0.933756	0.077094	-0.122719
O3	O	-1.072159	0.077051	0.006079
O4	O	-1.057829	0.077119	-0.238454
O5	O	-1.072136	-0.077172	0.006060
O6	O	-0.933733	-0.077129	-0.122738
O7	O	-1.196209	-0.077148	-0.109675
Cu8	Cu	-1.064969	-0.091220	-0.116208
Cu9	Cu	-1.064996	0.091167	-0.116186
O10	O	-1.057806	-0.077105	-0.238473
C11	C	-0.900157	-0.000016	-0.122136
C12	C	-0.800075	-0.000011	-0.120362
C13	C	-0.387647	-0.000056	-0.036354
C14	C	-0.366174	-0.000013	-0.189370
C15	C	-0.460205	-0.000009	-0.191038
C16	C	-0.517962	-0.000027	-0.115363
C17	C	-0.481688	-0.000050	-0.038020
C18	C	-0.496487	0.000023	-0.268379
C19	C	-0.590524	0.000027	-0.270050
C20	C	-0.648283	0.000002	-0.194375
C21	C	-0.612003	-0.000021	-0.117029
C22	C	-0.669760	-0.000039	-0.041354
C23	C	-0.633482	-0.000069	0.035993
C24	C	-0.539447	-0.000075	0.037656
C25	C	-0.742318	0.000008	-0.196037
C26	C	-0.763801	-0.000033	-0.043020
N27	N	-1.064956	-0.219502	-0.116224
C28	C	-1.000948	-0.469135	-0.175753
C29	C	-1.082412	-0.530938	-0.192151
C30	C	-1.064978	-0.408663	-0.116204
C31	C	-0.983535	-0.530954	-0.099825
C32	C	-1.064992	-0.591384	-0.116186
C33	C	-1.146484	-0.469105	-0.132640
C34	C	-1.047553	-0.469116	-0.040280
C35	C	-1.129076	-0.530890	-0.056646
C36	C	-1.064969	-0.303402	-0.116216
C37	C	-1.065011	-0.696643	-0.116173
C38	C	-0.229808	-0.000036	-0.110257
C39	C	-0.329890	-0.000038	-0.112029
C40	C	-1.071551	-0.000067	0.037364
C41	C	-1.069765	-0.000087	0.130612
N42	N	-1.065016	0.219448	-0.116163
C43	C	-0.978635	-0.000113	0.401345
C44	C	-1.022578	0.075935	0.350720
C45	C	-1.063394	-0.000122	0.466261
C46	C	-1.022578	-0.076117	0.350728
C47	C	-1.066519	-0.000106	0.301345
C48	C	-1.107314	0.075988	0.416864
C49	C	-1.107301	-0.076133	0.416876
C50	C	-1.151307	-0.000067	0.366284
C51	C	-1.061590	-0.000130	0.561264
C52	C	-1.068329	-0.000091	0.206344
C53	C	-1.058401	-0.000030	0.730241
C54	C	-1.060151	-0.000142	0.636989
H55	H	-0.680520	-0.000078	0.097607
O56	O	-1.154661	-0.161301	0.455166
H57	H	-1.225927	-0.161883	0.440393
O58	O	-0.929291	-0.433208	-0.242502
H59	H	-0.961699	-0.389794	-0.288159
H60	H	-0.449455	0.000047	-0.329989
O61	O	-0.826097	-0.000060	0.038602
H62	H	-0.813205	0.062788	0.075618
O63	O	-1.154774	0.161165	0.455033
H64	H	-1.226211	0.161284	0.440744
O65	O	-0.892296	-0.566939	-0.081480
H66	H	-0.893335	-0.643896	-0.081052
O67	O	-0.500321	-0.000102	0.121075
H68	H	-0.425230	-0.000093	0.109518
H69	H	-0.905636	-0.000037	0.417079
O70	O	-0.975146	-0.161273	0.312482
H71	H	-0.903530	-0.161106	0.326242
O72	O	-1.248070	-0.000003	0.345637
H73	H	-1.294747	0.000622	0.405084
O74	O	-0.348521	-0.000088	0.047065
H75	H	-0.371717	-0.062961	0.083417
O76	O	-1.237744	-0.433273	-0.151083
H77	H	-1.290866	-0.458583	-0.101908
H78	H	-1.183290	-0.557835	-0.006277
H79	H	-0.319143	0.000010	-0.250981
H80	H	-1.032776	-0.441938	0.023898
H81	H	-0.771852	0.000030	-0.259012
O82	O	-0.629652	0.000037	-0.353468
H83	H	-0.573691	0.000038	-0.405808
H84	H	-1.097163	-0.558094	-0.256350
H85	H	-0.986791	0.140229	0.321834
