data_functionalizedCrystal
_audit_creation_method	'MofGen! by Chris Wilmer'
_symmetry_space_group_name_H-M	'P1'
_symmetry_Int_Tables_number	1
_symmetry_cell_setting	triclinic
loop_
_symmetry_equiv_pos_as_xyz
  x,y,z
_cell_length_a	15.944493
_cell_length_b	14.853567
_cell_length_c	13.930277
_cell_angle_alpha	90.000757
_cell_angle_beta	89.993349
_cell_angle_gamma	96.445013
loop_
_atom_site_label
_atom_site_type_symbol
_atom_site_fract_x
_atom_site_fract_y
_atom_site_fract_z
O1	O	1.114687	-0.116024	-0.079810
O2	O	0.870147	-0.130414	-0.079814
O3	O	0.998949	0.008021	-0.079815
O4	O	0.985885	-0.254458	-0.079809
O5	O	0.998931	0.008024	0.079847
O6	O	0.870129	-0.130411	0.079848
O7	O	1.114669	-0.116021	0.079852
Zn8	Zn	0.992396	-0.123215	0.105200
Zn9	Zn	0.992420	-0.123219	-0.105162
O10	O	0.985867	-0.254455	0.079853
C11	C	0.838842	-0.129824	0.000017
C12	C	0.745592	-0.128061	0.000015
C13	C	0.509923	-0.209546	0.000016
C14	C	0.459307	-0.165603	0.078741
C15	C	0.574867	-0.124793	0.000017
C16	C	0.459329	-0.165586	-0.078673
C17	C	0.409954	-0.121644	0.000014
C18	C	0.525479	-0.080873	0.078806
C19	C	0.525505	-0.080868	-0.078678
C20	C	0.474922	-0.036862	0.000066
C21	C	0.669869	-0.126610	0.000019
C22	C	0.314955	-0.119820	0.000019
C23	C	0.998348	0.041610	0.000014
C24	C	0.996574	0.141691	0.000005
C25	C	1.145974	-0.116610	0.000019
C26	C	1.239224	-0.118374	0.000015
C27	C	0.986468	-0.288045	0.000023
C28	C	0.988242	-0.388126	0.000025
N29	N	0.992386	-0.123212	0.248766
C30	C	0.912565	0.554099	0.000022
C31	C	1.065585	0.575610	0.000024
C32	C	1.067252	0.481579	0.000019
C33	C	0.991575	0.423803	0.000016
C34	C	0.914230	0.460058	0.000019
C35	C	1.144596	0.445316	0.000025
C36	C	1.146267	0.351280	0.000021
C37	C	1.070589	0.293502	0.000011
C38	C	0.993241	0.329763	0.000014
C39	C	0.917564	0.271987	0.000011
C40	C	0.840215	0.308246	0.000006
C41	C	0.838552	0.402281	0.000010
C42	C	1.072252	0.199467	0.000008
C43	C	0.919229	0.177947	0.000008
N44	N	0.992436	-0.123215	-0.248728
C45	C	0.935384	-0.184494	0.701036
C46	C	1.049479	-0.061937	0.701004
C47	C	1.049469	-0.061934	0.600508
C48	C	0.992416	-0.123213	0.550272
C49	C	0.935374	-0.184495	0.600531
C50	C	1.106516	-0.000660	0.550242
C51	C	1.106509	-0.000656	0.449740
C52	C	1.049452	-0.061931	0.399501
C53	C	0.992406	-0.123214	0.449767
C54	C	0.935354	-0.184493	0.399530
C55	C	0.878304	-0.245772	0.449793
C56	C	0.878317	-0.245770	0.550292
C57	C	1.049439	-0.061933	0.299003
C58	C	0.935344	-0.184494	0.299025
H59	H	0.554260	-0.045101	0.145428
H60	H	0.459374	0.036198	0.000110
H61	H	0.525628	-0.282552	0.000091
C62	C	0.420252	-0.213950	0.168648
H63	H	0.431966	-0.275266	0.168554
H64	H	0.443783	-0.184446	0.224549
H65	H	0.360904	-0.211982	0.168294
H66	H	1.152961	0.049242	0.408822
H67	H	0.554419	-0.045104	-0.145238
H68	H	1.095933	-0.012050	0.741910
C69	C	1.148824	0.639156	0.000028
H70	H	1.195126	0.604094	0.000031
H71	H	1.151359	0.676291	-0.055646
H72	H	1.151349	0.676280	0.055716
H73	H	1.206208	0.492364	0.000036
H74	H	0.849589	0.583625	0.000014
C75	C	0.420312	-0.213954	-0.168580
H76	H	0.432044	-0.275264	-0.168476
H77	H	0.360968	-0.211991	-0.168250
H78	H	0.443870	-0.184455	-0.224482
H79	H	1.209249	0.321766	0.000023
C80	C	1.112185	0.005462	0.243713
H81	H	1.104011	-0.003316	0.176664
H82	H	1.103004	0.065637	0.260188
H83	H	1.168256	-0.004367	0.260166
H84	H	0.857603	0.130911	0.000002
H85	H	1.152971	0.049227	0.591148
H86	H	1.135228	0.169949	0.000018
H87	H	0.775579	0.431811	0.000007
C88	C	0.756975	0.244687	0.000002
H89	H	0.769051	0.183492	-0.000002
H90	H	0.725253	0.255674	0.055675
H91	H	0.725275	0.255672	-0.055687
H92	H	0.888882	-0.234391	0.258128
H93	H	0.831869	-0.295662	0.591223
C94	C	0.815551	-0.313176	0.394526
H95	H	0.823719	-0.304394	0.327475
H96	H	0.824737	-0.373351	0.410993
H97	H	0.759480	-0.303352	0.411002
C98	C	0.872636	-0.251899	0.756319
H99	H	0.880813	-0.243129	0.823368
H100	H	0.816567	-0.242084	0.739859
H101	H	0.881832	-0.312075	0.739845
