data_functionalizedCrystal
_audit_creation_method	'MofGen! by Chris Wilmer'
_symmetry_space_group_name_H-M	'P1'
_symmetry_Int_Tables_number	1
_symmetry_cell_setting	triclinic
loop_
_symmetry_equiv_pos_as_xyz
  x,y,z
_cell_length_a	16.109301
_cell_length_b	9.130313
_cell_length_c	16.109304
_cell_angle_alpha	89.998438
_cell_angle_beta	83.462059
_cell_angle_gamma	89.997515
loop_
_atom_site_label
_atom_site_type_symbol
_atom_site_fract_x
_atom_site_fract_y
_atom_site_fract_z
O1	O	1.103128	0.121697	0.106863
O2	O	0.861066	0.121720	0.120163
O3	O	0.988746	0.121709	-0.007518
O4	O	0.975449	0.121708	0.234544
O5	O	0.988744	-0.121890	-0.007514
O6	O	0.861065	-0.121879	0.120166
O7	O	1.103127	-0.121901	0.106867
Cu8	Cu	0.982096	-0.144133	0.113517
Cu9	Cu	0.982097	0.143951	0.113513
O10	O	0.975447	-0.121891	0.234547
C11	C	0.830091	-0.000077	0.119626
C12	C	0.737795	-0.000068	0.118010
N13	N	0.982100	-0.346755	0.113519
C14	C	0.515524	-0.000085	0.190018
C15	C	0.428803	-0.000095	0.188494
C16	C	0.448676	-0.000088	0.037005
C17	C	0.535395	-0.000089	0.038530
C18	C	0.568816	-0.000080	0.115039
C19	C	0.395377	-0.000089	0.111990
C20	C	0.301351	-0.000099	0.110337
C21	C	0.662848	-0.000073	0.116693
C22	C	1.038651	-0.423412	0.057001
C23	C	1.038649	-0.576749	0.056991
C24	C	0.925543	-0.576759	0.170024
C25	C	0.925541	-0.423425	0.170030
C26	C	1.095210	-0.346743	0.000491
C27	C	1.151766	-0.423400	-0.056031
C28	C	1.151764	-0.576737	-0.056041
C29	C	1.095206	-0.653417	0.000471
C30	C	1.134102	-0.000102	0.107404
C31	C	1.226398	-0.000101	0.109019
C32	C	0.988206	-0.000087	-0.038491
C33	C	0.986590	-0.000077	-0.130786
N34	N	0.982099	0.346574	0.113504
C35	C	0.982857	0.132703	-0.343125
C36	C	0.981331	0.132702	-0.429846
C37	C	0.981333	-0.132883	-0.429839
C38	C	0.982854	-0.132880	-0.343120
C39	C	0.983620	-0.000082	-0.299766
C40	C	0.980573	-0.000086	-0.473205
C41	C	0.978919	-0.000089	-0.567231
C42	C	0.985273	-0.000080	-0.205734
C43	C	0.975987	-0.000091	0.265520
C44	C	0.977603	-0.000092	0.357816
H45	H	0.542732	-0.000089	0.252316
C46	C	0.319748	0.125130	0.274658
C47	C	0.370223	-0.000090	0.270913
H48	H	0.283581	0.125124	0.325540
H49	H	0.353989	0.210063	0.272104
H50	H	0.287434	0.125109	0.228874
H51	H	0.402542	-0.000064	0.316694
H52	H	0.335978	-0.085046	0.273474
H53	H	0.421454	-0.000104	-0.025285
C54	C	0.546336	-0.000066	-0.111369
C55	C	0.593981	-0.000078	-0.043893
H56	H	0.582506	-0.000054	-0.162250
H57	H	0.512103	-0.085009	-0.108817
H58	H	0.512095	0.084889	-0.108808
H59	H	0.628218	-0.085039	-0.046451
H60	H	0.628229	0.084874	-0.046447
H61	H	0.983470	-0.241017	-0.307814
H62	H	1.095219	-0.221888	0.000495
H63	H	1.197809	-0.360959	-0.102046
H64	H	1.197808	-0.639149	-0.102069
C65	C	0.781604	-0.623987	0.218791
C66	C	0.863381	-0.661047	0.232140
H67	H	0.743230	-0.676031	0.257138
H68	H	0.773512	-0.521710	0.226889
H69	H	0.772607	-0.649112	0.163295
H70	H	0.872380	-0.635912	0.287635
H71	H	0.871475	-0.763347	0.224050
C72	C	1.055971	0.286799	-0.254957
C73	C	0.983676	0.278664	-0.295460
H74	H	1.056471	0.376914	-0.225534
H75	H	1.056643	0.207720	-0.216729
H76	H	1.103831	0.281303	-0.295145
H77	H	0.935815	0.284149	-0.255271
H78	H	0.982996	0.357765	-0.333691
C79	C	1.078451	-0.873045	-0.077889
C80	C	1.095198	-0.821968	0.000456
H81	H	1.078453	-0.977099	-0.077896
H82	H	1.025325	-0.838346	-0.089273
H83	H	1.120230	-0.838346	-0.119628
H84	H	1.053415	-0.856658	0.042195
H85	H	1.148331	-0.856682	0.011850
C86	C	0.981491	0.395217	-0.421137
C87	C	0.980497	0.278665	-0.477507
H88	H	0.980980	0.485331	-0.450563
H89	H	0.933635	0.389698	-0.380960
H90	H	1.030543	0.389677	-0.393668
H91	H	0.931441	0.284199	-0.504972
H92	H	1.028358	0.284187	-0.517699
C93	C	0.876678	-0.376208	0.313948
C94	C	0.863386	-0.339146	0.232157
H95	H	0.838307	-0.324168	0.352300
H96	H	0.868579	-0.478486	0.322032
H97	H	0.932163	-0.351081	0.322985
H98	H	0.807902	-0.364283	0.223118
H99	H	0.871479	-0.236845	0.224069
C100	C	0.979021	-0.250813	-0.562774
C101	C	0.980508	-0.278848	-0.477499
H102	H	0.978520	-0.340931	-0.592195
H103	H	0.930318	-0.196272	-0.570632
H104	H	1.027227	-0.196244	-0.583328
H105	H	0.932299	-0.333409	-0.456943
H106	H	1.029216	-0.333414	-0.469635
