data_functionalizedCrystal
_audit_creation_method	'MofGen! by Chris Wilmer'
_symmetry_space_group_name_H-M	'P1'
_symmetry_Int_Tables_number	1
_symmetry_cell_setting	triclinic
loop_
_symmetry_equiv_pos_as_xyz
  x,y,z
_cell_length_a	6.817900
_cell_length_b	17.253917
_cell_length_c	10.773894
_cell_angle_alpha	100.014688
_cell_angle_beta	96.645922
_cell_angle_gamma	102.659311
loop_
_atom_site_label
_atom_site_type_symbol
_atom_site_fract_x
_atom_site_fract_y
_atom_site_fract_z
V1	V	-3.947573	-0.108251	-0.400460
O2	O	-3.938044	0.008241	-0.380664
O3	O	-3.898237	-0.217566	-0.409429
O4	O	-3.865271	-0.105252	-0.569773
O5	O	-3.971237	-0.104850	-0.219210
V6	V	-4.435715	-0.094474	-0.377359
O7	O	-4.198699	-0.138470	-0.451135
O8	O	-4.634786	-0.064255	-0.326684
O9	O	-4.261844	0.014841	-0.368390
O10	O	-4.562641	-0.210966	-0.397156
O11	O	-4.529447	-0.097875	-0.558609
O12	O	-4.294810	-0.097473	-0.208046
C13	C	-3.744107	-0.244256	-0.406133
C14	C	-3.784830	-0.333614	-0.414595
C15	C	-3.786704	-0.364984	-0.303205
C16	C	-3.824986	-0.448946	-0.311160
C17	C	-3.861380	-0.501537	-0.430506
C18	C	-3.859510	-0.470162	-0.541905
C19	C	-3.821242	-0.386202	-0.533949
C20	C	-3.977693	-0.753781	-0.466672
C21	C	-4.015956	-0.837746	-0.474620
C22	C	-3.981434	-0.816524	-0.243873
C23	C	-3.943155	-0.732563	-0.235928
C24	C	-3.941299	-0.701196	-0.347327
N25	N	-3.900505	-0.587360	-0.438641
N26	N	-3.902189	-0.615375	-0.339192
C27	C	-3.702055	-0.100988	-0.610666
C28	C	-3.716042	-0.099259	-0.749157
C29	C	-3.894091	-0.102255	-0.817338
C30	C	-3.908552	-0.100468	-0.960476
C31	C	-4.079317	0.041527	-0.371683
C32	C	-4.017831	0.130884	-0.363229
C33	C	-4.121369	-0.101740	-0.167147
C34	C	-4.086621	-0.103464	-0.028654
H35	H	-3.982952	-0.842073	-0.153179
H36	H	-3.766807	-0.096576	-1.008066
C37	C	-4.056005	-0.895596	-0.605916
N38	N	-4.086169	-0.939168	-0.704804
C39	C	-3.524548	-0.093975	-0.813440
N40	N	-3.380304	-0.089984	-0.861853
H41	H	-3.913535	-0.689749	-0.138743
H42	H	-3.757055	-0.322169	-0.206019
H43	H	-3.976159	-0.728252	-0.557381
H44	H	-3.889159	-0.512988	-0.639080
H45	H	-3.819739	-0.360663	-0.624656
C46	C	-3.827035	-0.483448	-0.188620
N47	N	-3.828576	-0.509434	-0.096318
C48	C	-4.085567	-0.107501	-0.753041
N49	N	-4.229793	-0.111453	-0.704615
H50	H	-4.228366	-0.107355	-0.981065
