data_functionalizedCrystal
_audit_creation_method	'MofGen! by Chris Wilmer'
_symmetry_space_group_name_H-M	'P1'
_symmetry_Int_Tables_number	1
_symmetry_cell_setting	triclinic
loop_
_symmetry_equiv_pos_as_xyz
  x,y,z
_cell_length_a	14.853567
_cell_length_b	16.109301
_cell_length_c	14.586319
_cell_angle_alpha	89.998582
_cell_angle_beta	90.000553
_cell_angle_gamma	96.451795
loop_
_atom_site_label
_atom_site_type_symbol
_atom_site_fract_x
_atom_site_fract_y
_atom_site_fract_z
O1	O	0.115881	-1.103294	0.076175
O2	O	0.615881	-0.603294	0.576175
O3	O	0.130302	-0.861253	0.076188
O4	O	0.630302	-0.361253	0.576188
O5	O	-0.008149	-0.988739	0.076184
O6	O	0.491851	-0.488739	0.576184
O7	O	0.254332	-0.975808	0.076179
O8	O	0.754332	-0.475808	0.576179
O9	O	-0.008152	-0.988728	-0.076297
O10	O	0.491848	-0.488728	0.423703
O11	O	0.130299	-0.861242	-0.076293
O12	O	0.630299	-0.361242	0.423707
O13	O	0.115878	-1.103284	-0.076306
O14	O	0.615878	-0.603284	0.423694
Cu15	Cu	0.123088	-0.982262	-0.090222
Cu16	Cu	0.623088	-0.482262	0.409778
Cu17	Cu	0.123092	-0.982274	0.090104
Cu18	Cu	0.623092	-0.482274	0.590104
O19	O	0.254329	-0.975798	-0.076302
O20	O	0.754329	-0.475798	0.423698
C21	C	-0.041738	-0.988148	-0.000054
C22	C	0.458262	-0.488148	0.499946
C23	C	-0.141819	-0.986392	-0.000046
C24	C	0.358181	-0.486392	0.499954
C25	C	0.129717	-0.830272	-0.000050
C26	C	0.629717	-0.330272	0.499950
C27	C	0.127965	-0.737974	-0.000045
C28	C	0.627965	-0.237974	0.499955
C29	C	0.116464	-1.134265	-0.000066
C30	C	0.616464	-0.634265	0.499934
C31	C	0.118215	-1.226563	-0.000065
C32	C	0.618215	-0.726563	0.499935
C33	C	-0.554215	-0.903241	-0.000059
C34	C	-0.054215	-0.403241	0.499941
C35	C	-0.575746	-1.054697	-0.000067
C36	C	-0.075746	-0.554697	0.499933
C37	C	-0.481715	-1.056348	-0.000062
C38	C	0.018285	-0.556348	0.499938
C39	C	-0.423930	-0.981444	-0.000056
C40	C	0.076070	-0.481444	0.499944
C41	C	-0.460175	-0.904889	-0.000056
C42	C	0.039825	-0.404889	0.499944
C43	C	-0.445463	-1.132901	-0.000071
C44	C	0.054537	-0.632901	0.499929
C45	C	-0.351426	-1.134555	-0.000067
C46	C	0.148574	-0.634555	0.499933
C47	C	-0.293639	-1.059650	-0.000055
C48	C	0.206361	-0.559650	0.499945
C49	C	-0.329890	-0.983093	-0.000054
C50	C	0.170110	-0.483093	0.499946
C51	C	-0.272104	-0.908189	-0.000048
C52	C	0.227896	-0.408189	0.499952
C53	C	-0.308353	-0.831630	-0.000040
C54	C	0.191647	-0.331630	0.499960
C55	C	-0.402388	-0.829984	-0.000044
C56	C	0.097612	-0.329984	0.499956
C57	C	-0.199604	-1.061296	-0.000051
C58	C	0.300396	-0.561296	0.499949
C59	C	-0.178064	-0.909837	-0.000046
C60	C	0.321936	-0.409837	0.499954
C61	C	0.287918	-0.976389	-0.000062
C62	C	0.787918	-0.476389	0.499938
C63	C	0.387999	-0.978145	-0.000064
C64	C	0.887999	-0.478145	0.499936
N65	N	0.123085	-0.982260	-0.217054
N66	N	0.623085	-0.482260	0.282946
C67	C	0.206047	-0.515811	-0.000057
C68	C	0.706047	-0.015811	0.499943
C69	C	0.204395	-0.429089	-0.000063
C70	C	0.704395	0.070911	0.499937
C71	C	0.040127	-0.448732	-0.000056
C72	C	0.540127	0.051268	0.499944
C73	C	0.041781	-0.535453	-0.000057
C74	C	0.541781	-0.035453	0.499943
C75	C	0.124743	-0.568990	-0.000052
C76	C	0.624743	-0.068990	0.499948
C77	C	0.121437	-0.395546	-0.000058
C78	C	0.621437	0.104454	0.499942
C79	C	0.119645	-0.301518	-0.000064
C80	C	0.619645	0.198482	0.499936
C81	C	0.126536	-0.663025	-0.000048
C82	C	0.626536	-0.163025	0.499952
C83	C	0.061799	-1.038733	-0.548050
C84	C	0.561799	-0.538733	-0.048050
C85	C	0.061799	-1.038731	-0.452068
C86	C	0.561799	-0.538731	0.047932
C87	C	0.184381	-0.925808	-0.452075
C88	C	0.684381	-0.425808	0.047925
C89	C	0.184384	-0.925814	-0.548055
C90	C	0.684384	-0.425814	-0.048055
C91	C	0.123088	-0.982276	-0.596039
C92	C	0.623088	-0.482276	-0.096039
C93	C	0.123085	-0.982267	-0.404079
C94	C	0.623085	-0.482267	0.095921
C95	C	0.123086	-0.982265	-0.300012
C96	C	0.623086	-0.482265	0.199988
C97	C	0.123088	-0.982280	-0.700113
C98	C	0.623088	-0.482280	-0.200113
N99	N	0.123088	-0.982283	0.216936
N100	N	0.623088	-0.482283	0.716936
H101	H	-0.131020	-0.848840	-0.000037
H102	H	0.368980	-0.348840	0.499963
O103	O	-0.312341	-1.217129	-0.000061
O104	O	0.187659	-0.717129	0.499939
H105	H	-0.270015	-1.221511	-0.062209
H106	H	0.229985	-0.721511	0.437791
O107	O	-0.004311	-1.099617	-0.400304
O108	O	0.495689	-0.599617	0.099696
H109	H	-0.046935	-1.138871	-0.449799
H110	H	0.453065	-0.638871	0.050201
O111	O	-0.160502	-1.143858	-0.000054
O112	O	0.339498	-0.643858	0.499946
H113	H	-0.216482	-1.195666	-0.000055
H114	H	0.283518	-0.695666	0.499945
O115	O	0.250467	-0.864888	-0.400322
O116	O	0.750467	-0.364888	0.099678
H117	H	0.240156	-0.874355	-0.325518
H118	H	0.740156	-0.374355	0.174482
H119	H	0.273601	-0.543114	-0.000060
H120	H	0.773601	-0.043114	0.499940
O121	O	-0.246023	-0.750842	-0.000046
O122	O	0.253977	-0.250842	0.499954
H123	H	-0.258902	-0.714210	0.062101
H124	H	0.241098	-0.214210	0.562101
O125	O	0.292088	-0.371731	-0.000073
O126	O	0.792088	0.128269	0.499927
H127	H	0.295266	-0.331743	0.062068
H128	H	0.795266	0.168257	0.562068
H129	H	-0.492518	-1.193884	-0.000084
H130	H	0.007482	-0.693884	0.499916
O131	O	-0.004304	-1.099640	-0.599799
O132	O	0.495696	-0.599640	-0.099799
H133	H	-0.048140	-1.064602	-0.643528
H134	H	0.451860	-0.564602	-0.143528
H135	H	-0.027418	-0.421415	-0.000065
H136	H	0.472582	0.078585	0.499935
H137	H	0.234297	-0.879840	-0.587131
H138	H	0.734297	-0.379840	-0.087131
H139	H	-0.431911	-0.767654	-0.000039
H140	H	0.068089	-0.267654	0.499961
O141	O	-0.045915	-0.592821	-0.000054
O142	O	0.454085	-0.092821	0.499946
H143	H	-0.103882	-0.554933	-0.000044
H144	H	0.396118	-0.054933	0.499956
H145	H	-0.583733	-0.840908	-0.000049
H146	H	-0.083733	-0.340908	0.499951
H147	H	-0.622800	-1.115680	-0.000079
H148	H	-0.122800	-0.615680	0.499921
