data_functionalizedCrystal
_audit_creation_method	'MofGen! by Chris Wilmer'
_symmetry_space_group_name_H-M	'P1'
_symmetry_Int_Tables_number	1
_symmetry_cell_setting	triclinic
loop_
_symmetry_equiv_pos_as_xyz
  x,y,z
_cell_length_a	12.759401
_cell_length_b	25.639239
_cell_length_c	25.639234
_cell_angle_alpha	90.024584
_cell_angle_beta	90.015038
_cell_angle_gamma	90.038847
loop_
_atom_site_label
_atom_site_type_symbol
_atom_site_fract_x
_atom_site_fract_y
_atom_site_fract_z
Zn1	Zn	1.606044	-0.208182	0.295575
Zn2	Zn	1.605876	-0.295610	0.208140
Zn3	Zn	1.430357	-0.208190	0.208158
Zn4	Zn	1.430261	-0.295589	0.295548
O5	O	1.518135	-0.251893	0.251855
O6	O	1.753043	-0.219785	0.283981
O7	O	1.582562	-0.284026	0.134977
O8	O	1.453773	-0.135024	0.219773
O9	O	1.752919	-0.284018	0.219742
O10	O	1.582850	-0.135018	0.283998
O11	O	1.453609	-0.219799	0.134990
O12	O	1.283323	-0.219779	0.219746
O13	O	1.453610	-0.283982	0.368717
O14	O	1.283253	-0.283990	0.283951
O15	O	1.582757	-0.219764	0.368737
O16	O	1.582470	-0.368772	0.219716
O17	O	1.453447	-0.368757	0.283934
C18	C	1.245167	-0.251883	0.251848
C19	C	1.128391	-0.251892	0.251858
C20	C	1.517958	-0.387735	0.251831
C21	C	1.517978	-0.445849	0.251839
C22	C	1.073520	-0.285380	0.285234
C23	C	0.963795	-0.285386	0.285240
C24	C	0.963823	-0.218415	0.218488
C25	C	1.073545	-0.218406	0.218485
C26	C	1.128365	-0.318865	0.318606
C27	C	1.073494	-0.352356	0.351985
C28	C	0.963770	-0.352363	0.351990
C29	C	0.908917	-0.318878	0.318617
C30	C	1.585492	-0.806208	0.218474
C31	C	1.585533	-0.860812	0.218481
O32	O	1.642752	-0.889045	0.190086
N33	N	1.518319	-0.888132	0.251890
C34	C	1.451068	-0.860844	0.285298
O35	O	1.393902	-0.889095	0.313716
C36	C	1.451033	-0.806241	0.285293
C37	C	1.518244	-0.778924	0.251878
C38	C	1.652698	-0.778891	0.185062
C39	C	1.652656	-0.724291	0.185054
C40	C	1.585407	-0.697007	0.218459
C41	C	1.518202	-0.724324	0.251871
C42	C	1.383788	-0.778954	0.318704
C43	C	1.383760	-0.724347	0.318696
C44	C	1.450970	-0.697030	0.285281
C45	C	1.450911	-0.642439	0.285268
N46	N	1.518125	-0.615120	0.251858
C47	C	1.585373	-0.642403	0.218454
C48	C	1.451147	-0.975515	0.285306
C49	C	1.451176	-1.030117	0.285309
C50	C	1.585642	-1.030081	0.218492
C51	C	1.585608	-0.975478	0.218487
C52	C	1.518361	-0.948195	0.251897
C53	C	1.585278	-0.527738	0.218440
C54	C	1.585227	-0.473133	0.218434
C55	C	1.450765	-0.473174	0.285253
C56	C	1.450812	-0.527774	0.285257
C57	C	1.518077	-0.555055	0.251849
O58	O	1.393724	-0.614172	0.313649
O59	O	1.642539	-0.614145	0.190045
C60	C	1.792168	-0.251903	0.251863
C61	C	1.908944	-0.251907	0.251866
C62	C	1.518192	-0.251870	0.388228
C63	C	1.518216	-0.251860	0.446342
C64	C	1.518341	-0.115520	0.251891
C65	C	1.518428	-0.057406	0.251906
C66	C	1.518138	-0.251878	0.116013
C67	C	1.518318	-0.251740	0.057899
C68	C	1.585389	-0.285260	0.697521
C69	C	1.585378	-0.285271	0.642917
O70	O	1.642443	-0.313726	0.614668
N71	N	1.518239	-0.251834	0.615616
C72	C	1.451098	-0.218389	0.642923
O73	O	1.393989	-0.189950	0.614687
C74	C	1.451105	-0.218381	0.697526
C75	C	1.518256	-0.251816	0.724824
C76	C	1.652534	-0.318692	0.724820
C77	C	1.652547	-0.318680	0.779420
C78	C	1.585414	-0.285236	0.806723
C79	C	1.518268	-0.251804	0.779425
C80	C	1.383960	-0.184939	0.724831
C81	C	1.383972	-0.184934	0.779438
C82	C	1.451123	-0.218368	0.806736
C83	C	1.451148	-0.218348	0.861328
N84	N	1.518287	-0.251784	0.888628
C85	C	1.585420	-0.285228	0.861326
C86	C	1.451088	-0.218409	0.528252
C87	C	1.451086	-0.218414	0.473650
C88	C	1.585365	-0.285296	0.473648
C89	C	1.585372	-0.285288	0.528251
C90	C	1.518228	-0.251845	0.555553
C91	C	1.585441	-0.285201	0.975991
C92	C	1.585451	-0.285184	1.030596
C93	C	1.451168	-0.218304	1.030593
C94	C	1.451163	-0.218318	0.975993
C95	C	1.518303	-0.251771	0.948693
O96	O	1.394109	-0.189909	0.889611
O97	O	1.642510	-0.313667	0.889568
H98	H	1.217708	-0.318864	0.318604
H99	H	1.118162	-0.379615	0.379159
O100	O	1.718200	-0.805396	0.152700
C101	C	1.860173	-0.866937	0.145770
C102	C	1.786037	-0.836960	0.182475
H103	H	1.915023	-0.892472	0.169827
H104	H	1.908267	-0.838028	0.121925
H105	H	1.812053	-0.892530	0.118377
H106	H	1.834075	-0.811367	0.209899
H107	H	1.737939	-0.865897	0.206283
H108	H	1.329294	-0.157700	0.801665
H109	H	1.396087	-0.550017	0.312468
H110	H	0.819572	-0.318882	0.318629
O111	O	1.650998	-0.949026	0.186013
C112	C	1.784321	-0.954768	0.119715
C113	C	1.710333	-0.984787	0.156475
H114	H	1.832297	-0.983668	0.095816
H115	H	1.839288	-0.929180	0.143713
H116	H	1.736088	-0.929228	0.092375
H117	H	1.758481	-1.010356	0.183822
H118	H	1.655363	-1.010342	0.132445
O119	O	0.910380	-0.185945	0.186083
C120	C	0.741357	-0.156266	0.156519
C121	C	0.801748	-0.193070	0.193239
H122	H	0.653518	-0.162006	0.162300
H123	H	0.762820	-0.165391	0.114332
H124	H	0.763036	-0.114122	0.165767
H125	H	0.780102	-0.235227	0.184038
H126	H	0.780280	-0.183900	0.235415
O127	O	1.385811	-0.186004	0.447078
C128	C	1.243906	-0.178974	0.385452
C129	C	1.317790	-0.215734	0.415500
H130	H	1.188878	-0.202997	0.359922
H131	H	1.292114	-0.151649	0.359863
H132	H	1.195980	-0.155059	0.414361
H133	H	1.365731	-0.239683	0.386628
H134	H	1.269521	-0.243026	0.441097
H135	H	1.707204	-0.345928	0.702596
H136	H	1.640052	-0.312514	0.550474
H137	H	1.640403	-1.052306	0.191294
O138	O	0.910629	-0.384942	0.384431
C139	C	0.922188	-0.451346	0.450659
C140	C	0.982497	-0.414483	0.413940
H141	H	0.980267	-0.475232	0.474535
H142	H	0.870800	-0.478689	0.426631
H143	H	0.870836	-0.427376	0.478023
H144	H	1.033906	-0.438411	0.386569
H145	H	1.033818	-0.387139	0.438000
H146	H	1.118222	-0.191133	0.191311
O147	O	1.385846	-1.056568	0.317813
C148	C	1.252427	-1.050826	0.384063
C149	C	1.326373	-1.020808	0.347283
H150	H	1.204308	-1.021926	0.407891
H151	H	1.300593	-1.076334	0.411464
H152	H	1.197581	-1.076446	0.360032
H153	H	1.381234	-0.995159	0.371272
H154	H	1.278142	-0.995332	0.319881
O155	O	1.650475	-0.317772	0.447040
C156	C	1.709991	-0.347402	0.362913
C157	C	1.636191	-0.310609	0.392982
H158	H	1.698485	-0.341616	0.319202
H159	H	1.691473	-0.389570	0.373595
H160	H	1.794716	-0.338232	0.373685
H161	H	1.551442	-0.319732	0.382226
H162	H	1.654800	-0.268452	0.382297
H163	H	1.329053	-0.801186	0.345911
O164	O	1.385958	-0.948990	0.317813
C165	C	1.371672	-0.887295	0.388375
C166	C	1.445614	-0.917306	0.351602
H167	H	1.419873	-0.861663	0.415695
H168	H	1.323661	-0.916181	0.412289
H169	H	1.316725	-0.861795	0.364334
H170	H	1.500624	-0.942807	0.375603
H171	H	1.493552	-0.888392	0.327686
H172	H	1.329276	-0.157713	0.702615
H173	H	1.639957	-0.450893	0.191222
O174	O	1.650648	-0.554153	0.185937
C175	C	1.784047	-0.548341	0.119680
C176	C	1.710060	-0.518361	0.156457
H177	H	1.832116	-0.519416	0.095844
H178	H	1.735916	-0.573929	0.092287
H179	H	1.838936	-0.573877	0.143715
H180	H	1.655156	-0.492796	0.132465
H181	H	1.758256	-0.492806	0.183852
H182	H	1.396008	-0.450951	0.312449
H183	H	1.640138	-0.312411	1.052820
O184	O	1.318380	-0.697789	0.351079
C185	C	1.176428	-0.636241	0.358052
C186	C	1.250421	-0.666274	0.321322
H187	H	1.121449	-0.610762	0.334008
H188	H	1.224553	-0.610602	0.385401
H189	H	1.128454	-0.665160	0.381944
H190	H	1.298411	-0.637393	0.297396
H191	H	1.202236	-0.691921	0.294008
H192	H	1.640120	-0.312438	0.953770
H193	H	1.707387	-0.702052	0.157846
H194	H	1.707225	-0.345908	0.801641
O195	O	1.385921	-0.185771	1.057040
C196	C	1.252668	-0.119466	1.051294
C197	C	1.326532	-0.156270	1.021278
H198	H	1.204616	-0.095613	1.022394
H199	H	1.300894	-0.092089	1.076857
H200	H	1.197756	-0.143479	1.076860
H201	H	1.381458	-0.132299	0.995683
H202	H	1.278240	-0.183648	0.995748
H203	H	1.396415	-0.191170	0.550478
O204	O	1.385889	-0.185911	0.949413
C205	C	1.243991	-0.178893	0.887782
C206	C	1.317872	-0.215648	0.917838
H207	H	1.188966	-0.202921	0.862255
H208	H	1.292201	-0.151572	0.862189
H209	H	1.196061	-0.154973	0.916686
H210	H	1.365817	-0.239601	0.888972
H211	H	1.269602	-0.242935	0.943439
