data_functionalizedCrystal
_audit_creation_method	'MofGen! by Chris Wilmer'
_symmetry_space_group_name_H-M	'P1'
_symmetry_Int_Tables_number	1
_symmetry_cell_setting	triclinic
loop_
_symmetry_equiv_pos_as_xyz
  x,y,z
_cell_length_a	16.992694
_cell_length_b	18.266242
_cell_length_c	16.992695
_cell_angle_alpha	90.006314
_cell_angle_beta	90.668223
_cell_angle_gamma	90.003271
loop_
_atom_site_label
_atom_site_type_symbol
_atom_site_fract_x
_atom_site_fract_y
_atom_site_fract_z
O1	O	1.050856	0.060790	0.166918
O2	O	0.822456	0.060811	0.165087
O3	O	0.935740	0.060795	0.051803
O4	O	0.937571	0.060806	0.280203
O5	O	0.935719	-0.060967	0.051795
O6	O	0.822435	-0.060951	0.165079
O7	O	1.050835	-0.060972	0.166911
Zn8	Zn	0.936631	-0.080294	0.165994
Zn9	Zn	0.936659	0.080133	0.166004
O10	O	0.937550	-0.060956	0.280195
C11	C	0.793085	-0.000067	0.162727
C12	C	0.705600	-0.000059	0.155699
N13	N	0.936618	-0.189781	0.165987
C14	C	0.659610	-0.000056	0.223517
C15	C	0.577409	-0.000066	0.216908
C16	C	0.541201	-0.000074	0.142480
C17	C	0.587198	-0.000079	0.074657
C18	C	0.669397	-0.000074	0.081267
C19	C	0.295886	-0.000095	0.115086
C20	C	0.213681	-0.000098	0.108481
C21	C	0.203898	-0.000087	0.250732
C22	C	0.286099	-0.000077	0.257335
C23	C	0.332089	-0.000086	0.189512
N24	N	0.457178	-0.000083	0.135723
N25	N	0.416110	-0.000083	0.196270
C26	C	0.986800	-0.228097	0.115852
C27	C	0.986805	-0.304742	0.115849
C28	C	0.936636	-0.343067	0.165994
C29	C	0.886445	-0.304742	0.216133
C30	C	0.886436	-0.228099	0.216129
N31	N	0.930981	-0.463396	0.235021
N32	N	0.930994	-0.536204	0.235022
C33	C	0.936659	-0.573990	0.166007
N34	N	0.942326	-0.536217	0.096990
N35	N	0.942317	-0.463403	0.096989
C36	C	0.936640	-0.426174	0.166003
C37	C	0.986849	-0.695413	0.115864
C38	C	0.986848	-0.772060	0.115860
C39	C	0.886492	-0.772058	0.216151
C40	C	0.886489	-0.695414	0.216148
C41	C	0.936671	-0.657096	0.166006
C42	C	1.080205	-0.000092	0.169270
C43	C	1.167690	-0.000096	0.176299
C44	C	0.933374	-0.000086	0.022439
C45	C	0.926345	-0.000085	-0.065046
N46	N	0.936678	0.189620	0.166005
C47	C	0.994163	-0.000092	-0.111037
C48	C	0.987554	-0.000084	-0.193238
C49	C	0.913127	-0.000075	-0.229446
C50	C	0.845303	-0.000066	-0.183449
C51	C	0.851913	-0.000068	-0.101250
C52	C	0.885732	-0.000062	-0.474760
C53	C	0.879127	-0.000062	-0.556966
C54	C	1.021379	-0.000080	-0.566749
C55	C	1.027982	-0.000086	-0.484547
C56	C	0.960159	-0.000073	-0.438558
N57	N	0.906369	-0.000070	-0.313468
N58	N	0.966917	-0.000073	-0.354537
C59	C	0.939917	-0.000073	0.309559
C60	C	0.946945	-0.000069	0.397044
H61	H	0.689084	-0.000049	0.284124
C62	C	0.831307	-0.814212	0.271313
N63	N	0.789739	-0.845967	0.312861
H64	H	0.818516	-0.000066	-0.586443
H65	H	1.027708	-0.664213	0.075033
C66	C	1.109858	-0.000098	-0.444725
N67	N	1.171528	-0.000109	-0.414730
C68	C	1.076040	-0.000103	-0.071216
N69	N	1.137712	-0.000107	-0.041225
C70	C	0.831345	-0.653264	0.271362
N71	N	0.789826	-0.621518	0.312970
C72	C	1.042019	-0.346898	0.060702
N73	N	1.083610	-0.378648	0.019169
C74	C	0.831266	-0.185950	0.271320
N75	N	0.789725	-0.154202	0.312905
H76	H	0.184203	-0.000104	0.047870
H77	H	0.333322	-0.000103	0.059859
C78	C	1.042040	-0.814207	0.060690
N79	N	1.083609	-0.845953	0.019131
H80	H	1.076596	-0.000089	-0.604202
C81	C	0.547365	-0.000090	-0.007215
N82	N	0.517365	-0.000094	-0.068882
C83	C	0.811124	-0.000044	-0.424182
N84	N	0.754925	-0.000028	-0.386083
C85	C	1.062160	-0.000104	-0.243824
N86	N	1.118357	-0.000123	-0.281926
C87	C	0.763432	-0.000061	-0.223281
N88	N	0.701765	-0.000064	-0.253282
H89	H	0.796688	-0.000062	-0.063804
H90	H	0.315574	-0.000062	0.317942
C91	C	0.526822	-0.000076	0.291514
N92	N	0.488721	-0.000089	0.347710
C93	C	1.041994	-0.185951	0.060686
N94	N	1.083564	-0.154206	0.019132
C95	C	0.831256	-0.346902	0.271290
N96	N	0.789683	-0.378657	0.312832
H97	H	0.166444	-0.000081	0.305950
H98	H	0.706842	-0.000076	0.026042
