data_functionalizedCrystal
_audit_creation_method	'MofGen! by Chris Wilmer'
_symmetry_space_group_name_H-M	'P1'
_symmetry_Int_Tables_number	1
_symmetry_cell_setting	triclinic
loop_
_symmetry_equiv_pos_as_xyz
  x,y,z
_cell_length_a	14.971486
_cell_length_b	9.065218
_cell_length_c	14.048226
_cell_angle_alpha	89.995444
_cell_angle_beta	89.998499
_cell_angle_gamma	84.315007
loop_
_atom_site_label
_atom_site_type_symbol
_atom_site_fract_x
_atom_site_fract_y
_atom_site_fract_z
O1	O	1.188380	0.192261	-0.079047
O2	O	0.928151	0.215285	-0.079073
O3	O	1.063645	-0.010979	-0.079057
O4	O	1.052887	0.418524	-0.079062
O5	O	1.063628	-0.010992	0.079264
O6	O	0.928135	0.215271	0.079249
O7	O	1.188363	0.192248	0.079274
Zn8	Zn	1.058246	0.203758	0.104398
Zn9	Zn	1.058268	0.203775	-0.104197
O10	O	1.052870	0.418511	0.079259
C11	C	0.894811	0.214248	0.000085
C12	C	0.795491	0.211163	0.000075
C13	C	0.739256	0.344086	0.000075
C14	C	0.645935	0.341178	0.000089
C15	C	0.608850	0.205345	0.000097
C16	C	0.665092	0.072412	0.000100
C17	C	0.758411	0.075321	0.000092
C18	C	0.470584	0.066357	0.000113
C19	C	0.377259	0.063446	0.000118
C20	C	0.358108	0.332214	0.000110
C21	C	0.451427	0.335123	0.000102
C22	C	0.507663	0.202189	0.000103
C23	C	1.062602	-0.065951	0.000102
C24	C	1.059511	-0.229731	0.000097
C25	C	1.221704	0.193284	0.000115
C26	C	1.321024	0.196370	0.000118
C27	C	1.053912	0.473483	0.000098
C28	C	1.057004	0.637264	0.000097
N29	N	1.058238	0.203745	0.246759
N30	N	1.058284	0.203776	-0.246557
C31	C	1.118254	0.103597	0.296584
C32	C	1.118260	0.103596	0.396242
C33	C	1.058254	0.203751	0.446073
C34	C	0.998231	0.303904	0.396241
C35	C	0.998222	0.303896	0.296585
C36	C	0.998257	0.303915	0.603955
C37	C	0.998268	0.303924	0.703618
C38	C	1.118295	0.103614	0.703612
C39	C	1.118286	0.103607	0.603956
C40	C	1.058264	0.203762	0.554131
H41	H	0.516370	-0.041893	0.000115
C42	C	0.780045	0.493501	0.000064
H43	H	0.843677	0.476201	0.000050
H44	H	0.760819	0.548238	0.055273
H45	H	0.760812	0.548238	-0.055154
C46	C	0.624306	-0.077006	0.000107
H47	H	0.671165	-0.155754	0.000114
H48	H	0.588298	-0.083724	-0.055101
H49	H	0.588303	-0.083731	0.055326
C50	C	0.584080	0.487394	0.000086
H51	H	0.619532	0.568707	0.000068
H52	H	0.547282	0.491850	0.055299
H53	H	0.547275	0.491845	-0.055128
C54	C	0.296253	0.478439	0.000111
H55	H	0.235364	0.457257	0.000127
H56	H	0.307608	0.534128	-0.055104
H57	H	0.307616	0.534130	0.055323
C58	C	0.336466	-0.085966	0.000132
H59	H	0.383322	-0.164720	0.000145
H60	H	0.300459	-0.092688	-0.055075
H61	H	0.300462	-0.092676	0.055352
C62	C	1.184290	-0.006562	0.549143
H63	H	1.220032	-0.066220	0.593088
H64	H	1.221944	0.046608	0.510254
H65	H	1.151606	-0.068069	0.510280
C66	C	0.820269	-0.070894	0.000083
H67	H	0.784820	-0.152209	0.000078
H68	H	0.857077	-0.075356	0.055288
H69	H	0.857066	-0.075335	-0.055139
H70	H	0.481618	0.445730	0.000087
C71	C	0.932261	0.414082	0.758435
H72	H	0.940872	0.399750	0.824922
H73	H	0.872436	0.397888	0.742118
H74	H	0.942765	0.512580	0.742094
C75	C	1.184266	-0.006562	0.241774
H76	H	1.175675	0.007785	0.175286
H77	H	1.173767	-0.105055	0.258113
H78	H	1.244091	0.009645	0.258101
C79	C	0.932239	0.414089	0.549149
H80	H	0.896510	0.473752	0.593098
H81	H	0.894573	0.360921	0.510280
H82	H	0.964916	0.475591	0.510268
H83	H	1.167166	0.022064	0.744185
H84	H	1.167128	0.022047	0.436808
C85	C	0.932208	0.414065	0.241778
H86	H	0.896478	0.473725	0.285726
H87	H	0.894544	0.360890	0.202911
H88	H	0.964881	0.475569	0.202893
H89	H	0.949369	0.385447	0.436819
