data_functionalizedCrystal
_audit_creation_method	'MofGen! by Chris Wilmer'
_symmetry_space_group_name_H-M	'P1'
_symmetry_Int_Tables_number	1
_symmetry_cell_setting	triclinic
loop_
_symmetry_equiv_pos_as_xyz
  x,y,z
_cell_length_a	15.625950
_cell_length_b	17.038274
_cell_length_c	14.750779
_cell_angle_alpha	103.580829
_cell_angle_beta	120.090508
_cell_angle_gamma	92.489643
loop_
_atom_site_label
_atom_site_type_symbol
_atom_site_fract_x
_atom_site_fract_y
_atom_site_fract_z
O1	O	1.288218	-0.023954	0.368442
O2	O	1.004076	-0.057088	0.269559
O3	O	1.144465	0.073178	0.318441
O4	O	1.147830	-0.154220	0.319559
O5	O	1.184151	0.109999	0.491910
O6	O	1.043763	-0.020267	0.443028
O7	O	1.327905	0.012867	0.541911
Zn8	Zn	1.192135	0.002146	0.520011
Zn9	Zn	1.139846	-0.046367	0.291458
O10	O	1.187516	-0.117399	0.493028
C11	C	0.987384	-0.040823	0.343579
C12	C	0.878518	-0.047207	0.305694
C13	C	0.628519	0.032083	0.653759
C14	C	0.526211	0.026058	0.618112
C15	C	0.482997	-0.014079	0.429021
C16	C	0.585303	-0.008062	0.464652
C17	C	0.658057	0.015020	0.577022
C18	C	0.614841	-0.025125	0.387915
C19	C	0.717139	-0.019104	0.423544
C20	C	0.789898	0.003980	0.535910
C21	C	0.760355	0.021041	0.612651
C22	C	0.542086	-0.048201	0.275546
C23	C	0.571624	-0.065264	0.198809
C24	C	0.673923	-0.059249	0.234437
C25	C	0.746683	-0.036165	0.346802
C26	C	0.703467	-0.076310	0.157695
C27	C	0.805764	-0.070289	0.193324
C28	C	0.848980	-0.030144	0.382431
C29	C	1.161237	0.120495	0.404112
C30	C	1.152076	0.206625	0.400938
C31	C	1.236223	0.262851	0.430230
C32	C	1.227607	0.343777	0.427236
C33	C	1.134844	0.368477	0.394957
C34	C	1.050690	0.312244	0.365659
C35	C	1.059305	0.231319	0.368646
C36	C	1.104404	0.612031	0.384391
C37	C	1.095795	0.692964	0.381410
C38	C	1.272712	0.724491	0.442985
C39	C	1.281321	0.643563	0.445976
C40	C	1.197166	0.587336	0.416672
C41	C	1.126035	0.451197	0.391899
C42	C	1.205974	0.504617	0.419723
C43	C	1.344597	-0.003399	0.467888
C44	C	1.453461	0.002984	0.505766
C45	C	1.170753	0.835293	0.407400
C46	C	1.179942	0.749190	0.410702
N47	N	1.227827	0.035256	0.675995
N48	N	1.104161	-0.079470	0.135477
C49	C	1.004473	-0.171907	0.950042
C50	C	1.029492	-0.148710	1.059253
C51	C	1.153837	-0.033397	1.102511
C52	C	1.128825	-0.056582	0.993301
C53	C	1.054143	-0.125838	0.917075
C54	C	1.178495	-0.010512	0.960334
C55	C	1.153489	-0.033698	0.851134
C56	C	1.078812	-0.102953	0.774902
C57	C	1.029137	-0.149023	0.807875
C58	C	1.253181	0.058740	1.036564
C59	C	1.302851	0.104809	1.003597
C60	C	1.277840	0.081627	0.894394
C61	C	1.203164	0.012372	0.818162
C62	C	1.327515	0.127698	0.861421
C63	C	1.302509	0.104512	0.752221
C64	C	1.178157	-0.010813	0.708962
H65	H	0.687760	0.050867	0.745262
H66	H	0.423748	-0.032869	0.337529
H67	H	1.050508	0.471318	0.365619
O68	O	0.923899	-0.246587	0.867795
H69	H	0.956881	-0.291943	0.833452
O70	O	1.280151	0.083744	1.154344
H71	H	1.360948	0.082704	1.208938
O72	O	1.318374	0.404415	0.458840
H73	H	1.302520	0.427021	0.388248
O74	O	0.950637	0.338881	0.330853
H75	H	0.958784	0.404604	0.333712
O76	O	1.336272	0.236208	0.465036
H77	H	1.393333	0.288901	0.484888
O78	O	1.356046	0.154225	0.716648
H79	H	1.326104	0.126470	0.627906
H80	H	0.873195	0.008882	0.564917
O81	O	0.975907	-0.198405	1.094801
H82	H	1.031692	-0.222639	1.159977
O83	O	0.838838	0.045934	0.733851
H84	H	0.801116	0.056790	0.781232
O85	O	0.431740	-0.054689	0.237071
H86	H	0.409771	-0.101191	0.266951
H87	H	0.990783	0.185539	0.344793
O88	O	1.013643	0.551391	0.352793
H89	H	1.029516	0.528772	0.423381
H90	H	0.502167	0.039936	0.680609
O91	O	1.306025	0.477983	0.454534
H92	H	1.330354	0.456882	0.528073
H93	H	0.512375	-0.084054	0.107317
O94	O	0.624995	-0.101203	0.036500
H95	H	0.548899	-0.102525	0.024617
O96	O	1.051835	-0.127957	0.657120
H97	H	1.065774	-0.190992	0.635455
H98	H	0.829813	-0.084187	0.130837
O99	O	1.381366	0.616915	0.480766
H100	H	1.438430	0.669606	0.500617
O101	O	1.097598	-0.085502	0.626716
H102	H	1.119936	-0.140746	0.653744
H103	H	0.968316	-0.205414	0.745804
O104	O	1.363477	0.785131	0.474583
H105	H	1.341905	0.845553	0.467078
O106	O	0.995737	0.719608	0.346581
H107	H	0.938662	0.666912	0.326694
O108	O	1.234381	0.041301	1.184726
H109	H	1.243422	0.049688	1.266198
O110	O	1.383396	0.179507	1.085811
H111	H	1.392437	0.187894	1.167283
O112	O	1.408071	0.202388	0.943640
H113	H	1.375078	0.247747	0.977962
O114	O	0.927464	-0.005257	0.503631
H115	H	0.922486	0.056784	0.543642
