data_functionalizedCrystal
_audit_creation_method	'MofGen! by Chris Wilmer'
_symmetry_space_group_name_H-M	'P1'
_symmetry_Int_Tables_number	1
_symmetry_cell_setting	triclinic
loop_
_symmetry_equiv_pos_as_xyz
  x,y,z
_cell_length_a	12.645331
_cell_length_b	12.645330
_cell_length_c	12.645323
_cell_angle_alpha	90.024870
_cell_angle_beta	90.026382
_cell_angle_gamma	90.011946
loop_
_atom_site_label
_atom_site_type_symbol
_atom_site_fract_x
_atom_site_fract_y
_atom_site_fract_z
Zn1	Zn	-1.620731	0.422193	-0.599551
Zn2	Zn	-1.620613	0.599481	-0.422291
Zn3	Zn	-1.443446	0.422215	-0.422284
Zn4	Zn	-1.443428	0.599398	-0.599495
O5	O	-1.532054	0.510822	-0.510905
O6	O	-1.769063	0.445737	-0.576064
O7	O	-1.597069	0.576011	-0.273943
O8	O	-1.467020	0.273865	-0.445819
O9	O	-1.768976	0.575990	-0.445831
O10	O	-1.597271	0.273849	-0.576057
O11	O	-1.466906	0.445773	-0.273938
O12	O	-1.295096	0.445692	-0.445765
O13	O	-1.466989	0.575847	-0.747850
O14	O	-1.295083	0.575868	-0.575961
O15	O	-1.597253	0.445656	-0.747891
O16	O	-1.597052	0.747818	-0.445777
O17	O	-1.466874	0.747756	-0.575968
C18	C	-1.256625	0.510774	-0.510857
C19	C	-1.138795	0.510779	-0.510861
C20	C	-0.971204	0.428495	-0.429396
C21	C	-1.093763	0.428718	-0.429045
C22	C	-1.094274	0.622449	-0.480344
C23	C	-0.971676	0.621990	-0.479780
C24	C	-0.971645	0.482424	-0.623134
C25	C	-1.094251	0.479939	-0.622519
C26	C	-1.531977	0.786252	-0.510890
C27	C	-1.532041	0.904082	-0.510920
C28	C	-0.808560	0.510850	-0.510938
C29	C	-0.926390	0.510809	-0.510911
C30	C	-1.532133	0.510740	-0.787411
C31	C	-1.532166	0.510705	-0.905241
C32	C	-1.532161	0.234316	-0.510943
C33	C	-1.532206	0.116486	-0.510960
C34	C	-1.450484	1.071651	-0.593075
C35	C	-1.450067	0.949091	-0.592811
C36	C	-1.501796	0.948673	-0.399196
C37	C	-1.501298	1.071271	-0.399694
C38	C	-1.644342	1.071182	-0.539582
C39	C	-1.643654	0.948575	-0.542025
C40	C	-1.449964	0.592222	-1.072779
C41	C	-1.450179	0.592626	-0.950219
C42	C	-1.643865	0.541035	-0.949768
C43	C	-1.643414	0.541546	-1.072366
C44	C	-1.503724	0.398402	-1.072437
C45	C	-1.501232	0.399075	-0.949830
C46	C	-1.532038	0.510827	-0.235476
C47	C	-1.532210	0.510563	-0.117646
H48	H	-0.941740	0.345433	-0.448315
H49	H	-1.367871	1.102543	-0.574355
Br50	Br	-0.923348	0.582350	-0.724366
Br51	Br	-1.597856	0.900090	-0.294427
H52	H	-1.367350	0.573645	-0.920112
Br53	Br	-1.683657	0.678204	-1.120062
H54	H	-1.366935	0.919848	-0.573848
H55	H	-1.558238	1.100934	-0.336425
Br56	Br	-1.748948	0.446652	-1.121846
Br57	Br	-1.745827	1.119528	-0.439916
Br58	Br	-1.370328	0.352326	-1.123933
H59	H	-1.469234	1.101065	-0.676189
H60	H	-1.563628	0.337563	-1.101454
H61	H	-0.943030	0.646062	-0.397739
Br62	Br	-1.364674	1.119084	-0.359282
H63	H	-1.366889	0.573424	-1.102247
H64	H	-0.940749	0.402410	-0.650884
Br65	Br	-1.748746	0.445041	-0.901223
Br66	Br	-1.364216	0.360955	-0.901340
H67	H	-1.668424	0.622168	-0.919081
H68	H	-1.123355	0.397762	-0.645530
Br69	Br	-1.593793	0.292304	-0.898817
H70	H	-1.468585	0.674852	-1.103599
H71	H	-1.123864	0.345910	-0.448173
H72	H	-1.468983	0.675775	-0.920906
H73	H	-1.420678	0.918053	-0.374512
H74	H	-1.124909	0.535525	-0.686506
H75	H	-1.666463	0.919427	-0.624248
H76	H	-1.124930	0.646940	-0.399187
Br77	Br	-0.919765	0.459390	-0.291604
H78	H	-0.942031	0.685397	-0.536563
H79	H	-1.123041	0.447484	-0.345887
H80	H	-1.468990	0.918939	-0.675653
Br81	Br	-1.142871	0.727414	-0.576209
H82	H	-1.671932	1.102029	-0.619666
H83	H	-1.707748	0.917931	-0.486572
