data_functionalizedCrystal
_audit_creation_method	'MofGen! by Chris Wilmer'
_symmetry_space_group_name_H-M	'P1'
_symmetry_Int_Tables_number	1
_symmetry_cell_setting	triclinic
loop_
_symmetry_equiv_pos_as_xyz
  x,y,z
_cell_length_a	15.538191
_cell_length_b	17.699083
_cell_length_c	16.776229
_cell_angle_alpha	89.998901
_cell_angle_beta	89.998825
_cell_angle_gamma	114.722446
loop_
_atom_site_label
_atom_site_type_symbol
_atom_site_fract_x
_atom_site_fract_y
_atom_site_fract_z
O1	O	0.119193	-0.971511	0.066172
O2	O	0.134701	-0.746895	0.066198
O3	O	-0.010283	-0.902926	0.066184
O4	O	0.264176	-0.815479	0.066186
O5	O	-0.010275	-0.902907	-0.066393
O6	O	0.134709	-0.746876	-0.066379
O7	O	0.119200	-0.971492	-0.066404
Zn8	Zn	0.126956	-0.859181	-0.087441
Zn9	Zn	0.126945	-0.859206	0.087235
O10	O	0.264184	-0.815460	-0.066390
C11	C	0.134149	-0.718840	-0.000087
C12	C	0.132482	-0.635277	-0.000077
C13	C	-0.045395	-0.912066	-0.000103
C14	C	-0.150031	-0.939318	-0.000098
N15	N	0.126962	-0.859169	-0.206652
C16	C	-0.437202	-0.668571	-0.000084
C17	C	-0.535527	-0.694198	-0.000089
C18	C	-0.558300	-0.838344	-0.000105
C19	C	-0.459975	-0.812729	-0.000096
C20	C	-0.399434	-0.727842	-0.000087
C21	C	-0.422207	-0.872000	-0.000099
C22	C	-0.323891	-0.846387	-0.000095
C23	C	-0.263343	-0.761503	-0.000087
C24	C	-0.301118	-0.702229	-0.000082
C25	C	-0.482750	-0.956887	-0.000114
C26	C	-0.444981	-1.016158	-0.000117
C27	C	-0.346663	-0.990545	-0.000107
C28	C	-0.286116	-0.905661	-0.000100
C29	C	-0.308889	-1.049819	-0.000112
C30	C	-0.210573	-1.024206	-0.000107
C31	C	-0.187800	-0.880048	-0.000095
C32	C	0.299297	-0.806321	-0.000102
C33	C	0.403933	-0.779068	-0.000101
C34	C	0.119752	-0.999546	-0.000117
C35	C	0.121419	-1.083109	-0.000122
C36	C	0.217584	-0.563403	-0.000077
C37	C	0.216012	-0.484889	-0.000087
C38	C	0.129337	-0.478252	-0.000092
C39	C	0.044228	-0.550134	-0.000095
C40	C	0.045801	-0.628646	-0.000090
C41	C	0.037882	-0.233505	-0.000115
C42	C	0.036316	-0.154985	-0.000117
C43	C	0.208094	-0.089748	-0.000111
C44	C	0.209667	-0.168260	-0.000107
C45	C	0.124558	-0.240135	-0.000114
C46	C	0.126264	-0.325269	-0.000104
C47	C	0.127630	-0.393120	-0.000096
C48	C	0.062756	-0.928316	-0.751823
C49	C	0.062763	-0.928310	-0.668371
C50	C	0.126941	-0.859211	-0.626651
C51	C	0.191124	-0.790116	-0.668389
C52	C	0.191121	-0.790125	-0.751839
C53	C	0.191138	-0.790080	-0.331841
C54	C	0.191134	-0.790075	-0.248385
C55	C	0.062780	-0.928265	-0.248373
C56	C	0.062777	-0.928274	-0.331824
C57	C	0.126962	-0.859181	-0.373553
C58	C	0.126955	-0.859189	-0.464042
C59	C	0.126944	-0.859200	-0.536165
N60	N	0.126932	-0.859225	0.206446
H61	H	-0.183289	-0.740650	-0.000088
N62	N	0.260361	-0.715540	-0.203391
H63	H	0.327247	-0.705883	-0.217910
H64	H	0.250537	-0.726067	-0.144207
H65	H	-0.494287	-1.085273	-0.000128
N66	N	-0.049258	-0.542977	-0.000093
H67	H	-0.102931	-0.600426	-0.000094
H68	H	-0.053651	-0.511822	-0.049241
N69	N	-0.374190	-1.141372	-0.000137
H70	H	-0.442204	-1.148604	-0.000146
H71	H	-0.361993	-1.168385	0.049007
H72	H	0.277393	-0.031216	-0.000110
H73	H	-0.251821	-0.633105	-0.000069
N74	N	-0.371894	-0.577014	-0.000061
H75	H	-0.410736	-0.543349	-0.000055
H76	H	-0.330599	-0.563237	-0.049206
H77	H	-0.562804	-0.977738	-0.000111
H78	H	0.243398	-0.733821	-0.365811
N79	N	-0.006461	-1.002846	-0.796819
H80	H	-0.073349	-1.012513	-0.782294
H81	H	0.004402	-1.053547	-0.782269
N82	N	-0.169828	-1.088129	-0.000115
H83	H	-0.223098	-1.145790	-0.000119
H84	H	-0.129535	-1.080646	0.049034
H85	H	-0.566272	-0.645927	-0.000098
H86	H	-0.031418	-0.292019	-0.000121
N87	N	0.311071	-0.570559	-0.000062
H88	H	0.364743	-0.513110	-0.000064
H89	H	0.315472	-0.601714	-0.049206
H90	H	0.285311	-0.426369	-0.000086
N91	N	0.303151	-0.175419	-0.000090
H92	H	0.356826	-0.117972	-0.000091
H93	H	0.307551	-0.206575	-0.049234
H94	H	0.010507	-0.984569	-0.634393
H95	H	0.243384	-0.733855	-0.634416
N96	N	-0.057174	-0.147825	-0.000123
H97	H	-0.110852	-0.205271	-0.000130
H98	H	-0.061555	-0.116666	-0.049272
H99	H	0.243380	-0.733865	-0.785816
H100	H	-0.023498	-0.687169	-0.000090
N101	N	-0.006431	-1.002808	-0.376821
H102	H	-0.047079	-1.046581	-0.337721
H103	H	0.029624	-1.026356	-0.411434
N104	N	-0.006461	-1.002785	-0.203365
H105	H	0.003273	-0.992298	-0.144168
H106	H	0.004326	-1.053516	-0.217942
N107	N	-0.623599	-0.929898	-0.000123
H108	H	-0.691614	-0.937132	-0.000128
H109	H	-0.611395	-0.956904	0.049023
H110	H	-0.138503	-0.810924	-0.000082
