data_functionalizedCrystal
_audit_creation_method	'MofGen! by Chris Wilmer'
_symmetry_space_group_name_H-M	'P1'
_symmetry_Int_Tables_number	1
_symmetry_cell_setting	triclinic
loop_
_symmetry_equiv_pos_as_xyz
  x,y,z
_cell_length_a	8.497365
_cell_length_b	11.169416
_cell_length_c	11.169417
_cell_angle_alpha	89.988781
_cell_angle_beta	90.031044
_cell_angle_gamma	89.951898
loop_
_atom_site_label
_atom_site_type_symbol
_atom_site_fract_x
_atom_site_fract_y
_atom_site_fract_z
Zn1	Zn	-0.891931	-0.477478	-1.835095
Zn2	Zn	-0.628148	-0.678279	-1.834945
Zn3	Zn	-0.628164	-0.477611	-1.634342
Zn4	Zn	-0.891887	-0.678121	-1.634389
O5	O	-0.760033	-0.577872	-1.734693
O6	O	-0.856951	-0.504125	-2.003025
O7	O	-0.407388	-0.651782	-1.808252
O8	O	-0.663179	-0.309644	-1.661015
O9	O	-0.663151	-0.651652	-2.002915
O10	O	-0.856966	-0.309546	-1.808508
O11	O	-0.407400	-0.504352	-1.660870
O12	O	-0.663136	-0.504199	-1.466398
O13	O	-1.112656	-0.651383	-1.661095
O14	O	-0.856892	-0.651512	-1.466433
O15	O	-1.112687	-0.503971	-1.808553
O16	O	-0.663109	-0.846207	-1.808298
O17	O	-0.856877	-0.846091	-1.660950
C18	C	-0.760021	-0.889697	-1.734645
C19	C	-0.760068	-1.023097	-1.734735
C20	C	-0.760012	-0.577854	-1.422868
C21	C	-0.760041	-0.577875	-1.289468
C22	C	-0.350152	-0.578003	-1.734606
C23	C	-0.171509	-0.577757	-1.734777
C24	C	-0.760054	-0.577891	-2.047735
C25	C	-0.760063	-0.577899	-2.181135
C26	C	-0.760079	-0.264830	-1.734773
C27	C	-0.760099	-0.131430	-1.734807
