data_functionalizedCrystal
_audit_creation_method	'MofGen! by Chris Wilmer'
_symmetry_space_group_name_H-M	'P1'
_symmetry_Int_Tables_number	1
_symmetry_cell_setting	triclinic
loop_
_symmetry_equiv_pos_as_xyz
  x,y,z
_cell_length_a	13.897448
_cell_length_b	12.759401
_cell_length_c	12.759393
_cell_angle_alpha	89.981433
_cell_angle_beta	89.966449
_cell_angle_gamma	90.016807
loop_
_atom_site_label
_atom_site_type_symbol
_atom_site_fract_x
_atom_site_fract_y
_atom_site_fract_z
Zn1	Zn	-0.383979	1.606222	-0.594002
Zn2	Zn	-0.545309	1.606111	-0.418316
Zn3	Zn	-0.384027	1.430527	-0.418337
Zn4	Zn	-0.545231	1.430503	-0.593954
O5	O	-0.464636	1.518341	-0.506152
O6	O	-0.405392	1.753228	-0.570708
O7	O	-0.523967	1.582782	-0.271298
O8	O	-0.249039	1.453890	-0.441668
O9	O	-0.523920	1.753146	-0.441632
O10	O	-0.249004	1.582972	-0.570728
O11	O	-0.405474	1.453782	-0.271313
O12	O	-0.405399	1.283503	-0.441622
O13	O	-0.523788	1.453849	-0.740982
O14	O	-0.523835	1.283486	-0.570647
O15	O	-0.405317	1.582949	-0.741016
O16	O	-0.680280	1.582759	-0.441586
O17	O	-0.680223	1.453741	-0.570627
C18	C	-0.464614	1.245373	-0.506132
C19	C	-0.464628	1.128597	-0.506149
C20	C	-0.402877	1.073713	-0.439089
C21	C	-0.402900	0.963989	-0.439103
C22	C	-0.526427	0.964042	-0.573244
C23	C	-0.526408	1.073764	-0.573225
C24	C	-0.341096	1.128546	-0.372013
C25	C	-0.279340	1.073662	-0.304949
C26	C	-0.279363	0.963938	-0.304962
C27	C	-0.341142	0.909098	-0.372040
C28	C	-0.715251	1.518264	-0.506122
C29	C	-0.822465	1.518327	-0.506144
C30	C	-1.018760	1.518438	-0.506210
C31	C	-0.909527	1.518373	-0.506176
C32	C	-0.213043	1.518446	-0.506206
C33	C	-0.105830	1.518491	-0.506229
C34	C	-0.464538	1.518409	-0.780186
C35	C	-0.464496	1.518438	-0.896963
C36	C	-0.464660	1.792374	-0.506173
C37	C	-0.464669	1.909151	-0.506182
C38	C	-0.402786	1.451296	-0.951839
C39	C	-0.402757	1.451328	-1.061563
C40	C	-0.526152	1.585653	-1.061525
C41	C	-0.526185	1.585615	-0.951803
C42	C	-0.341097	1.384119	-0.896998
C43	C	-0.279380	1.316973	-0.951875
C44	C	-0.279351	1.317005	-1.061599
C45	C	-0.341039	1.384183	-1.116447
C46	C	-0.464665	1.518333	-0.233185
C47	C	-0.464435	1.518508	-0.116409
H48	H	-0.576724	0.919382	-0.627857
C49	C	-0.594067	1.659467	-0.891435
H50	H	-0.630794	1.699489	-0.939809
H51	H	-0.636100	1.619237	-0.848623
H52	H	-0.557184	1.705250	-0.848640
C53	C	-0.211387	1.133976	-0.231168
H54	H	-0.174619	1.085572	-0.191225
H55	H	-0.169395	1.176799	-0.271434
H56	H	-0.248230	1.176755	-0.185309
H57	H	-0.576373	1.640348	-1.106191
H58	H	-0.576690	1.118452	-0.627832
H59	H	-0.341111	1.384088	-0.807656
C60	C	-0.211432	0.903563	-0.231204
H61	H	-0.220293	0.830363	-0.240815
H62	H	-0.146639	0.921563	-0.246713
H63	H	-0.225465	0.921507	-0.160577
H64	H	-0.341160	0.819753	-0.372041
C65	C	-0.341072	1.249238	-0.371992
H66	H	-0.295440	1.274036	-0.322436
H67	H	-0.324467	1.274094	-0.439820
H68	H	-0.403296	1.274043	-0.353688
H69	H	-0.229162	1.262273	-0.907210
H70	H	-0.229105	1.262324	-1.106276
H71	H	-0.341013	1.384201	-1.205792
