data_functionalizedCrystal
_audit_creation_method	'MofGen! by Chris Wilmer'
_symmetry_space_group_name_H-M	'P1'
_symmetry_Int_Tables_number	1
_symmetry_cell_setting	triclinic
loop_
_symmetry_equiv_pos_as_xyz
  x,y,z
_cell_length_a	11.169417
_cell_length_b	12.827892
_cell_length_c	11.169409
_cell_angle_alpha	90.033276
_cell_angle_beta	90.019513
_cell_angle_gamma	90.016641
loop_
_atom_site_label
_atom_site_type_symbol
_atom_site_fract_x
_atom_site_fract_y
_atom_site_fract_z
Zn1	Zn	1.834920	-0.415914	0.678525
Zn2	Zn	2.334920	0.084086	1.178525
Zn3	Zn	1.834792	-0.590701	0.477839
Zn4	Zn	2.334792	-0.090701	0.977839
Zn5	Zn	1.634206	-0.415978	0.477860
Zn6	Zn	2.134206	0.084022	0.977860
Zn7	Zn	1.634196	-0.590617	0.678485
Zn8	Zn	2.134196	-0.090617	1.178485
O9	O	1.734528	-0.503303	0.578177
O10	O	2.234528	-0.003303	1.078177
O11	O	2.002853	-0.439108	0.651911
O12	O	2.502853	0.060892	1.151911
O13	O	1.808134	-0.567586	0.309892
O14	O	2.308134	-0.067586	0.809892
O15	O	1.660889	-0.269734	0.504505
O16	O	2.160889	0.230266	1.004505
O17	O	2.002759	-0.567523	0.504468
O18	O	2.502759	-0.067523	1.004468
O19	O	1.808353	-0.269686	0.651932
O20	O	2.308353	0.230314	1.151932
O21	O	1.660765	-0.439218	0.309908
O22	O	2.160765	0.060782	0.809908
O23	O	1.466255	-0.439137	0.504466
O24	O	1.966255	0.060863	1.004466
O25	O	1.660872	-0.567380	0.846440
O26	O	2.160872	-0.067380	1.346440
O27	O	1.466248	-0.567443	0.651864
O28	O	1.966248	-0.067443	1.151864
O29	O	1.808343	-0.439026	0.846469
O30	O	2.308343	0.060974	1.346469
O31	O	1.808124	-0.736926	0.504429
O32	O	2.308124	-0.236926	1.004429
O33	O	1.660747	-0.736864	0.651842
O34	O	2.160747	-0.236864	1.151842
C35	C	1.422704	-0.503288	0.578163
C36	C	1.922704	-0.003288	1.078163
C37	C	1.289304	-0.503308	0.578186
C38	C	1.789304	-0.003308	1.078186
C39	C	1.734453	-0.774812	0.578155
C40	C	2.234453	-0.274812	1.078155
C41	C	1.734531	-0.890966	0.578186
C42	C	2.234531	-0.390966	1.078186
C43	C	1.807468	-0.942643	0.651203
C44	C	2.307468	-0.442643	1.151203
C45	C	1.807550	-1.062694	0.651236
C46	C	2.307550	-0.562694	1.151236
C47	C	2.047571	-0.503317	0.578192
C48	C	2.547571	-0.003317	1.078192
C49	C	2.180971	-0.503324	0.578198
C50	C	2.680971	-0.003324	1.078198
C51	C	1.734621	-0.503186	0.891220
C52	C	2.234621	-0.003186	1.391220
C53	C	1.734660	-0.503137	1.024620
C54	C	2.234660	-0.003137	1.524620
C55	C	1.734637	-0.230732	0.578226
C56	C	2.234637	0.269268	1.078226
C57	C	1.734683	-0.114579	0.578246
C58	C	2.234683	0.385421	1.078246
C59	C	1.734506	-0.503343	0.266352
C60	C	2.234506	-0.003343	0.766352
C61	C	1.734699	-0.503098	0.132953
C62	C	2.234699	-0.003098	0.632953
H63	H	1.869848	-0.898012	0.713697
H64	H	2.369848	-0.398012	1.213697
F65	F	1.653063	-1.056501	0.496525
F66	F	2.153063	-0.556501	0.996525
H67	H	1.869999	-1.107136	0.713745
H68	H	2.369999	-0.607136	1.213745
F69	F	1.652982	-0.949299	0.496512
F70	F	2.152982	-0.449299	0.996512
