data_functionalizedCrystal
_audit_creation_method	'MofGen! by Chris Wilmer'
_symmetry_space_group_name_H-M	'P1'
_symmetry_Int_Tables_number	1
_symmetry_cell_setting	triclinic
loop_
_symmetry_equiv_pos_as_xyz
  x,y,z
_cell_length_a	14.853567
_cell_length_b	23.532407
_cell_length_c	13.930277
_cell_angle_alpha	89.990782
_cell_angle_beta	89.995755
_cell_angle_gamma	83.241804
loop_
_atom_site_label
_atom_site_type_symbol
_atom_site_fract_x
_atom_site_fract_y
_atom_site_fract_z
O1	O	1.195555	0.074353	-0.079775
O2	O	0.932999	0.083210	-0.079793
O3	O	1.072194	-0.004116	-0.079766
O4	O	1.056360	0.161678	-0.079802
O5	O	1.072175	-0.004118	0.079896
O6	O	0.932980	0.083208	0.079869
O7	O	1.195536	0.074351	0.079887
Zn8	Zn	1.064255	0.078779	0.105228
Zn9	Zn	1.064280	0.078782	-0.105133
O10	O	1.056340	0.161677	0.079860
C11	C	0.899405	0.082808	0.000036
C12	C	0.799334	0.081605	0.000030
C13	C	0.387423	0.024648	0.000064
C14	C	0.365008	0.128393	0.000041
C15	C	0.459029	0.129524	0.000037
C16	C	0.517252	0.078216	0.000046
C17	C	0.481454	0.025777	0.000058
C18	C	0.494835	0.181961	0.000016
C19	C	0.588861	0.183094	0.000011
C20	C	0.647086	0.131786	0.000027
C21	C	0.611283	0.079345	0.000040
C22	C	0.669506	0.028037	0.000049
C23	C	0.633704	-0.024404	0.000069
C24	C	0.539679	-0.025531	0.000074
C25	C	0.741111	0.132913	0.000022
C26	C	0.763536	0.029166	0.000042
C27	C	1.071782	-0.025335	0.000068
C28	C	1.070569	-0.088557	0.000075
C29	C	1.145338	-0.487334	0.000027
C30	C	1.144212	-0.546739	0.000020
O31	O	1.213524	-0.583181	-0.000011
N32	N	1.061460	-0.569726	0.000015
C33	C	0.979829	-0.533305	0.000008
O34	O	0.909339	-0.558312	0.000002
C35	C	0.980957	-0.473901	0.000008
C36	C	1.063714	-0.450917	0.000023
C37	C	1.228089	-0.464349	0.000041
C38	C	1.229214	-0.404948	0.000050
C39	C	1.147590	-0.368531	0.000046
C40	C	1.064839	-0.391516	0.000032
C41	C	0.899327	-0.437481	-0.000006
C42	C	0.900461	-0.378073	-0.000006
C43	C	0.983218	-0.355089	0.000009
C44	C	0.984341	-0.295698	0.000037
N45	N	1.067092	-0.272711	0.000042
C46	C	1.148717	-0.309128	0.000046
C47	C	0.977469	-0.658058	0.000005
C48	C	0.976340	-0.717461	0.000012
C49	C	1.140723	-0.730890	0.000022
C50	C	1.141851	-0.671486	0.000022
C51	C	1.060220	-0.635070	0.000010
C52	C	1.151075	-0.184380	0.000066
C53	C	1.152194	-0.124974	0.000079
C54	C	0.987811	-0.111549	0.000064
C55	C	0.986692	-0.170951	0.000056
C56	C	1.068331	-0.207365	0.000054
O57	O	0.915065	-0.259221	0.000064
O58	O	1.219196	-0.284112	0.000039
C59	C	1.229130	0.074753	0.000056
C60	C	1.329200	0.075956	0.000056
C61	C	1.056753	0.182895	0.000025
C62	C	1.057966	0.246118	0.000011
N63	N	1.064244	0.078777	0.248794
N64	N	1.064298	0.078779	-0.248700
C65	C	1.002642	0.117434	0.701051
C66	C	1.125943	0.040125	0.701045
C67	C	1.125932	0.040123	0.600549
C68	C	1.064276	0.078778	0.550300
C69	C	1.002631	0.117435	0.600546
C70	C	1.187582	0.001470	0.550295
C71	C	1.187575	0.001467	0.449793
C72	C	1.125914	0.040120	0.399542
C73	C	1.064266	0.078778	0.449795
C74	C	1.002610	0.117433	0.399546
C75	C	0.940956	0.156089	0.449797
C76	C	0.940970	0.156088	0.550295
C77	C	1.125900	0.040122	0.299043
C78	C	1.002599	0.117434	0.299041
H79	H	0.510520	-0.068226	0.000113
C80	C	0.482115	0.284623	-0.000032
C81	C	0.430838	0.238357	-0.000005
H82	H	0.442601	0.319439	-0.000052
H83	H	0.519251	0.282911	0.055640
H84	H	0.519259	0.282899	-0.055715
H85	H	0.393699	0.240078	0.055682
H86	H	0.393686	0.240069	-0.055683
H87	H	0.952442	0.148906	0.741968
C88	C	1.242334	-0.032857	0.704351
C89	C	1.255351	-0.041017	0.605529
H90	H	1.284170	-0.059091	0.738451
H91	H	1.251781	0.005159	0.720804
H92	H	1.182223	-0.039114	0.720819
H93	H	1.315460	-0.034756	0.589059
H94	H	1.245911	-0.079042	0.589069
C95	C	0.681575	0.244556	-0.082102
C96	C	0.628202	0.240739	-0.000018
H97	H	0.705855	0.280146	-0.082123
H98	H	0.729709	0.214169	-0.082084
H99	H	0.645353	0.241951	-0.137768
H100	H	0.664426	0.243340	0.055648
H101	H	0.580062	0.271134	-0.000027
H102	H	0.890759	0.187565	0.408872
C103	C	0.246263	0.187305	-0.082043
C104	C	0.301008	0.184787	0.000031
H105	H	0.206746	0.222120	-0.082042
H106	H	0.283412	0.185596	-0.137710
H107	H	0.211492	0.155909	-0.082026
H108	H	0.335784	0.216180	0.000011
H109	H	0.263855	0.186501	0.055713
C110	C	0.833847	0.194366	-0.082081
C111	C	0.780466	0.190550	-0.000002
H112	H	0.858136	0.229953	-0.082095
H113	H	0.881973	0.163975	-0.082064
H114	H	0.797626	0.191767	-0.137750
H115	H	0.816688	0.193145	0.055668
H116	H	0.732333	0.220950	-0.000010
C117	C	0.802653	-0.496489	0.082037
C118	C	0.808357	-0.462735	-0.000032
H119	H	0.746486	-0.512076	0.082019
H120	H	0.851091	-0.526682	0.082038
H121	H	0.806500	-0.473597	0.137713
H122	H	0.804517	-0.485628	-0.055709
H123	H	0.759906	-0.432538	-0.000042
H124	H	0.890775	0.187560	0.591216
C125	C	0.377594	-0.064130	-0.081987
C126	C	0.348077	-0.032995	0.000083
H127	H	0.353306	-0.099717	-0.081971
H128	H	0.357570	-0.043001	-0.137657
H129	H	0.441925	-0.070793	-0.081982
H130	H	0.283746	-0.026327	0.000074
H131	H	0.368095	-0.054128	0.055767
H132	H	0.921355	-0.081888	0.000064
C133	C	1.248832	-0.065979	0.082174
C134	C	1.243167	-0.099712	0.000092
H135	H	1.304996	-0.050388	0.082181
H136	H	1.200390	-0.035789	0.082168
H137	H	1.244967	-0.088888	0.137841
H138	H	1.247025	-0.076802	-0.055576
H139	H	1.291623	-0.129906	0.000089
C140	C	1.313675	-0.191672	0.000091
C141	C	1.240814	-0.224402	0.000072
H142	H	1.369074	-0.216381	0.000105
H143	H	1.310700	-0.168219	-0.055582
H144	H	1.310670	-0.168227	0.055774
H145	H	1.243814	-0.247844	-0.055614
H146	H	1.243790	-0.247865	0.055751
H147	H	1.296604	-0.386241	0.000058
C148	C	0.787795	-0.068730	0.000065
C149	C	0.697709	-0.080801	0.000079
H150	H	0.827310	-0.103547	0.000077
H151	H	0.798587	-0.047236	-0.055618
H152	H	0.798588	-0.047229	0.055738
H153	H	0.686915	-0.102299	-0.055598
H154	H	0.686914	-0.102305	0.055767
C155	C	1.248706	0.027931	0.186034
C156	C	1.193687	-0.002356	0.243822
H157	H	1.290567	0.001706	0.151953
H158	H	1.211984	0.050936	0.141717
H159	H	1.280893	0.051683	0.225245
H160	H	1.161495	-0.026105	0.204610
H161	H	1.230414	-0.025371	0.288144
C162	C	0.880720	0.193854	0.309143
C163	C	0.934825	0.159927	0.243810
H164	H	0.838884	0.220089	0.275044
H165	H	0.848512	0.170108	0.348347
H166	H	0.918072	0.214380	0.348334
H167	H	0.897474	0.139398	0.204623
H168	H	0.967035	0.183676	0.204589
H169	H	1.294561	-0.493994	0.000041
C170	C	1.304219	-0.690742	0.000026
C171	C	1.232819	-0.646226	0.000024
H172	H	1.360380	-0.675148	0.000018
H173	H	1.300353	-0.713632	0.055703
H174	H	1.300352	-0.713629	-0.055653
H175	H	1.236681	-0.623340	0.055706
H176	H	1.236687	-0.623325	-0.055659
H177	H	1.207187	-0.760552	0.000022
H178	H	0.908951	-0.736168	0.000016
C179	C	1.309451	-0.074955	0.459892
C180	C	1.255334	-0.041027	0.394562
H181	H	1.351276	-0.101192	0.425792
H182	H	1.341670	-0.051211	0.499070
H183	H	1.272105	-0.095480	0.499111
H184	H	1.292679	-0.020499	0.355347
H185	H	1.223112	-0.064774	0.355368
H186	H	0.910991	-0.628410	0.000003
C187	C	0.737860	-0.370770	-0.000027
C188	C	0.810728	-0.338045	-0.000015
H189	H	0.682465	-0.346058	-0.000026
H190	H	0.740852	-0.394210	-0.055704
H191	H	0.740840	-0.394228	0.055652
H192	H	0.807752	-0.314590	-0.055698
H193	H	0.807734	-0.314595	0.055667
H194	H	0.919305	-0.189665	0.000071
H195	H	1.176146	0.008655	0.741961
H196	H	0.810936	-0.012615	0.000053
