data_functionalizedCrystal
_audit_creation_method	'MofGen! by Chris Wilmer'
_symmetry_space_group_name_H-M	'P1'
_symmetry_Int_Tables_number	1
_symmetry_cell_setting	triclinic
loop_
_symmetry_equiv_pos_as_xyz
  x,y,z
_cell_length_a	13.897448
_cell_length_b	12.759395
_cell_length_c	12.759387
_cell_angle_alpha	90.020674
_cell_angle_beta	89.967288
_cell_angle_gamma	89.984831
loop_
_atom_site_label
_atom_site_type_symbol
_atom_site_fract_x
_atom_site_fract_y
_atom_site_fract_z
Zn1	Zn	-0.384029	-1.606247	-0.593996
Zn2	Zn	0.115971	-1.106247	-0.093996
Zn3	Zn	-0.545357	-1.606128	-0.418310
Zn4	Zn	-0.045357	-1.106128	0.081690
Zn5	Zn	-0.384070	-1.430545	-0.418332
Zn6	Zn	0.115930	-0.930545	0.081668
Zn7	Zn	-0.545277	-1.430528	-0.593949
Zn8	Zn	-0.045277	-0.930528	-0.093949
O9	O	-0.464683	-1.518362	-0.506147
O10	O	0.035317	-1.018362	-0.006147
O11	O	-0.405446	-1.753252	-0.570701
O12	O	0.094554	-1.253252	-0.070701
O13	O	-0.524012	-1.582794	-0.271292
O14	O	-0.024012	-1.082794	0.228708
O15	O	-0.249083	-1.453909	-0.441663
O16	O	0.250917	-0.953909	0.058337
O17	O	-0.523972	-1.753165	-0.441626
O18	O	-0.023972	-1.253165	0.058374
O19	O	-0.249053	-1.582996	-0.570722
O20	O	0.250947	-1.082996	-0.070722
O21	O	-0.405516	-1.453794	-0.271308
O22	O	0.094484	-0.953794	0.228692
O23	O	-0.405438	-1.283522	-0.441618
O24	O	0.094562	-0.783522	0.058382
O25	O	-0.523836	-1.453880	-0.740976
O26	O	-0.023836	-0.953880	-0.240976
O27	O	-0.523876	-1.283509	-0.570642
O28	O	-0.023876	-0.783509	-0.070642
O29	O	-0.405368	-1.582980	-0.741011
O30	O	0.094632	-1.082980	-0.241011
O31	O	-0.680328	-1.582778	-0.441580
O32	O	-0.180328	-1.082778	0.058420
O33	O	-0.680269	-1.453765	-0.570621
O34	O	-0.180269	-0.953765	-0.070621
C35	C	-0.464654	-1.245395	-0.506128
C36	C	0.035346	-0.745395	-0.006128
C37	C	-0.464664	-1.128618	-0.506145
C38	C	0.035336	-0.628618	-0.006145
C39	C	-0.341442	-1.128689	-0.640768
C40	C	0.158558	-0.628689	-0.140768
C41	C	-0.279840	-1.073864	-0.708087
C42	C	0.220160	-0.573864	-0.208087
C43	C	-0.279853	-0.964143	-0.708098
C44	C	0.220147	-0.464143	-0.208098
C45	C	-0.341472	-0.909244	-0.640780
C46	C	0.158528	-0.409244	-0.140780
C47	C	-0.403074	-0.964069	-0.573461
C48	C	0.096926	-0.464069	-0.073461
C49	C	-0.403056	-1.073793	-0.573460
C50	C	0.096944	-0.573793	-0.073460
C51	C	-0.526290	-0.963997	-0.438834
C52	C	-0.026290	-0.463997	0.061166
C53	C	-0.526283	-1.073719	-0.438827
C54	C	-0.026283	-0.573719	0.061173
C55	C	-0.587909	-0.909098	-0.371516
C56	C	-0.087909	-0.409098	0.128484
C57	C	-0.649517	-0.963923	-0.304201
C58	C	-0.149517	-0.463923	0.195799
C59	C	-0.649502	-1.073652	-0.304194
C60	C	-0.149502	-0.573652	0.195806
C61	C	-0.587885	-1.128544	-0.371508
C62	C	-0.087885	-0.628544	0.128492
C63	C	-0.715297	-1.518285	-0.506116
C64	C	-0.215297	-1.018285	-0.006116
C65	C	-0.822511	-1.518349	-0.506138
C66	C	-0.322511	-1.018349	-0.006138
C67	C	-1.018806	-1.518459	-0.506204
C68	C	-0.518806	-1.018459	-0.006204
C69	C	-0.909574	-1.518395	-0.506171
C70	C	-0.409574	-1.018395	-0.006171
C71	C	-0.213090	-1.518468	-0.506200
C72	C	0.286910	-1.018468	-0.006200
C73	C	-0.105876	-1.518513	-0.506223
C74	C	0.394124	-1.018513	-0.006223
C75	C	-0.464589	-1.518441	-0.780180
C76	C	0.035411	-1.018441	-0.280180
C77	C	-0.464548	-1.518475	-0.896957
C78	C	0.035452	-1.018475	-0.396957
C79	C	-0.464704	-0.792395	-0.506161
C80	C	0.035296	-0.292395	-0.006161
C81	C	-0.464688	-0.909172	-0.506153
C82	C	0.035312	-0.409172	-0.006153
C83	C	-0.341196	-1.652916	-0.897013
C84	C	0.158804	-1.152916	-0.397013
C85	C	-0.279505	-1.720151	-0.951901
C86	C	0.220495	-1.220151	-0.451901
C87	C	-0.279470	-1.720176	-1.061623
C88	C	0.220530	-1.220176	-0.561623
C89	C	-0.341130	-1.652958	-1.116459
C90	C	0.158870	-1.152958	-0.616459
C91	C	-0.402821	-1.585723	-1.061570
C92	C	0.097179	-1.085723	-0.561570
C93	C	-0.402851	-1.585707	-0.951846
C94	C	0.097149	-1.085707	-0.451846
C95	C	-0.526167	-1.451278	-1.061514
C96	C	-0.026167	-0.951278	-0.561514
C97	C	-0.526208	-1.451256	-0.951793
C98	C	-0.026208	-0.951256	-0.451793
C99	C	-0.587827	-1.384059	-1.116350
C100	C	-0.087827	-0.884059	-0.616350
C101	C	-0.649524	-1.316828	-1.061461
C102	C	-0.149524	-0.816828	-0.561461
C103	C	-0.649557	-1.316806	-0.951733
C104	C	-0.149557	-0.816806	-0.451733
C105	C	-0.587899	-1.384021	-0.896904
C106	C	-0.087899	-0.884021	-0.396904
C107	C	-0.464708	-1.518343	-0.233179
C108	C	0.035292	-1.018343	0.266821
C109	C	-0.464476	-1.518513	-0.116403
C110	C	0.035524	-1.018513	0.383597
H111	H	-0.699663	-1.118284	-0.249371
H112	H	-0.199663	-0.618284	0.250629
O113	O	-0.213377	-1.133073	-0.780689
O114	O	0.286623	-0.633073	-0.280689
H115	H	-0.256603	-1.183074	-0.834060
H116	H	0.243397	-0.683074	-0.334060
H117	H	-0.341421	-1.218030	-0.640761
H118	H	0.158579	-0.718030	-0.140761
O119	O	-0.341477	-0.790901	-0.640785
O120	O	0.158523	-0.290901	-0.140785
H121	H	-0.321887	-0.761948	-0.561582
H122	H	0.178113	-0.261948	-0.061582
O123	O	-0.587861	-1.246887	-0.371488
O124	O	-0.087861	-0.746887	0.128512
H125	H	-0.534658	-1.275846	-0.429596
H126	H	-0.034658	-0.775846	0.070404
H127	H	-0.341227	-1.652912	-0.807672
H128	H	0.158773	-1.152912	-0.307672
H129	H	-0.229301	-1.774877	-0.907242
H130	H	0.270699	-1.274877	-0.407242
H131	H	-0.229230	-1.774918	-1.106313
H132	H	0.270770	-1.274918	-0.606313
H133	H	-0.341088	-1.652975	-1.205800
H134	H	0.158912	-1.152975	-0.705800
H135	H	-0.587790	-1.384081	-1.205691
H136	H	-0.087790	-0.884081	-0.705691
O137	O	-0.213416	-0.904999	-0.780704
O138	O	0.286584	-0.404999	-0.280704
H139	H	-0.170569	-0.961601	-0.827516
H140	H	0.329431	-0.461601	-0.327516
H141	H	-0.699783	-1.262044	-0.907049
H142	H	-0.199783	-0.762044	-0.407049
H143	H	-0.587913	-0.819757	-0.371527
H144	H	-0.087913	-0.319757	0.128473
H145	H	-0.699678	-0.919216	-0.249392
H146	H	-0.199678	-0.419216	0.250608
H147	H	-0.699718	-1.262098	-1.106117
H148	H	-0.199718	-0.762098	-0.606117
H149	H	-0.587924	-1.384014	-0.807563
H150	H	-0.087924	-0.884014	-0.307563
