data_functionalizedCrystal
_audit_creation_method	'MofGen! by Chris Wilmer'
_symmetry_space_group_name_H-M	'P1'
_symmetry_Int_Tables_number	1
_symmetry_cell_setting	triclinic
loop_
_symmetry_equiv_pos_as_xyz
  x,y,z
_cell_length_a	17.640112
_cell_length_b	13.897448
_cell_length_c	17.640968
_cell_angle_alpha	78.768361
_cell_angle_beta	92.139080
_cell_angle_gamma	101.242525
loop_
_atom_site_label
_atom_site_type_symbol
_atom_site_fract_x
_atom_site_fract_y
_atom_site_fract_z
Zn1	Zn	1.247780	-0.027714	-0.195080
Zn2	Zn	1.581114	0.305619	0.138253
Zn3	Zn	1.914447	0.638952	0.471587
Zn4	Zn	1.222024	-0.226719	-0.068097
Zn5	Zn	1.555358	0.106614	0.265236
Zn6	Zn	1.888691	0.439947	0.598570
Zn7	Zn	1.095117	-0.090459	-0.093726
Zn8	Zn	1.428450	0.242874	0.239608
Zn9	Zn	1.761783	0.576208	0.572941
Zn10	Zn	1.120765	-0.214022	-0.220679
Zn11	Zn	1.454098	0.119311	0.112654
Zn12	Zn	1.787431	0.452644	0.445988
O13	O	1.171421	-0.139729	-0.144395
O14	O	1.504755	0.193605	0.188938
O15	O	1.838088	0.526938	0.522271
O16	O	1.350631	-0.033168	-0.156796
O17	O	1.683965	0.300166	0.176537
O18	O	2.017298	0.633499	0.509870
O19	O	1.183677	-0.240217	0.034777
O20	O	1.517011	0.093117	0.368110
O21	O	1.850344	0.426450	0.701443
O22	O	1.115413	0.052860	-0.107183
O23	O	1.448746	0.386193	0.226150
O24	O	1.782080	0.719527	0.559484
O25	O	1.331709	-0.179376	-0.063502
O26	O	1.665042	0.153958	0.269831
O27	O	1.998376	0.487291	0.603164
O28	O	1.227574	0.098958	-0.181648
O29	O	1.560908	0.432292	0.151686
O30	O	1.894241	0.765625	0.485019
O31	O	1.090439	-0.140107	0.015947
O32	O	1.423772	0.193227	0.349280
O33	O	1.757105	0.526560	0.682614
O34	O	0.992251	-0.127795	-0.132005
O35	O	1.325584	0.205538	0.201328
O36	O	1.658918	0.538872	0.534661
O37	O	1.159126	-0.157736	-0.323556
O38	O	1.492459	0.175598	0.009777
O39	O	1.825793	0.508931	0.343110
O40	O	1.011094	-0.218577	-0.225277
O41	O	1.344428	0.114757	0.108056
O42	O	1.677761	0.448090	0.441389
O43	O	1.252444	-0.020856	-0.304749
O44	O	1.585777	0.312477	0.028585
O45	O	1.919111	0.645811	0.361918
O46	O	1.208547	-0.360031	-0.088325
O47	O	1.541880	-0.026698	0.245009
O48	O	1.875214	0.306636	0.578342
O49	O	1.134152	-0.350703	-0.200426
O50	O	1.467485	-0.017369	0.132907
O51	O	1.800818	0.315964	0.466241
C52	C	0.974119	-0.178617	-0.184201
C53	C	1.307452	0.154716	0.149133
C54	C	1.640785	0.488049	0.482466
C55	C	0.889716	-0.195272	-0.201248
C56	C	1.223049	0.138062	0.132086
C57	C	1.556382	0.471395	0.465419
C58	C	0.563040	-0.013187	-0.014898
C59	C	0.896373	0.320146	0.318435
C60	C	1.229707	0.653479	0.651769
C61	C	0.483732	-0.028853	-0.030926
C62	C	0.817066	0.304480	0.302407
C63	C	1.150399	0.637813	0.635740
C64	C	0.503374	-0.123604	-0.127883
C65	C	0.836708	0.209730	0.205450
C66	C	1.170041	0.543063	0.538784
C67	C	0.582686	-0.107942	-0.111865
C68	C	0.916019	0.225392	0.221468
C69	C	1.249353	0.558725	0.554801
C70	C	0.612512	-0.052734	-0.055371
C71	C	0.945845	0.280600	0.277962
C72	C	1.279179	0.613933	0.611295
C73	C	0.632158	-0.147488	-0.152339
C74	C	0.965491	0.185846	0.180995
C75	C	1.298824	0.519179	0.514328
C76	C	0.711462	-0.131831	-0.136319
C77	C	1.044795	0.201502	0.197014
C78	C	1.378128	0.534836	0.530347
C79	C	0.741294	-0.076628	-0.079826
C80	C	1.074627	0.256705	0.253507
C81	C	1.407960	0.590038	0.586840
C82	C	0.691816	-0.037077	-0.039352
C83	C	1.025149	0.296256	0.293981
C84	C	1.358483	0.629590	0.627315
C85	C	0.602329	-0.202701	-0.208829
C86	C	0.935663	0.130632	0.124505
C87	C	1.268996	0.463965	0.457838
C88	C	0.651801	-0.242247	-0.249302
C89	C	0.985135	0.091086	0.084031
C90	C	1.318468	0.424419	0.417365
C91	C	0.731108	-0.226585	-0.233287
C92	C	1.064441	0.106748	0.100047
C93	C	1.397774	0.440082	0.433380
C94	C	0.760940	-0.171382	-0.176794
C95	C	1.094273	0.161951	0.156540
C96	C	1.427606	0.495284	0.489873
C97	C	0.780586	-0.266136	-0.273761
C98	C	1.113919	0.067197	0.059572
C99	C	1.447252	0.400530	0.392906
C100	C	0.859889	-0.250480	-0.257742
C101	C	1.193223	0.082854	0.075592
C102	C	1.526556	0.416187	0.408925
C103	C	0.840244	-0.155726	-0.160774
C104	C	1.173577	0.177608	0.172559
C105	C	1.506910	0.510941	0.505892
C106	C	1.171362	-0.390361	-0.144385
C107	C	1.504695	-0.057027	0.188949
C108	C	1.838028	0.276306	0.522282
C109	C	1.171411	-0.497561	-0.144391
C110	C	1.504744	-0.164227	0.188942
C111	C	1.838077	0.169106	0.522275
C112	C	1.171500	-0.693826	-0.144423
C113	C	1.504833	-0.360493	0.188910
C114	C	1.838167	-0.027159	0.522244
C115	C	1.171449	-0.584610	-0.144408
C116	C	1.504782	-0.251276	0.188925
C117	C	1.838115	0.082057	0.522259
C118	C	1.369495	-0.100689	-0.104435
C119	C	1.702828	0.232644	0.228898
C120	C	2.036161	0.565978	0.562232
C121	C	1.453902	-0.084053	-0.087406
C122	C	1.787235	0.249281	0.245927
C123	C	2.120568	0.582614	0.579260
C124	C	1.211519	-0.080881	-0.342478
C125	C	1.544852	0.252453	-0.009145
C126	C	1.878186	0.585786	0.324188
C127	C	1.228606	-0.055803	-0.426890
C128	C	1.561939	0.277530	-0.093556
C129	C	1.895273	0.610864	0.239777
C130	C	1.171506	0.111891	-0.144419
C131	C	1.504839	0.445224	0.188915
C132	C	1.838172	0.778557	0.522248
C133	C	1.171541	0.219116	-0.144429
C134	C	1.504875	0.552449	0.188905
C135	C	1.838208	0.885783	0.522238
C136	C	1.041904	-0.329658	-0.753462
C137	C	1.375237	0.003675	-0.420129
C138	C	1.708571	0.337009	-0.086795
C139	C	1.057976	-0.306079	-0.832776
C140	C	1.391309	0.027255	-0.499443
C141	C	1.724643	0.360588	-0.166109
C142	C	1.155140	-0.163558	-0.813183
C143	C	1.488473	0.169775	-0.479850
C144	C	1.821806	0.503109	-0.146516
C145	C	1.139073	-0.187123	-0.733866
C146	C	1.472407	0.146211	-0.400533
C147	C	1.805740	0.479544	-0.067199
C148	C	1.082455	-0.270175	-0.704012
C149	C	1.415789	0.063159	-0.370679
C150	C	1.749122	0.396492	-0.037346
C151	C	1.179624	-0.127639	-0.684416
C152	C	1.512958	0.205694	-0.351083
C153	C	1.846291	0.539027	-0.017750
C154	C	1.163562	-0.151206	-0.605106
C155	C	1.496895	0.182128	-0.271773
C156	C	1.830229	0.515461	0.061561
C157	C	1.106948	-0.234255	-0.575246
C158	C	1.440282	0.099078	-0.241912
C159	C	1.773615	0.432411	0.091421
C160	C	1.066393	-0.293741	-0.624702
C161	C	1.399726	0.039592	-0.291369
C162	C	1.733059	0.372926	0.041965
C163	C	1.236246	-0.044592	-0.714271
C164	C	1.569579	0.288741	-0.380938
C165	C	1.902913	0.622075	-0.047604
C166	C	1.276797	0.014891	-0.664821
C167	C	1.610130	0.348225	-0.331488
C168	C	1.943464	0.681558	0.001845
C169	C	1.260731	-0.008670	-0.585510
C170	C	1.594064	0.324663	-0.252177
C171	C	1.927398	0.657996	0.081156
C172	C	1.204117	-0.091720	-0.555650
C173	C	1.537451	0.241613	-0.222316
C174	C	1.870784	0.574947	0.111017
C175	C	1.301286	0.050815	-0.536054
C176	C	1.634620	0.384149	-0.202721
C177	C	1.967953	0.717482	0.130613
C178	C	1.285224	0.027249	-0.456744
C179	C	1.618557	0.360582	-0.123410
C180	C	1.951891	0.693916	0.209923
C181	C	1.188055	-0.115286	-0.476339
C182	C	1.521388	0.218047	-0.143006
C183	C	1.854721	0.551380	0.190327
C184	C	1.131524	-0.198270	0.052926
C185	C	1.464857	0.135064	0.386259
C186	C	1.798190	0.468397	0.719593
C187	C	1.114584	-0.223047	0.137366
C188	C	1.447917	0.110287	0.470700
C189	C	1.781251	0.443620	0.804033
H190	H	0.756288	-0.311095	-0.319753
H191	H	1.089621	0.022239	0.013581
H192	H	1.422954	0.355572	0.346914
Br193	Br	0.494699	-0.223970	-0.230557
Br194	Br	0.828032	0.109364	0.102776
Br195	Br	1.161365	0.442697	0.436109
Br196	Br	1.353637	0.127597	-0.705344
Br197	Br	1.686970	0.460930	-0.372011
Br198	Br	2.020304	0.794263	-0.038677
Br199	Br	1.378133	0.163512	-0.576578
Br200	Br	1.711466	0.496845	-0.243244
Br201	Br	2.044799	0.830179	0.090089
Br202	Br	1.340262	0.107971	-0.389627
Br203	Br	1.673596	0.441304	-0.056294
Br204	Br	2.006929	0.774638	0.277040
H205	H	0.995782	-0.397268	-0.729157
H206	H	1.329115	-0.063934	-0.395824
H207	H	1.662449	0.269399	-0.062491
H208	H	1.024950	-0.354524	-0.873037
H209	H	1.358284	-0.021190	-0.539703
H210	H	1.691617	0.312143	-0.206370
H211	H	1.201240	-0.095939	-0.837501
H212	H	1.534573	0.237394	-0.504167
H213	H	1.867907	0.570727	-0.170834
Br214	Br	0.611313	-0.317188	-0.325958
Br215	Br	0.944647	0.016145	0.007375
Br216	Br	1.277980	0.349479	0.340709
H217	H	0.864532	-0.110752	-0.114783
H218	H	1.197865	0.222581	0.218551
H219	H	1.531198	0.555914	0.551884
H220	H	1.249324	-0.025409	-0.778851
H221	H	1.582657	0.307924	-0.445518
H222	H	1.915991	0.641258	-0.112184
H223	H	1.020271	-0.361351	-0.600397
H224	H	1.353604	-0.028017	-0.267064
H225	H	1.686937	0.305316	0.066269
Br226	Br	0.848920	-0.055387	-0.058077
Br227	Br	1.182254	0.277946	0.275256
Br228	Br	1.515587	0.611280	0.608590
Br229	Br	0.732303	0.037860	0.037312
Br230	Br	1.065637	0.371194	0.370645
Br231	Br	1.398970	0.704527	0.703979
Br232	Br	0.927034	-0.304156	-0.312666
Br233	Br	1.260368	0.029177	0.020668
Br234	Br	1.593701	0.362511	0.354001
Br235	Br	0.416590	0.024810	0.024016
Br236	Br	0.749924	0.358144	0.357350
Br237	Br	1.083257	0.691477	0.690683
Br238	Br	1.085152	-0.266249	-0.467608
Br239	Br	1.418486	0.067085	-0.134274
Br240	Br	1.751819	0.400418	0.199059
Br241	Br	0.603527	0.061750	0.061766
Br242	Br	0.936861	0.395083	0.395099
Br243	Br	1.270194	0.728417	0.728433
H244	H	0.479078	-0.168557	-0.173878
H245	H	0.812412	0.164776	0.159455
H246	H	1.145745	0.498109	0.492788
H247	H	1.141933	-0.182896	-0.452035
H248	H	1.475266	0.150437	-0.118701
H249	H	1.808599	0.483771	0.214632
