data_functionalizedCrystal
_audit_creation_method	'MofGen! by Chris Wilmer'
_symmetry_space_group_name_H-M	'P1'
_symmetry_Int_Tables_number	1
_symmetry_cell_setting	triclinic
loop_
_symmetry_equiv_pos_as_xyz
  x,y,z
_cell_length_a	9.065218
_cell_length_b	19.188930
_cell_length_c	7.540329
_cell_angle_alpha	90.008296
_cell_angle_beta	90.001688
_cell_angle_gamma	84.080333
loop_
_atom_site_label
_atom_site_type_symbol
_atom_site_fract_x
_atom_site_fract_y
_atom_site_fract_z
O1	O	1.956844	0.102369	0.147510
O2	O	1.527268	0.110766	0.147515
O3	O	1.754453	0.005008	0.147478
O4	O	1.729659	0.208127	0.147547
O5	O	1.754445	0.005007	-0.147487
O6	O	1.527260	0.110765	-0.147450
O7	O	1.956836	0.102368	-0.147455
Cu8	Cu	1.742048	0.106567	-0.174385
Cu9	Cu	1.742057	0.106568	0.174445
O10	O	1.729652	0.208126	-0.147418
C11	C	1.472305	0.109959	0.000032
C12	C	1.308546	0.107546	0.000033
C13	C	1.753646	-0.021009	-0.000010
C14	C	1.751236	-0.098533	-0.000025
C15	C	1.884540	-0.142421	-0.000035
C16	C	1.882276	-0.215262	-0.000006
C17	C	1.746699	-0.244212	-0.000004
C18	C	1.613377	-0.200314	0.000016
C19	C	1.615646	-0.127474	0.000006
N20	N	1.643065	-0.353023	-0.100385
N21	N	1.640919	-0.422218	-0.100379
C22	C	1.739858	-0.463674	0.000032
N23	N	1.841045	-0.433322	0.100414
N24	N	1.843195	-0.364121	0.100400
C25	C	1.744225	-0.323194	0.000009
C26	C	1.870716	-0.586546	0.000056
C27	C	1.868446	-0.659388	0.000095
C28	C	1.599544	-0.644438	0.000100
C29	C	1.601818	-0.571598	0.000078
C30	C	1.737408	-0.542656	0.000048
C31	C	2.011799	0.103176	0.000032
C32	C	2.175558	0.105589	0.000043
C33	C	1.730458	0.234144	0.000074
C34	C	1.732869	0.311667	0.000101
N35	N	1.742052	0.106566	-0.419734
N36	N	1.742064	0.106563	0.419794
H37	H	1.994948	-0.118862	-0.000054
H38	H	1.977004	-0.695122	0.000097
H39	H	1.507089	-0.091740	0.000013
Cl40	Cl	1.429103	-0.680826	0.000114
H41	H	1.493266	-0.535863	0.000076
H42	H	1.990832	-0.251003	-0.000007
Cl43	Cl	1.442938	-0.236707	0.000034
Cl44	Cl	2.041168	-0.550158	0.000007
