data_functionalizedCrystal
_audit_creation_method	'MofGen! by Chris Wilmer'
_symmetry_space_group_name_H-M	'P1'
_symmetry_Int_Tables_number	1
_symmetry_cell_setting	triclinic
loop_
_symmetry_equiv_pos_as_xyz
  x,y,z
_cell_length_a	19.188925
_cell_length_b	19.188930
_cell_length_c	8.965430
_cell_angle_alpha	89.995304
_cell_angle_beta	89.995259
_cell_angle_gamma	83.143665
loop_
_atom_site_label
_atom_site_type_symbol
_atom_site_fract_x
_atom_site_fract_y
_atom_site_fract_z
O1	O	0.926147	0.087144	-0.124088
O2	O	0.722835	0.098882	-0.124086
O3	O	0.830358	-0.008642	-0.124058
O4	O	0.818624	0.194669	-0.124116
O5	O	0.830349	-0.008635	0.124021
O6	O	0.722826	0.098890	0.123993
O7	O	0.926138	0.087151	0.123991
Cu8	Cu	0.824481	0.093021	0.146643
Cu9	Cu	0.824492	0.093013	-0.146739
O10	O	0.818615	0.194676	0.123963
C11	C	0.696820	0.098507	-0.000046
C12	C	0.619315	0.097367	-0.000044
C13	C	0.057545	0.152831	-0.000064
C14	C	0.130368	0.153908	-0.000072
C15	C	0.175302	0.090816	-0.000051
C16	C	0.147408	0.026642	-0.000060
C17	C	0.074586	0.025568	-0.000067
N18	N	0.295976	0.045142	0.084410
N19	N	0.365154	0.046167	0.084419
C20	C	0.394712	0.094050	-0.000035
N21	N	0.352477	0.140879	-0.084479
N22	N	0.283293	0.139856	-0.084482
C23	C	0.254267	0.091974	-0.000045
C24	C	0.501561	0.159386	-0.000045
C25	C	0.574385	0.160460	-0.000063
C26	C	0.591425	0.033193	-0.000036
C27	C	0.518601	0.032121	-0.000033
C28	C	0.473673	0.095220	-0.000031
C29	C	0.829974	-0.034650	-0.000014
C30	C	0.828833	-0.112154	-0.000002
C31	C	0.891924	-0.157079	0.000005
C32	C	0.890852	-0.229903	-0.000019
C33	C	0.826686	-0.257799	-0.000019
C34	C	0.763587	-0.212864	-0.000034
C35	C	0.764660	-0.140041	-0.000025
N36	N	0.777636	-0.365800	0.084407
N37	N	0.776620	-0.434979	0.084402
C38	C	0.823448	-0.477207	-0.000050
N39	N	0.871340	-0.447645	-0.084477
N40	N	0.872358	-0.378460	-0.084465
C41	C	0.825515	-0.336761	-0.000030
C42	C	0.885381	-0.601097	-0.000071
C43	C	0.884307	-0.673922	-0.000104
C44	C	0.757040	-0.656880	-0.000105
C45	C	0.758116	-0.584057	-0.000086
C46	C	0.822289	-0.556170	-0.000063
C47	C	0.952154	0.087527	-0.000053
C48	C	1.029658	0.088666	-0.000064
C49	C	0.819000	0.220684	-0.000084
C50	C	0.820140	0.298188	-0.000107
N51	N	0.824479	0.093027	0.352992
N52	N	0.824500	0.093002	-0.353088
C53	C	0.774738	0.142737	0.450285
C54	C	0.837790	0.156091	0.549694
C55	C	0.761454	0.079678	0.549711
C56	C	0.887562	0.106412	0.450212
C57	C	0.811185	0.029972	0.450221
C58	C	0.874282	0.043299	0.549584
H59	H	0.051883	-0.026685	-0.000068
H60	H	0.711342	-0.235581	-0.000038
O61	O	0.458012	0.220741	-0.000130
C62	C	0.448796	0.347084	-0.000086
C63	C	0.498191	0.277652	-0.000020
H64	H	0.481261	0.393115	0.000035
H65	H	0.414295	0.349806	-0.103932
H66	H	0.414258	0.349728	0.103709
H67	H	0.532774	0.274962	-0.103744
H68	H	0.532645	0.274959	0.103895
H69	H	0.704794	-0.679592	-0.000112
H70	H	0.937635	-0.578390	-0.000058
O71	O	0.924488	-0.006953	0.601103
C72	C	0.967828	-0.130071	0.606825
C73	C	0.910935	-0.073234	0.548348
H74	H	0.956883	-0.183673	0.564222
H75	H	1.021519	-0.118629	0.565676
H76	H	0.967177	-0.129988	0.733975
H77	H	0.911521	-0.073285	0.421202
H78	H	0.857270	-0.084697	0.589611
O79	O	0.851340	0.219638	0.601914
C80	C	0.928355	0.283178	0.747562
C81	C	0.913110	0.211169	0.688495
H82	H	0.978288	0.276354	0.817601
H83	H	0.935521	0.319544	0.649621
H84	H	0.882504	0.306943	0.819281
H85	H	0.958939	0.187343	0.616799
H86	H	0.905916	0.174852	0.786504
O87	O	0.797608	-0.033581	0.398110
C88	C	0.715808	-0.119511	0.389669
C89	C	0.731097	-0.047521	0.448758
H90	H	0.662040	-0.130811	0.430620
H91	H	0.716396	-0.119053	0.262520
H92	H	0.757699	-0.161991	0.432208
H93	H	0.689222	-0.005001	0.406330
H94	H	0.730534	-0.048039	0.575905
H95	H	0.732712	0.184814	0.406686
O96	O	0.491476	-0.030193	-0.000283
C97	C	0.419123	-0.105250	-0.128755
C98	C	0.449807	-0.034658	-0.128667
H99	H	0.385415	-0.108877	-0.232526
H100	H	0.463719	-0.150187	-0.128838
H101	H	0.385479	-0.108925	-0.024890
H102	H	0.483442	-0.030915	-0.232514
H103	H	0.405177	0.010245	-0.128506
O104	O	0.635036	-0.028115	-0.000282
C105	C	0.671855	-0.136579	-0.128739
C106	C	0.622433	-0.067165	-0.128655
H107	H	0.661673	-0.168177	-0.232502
H108	H	0.728708	-0.124833	-0.128834
H109	H	0.661737	-0.168139	-0.024865
H110	H	0.632488	-0.035571	-0.232511
H111	H	0.565596	-0.078960	-0.128482
H112	H	0.708146	0.068399	0.593421
O113	O	0.945662	-0.717465	-0.000033
C114	C	1.072004	-0.726679	-0.000091
C115	C	1.002572	-0.677286	-0.000138
H116	H	1.118034	-0.694214	-0.000207
H117	H	1.074723	-0.761194	0.103747
H118	H	1.074654	-0.761204	-0.103895
H119	H	0.999876	-0.642716	0.103596
H120	H	0.999883	-0.642818	-0.104044
O121	O	0.190983	-0.034692	0.000159
C122	C	0.227849	-0.143118	0.128739
C123	C	0.178451	-0.073689	0.128670
H124	H	0.217745	-0.174661	0.232645
H125	H	0.217732	-0.174756	0.024990
H126	H	0.284682	-0.131313	0.128675
H127	H	0.121601	-0.085431	0.128787
H128	H	0.188629	-0.042072	0.232411
O129	O	0.157502	0.216222	-0.000320
C130	C	0.229884	0.291278	-0.128759
C131	C	0.199191	0.220692	-0.128689
H132	H	0.263608	0.294909	-0.232518
H133	H	0.185293	0.336221	-0.128854
H134	H	0.263514	0.294941	-0.024881
H135	H	0.165569	0.216961	-0.232548
H136	H	0.243815	0.175784	-0.128516
O137	O	0.954321	-0.130107	-0.000048
C138	C	1.080436	-0.154698	0.000059
C139	C	1.009823	-0.185339	0.000085
H140	H	1.125328	-0.199338	0.000198
H141	H	1.084177	-0.121051	-0.103781
H142	H	1.084076	-0.121012	0.103860
H143	H	1.006135	-0.219057	-0.103645
H144	H	1.006113	-0.218947	0.103995
O145	O	0.951214	0.119838	0.398336
C146	C	1.075706	0.083043	0.391258
C147	C	1.003674	0.067737	0.450109
H148	H	1.118141	0.040936	0.433118
H149	H	1.075195	0.082930	0.264104
H150	H	1.087112	0.136631	0.433071
H151	H	0.992223	0.014148	0.408406
H152	H	1.004222	0.067896	0.577261
O153	O	0.952123	-0.273584	-0.000266
C154	C	1.024757	-0.365723	-0.128718
C155	C	0.955352	-0.316286	-0.128645
H156	H	1.027384	-0.400271	-0.232485
H157	H	1.070834	-0.333318	-0.128797
H158	H	1.027412	-0.400212	-0.024849
H159	H	0.952628	-0.281786	-0.232497
H160	H	0.909307	-0.348733	-0.128489
O161	O	0.696764	-0.540512	-0.000007
C162	C	0.570421	-0.531297	-0.000094
C163	C	0.639853	-0.580691	-0.000143
H164	H	0.524391	-0.563762	-0.000235
H165	H	0.567691	-0.496798	0.103757
H166	H	0.567784	-0.496756	-0.103884
H167	H	0.642537	-0.615276	0.103577
H168	H	0.642555	-0.615143	-0.104062
H169	H	0.020968	0.204211	-0.000069
H170	H	0.713282	-0.103462	-0.000030
H171	H	0.597088	0.212713	-0.000074
