data_functionalizedCrystal
_audit_creation_method	'MofGen! by Chris Wilmer'
_symmetry_space_group_name_H-M	'P1'
_symmetry_Int_Tables_number	1
_symmetry_cell_setting	triclinic
loop_
_symmetry_equiv_pos_as_xyz
  x,y,z
_cell_length_a	12.759395
_cell_length_b	21.295417
_cell_length_c	12.759387
_cell_angle_alpha	89.961464
_cell_angle_beta	89.979491
_cell_angle_gamma	90.032044
loop_
_atom_site_label
_atom_site_type_symbol
_atom_site_fract_x
_atom_site_fract_y
_atom_site_fract_z
Zn1	Zn	1.606153	-0.250550	-0.593949
Zn2	Zn	1.605995	-0.355833	-0.418245
Zn3	Zn	1.430451	-0.250585	-0.418285
Zn4	Zn	1.430395	-0.355788	-0.593884
O5	O	1.518249	-0.303189	-0.506091
O6	O	1.753153	-0.264521	-0.570651
O7	O	1.582667	-0.341905	-0.271229
O8	O	1.453848	-0.162491	-0.441631
O9	O	1.753037	-0.341871	-0.441563
O10	O	1.582936	-0.162465	-0.570690
O11	O	1.453695	-0.264579	-0.271259
O12	O	1.283423	-0.264536	-0.441569
O13	O	1.453753	-0.341795	-0.740914
O14	O	1.283382	-0.341828	-0.570581
O15	O	1.582881	-0.264477	-0.740961
O16	O	1.582612	-0.443917	-0.441501
O17	O	1.453600	-0.443884	-0.570542
C18	C	1.245281	-0.303181	-0.506073
C19	C	1.128505	-0.303193	-0.506090
C20	C	1.518111	-0.466741	-0.506033
C21	C	1.518148	-0.536709	-0.506043
C22	C	1.128500	-0.383808	-0.640213
C23	C	1.073637	-0.424121	-0.707277
C24	C	0.963916	-0.424129	-0.707290
C25	C	0.909055	-0.383818	-0.640233
C26	C	0.963918	-0.343506	-0.573169
C27	C	1.073642	-0.343504	-0.573161
C28	C	0.963922	-0.262888	-0.439053
C29	C	1.073644	-0.262883	-0.439034
C30	C	0.909061	-0.222578	-0.371997
C31	C	0.963924	-0.182267	-0.304926
C32	C	1.073652	-0.182262	-0.304915
C33	C	1.128507	-0.222570	-0.371969
C34	C	1.585385	-0.569572	-0.438920
C35	C	1.585434	-0.635314	-0.438944
C36	C	1.518228	-0.668191	-0.506079
C37	C	1.450987	-0.635320	-0.573215
C38	C	1.450947	-0.569579	-0.573197
N39	N	1.426321	-0.771458	-0.514083
N40	N	1.426362	-0.833909	-0.514094
C41	C	1.518346	-0.866266	-0.506139
N42	N	1.610289	-0.833812	-0.498153
N43	N	1.610247	-0.771355	-0.498137
C44	C	1.518264	-0.739477	-0.506107
C45	C	1.585641	-0.970414	-0.439039
C46	C	1.585692	-1.036158	-0.439070
C47	C	1.451236	-1.036163	-0.573336
C48	C	1.451194	-0.970421	-0.573310
C49	C	1.518395	-0.937550	-0.506156
C50	C	1.792282	-0.303197	-0.506110
C51	C	1.909059	-0.303201	-0.506118
C52	C	1.518328	-0.303127	-0.780125
C53	C	1.518362	-0.303101	-0.896901
C54	C	1.518416	-0.138999	-0.506172
C55	C	1.518487	-0.069031	-0.506207
C56	C	1.652833	-0.222595	-0.896970
C57	C	1.720083	-0.182333	-0.951865
C58	C	1.720108	-0.182310	-1.061587
C59	C	1.652874	-0.222552	-1.116416
C60	C	1.585624	-0.262815	-1.061521
C61	C	1.585608	-0.262835	-0.951797
C62	C	1.451150	-0.343316	-1.061452
C63	C	1.451128	-0.343344	-0.951730
C64	C	1.383916	-0.383559	-1.116281
C65	C	1.316670	-0.423825	-1.061386
C66	C	1.316648	-0.423847	-0.951657
C67	C	1.383878	-0.383606	-0.896835
C68	C	1.518230	-0.303205	-0.233123
C69	C	1.518400	-0.303054	-0.116347
H70	H	1.217841	-0.383811	-0.640201
H71	H	1.383871	-0.383622	-0.807494
C72	C	1.133985	-0.468459	-0.781033
H73	H	1.207189	-0.462687	-0.771417
H74	H	1.116043	-0.459303	-0.851655
H75	H	1.115962	-0.510746	-0.765513
H76	H	1.640364	-0.943650	-0.384361
H77	H	0.919246	-0.456951	-0.761905
H78	H	1.217848	-0.222571	-0.371964
C79	C	1.377315	-1.072320	-0.647189
H80	H	1.386965	-1.116180	-0.637585
H81	H	1.392649	-1.061499	-0.717788
H82	H	1.306720	-1.061595	-0.631743
C83	C	1.652898	-0.222523	-1.237107
H84	H	1.702580	-0.192782	-1.261947
H85	H	1.585116	-0.211629	-1.261922
H86	H	1.671032	-0.263144	-1.261909
C87	C	1.794083	-0.138024	-1.121974
H88	H	1.834126	-0.114063	-1.073611
H89	H	1.753936	-0.110586	-1.164791
H90	H	1.839842	-0.162107	-1.164766
C91	C	1.242725	-0.468087	-1.121697
H92	H	1.252373	-0.462307	-1.194905
H93	H	1.172141	-0.458876	-1.103707
H94	H	1.258060	-0.510390	-1.103700
H95	H	1.652829	-0.222616	-0.807629
C96	C	1.133998	-0.137917	-0.231147
H97	H	1.207203	-0.143681	-0.240744
H98	H	1.115974	-0.147073	-0.160528
H99	H	1.116056	-0.095633	-0.246676
H100	H	1.383938	-0.383535	-1.205622
H101	H	1.640107	-0.542810	-0.384242
C102	C	0.788364	-0.383824	-0.640253
H103	H	0.763547	-0.413607	-0.689796
H104	H	0.763584	-0.343217	-0.658552
H105	H	0.763503	-0.394665	-0.572419
H106	H	0.919247	-0.149447	-0.250339
C107	C	1.659389	-0.671471	-0.365098
H108	H	1.699400	-0.642479	-0.325096
H109	H	1.705163	-0.697075	-0.405325
H110	H	1.619219	-0.697158	-0.319295
H111	H	1.396269	-0.662093	-0.627879
H112	H	1.396194	-0.542822	-0.627858
C113	C	1.659656	-1.072307	-0.365230
H114	H	1.699662	-1.043313	-0.325229
H115	H	1.705433	-1.097907	-0.405461
H116	H	1.619494	-1.097999	-0.319426
H117	H	1.396439	-0.943662	-0.627964
H118	H	0.819720	-0.222584	-0.372017
C119	C	1.794038	-0.138072	-0.891553
H120	H	1.784403	-0.143854	-0.818344
H121	H	1.778722	-0.095771	-0.909555
H122	H	1.864624	-0.147294	-0.909543
C123	C	1.242690	-0.468148	-0.891281
H124	H	1.202667	-0.492115	-0.939652
H125	H	1.196928	-0.444085	-0.848471
H126	H	1.282861	-0.495589	-0.848483
