data_functionalizedCrystal
_audit_creation_method	'MofGen! by Chris Wilmer'
_symmetry_space_group_name_H-M	'P1'
_symmetry_Int_Tables_number	1
_symmetry_cell_setting	triclinic
loop_
_symmetry_equiv_pos_as_xyz
  x,y,z
_cell_length_a	14.519709
_cell_length_b	14.853567
_cell_length_c	13.330367
_cell_angle_alpha	90.004582
_cell_angle_beta	90.001557
_cell_angle_gamma	96.342463
loop_
_atom_site_label
_atom_site_type_symbol
_atom_site_fract_x
_atom_site_fract_y
_atom_site_fract_z
O1	O	0.120405	-1.196416	-0.083340
O2	O	0.620405	-0.696416	0.416660
O3	O	0.134748	-0.933962	-0.083356
O4	O	0.634748	-0.433962	0.416644
O5	O	-0.006665	-1.072147	-0.083357
O6	O	0.493335	-0.572147	0.416643
O7	O	0.261818	-1.058230	-0.083339
O8	O	0.761818	-0.558230	0.416661
O9	O	-0.006668	-1.072127	0.083490
O10	O	0.493332	-0.572127	0.583490
O11	O	0.134745	-0.933942	0.083491
O12	O	0.634745	-0.433942	0.583491
O13	O	0.120402	-1.196395	0.083507
O14	O	0.620402	-0.696395	0.583507
Cu15	Cu	0.127573	-1.065167	0.098734
Cu16	Cu	0.627573	-0.565167	0.598734
Cu17	Cu	0.127577	-1.065190	-0.098582
Cu18	Cu	0.627577	-0.565190	0.401418
O19	O	0.261814	-1.058210	0.083508
O20	O	0.761814	-0.558210	0.583508
C21	C	-0.041026	-1.071488	0.000062
C22	C	0.458974	-0.571488	0.500062
C23	C	-0.143407	-1.069545	0.000049
C24	C	0.356593	-0.569545	0.500049
C25	C	0.134096	-0.900363	0.000066
C26	C	0.634096	-0.400363	0.500066
C27	C	0.132149	-0.800278	0.000059
C28	C	0.632149	-0.300278	0.500059
C29	C	0.296175	-1.058869	0.000087
C30	C	0.796175	-0.558869	0.500087
C31	C	0.398556	-1.060812	0.000094
C32	C	0.898556	-0.560812	0.500094
C33	C	0.773449	-1.067967	0.000054
C34	C	1.273449	-0.567967	0.500054
C35	C	0.669142	-1.065980	0.000065
C36	C	1.169142	-0.565980	0.500065
C37	C	0.586006	-1.064390	0.000075
C38	C	1.086006	-0.564390	0.500075
C39	C	0.481692	-1.062403	0.000084
C40	C	0.981692	-0.562403	0.500084
C41	C	0.121053	-1.229994	0.000083
C42	C	0.621053	-0.729994	0.500083
C43	C	0.123001	-1.330079	0.000083
C44	C	0.623001	-0.830079	0.500083
N45	N	0.127570	-1.065157	0.237515
N46	N	0.627570	-0.565157	0.737515
C47	C	0.039914	-0.387709	0.000075
C48	C	0.539914	0.112291	0.500075
C49	C	0.207916	-0.366493	0.000085
C50	C	0.707916	0.133507	0.500085
C51	C	0.209747	-0.460527	0.000082
C52	C	0.709747	0.039473	0.500082
C53	C	0.126660	-0.518157	0.000074
C54	C	0.626660	-0.018157	0.500074
C55	C	0.041743	-0.481752	0.000069
C56	C	0.541743	0.018248	0.500069
C57	C	0.294663	-0.496939	0.000077
C58	C	0.794663	0.003061	0.500077
C59	C	0.296498	-0.590979	0.000073
C60	C	0.796498	-0.090979	0.500073
C61	C	0.213410	-0.648610	0.000072
C62	C	0.713410	-0.148610	0.500072
C63	C	0.128489	-0.612200	0.000068
C64	C	0.628489	-0.112200	0.500068
C65	C	0.045403	-0.669830	0.000060
C66	C	0.545403	-0.169830	0.500060
C67	C	-0.039520	-0.633422	0.000064
C68	C	0.460480	-0.133422	0.500064
C69	C	-0.041345	-0.539383	0.000069
C70	C	0.458655	-0.039383	0.500069
C71	C	0.215235	-0.742649	0.000067
C72	C	0.715235	-0.242649	0.500067
C73	C	0.047231	-0.763873	0.000054
C74	C	0.547231	-0.263873	0.500054
N75	N	0.127572	-1.065208	-0.237364
N76	N	0.627572	-0.565208	0.262636
C77	C	0.190170	-1.003999	0.710138
C78	C	0.690170	-0.503999	1.210138
C79	C	0.064976	-1.126406	0.710106
C80	C	0.564976	-0.626406	1.210106
C81	C	0.064974	-1.126396	0.605087
C82	C	0.564974	-0.626396	1.105087
C83	C	0.127571	-1.065187	0.552590
C84	C	0.627571	-0.565187	1.052590
C85	C	0.190170	-1.003989	0.605110
C86	C	0.690170	-0.503989	1.105110
C87	C	0.002381	-1.187599	0.552559
C88	C	0.502381	-0.687599	1.052559
C89	C	0.002376	-1.187592	0.447534
C90	C	0.502376	-0.687592	0.947534
C91	C	0.064970	-1.126378	0.395034
C92	C	0.564970	-0.626378	0.895034
C93	C	0.127572	-1.065177	0.447562
C94	C	0.627572	-0.565177	0.947562
C95	C	0.190169	-1.003968	0.395064
C96	C	0.690169	-0.503968	0.895064
C97	C	0.252767	-0.942762	0.447589
C98	C	0.752767	-0.442762	0.947589
C99	C	0.252764	-0.942775	0.552611
C100	C	0.752764	-0.442775	1.052611
C101	C	0.064973	-1.126365	0.290013
C102	C	0.564973	-0.626365	0.790013
C103	C	0.190170	-1.003958	0.290036
C104	C	0.690170	-0.503958	0.790036
H105	H	-0.020429	-0.810790	0.000051
H106	H	0.479571	-0.310790	0.500051
H107	H	-0.107168	-0.680356	0.000050
H108	H	0.392832	-0.180356	0.500050
Cl109	Cl	0.268858	-0.927054	0.776165
Cl110	Cl	0.768858	-0.427054	1.276165
Cl111	Cl	0.321985	-0.788416	0.000055
Cl112	Cl	0.821985	-0.288416	0.500055
Cl113	Cl	0.331463	-0.865823	0.381581
Cl114	Cl	0.831463	-0.365823	0.881581
Cl115	Cl	0.399107	-0.424488	0.000071
Cl116	Cl	0.899107	0.075512	0.500071
Cl117	Cl	-0.066840	-0.341941	0.000085
Cl118	Cl	0.433160	0.158059	0.500085
H119	H	0.275561	-0.319566	0.000083
H120	H	0.775561	0.180434	0.500083
H121	H	0.014016	-1.176245	0.752853
H122	H	0.514016	-0.676245	1.252853
Cl123	Cl	-0.013711	-1.203310	0.223988
Cl124	Cl	0.486289	-0.703310	0.723988
H125	H	-0.048595	-1.237428	0.404774
H126	H	0.451405	-0.737428	0.904774
Cl127	Cl	-0.076303	-1.264550	0.618553
Cl128	Cl	0.423697	-0.764550	1.118553
H129	H	-0.110484	-0.509731	0.000095
H130	H	0.389516	-0.009731	0.500095
Cl131	Cl	0.268863	-0.927001	0.224047
Cl132	Cl	0.768863	-0.427001	0.724047
H133	H	0.365646	-0.620614	0.000070
H134	H	0.865646	-0.120614	0.500070
H135	H	0.303730	-0.892944	0.595383
H136	H	0.803730	-0.392944	1.095383
