data_functionalizedCrystal
_audit_creation_method	'MofGen! by Chris Wilmer'
_symmetry_space_group_name_H-M	'P1'
_symmetry_Int_Tables_number	1
_symmetry_cell_setting	triclinic
loop_
_symmetry_equiv_pos_as_xyz
  x,y,z
_cell_length_a	19.288859
_cell_length_b	19.288865
_cell_length_c	14.048226
_cell_angle_alpha	89.988335
_cell_angle_beta	89.992667
_cell_angle_gamma	83.134986
loop_
_atom_site_label
_atom_site_type_symbol
_atom_site_fract_x
_atom_site_fract_y
_atom_site_fract_z
O1	O	0.921353	0.086629	-0.079190
O2	O	0.719092	0.098322	-0.079189
O3	O	0.826067	-0.008655	-0.079171
O4	O	0.814378	0.193606	-0.079209
O5	O	0.826054	-0.008661	0.079150
O6	O	0.719079	0.098316	0.079132
O7	O	0.921340	0.086622	0.079131
Zn8	Zn	0.820207	0.092468	0.104268
Zn9	Zn	0.820224	0.092476	-0.104327
O10	O	0.814365	0.193600	0.079113
C11	C	0.693209	0.097943	-0.000028
C12	C	0.616105	0.096816	-0.000027
C13	C	0.052064	0.151959	-0.000039
C14	C	0.124511	0.153025	-0.000044
C15	C	0.169217	0.090255	-0.000031
C16	C	0.141472	0.026416	-0.000036
C17	C	0.069027	0.025353	-0.000041
C18	C	0.290483	0.043440	0.055449
C19	C	0.362927	0.044506	0.055459
C20	C	0.392663	0.093533	-0.000022
C21	C	0.349946	0.141505	-0.055500
C22	C	0.277500	0.140442	-0.055504
C23	C	0.247773	0.091401	-0.000027
C24	C	0.498955	0.158523	-0.000028
C25	C	0.571403	0.159586	-0.000039
C26	C	0.588364	0.032976	-0.000022
C27	C	0.515917	0.031915	-0.000020
C28	C	0.471216	0.094691	-0.000019
C29	C	0.825684	-0.034535	-0.000007
C30	C	0.824555	-0.111638	0.000001
C31	C	0.887323	-0.156336	0.000005
C32	C	0.886262	-0.228783	-0.000010
C33	C	0.822430	-0.256529	-0.000010
C34	C	0.759654	-0.211822	-0.000020
C35	C	0.760716	-0.139376	-0.000014
C36	C	0.772246	-0.364818	0.055447
C37	C	0.771186	-0.437262	0.055447
C38	C	0.819150	-0.479975	-0.000031
C39	C	0.868186	-0.450235	-0.055498
C40	C	0.869249	-0.377790	-0.055492
C41	C	0.821271	-0.335083	-0.000017
C42	C	0.880773	-0.603228	-0.000045
C43	C	0.879709	-0.675676	-0.000066
C44	C	0.753099	-0.658713	-0.000066
C45	C	0.754164	-0.586267	-0.000055
C46	C	0.818003	-0.558529	-0.000040
C47	C	0.947223	0.087001	-0.000032
C48	C	1.024327	0.088128	-0.000039
C49	C	0.814747	0.219479	-0.000053
C50	C	0.815876	0.296583	-0.000068
N51	N	0.820201	0.092462	0.246629
N52	N	0.820236	0.092477	-0.246687
C53	C	0.867584	0.045112	0.296455
C54	C	0.867589	0.045112	0.396113
C55	C	0.820213	0.092465	0.445943
C56	C	0.772825	0.139817	0.396109
C57	C	0.772817	0.139814	0.296454
C58	C	0.772845	0.139822	0.603824
C59	C	0.772853	0.139827	0.703486
C60	C	0.867616	0.045120	0.703483
C61	C	0.867609	0.045117	0.603827
C62	C	0.820221	0.092470	0.554001
H63	H	0.046445	-0.026628	-0.000041
H64	H	0.734274	0.178386	0.744053
H65	H	0.147099	0.205005	-0.000035
H66	H	0.906166	0.006554	0.255891
F67	F	0.408383	-0.006545	0.114510
H68	H	0.731255	-0.461469	0.100606
H69	H	0.906189	0.006561	0.563256
H70	H	0.906201	0.006563	0.744057
F71	F	0.687357	-0.538694	-0.000056
F72	F	0.600922	0.227527	-0.000048
F73	F	0.721193	-0.319366	0.114500
F74	F	0.486395	-0.036024	-0.000023
H75	H	0.707681	-0.234417	-0.000022
F76	F	0.258847	-0.008772	0.114458
H77	H	0.734232	0.178370	0.255886
H78	H	0.906171	0.006555	0.436681
H79	H	0.734254	0.178380	0.563258
F80	F	0.722400	0.190212	0.449143
H81	H	0.907243	-0.485011	-0.100674
H82	H	0.015673	0.203077	-0.000042
F83	F	0.381586	0.193692	-0.114542
H84	H	0.937377	-0.265183	-0.000010
F85	F	0.635939	-0.033829	-0.000020
F86	F	0.189053	-0.040387	-0.000025
H87	H	0.939306	-0.133757	0.000015
H88	H	0.909174	-0.353579	-0.100657
F89	F	0.948714	-0.573705	-0.000024
H90	H	0.462558	0.209639	-0.000029
F91	F	0.232040	0.191493	-0.114550
F92	F	0.946520	-0.723248	-0.000067
H93	H	0.701125	-0.681303	-0.000071
F94	F	0.693907	-0.091803	-0.000020
