data_functionalizedCrystal
_audit_creation_method	'MofGen! by Chris Wilmer'
_symmetry_space_group_name_H-M	'P1'
_symmetry_Int_Tables_number	1
_symmetry_cell_setting	triclinic
loop_
_symmetry_equiv_pos_as_xyz
  x,y,z
_cell_length_a	14.044191
_cell_length_b	12.503572
_cell_length_c	14.519731
_cell_angle_alpha	86.470900
_cell_angle_beta	88.440315
_cell_angle_gamma	93.837835
loop_
_atom_site_label
_atom_site_type_symbol
_atom_site_fract_x
_atom_site_fract_y
_atom_site_fract_z
O1	O	1.263557	0.089273	0.217515
O2	O	0.987574	0.089286	0.209483
O3	O	1.132872	0.089269	0.079852
O4	O	1.118260	0.089289	0.347146
O5	O	1.121945	-0.089371	0.089619
O6	O	0.976647	-0.089355	0.219250
O7	O	1.252630	-0.089368	0.227282
Cu8	Cu	1.113641	-0.105673	0.224157
Cu9	Cu	1.126564	0.105591	0.212607
O10	O	1.107332	-0.089351	0.356913
C11	C	0.946790	-0.000033	0.210853
C12	C	0.841546	-0.000028	0.200373
N13	N	1.104559	-0.254264	0.232281
C14	C	0.591357	-0.000034	0.255539
C15	C	0.648854	-0.000038	0.181230
C16	C	0.756077	-0.000032	0.191884
C17	C	0.484123	-0.000040	0.244886
C18	C	1.091198	-0.473378	0.244239
C19	C	1.149010	-0.526711	0.192521
C20	C	1.141577	-0.648634	0.199175
C21	C	1.098631	-0.351444	0.237587
C22	C	1.293414	-0.000047	0.225911
C23	C	1.398659	-0.000045	0.236391
C24	C	1.126724	-0.000051	0.050321
C25	C	1.124672	-0.000052	-0.052225
N26	N	1.135653	0.254182	0.204477
C27	C	1.123005	-0.000049	-0.135504
C28	C	1.120922	-0.000041	-0.239981
C29	C	1.119269	-0.000034	-0.323254
C30	C	1.117186	-0.000028	-0.427738
C31	C	1.113481	-0.000028	0.386444
C32	C	1.115533	-0.000021	0.488989
H33	H	0.617556	0.000032	0.109606
H34	H	0.622658	-0.000026	0.327153
H35	H	1.204089	-0.480805	0.143248
H36	H	1.036125	-0.519279	0.293511
