data_functionalizedCrystal
_audit_creation_method	'MofGen! by Chris Wilmer'
_symmetry_space_group_name_H-M	'P1'
_symmetry_Int_Tables_number	1
_symmetry_cell_setting	triclinic
loop_
_symmetry_equiv_pos_as_xyz
  x,y,z
_cell_length_a	17.699077
_cell_length_b	17.699092
_cell_length_c	16.176319
_cell_angle_alpha	89.994879
_cell_angle_beta	89.993140
_cell_angle_gamma	83.283472
loop_
_atom_site_label
_atom_site_type_symbol
_atom_site_fract_x
_atom_site_fract_y
_atom_site_fract_z
O1	O	1.004084	0.095691	-0.068732
O2	O	1.504084	0.595691	0.431268
O3	O	0.783706	0.108148	-0.068736
O4	O	1.283706	0.608148	0.431264
O5	O	0.900118	-0.008269	-0.068732
O6	O	1.400118	0.491731	0.431268
O7	O	0.887672	0.212109	-0.068736
O8	O	1.387672	0.712109	0.431264
O9	O	0.900102	-0.008276	0.068761
O10	O	1.400102	0.491724	0.568761
O11	O	0.783690	0.108141	0.068757
O12	O	1.283690	0.608141	0.568757
O13	O	1.004068	0.095684	0.068761
O14	O	1.504068	0.595684	0.568761
Cu15	Cu	0.893878	0.101912	0.081313
Cu16	Cu	1.393878	0.601912	0.581313
Cu17	Cu	0.893897	0.101920	-0.081289
Cu18	Cu	1.393897	0.601920	0.418711
O19	O	0.887656	0.212101	0.068757
O20	O	1.387656	0.712101	0.568757
C21	C	0.755501	0.107699	0.000010
C22	C	1.255501	0.607699	0.500010
C23	C	0.671482	0.106362	0.000008
C24	C	1.171482	0.606362	0.500008
C25	C	0.899663	-0.036470	0.000013
C26	C	1.399663	0.463530	0.500013
C27	C	0.898322	-0.120487	0.000009
C28	C	1.398322	0.379513	0.500009
C29	C	0.632006	0.105728	0.074957
C30	C	1.132006	0.605728	0.574957
C31	C	0.553064	0.104460	0.074958
C32	C	1.053064	0.604460	0.574958
C33	C	0.513598	0.103831	0.000009
C34	C	1.013598	0.603831	0.500009
C35	C	0.553080	0.104463	-0.074945
C36	C	1.053080	0.604463	0.425055
C37	C	0.632022	0.105726	-0.074945
C38	C	1.132022	0.605726	0.425055
C39	C	0.234716	0.099370	-0.074946
C40	C	0.734716	0.599370	0.425054
C41	C	0.155769	0.098109	-0.074940
C42	C	0.655769	0.598109	0.425060
C43	C	0.155758	0.098104	0.074956
C44	C	0.655758	0.598104	0.574956
C45	C	0.234700	0.099367	0.074956
C46	C	0.734700	0.599367	0.574956
C47	C	0.274176	0.099994	0.000003
C48	C	0.774176	0.599994	0.500003
C49	C	0.359774	0.101368	0.000003
C50	C	0.859774	0.601368	0.500003
C51	C	0.428000	0.102463	0.000009
C52	C	0.928000	0.602463	0.500009
C53	C	0.897702	-0.159951	-0.074939
C54	C	1.397702	0.340049	0.425061
C55	C	0.896438	-0.238894	-0.074940
C56	C	1.396438	0.261106	0.425060
C57	C	0.895798	-0.278373	0.000008
C58	C	1.395798	0.221627	0.500008
C59	C	0.896415	-0.238903	0.074962
C60	C	1.396415	0.261097	0.574962
C61	C	0.897674	-0.159961	0.074962
C62	C	1.397674	0.340039	0.574962
C63	C	0.891335	-0.557268	0.074963
C64	C	1.391335	-0.057268	0.574963
C65	C	0.890077	-0.636216	0.074958
C66	C	1.390077	-0.136216	0.574958
C67	C	0.890098	-0.636201	-0.074939
C68	C	1.390098	-0.136201	0.425061
C69	C	0.891357	-0.557259	-0.074939
C70	C	1.391357	-0.057259	0.425061
C71	C	0.891970	-0.517796	0.000014
C72	C	1.391970	-0.017796	0.500014
C73	C	0.893341	-0.432197	0.000015
C74	C	1.393341	0.067803	0.500015
C75	C	0.894433	-0.363971	0.000009
C76	C	1.394433	0.136029	0.500009
C77	C	1.032274	0.096133	0.000013
C78	C	1.532274	0.596133	0.500013
C79	C	1.116292	0.097470	0.000009
C80	C	1.616292	0.597470	0.500009
C81	C	0.888111	0.240302	0.000010
C82	C	1.388111	0.740302	0.500010
C83	C	0.889452	0.324320	0.000008
C84	C	1.389452	0.824320	0.500008
N85	N	0.893870	0.101905	0.195678
N86	N	1.393870	0.601905	0.695678
N87	N	0.893910	0.101921	-0.195654
N88	N	1.393910	0.601921	0.304346
C89	C	0.945433	0.050376	0.238944
C90	C	1.445433	0.550376	0.738944
C91	C	0.945437	0.050376	0.325491
C92	C	1.445437	0.550376	0.825491
C93	C	0.893881	0.101908	0.368771
C94	C	1.393881	0.601908	0.868771
C95	C	0.842312	0.153439	0.325499
C96	C	1.342312	0.653439	0.825499
C97	C	0.842305	0.153435	0.238953
C98	C	1.342305	0.653435	0.738953
C99	C	0.842338	0.153453	0.674527
C100	C	1.342338	0.653453	1.174527
C101	C	0.842351	0.153454	0.761079
C102	C	1.342351	0.653454	1.261079
C103	C	0.945469	0.050393	0.761065
C104	C	1.445469	0.550393	1.261065
C105	C	0.945463	0.050390	0.674520
C106	C	1.445463	0.550390	1.174520
C107	C	0.893892	0.101918	0.631255
C108	C	1.393892	0.601918	1.131255
C109	C	0.893887	0.101917	0.537411
C110	C	1.393887	0.601917	1.037411
C111	C	0.893888	0.101913	0.462613
C112	C	1.393888	0.601913	0.962613
H113	H	0.664133	0.106247	0.135989
H114	H	1.164133	0.606247	0.635989
H115	H	0.266848	0.099878	-0.135978
H116	H	0.766848	0.599878	0.364022
H117	H	0.520941	0.103946	-0.135969
H118	H	1.020941	0.603946	0.364031
C119	C	0.891229	-0.565230	0.223132
C120	C	1.391229	-0.065230	0.723132
C121	C	0.892040	-0.513902	0.157351
C122	C	1.392040	-0.013902	0.657351
H123	H	0.891677	-0.538454	0.273997
H124	H	1.391677	-0.038454	0.773997
H125	H	0.846616	-0.590157	0.220028
H126	H	1.346616	-0.090157	0.720028
H127	H	0.934854	-0.601881	0.219989
H128	H	1.434854	-0.101881	0.719989
H129	H	0.848412	-0.477253	0.160491
H130	H	1.348412	0.022747	0.660491
H131	H	0.936658	-0.488962	0.160457
H132	H	1.436658	0.011038	0.660457
C133	C	0.891241	-0.565173	-0.223112
C134	C	1.391241	-0.065173	0.276888
C135	C	0.892057	-0.513864	-0.157325
C136	C	1.392057	-0.013864	0.342675
H137	H	0.891666	-0.538381	-0.273973
H138	H	1.391666	-0.038381	0.226027
H139	H	0.934867	-0.601814	-0.219997
H140	H	1.434867	-0.101814	0.280003
H141	H	0.846628	-0.590114	-0.219987
H142	H	1.346628	-0.090114	0.280013
H143	H	0.936672	-0.488928	-0.160446
H144	H	1.436672	0.011072	0.339554
H145	H	0.848426	-0.477210	-0.160440
H146	H	1.348426	0.022790	0.339560
H147	H	0.664162	0.106243	-0.135976
H148	H	1.164162	0.606243	0.364024
C149	C	0.899591	-0.038952	0.141522
C150	C	1.399591	0.461048	0.641522
C151	C	0.898356	-0.116579	0.157348
C152	C	1.398356	0.383421	0.657348
H153	H	0.900004	-0.012171	0.192385
H154	H	1.400004	0.487829	0.692385
H155	H	0.943918	-0.031868	0.110735
H156	H	1.443918	0.468132	0.610735
H157	H	0.855680	-0.020169	0.110722
H158	H	1.355680	0.479831	0.610722
H159	H	0.942270	-0.135363	0.188142
H160	H	1.442270	0.364637	0.688142
H161	H	0.854024	-0.123667	0.188147
H162	H	1.354024	0.376333	0.688147
C163	C	1.047402	-0.051486	0.752357
C164	C	1.547402	0.448514	1.252357
C165	C	1.002150	-0.006259	0.808623
C166	C	1.502150	0.493741	1.308623
H167	H	1.082396	-0.086456	0.781717
H168	H	1.582396	0.413544	1.281717
H169	H	1.015946	-0.078668	0.718611
H170	H	1.515946	0.421332	1.218611
H171	H	1.074563	-0.020006	0.718592
H172	H	1.574563	0.479994	1.218592
H173	H	0.974984	-0.037738	0.842384
H174	H	1.474984	0.462262	1.342384
H175	H	1.033610	0.020925	0.842383
H176	H	1.533610	0.520925	1.342383
C177	C	1.047388	-0.051477	0.316785
C178	C	1.547388	0.448523	0.816785
C179	C	1.002128	-0.006255	0.373049
C180	C	1.502128	0.493745	0.873049
H181	H	1.082392	-0.086434	0.346147
H182	H	1.582392	0.413566	0.846147
H183	H	1.015939	-0.078673	0.283046
H184	H	1.515939	0.421327	0.783046
H185	H	1.074536	-0.019991	0.283013
H186	H	1.574536	0.480009	0.783013
H187	H	0.974975	-0.037740	0.406817
H188	H	1.474975	0.462260	0.906817
H189	H	1.033581	0.020943	0.406802
H190	H	1.533581	0.520943	0.906802
C191	C	0.961897	-0.052756	0.577378
C192	C	1.461897	0.447244	1.077378
C193	C	1.002064	-0.006389	0.627027
C194	C	1.502064	0.493611	1.127027
H195	H	0.996821	-0.087847	0.548081
H196	H	1.496821	0.412153	1.048081
H197	H	0.930379	-0.079800	0.611210
H198	H	1.430379	0.420200	1.111210
H199	H	0.931259	-0.022066	0.539162
H200	H	1.431259	0.477934	1.039162
H201	H	1.032698	-0.037079	0.665248
H202	H	1.532698	0.462921	1.165248
H203	H	1.033596	0.020658	0.593192
H204	H	1.533596	0.520658	1.093192
H205	H	0.898228	-0.127813	-0.135971
H206	H	1.398228	0.372187	0.364029
C207	C	0.560980	0.104599	0.223128
C208	C	1.060980	0.604599	0.723128
C209	C	0.509671	0.103771	0.157344
C210	C	1.009671	0.603771	0.657344
H211	H	0.534189	0.104178	0.273990
H212	H	1.034189	0.604178	0.773990
H213	H	0.597624	0.060975	0.220016
H214	H	1.097624	0.560975	0.720016
H215	H	0.585917	0.149214	0.219996
H216	H	1.085917	0.649214	0.719996
H217	H	0.484738	0.059153	0.160472
H218	H	0.984738	0.559153	0.660472
H219	H	0.473014	0.147399	0.160457
H220	H	0.973014	0.647399	0.660457
C221	C	0.740397	0.255319	0.752404
C222	C	1.240397	0.755319	1.252404
C223	C	0.785669	0.210095	0.808654
C224	C	1.285669	0.710095	1.308654
H225	H	0.705404	0.290281	0.781777
H226	H	1.205404	0.790281	1.281777
H227	H	0.771840	0.282509	0.718638
H228	H	1.271840	0.782509	1.218638
H229	H	0.713235	0.223835	0.718658
H230	H	1.213235	0.723835	1.218658
H231	H	0.812835	0.241579	0.842396
H232	H	1.312835	0.741579	1.342396
H233	H	0.754222	0.182903	0.842434
H234	H	1.254222	0.682903	1.342434
H235	H	0.800349	0.195410	0.639308
H236	H	1.300349	0.695410	1.139308
C237	C	0.226760	0.099225	0.223129
C238	C	0.726760	0.599225	0.723129
C239	C	0.278081	0.100054	0.157342
C240	C	0.778081	0.600054	0.657342
H241	H	0.253543	0.099643	0.273990
H242	H	0.753543	0.599643	0.773990
H243	H	0.190119	0.142851	0.220014
H244	H	0.690119	0.642851	0.720014
H245	H	0.201822	0.054612	0.220004
H246	H	0.701822	0.554612	0.720004
H247	H	0.303014	0.144671	0.160463
H248	H	0.803014	0.644671	0.660463
H249	H	0.314735	0.056425	0.160458
H250	H	0.814735	0.556425	0.660458
C251	C	0.796539	0.199213	0.458171
C252	C	1.296539	0.699213	0.958171
C253	C	0.785642	0.210086	0.373070
C254	C	1.285642	0.710086	0.873070
H255	H	0.761556	0.234191	0.487537
H256	H	1.261556	0.734191	0.987537
H257	H	0.788412	0.148717	0.472362
H258	H	1.288412	0.648717	0.972362
H259	H	0.847038	0.207370	0.472331
H260	H	1.347038	0.707370	0.972331
H261	H	0.735144	0.201924	0.358910
H262	H	1.235144	0.701924	0.858910
H263	H	0.793763	0.260594	0.358874
H264	H	1.293763	0.760594	0.858874
C265	C	0.740381	0.255317	0.247654
C266	C	1.240381	0.755317	0.747654
C267	C	0.785629	0.210081	0.191392
C268	C	1.285629	0.710081	0.691392
H269	H	0.705393	0.290289	0.218291
H270	H	1.205393	0.790289	0.718291
H271	H	0.713220	0.223848	0.281420
H272	H	1.213220	0.723848	0.781420
H273	H	0.771844	0.282501	0.281400
H274	H	1.271844	0.782501	0.781400
H275	H	0.754166	0.182892	0.157650
H276	H	1.254166	0.682892	0.657650
H277	H	0.812792	0.241554	0.157613
H278	H	1.312792	0.741554	0.657613
C279	C	0.896651	-0.230958	-0.223110
C280	C	1.396651	0.269042	0.276890
C281	C	0.895799	-0.282277	-0.157326
C282	C	1.395799	0.217723	0.342674
H283	H	0.896272	-0.257745	-0.273973
H284	H	1.396272	0.242255	0.226027
H285	H	0.853015	-0.194328	-0.220023
H286	H	1.353015	0.305672	0.279977
H287	H	0.941254	-0.206006	-0.219954
H288	H	1.441254	0.293994	0.280046
H289	H	0.851193	-0.307225	-0.160479
H290	H	1.351193	0.192775	0.339521
H291	H	0.939439	-0.318921	-0.160415
H292	H	1.439439	0.181079	0.339585
H293	H	0.889594	-0.668340	-0.135970
H294	H	1.389594	-0.168340	0.364030
H295	H	0.123608	0.097590	0.135987
H296	H	0.623608	0.597590	0.635987
H297	H	0.123638	0.097597	-0.135976
H298	H	0.623638	0.597597	0.364024
H299	H	0.889554	-0.668358	0.135993
H300	H	1.389554	-0.168358	0.635993
C301	C	0.894489	-0.359923	0.141523
C302	C	1.394489	0.140077	0.641523
C303	C	0.895718	-0.282298	0.157348
C304	C	1.395718	0.217702	0.657348
H305	H	0.894067	-0.386711	0.192387
H306	H	1.394067	0.113289	0.692387
H307	H	0.850169	-0.367005	0.110736
H308	H	1.350169	0.132995	0.610736
H309	H	0.938408	-0.378700	0.110723
H310	H	1.438408	0.121300	0.610723
H311	H	0.851797	-0.263519	0.188143
H312	H	1.351797	0.236481	0.688143
H313	H	0.940043	-0.275211	0.188148
H314	H	1.440043	0.224789	0.688148
H315	H	0.987419	0.008416	0.203712
H316	H	1.487419	0.508416	0.703712
