data_functionalizedCrystal
_audit_creation_method	'MofGen! by Chris Wilmer'
_symmetry_space_group_name_H-M	'P1'
_symmetry_Int_Tables_number	1
_symmetry_cell_setting	triclinic
loop_
_symmetry_equiv_pos_as_xyz
  x,y,z
_cell_length_a	19.188929
_cell_length_b	19.288840
_cell_length_c	18.366186
_cell_angle_alpha	89.983729
_cell_angle_beta	90.028034
_cell_angle_gamma	96.864604
loop_
_atom_site_label
_atom_site_type_symbol
_atom_site_fract_x
_atom_site_fract_y
_atom_site_fract_z
O1	O	-0.087016	0.921370	-0.060706
O2	O	0.246317	1.254704	0.272628
O3	O	0.579651	1.588037	0.605961
O4	O	-0.098784	0.719108	-0.060685
O5	O	0.234550	1.052441	0.272648
O6	O	0.567883	1.385775	0.605981
O7	O	0.008757	0.826076	-0.060651
O8	O	0.342090	1.159409	0.272682
O9	O	0.675424	1.492743	0.606016
O10	O	-0.194556	0.814402	-0.060740
O11	O	0.138777	1.147736	0.272593
O12	O	0.472110	1.481069	0.605927
O13	O	0.008762	0.826058	0.060448
O14	O	0.342095	1.159391	0.393782
O15	O	0.675429	1.492725	0.727115
O16	O	-0.098778	0.719090	0.060414
O17	O	0.234555	1.052423	0.393747
O18	O	0.567888	1.385757	0.727081
O19	O	-0.087011	0.921352	0.060394
O20	O	0.246323	1.254686	0.393727
O21	O	0.579656	1.588019	0.727060
Zn22	Zn	-0.092894	0.820218	0.079631
Zn23	Zn	0.240440	1.153552	0.412964
Zn24	Zn	0.573773	1.486885	0.746298
Zn25	Zn	-0.092901	0.820242	-0.079923
Zn26	Zn	0.240433	1.153575	0.253411
Zn27	Zn	0.573766	1.486909	0.586744
O28	O	-0.194551	0.814384	0.060359
O29	O	0.138782	1.147718	0.393693
O30	O	0.472116	1.481051	0.727026
C31	C	-0.098405	0.693222	-0.000132
C32	C	0.234928	1.026556	0.333201
C33	C	0.568261	1.359889	0.666535
C34	C	-0.097277	0.616118	-0.000122
C35	C	0.236056	0.949451	0.333211
C36	C	0.569389	1.282784	0.666545
C37	C	-0.096738	0.579924	-0.066135
C38	C	0.236595	0.913257	0.267198
C39	C	0.569928	1.246591	0.600532
C40	C	-0.095671	0.507477	-0.066143
C41	C	0.237662	0.840810	0.267190
C42	C	0.570996	1.174144	0.600523
C43	C	-0.095128	0.471228	-0.000135
C44	C	0.238205	0.804562	0.333198
C45	C	0.571538	1.137895	0.666532
C46	C	-0.095671	0.507430	0.065886
C47	C	0.237662	0.840764	0.399220
C48	C	0.570995	1.174097	0.732553
C49	C	-0.096746	0.579875	0.065893
C50	C	0.236587	0.913208	0.399226
C51	C	0.569921	1.246542	0.732560
C52	C	-0.052528	0.361890	0.050445
C53	C	0.280805	0.695223	0.383778
C54	C	0.614139	1.028557	0.717111
C55	C	-0.051449	0.289447	0.050435
C56	C	0.281884	0.622781	0.383769
C57	C	0.615218	0.956114	0.717102
C58	C	-0.091817	0.247784	-0.000153
C59	C	0.241516	0.581118	0.333181
C60	C	0.574850	0.914451	0.666514
C61	C	-0.133255	0.278575	-0.050744
C62	C	0.200078	0.611908	0.282590
C63	C	0.533412	0.945241	0.615923
C64	C	-0.134330	0.351019	-0.050737
C65	C	0.199004	0.684353	0.282596
C66	C	0.532337	1.017686	0.615930
C67	C	-0.093963	0.392674	-0.000135
C68	C	0.239370	0.726008	0.333198
C69	C	0.572703	1.059341	0.666532
C70	C	-0.090121	0.133035	-0.066179
C71	C	0.243212	0.466369	0.267154
C72	C	0.576545	0.799702	0.600487
C73	C	-0.089058	0.060586	-0.066185
C74	C	0.244275	0.393920	0.267148
C75	C	0.577608	0.727253	0.600482
C76	C	-0.089052	0.060542	0.065847
C77	C	0.244282	0.393875	0.399180
C78	C	0.577615	0.727209	0.732513
C79	C	-0.090122	0.132989	0.065851
C80	C	0.243211	0.466322	0.399184
C81	C	0.576545	0.799655	0.732517
C82	C	-0.090653	0.169231	-0.000164
C83	C	0.242680	0.502565	0.333169
C84	C	0.576013	0.835898	0.666502
C85	C	-0.220565	0.814771	-0.000202
C86	C	0.112769	1.148105	0.333131
C87	C	0.446102	1.481438	0.666465
C88	C	-0.298069	0.815906	-0.000237
C89	C	0.035264	1.149240	0.333097
C90	C	0.368598	1.482573	0.666430
C91	C	-0.343003	0.753141	-0.000216
C92	C	-0.009670	1.086474	0.333118
C93	C	0.323663	1.419808	0.666451
C94	C	-0.415827	0.754207	-0.000199
C95	C	-0.082494	1.087540	0.333134
C96	C	0.250840	1.420874	0.666467
C97	C	-0.443713	0.818042	-0.000189
C98	C	-0.110380	1.151375	0.333144
C99	C	0.222954	1.484709	0.666477
C100	C	-0.398769	0.880816	-0.000215
C101	C	-0.065435	1.214149	0.333119
C102	C	0.267898	1.547482	0.666452
C103	C	-0.325947	0.879748	-0.000238
C104	C	0.007387	1.213081	0.333095
C105	C	0.340720	1.546414	0.666428
N106	N	-0.551672	0.866830	0.041064
N107	N	-0.218338	1.200163	0.374398
N108	N	0.114995	1.533496	0.707731
N109	N	-0.620850	0.867840	0.041088
N110	N	-0.287517	1.201173	0.374422
N111	N	0.045817	1.534506	0.707755
C112	C	-0.663121	0.821263	-0.000120
C113	C	-0.329788	1.154597	0.333214
C114	C	0.003546	1.487930	0.666547
N115	N	-0.633602	0.773628	-0.041344
N116	N	-0.300268	1.106961	0.291990
N117	N	0.033065	1.440295	0.625323
N118	N	-0.564417	0.772616	-0.041364
N119	N	-0.231084	1.105949	0.291969
N120	N	0.102249	1.439283	0.625302
C121	C	-0.522675	0.819207	-0.000164
C122	C	-0.189342	1.152540	0.333169
C123	C	0.143991	1.485874	0.666502
C124	C	-0.787020	0.759650	-0.000082
C125	C	-0.453686	1.092983	0.333251
C126	C	-0.120353	1.426316	0.666585
C127	C	-0.859844	0.760719	-0.000070
C128	C	-0.526511	1.094052	0.333263
C129	C	-0.193178	1.427385	0.666597
C130	C	-0.842784	0.887329	-0.000078
C131	C	-0.509451	1.220662	0.333255
C132	C	-0.176118	1.553996	0.666589
C133	C	-0.769961	0.886258	-0.000097
C134	C	-0.436628	1.219592	0.333236
C135	C	-0.103295	1.552925	0.666569
C136	C	-0.742084	0.822417	-0.000096
C137	C	-0.408750	1.155750	0.333238
C138	C	-0.075417	1.489084	0.666571
C139	C	0.034770	0.825689	-0.000091
C140	C	0.368104	1.159022	0.333242
C141	C	0.701437	1.492356	0.666575
C142	C	0.112275	0.824554	-0.000061
C143	C	0.445608	1.157887	0.333272
C144	C	0.778941	1.491221	0.666605
C145	C	-0.087389	0.947238	-0.000161
C146	C	0.245944	1.280571	0.333172
C147	C	0.579278	1.613905	0.666506
C148	C	-0.088517	1.024343	-0.000176
C149	C	0.244816	1.357676	0.333157
C150	C	0.578150	1.691009	0.666491
N151	N	-0.092888	0.820207	0.188522
N152	N	0.240445	1.153540	0.521855
N153	N	0.573778	1.486874	0.855189
N154	N	-0.092900	0.820259	-0.188814
N155	N	0.240433	1.153592	0.144520
N156	N	0.573766	1.486926	0.477853
C157	C	-0.045293	0.867588	0.226638
C158	C	0.288040	1.200921	0.559971
C159	C	0.621374	1.534255	0.893304
C160	C	-0.045290	0.867592	0.302865
C161	C	0.288044	1.200926	0.636199
C162	C	0.621377	1.534259	0.969532
C163	C	-0.092894	0.820222	0.340975
C164	C	0.240439	1.153556	0.674308
C165	C	0.573772	1.486889	1.007642
C166	C	-0.140494	0.772833	0.302850
C167	C	0.192840	1.106166	0.636184
C168	C	0.526173	1.439499	0.969517
C169	C	-0.140491	0.772825	0.226624
C170	C	0.192843	1.106158	0.559957
C171	C	0.526176	1.439492	0.893290
C172	C	-0.156512	0.810929	0.461708
C173	C	0.176821	1.144262	0.795041
C174	C	0.510155	1.477596	1.128375
C175	C	-0.156516	0.810941	0.537933
C176	C	0.176818	1.144275	0.871266
C177	C	0.510151	1.477608	1.204600
C178	C	-0.092903	0.820242	0.576082
C179	C	0.240430	1.153575	0.909416
C180	C	0.573764	1.486909	1.242749
C181	C	-0.029284	0.829545	0.537997
C182	C	0.304050	1.162878	0.871331
C183	C	0.637383	1.496212	1.204664
C184	C	-0.029281	0.829537	0.461771
C185	C	0.304053	1.162871	0.795104
C186	C	0.637386	1.496204	1.128438
C187	C	-0.092902	0.820225	0.423630
C188	C	0.240431	1.153559	0.756963
C189	C	0.573764	1.486892	1.090296
C190	C	-0.045300	0.867630	0.696853
C191	C	0.288033	1.200964	1.030186
C192	C	0.621367	1.534297	1.363519
C193	C	-0.045296	0.867630	0.773082
C194	C	0.288037	1.200963	1.106415
C195	C	0.621371	1.534297	1.439749
C196	C	-0.140506	0.772874	0.773065
C197	C	0.192828	1.106207	1.106399
C198	C	0.526161	1.439540	1.439732
C199	C	-0.140504	0.772871	0.696838
C200	C	0.192830	1.106204	1.030171
C201	C	0.526163	1.439537	1.363504
C202	C	-0.092902	0.820253	0.658736
C203	C	0.240432	1.153586	0.992069
C204	C	0.573765	1.486919	1.325403
H205	H	-0.097171	0.609428	-0.119890
H206	H	0.236162	0.942762	0.213444
H207	H	0.569495	1.276095	0.546777
H208	H	-0.168071	0.376085	-0.091928
H209	H	0.165262	0.709419	0.241405
H210	H	0.498595	1.042752	0.574738
Br211	Br	0.019310	0.931888	0.174928
Br212	Br	0.352644	1.265221	0.508261
Br213	Br	0.685977	1.598554	0.841594
Br214	Br	-0.749181	0.673010	-0.000082
Br215	Br	-0.415848	1.006344	0.333251
Br216	Br	-0.082514	1.339677	0.666585
H217	H	-0.006530	0.906177	0.333905
H218	H	0.326803	1.239510	0.667238
H219	H	0.660137	1.572843	1.000571
Br220	Br	0.019304	0.931931	0.645141
Br221	Br	0.352638	1.265265	0.978475
Br222	Br	0.685971	1.598598	1.311808
H223	H	-0.452420	0.703094	-0.000181
H224	H	-0.119086	1.036428	0.333153
H225	H	0.214247	1.369761	0.666486
H226	H	-0.017704	0.264384	0.091626
H227	H	0.315629	0.597718	0.424960
H228	H	0.648962	0.931051	0.758293
H229	H	-0.179263	0.734292	0.665802
H230	H	0.154070	1.067625	0.999135
H231	H	0.487403	1.400958	1.332468
Br232	Br	-0.436612	0.967450	-0.000209
Br233	Br	-0.103279	1.300783	0.333124
Br234	Br	0.230055	1.634116	0.666458
Br235	Br	-0.094941	0.458346	-0.155739
Br236	Br	0.238392	0.791679	0.177595
Br237	Br	0.571726	1.125012	0.510928
Br238	Br	-0.090851	0.182113	0.155445
Br239	Br	0.242482	0.515446	0.488778
Br240	Br	0.575815	0.848779	0.822111
Br241	Br	-0.097479	0.628998	0.155489
Br242	Br	0.235854	0.962332	0.488822
Br243	Br	0.569188	1.295665	0.822156
H244	H	-0.019654	0.395807	0.091643
H245	H	0.313680	0.729140	0.424976
H246	H	0.647013	1.062473	0.758310
Br247	Br	-0.264960	0.964936	-0.000267
Br248	Br	0.068373	1.298269	0.333066
Br249	Br	0.401707	1.631603	0.666399
H250	H	0.022520	0.837110	0.430765
H251	H	0.355854	1.170444	0.764099
H252	H	0.689187	1.503777	1.097432
Br253	Br	-0.920829	0.675529	-0.000054
Br254	Br	-0.587496	1.008863	0.333279
Br255	Br	-0.254163	1.342196	0.666613
H256	H	-0.095231	0.477912	0.119631
H257	H	0.238102	0.811245	0.452964
H258	H	0.571436	1.144578	0.786297
Br259	Br	-0.242855	0.798324	0.589612
Br260	Br	0.090479	1.131657	0.922945
Br261	Br	0.423812	1.464991	1.256279
Br262	Br	-0.242853	0.798375	0.409942
Br263	Br	0.090480	1.131709	0.743275
Br264	Br	0.423813	1.465042	1.076608
H265	H	-0.865488	0.939305	-0.000123
H266	H	-0.532155	1.272638	0.333210
H267	H	-0.198822	1.605971	0.666544
H268	H	-0.733375	0.937369	-0.000110
H269	H	-0.400041	1.270702	0.333224
H270	H	-0.066708	1.604035	0.666557
H271	H	-0.166129	0.244654	-0.091935
H272	H	0.167204	0.577987	0.241398
H273	H	0.500537	0.911320	0.574732
Br274	Br	0.057054	0.842177	0.589761
Br275	Br	0.390388	1.175510	0.923095
Br276	Br	0.723721	1.508844	1.256428
Br277	Br	0.019309	0.931931	0.824815
Br278	Br	0.352642	1.265265	1.158148
Br279	Br	0.685976	1.598598	1.491481
H280	H	-0.320310	0.701156	-0.000221
H281	H	0.013023	1.034490	0.333113
H282	H	0.346356	1.367823	0.666446
H283	H	-0.179264	0.734302	0.804093
H284	H	0.154070	1.067635	1.137427
H285	H	0.487403	1.400968	1.470760
H286	H	-0.179253	0.734262	0.333883
H287	H	0.154081	1.067596	0.667216
H288	H	0.487414	1.400929	1.000549
H289	H	-0.090562	0.162545	-0.119933
H290	H	0.242772	0.495878	0.213401
H291	H	0.576105	0.829211	0.546734
Br292	Br	-0.088336	0.011463	-0.155782
Br293	Br	0.244998	0.344797	0.177551
Br294	Br	0.578331	0.678130	0.510884
Br295	Br	-0.205089	0.708517	0.174891
Br296	Br	0.128244	1.041850	0.508224
Br297	Br	0.461578	1.375184	0.841558
Br298	Br	-0.088326	0.011354	0.155431
Br299	Br	0.245008	0.344687	0.488765
Br300	Br	0.578341	0.678021	0.822098
