data_functionalizedCrystal
_audit_creation_method	'MofGen! by Chris Wilmer'
_symmetry_space_group_name_H-M	'P1'
_symmetry_Int_Tables_number	1
_symmetry_cell_setting	triclinic
loop_
_symmetry_equiv_pos_as_xyz
  x,y,z
_cell_length_a	10.654550
_cell_length_b	16.109301
_cell_length_c	9.130313
_cell_angle_alpha	89.997330
_cell_angle_beta	89.996220
_cell_angle_gamma	83.973192
loop_
_atom_site_label
_atom_site_type_symbol
_atom_site_fract_x
_atom_site_fract_y
_atom_site_fract_z
O1	O	1.666250	0.116770	-0.121925
O2	O	1.300621	0.127896	-0.121902
O3	O	1.493479	0.001362	-0.121899
O4	O	1.473391	0.243304	-0.121928
O5	O	1.493477	0.001365	0.121700
O6	O	1.300618	0.127899	0.121697
O7	O	1.666248	0.116774	0.121674
Cu8	Cu	1.483433	0.122337	0.143928
Cu9	Cu	1.483435	0.122333	-0.144156
O10	O	1.473389	0.243308	0.121671
C11	C	1.253832	0.127080	-0.000099
C12	C	1.114422	0.124636	-0.000090
C13	C	1.033926	0.199138	-0.000120
C14	C	0.902936	0.196836	-0.000145
C15	C	0.932952	0.045526	-0.000116
C16	C	1.063939	0.047828	-0.000081
C17	C	1.016595	0.286496	-0.000143
C18	C	0.885606	0.284194	-0.000168
C19	C	1.492665	-0.029616	-0.000099
C20	C	1.490225	-0.121926	-0.000097
C21	C	1.598991	-0.343552	-0.000127
C22	C	1.596689	-0.430286	-0.000139
C23	C	1.367868	-0.411772	-0.000119
C24	C	1.370172	-0.325040	-0.000117
C25	C	1.485737	-0.290932	-0.000114
C26	C	1.481131	-0.464399	-0.000127
C27	C	1.478634	-0.558440	-0.000140
C28	C	1.488234	-0.196885	-0.000104
C29	C	1.713036	0.117589	-0.000132
C30	C	1.852446	0.120033	-0.000151
C31	C	1.474204	0.274286	-0.000132
C32	C	1.476643	0.366595	-0.000144
N33	N	1.483440	0.122339	0.346551
N34	N	1.483438	0.122324	-0.346779
C35	C	1.568859	0.066329	0.423204
C36	C	1.568856	0.066319	0.576541
C37	C	1.398010	0.178336	0.576558
C38	C	1.398008	0.178342	0.423223
C39	C	1.667500	0.001659	0.423195
C40	C	1.667497	0.001649	0.576532
H41	H	1.045462	0.320663	0.101804
O42	O	1.314855	0.232652	0.650977
C43	C	1.096477	0.280047	0.697840
C44	C	1.190511	0.218473	0.613499
H45	H	0.995924	0.268617	0.667548
H46	H	1.111037	0.270420	0.820617
H47	H	1.112866	0.346736	0.667718
H48	H	1.174179	0.151760	0.643499
H49	H	1.175928	0.228173	0.490743
H50	H	1.763815	0.015894	0.618141
O51	O	1.711167	-0.310320	-0.000334
C52	C	1.846590	-0.223179	-0.126602
C53	C	1.719492	-0.260740	-0.126525
H54	H	1.853374	-0.183099	-0.228632
H55	H	1.853417	-0.182985	-0.024726
H56	H	1.927119	-0.275703	-0.126546
H57	H	1.638890	-0.208269	-0.126632
H58	H	1.712775	-0.300955	-0.228392
O59	O	1.706821	-0.481281	-0.000082
C60	C	1.934022	-0.490486	-0.000182
C61	C	1.809387	-0.432638	-0.000209
H62	H	2.016979	-0.451181	-0.000316
H63	H	1.938752	-0.531545	0.101783
H64	H	1.938597	-0.531566	-0.102109
H65	H	1.804728	-0.391507	0.101648
H66	H	1.804708	-0.391636	-0.102242
O67	O	1.255724	-0.445044	-0.000043
C68	C	1.150763	-0.570454	-0.000112
C69	C	1.277856	-0.532888	-0.000170
H70	H	1.168613	-0.641480	-0.000245
H71	H	1.094783	-0.548898	0.101864
H72	H	1.094795	-0.548785	-0.102027
H73	H	1.333927	-0.554540	0.101677
H74	H	1.333741	-0.554440	-0.102213
H75	H	1.277941	-0.282194	-0.000111
O76	O	1.643157	-0.074599	0.373460
C77	C	1.717549	-0.195907	0.231304
C78	C	1.745300	-0.109574	0.287564
H79	H	1.800102	-0.224202	0.161820
H80	H	1.703881	-0.238575	0.328348
H81	H	1.628060	-0.188829	0.162007
H82	H	1.834798	-0.116572	0.356837
H83	H	1.758889	-0.066937	0.190454
O84	O	0.830875	0.315751	0.125349
C85	C	0.862235	0.377294	0.361329
C86	C	0.924378	0.341600	0.219244
H87	H	0.937806	0.398186	0.437294
H88	H	0.790998	0.432965	0.334007
H89	H	0.811893	0.327092	0.417916
H90	H	0.974788	0.391741	0.162587
H91	H	0.995547	0.285909	0.246661
H92	H	1.051874	0.314310	-0.105318
O93	O	1.315147	0.232862	0.348833
C94	C	1.241411	0.376974	0.302011
C95	C	1.335346	0.315320	0.386319
H96	H	1.257692	0.443655	0.332311
H97	H	1.256074	0.367436	0.179229
H98	H	1.140855	0.365467	0.332156
H99	H	1.435940	0.326790	0.356297
H100	H	1.320574	0.324873	0.509080
O101	O	1.775942	0.025940	0.366633
C102	C	1.913810	0.134961	0.350150
C103	C	1.790985	0.107553	0.414316
H104	H	1.925998	0.200954	0.388651
H105	H	1.997499	0.090422	0.388743
H106	H	1.908817	0.133814	0.225452
H107	H	1.795854	0.108705	0.539015
H108	H	1.707347	0.152098	0.375609
O109	O	1.141955	-0.024620	-0.000098
C110	C	1.157899	-0.174942	0.000050
C111	C	1.069402	-0.092954	0.000031
H112	H	1.099275	-0.230211	0.000186
H113	H	1.219982	-0.177717	-0.101898
H114	H	1.219968	-0.177589	0.101993
H115	H	1.007254	-0.090252	-0.101843
H116	H	1.007405	-0.090213	0.102047
O117	O	0.883701	-0.029011	-0.000180
C118	C	0.695213	-0.099618	-0.000124
C119	C	0.750816	-0.015147	-0.000083
H120	H	0.587769	-0.088438	-0.000014
H121	H	0.728299	-0.136488	-0.102082
H122	H	0.728421	-0.136468	0.101810
H123	H	0.717634	0.021771	-0.101948
H124	H	0.717736	0.021661	0.101942
O125	O	1.632144	-0.070469	0.633038
C126	C	1.565553	-0.205930	0.582146
C127	C	1.605575	-0.124306	0.517956
H128	H	1.544035	-0.249473	0.489134
H129	H	1.645284	-0.237447	0.652346
H130	H	1.477618	-0.191269	0.652500
H131	H	1.693480	-0.138895	0.447537
H132	H	1.525770	-0.092812	0.447840
O133	O	0.835187	0.323572	-0.121648
C134	C	0.691095	0.435850	-0.217201
C135	C	0.748117	0.391350	-0.079514
H136	H	0.620668	0.490647	-0.183186
H137	H	0.769564	0.459730	-0.285184
H138	H	0.640772	0.390072	-0.285179
H139	H	0.798428	0.437079	-0.011423
H140	H	0.669595	0.367455	-0.011642
