data_functionalizedCrystal
_audit_creation_method	'MofGen! by Chris Wilmer'
_symmetry_space_group_name_H-M	'P1'
_symmetry_Int_Tables_number	1
_symmetry_cell_setting	triclinic
loop_
_symmetry_equiv_pos_as_xyz
  x,y,z
_cell_length_a	18.215407
_cell_length_b	12.645330
_cell_length_c	18.215399
_cell_angle_alpha	90.023030
_cell_angle_beta	90.019833
_cell_angle_gamma	90.018140
loop_
_atom_site_label
_atom_site_type_symbol
_atom_site_fract_x
_atom_site_fract_y
_atom_site_fract_z
Zn1	Zn	1.125109	-0.422038	0.416141
Zn2	Zn	1.625109	0.077962	0.916141
Zn3	Zn	1.125033	-0.599320	0.293085
Zn4	Zn	1.625033	-0.099320	0.793085
Zn5	Zn	1.002041	-0.422072	0.293088
Zn6	Zn	1.502041	0.077928	0.793088
Zn7	Zn	1.002023	-0.599261	0.416110
Zn8	Zn	1.502023	-0.099261	0.916110
O9	O	1.063551	-0.510673	0.354606
O10	O	1.563551	-0.010673	0.854606
O11	O	1.228083	-0.445565	0.399829
O12	O	1.728083	0.054435	0.899829
O13	O	1.108693	-0.575847	0.190101
O14	O	1.608693	-0.075847	0.690101
O15	O	1.018406	-0.273720	0.309426
O16	O	1.518406	0.226280	0.809426
O17	O	1.228027	-0.575813	0.309421
O18	O	1.728027	-0.075813	0.809421
O19	O	1.108823	-0.273695	0.399832
O20	O	1.608823	0.226305	0.899832
O21	O	1.018332	-0.445624	0.190104
O22	O	1.518332	0.054376	0.690104
O23	O	0.899055	-0.445566	0.309396
O24	O	1.399055	0.054434	0.809396
O25	O	1.018374	-0.575713	0.519099
O26	O	1.518374	-0.075713	1.019099
O27	O	0.899041	-0.575746	0.399780
O28	O	1.399041	-0.075746	0.899780
O29	O	1.108805	-0.445507	0.519121
O30	O	1.608805	0.054493	1.019121
O31	O	1.108675	-0.747659	0.309391
O32	O	1.608675	-0.247659	0.809391
O33	O	1.018300	-0.747616	0.399777
O34	O	1.518300	-0.247616	0.899777
C35	C	0.872345	-0.510654	0.354585
C36	C	1.372345	-0.010654	0.854585
C37	C	0.790546	-0.510672	0.354594
C38	C	1.290546	-0.010672	0.854594
C39	C	0.602364	-0.578563	0.401597
C40	C	1.102364	-0.078563	0.901597
C41	C	0.525506	-0.578567	0.401606
C42	C	1.025506	-0.078567	0.901606
C43	C	0.525490	-0.442801	0.307631
C44	C	1.025490	0.057199	0.807631
C45	C	0.602348	-0.442793	0.307626
C46	C	1.102348	0.057207	0.807626
C47	C	0.640783	-0.510680	0.354608
C48	C	1.140783	-0.010680	0.854608
C49	C	0.487067	-0.510692	0.354622
C50	C	0.987067	-0.010692	0.854622
C51	C	0.403733	-0.510695	0.354632
C52	C	0.903733	-0.010695	0.854632
C53	C	0.724122	-0.510676	0.354600
C54	C	1.224122	-0.010676	0.854600
C55	C	1.063498	-0.786102	0.354596
C56	C	1.563498	-0.286102	0.854596
C57	C	1.063542	-0.903932	0.354616
C58	C	1.563542	-0.403932	0.854616
C59	C	1.006922	-1.071513	0.411653
C60	C	1.506922	-0.571513	0.911653
C61	C	1.006632	-0.948954	0.411470
C62	C	1.506632	-0.448954	0.911470
C63	C	1.042549	-0.948523	0.277058
C64	C	1.542549	-0.448523	0.777058
C65	C	1.042203	-1.071122	0.277404
C66	C	1.542203	-0.571122	0.777404
C67	C	1.141502	-1.071022	0.374509
C68	C	1.641502	-0.571022	0.874509
C69	C	1.141024	-0.948415	0.376205
C70	C	1.641024	-0.448415	0.876205
C71	C	1.255504	-0.510692	0.354628
C72	C	1.755504	-0.010692	0.854628
C73	C	1.337303	-0.510700	0.354637
C74	C	1.837303	-0.010700	0.854637
C75	C	1.063596	-0.510600	0.546559
C76	C	1.563596	-0.010600	1.046559
C77	C	1.063615	-0.510568	0.628358
C78	C	1.563615	-0.010568	1.128358
C79	C	1.063625	-0.234167	0.354633
C80	C	1.563625	0.265833	0.854633
C81	C	1.063657	-0.116337	0.354644
C82	C	1.563657	0.383663	0.854644
C83	C	1.063549	-0.510669	0.163400
C84	C	1.563549	-0.010669	0.663400
C85	C	1.063672	-0.510401	0.081602
C86	C	1.563672	-0.010401	0.581602
C87	C	1.110720	-0.442707	0.816565
C88	C	1.610720	0.057293	1.316565
C89	C	1.110728	-0.442676	0.893424
C90	C	1.610728	0.057324	1.393424
C91	C	1.016563	-0.578266	0.893389
C92	C	1.516563	-0.078266	1.393389
C93	C	1.016551	-0.578290	0.816532
C94	C	1.516551	-0.078290	1.316532
C95	C	1.063634	-0.510513	0.778122
C96	C	1.563634	-0.010513	1.278122
C97	C	1.063654	-0.510457	0.931838
C98	C	1.563654	-0.010457	1.431838
C99	C	1.063663	-0.510424	1.015172
C100	C	1.563663	-0.010424	1.515172
C101	C	1.063624	-0.510544	0.694783
C102	C	1.563624	-0.010544	1.194783
H103	H	0.633629	-0.387508	0.269362
H104	H	1.133629	0.112492	0.769362
H105	H	1.019766	-0.918802	0.468979
H106	H	1.519766	-0.418802	0.968979
H107	H	1.082562	-0.919362	0.233421
H108	H	1.582562	-0.419362	0.733421
H109	H	1.183771	-1.100007	0.332986
H110	H	1.683771	-0.600007	0.832986
H111	H	1.156855	-0.919267	0.433284
H112	H	1.656855	-0.419267	0.933284
H113	H	0.978232	-0.633450	0.924672
H114	H	1.478232	-0.133450	1.424672
C115	C	1.162528	-0.368087	0.935708
C116	C	1.662528	0.131913	1.435708
N117	N	1.201547	-0.311903	0.967556
N118	N	1.701547	0.188097	1.467556
C119	C	0.644640	-0.653233	0.453284
C120	C	1.144640	-0.153233	0.953284
N121	N	0.676480	-0.709474	0.492218
N122	N	1.176480	-0.209474	0.992218
H123	H	0.986237	-0.917912	0.259925
H124	H	1.486237	-0.417912	0.759925
H125	H	0.949572	-1.102414	0.398661
H126	H	1.449572	-0.602414	0.898661
C127	C	0.483205	-0.368135	0.255950
C128	C	0.983205	0.131865	0.755950
N129	N	0.451356	-0.311897	0.217021
N130	N	0.951356	0.188103	0.717021
C131	C	0.964748	-0.652882	0.774241
C132	C	1.464748	-0.152882	1.274241
N133	N	0.925729	-0.709060	0.742388
N134	N	1.425729	-0.209060	1.242388
H135	H	0.948921	-0.919719	0.398309
H136	H	1.448921	-0.419719	0.898309
C137	C	0.483249	-0.653253	0.453291
C138	C	0.983249	-0.153253	0.953291
N139	N	0.451422	-0.709514	0.492221
N140	N	0.951422	-0.209514	0.992221
H141	H	1.019935	-1.100928	0.469351
H142	H	1.519935	-0.600928	0.969351
C143	C	1.201138	-0.907009	0.324192
C144	C	1.701138	-0.407009	0.824192
N145	N	1.246414	-0.875824	0.285010
N146	N	1.746414	-0.375824	0.785010
C147	C	1.162505	-0.368141	0.774317
C148	C	1.662505	0.131859	1.274317
N149	N	1.201509	-0.311971	0.742498
N150	N	1.701509	0.188029	1.242498
H151	H	0.985298	-1.099813	0.260576
H152	H	1.485298	-0.599813	0.760576
C153	C	1.095598	-1.111187	0.218057
C154	C	1.595598	-0.611187	0.718057
N155	N	1.135810	-1.141359	0.173353
N156	N	1.635810	-0.641359	0.673353
C157	C	1.167371	-1.112686	0.449617
C158	C	1.667371	-0.612686	0.949617
N159	N	1.186847	-1.144068	0.506192
N160	N	1.686847	-0.644068	1.006192
