data_functionalizedCrystal
_audit_creation_method	'MofGen! by Chris Wilmer'
_symmetry_space_group_name_H-M	'P1'
_symmetry_Int_Tables_number	1
_symmetry_cell_setting	triclinic
loop_
_symmetry_equiv_pos_as_xyz
  x,y,z
_cell_length_a	12.759394
_cell_length_b	21.395364
_cell_length_c	12.759387
_cell_angle_alpha	89.977102
_cell_angle_beta	89.968340
_cell_angle_gamma	90.029788
loop_
_atom_site_label
_atom_site_type_symbol
_atom_site_fract_x
_atom_site_fract_y
_atom_site_fract_z
Zn1	Zn	-0.417792	0.957918	-0.594066
Zn2	Zn	-0.593509	0.957853	-0.418384
Zn3	Zn	-0.417890	0.853136	-0.418396
Zn4	Zn	-0.593475	0.853131	-0.594016
O5	O	-0.505667	0.905510	-0.506215
O6	O	-0.441074	1.045587	-0.570778
O7	O	-0.570268	0.943936	-0.271364
O8	O	-0.270856	0.867065	-0.441725
O9	O	-0.570173	1.045539	-0.441705
O10	O	-0.270784	0.944048	-0.570789
O11	O	-0.441242	0.867002	-0.271373
O12	O	-0.441209	0.765458	-0.441676
O13	O	-0.570115	0.867057	-0.741043
O14	O	-0.570211	0.765454	-0.570703
O15	O	-0.441041	0.944043	-0.741081
O16	O	-0.740526	0.943932	-0.441656
O17	O	-0.740501	0.866993	-0.570692
C18	C	-0.505718	0.742722	-0.506186
C19	C	-0.505765	0.673081	-0.506198
C20	C	-0.438653	0.640415	-0.573510
C21	C	-0.438625	0.574980	-0.573514
C22	C	-0.505728	0.542212	-0.506217
C23	C	-0.572844	0.574886	-0.438892
C24	C	-0.572863	0.640320	-0.438882
C25	C	-0.600345	0.438504	-0.497776
C26	C	-0.600328	0.373071	-0.497793
C27	C	-0.505670	0.340392	-0.506241
C28	C	-0.411026	0.373153	-0.514693
C29	C	-0.411044	0.438588	-0.514683
C30	C	-0.505715	0.471260	-0.506220
C31	C	-0.438522	0.236773	-0.573561
C32	C	-0.438493	0.171337	-0.573557
C33	C	-0.572721	0.171244	-0.438941
C34	C	-0.572741	0.236680	-0.438938
C35	C	-0.505643	0.269440	-0.506254
C36	C	-0.778634	0.905472	-0.506190
C37	C	-0.895411	0.905513	-0.506214
C38	C	-0.895383	0.985689	-0.371950
C39	C	-0.950230	1.025793	-0.304830
C40	C	-1.059952	1.025830	-0.304858
C41	C	-1.114829	0.985760	-0.372016
C42	C	-1.059982	0.945655	-0.439136
C43	C	-0.950258	0.945622	-0.439098
C44	C	-1.060010	0.865483	-0.573404
C45	C	-0.950288	0.865443	-0.573372
C46	C	-1.114887	0.825413	-0.640562
C47	C	-1.060040	0.785304	-0.707678
C48	C	-0.950311	0.785269	-0.707646
C49	C	-0.895441	0.825338	-0.640492
C50	C	-0.231633	0.905564	-0.506264
C51	C	-0.114856	0.905588	-0.506284
C52	C	-0.505564	0.905557	-0.780249
C53	C	-0.505520	0.905577	-0.897026
C54	C	-0.505616	1.068933	-0.506245
C55	C	-0.505595	1.138574	-0.506258
C56	C	-0.371124	0.985748	-0.897084
C57	C	-0.303910	1.025843	-0.951974
C58	C	-0.303872	1.025858	-1.061696
C59	C	-0.371052	0.985773	-1.116530
C60	C	-0.438266	0.945679	-1.061640
C61	C	-0.438299	0.945669	-0.951916
C62	C	-0.572655	0.865505	-1.061582
C63	C	-0.572700	0.865492	-0.951860
C64	C	-0.639835	0.825420	-1.116416
C65	C	-0.707056	0.785328	-1.061526
C66	C	-0.707092	0.785315	-0.951797
C67	C	-0.639914	0.825398	-0.896970
C68	C	-0.505693	0.905498	-0.233248
C69	C	-0.505441	0.905600	-0.116472
H70	H	-0.677433	0.465106	-0.490897
H71	H	-0.627479	0.548203	-0.384097
H72	H	-0.627515	0.666916	-0.384067
O73	O	-0.366233	0.539740	-0.646118
H74	H	-0.377488	0.488736	-0.634808
H75	H	-0.806042	0.985655	-0.371906
H76	H	-0.905540	1.058420	-0.250152
O77	O	-1.119119	1.069082	-0.232465
H78	H	-1.062532	1.096937	-0.185756
O79	O	-1.233229	0.825451	-0.640601
H80	H	-1.262255	0.778204	-0.619322
O81	O	-0.231384	1.069103	-1.120909
H82	H	-0.184680	1.096977	-1.064352
O83	O	-0.891154	0.742015	-0.780042
H84	H	-0.841258	0.710135	-0.732959
O85	O	-0.777098	0.825289	-0.640464
H86	H	-0.748056	0.872528	-0.661761
H87	H	-0.371158	0.985746	-0.807743
O88	O	-1.119223	0.742083	-0.780097
H89	H	-1.204733	0.748844	-0.768837
H90	H	-0.627395	0.263276	-0.384130
H91	H	-1.204170	0.985799	-0.372043
O92	O	-0.779572	0.742056	-0.892605
H93	H	-0.862026	0.752774	-0.913643
O94	O	-0.702400	0.337736	-0.488658
H95	H	-0.768222	0.371451	-0.482753
O96	O	-0.231462	1.069077	-0.892824
H97	H	-0.148998	1.058354	-0.913887
H98	H	-0.371006	0.985784	-1.205871
H99	H	-0.639795	0.825433	-1.205757
O100	O	-0.308972	0.473927	-0.523772
H101	H	-0.243141	0.440215	-0.529635
O102	O	-0.779503	0.742094	-1.120663
H103	H	-0.768182	0.748839	-1.206180
H104	H	-0.639941	0.825394	-0.807629
H105	H	-0.333946	0.346547	-0.521571
O106	O	-0.366268	0.675751	-0.646092
H107	H	-0.319585	0.642039	-0.692889
H108	H	-0.383881	0.263448	-0.628366
H109	H	-0.627357	0.144566	-0.384146
O110	O	-0.366101	0.136099	-0.646158
H111	H	-0.319457	0.169876	-0.692968
