data_functionalizedCrystal
_audit_creation_method	'MofGen! by Chris Wilmer'
_symmetry_space_group_name_H-M	'P1'
_symmetry_Int_Tables_number	1
_symmetry_cell_setting	triclinic
loop_
_symmetry_equiv_pos_as_xyz
  x,y,z
_cell_length_a	12.594517
_cell_length_b	13.032721
_cell_length_c	13.032268
_cell_angle_alpha	103.289627
_cell_angle_beta	82.831030
_cell_angle_gamma	82.796342
loop_
_atom_site_label
_atom_site_type_symbol
_atom_site_fract_x
_atom_site_fract_y
_atom_site_fract_z
Zn1	Zn	1.478017	0.499064	0.654047
Zn2	Zn	1.477901	0.654149	0.498995
Zn3	Zn	1.325915	0.476561	0.476482
Zn4	Zn	1.274106	0.676625	0.676558
O5	O	1.388985	0.576600	0.576520
O6	O	1.626946	0.519648	0.633479
O7	O	1.479374	0.611767	0.347386
O8	O	1.367823	0.330915	0.481194
O9	O	1.626861	0.633588	0.519563
O10	O	1.479572	0.347448	0.611650
O11	O	1.367710	0.481294	0.330846
O12	O	1.170098	0.503089	0.503022
O13	O	1.279522	0.671895	0.822194
O14	O	1.132034	0.650075	0.650017
O15	O	1.429334	0.541442	0.805655
O16	O	1.429136	0.805761	0.541391
O17	O	1.279409	0.822274	0.671846
C18	C	1.112447	0.576579	0.576520
C19	C	0.994135	0.576600	0.576549
C20	C	0.833447	0.656657	0.656384
C21	C	0.914585	0.670201	0.562731
C22	C	0.914563	0.563102	0.670197
C23	C	0.864487	0.590218	0.482823
C24	C	0.864456	0.483081	0.590349
C25	C	0.945578	0.496580	0.496625
C26	C	1.348664	0.852559	0.611527
C27	C	1.331506	0.970620	0.626539
C28	C	1.348662	0.611686	0.853538
C29	C	1.331479	0.626638	0.971586
C30	C	1.666603	0.576621	0.576521
C31	C	1.784907	0.576630	0.576522
C32	C	1.429489	0.299566	0.541400
C33	C	1.446750	0.181511	0.526434
C34	C	1.397989	1.015056	0.568733
C35	C	1.380258	1.137078	0.584247
C36	C	1.429224	0.541573	0.300571
C37	C	1.446657	0.526322	0.182485
C38	C	1.397942	0.568758	1.016033
C39	C	1.380184	0.584210	1.138042
H40	H	0.993951	0.428882	0.429030
H41	H	1.467987	0.507762	0.963758
F42	F	0.769979	0.745176	0.744554
F43	F	1.538317	1.113172	0.446733
H44	H	1.310124	0.645200	1.190312
F45	F	1.239954	1.038965	0.706245
H46	H	1.516706	0.465320	1.130215
F47	F	1.239913	0.706356	1.039907
H48	H	0.936947	0.749299	0.551037
F49	F	0.835456	0.605280	0.379276
F50	F	0.835182	0.379730	0.605673
H51	H	0.936898	0.551670	0.749405
F52	F	1.489551	0.946712	0.489039
F53	F	1.288700	1.205420	0.663958
