data_functionalizedCrystal
_audit_creation_method	'MofGen! by Chris Wilmer'
_symmetry_space_group_name_H-M	'P1'
_symmetry_Int_Tables_number	1
_symmetry_cell_setting	triclinic
loop_
_symmetry_equiv_pos_as_xyz
  x,y,z
_cell_length_a	16.109301
_cell_length_b	17.038272
_cell_length_c	15.186229
_cell_angle_alpha	89.995962
_cell_angle_beta	89.999362
_cell_angle_gamma	87.286518
loop_
_atom_site_label
_atom_site_type_symbol
_atom_site_fract_x
_atom_site_fract_y
_atom_site_fract_z
O1	O	1.110268	0.100495	-0.073174
O2	O	1.360268	0.350495	0.176826
O3	O	1.610268	0.600495	0.426826
O4	O	1.860268	0.850495	0.676826
O5	O	0.869094	0.113001	-0.073188
O6	O	1.119094	0.363001	0.176812
O7	O	1.369094	0.613001	0.426812
O8	O	1.619094	0.863001	0.676812
O9	O	0.988247	-0.007067	-0.073174
O10	O	1.238247	0.242933	0.176826
O11	O	1.488247	0.492933	0.426826
O12	O	1.738247	0.742933	0.676826
O13	O	0.991114	0.220563	-0.073187
O14	O	1.241114	0.470563	0.176813
O15	O	1.491114	0.720563	0.426813
O16	O	1.741114	0.970563	0.676813
O17	O	0.988239	-0.007069	0.073284
O18	O	1.238239	0.242931	0.323284
O19	O	1.488239	0.492931	0.573284
O20	O	1.738239	0.742931	0.823284
O21	O	0.869085	0.113000	0.073270
O22	O	1.119085	0.363000	0.323270
O23	O	1.369085	0.613000	0.573270
O24	O	1.619085	0.863000	0.823270
O25	O	1.110259	0.100493	0.073284
O26	O	1.360259	0.350493	0.323284
O27	O	1.610259	0.600493	0.573284
O28	O	1.860259	0.850493	0.823284
Zn29	Zn	0.989671	0.106746	0.096530
Zn30	Zn	1.239671	0.356746	0.346530
Zn31	Zn	1.489671	0.606746	0.596530
Zn32	Zn	1.739671	0.856746	0.846530
Zn33	Zn	0.989682	0.106748	-0.096434
Zn34	Zn	1.239682	0.356748	0.153566
Zn35	Zn	1.489682	0.606748	0.403566
Zn36	Zn	1.739682	0.856748	0.653566
O37	O	0.991105	0.220562	0.073270
O38	O	1.241105	0.470562	0.323270
O39	O	1.491105	0.720562	0.573270
O40	O	1.741105	0.970562	0.823270
C41	C	0.838079	0.112494	0.000039
C42	C	1.088079	0.362494	0.250039
C43	C	1.338079	0.612494	0.500039
C44	C	1.588079	0.862494	0.750039
C45	C	0.745676	0.110975	0.000034
C46	C	0.995676	0.360975	0.250034
C47	C	1.245676	0.610975	0.500034
C48	C	1.495676	0.860975	0.750034
C49	C	0.528212	0.178690	0.000040
C50	C	0.778212	0.428690	0.250040
C51	C	1.028212	0.678690	0.500040
C52	C	1.278212	0.928690	0.750040
C53	C	0.441390	0.177257	0.000046
C54	C	0.691390	0.427257	0.250046
C55	C	0.941390	0.677257	0.500046
C56	C	1.191390	0.927257	0.750046
C57	C	0.451147	0.034799	0.000051
C58	C	0.701147	0.284799	0.250051
C59	C	0.951147	0.534799	0.500051
C60	C	1.201147	0.784799	0.750051
C61	C	0.537968	0.036233	0.000051
C62	C	0.787968	0.286233	0.250051
C63	C	1.037968	0.536233	0.500051
C64	C	1.287968	0.786233	0.750051
C65	C	0.576498	0.108181	0.000042
C66	C	0.826498	0.358181	0.250042
C67	C	1.076498	0.608181	0.500042
C68	C	1.326498	0.858181	0.750042
C69	C	0.402855	0.105314	0.000047
C70	C	0.652855	0.355314	0.250047
C71	C	0.902855	0.605314	0.500047
C72	C	1.152855	0.855314	0.750047
C73	C	0.308719	0.103759	0.000053
C74	C	0.558719	0.353759	0.250053
C75	C	0.808719	0.603759	0.500053
C76	C	1.058719	0.853759	0.750053
C77	C	0.670640	0.109736	0.000037
C78	C	0.920640	0.359736	0.250037
C79	C	1.170640	0.609736	0.500037
C80	C	1.420640	0.859736	0.750037
C81	C	0.985636	-0.036196	0.000055
C82	C	1.235636	0.213804	0.250055
C83	C	1.485636	0.463804	0.500055
C84	C	1.735636	0.713804	0.750055
C85	C	0.977857	-0.122989	0.000054
C86	C	1.227857	0.127011	0.250054
C87	C	1.477857	0.377011	0.500054
C88	C	1.727857	0.627011	0.750054
C89	C	1.049277	-0.173104	0.000059
C90	C	1.299277	0.076896	0.250059
C91	C	1.549277	0.326896	0.500059
C92	C	1.799277	0.576896	0.750059
C93	C	1.041963	-0.254654	0.000050
C94	C	1.291963	-0.004654	0.250050
C95	C	1.541963	0.245346	0.500050
C96	C	1.791963	0.495346	0.750050
C97	C	0.963228	-0.286089	0.000043
C98	C	1.213228	-0.036089	0.250043
C99	C	1.463228	0.213911	0.500043
C100	C	1.713228	0.463911	0.750043
C101	C	0.891802	-0.235967	0.000035
C102	C	1.141802	0.014033	0.250035
C103	C	1.391802	0.264033	0.500035
C104	C	1.641802	0.514033	0.750035
C105	C	0.899116	-0.154418	0.000038
C106	C	1.149116	0.095582	0.250038
C107	C	1.399116	0.345582	0.500038
C108	C	1.649116	0.595582	0.750038
C109	C	0.937385	-0.531846	0.000029
C110	C	1.187385	-0.281846	0.250029
C111	C	1.437385	-0.031846	0.500029
C112	C	1.687385	0.218154	0.750029
C113	C	0.930076	-0.613402	0.000029
C114	C	1.180076	-0.363402	0.250029
C115	C	1.430076	-0.113402	0.500029
C116	C	1.680076	0.136598	0.750029
C117	C	1.080238	-0.632083	0.000043
C118	C	1.330238	-0.382083	0.250043
C119	C	1.580238	-0.132083	0.500043
C120	C	1.830238	0.117917	0.750043
C121	C	1.087546	-0.550532	0.000051
C122	C	1.337546	-0.300532	0.250051
C123	C	1.587546	-0.050532	0.500051
C124	C	1.837546	0.199468	0.750051
C125	C	1.016120	-0.500418	0.000038
C126	C	1.266120	-0.250418	0.250038
C127	C	1.516120	-0.000418	0.500038
C128	C	1.766120	0.249582	0.750038
C129	C	0.955749	-0.369446	0.000037
C130	C	1.205749	-0.119446	0.250037
C131	C	1.455749	0.130554	0.500037
C132	C	1.705749	0.380554	0.750037
C133	C	1.023599	-0.417062	0.000038
C134	C	1.273599	-0.167062	0.250038
C135	C	1.523599	0.082938	0.500038
C136	C	1.773599	0.332938	0.750038
C137	C	1.141274	0.101001	0.000055
C138	C	1.391274	0.351001	0.250055
C139	C	1.641274	0.601001	0.500055
C140	C	1.891274	0.851001	0.750055
C141	C	1.233677	0.102519	0.000054
C142	C	1.483677	0.352519	0.250054
C143	C	1.733677	0.602519	0.500054
C144	C	1.983677	0.852519	0.750054
C145	C	0.993717	0.249691	0.000039
C146	C	1.243717	0.499691	0.250039
C147	C	1.493717	0.749691	0.500039
C148	C	1.743717	0.999691	0.750039
C149	C	1.001496	0.336484	0.000034
C150	C	1.251496	0.586484	0.250034
C151	C	1.501496	0.836484	0.500034
C152	C	1.751496	1.086484	0.750034
N153	N	0.989669	0.106744	0.228223
N154	N	1.239669	0.356744	0.478223
N155	N	1.489669	0.606744	0.728223
N156	N	1.739669	0.856744	0.978223
N157	N	0.989690	0.106744	-0.228126
N158	N	1.239690	0.356744	0.021874
N159	N	1.489690	0.606744	0.271874
N160	N	1.739690	0.856744	0.521874
C161	C	1.042451	0.053596	0.453952
C162	C	1.292451	0.303596	0.703952
C163	C	1.542451	0.553596	0.953952
C164	C	1.792451	0.803596	1.203952
C165	C	1.042453	0.053594	0.546141
C166	C	1.292453	0.303594	0.796141
C167	C	1.542453	0.553594	1.046141
C168	C	1.792453	0.803594	1.296141
C169	C	0.936902	0.159895	0.546138
C170	C	1.186902	0.409895	0.796138
C171	C	1.436902	0.659895	1.046138
C172	C	1.686902	0.909895	1.296138
C173	C	0.936896	0.159893	0.453950
C174	C	1.186896	0.409893	0.703950
C175	C	1.436896	0.659893	0.953950
C176	C	1.686896	0.909893	1.203950
C177	C	0.989675	0.106744	0.407859
C178	C	1.239675	0.356744	0.657859
C179	C	1.489675	0.606744	0.907859
C180	C	1.739675	0.856744	1.157859
C181	C	0.989684	0.106745	0.592237
C182	C	1.239684	0.356745	0.842237
C183	C	1.489684	0.606745	1.092237
C184	C	1.739684	0.856745	1.342237
C185	C	0.989686	0.106743	0.692193
C186	C	1.239686	0.356743	0.942193
C187	C	1.489686	0.606743	1.192193
C188	C	1.739686	0.856743	1.442193
C189	C	0.989672	0.106744	0.307897
C190	C	1.239672	0.356744	0.557897
C191	C	1.489672	0.606744	0.807897
C192	C	1.739672	0.856744	1.057897
H193	H	0.577284	-0.021187	0.000055
H194	H	0.827284	0.228813	0.250055
H195	H	1.077284	0.478813	0.500055
H196	H	1.327284	0.728813	0.750055
Br197	Br	0.865278	0.232025	0.608693
Br198	Br	1.115278	0.482025	0.858693
Br199	Br	1.365278	0.732025	1.108693
Br200	Br	1.615278	0.982025	1.358693
H201	H	1.113392	-0.147517	0.000071
H202	H	1.363392	0.102483	0.250071
H203	H	1.613392	0.352483	0.500071
H204	H	1.863392	0.602483	0.750071
Br205	Br	1.138896	-0.322665	0.000057
Br206	Br	1.388896	-0.072665	0.250057
Br207	Br	1.638896	0.177335	0.500057
Br208	Br	1.888896	0.427335	0.750057
H209	H	1.151661	-0.524945	0.000057
H210	H	1.401661	-0.274945	0.250057
H211	H	1.651661	-0.024945	0.500057
H212	H	1.901661	0.225055	0.750057
Br213	Br	1.114077	-0.018536	0.391403
Br214	Br	1.364077	0.231464	0.641403
Br215	Br	1.614077	0.481464	0.891403
Br216	Br	1.864077	0.731464	1.141403
H217	H	1.138389	-0.672894	0.000051
H218	H	1.388389	-0.422894	0.250051
H219	H	1.638389	-0.172894	0.500051
H220	H	1.888389	0.077106	0.750051
H221	H	0.419765	-0.023778	0.000064
H222	H	0.669765	0.226222	0.250064
H223	H	0.919765	0.476222	0.500064
H224	H	1.169765	0.726222	0.750064
Br225	Br	0.823213	-0.656061	0.000028
Br226	Br	1.073213	-0.406061	0.250028
Br227	Br	1.323213	-0.156061	0.500028
Br228	Br	1.573213	0.093939	0.750028
H229	H	1.085427	0.010315	0.583667
H230	H	1.335427	0.260315	0.833667
H231	H	1.585427	0.510315	1.083667
H232	H	1.835427	0.760315	1.333667
Br233	Br	0.840449	-0.463844	0.000007
Br234	Br	1.090449	-0.213844	0.250007
Br235	Br	1.340449	0.036156	0.500007
Br236	Br	1.590449	0.286156	0.750007
Br237	Br	0.784944	-0.278627	0.000010
Br238	Br	1.034944	-0.028627	0.250010
Br239	Br	1.284944	0.221373	0.500010
Br240	Br	1.534944	0.471373	0.750010
Br241	Br	0.865261	0.232021	0.391389
Br242	Br	1.115261	0.482021	0.641389
Br243	Br	1.365261	0.732021	0.891389
Br244	Br	1.615261	0.982021	1.141389
Br245	Br	0.802184	-0.086404	0.000024
Br246	Br	1.052184	0.163596	0.250024
Br247	Br	1.302184	0.413596	0.500024
Br248	Br	1.552184	0.663596	0.750024
Br249	Br	0.580501	0.276332	0.000030
Br250	Br	0.830501	0.526332	0.250030
Br251	Br	1.080501	0.776332	0.500030
Br252	Br	1.330501	1.026332	0.750030
H253	H	1.087705	-0.391465	0.000025
H254	H	1.337705	-0.141465	0.250025
H255	H	1.587705	0.108535	0.500025
H256	H	1.837705	0.358535	0.750025
Br257	Br	0.375862	0.272952	0.000048
Br258	Br	0.625862	0.522952	0.250048
Br259	Br	0.875862	0.772952	0.500048
Br260	Br	1.125862	1.022952	0.750048
H261	H	0.891642	-0.395049	0.000032
H262	H	1.141642	-0.145049	0.250032
H263	H	1.391642	0.104951	0.500032
H264	H	1.641642	0.354951	0.750032
