data_functionalizedCrystal
_audit_creation_method	'MofGen! by Chris Wilmer'
_symmetry_space_group_name_H-M	'P1'
_symmetry_Int_Tables_number	1
_symmetry_cell_setting	triclinic
loop_
_symmetry_equiv_pos_as_xyz
  x,y,z
_cell_length_a	10.489716
_cell_length_b	10.489741
_cell_length_c	9.730223
_cell_angle_alpha	89.998920
_cell_angle_beta	90.000146
_cell_angle_gamma	84.534155
loop_
_atom_site_label
_atom_site_type_symbol
_atom_site_fract_x
_atom_site_fract_y
_atom_site_fract_z
O1	O	1.694065	0.179813	-0.114278
O2	O	1.322865	0.196739	-0.114283
O3	O	1.516911	0.002677	-0.114272
O4	O	1.500018	0.373875	-0.114289
O5	O	1.516909	0.002682	0.114308
O6	O	1.322863	0.196744	0.114297
O7	O	1.694062	0.179818	0.114302
Zn8	Zn	1.508462	0.188282	0.150591
Zn9	Zn	1.508465	0.188275	-0.150573
O10	O	1.500016	0.373880	0.114291
C11	C	1.275332	0.195470	0.000006
C12	C	1.133701	0.191665	0.000004
C13	C	1.515634	-0.044852	0.000017
C14	C	1.511817	-0.186481	0.000014
C15	C	1.036027	0.310669	-0.000004
C16	C	0.958680	0.247787	0.112707
C17	C	0.958688	0.247754	-0.112655
C18	C	1.058219	0.128833	0.112808
C19	C	1.058233	0.128817	-0.112655
C20	C	0.980935	0.065848	0.000084
C21	C	1.388351	-0.254610	0.000003
C22	C	1.446674	-0.346735	0.112705
C23	C	1.446705	-0.346715	-0.112657
C24	C	1.570191	-0.276741	0.112810
C25	C	1.570205	-0.276711	-0.112653
C26	C	1.628618	-0.368808	0.000077
C27	C	1.741596	0.181087	0.000009
C28	C	1.883227	0.184892	0.000002
C29	C	1.501293	0.421409	-0.000001
C30	C	1.505110	0.563038	-0.000008
N31	N	1.508469	0.188285	0.356128
N32	N	1.508468	0.188262	-0.356109
C33	C	1.594415	0.102384	0.428059
C34	C	1.594412	0.102369	0.571942
C35	C	1.422512	0.274167	0.571950
C36	C	1.422511	0.274175	0.428070
C37	C	1.680374	0.016495	0.356117
C38	C	1.766328	-0.069412	0.428047
C39	C	1.766325	-0.069428	0.571930
C40	C	1.680367	0.016464	0.643882
H41	H	1.060696	0.414185	0.000096
C42	C	1.327937	0.368642	0.348941
N43	N	1.256689	0.439784	0.289342
H44	H	1.622386	-0.245911	0.208198
C45	C	1.680383	0.016501	0.197843
N46	N	1.680388	0.016507	0.078630
C47	C	0.947916	-0.074095	0.000181
N48	N	0.923041	-0.179498	0.000264
C49	C	1.116997	0.060997	-0.241385
N50	N	1.161254	0.009919	-0.338356
C51	C	0.899922	0.315660	0.241421
N52	N	0.855664	0.366790	0.338362
C53	C	1.860859	-0.163904	0.348898
N54	N	1.932058	-0.235081	0.289284
H55	H	1.680363	0.016435	0.761042
C56	C	1.765876	-0.435603	0.000167
N57	N	1.869256	-0.485918	0.000242
H58	H	1.286838	-0.204950	0.000115
C59	C	1.640721	-0.234774	-0.241381
N60	N	1.693825	-0.203183	-0.338350
C61	C	1.327968	0.368642	0.651103
N62	N	1.256757	0.439804	0.710721
C63	C	1.376105	-0.388560	-0.241378
N64	N	1.322920	-0.420072	-0.338326
H65	H	1.836303	-0.139385	0.630495
H66	H	1.101534	0.078627	0.208191
H67	H	0.915206	0.298013	-0.207929
H68	H	1.394432	-0.377740	0.207986
