data_functionalizedCrystal
_audit_creation_method	'MofGen! by Chris Wilmer'
_symmetry_space_group_name_H-M	'P1'
_symmetry_Int_Tables_number	1
_symmetry_cell_setting	triclinic
loop_
_symmetry_equiv_pos_as_xyz
  x,y,z
_cell_length_a	12.837943
_cell_length_b	10.723024
_cell_length_c	9.798715
_cell_angle_alpha	90.001978
_cell_angle_beta	89.997355
_cell_angle_gamma	90.351595
loop_
_atom_site_label
_atom_site_type_symbol
_atom_site_fract_x
_atom_site_fract_y
_atom_site_fract_z
O1	O	1.377762	-0.324662	-0.113460
O2	O	1.075842	-0.308624	-0.113468
O3	O	1.233766	-0.135823	-0.113459
O4	O	1.219838	-0.497463	-0.113469
O5	O	1.233754	-0.135821	0.113523
O6	O	1.075830	-0.308622	0.113514
O7	O	1.377750	-0.324660	0.113522
Zn8	Zn	1.226788	-0.316641	0.149556
Zn9	Zn	1.226804	-0.316643	-0.149503
O10	O	1.219826	-0.497461	0.113513
C11	C	1.037177	-0.303205	0.000022
C12	C	0.921985	-0.287047	0.000018
N13	N	1.226785	-0.316639	0.353656
C14	C	1.232747	-0.089212	0.000030
C15	C	1.229714	0.049671	0.000026
C16	C	0.682408	-0.481303	0.000032
C17	C	0.574174	-0.466126	0.000030
C18	C	0.597282	-0.241518	0.000022
C19	C	0.705515	-0.256694	0.000024
C20	C	0.748074	-0.376591	0.000027
C21	C	0.856310	-0.391766	0.000019
C22	C	0.879415	-0.167159	0.000021
C23	C	0.771182	-0.151982	0.000019
C24	C	1.416415	-0.330079	0.000029
C25	C	1.531607	-0.346237	0.000023
C26	C	1.220845	-0.544071	0.000020
C27	C	1.223878	-0.682955	0.000016
C28	C	1.318080	0.115056	0.000026
C29	C	1.314948	0.258600	0.000021
N30	N	1.226815	-0.316636	-0.353602
C31	C	1.293093	-0.243734	0.421437
C32	C	1.293110	-0.243731	0.578600
H33	H	0.717060	-0.578927	0.000033
C34	C	0.501944	-0.581309	0.000024
H35	H	0.542797	-0.654884	0.000015
H36	H	0.459235	-0.580057	0.079173
H37	H	0.459251	-0.580058	-0.079144
H38	H	1.148226	0.260836	0.000025
H39	H	0.736515	-0.054366	0.000032
C40	C	1.369800	-0.159404	0.657333
H41	H	1.359745	-0.170457	0.752635
H42	H	1.439202	-0.180992	0.633967
H43	H	1.357750	-0.074724	0.633988
C44	C	1.124374	0.117591	0.000013
H45	H	1.069340	0.057955	0.000003
H46	H	1.119384	0.168363	0.079161
H47	H	1.119401	0.168342	-0.079157
H48	H	1.349847	-0.181312	0.363118
H49	H	1.390596	0.314817	0.000028
H50	H	0.890959	-0.489392	0.000024
H51	H	0.562611	-0.143903	0.000132
C52	C	1.150119	-0.400968	0.567679
H53	H	1.108534	-0.446713	0.630603
H54	H	1.106534	-0.350983	0.511944
H55	H	1.187981	-0.457255	0.511933
C56	C	0.951651	-0.051971	0.000014
H57	H	1.022207	-0.078178	0.000020
H58	H	0.938659	-0.003347	-0.079142
H59	H	0.938660	-0.003336	0.079176
C60	C	1.423418	0.047130	0.000034
H61	H	1.411704	-0.040436	0.000046
H62	H	1.461774	0.069952	-0.079116
H63	H	1.461758	0.069960	0.079201
H64	H	1.170024	-0.379050	0.411977
