data_functionalizedCrystal
_audit_creation_method	'MofGen! by Chris Wilmer'
_symmetry_space_group_name_H-M	'P1'
_symmetry_Int_Tables_number	1
_symmetry_cell_setting	triclinic
loop_
_symmetry_equiv_pos_as_xyz
  x,y,z
_cell_length_a	6.817900
_cell_length_b	11.102289
_cell_length_c	16.417824
_cell_angle_alpha	93.891151
_cell_angle_beta	103.385545
_cell_angle_gamma	108.605707
loop_
_atom_site_label
_atom_site_type_symbol
_atom_site_fract_x
_atom_site_fract_y
_atom_site_fract_z
V1	V	-4.051777	-0.176875	-0.261153
O2	O	-4.011947	0.007433	-0.256182
O3	O	-4.028963	-0.349688	-0.259367
O4	O	-4.002498	-0.174622	-0.375051
O5	O	-4.038596	-0.168845	-0.139697
V6	V	-4.532204	-0.154774	-0.246626
O7	O	-4.319828	-0.225355	-0.293019
O8	O	-4.714351	-0.106295	-0.214759
O9	O	-4.331812	0.018039	-0.248412
O10	O	-4.689431	-0.339083	-0.251597
O11	O	-4.662783	-0.162805	-0.368082
O12	O	-4.358277	-0.157027	-0.132728
C13	C	-3.880217	-0.391802	-0.255247
C14	C	-3.942844	-0.533082	-0.254546
C15	C	-4.155318	-0.605945	-0.258394
C16	C	-4.214155	-0.738694	-0.257743
C17	C	-3.848021	-0.725703	-0.249390
C18	C	-3.789191	-0.592958	-0.250047
C19	C	-4.366701	-0.613446	-0.263213
C20	C	-4.425538	-0.746195	-0.262562
C21	C	-3.846457	-0.168486	-0.402812
C22	C	-3.887618	-0.167788	-0.495925
C23	C	-4.039776	-0.282591	-0.722109
C24	C	-4.078465	-0.281926	-0.809597
C25	C	-3.963578	-0.049048	-0.785658
C26	C	-3.924904	-0.049714	-0.698172
C27	C	-3.962996	-0.166489	-0.666400
C28	C	-4.040359	-0.165158	-0.841374
C29	C	-4.082307	-0.164436	-0.936232
C30	C	-3.921050	-0.167212	-0.571535
C31	C	-4.143901	0.060146	-0.252530
C32	C	-4.060512	0.201424	-0.253236
C33	C	-4.177661	-0.163168	-0.104962
C34	C	-4.115737	-0.163860	-0.011849
H35	H	-4.543149	-0.804308	-0.324614
C36	C	-4.637863	-0.705038	-0.394673
C37	C	-4.498866	-0.587812	-0.345449
H38	H	-4.719440	-0.689209	-0.445442
H39	H	-4.731991	-0.750396	-0.363766
H40	H	-4.556414	-0.755002	-0.408205
H41	H	-4.580317	-0.537851	-0.331912
H42	H	-4.404727	-0.542434	-0.376362
C43	C	-4.050207	0.143645	-0.796222
C44	C	-3.921711	0.079304	-0.820590
H45	H	-4.024365	0.222881	-0.817792
H46	H	-4.016172	0.159868	-0.736152
H47	H	-4.197234	0.091827	-0.818209
H48	H	-3.774682	0.131118	-0.798598
H49	H	-3.955731	0.063085	-0.880671
H50	H	-4.070797	-0.377677	-0.696243
C51	C	-4.506319	-0.667098	-0.139126
C52	C	-4.512461	-0.779608	-0.185323
H53	H	-4.559966	-0.687728	-0.091441
H54	H	-4.592464	-0.628132	-0.174142
H55	H	-4.362349	-0.609138	-0.120451
H56	H	-4.656434	-0.837565	-0.204003
H57	H	-4.426317	-0.818593	-0.150300
H58	H	-3.862386	0.044835	-0.652810
H59	H	-4.380282	-0.559985	-0.204157
C60	C	-4.188108	-0.512179	-0.824465
C61	C	-4.162850	-0.409549	-0.870833
H62	H	-4.240195	-0.590969	-0.862271
H63	H	-4.287721	-0.511664	-0.792573
H64	H	-4.053522	-0.503513	-0.787115
H65	H	-4.297440	-0.418209	-0.908178
H66	H	-4.063233	-0.410065	-0.902739
H67	H	-3.722931	-0.774471	-0.245728
H68	H	-3.616185	-0.533639	-0.246923
