data_functionalizedCrystal
_audit_creation_method	'MofGen! by Chris Wilmer'
_symmetry_space_group_name_H-M	'P1'
_symmetry_Int_Tables_number	1
_symmetry_cell_setting	triclinic
loop_
_symmetry_equiv_pos_as_xyz
  x,y,z
_cell_length_a	25.639242
_cell_length_b	15.297327
_cell_length_c	25.639214
_cell_angle_alpha	99.568089
_cell_angle_beta	89.916953
_cell_angle_gamma	99.704018
loop_
_atom_site_label
_atom_site_type_symbol
_atom_site_fract_x
_atom_site_fract_y
_atom_site_fract_z
Zn1	Zn	0.763675	-0.358371	-0.331670
Zn2	Zn	0.748387	-0.509439	-0.259379
Zn3	Zn	0.676133	-0.358627	-0.244260
Zn4	Zn	0.661108	-0.509137	-0.346739
O5	O	0.712326	-0.433893	-0.295512
O6	O	0.834810	-0.378430	-0.322102
O7	O	0.738692	-0.489667	-0.184231
O8	O	0.700431	-0.232382	-0.243221
O9	O	0.823578	-0.489419	-0.268990
O10	O	0.764748	-0.232194	-0.307441
O11	O	0.685607	-0.378866	-0.173123
O12	O	0.600976	-0.378573	-0.257833
O13	O	0.674824	-0.488904	-0.417882
O14	O	0.589938	-0.489152	-0.333124
O15	O	0.750180	-0.378137	-0.406811
O16	O	0.724123	-0.635610	-0.283601
O17	O	0.660000	-0.635388	-0.347784
C18	C	0.688787	-0.668224	-0.318980
C19	C	0.678764	-0.768472	-0.329037
C20	C	0.576487	-0.433858	-0.295473
C21	C	0.518372	-0.433865	-0.295471
C22	C	0.784172	-1.051390	-0.223810
C23	C	0.793588	-0.957203	-0.214358
C24	C	0.764883	-0.910015	-0.243027
C25	C	0.726760	-0.957025	-0.281150
C26	C	0.717340	-1.051222	-0.290600
C27	C	0.698051	-0.909847	-0.309817
C28	C	0.659928	-0.956856	-0.347939
C29	C	0.650510	-1.051044	-0.357387
C30	C	0.679215	-1.098231	-0.328718
C31	C	0.707471	-0.815650	-0.300367
C32	C	0.640640	-0.815482	-0.367156
C33	C	0.631223	-0.909669	-0.376608
C34	C	0.152258	-0.491568	-0.334694
C35	C	0.097653	-0.491574	-0.334703
O36	O	0.064530	-0.540592	-0.368017
N37	N	0.076084	-0.433918	-0.295549
C38	C	0.109124	-0.376247	-0.256386
O39	O	0.085765	-0.327206	-0.223084
C40	C	0.163729	-0.376237	-0.256380
C41	C	0.185293	-0.433903	-0.295534
C42	C	0.173823	-0.549229	-0.373845
C43	C	0.228424	-0.549224	-0.373835
C44	C	0.261460	-0.491559	-0.334675
C45	C	0.239894	-0.433899	-0.295524
C46	C	0.196768	-0.318562	-0.217220
C47	C	0.251376	-0.318557	-0.217218
C48	C	0.272940	-0.376223	-0.256371
C49	C	0.327531	-0.376229	-0.256354
N50	N	0.349100	-0.433885	-0.295509
C51	C	0.316064	-0.491550	-0.334669
C52	C	-0.005548	-0.376270	-0.256403
C53	C	-0.060152	-0.376283	-0.256406
C54	C	-0.071620	-0.491609	-0.334724
C55	C	-0.017016	-0.491600	-0.334717
C56	C	0.016020	-0.433925	-0.295557
C57	C	0.430730	-0.491537	-0.334646
C58	C	0.485336	-0.491530	-0.334631
C59	C	0.496800	-0.376201	-0.256316
C60	C	0.442198	-0.376211	-0.256328
C61	C	0.409164	-0.433882	-0.295498
O62	O	0.360686	-0.327234	-0.223058
O63	O	0.339432	-0.540574	-0.367970
C64	C	0.848695	-0.433930	-0.295552
C65	C	0.906808	-0.433945	-0.295568
C66	C	0.712531	-0.433458	-0.431842
C67	C	0.712619	-0.433273	-0.489938
C68	C	0.735971	-0.198648	-0.271964
C69	C	0.746047	-0.098400	-0.261929
C70	C	0.712158	-0.434262	-0.159706
C71	C	0.712197	-0.434193	-0.101585
C72	C	0.684528	-0.376367	0.264555
C73	C	0.684566	-0.376284	0.319167
O74	O	0.660855	-0.327519	0.352276
N75	N	0.712506	-0.433514	0.340764
C76	C	0.740413	-0.490824	0.307747
O77	O	0.764182	-0.539494	0.331132
C78	C	0.740377	-0.490901	0.253136
C79	C	0.712431	-0.433674	0.231541
C80	C	0.656585	-0.319144	0.242959
C81	C	0.656545	-0.319228	0.188351
C82	C	0.684449	-0.376535	0.155337
C83	C	0.712392	-0.433759	0.176932
C84	C	0.768287	-0.548206	0.220120
C85	C	0.768249	-0.548278	0.165505
C86	C	0.740303	-0.491051	0.143911
C87	C	0.740256	-0.491150	0.089310
N88	N	0.712317	-0.433920	0.067712
C89	C	0.684413	-0.376613	0.100726
C90	C	0.740487	-0.490656	0.422434
C91	C	0.740520	-0.490584	0.477043
C92	C	0.684674	-0.376043	0.488460
C93	C	0.684638	-0.376120	0.433849
C94	C	0.712548	-0.433426	0.400837
C95	C	0.684332	-0.376794	-0.013957
C96	C	0.684293	-0.376886	-0.068572
C97	C	0.740141	-0.491423	-0.079983
C98	C	0.740178	-0.491335	-0.025374
C99	C	0.712272	-0.434014	0.007639
O100	O	0.763957	-0.539888	0.056169
O101	O	0.660654	-0.327942	0.077334
H102	H	0.772552	-0.833323	-0.235329
H103	H	0.824627	-0.918931	-0.183319
N104	N	0.005011	-0.550486	-0.374720
N105	N	0.038715	-0.518732	-0.404889
H106	H	0.054269	-0.560321	-0.433143
H107	H	0.661535	-0.330284	-0.086151
N108	N	0.420158	-0.317325	-0.216332
N109	N	0.386445	-0.349072	-0.186171
H110	H	0.370883	-0.307479	-0.157925
N111	N	0.174739	-0.259662	-0.177230
N112	N	0.141030	-0.291398	-0.147061
H113	H	0.125471	-0.249796	-0.118817
H114	H	0.762938	-0.537927	-0.007790
N115	N	0.746412	-0.767624	-0.261434
N116	N	0.754820	-0.683525	-0.252999
H117	H	0.782324	-0.649605	-0.225501
N118	N	0.796769	-0.606798	0.131784
N119	N	0.845653	-0.600200	0.138437
H120	H	0.865796	-0.641527	0.114621
H121	H	0.791039	-0.594812	0.237691
H122	H	0.807536	-1.089819	-0.200469
N123	N	0.611324	-0.767293	-0.396454
N124	N	0.613781	-0.777625	-0.445739
H125	H	0.593078	-0.743588	-0.466429
H126	H	0.763212	-0.537329	0.395557
N127	N	0.768637	-0.549958	-0.113719
N128	N	0.768595	-0.550015	-0.162477
H129	H	0.788723	-0.591353	-0.186305
N130	N	0.592286	-0.957707	-0.415547
N131	N	0.583885	-1.041806	-0.423979
H132	H	0.556386	-1.075735	-0.451480
N133	N	0.507361	-0.550449	-0.374622
N134	N	0.492899	-0.633674	-0.379409
H135	H	0.508452	-0.675286	-0.407652
H136	H	0.619462	-1.089317	-0.388423
N137	N	0.669610	-1.194445	-0.338373
N138	N	0.695249	-1.236559	-0.312778
H139	H	0.688468	-1.304511	-0.319597
H140	H	0.278272	-0.271585	-0.185330
N141	N	-0.105371	-0.550526	-0.374722
N142	N	-0.141639	-0.608010	-0.362030
H143	H	-0.165476	-0.649621	-0.390276
N144	N	0.397000	-0.550448	-0.374661
N145	N	0.416271	-0.601922	-0.409611
H146	H	0.392450	-0.643533	-0.437870
H147	H	0.245976	-0.596180	-0.405719
H148	H	0.021346	-0.329305	-0.224510
H149	H	0.661610	-0.330115	0.012916
N150	N	-0.082169	-0.317387	-0.216401
N151	N	-0.052661	-0.265911	-0.181440
H152	H	-0.068208	-0.224311	-0.153185
N153	N	0.530561	-0.317297	-0.216326
N154	N	0.566830	-0.259824	-0.229027
H155	H	0.590677	-0.218219	-0.200787
N156	N	0.140091	-0.608139	-0.413856
N157	N	0.159363	-0.659610	-0.448806
H158	H	0.135543	-0.701223	-0.477066
N159	N	0.627996	-0.260765	0.166305
N160	N	0.603088	-0.209606	0.195796
H161	H	0.582924	-0.168312	0.180231
N162	N	0.656089	-0.317660	0.411802
N163	N	0.631176	-0.266504	0.441290
H164	H	0.611012	-0.225213	0.425722
N165	N	0.628079	-0.260591	0.276670
N166	N	0.603136	-0.209507	0.257371
H167	H	0.582999	-0.168153	0.281175
N168	N	0.656173	-0.317509	0.522196
N169	N	0.656214	-0.317452	0.570954
H170	H	0.636086	-0.276117	0.594782
H171	H	0.763271	-0.537192	0.494620
