data_functionalizedCrystal
_audit_creation_method	'MofGen! by Chris Wilmer'
_symmetry_space_group_name_H-M	'P1'
_symmetry_Int_Tables_number	1
_symmetry_cell_setting	triclinic
loop_
_symmetry_equiv_pos_as_xyz
  x,y,z
_cell_length_a	19.188925
_cell_length_b	18.266242
_cell_length_c	14.853567
_cell_angle_alpha	90.001325
_cell_angle_beta	83.388740
_cell_angle_gamma	90.009890
loop_
_atom_site_label
_atom_site_type_symbol
_atom_site_fract_x
_atom_site_fract_y
_atom_site_fract_z
O1	O	0.926527	0.060891	0.112529
O2	O	1.426527	0.560891	0.612529
O3	O	0.723266	0.060888	0.127686
O4	O	1.223266	0.560888	0.627686
O5	O	0.830326	0.060892	-0.011153
O6	O	1.330326	0.560892	0.488847
O7	O	0.819467	0.060887	0.251367
O8	O	1.319467	0.560887	0.751367
O9	O	0.830307	-0.060870	-0.011157
O10	O	1.330307	0.439130	0.488843
O11	O	0.723247	-0.060874	0.127682
O12	O	1.223247	0.439126	0.627682
O13	O	0.926509	-0.060871	0.112525
O14	O	1.426509	0.439129	0.612525
Zn15	Zn	0.824875	-0.080205	0.120103
Zn16	Zn	1.324875	0.419795	0.620103
Zn17	Zn	0.824899	0.080222	0.120108
Zn18	Zn	1.324899	0.580222	0.620108
O19	O	0.819449	-0.060875	0.251364
O20	O	1.319449	0.439125	0.751364
C21	C	0.697244	0.000007	0.127194
C22	C	1.197244	0.500007	0.627194
C23	C	0.619734	0.000006	0.125723
C24	C	1.119734	0.500006	0.625723
N25	N	0.824864	-0.189692	0.120099
N26	N	1.324864	0.310308	0.620099
C27	C	0.058203	0.000006	0.197339
C28	C	0.558203	0.500006	0.697339
C29	C	0.131031	0.000010	0.198729
C30	C	0.631031	0.500010	0.698729
C31	C	0.175693	0.000010	0.117263
C32	C	0.675693	0.500010	0.617263
C33	C	0.147523	0.000025	0.034401
C34	C	0.647523	0.500025	0.534401
C35	C	0.074696	0.000029	0.033014
C36	C	0.574696	0.500029	0.533014
N37	N	0.296168	-0.041437	0.058284
N38	N	0.796168	0.458563	0.558284
N39	N	0.365349	-0.041442	0.059608
N40	N	0.865349	0.458558	0.559608
C41	C	0.395117	0.000002	0.121439
C42	C	0.895117	0.500002	0.621439
N43	N	0.353087	0.041441	0.181911
N44	N	0.853087	0.541441	0.681911
N45	N	0.283899	0.041443	0.180589
N46	N	0.783899	0.541443	0.680589
C47	C	0.254663	0.000007	0.118759
C48	C	0.754663	0.500007	0.618759
C49	C	0.502247	-0.000004	0.205803
C50	C	1.002247	0.499996	0.705803
C51	C	0.575076	0.000005	0.207190
C52	C	1.075076	0.500005	0.707190
C53	C	0.591568	0.000012	0.042859
C54	C	1.091568	0.500012	0.542859
C55	C	0.518739	0.000011	0.041475
C56	C	1.018739	0.500011	0.541475
C57	C	0.474083	-0.000000	0.122950
C58	C	0.974083	0.500000	0.622950
C59	C	0.867255	-0.227995	0.174646
C60	C	1.367255	0.272005	0.674646
C61	C	0.867267	-0.304640	0.174643
C62	C	1.367267	0.195360	0.674643
C63	C	0.824874	-0.342979	0.120104
C64	C	1.324874	0.157021	0.620104
C65	C	0.782480	-0.304666	0.065546
C66	C	1.282480	0.195334	0.565546
C67	C	0.782475	-0.228023	0.065543
C68	C	1.282475	0.271977	0.565543
N69	N	0.763719	-0.463332	0.117885
N70	N	1.263719	0.036668	0.617885
N71	N	0.763725	-0.536140	0.117893
N72	N	1.263725	-0.036140	0.617893
C73	C	0.824888	-0.573901	0.120108
C74	C	1.324888	-0.073901	0.620108
N75	N	0.886044	-0.536104	0.122332
N76	N	1.386044	-0.036104	0.622332
N77	N	0.886037	-0.463289	0.122329
N78	N	1.386037	0.036711	0.622329
C79	C	0.824875	-0.426086	0.120101
C80	C	1.324875	0.073914	0.620101
C81	C	0.867295	-0.695312	0.174655
C82	C	1.367295	-0.195312	0.674655
C83	C	0.867308	-0.771958	0.174646
C84	C	1.367308	-0.271958	0.674646
C85	C	0.782515	-0.771983	0.065554
C86	C	1.282515	-0.271983	0.565554
C87	C	0.782509	-0.695338	0.065557
C88	C	1.282509	-0.195338	0.565557
C89	C	0.824898	-0.657007	0.120113
C90	C	1.324898	-0.157007	0.620113
C91	C	0.952531	0.000012	0.113017
C92	C	1.452531	0.500012	0.613017
C93	C	1.030040	0.000017	0.114488
C94	C	1.530040	0.500017	0.614488
C95	C	0.829825	0.000013	-0.044741
C96	C	1.329825	0.500013	0.455259
C97	C	0.828350	0.000019	-0.144816
C98	C	1.328350	0.500019	0.355184
N99	N	0.824916	0.189709	0.120105
N100	N	1.324916	0.689709	0.620105
C101	C	0.758522	0.000004	-0.556960
C102	C	1.258522	0.500004	-0.056960
C103	C	0.885711	0.000006	-0.578951
C104	C	1.385711	0.500006	-0.078951
C105	C	0.887098	0.000010	-0.484925
C106	C	1.387098	0.500010	0.015075
C107	C	0.824195	0.000010	-0.426912
C108	C	1.324195	0.500010	0.073088
C109	C	0.759906	0.000006	-0.462925
C110	C	1.259906	0.500006	0.037075
C111	C	0.951386	0.000007	-0.448905
C112	C	1.451386	0.500007	0.051095
C113	C	0.952774	0.000011	-0.354874
C114	C	1.452774	0.500011	0.145126
C115	C	0.889871	0.000016	-0.296859
C116	C	1.389871	0.500016	0.203141
C117	C	0.825579	0.000013	-0.332877
C118	C	1.325579	0.500013	0.167123
C119	C	0.762677	0.000013	-0.274864
C120	C	1.262677	0.500013	0.225136
C121	C	0.698384	0.000015	-0.310880
C122	C	1.198384	0.500015	0.189120
C123	C	0.697003	0.000012	-0.404910
C124	C	1.197003	0.500012	0.095090
C125	C	0.891253	0.000019	-0.202829
C126	C	1.391253	0.500019	0.297171
C127	C	0.764061	0.000015	-0.180829
C128	C	1.264061	0.500015	0.319171
C129	C	0.819950	0.000005	0.284951
C130	C	1.319950	0.500005	0.784951
C131	C	0.821424	0.000004	0.385027
C132	C	1.321424	0.500004	0.885027
H133	H	0.021848	0.000000	0.263682
H134	H	0.521848	0.500000	0.763682
H135	H	0.901811	-0.664101	0.219077
H136	H	1.401811	-0.164101	0.719077
N137	N	0.913043	-0.813257	0.233485
N138	N	1.413043	-0.313257	0.733485
H139	H	0.882697	-0.845067	0.277713
H140	H	1.382697	-0.345067	0.777713
H141	H	0.947184	-0.845001	0.194065
H142	H	1.447184	-0.345001	0.694065
N143	N	0.627663	0.000002	-0.443753
N144	N	1.127663	0.500002	0.056247
H145	H	0.600105	0.045139	-0.422589
H146	H	1.100105	0.545139	0.077411
H147	H	0.636390	-0.000032	-0.512116
H148	H	1.136390	0.499968	-0.012116
N149	N	0.639729	0.000021	-0.045010
N150	N	1.139729	0.500021	0.454990
H151	H	0.690139	0.000019	-0.031561
H152	H	1.190139	0.500019	0.468439
H153	H	0.630593	-0.045115	-0.081138
H154	H	1.130593	0.454885	0.418862
H155	H	1.002597	0.000000	-0.496146
H156	H	1.502597	0.500000	0.003854
H157	H	0.747999	-0.803198	0.021146
H158	H	1.247999	-0.303198	0.521146
N159	N	0.161418	-0.000001	0.288093
N160	N	0.661418	0.499999	0.788093
H161	H	0.122078	-0.000006	0.339495
H162	H	0.622078	0.499994	0.839495
H163	H	0.191266	-0.045142	0.292235
H164	H	0.691266	0.454858	0.792235
H165	H	0.747986	-0.664151	0.021143
H166	H	1.247986	-0.164151	0.521143
H167	H	0.901774	-0.196791	0.219066
H168	H	1.401774	0.303209	0.719066
H169	H	0.183892	0.000027	-0.031929
H170	H	0.683892	0.500027	0.468071
N171	N	0.696218	0.000005	-0.118253
N172	N	1.196218	0.500005	0.381747
H173	H	0.693963	0.045139	-0.078745
H174	H	1.193963	0.545139	0.421255
H175	H	0.655319	-0.000025	-0.155397
H176	H	1.155319	0.499975	0.344603
N177	N	0.488355	0.000013	-0.047884
N178	N	0.988355	0.500013	0.452116
H179	H	0.504642	0.045150	-0.083562
H180	H	1.004642	0.545150	0.416438
H181	H	0.504633	-0.045154	-0.083492
H182	H	1.004633	0.454846	0.416508
N183	N	0.044316	0.000040	-0.056351
N184	N	0.544316	0.500040	0.443649
H185	H	0.083658	0.000043	-0.107751
H186	H	0.583658	0.500043	0.392249
H187	H	0.014452	-0.045099	-0.060509
H188	H	0.514452	0.454901	0.439491
N189	N	0.454076	-0.000008	0.293673
N190	N	0.954076	0.499992	0.793673
H191	H	0.482971	-0.000007	0.346372
H192	H	0.982971	0.499993	0.846372
H193	H	0.423509	0.045131	0.296675
H194	H	0.923509	0.545131	0.796675
H195	H	0.647169	0.000010	-0.263634
H196	H	1.147169	0.500010	0.236366
N197	N	0.689180	0.000010	-0.595798
N198	N	1.189180	0.500010	-0.095798
H199	H	0.697844	0.000011	-0.664168
H200	H	1.197844	0.500011	-0.164168
H201	H	0.661645	-0.045129	-0.574559
H202	H	1.161645	0.454871	-0.074559
H203	H	0.598004	0.000002	0.274660
H204	H	1.098004	0.500002	0.774660
N205	N	0.953553	-0.000006	-0.641516
N206	N	1.453553	0.499994	-0.141516
H207	H	0.942921	-0.000012	-0.706549
H208	H	1.442921	0.499988	-0.206549
H209	H	0.981576	0.045133	-0.629891
H210	H	1.481576	0.545133	-0.129891
H211	H	0.901787	-0.335833	0.219065
H212	H	1.401787	0.164167	0.719065
H213	H	0.747965	-0.335887	0.021139
H214	H	1.247965	0.164113	0.521139
H215	H	0.747954	-0.196837	0.021123
H216	H	1.247954	0.303163	0.521123
N217	N	1.022114	0.000008	-0.316030
N218	N	1.522114	0.500008	0.183970
H219	H	1.061751	0.000007	-0.367050
H220	H	1.561751	0.500007	0.132950
H221	H	1.025466	0.045150	-0.277500
H222	H	1.525466	0.545150	0.222500
N223	N	0.960587	0.000009	-0.163980
N224	N	1.460587	0.500009	0.336020
H225	H	1.000225	0.000004	-0.215000
H226	H	1.500225	0.500004	0.285000
H227	H	0.963943	0.045149	-0.125449
H228	H	1.463943	0.545149	0.374551
