data_functionalizedCrystal
_audit_creation_method	'MofGen! by Chris Wilmer'
_symmetry_space_group_name_H-M	'P1'
_symmetry_Int_Tables_number	1
_symmetry_cell_setting	triclinic
loop_
_symmetry_equiv_pos_as_xyz
  x,y,z
_cell_length_a	17.699083
_cell_length_b	11.792241
_cell_length_c	16.776229
_cell_angle_alpha	89.993219
_cell_angle_beta	89.998886
_cell_angle_gamma	83.738215
loop_
_atom_site_label
_atom_site_type_symbol
_atom_site_fract_x
_atom_site_fract_y
_atom_site_fract_z
O1	O	1.004843	0.143527	-0.066177
O2	O	0.784565	0.162200	-0.066203
O3	O	0.900050	-0.012371	-0.066184
O4	O	0.889358	0.318098	-0.066196
O5	O	0.900034	-0.012382	0.066393
O6	O	0.784549	0.162189	0.066374
O7	O	1.004828	0.143516	0.066400
Zn8	Zn	0.894686	0.152851	0.087436
Zn9	Zn	0.894706	0.152865	-0.087239
O10	O	0.889343	0.318087	0.066381
C11	C	0.756356	0.161525	0.000082
C12	C	0.672328	0.159518	0.000072
C13	C	0.624253	0.261988	0.000069
C14	C	0.545299	0.260095	0.000079
C15	C	0.514422	0.155731	0.000087
C16	C	0.562503	0.053254	0.000093
C17	C	0.641455	0.055148	0.000089
C18	C	0.244099	0.045613	0.000113
C19	C	0.165141	0.043727	0.000116
C20	C	0.147944	0.250560	0.000104
C21	C	0.226896	0.252454	0.000099
C22	C	0.274970	0.149977	0.000109
C23	C	0.360580	0.152031	0.000099
C24	C	0.428814	0.153676	0.000091
C25	C	0.899370	-0.054660	0.000104
C26	C	0.897360	-0.180649	0.000103
C27	C	0.893664	-0.411317	0.000090
C28	C	0.895718	-0.282956	0.000097
C29	C	1.033036	0.144190	0.000113
C30	C	1.117065	0.146198	0.000118
C31	C	0.890022	0.360375	0.000091
C32	C	0.892032	0.486365	0.000087
N33	N	0.894678	0.152841	0.206647
N34	N	0.894721	0.152866	-0.206450
C35	C	0.945830	0.075572	0.248373
C36	C	0.945834	0.075571	0.331825
C37	C	0.894689	0.152845	0.373550
C38	C	0.843531	0.230117	0.331819
C39	C	0.843524	0.230112	0.248368
C40	C	0.843559	0.230139	0.668366
C41	C	0.843571	0.230141	0.751822
C42	C	0.945869	0.075599	0.751823
C43	C	0.945862	0.075593	0.668372
C44	C	0.894702	0.152861	0.626648
C45	C	0.894697	0.152860	0.536160
C46	C	0.894697	0.152853	0.464037
H47	H	0.506159	0.343536	0.000075
C48	C	1.002100	-0.009423	0.377724
H49	H	0.994774	0.001634	0.433400
H50	H	1.052659	0.002807	0.364043
H51	H	0.993567	-0.085159	0.364053
H52	H	0.108792	0.334002	0.000100
C53	C	0.787291	0.315140	0.622480
H54	H	0.756840	0.361168	0.659284
H55	H	0.755615	0.274375	0.589934
H56	H	0.814710	0.362337	0.589918
C57	C	0.787295	0.315126	0.797719
H58	H	0.756817	0.361132	0.760918
H59	H	0.814703	0.362332	0.830269
H60	H	0.755635	0.274329	0.830277
C61	C	0.260860	0.367250	0.000087
H62	H	0.314767	0.353702	0.000078
H63	H	0.244390	0.409433	0.046318
H64	H	0.244385	0.409433	-0.046153
C65	C	0.694337	-0.057568	0.000085
H66	H	0.664642	-0.119996	0.000082
H67	H	0.725498	-0.061137	0.046314
H68	H	0.725490	-0.061121	-0.046157
C69	C	0.658211	0.376789	0.000059
H70	H	0.618268	0.437544	0.000066
H71	H	0.688651	0.381834	-0.046175
H72	H	0.688653	0.381823	0.046296
H73	H	0.987512	0.012674	0.634402
H74	H	0.987525	0.012680	0.785804
H75	H	0.801869	0.293030	0.214396
H76	H	0.801884	0.293031	0.365796
H77	H	0.140005	-0.041263	0.000123
H78	H	0.283232	-0.037830	0.000122
C79	C	0.528541	-0.061544	0.000101
H80	H	0.474634	-0.047998	0.000095
H81	H	0.545014	-0.103733	0.046334
H82	H	0.545014	-0.103719	-0.046137
H83	H	0.987482	0.012652	0.214406
