data_functionalizedCrystal
_audit_creation_method	'MofGen! by Chris Wilmer'
_symmetry_space_group_name_H-M	'P1'
_symmetry_Int_Tables_number	1
_symmetry_cell_setting	triclinic
loop_
_symmetry_equiv_pos_as_xyz
  x,y,z
_cell_length_a	14.519709
_cell_length_b	10.540539
_cell_length_c	13.596369
_cell_angle_alpha	89.996161
_cell_angle_beta	90.000291
_cell_angle_gamma	84.102818
loop_
_atom_site_label
_atom_site_type_symbol
_atom_site_fract_x
_atom_site_fract_y
_atom_site_fract_z
O1	O	1.224765	0.166400	-0.081658
O2	O	0.956394	0.185995	-0.081688
O3	O	1.096702	-0.008572	-0.081671
O4	O	1.084457	0.360966	-0.081675
O5	O	1.096688	-0.008582	0.081912
O6	O	0.956380	0.185985	0.081895
O7	O	1.224751	0.166389	0.081924
Zn8	Zn	1.090563	0.176185	0.107882
Zn9	Zn	1.090582	0.176199	-0.107646
O10	O	1.084442	0.360956	0.081908
C11	C	0.922022	0.185077	0.000100
C12	C	0.819626	0.182340	0.000088
C13	C	0.444676	0.172265	0.000133
C14	C	0.548999	0.175063	0.000120
C15	C	0.632148	0.177303	0.000110
C16	C	0.736477	0.180101	0.000099
C17	C	1.095777	-0.055870	0.000118
C18	C	1.093029	-0.196790	0.000113
C19	C	0.987750	-0.379142	-0.000266
C20	C	0.990535	-0.232553	0.000102
C21	C	1.142346	-0.258957	0.093532
C22	C	1.138848	-0.405466	0.093610
C23	C	1.140949	-0.405994	-0.092414
C24	C	1.141893	-0.259022	-0.093649
C25	C	1.259123	0.167308	0.000135
C26	C	1.361519	0.170044	0.000140
C27	C	1.085368	0.408255	0.000116
C28	C	1.088115	0.549175	0.000115
N29	N	1.090557	0.176175	0.254974
N30	N	1.090595	0.176199	-0.254737
C31	C	1.090580	0.176200	0.656265
C32	C	1.090571	0.176198	0.544613
C33	C	1.090569	0.176189	0.455623
C34	C	1.090559	0.176184	0.343964
H35	H	0.951729	-0.189549	-0.066865
C36	C	1.161263	-0.527245	-0.241740
C37	C	1.096177	-0.448121	-0.188001
H38	H	1.133612	-0.553257	-0.300743
H39	H	1.212597	-0.481899	-0.257335
H40	H	1.181710	-0.600254	-0.203589
H41	H	1.075735	-0.375107	-0.226149
H42	H	1.044826	-0.493467	-0.172408
H43	H	1.216619	-0.235563	-0.099282
H44	H	1.105808	-0.217791	-0.162758
H45	H	1.214980	-0.453976	-0.093034
H46	H	1.212560	-0.454188	0.097856
C47	C	0.854128	-0.471936	-0.059733
C48	C	0.933085	-0.417177	-0.090699
H49	H	0.820378	-0.495412	-0.115566
H50	H	0.872183	-0.545543	-0.021281
H51	H	0.816269	-0.411978	-0.021364
H52	H	0.970948	-0.477138	-0.129062
H53	H	0.915032	-0.343560	-0.129168
H54	H	0.947421	-0.408942	0.066343
H55	H	1.217615	-0.237372	0.097013
C56	C	1.061454	-0.297454	0.242871
C57	C	1.096085	-0.201002	0.187377
H58	H	1.032896	-0.261675	0.300808
H59	H	1.017156	-0.336557	0.205076
H60	H	1.110830	-0.359533	0.260379
H61	H	1.046707	-0.138928	0.169863
H62	H	1.140386	-0.161879	0.225180
C63	C	0.903549	-0.273616	0.144787
C64	C	0.937784	-0.175641	0.090655
H65	H	0.870990	-0.238480	0.200698
H66	H	0.862808	-0.316224	0.104779
H67	H	0.953636	-0.332578	0.165611
H68	H	0.887696	-0.116684	0.069825
H69	H	0.978527	-0.133012	0.130671
H70	H	1.102389	-0.433298	0.163435
