data_functionalizedCrystal
_audit_creation_method	'MofGen! by Chris Wilmer'
_symmetry_space_group_name_H-M	'P1'
_symmetry_Int_Tables_number	1
_symmetry_cell_setting	triclinic
loop_
_symmetry_equiv_pos_as_xyz
  x,y,z
_cell_length_a	15.944545
_cell_length_b	15.021413
_cell_length_c	15.944493
_cell_angle_alpha	89.990110
_cell_angle_beta	83.485608
_cell_angle_gamma	90.004532
loop_
_atom_site_label
_atom_site_type_symbol
_atom_site_fract_x
_atom_site_fract_y
_atom_site_fract_z
O1	O	1.114510	0.073963	0.108299
O2	O	0.869956	0.073976	0.121661
O3	O	0.998937	0.073976	-0.007299
O4	O	0.985529	0.073962	0.237258
O5	O	0.998916	-0.074088	-0.007280
O6	O	0.869936	-0.074089	0.121679
O7	O	1.114489	-0.074102	0.108317
Zn8	Zn	0.992209	-0.097603	0.115001
Zn9	Zn	0.992236	0.097478	0.114977
O10	O	0.985509	-0.074102	0.237276
C11	C	0.838652	-0.000055	0.121116
C12	C	0.745406	-0.000049	0.119456
N13	N	0.992197	-0.230741	0.115017
C14	C	0.474791	-0.000054	0.034560
C15	C	0.525354	-0.073061	0.075499
C16	C	0.409764	-0.000064	0.113535
C17	C	0.525355	0.072918	0.075502
C18	C	0.574677	-0.000055	0.116440
C19	C	0.459098	-0.073132	0.154453
C20	C	0.459096	0.072913	0.154445
C21	C	0.509626	-0.000113	0.195442
C22	C	0.314762	-0.000070	0.111860
C23	C	0.669676	-0.000056	0.118122
C24	C	0.932547	-0.470425	0.174620
C25	C	1.008445	-0.529764	0.190926
C26	C	0.992218	-0.412348	0.114996
C27	C	0.916342	-0.529750	0.098709
C28	C	0.992232	-0.587772	0.114978
C29	C	1.068154	-0.470381	0.131340
C30	C	0.976001	-0.470362	0.039090
C31	C	1.051953	-0.529675	0.055364
C32	C	0.992209	-0.311291	0.115009
C33	C	0.992250	-0.688827	0.114964
C34	C	1.145793	-0.000069	0.108862
C35	C	1.239039	-0.000069	0.110522
C36	C	0.998378	-0.000052	-0.038584
C37	C	0.996735	-0.000041	-0.131833
N38	N	0.992255	0.230615	0.114954
C39	C	1.072656	-0.000062	-0.367594
C40	C	1.031725	0.072944	-0.418171
C41	C	0.993691	-0.000051	-0.302554
C42	C	1.031687	-0.073036	-0.418128
C43	C	0.990757	-0.000066	-0.467463
C44	C	0.952782	0.073014	-0.351902
C45	C	0.952755	-0.073031	-0.351856
C46	C	0.911766	-0.000008	-0.402400
C47	C	0.995384	-0.000042	-0.207554
C48	C	0.989058	-0.000068	-0.562460
C49	C	0.986067	-0.000072	0.268562
C50	C	0.987710	-0.000077	0.361811
H51	H	0.459152	-0.000121	-0.033454
H52	H	0.554288	0.134637	0.042128
F53	F	0.866657	-0.436416	0.240576
H54	H	1.022174	-0.555856	0.255110
F55	F	0.563166	-0.153733	0.031916
H56	H	0.430273	-0.134921	0.187789
F57	F	0.909232	0.153775	-0.314245
H58	H	0.843695	0.000035	-0.417864
H59	H	0.525104	-0.000159	0.263508
F60	F	0.909206	-0.153705	-0.313974
H61	H	0.430151	0.134634	0.187761
F62	F	1.117988	-0.563470	-0.010555
F63	F	1.161559	0.000027	-0.347167
H64	H	1.132341	-0.444413	0.145184
F65	F	0.958026	-0.436228	-0.044777
F66	F	1.075283	-0.153705	-0.455933
H67	H	0.852169	-0.555830	0.084942
F68	F	1.075323	0.153612	-0.456018
