data_functionalizedCrystal
_audit_creation_method	'MofGen! by Chris Wilmer'
_symmetry_space_group_name_H-M	'P1'
_symmetry_Int_Tables_number	1
_symmetry_cell_setting	triclinic
loop_
_symmetry_equiv_pos_as_xyz
  x,y,z
_cell_length_a	14.044220
_cell_length_b	12.503572
_cell_length_c	14.044220
_cell_angle_alpha	93.843168
_cell_angle_beta	86.811122
_cell_angle_gamma	93.835250
loop_
_atom_site_label
_atom_site_type_symbol
_atom_site_fract_x
_atom_site_fract_y
_atom_site_fract_z
O1	O	1.282200	0.089210	-0.225116
O2	O	1.532200	0.339210	0.024884
O3	O	1.782200	0.589210	0.274884
O4	O	2.032200	0.839210	0.524884
O5	O	1.005530	0.089237	-0.216809
O6	O	1.255530	0.339237	0.033191
O7	O	1.505530	0.589237	0.283191
O8	O	1.755530	0.839237	0.533191
O9	O	1.139712	0.089213	-0.082627
O10	O	1.389712	0.339213	0.167373
O11	O	1.639712	0.589213	0.417373
O12	O	1.889712	0.839213	0.667373
O13	O	1.148019	0.089234	-0.359298
O14	O	1.398019	0.339234	-0.109298
O15	O	1.648019	0.589234	0.140702
O16	O	1.898019	0.839234	0.390702
O17	O	1.129622	-0.089427	-0.092737
O18	O	1.379622	0.160573	0.157263
O19	O	1.629622	0.410573	0.407263
O20	O	1.879622	0.660573	0.657263
O21	O	0.995440	-0.089403	-0.226918
O22	O	1.245440	0.160597	0.023082
O23	O	1.495440	0.410597	0.273082
O24	O	1.745440	0.660597	0.523082
O25	O	1.272110	-0.089430	-0.235226
O26	O	1.522110	0.160570	0.014774
O27	O	1.772110	0.410570	0.264774
O28	O	2.022110	0.660570	0.514774
Cu29	Cu	1.132854	-0.105728	-0.231995
Cu30	Cu	1.382854	0.144272	0.018005
Cu31	Cu	1.632854	0.394272	0.268005
Cu32	Cu	1.882854	0.644272	0.518005
Cu33	Cu	1.144786	0.105535	-0.220040
Cu34	Cu	1.394786	0.355535	0.029960
Cu35	Cu	1.644786	0.605535	0.279960
Cu36	Cu	1.894786	0.855535	0.529960
O37	O	1.137929	-0.089406	-0.369407
O38	O	1.387929	0.160594	-0.119407
O39	O	1.637929	0.410594	0.130593
O40	O	1.887929	0.660594	0.380593
C41	C	0.964864	-0.000080	-0.218228
C42	C	1.214864	0.249920	0.031772
C43	C	1.464864	0.499920	0.281772
C44	C	1.714864	0.749920	0.531772
C45	C	0.858721	-0.000070	-0.207383
C46	C	1.108721	0.249930	0.042617
C47	C	1.358721	0.499930	0.292617
C48	C	1.608721	0.749930	0.542617
C49	C	0.664382	-0.000092	-0.187558
C50	C	0.914382	0.249908	0.062442
C51	C	1.164382	0.499908	0.312442
C52	C	1.414382	0.749908	0.562442
C53	C	0.613253	-0.000091	-0.264472
C54	C	0.863253	0.249909	-0.014472
C55	C	1.113253	0.499909	0.235528
C56	C	1.363253	0.749909	0.485528
C57	C	0.505116	-0.000104	-0.253441
C58	C	0.755116	0.249896	-0.003441
C59	C	1.005116	0.499896	0.246559
C60	C	1.255116	0.749896	0.496559
C61	C	0.772529	-0.000080	-0.198587
C62	C	1.022529	0.249920	0.051413
C63	C	1.272529	0.499920	0.301413
C64	C	1.522529	0.749920	0.551413
N65	N	1.124469	-0.254319	-0.240404
N66	N	1.374469	-0.004319	0.009596
N67	N	1.624469	0.245681	0.259596
N68	N	1.874469	0.495681	0.509596
C69	C	1.112134	-0.473432	-0.252782
C70	C	1.362134	-0.223432	-0.002782
C71	C	1.612134	0.026568	0.247218
C72	C	1.862134	0.276568	0.497218
C73	C	1.165511	-0.526768	-0.199249
C74	C	1.415511	-0.276768	0.050751
C75	C	1.665511	-0.026768	0.300751
C76	C	1.915511	0.223232	0.550751
C77	C	1.158648	-0.648690	-0.206136
C78	C	1.408648	-0.398690	0.043864
C79	C	1.658648	-0.148690	0.293864
C80	C	1.908648	0.101310	0.543864
C81	C	1.118996	-0.351499	-0.245896
C82	C	1.368996	-0.101499	0.004104
C83	C	1.618996	0.148501	0.254104
C84	C	1.868996	0.398501	0.504104
C85	C	1.312777	-0.000111	-0.233807
C86	C	1.562777	0.249889	0.016193
C87	C	1.812777	0.499889	0.266193
C88	C	2.062777	0.749889	0.516193
C89	C	1.418920	-0.000114	-0.244651
C90	C	1.668920	0.249886	0.005349
C91	C	1.918920	0.499886	0.255349
C92	C	2.168920	0.749886	0.505349
C93	C	1.131031	-0.000107	-0.052060
C94	C	1.381031	0.249893	0.197940
C95	C	1.631031	0.499893	0.447940
C96	C	1.881031	0.749893	0.697940
C97	C	1.120187	-0.000107	0.054082
C98	C	1.370187	0.249893	0.304082
C99	C	1.620187	0.499893	0.554082
C100	C	1.870187	0.749893	0.804082
N101	N	1.153179	0.254126	-0.211624
N102	N	1.403179	0.504126	0.038376
N103	N	1.653179	0.754126	0.288376
N104	N	1.903179	1.004126	0.538376
C105	C	1.146609	-0.000084	-0.399974
C106	C	1.396609	0.249916	-0.149974
C107	C	1.646609	0.499916	0.100026
C108	C	1.896609	0.749916	0.350026
C109	C	1.157454	-0.000077	-0.506117
C110	C	1.407454	0.249923	-0.256117
C111	C	1.657454	0.499923	-0.006117
C112	C	1.907454	0.749923	0.243883
C113	C	1.100361	-0.000090	0.248421
C114	C	1.350361	0.249910	0.498421
C115	C	1.600361	0.499910	0.748421
C116	C	1.850361	0.749910	0.998421
C117	C	1.177275	-0.000094	0.299551
C118	C	1.427275	0.249906	0.549551
C119	C	1.677275	0.499906	0.799551
C120	C	1.927275	0.749906	1.049551
C121	C	1.166244	-0.000084	0.407687
C122	C	1.416244	0.249916	0.657687
C123	C	1.666244	0.499916	0.907687
C124	C	1.916244	0.749916	1.157687
C125	C	1.111391	-0.000099	0.140274
C126	C	1.361391	0.249901	0.390274
C127	C	1.611391	0.499901	0.640274
C128	C	1.861391	0.749901	0.890274
H129	H	0.626945	-0.000104	-0.113431
H130	H	0.876945	0.249896	0.136569
H131	H	1.126945	0.499896	0.386569
H132	H	1.376945	0.749896	0.636569
H133	H	1.061285	-0.519330	-0.303783
H134	H	1.311285	-0.269330	-0.053783
H135	H	1.561285	-0.019330	0.196217
H136	H	1.811285	0.230670	0.446217
H137	H	1.026234	-0.000080	0.285859
H138	H	1.276234	0.249920	0.535859
H139	H	1.526234	0.499920	0.785859
H140	H	1.776234	0.749920	1.035859
Br141	Br	0.675649	-0.000078	-0.388034
Br142	Br	0.925649	0.249922	-0.138034
Br143	Br	1.175649	0.499922	0.111966
Br144	Br	1.425649	0.749922	0.361966
Br145	Br	1.250706	-0.450266	-0.114675
Br146	Br	1.500706	-0.200266	0.135325
Br147	Br	1.750706	0.049734	0.385325
Br148	Br	2.000706	0.299734	0.635325
Br149	Br	1.300837	-0.000115	0.237154
Br150	Br	1.550837	0.249885	0.487154
Br151	Br	1.800837	0.499885	0.737154
Br152	Br	2.050837	0.749885	0.987154
