data_functionalizedCrystal
_audit_creation_method	'MofGen! by Chris Wilmer'
_symmetry_space_group_name_H-M	'P1'
_symmetry_Int_Tables_number	1
_symmetry_cell_setting	triclinic
loop_
_symmetry_equiv_pos_as_xyz
  x,y,z
_cell_length_a	10.654550
_cell_length_b	15.072220
_cell_length_c	10.654550
_cell_angle_alpha	89.990770
_cell_angle_beta	95.515069
_cell_angle_gamma	90.000665
loop_
_atom_site_label
_atom_site_type_symbol
_atom_site_fract_x
_atom_site_fract_y
_atom_site_fract_z
O1	O	1.667839	0.073716	-0.176408
O2	O	2.167839	0.573716	0.323592
O3	O	1.302361	0.073732	-0.193214
O4	O	1.802361	0.573732	0.306786
O5	O	1.493503	0.073718	-0.002071
O6	O	1.993503	0.573718	0.497929
O7	O	1.476697	0.073730	-0.367550
O8	O	1.976697	0.573730	0.132450
O9	O	1.493490	-0.073847	-0.002048
O10	O	1.993490	0.426153	0.497952
O11	O	1.302348	-0.073833	-0.193190
O12	O	1.802348	0.426167	0.306810
O13	O	1.667826	-0.073849	-0.176384
O14	O	2.167826	0.426151	0.323616
Zn15	Zn	1.485085	-0.097270	-0.184784
Zn16	Zn	1.985085	0.402730	0.315216
Zn17	Zn	1.485102	0.097153	-0.184814
Zn18	Zn	1.985102	0.597153	0.315186
O19	O	1.476684	-0.073835	-0.367527
O20	O	1.976684	0.426165	0.132473
C21	C	1.255556	-0.000048	-0.191968
C22	C	1.755556	0.499952	0.308032
C23	C	1.116113	-0.000042	-0.188276
C24	C	1.616113	0.499958	0.311724
N25	N	1.485083	-0.229959	-0.184762
N26	N	1.985083	0.270041	0.315238
C27	C	1.036628	-0.000041	-0.300818
C28	C	1.536628	0.499959	0.199182
C29	C	0.905607	-0.000057	-0.297341
C30	C	1.405607	0.499943	0.202659
C31	C	0.933570	-0.000071	-0.068772
C32	C	1.433570	0.499929	0.431228
C33	C	1.064588	-0.000061	-0.072250
C34	C	1.564588	0.499939	0.427750
C35	C	1.485103	-0.589160	-0.184805
C36	C	1.985103	-0.089160	0.315195
C37	C	1.587717	-0.551533	-0.082876
C38	C	2.087717	-0.051533	0.417124
C39	C	1.587444	-0.448708	-0.082494
C40	C	2.087444	0.051292	0.417506
C41	C	1.485094	-0.410956	-0.184783
C42	C	1.985094	0.089044	0.315217
C43	C	1.353813	-0.448294	-0.155022
C44	C	1.853813	0.051706	0.344978
C45	C	1.354420	-0.551152	-0.154301
C46	C	1.854420	-0.051152	0.345699
C47	C	1.512592	-0.551234	-0.316788
C48	C	2.012592	-0.051234	0.183212
C49	C	1.515559	-0.448370	-0.315931
C50	C	2.015559	0.051630	0.184069
C51	C	1.485081	-0.310243	-0.184774
C52	C	1.985081	0.189757	0.315226
C53	C	1.485108	-0.689874	-0.184812
C54	C	1.985108	-0.189874	0.315188
C55	C	1.714631	-0.000067	-0.177630
C56	C	2.214631	0.499933	0.322370
C57	C	1.854074	-0.000067	-0.181322
C58	C	2.354074	0.499933	0.318678
C59	C	1.492263	-0.000064	0.044738
C60	C	1.992263	0.499936	0.544738
C61	C	1.488571	-0.000062	0.184181
C62	C	1.988571	0.499938	0.684181
N63	N	1.485114	0.229842	-0.184826
N64	N	1.985114	0.729842	0.315174
C65	C	1.477925	-0.000051	-0.414336
C66	C	1.977925	0.499949	0.085664
C67	C	1.481616	-0.000047	-0.553779
C68	C	1.981616	0.499953	-0.053779
C69	C	1.601112	-0.000067	0.263667
C70	C	2.101112	0.499933	0.763667
C71	C	1.597636	-0.000056	0.394688
C72	C	2.097636	0.499944	0.894688
C73	C	1.369066	-0.000039	0.366725
C74	C	1.869066	0.499961	0.866725
C75	C	1.372544	-0.000044	0.235706
C76	C	1.872544	0.499956	0.735706
H77	H	1.078574	-0.000032	-0.395294
H78	H	1.578574	0.499968	0.104706
H79	H	1.275566	-0.423842	-0.227237
H80	H	1.775566	0.076158	0.272763
H81	H	1.695588	-0.000080	0.221720
H82	H	2.195588	0.499920	0.721720
H83	H	1.689279	-0.000058	0.459401
H84	H	2.189279	0.499942	0.959401
H85	H	1.129309	-0.000065	0.019401
H86	H	1.629309	0.499935	0.519401
H87	H	1.280893	-0.000038	0.170985
H88	H	1.780893	0.499962	0.670985
H89	H	1.569762	-0.424113	0.015429
H90	H	2.069762	0.075887	0.515429
H91	H	1.684994	-0.423463	-0.100384
H92	H	2.184994	0.076537	0.399616
H93	H	1.275709	-0.576044	-0.225659
H94	H	1.775709	-0.076044	0.274341
H95	H	1.570286	-0.577394	0.014490
H96	H	2.070286	-0.077394	0.514490
H97	H	0.891602	-0.000092	0.025693
H98	H	1.391602	0.499908	0.525693
H99	H	0.840894	-0.000057	-0.388984
H100	H	1.340894	0.499943	0.111016
H101	H	1.685592	-0.576267	-0.100494
H102	H	2.185592	-0.076267	0.399506
H103	H	1.330366	-0.575154	-0.058012
H104	H	1.830366	-0.075154	0.441988
H105	H	1.274601	-0.000026	0.408693
H106	H	1.774601	0.499974	0.908693
H107	H	1.329199	-0.422545	-0.059822
H108	H	1.829199	0.077455	0.440178
H109	H	1.606337	-0.577172	-0.345110
H110	H	2.106337	-0.077172	0.154890
H111	H	1.612140	-0.423967	-0.338488
H112	H	2.112140	0.076033	0.161512
H113	H	1.437777	-0.575572	-0.392655
H114	H	1.937777	-0.075572	0.107345
H115	H	1.445750	-0.422670	-0.395422
H116	H	1.945750	0.077330	0.104578
