data_functionalizedCrystal
_audit_creation_method	'MofGen! by Chris Wilmer'
_symmetry_space_group_name_H-M	'P1'
_symmetry_Int_Tables_number	1
_symmetry_cell_setting	triclinic
loop_
_symmetry_equiv_pos_as_xyz
  x,y,z
_cell_length_a	10.723024
_cell_length_b	10.540539
_cell_length_c	9.798715
_cell_angle_alpha	89.998989
_cell_angle_beta	89.996609
_cell_angle_gamma	84.496680
loop_
_atom_site_label
_atom_site_type_symbol
_atom_site_fract_x
_atom_site_fract_y
_atom_site_fract_z
O1	O	1.657276	0.178046	-0.113475
O2	O	1.294132	0.195088	-0.113479
O3	O	1.483989	0.001856	-0.113475
O4	O	1.467419	0.371278	-0.113479
O5	O	1.483974	0.001856	0.113507
O6	O	1.294118	0.195088	0.113503
O7	O	1.657262	0.178045	0.113507
Zn8	Zn	1.475687	0.186567	0.149543
Zn9	Zn	1.475706	0.186567	-0.149515
O10	O	1.467405	0.371277	0.113503
C11	C	1.247624	0.193848	0.000011
C12	C	1.109068	0.190137	0.000010
C13	C	1.482739	-0.045446	0.000013
C14	C	1.479021	-0.186392	0.000006
C15	C	1.034139	0.298260	0.000008
C16	C	0.890934	0.294427	0.000006
C17	C	1.336563	-0.369746	-0.000505
C18	C	1.340332	-0.223130	0.000006
C19	C	1.545757	-0.248085	0.129625
C20	C	1.541023	-0.394627	0.129734
C21	C	1.543860	-0.395146	-0.128387
C22	C	1.545138	-0.248165	-0.130101
C23	C	1.703769	0.179286	0.000013
C24	C	1.842325	0.182997	0.000006
C25	C	1.468654	0.418580	0.000012
C26	C	1.472372	0.559526	0.000010
N27	N	1.475684	0.186565	0.353643
N28	N	1.475720	0.186559	-0.353615
C29	C	1.555399	0.105075	0.421421
C30	C	1.555419	0.105071	0.578584
H31	H	1.076009	0.393665	0.000015
C32	C	0.929289	0.057938	0.000009
C33	C	1.022614	0.028680	0.117876
C34	C	1.109589	-0.096378	0.117878
C35	C	1.103238	-0.192179	0.000013
C36	C	1.009910	-0.162923	-0.117863
C37	C	0.922935	-0.037865	-0.117865
H38	H	1.027318	0.099599	0.205134
H39	H	1.178677	-0.118035	0.205138
H40	H	1.167622	-0.284754	0.000015
H41	H	1.005206	-0.233842	-0.205121
H42	H	0.853847	-0.016208	-0.205125
C43	C	1.483114	-0.190521	0.259939
C44	C	1.371498	-0.087620	0.249009
C45	C	1.308846	-0.030059	0.379320
C46	C	1.357810	-0.075400	0.520560
C47	C	1.469432	-0.178307	0.531496
C48	C	1.532084	-0.235867	0.401185
H49	H	1.335246	-0.054051	0.144450
H50	H	1.226216	0.046120	0.371224
H51	H	1.311432	-0.032790	0.617024
H52	H	1.505683	-0.211876	0.636055
H53	H	1.614714	-0.312046	0.409281
C54	C	1.483233	-0.437733	-0.261112
C55	C	1.368026	-0.514229	-0.254596
C56	C	1.307384	-0.556816	-0.387311
C57	C	1.361949	-0.522906	-0.526543
C58	C	1.477163	-0.446406	-0.533065
C59	C	1.537805	-0.403819	-0.400349
H60	H	1.327628	-0.539334	-0.151523
H61	H	1.222096	-0.613446	-0.382483
H62	H	1.317059	-0.554431	-0.624787
H63	H	1.517561	-0.421300	-0.636137
H64	H	1.623093	-0.347188	-0.405178
H65	H	1.623672	0.035308	0.636871
H66	H	0.826548	0.386988	-0.000001
H67	H	1.067199	0.094732	-0.000024
H68	H	1.287821	-0.180499	-0.092910
C69	C	1.675762	-0.459509	0.137714
C70	C	1.787319	-0.377933	0.143973
C71	C	1.922054	-0.442808	0.151969
C72	C	1.945231	-0.589259	0.153706
C73	C	1.833670	-0.670843	0.147447
C74	C	1.698935	-0.605968	0.139451
H75	H	1.770165	-0.269514	0.142688
H76	H	2.004639	-0.382413	0.156603
H77	H	2.044969	-0.637284	0.159625
H78	H	1.850824	-0.779263	0.148732
H79	H	1.616350	-0.666363	0.134817
C80	C	1.647584	0.010821	0.342647
C81	C	1.647317	0.010837	0.185491
C82	C	1.739506	-0.083421	0.106722
C83	C	1.831963	-0.177694	0.185109
C84	C	1.832233	-0.177713	0.342274
C85	C	1.740044	-0.083455	0.421043
H86	H	1.578872	0.080627	0.127456
H87	H	1.739306	-0.083406	-0.009622
H88	H	1.900207	-0.247469	0.126800
H89	H	1.900678	-0.247503	0.400309
H90	H	1.740245	-0.083470	0.537387
H91	H	1.281784	-0.398318	-0.093457
C92	C	1.262843	-0.410501	0.124367
C93	C	1.211433	-0.310257	0.229576
C94	C	1.137720	-0.351015	0.354452
C95	C	1.115417	-0.492017	0.374119
C96	C	1.166828	-0.592270	0.268907
C97	C	1.240541	-0.551512	0.144031
H98	H	1.227943	-0.205871	0.215021
H99	H	1.099662	-0.276801	0.432337
H100	H	1.060849	-0.522188	0.466560
H101	H	1.150318	-0.696656	0.283462
H102	H	1.278599	-0.625727	0.066146
H103	H	1.287441	-0.181347	0.093075
C104	C	1.679189	-0.459011	-0.129582
C105	C	1.790186	-0.376584	-0.125576
C106	C	1.925509	-0.440453	-0.126760
C107	C	1.949836	-0.586750	-0.131951
C108	C	1.838836	-0.669186	-0.135957
C109	C	1.703512	-0.605316	-0.134773
H110	H	1.772181	-0.268278	-0.121733
H111	H	2.007679	-0.379428	-0.123794
H112	H	2.050010	-0.634030	-0.132828
H113	H	1.856841	-0.777491	-0.139800
H114	H	1.621343	-0.666342	-0.137739
H115	H	1.491691	-0.422801	0.226625
H116	H	1.647606	-0.225783	0.134445
H117	H	1.496308	-0.207281	-0.225990
H118	H	1.646253	-0.223995	-0.137927
H119	H	1.407473	0.256334	0.588107
H120	H	1.407446	0.256325	0.411966
