data_functionalizedCrystal
_audit_creation_method	'MofGen! by Chris Wilmer'
_symmetry_space_group_name_H-M	'P1'
_symmetry_Int_Tables_number	1
_symmetry_cell_setting	triclinic
loop_
_symmetry_equiv_pos_as_xyz
  x,y,z
_cell_length_a	17.699077
_cell_length_b	14.044220
_cell_length_c	16.776229
_cell_angle_alpha	89.992645
_cell_angle_beta	89.993415
_cell_angle_gamma	88.234727
loop_
_atom_site_label
_atom_site_type_symbol
_atom_site_fract_x
_atom_site_fract_y
_atom_site_fract_z
O1	O	1.012347	0.119823	-0.066280
O2	O	1.512347	0.619823	0.433720
O3	O	0.793044	0.135422	-0.066284
O4	O	1.293044	0.635422	0.433716
O5	O	0.899404	-0.010355	-0.066274
O6	O	1.399404	0.489645	0.433726
O7	O	0.905987	0.265599	-0.066290
O8	O	1.405987	0.765599	0.433710
O9	O	0.899388	-0.010364	0.066302
O10	O	1.399388	0.489636	0.566302
O11	O	0.793028	0.135413	0.066293
O12	O	1.293028	0.635413	0.566293
O13	O	1.012331	0.119814	0.066297
O14	O	1.512331	0.619814	0.566297
Zn15	Zn	0.902677	0.127612	0.087344
Zn16	Zn	1.402677	0.627612	0.587344
Zn17	Zn	0.902698	0.127624	-0.087331
Zn18	Zn	1.402698	0.627624	0.412669
O19	O	0.905971	0.265590	0.066287
O20	O	1.405971	0.765590	0.566287
C21	C	0.764800	0.134859	0.000004
C22	C	1.264800	0.634859	0.500004
C23	C	0.680667	0.133185	0.000002
C24	C	1.180667	0.633185	0.500002
C25	C	0.641136	0.132392	0.072271
C26	C	1.141136	0.632392	0.572271
C27	C	0.562084	0.130804	0.072272
C28	C	1.062084	0.630804	0.572272
C29	C	0.522564	0.130016	0.000004
C30	C	1.022564	0.630016	0.500004
C31	C	0.562100	0.130807	-0.072270
C32	C	1.062100	0.630807	0.427730
C33	C	0.641151	0.132388	-0.072271
C34	C	1.141151	0.632388	0.427729
C35	C	0.243297	0.124429	-0.072272
C36	C	0.743297	0.624429	0.427728
C37	C	0.164240	0.122851	-0.072266
C38	C	0.664240	0.622851	0.427734
C39	C	0.164230	0.122845	0.072271
C40	C	0.664230	0.622845	0.572271
C41	C	0.243281	0.124426	0.072271
C42	C	0.743281	0.624426	0.572271
C43	C	0.282810	0.125212	-0.000003
C44	C	0.782810	0.625212	0.499997
C45	C	0.368528	0.126932	-0.000003
C46	C	0.868528	0.626932	0.499997
C47	C	0.436848	0.128303	0.000003
C48	C	0.936848	0.628303	0.500003
C49	C	0.896514	-0.045667	0.000014
C50	C	1.396514	0.454333	0.500014
C51	C	0.887918	-0.150873	0.000015
C52	C	1.387918	0.349127	0.500015
C53	C	0.872203	-0.343497	0.000004
C54	C	1.372203	0.156503	0.500004
C55	C	0.933169	-0.401273	0.000002
C56	C	1.433169	0.098727	0.500002
C57	C	0.924425	-0.508456	-0.000004
C58	C	1.424425	-0.008456	0.499996
C59	C	0.880946	-0.236304	0.000010
C60	C	1.380946	0.263696	0.500010
C61	C	1.040575	0.120376	0.000007
C62	C	1.540575	0.620376	0.500007
C63	C	1.124708	0.122050	0.000003
C64	C	1.624708	0.622050	0.500003
C65	C	0.908861	0.300903	-0.000003
C66	C	1.408861	0.800903	0.499997
C67	C	0.917457	0.406108	-0.000010
C68	C	1.417457	0.906108	0.499990
N69	N	0.902668	0.127603	0.206555
N70	N	1.402668	0.627603	0.706555
N71	N	0.902712	0.127625	-0.206542
N72	N	1.402712	0.627625	0.293458
C73	C	0.949782	0.063080	0.248277
C74	C	1.449782	0.563080	0.748277
C75	C	0.949786	0.063079	0.331729
C76	C	1.449786	0.563079	0.831729
C77	C	0.902680	0.127607	0.373458
C78	C	1.402680	0.627607	0.873458
C79	C	0.855561	0.192133	0.331731
C80	C	1.355561	0.692133	0.831731
C81	C	0.855553	0.192129	0.248280
C82	C	1.355553	0.692129	0.748280
C83	C	0.855589	0.192152	0.668278
C84	C	1.355589	0.692152	1.168278
C85	C	0.855602	0.192153	0.751735
C86	C	1.355602	0.692153	1.251735
C87	C	0.949822	0.063102	0.751727
C88	C	1.449822	0.563102	1.251727
C89	C	0.949814	0.063098	0.668276
C90	C	1.449814	0.563098	1.168276
C91	C	0.902693	0.127620	0.626556
C92	C	1.402693	0.627620	1.126556
C93	C	0.902688	0.127619	0.536068
C94	C	1.402688	0.627619	1.036068
C95	C	0.902688	0.127613	0.463945
C96	C	1.402688	0.627613	0.963945
H97	H	0.132065	0.122209	-0.131119
H98	H	0.632065	0.622209	0.368881
C99	C	1.001649	-0.007883	0.797617
C100	C	1.501649	0.492117	1.297617
H101	H	1.029707	-0.046306	0.760812
H102	H	1.529707	0.453694	1.260812
H103	H	0.971770	-0.047294	0.830182
H104	H	1.471770	0.452706	1.330182
H105	H	1.035456	0.026166	0.830159
H106	H	1.535456	0.526166	1.330159
C107	C	1.012551	-0.359355	0.000021
C108	C	1.512551	0.140645	0.500021
H109	H	1.008093	-0.291769	0.000035
H110	H	1.508093	0.208231	0.500035
H111	H	1.039281	-0.380197	-0.046205
H112	H	1.539281	0.119803	0.453795
H113	H	1.039247	-0.380225	0.046265
H114	H	1.539247	0.119775	0.546265
H115	H	0.813446	-0.374530	0.000000
H116	H	1.313446	0.125470	0.500000
C117	C	0.803719	0.263086	0.377627
C118	C	1.303719	0.763086	0.877627
H119	H	0.775647	0.301499	0.340825
H120	H	1.275647	0.801499	0.840825
H121	H	0.833583	0.302509	0.410181
H122	H	1.333583	0.802509	0.910181
H123	H	0.769926	0.229011	0.410180
H124	H	1.269926	0.729011	0.910180
C125	C	1.001598	-0.007903	0.202382
C126	C	1.501598	0.492097	0.702382
H127	H	1.029652	-0.046336	0.239185
H128	H	1.529652	0.453664	0.739185
H129	H	1.035397	0.026134	0.169814
H130	H	1.535397	0.526134	0.669814
H131	H	0.971705	-0.047317	0.169842
H132	H	1.471705	0.452683	0.669842
C133	C	0.120743	0.122051	0.151771
C134	C	0.620743	0.622051	0.651771
H135	H	0.068002	0.121011	0.141425
H136	H	0.568002	0.621011	0.641425
H137	H	0.131673	0.177580	0.181416
H138	H	0.631673	0.677580	0.681416
H139	H	0.135718	0.067082	0.181513
H140	H	0.635718	0.567082	0.681513
H141	H	0.988149	0.010539	0.365698
H142	H	1.488149	0.510539	0.865698
H143	H	0.817188	0.244669	0.214311
H144	H	1.317188	0.744669	0.714311
C145	C	0.684605	0.133260	0.151765
C146	C	1.184605	0.633260	0.651765
H147	H	0.737347	0.134324	0.141417
H148	H	1.237347	0.634324	0.641417
H149	H	0.673692	0.077754	0.181464
H150	H	1.173692	0.577754	0.681464
H151	H	0.669600	0.188251	0.181454
H152	H	1.169600	0.688251	0.681454
C153	C	0.518603	0.129938	0.151767
C154	C	1.018603	0.629938	0.651767
H155	H	0.553462	0.130647	0.194807
H156	H	1.053462	0.630647	0.694807
H157	H	0.489810	0.074077	0.154781
H158	H	0.989810	0.574077	0.654781
H159	H	0.485721	0.184574	0.154763
H160	H	0.985721	0.684574	0.654763
H161	H	0.817240	0.244702	0.785709
H162	H	1.317240	0.744702	1.285709
H163	H	0.673335	0.133036	-0.131119
H164	H	1.173335	0.633036	0.368881
C165	C	1.001644	-0.007863	0.622374
C166	C	1.501644	0.492137	1.122374
H167	H	0.994901	0.001386	0.566699
H168	H	1.494901	0.501386	1.066699
H169	H	0.989174	-0.071109	0.636054
H170	H	1.489174	0.428891	1.136054
H171	H	1.052843	0.002373	0.636045
H172	H	1.552843	0.502373	1.136045
C173	C	0.286749	0.125287	0.151765
C174	C	0.786749	0.625287	0.651765
H175	H	0.251884	0.124577	0.194807
H176	H	0.751884	0.624577	0.694807
H177	H	0.315545	0.181146	0.154770
H178	H	0.815545	0.681146	0.654770
H179	H	0.319629	0.070648	0.154767
H180	H	0.819629	0.570648	0.654767
C181	C	0.286769	0.125304	-0.151769
C182	C	0.786769	0.625304	0.348231
H183	H	0.251908	0.124620	-0.194806
H184	H	0.751908	0.624620	0.305194
H185	H	0.319652	0.070676	-0.154775
H186	H	0.819652	0.570676	0.345225
H187	H	0.315561	0.181174	-0.154776
H188	H	0.815561	0.681174	0.345224
H189	H	0.817223	0.244690	0.634316
H190	H	1.317223	0.744690	1.134316
H191	H	0.529916	0.130159	-0.131112
H192	H	1.029916	0.630159	0.368888
