data_functionalizedCrystal
_audit_creation_method	'MofGen! by Chris Wilmer'
_symmetry_space_group_name_H-M	'P1'
_symmetry_Int_Tables_number	1
_symmetry_cell_setting	triclinic
loop_
_symmetry_equiv_pos_as_xyz
  x,y,z
_cell_length_a	14.853567
_cell_length_b	10.489741
_cell_length_c	13.930277
_cell_angle_alpha	89.995758
_cell_angle_beta	89.995755
_cell_angle_gamma	84.087052
loop_
_atom_site_label
_atom_site_type_symbol
_atom_site_fract_x
_atom_site_fract_y
_atom_site_fract_z
O1	O	1.197302	0.166528	-0.079764
O2	O	0.934954	0.186365	-0.079780
O3	O	1.072098	-0.009218	-0.079766
O4	O	1.060158	0.362111	-0.079778
O5	O	1.072078	-0.009222	0.079896
O6	O	0.934935	0.186361	0.079881
O7	O	1.197283	0.166524	0.079898
Zn8	Zn	1.066106	0.176442	0.105239
Zn9	Zn	1.066131	0.176447	-0.105122
O10	O	1.060139	0.362107	0.079883
C11	C	0.901351	0.185464	0.000048
C12	C	0.801252	0.182771	0.000042
C13	C	0.388003	0.055204	0.000068
C14	C	0.368025	0.287562	0.000059
C15	C	0.462072	0.290094	0.000056
C16	C	0.519090	0.175180	0.000057
C17	C	0.482060	0.057733	0.000062
C18	C	0.499110	0.407539	0.000042
C19	C	0.593163	0.410077	0.000038
C20	C	0.650183	0.295161	0.000046
C21	C	0.613147	0.177709	0.000051
C22	C	0.670164	0.062795	0.000053
C23	C	0.633130	-0.054658	0.000065
C24	C	0.539079	-0.057183	0.000070
C25	C	0.744234	0.297685	0.000041
C26	C	0.764221	0.065324	0.000047
C27	C	1.071186	-0.056742	0.000064
C28	C	1.068488	-0.198341	0.000062
C29	C	0.981228	-0.265502	0.000050
C30	C	1.022439	-0.358089	0.078774
C31	C	1.022479	-0.358060	-0.078640
C32	C	1.109736	-0.289063	0.078851
C33	C	1.109763	-0.289024	-0.078633
C34	C	1.151038	-0.381585	0.000110
C35	C	1.230886	0.167425	0.000067
C36	C	1.330985	0.170118	0.000067
C37	C	1.061051	0.409631	0.000051
C38	C	1.063748	0.551230	0.000047
N39	N	1.066095	0.176437	0.248805
N40	N	1.066149	0.176442	-0.248688
C41	C	1.005401	0.263018	0.701068
C42	C	1.126886	0.089867	0.701050
C43	C	1.126875	0.089863	0.600555
C44	C	1.066127	0.176439	0.550311
C45	C	1.005390	0.263019	0.600563
C46	C	1.187617	0.003293	0.550295
C47	C	1.187609	0.003287	0.449793
C48	C	1.126857	0.089858	0.399548
C49	C	1.066117	0.176440	0.449806
C50	C	1.005369	0.263016	0.399563
C51	C	0.944624	0.349593	0.449819
C52	C	0.944638	0.349590	0.550318
C53	C	1.126843	0.089861	0.299049
C54	C	1.005358	0.263017	0.299058
H55	H	0.623308	0.505714	0.000028
H56	H	0.508917	-0.152807	0.000103
H57	H	0.955941	0.333505	0.741990
H58	H	1.146618	-0.258647	0.145481
N59	N	0.891223	-0.202215	0.000146
N60	N	0.838550	-0.220311	0.067633
H61	H	0.774984	-0.175615	0.067705
N62	N	0.976171	-0.396427	-0.162135
N63	N	0.967271	-0.512217	-0.175862
H64	H	0.934562	-0.539313	-0.234827
H65	H	1.176349	0.019385	0.741962
H66	H	0.321596	0.381119	0.000050
H67	H	0.955886	0.333514	0.258155
N68	N	0.440884	0.524925	0.000052
N69	N	0.473958	0.629779	0.000044
H70	H	0.432832	0.712689	0.000054
H71	H	0.985509	-0.388688	0.145325
H72	H	0.357845	-0.040424	0.000082
N73	N	1.241125	-0.444587	0.000174
N74	N	1.293655	-0.426713	0.067829
H75	H	1.357279	-0.471209	0.067879
H76	H	0.774383	0.393314	0.000033
H77	H	0.895166	0.420090	0.408899
N78	N	1.156048	-0.250605	-0.162131
N79	N	1.126325	-0.272332	-0.243814
H80	H	1.159008	-0.245197	-0.302793
H81	H	1.237080	-0.067188	0.591206
H82	H	0.895182	0.420079	0.591243
H83	H	1.237070	-0.067210	0.408880
H84	H	1.176304	0.019377	0.258135
H85	H	0.679566	-0.148221	0.000060
N86	N	0.822474	-0.052049	0.000058
N87	N	0.877187	-0.076554	0.067356
H88	H	0.918330	-0.159448	0.067366
