data_functionalizedCrystal
_audit_creation_method	'MofGen! by Chris Wilmer'
_symmetry_space_group_name_H-M	'P1'
_symmetry_Int_Tables_number	1
_symmetry_cell_setting	triclinic
loop_
_symmetry_equiv_pos_as_xyz
  x,y,z
_cell_length_a	8.559649
_cell_length_b	17.699083
_cell_length_c	16.776229
_cell_angle_alpha	90.001114
_cell_angle_beta	89.994739
_cell_angle_gamma	103.469160
loop_
_atom_site_label
_atom_site_type_symbol
_atom_site_fract_x
_atom_site_fract_y
_atom_site_fract_z
O1	O	0.202110	-0.992507	-0.066174
O2	O	0.228404	-0.770623	-0.066200
O3	O	-0.017421	-0.901113	-0.066184
O4	O	0.447935	-0.862017	-0.066190
O5	O	-0.017436	-0.901098	0.066393
O6	O	0.228389	-0.770608	0.066377
O7	O	0.202095	-0.992492	0.066403
Zn8	Zn	0.215240	-0.881548	0.087439
Zn9	Zn	0.215259	-0.881567	-0.087236
O10	O	0.447920	-0.862002	0.066387
C11	C	0.227455	-0.742473	0.000085
C12	C	0.224628	-0.658616	0.000075
C13	C	-0.076970	-0.904069	0.000103
C14	C	-0.254384	-0.912888	0.000100
C15	C	0.203044	-1.020643	0.000116
C16	C	0.205871	-1.104499	0.000120
C17	C	0.507469	-0.859047	0.000098
C18	C	0.684883	-0.850227	0.000096
N19	N	0.215225	-0.881540	0.206650
C20	C	0.368922	-0.601734	0.000074
C21	C	0.366257	-0.522943	0.000084
C22	C	0.219296	-0.501037	0.000090
C23	C	0.074990	-0.557926	0.000094
C24	C	0.077657	-0.636715	0.000090
C25	C	0.064231	-0.240179	0.000114
C26	C	0.061575	-0.161383	0.000116
C27	C	0.352831	-0.126407	0.000108
C28	C	0.355498	-0.205196	0.000104
C29	C	0.211193	-0.262078	0.000112
C30	C	0.214085	-0.347512	0.000102
C31	C	0.216402	-0.415605	0.000094
N32	N	0.215261	-0.881581	-0.206447
C33	C	0.106418	-0.939335	0.248374
C34	C	0.106417	-0.939339	0.331827
C35	C	0.215231	-0.881552	0.373553
C36	C	0.324043	-0.823752	0.331823
C37	C	0.324036	-0.823745	0.248372
C38	C	0.324075	-0.823777	0.668370
C39	C	0.324077	-0.823790	0.751827
C40	C	0.106456	-0.939371	0.751824
C41	C	0.106448	-0.939364	0.668374
C42	C	0.215254	-0.881563	0.626651
C43	C	0.215252	-0.881558	0.536163
C44	C	0.215242	-0.881559	0.464040
H45	H	-0.231386	-0.789834	0.000091
H46	H	-0.338124	-0.973285	0.000113
N47	N	-0.010926	-1.001681	0.376827
H48	H	0.005582	-0.992917	0.436024
H49	H	-0.124287	-0.999535	0.362248
H50	H	0.412671	-0.776714	0.634406
H51	H	0.488595	-0.619562	0.000068
N52	N	0.521888	-0.461590	0.000172
H53	H	0.615391	-0.487424	0.000192
H54	H	0.527250	-0.428086	-0.048943
H55	H	0.017855	-0.986435	0.785804
N56	N	0.441399	-0.761418	0.376824
H57	H	0.424898	-0.770192	0.436021
H58	H	0.554756	-0.763565	0.362226
H59	H	0.412635	-0.776682	0.214401
N60	N	0.514004	-0.228824	0.000086
H61	H	0.605013	-0.180833	0.000086
H62	H	0.521454	-0.260756	0.049230
H63	H	-0.044668	-0.540084	0.000111
N64	N	-0.077977	-0.698068	0.000085
H65	H	-0.053989	-0.751305	0.000083
H66	H	-0.142039	-0.691935	0.049235
N67	N	-0.010911	-1.001688	0.623363
H68	H	0.007348	-1.054344	0.637875
H69	H	-0.124268	-0.999498	0.637910
H70	H	0.412690	-0.776729	0.785799
N71	N	0.508480	-0.065055	0.000102
H72	H	0.484500	-0.011817	0.000109
H73	H	0.572542	-0.071193	0.049245
N74	N	-0.096934	-0.137747	0.000130
H75	H	-0.160150	-0.159104	-0.049011
H76	H	-0.160006	-0.159102	0.049314
N77	N	-0.091404	-0.301524	0.000128
H78	H	-0.184903	-0.275688	0.000132
H79	H	-0.096651	-0.334980	-0.049018
H80	H	0.017816	-0.986394	0.214406
