data_functionalizedCrystal
_audit_creation_method	'MofGen! by Chris Wilmer'
_symmetry_space_group_name_H-M	'P1'
_symmetry_Int_Tables_number	1
_symmetry_cell_setting	triclinic
loop_
_symmetry_equiv_pos_as_xyz
  x,y,z
_cell_length_a	14.628931
_cell_length_b	14.560432
_cell_length_c	14.628931
_cell_angle_alpha	90.000632
_cell_angle_beta	60.000164
_cell_angle_gamma	60.001289
loop_
_atom_site_label
_atom_site_type_symbol
_atom_site_fract_x
_atom_site_fract_y
_atom_site_fract_z
Zr1	Zr	1.000599	0.884751	-0.119960
O2	O	1.191300	0.738106	-0.265920
O3	O	0.809895	0.929706	-0.075216
O4	O	1.000600	0.929706	-0.265921
O5	O	1.000596	0.738105	0.075216
O6	O	1.000604	1.080844	-0.265921
O7	O	1.000595	0.738106	-0.075215
O8	O	0.659468	1.080843	0.075215
O9	O	1.341731	0.738107	-0.265920
O10	O	0.888338	1.061671	-0.056133
O11	O	0.888336	0.948878	0.056133
O12	O	1.112866	0.948879	-0.168398
O13	O	1.112863	0.836086	-0.056132
Zr14	Zr	1.000606	1.125798	0.119960
Zr15	Zr	1.000605	1.125798	-0.119961
Zr16	Zr	1.000600	0.884751	0.119961
Zr17	Zr	1.240520	0.884752	-0.119960
Zr18	Zr	0.760685	1.125798	0.119960
O19	O	1.191310	1.080844	0.075216
O20	O	1.191309	1.080844	-0.265921
O21	O	1.191301	0.738106	0.075217
O22	O	0.809905	1.272443	0.265920
O23	O	0.809904	1.272443	-0.075217
O24	O	0.809896	0.929705	0.265921
O25	O	1.000609	1.272444	-0.075216
O26	O	1.000605	1.080843	0.265921
O27	O	1.000601	0.929705	0.265921
O28	O	1.000609	1.272444	0.075215
O29	O	1.341736	0.929707	-0.265920
O30	O	0.659468	1.080842	0.265920
O31	O	0.659473	1.272443	0.265920
O32	O	0.659473	1.272443	0.075215
O33	O	1.341732	0.738106	-0.075214
O34	O	1.341737	0.929707	-0.075215
O35	O	0.888339	1.061670	0.168398
O36	O	0.888341	1.174463	0.056132
O37	O	1.112869	1.061671	-0.056132
O38	O	1.112866	0.948879	0.056133
C39	C	0.700498	1.005274	-0.000000
C40	C	0.598645	1.005274	-0.000001
C41	C	0.526726	0.926147	-0.078758
C42	C	0.631998	0.926145	-0.078760
C43	C	1.000595	0.703762	0.000001
C44	C	1.000592	0.601431	0.000001
C45	C	0.766183	0.719169	0.117196
C46	C	0.648982	0.729961	0.175787
C47	C	0.648988	0.633809	0.175784
C48	C	0.766206	0.526856	0.117186
C49	C	0.883407	0.516063	0.058594
C50	C	0.883389	0.612224	0.058601
C51	C	1.117813	0.398326	-0.058593
C52	C	1.117811	0.494477	-0.058598
C53	C	1.235032	0.291373	-0.117191
C54	C	1.352235	0.280579	-0.175791
C55	C	1.352225	0.376740	-0.175786
C56	C	1.235011	0.483685	-0.117189
C57	C	1.300707	1.005275	0.000001
C58	C	1.402560	1.005275	0.000001
C59	C	1.000601	1.005275	-0.300105
C60	C	1.000601	1.005275	-0.401957
C61	C	1.000610	1.306788	-0.000000
C62	C	1.000613	1.409119	-0.000001
C63	C	1.111982	0.949323	-0.503058
C64	C	1.111984	0.949322	-0.608329
C65	C	1.000603	1.005274	0.300105
C66	C	1.000604	1.005274	0.401958
C67	C	0.700505	1.306787	-0.000001
C68	C	0.598655	1.409118	-0.000001
C69	C	0.700499	1.005274	0.300104
C70	C	0.598646	1.005273	0.401957
C71	C	0.700506	1.306787	0.300104
C72	C	0.598657	1.409117	0.401956
C73	C	1.300698	0.703763	-0.300103
C74	C	1.402548	0.601432	-0.401956
C75	C	1.300699	0.703762	0.000001
C76	C	1.402549	0.601432	0.000002
C77	C	1.300706	1.005276	-0.300104
C78	C	1.402559	1.005276	-0.401957
C79	C	0.553246	1.398787	-0.055693
C80	C	0.447978	1.504550	-0.055695
C81	C	0.553239	1.061226	0.503057
C82	C	0.447969	1.061227	0.608328
C83	C	0.553250	1.510692	0.391674
C84	C	0.447983	1.616457	0.496942
H85	H	0.555093	0.858399	-0.146181
Cl86	Cl	0.613543	1.264249	-0.129314
H87	H	0.559604	1.496261	0.047672
Cl88	Cl	0.387685	1.491156	-0.129305
H89	H	0.408918	1.109131	0.695058
H90	H	0.492170	1.073024	0.067430
Cl91	Cl	0.766167	0.840052	0.117189
H92	H	0.553545	0.817052	0.223499
H93	H	0.374192	1.073015	0.067432
H94	H	0.553553	0.642601	0.223499
H95	H	0.559592	0.957366	0.393337
Cl96	Cl	0.766209	0.405979	0.117204
Cl97	Cl	0.613544	1.135179	0.516378
H98	H	0.441601	0.957375	0.511315
H99	H	1.235028	0.213085	-0.117183
Cl100	Cl	0.796392	0.821552	-0.182875
H101	H	0.592311	1.519356	0.304939
Cl102	Cl	1.499578	0.146129	-0.249440
H103	H	1.207337	0.901426	-0.511678
H104	H	1.447664	0.367940	-0.223485
H105	H	1.234991	0.561985	-0.117184
Cl106	Cl	1.259216	0.875352	-0.742232
Cl107	Cl	0.462851	1.619522	0.073623
H108	H	0.905241	1.053173	-0.511316
Cl109	Cl	0.387693	1.750989	0.483611
Cl110	Cl	0.853372	1.079243	-0.388637
Cl111	Cl	0.462848	1.471593	0.611377
H112	H	0.559603	1.400456	0.488693
