data_functionalizedCrystal
_audit_creation_method	'MofGen! by Chris Wilmer'
_symmetry_space_group_name_H-M	'P1'
_symmetry_Int_Tables_number	1
_symmetry_cell_setting	triclinic
loop_
_symmetry_equiv_pos_as_xyz
  x,y,z
_cell_length_a	17.699083
_cell_length_b	16.098538
_cell_length_c	17.699083
_cell_angle_alpha	87.283618
_cell_angle_beta	83.283015
_cell_angle_gamma	92.727089
loop_
_atom_site_label
_atom_site_type_symbol
_atom_site_fract_x
_atom_site_fract_y
_atom_site_fract_z
O1	O	1.007465	0.069141	0.092328
O2	O	1.507465	0.569141	0.592328
O3	O	0.787088	0.069168	0.104779
O4	O	1.287088	0.569168	0.604779
O5	O	0.903503	0.069146	-0.011635
O6	O	1.403503	0.569146	0.488365
O7	O	0.891051	0.069163	0.208743
O8	O	1.391051	0.569163	0.708743
O9	O	0.896702	-0.069365	-0.004861
O10	O	1.396702	0.430635	0.495139
O11	O	0.780288	-0.069343	0.111553
O12	O	1.280288	0.430657	0.611553
O13	O	1.000665	-0.069371	0.099102
O14	O	1.500665	0.430629	0.599102
Zn15	Zn	0.889397	-0.091349	0.106403
Zn16	Zn	1.389397	0.408651	0.606403
Zn17	Zn	0.898356	0.091146	0.097478
Zn18	Zn	1.398356	0.591146	0.597478
O19	O	0.884251	-0.069349	0.215516
O20	O	1.384251	0.430651	0.715516
C21	C	0.755491	-0.000084	0.107720
C22	C	1.255491	0.499916	0.607720
C23	C	0.671474	-0.000074	0.106381
C24	C	1.171474	0.499926	0.606381
N25	N	0.883287	-0.215897	0.112493
N26	N	1.383287	0.284103	0.612493
C27	C	0.622853	-0.000069	0.174714
C28	C	1.122853	0.499931	0.674714
C29	C	0.543909	-0.000080	0.173452
C30	C	1.043909	0.499920	0.673452
C31	C	0.513588	-0.000090	0.103856
C32	C	1.013588	0.499910	0.603856
C33	C	0.562215	-0.000097	0.035518
C34	C	1.062215	0.499903	0.535518
C35	C	0.641157	-0.000092	0.036781
C36	C	1.141157	0.499908	0.536781
C37	C	0.243851	-0.000118	0.030424
C38	C	0.743851	0.499882	0.530424
C39	C	0.164902	-0.000120	0.029166
C40	C	0.664902	0.499880	0.529166
C41	C	0.146603	-0.000106	0.167095
C42	C	0.646603	0.499894	0.667095
C43	C	0.225545	-0.000101	0.168358
C44	C	0.725545	0.499899	0.668358
C45	C	0.274165	-0.000113	0.100020
C46	C	0.774165	0.499887	0.600020
C47	C	0.359764	-0.000102	0.101389
C48	C	0.859764	0.499898	0.601389
C49	C	0.427990	-0.000094	0.102486
C50	C	0.927990	0.499906	0.602486
C51	C	0.932716	-0.259491	0.063100
C52	C	1.432716	0.240509	0.563100
C53	C	0.928450	-0.346679	0.067368
C54	C	1.428450	0.153321	0.567368
C55	C	0.874757	-0.390272	0.121033
C56	C	1.374757	0.109728	0.621033
C57	C	0.825323	-0.346671	0.170429
C58	C	1.325323	0.153329	0.670429
C59	C	0.829587	-0.259485	0.166157
C60	C	1.329587	0.240515	0.666157
C61	C	0.859301	-0.653519	0.136506
C62	C	1.359301	-0.153519	0.636506
C63	C	0.855043	-0.740711	0.140775
C64	C	1.355043	-0.240711	0.640775
C65	C	0.958169	-0.740714	0.037713
C66	C	1.458169	-0.240714	0.537713
C67	C	0.962431	-0.653525	0.033449
C68	C	1.462431	-0.153525	0.533449
C69	C	0.912994	-0.609933	0.082842
C70	C	1.412994	-0.109933	0.582842
C71	C	0.870396	-0.479392	0.125398
C72	C	1.370396	0.020608	0.625398
C73	C	0.917352	-0.520814	0.078473
C74	C	1.417352	-0.020814	0.578473
C75	C	1.032262	-0.000117	0.096161
C76	C	1.532262	0.499883	0.596161
C77	C	1.116280	-0.000122	0.097500
C78	C	1.616280	0.499878	0.597500
C79	C	0.899656	-0.000110	-0.036445
C80	C	1.399656	0.499890	0.463555
C81	C	0.898318	-0.000110	-0.120463
C82	C	1.398318	0.499890	0.379537
N83	N	0.904472	0.215694	0.091382
N84	N	1.404472	0.715694	0.591382
C85	C	0.966651	-0.000119	-0.169084
C86	C	1.466651	0.499881	0.330916
C87	C	0.965389	-0.000112	-0.248027
C88	C	1.465389	0.499888	0.251973
C89	C	0.895793	-0.000101	-0.278349
C90	C	1.395793	0.499899	0.221651
C91	C	0.827455	-0.000088	-0.229722
C92	C	1.327455	0.499912	0.270278
C93	C	0.828718	-0.000090	-0.150780
C94	C	1.328718	0.499910	0.349220
C95	C	0.822360	-0.000081	-0.548086
C96	C	1.322360	0.499919	-0.048086
C97	C	0.821102	-0.000082	-0.627034
C98	C	1.321102	0.499918	-0.127034
C99	C	0.959031	-0.000103	-0.645333
C100	C	1.459031	0.499897	-0.145333
C101	C	0.960294	-0.000105	-0.566391
C102	C	1.460294	0.499895	-0.066391
C103	C	0.891956	-0.000088	-0.517771
C104	C	1.391956	0.499912	-0.017771
C105	C	0.893326	-0.000095	-0.432172
C106	C	1.393326	0.499905	0.067828
C107	C	0.894422	-0.000100	-0.363946
C108	C	1.394422	0.499900	0.136054
C109	C	0.888097	-0.000091	0.240326
C110	C	1.388097	0.499909	0.740326
C111	C	0.889436	-0.000086	0.324344
C112	C	1.389436	0.499914	0.824344
H113	H	0.647534	-0.000061	0.231387
H114	H	1.147534	0.499939	0.731387
H115	H	0.250228	-0.000089	0.225030
H116	H	0.750228	0.499911	0.725030
Cl117	Cl	1.000223	-0.204699	-0.004365
Cl118	Cl	1.500223	0.295301	0.495635
Cl119	Cl	0.742810	-0.000075	-0.089657
Cl120	Cl	1.242810	0.499925	0.410343
Cl121	Cl	0.126786	-0.000133	-0.058333
Cl122	Cl	0.626786	0.499867	0.441667
H123	H	1.016966	-0.000118	-0.541708
H124	H	1.516966	0.499882	-0.041708
Cl125	Cl	1.044943	-0.000120	-0.706459
Cl126	Cl	1.544943	0.499880	-0.206459
Cl127	Cl	0.524096	-0.000114	-0.051975
Cl128	Cl	1.024096	0.499886	0.448025
H129	H	0.764425	-0.000074	-0.651717
H130	H	1.264425	0.499926	-0.151717
H131	H	1.021032	-0.000122	-0.287612
H132	H	1.521032	0.499878	0.212388
H133	H	0.961066	-0.485319	0.034775
H134	H	1.461066	0.014681	0.534775
H135	H	0.968698	-0.382174	0.027147
H136	H	1.468698	0.117826	0.527147
Cl137	Cl	1.029932	-0.598724	-0.034016
Cl138	Cl	1.529932	-0.098724	0.465984
Cl139	Cl	1.020312	-0.795520	-0.024380
Cl140	Cl	1.520312	-0.295520	0.475620
Cl141	Cl	0.736450	-0.000058	-0.486974
Cl142	Cl	1.236450	0.499942	0.013026
H143	H	0.789335	-0.223991	0.206377
H144	H	1.289335	0.276009	0.706377
Cl145	Cl	0.787538	-0.795507	0.208248
Cl146	Cl	1.287538	-0.295507	0.708248
H147	H	0.770789	-0.000074	-0.254416
H148	H	1.270789	0.499926	0.245584
H149	H	0.680744	-0.000096	-0.018863
H150	H	1.180744	0.499904	0.481137
H151	H	0.107007	-0.000101	0.222739
H152	H	0.607007	0.499899	0.722739
Cl153	Cl	0.797157	-0.598722	0.198601
Cl154	Cl	1.297157	-0.098722	0.698601
H155	H	0.504325	-0.000075	0.229096
H156	H	1.004325	0.499925	0.729096
H157	H	0.283428	-0.000128	-0.025221
H158	H	0.783428	0.499872	0.474779
H159	H	0.826680	-0.514892	0.169095
H160	H	1.326680	-0.014892	0.669095
Cl161	Cl	0.757819	-0.401471	0.237891
Cl162	Cl	1.257819	0.098529	0.737891
H163	H	1.023323	-0.000134	-0.144403
H164	H	1.523323	0.499866	0.355597
