data_functionalizedCrystal
_audit_creation_method	'MofGen! by Chris Wilmer'
_symmetry_space_group_name_H-M	'P1'
_symmetry_Int_Tables_number	1
_symmetry_cell_setting	triclinic
loop_
_symmetry_equiv_pos_as_xyz
  x,y,z
_cell_length_a	12.759395
_cell_length_b	12.759394
_cell_length_c	17.077396
_cell_angle_alpha	90.024622
_cell_angle_beta	90.017209
_cell_angle_gamma	90.015393
loop_
_atom_site_label
_atom_site_type_symbol
_atom_site_fract_x
_atom_site_fract_y
_atom_site_fract_z
Zn1	Zn	1.606241	-0.418223	0.443816
Zn2	Zn	1.606144	-0.593924	0.312559
Zn3	Zn	1.430549	-0.418264	0.312569
Zn4	Zn	1.430534	-0.593866	0.443787
O5	O	1.518367	-0.506069	0.378183
O6	O	1.753249	-0.441538	0.426412
O7	O	1.582817	-0.570664	0.202713
O8	O	1.453902	-0.271238	0.329995
O9	O	1.753178	-0.570624	0.329978
O10	O	1.582982	-0.271208	0.426422
O11	O	1.453808	-0.441607	0.202721
O12	O	1.283526	-0.441551	0.329968
O13	O	1.453876	-0.570525	0.553638
O14	O	1.283515	-0.570564	0.426374
O15	O	1.582967	-0.441481	0.553659
O16	O	1.582802	-0.740937	0.329950
O17	O	1.453782	-0.740895	0.426363
C18	C	1.245399	-0.506057	0.378169
C19	C	1.128623	-0.506076	0.378182
C20	C	1.128650	-0.640636	0.478407
C21	C	1.073802	-0.707923	0.528522
C22	C	0.964081	-0.707936	0.528531
C23	C	0.909204	-0.640652	0.478422
C24	C	0.964051	-0.573364	0.428308
C25	C	1.073775	-0.573361	0.428302
C26	C	0.964024	-0.438801	0.328088
C27	C	1.073746	-0.438792	0.328073
C28	C	0.909147	-0.371516	0.277979
C29	C	0.963995	-0.304232	0.227859
C30	C	1.073723	-0.304223	0.227851
C31	C	1.128593	-0.371504	0.277959
C32	C	1.518308	-0.779037	0.378170
C33	C	1.518380	-0.895814	0.378190
C34	C	1.652690	-0.895624	0.478675
C35	C	1.719878	-0.950390	0.528923
C36	C	1.719941	-1.060112	0.528940
C37	C	1.652805	-1.115070	0.478705
C38	C	1.585617	-1.060304	0.428457
C39	C	1.585564	-0.950580	0.428444
C40	C	1.451303	-1.060493	0.327978
C41	C	1.451244	-0.950772	0.327956
C42	C	1.384168	-1.115451	0.277743
C43	C	1.316983	-1.060685	0.227490
C44	C	1.316924	-0.950957	0.227474
C45	C	1.384056	-0.896006	0.277708
C46	C	1.792400	-0.506083	0.378197
C47	C	1.909177	-0.506089	0.378203
C48	C	1.518430	-0.505992	0.582927
C49	C	1.518457	-0.505959	0.670177
C50	C	1.518454	-0.232036	0.378213
C51	C	1.518491	-0.115259	0.378226
C52	C	1.518364	-0.506071	0.174235
C53	C	1.518540	-0.505808	0.086985
C54	C	1.585678	-0.438760	0.711179
C55	C	1.585690	-0.438725	0.793160
C56	C	1.518487	-0.505895	0.834136
C57	C	1.451260	-0.573097	0.793128
C58	C	1.451243	-0.573126	0.711149
C59	C	1.451302	-0.573033	0.963999
C60	C	1.451320	-0.573006	1.045983
C61	C	1.585750	-0.438633	1.046009
C62	C	1.585733	-0.438662	0.964030
C63	C	1.518506	-0.505865	0.923027
H64	H	1.118373	-0.249422	0.187047
H65	H	0.919305	-0.249450	0.187069
F66	F	1.245425	-0.640640	0.478391
F67	F	1.379749	-0.644557	0.920363
F68	F	1.245369	-0.371505	0.277951
F69	F	1.652619	-0.778848	0.478668
H70	H	1.774537	-0.905634	0.569825
F71	F	1.657264	-0.367179	0.920421
H72	H	1.774640	-1.104702	0.569864
F73	F	1.652992	-1.231845	0.478638
H74	H	1.384019	-0.806664	0.277697
H75	H	1.640486	-0.383912	1.079397
H76	H	1.396538	-0.627784	0.826498
H77	H	1.118495	-0.762703	0.569320
F78	F	0.905707	-0.779545	0.581872
F79	F	1.245407	-0.892679	0.173996
H80	H	1.384219	-1.204792	0.277763
H81	H	1.262322	-1.105441	0.186597
H82	H	1.396494	-0.627835	0.677766
F83	F	1.657211	-0.367273	0.667576
H84	H	1.640430	-0.384008	0.826540
H85	H	1.396595	-0.627699	1.079344
H86	H	0.819806	-0.371527	0.277994
F87	F	0.792428	-0.640656	0.478445
