data_functionalizedCrystal
_audit_creation_method	'MofGen! by Chris Wilmer'
_symmetry_space_group_name_H-M	'P1'
_symmetry_Int_Tables_number	1
_symmetry_cell_setting	triclinic
loop_
_symmetry_equiv_pos_as_xyz
  x,y,z
_cell_length_a	12.827893
_cell_length_b	12.827892
_cell_length_c	17.077396
_cell_angle_alpha	90.024877
_cell_angle_beta	90.017423
_cell_angle_gamma	90.015553
loop_
_atom_site_label
_atom_site_type_symbol
_atom_site_fract_x
_atom_site_fract_y
_atom_site_fract_z
Zn1	Zn	1.597652	-0.416029	0.443819
Zn2	Zn	1.597552	-0.590791	0.312561
Zn3	Zn	1.422899	-0.416065	0.312572
Zn4	Zn	1.422879	-0.590729	0.443789
O5	O	1.510246	-0.503403	0.378185
O6	O	1.743875	-0.439222	0.426415
O7	O	1.574350	-0.567655	0.202716
O8	O	1.446131	-0.269824	0.329998
O9	O	1.743801	-0.567619	0.329981
O10	O	1.574522	-0.269797	0.426425
O11	O	1.446033	-0.439284	0.202723
O12	O	1.276660	-0.439224	0.329970
O13	O	1.446097	-0.567513	0.553640
O14	O	1.276646	-0.567548	0.426375
O15	O	1.574502	-0.439162	0.553662
O16	O	1.574330	-0.737019	0.329952
O17	O	1.445999	-0.736973	0.426365
C18	C	1.238736	-0.503384	0.378171
C19	C	1.122583	-0.503401	0.378184
C20	C	0.950774	-0.567015	0.425826
C21	C	1.070824	-0.566999	0.425814
C22	C	1.510180	-0.774913	0.378171
C23	C	1.510248	-0.891066	0.378192
C24	C	1.573826	-0.942839	0.330537
C25	C	1.573897	-1.062889	0.330556
C26	C	1.782816	-0.503423	0.378200
C27	C	1.898969	-0.503432	0.378206
C28	C	1.510309	-0.503326	0.582930
C29	C	1.510336	-0.503294	0.670179
C30	C	1.510340	-0.230833	0.378216
C31	C	1.510380	-0.114680	0.378230
C32	C	1.510243	-0.503405	0.174237
C33	C	1.510418	-0.503143	0.086988
C34	C	1.577199	-0.436455	0.711182
C35	C	1.577211	-0.436421	0.793163
C36	C	1.510365	-0.503230	0.834139
C37	C	1.443495	-0.570071	0.793131
C38	C	1.443478	-0.570100	0.711152
C39	C	1.443537	-0.570008	0.964001
C40	C	1.443555	-0.569981	1.045985
C41	C	1.577270	-0.436329	1.046012
C42	C	1.577253	-0.436358	0.964033
C43	C	1.510384	-0.503201	0.923030
H44	H	1.115375	-0.621430	0.466587
Cl45	Cl	0.967702	-0.419370	0.315241
H46	H	1.455941	-1.070164	0.419028
H47	H	1.628209	-0.898289	0.289725
Cl48	Cl	1.053812	-0.419343	0.315238
Cl49	Cl	1.657934	-1.131624	0.267558
H50	H	1.631636	-0.382054	0.677825
H51	H	1.455874	-0.935618	0.419009
Cl52	Cl	1.661336	-0.352299	1.097557
Cl53	Cl	1.359508	-0.653960	1.097498
H54	H	1.631660	-0.381997	0.826543
Cl55	Cl	1.661296	-0.352374	0.912521
H56	H	1.389069	-0.624422	0.930619
Cl57	Cl	0.882040	-0.651100	0.488775
H58	H	1.389064	-0.624465	0.826500
Cl59	Cl	1.359415	-0.654125	0.659605
