data_functionalizedCrystal
_audit_creation_method	'MofGen! by Chris Wilmer'
_symmetry_space_group_name_H-M	'P1'
_symmetry_Int_Tables_number	1
_symmetry_cell_setting	triclinic
loop_
_symmetry_equiv_pos_as_xyz
  x,y,z
_cell_length_a	16.992695
_cell_length_b	9.065218
_cell_length_c	7.540329
_cell_angle_alpha	90.003038
_cell_angle_beta	89.996072
_cell_angle_gamma	92.157946
loop_
_atom_site_label
_atom_site_type_symbol
_atom_site_fract_x
_atom_site_fract_y
_atom_site_fract_z
O1	O	0.115065	-1.971074	-0.147490
O2	O	0.124504	-1.542664	-0.147492
O3	O	0.005630	-1.755152	-0.147477
O4	O	0.233939	-1.758586	-0.147505
O5	O	0.005628	-1.755138	0.147488
O6	O	0.124502	-1.542651	0.147473
O7	O	0.115064	-1.971060	0.147476
Cu8	Cu	0.119783	-1.756854	0.174407
Cu9	Cu	0.119785	-1.756870	-0.174424
O10	O	0.233938	-1.758573	0.147460
C11	C	0.123596	-1.487587	-0.000010
C12	C	0.120884	-1.323492	-0.000011
C13	C	-0.023615	-1.750726	0.000005
C14	C	-0.110753	-1.737542	0.000005
N15	N	0.119781	-1.756853	0.419755
C16	C	-0.160090	-1.864748	0.000008
C17	C	-0.241964	-1.852352	-0.000009
C18	C	-0.274500	-1.712748	-0.000016
C19	C	-0.225157	-1.585533	-0.000024
C20	C	-0.143284	-1.597931	-0.000020
C21	C	-0.518463	-1.661364	-0.000041
C22	C	-0.600343	-1.648976	-0.000040
C23	C	-0.617144	-1.915797	-0.000028
C24	C	-0.535269	-1.928182	-0.000013
C25	C	-0.485933	-1.800967	-0.000031
N26	N	-0.358189	-1.700074	-0.000028
N27	N	-0.402245	-1.813642	-0.000032
C28	C	0.263183	-1.762998	-0.000026
C29	C	0.350320	-1.776182	-0.000037
C30	C	0.115972	-2.026138	-0.000011
C31	C	0.118684	-2.190232	-0.000022
N32	N	0.119780	-1.756882	-0.419772
H33	H	-0.133606	-1.978428	0.000024
C34	C	-0.635779	-1.497494	-0.000331
C35	C	-0.682308	-1.482624	-0.152057
C36	C	-0.714976	-1.343117	-0.152369
H37	H	-0.594756	-1.423361	-0.000435
H38	H	-0.667415	-1.487091	0.102479
H39	H	-0.650675	-1.493012	-0.254841
H40	H	-0.723344	-1.556724	-0.151986
H41	H	-0.746611	-1.332714	-0.049558
H42	H	-0.673947	-1.268996	-0.152468
H43	H	-0.746555	-1.333015	-0.255304
H44	H	-0.282132	-1.955937	-0.000003
H45	H	-0.508785	-2.041862	-0.000008
C46	C	-0.464808	-1.523376	0.000228
C47	C	-0.417302	-1.522707	0.151955
C48	C	-0.367853	-1.395622	0.152251
H49	H	-0.495813	-1.438348	0.000321
H50	H	-0.432473	-1.522667	-0.102582
H51	H	-0.449634	-1.523403	0.254739
H52	H	-0.386281	-1.607707	0.151895
H53	H	-0.335518	-1.394913	0.049440
H54	H	-0.398864	-1.310603	0.152338
H55	H	-0.335610	-1.395158	0.255186
C56	C	-0.670671	-2.053961	0.000333
C57	C	-0.655846	-2.137441	0.152107
C58	C	-0.705146	-2.264724	0.152503
H59	H	-0.660744	-2.110978	-0.102408
H60	H	-0.724103	-2.026651	0.000423
H61	H	-0.602426	-2.164754	0.152001
H62	H	-0.665778	-2.080468	0.254873
H63	H	-0.758578	-2.237414	0.152592
H64	H	-0.695215	-2.321728	0.049755
H65	H	-0.695099	-2.321374	0.255486
C66	C	-0.089846	-1.459645	0.000066
C67	C	-0.135861	-1.334730	0.000105
C68	C	-0.086663	-1.207312	0.000197
H69	H	-0.057540	-1.458737	-0.102768
H70	H	-0.057572	-1.458843	0.102967
H71	H	-0.168122	-1.335531	-0.102784
H72	H	-0.168166	-1.335589	0.102933
H73	H	-0.054388	-1.206511	0.103098
H74	H	-0.054359	-1.206419	-0.102639
H75	H	-0.117877	-1.122543	0.000240
H76	H	-0.251654	-1.471864	-0.000041
