data_functionalizedCrystal
_audit_creation_method	'MofGen! by Chris Wilmer'
_symmetry_space_group_name_H-M	'P1'
_symmetry_Int_Tables_number	1
_symmetry_cell_setting	triclinic
loop_
_symmetry_equiv_pos_as_xyz
  x,y,z
_cell_length_a	14.044220
_cell_length_b	14.044190
_cell_length_c	7.540329
_cell_angle_alpha	89.991504
_cell_angle_beta	90.001925
_cell_angle_gamma	93.190328
loop_
_atom_site_label
_atom_site_type_symbol
_atom_site_fract_x
_atom_site_fract_y
_atom_site_fract_z
O1	O	1.277172	0.230167	-0.147330
O2	O	1.610505	0.563500	0.186004
O3	O	1.943838	0.896833	0.519337
O4	O	1.000500	0.221861	-0.147373
O5	O	1.333833	0.555194	0.185960
O6	O	1.667167	0.888528	0.519293
O7	O	1.134680	0.087678	-0.147317
O8	O	1.468013	0.421011	0.186016
O9	O	1.801346	0.754344	0.519349
O10	O	1.142992	0.364350	-0.147386
O11	O	1.476326	0.697683	0.185948
O12	O	1.809659	1.031017	0.519281
O13	O	1.134671	0.087675	0.147648
O14	O	1.468004	0.421009	0.480981
O15	O	1.801337	0.754342	0.814314
O16	O	1.000491	0.221859	0.147592
O17	O	1.333824	0.555192	0.480925
O18	O	1.667158	0.888525	0.814258
O19	O	1.277163	0.230164	0.147635
O20	O	1.610496	0.563498	0.480969
O21	O	1.943830	0.896831	0.814302
Cu22	Cu	1.138826	0.226011	0.174546
Cu23	Cu	1.472160	0.559345	0.507879
Cu24	Cu	1.805493	0.892678	0.841213
Cu25	Cu	1.138837	0.226014	-0.174284
Cu26	Cu	1.472170	0.559347	0.159049
Cu27	Cu	1.805503	0.892681	0.492382
O28	O	1.142983	0.364348	0.147579
O29	O	1.476317	0.697681	0.480913
O30	O	1.809650	1.031014	0.814246
C31	C	0.964874	0.218224	0.000104
C32	C	1.298207	0.551557	0.333437
C33	C	1.631540	0.884891	0.666771
C34	C	0.858731	0.207380	0.000089
C35	C	1.192064	0.540713	0.333422
C36	C	1.525397	0.874046	0.666756
C37	C	0.664392	0.187553	0.000129
C38	C	0.997726	0.520887	0.333462
C39	C	1.331059	0.854220	0.666796
C40	C	0.613264	0.264468	0.000117
C41	C	0.946598	0.597801	0.333451
C42	C	1.279931	0.931135	0.666784
C43	C	0.505128	0.253436	0.000140
C44	C	0.838461	0.586770	0.333473
C45	C	1.171795	0.920103	0.666806
C46	C	0.772539	0.198583	0.000107
C47	C	1.105872	0.531917	0.333440
C48	C	1.439205	0.865250	0.666773
C49	C	1.131039	0.052054	0.000170
C50	C	1.464372	0.385388	0.333503
C51	C	1.797705	0.718721	0.666836
C52	C	1.120191	-0.054089	0.000184
C53	C	1.453525	0.279245	0.333517
C54	C	1.786858	0.612578	0.666850
C55	C	1.177292	-0.299547	0.000123
C56	C	1.510625	0.033786	0.333456
C57	C	1.843958	0.367120	0.666790
C58	C	1.100375	-0.248422	0.000123
C59	C	1.433709	0.084912	0.333457
C60	C	1.767042	0.418245	0.666790
C61	C	1.111404	-0.140285	0.000157
C62	C	1.444737	0.193049	0.333490
C63	C	1.778070	0.526382	0.666824
C64	C	1.166265	-0.407694	0.000090
C65	C	1.499598	-0.074360	0.333423
C66	C	1.832932	0.258973	0.666756
C67	C	1.312789	0.233801	0.000154
C68	C	1.646123	0.567135	0.333487
C69	C	1.979456	0.900468	0.666821
C70	C	1.418932	0.244646	0.000157
C71	C	1.752266	0.577979	0.333491
C72	C	2.085599	0.911312	0.666824
C73	C	1.146624	0.399971	0.000088
C74	C	1.479958	0.733304	0.333422
C75	C	1.813291	1.066638	0.666755
C76	C	1.157472	0.506114	0.000063
C77	C	1.490805	0.839447	0.333396
C78	C	1.824138	1.172781	0.666729
N79	N	1.138826	0.226009	0.419895
N80	N	1.472159	0.559342	0.753228
N81	N	1.805492	0.892676	1.086561
N82	N	1.138844	0.226009	-0.419633
N83	N	1.472177	0.559343	-0.086299
N84	N	1.805511	0.892676	0.247034
H85	H	0.650706	0.338602	0.000090
H86	H	0.984039	0.671935	0.333424
H87	H	1.317372	1.005268	0.666757
H88	H	0.626954	0.113425	0.000157
H89	H	0.960287	0.446759	0.333490
H90	H	1.293620	0.780092	0.666824
H91	H	1.026243	-0.285865	0.000101
H92	H	1.359576	0.047468	0.333435
H93	H	1.692910	0.380802	0.666768
O94	O	1.265657	-0.254735	0.000246
O95	O	1.598991	0.078598	0.333579
O96	O	1.932324	0.411932	0.666913
C97	C	1.257133	-0.155178	0.000233
C98	C	1.590466	0.178155	0.333566
C99	C	1.923800	0.511489	0.666899
H100	H	1.184563	-0.138233	0.056051
H101	H	1.517897	0.195100	0.389384
H102	H	1.851230	0.528434	0.722718
H103	H	1.264071	-0.127032	-0.141264
H104	H	1.597404	0.206302	0.192069
H105	H	1.930737	0.539635	0.525402
C106	C	1.425610	-0.128150	0.047401
C107	C	1.758943	0.205184	0.380734
C108	C	2.092277	0.538517	0.714067
C109	C	1.336482	-0.107337	0.115972
C110	C	1.669815	0.225996	0.449305
C111	C	2.003149	0.559329	0.782638
H112	H	1.474558	-0.098638	0.118786
H113	H	1.807892	0.234695	0.452120
H114	H	2.141225	0.568029	0.785453
H115	H	1.431355	-0.195223	0.047403
H116	H	1.764688	0.138110	0.380736
H117	H	2.098021	0.471444	0.714069
H118	H	1.431378	-0.104694	-0.070512
H119	H	1.764711	0.228640	0.262821
H120	H	2.098045	0.561973	0.596154
H121	H	1.330711	-0.130804	0.233873
H122	H	1.664044	0.202529	0.567207
H123	H	1.997377	0.535863	0.900540
H124	H	1.330738	-0.040267	0.115992
H125	H	1.664072	0.293067	0.449325
H126	H	1.997405	0.626400	0.782659
