data_functionalizedCrystal
_audit_creation_method	'MofGen! by Chris Wilmer'
_symmetry_space_group_name_H-M	'P1'
_symmetry_Int_Tables_number	1
_symmetry_cell_setting	triclinic
loop_
_symmetry_equiv_pos_as_xyz
  x,y,z
_cell_length_a	19.288856
_cell_length_b	16.992695
_cell_length_c	17.766277
_cell_angle_alpha	89.993690
_cell_angle_beta	90.011354
_cell_angle_gamma	93.099508
loop_
_atom_site_label
_atom_site_type_symbol
_atom_site_fract_x
_atom_site_fract_y
_atom_site_fract_z
O1	O	-0.927054	0.097763	-0.062630
O2	O	-0.427054	0.597763	0.437370
O3	O	-0.725562	0.110963	-0.062624
O4	O	-0.225562	0.610963	0.437376
O5	O	-0.825501	-0.009777	-0.062621
O6	O	-0.325501	0.490223	0.437379
O7	O	-0.827116	0.218503	-0.062633
O8	O	-0.327116	0.718503	0.437367
O9	O	-0.825482	-0.009783	0.062568
O10	O	-0.325482	0.490217	0.562568
O11	O	-0.725543	0.110957	0.062565
O12	O	-0.225543	0.610957	0.562565
O13	O	-0.927035	0.097757	0.062559
O14	O	-0.427035	0.597757	0.562559
Cu15	Cu	-0.826288	0.104356	0.073993
Cu16	Cu	-0.326288	0.604356	0.573993
Cu17	Cu	-0.826310	0.104363	-0.074057
Cu18	Cu	-0.326310	0.604363	0.425943
O19	O	-0.827097	0.218497	0.062556
O20	O	-0.327097	0.718497	0.562556
C21	C	-0.699652	0.110536	-0.000029
C22	C	-0.199652	0.610536	0.499971
C23	C	-0.622474	0.109264	-0.000026
C24	C	-0.122474	0.609264	0.499974
C25	C	-0.823413	-0.038985	-0.000026
C26	C	-0.323413	0.461015	0.499974
C27	C	-0.817212	-0.126007	-0.000027
C28	C	-0.317212	0.373993	0.499973
C29	C	-0.062060	0.171507	-0.000019
C30	C	0.437940	0.671507	0.499981
C31	C	-0.134576	0.172708	-0.000024
C32	C	0.365424	0.672708	0.499976
C33	C	-0.175154	0.101864	-0.000020
C34	C	0.324846	0.601864	0.499980
C35	C	-0.143210	0.029813	-0.000030
C36	C	0.356790	0.529813	0.499970
C37	C	-0.070695	0.028613	-0.000032
C38	C	0.429305	0.528613	0.499968
C39	C	-0.293339	0.049026	0.043842
C40	C	0.206661	0.549026	0.543842
C41	C	-0.365852	0.050228	0.043849
C42	C	0.134148	0.550228	0.543849
C43	C	-0.398816	0.105561	-0.000017
C44	C	0.101184	0.605561	0.499983
C45	C	-0.359256	0.159704	-0.043880
C46	C	0.140744	0.659704	0.456120
C47	C	-0.286740	0.158505	-0.043882
C48	C	0.213260	0.658505	0.456118
C49	C	-0.253785	0.103157	-0.000018
C50	C	0.246215	0.603157	0.499982
C51	C	-0.509382	0.178911	-0.000019
C52	C	-0.009382	0.678911	0.499981
C53	C	-0.581900	0.180109	-0.000029
C54	C	-0.081900	0.680109	0.499971
C55	C	-0.590533	0.037212	-0.000027
C56	C	-0.090533	0.537212	0.499973
C57	C	-0.518016	0.036015	-0.000024
C58	C	-0.018016	0.536015	0.499976
C59	C	-0.477445	0.106867	-0.000017
C60	C	0.022555	0.606867	0.499983
C61	C	-0.877041	-0.176461	-0.000027
C62	C	-0.377041	0.323539	0.499973
C63	C	-0.871210	-0.258227	-0.000034
C64	C	-0.371210	0.241773	0.499966
C65	C	-0.805551	-0.289537	-0.000035
C66	C	-0.305551	0.210463	0.499965
C67	C	-0.745718	-0.239077	-0.000036
C68	C	-0.245718	0.260923	0.499964
C69	C	-0.751549	-0.157313	-0.000035
C70	C	-0.251549	0.342687	0.499965
C71	C	-0.781384	-0.533049	-0.000045
C72	C	-0.281384	-0.033049	0.499955
C73	C	-0.775557	-0.614819	-0.000044
C74	C	-0.275557	-0.114819	0.499956
C75	C	-0.901050	-0.633964	-0.000044
C76	C	-0.401050	-0.133964	0.499956
C77	C	-0.906875	-0.552197	-0.000037
C78	C	-0.406875	-0.052197	0.499963
C79	C	-0.847042	-0.501744	-0.000043
C80	C	-0.347042	-0.001744	0.499957
N81	N	-0.799590	-0.373115	-0.000040
N82	N	-0.299590	0.126885	0.499960
N83	N	-0.853004	-0.418168	-0.000043
N84	N	-0.353004	0.081832	0.499957
C85	C	0.047054	0.098186	-0.000033
C86	C	0.547054	0.598186	0.499967
C87	C	-0.030124	0.099465	-0.000024
C88	C	0.469876	0.599465	0.499976
C89	C	-0.829185	0.247705	-0.000040
C90	C	-0.329185	0.747705	0.499960
C91	C	-0.835386	0.334727	-0.000045
C92	C	-0.335386	0.834727	0.499955
N93	N	-0.826277	0.104351	0.178123
N94	N	-0.326277	0.604351	0.678123
N95	N	-0.826326	0.104363	-0.178188
N96	N	-0.326326	0.604363	0.321812
C97	C	-0.870546	0.050913	0.217511
C98	C	-0.370546	0.550913	0.717511
C99	C	-0.870550	0.050910	0.296313
C100	C	-0.370550	0.550910	0.796313
C101	C	-0.826292	0.104357	0.335723
C102	C	-0.326292	0.604357	0.835723
C103	C	-0.782014	0.157798	0.296326
C104	C	-0.282014	0.657798	0.796326
C105	C	-0.782006	0.157795	0.217525
C106	C	-0.282006	0.657795	0.717525
C107	C	-0.821156	0.175786	0.460558
C108	C	-0.321156	0.675786	0.960558
C109	C	-0.821168	0.175790	0.539357
C110	C	-0.321168	0.675790	1.039357
C111	C	-0.826311	0.104366	0.578770
C112	C	-0.326311	0.604366	1.078770
C113	C	-0.831456	0.032935	0.539374
C114	C	-0.331456	0.532935	1.039374
C115	C	-0.831448	0.032932	0.460574
C116	C	-0.331448	0.532932	0.960574
C117	C	-0.826295	0.104366	0.421169
C118	C	-0.326295	0.604366	0.921169
C119	C	-0.870587	0.050921	0.703604
C120	C	-0.370587	0.550921	1.203604
C121	C	-0.870586	0.050916	0.782407
C122	C	-0.370586	0.550916	1.282407
C123	C	-0.782053	0.157811	0.782418
C124	C	-0.282053	0.657811	1.282418
C125	C	-0.782050	0.157809	0.703617
C126	C	-0.282050	0.657809	1.203617
C127	C	-0.826321	0.104365	0.664214
C128	C	-0.326321	0.604365	1.164214
H129	H	-0.029031	0.229200	-0.000016
H130	H	0.470969	0.729200	0.499984
H131	H	-0.919929	-0.299304	-0.000034
H132	H	-0.419929	0.200696	0.499966
Br133	Br	-0.995987	-0.509710	-0.000061
Br134	Br	-0.495987	-0.009710	0.499939
H135	H	-0.623571	-0.020471	-0.000029
H136	H	-0.123571	0.479529	0.499971
H137	H	-0.949762	-0.675051	-0.000041
H138	H	-0.449762	-0.175051	0.499959
Br139	Br	-0.670350	-0.088838	-0.000040
Br140	Br	-0.170350	0.411162	0.499960
H141	H	-0.906592	0.007394	0.185432
H142	H	-0.406592	0.507394	0.685432
H143	H	-0.930507	-0.150975	-0.000022
H144	H	-0.430507	0.349025	0.499978
H145	H	-0.835643	-0.025225	0.571463
H146	H	-0.335643	0.474775	1.071463
Br147	Br	-0.419533	-0.023242	0.103385
Br148	Br	0.080467	0.476758	0.603385
H149	H	-0.176253	-0.027869	-0.000028
H150	H	0.323747	0.472131	0.499972
Br151	Br	-0.454318	0.275064	-0.000009
Br152	Br	0.045682	0.775064	0.499991
Br153	Br	-0.721943	0.230329	0.349808
Br154	Br	-0.221943	0.730329	0.849808
H155	H	-0.722087	-0.640308	-0.000032
H156	H	-0.222087	-0.140308	0.499968
Br157	Br	-0.177929	0.270486	-0.000017
Br158	Br	0.322071	0.770486	0.499983
H159	H	-0.732663	-0.491979	-0.000049
H160	H	-0.232663	0.008021	0.499951
Br161	Br	-0.814194	0.272731	0.592814
Br162	Br	-0.314194	0.772731	1.092814
H163	H	-0.692257	-0.264576	-0.000042
H164	H	-0.192257	0.235424	0.499958
Br165	Br	-0.930665	-0.021613	0.650127
Br166	Br	-0.430665	0.478387	1.150127
H167	H	-0.906601	0.007393	0.328389
H168	H	-0.406601	0.507393	0.828389
H169	H	-0.816956	0.233952	0.428474
H170	H	-0.316956	0.733952	0.928474
H171	H	-0.745956	0.201311	0.185455
H172	H	-0.245956	0.701311	0.685455
Br173	Br	-0.625244	0.277889	-0.000034
Br174	Br	-0.125244	0.777889	0.499966
H175	H	-0.266507	0.003963	0.079565
H176	H	0.233493	0.503963	0.579565
H177	H	-0.044693	-0.030054	-0.000036
H178	H	0.455307	0.469946	0.499964
Br179	Br	-0.930664	-0.021618	0.835867
Br180	Br	-0.430664	0.478382	1.335867
H181	H	-0.835635	-0.025230	0.428501
H182	H	-0.335635	0.474770	0.928501
Br183	Br	-0.721980	0.230339	0.835898
Br184	Br	-0.221980	0.730339	1.335898
H185	H	-0.254533	0.202589	-0.079598
H186	H	0.245467	0.702589	0.420402
Br187	Br	-0.474671	-0.061761	-0.000038
Br188	Br	0.025329	0.438239	0.499962
Br189	Br	-0.403981	0.234815	-0.103405
Br190	Br	0.096019	0.734815	0.396595
Br191	Br	-0.721970	0.230337	0.650155
Br192	Br	-0.221970	0.730337	1.150155
