data_functionalizedCrystal
_audit_creation_method	'MofGen! by Chris Wilmer'
_symmetry_space_group_name_H-M	'P1'
_symmetry_Int_Tables_number	1
_symmetry_cell_setting	triclinic
loop_
_symmetry_equiv_pos_as_xyz
  x,y,z
_cell_length_a	10.654550
_cell_length_b	15.995350
_cell_length_c	9.130313
_cell_angle_alpha	90.000982
_cell_angle_beta	89.996220
_cell_angle_gamma	83.988639
loop_
_atom_site_label
_atom_site_type_symbol
_atom_site_fract_x
_atom_site_fract_y
_atom_site_fract_z
O1	O	1.666298	0.117599	-0.121912
O2	O	1.300673	0.128803	-0.121888
O3	O	1.493480	0.001371	-0.121899
O4	O	1.473491	0.245030	-0.121900
O5	O	1.493478	0.001375	0.121700
O6	O	1.300671	0.128807	0.121711
O7	O	1.666295	0.117602	0.121687
Cu8	Cu	1.483483	0.123205	0.143942
Cu9	Cu	1.483486	0.123201	-0.144142
O10	O	1.473488	0.245034	0.121698
C11	C	1.253885	0.127982	-0.000085
C12	C	1.114473	0.125521	-0.000076
C13	C	1.492652	-0.029827	-0.000102
C14	C	1.490175	-0.122791	-0.000110
C15	C	1.034008	0.200551	-0.000098
C16	C	0.903017	0.198233	-0.000123
C17	C	0.932971	0.045849	-0.000111
C18	C	1.063959	0.048168	-0.000075
C19	C	1.016713	0.288528	-0.000111
C20	C	0.885722	0.286211	-0.000137
C21	C	1.481278	-0.460591	-0.000105
C22	C	1.343964	-0.413954	-0.000642
C23	C	1.346442	-0.317249	-0.000093
C24	C	1.485691	-0.293004	-0.000108
C25	C	1.553417	-0.333687	0.138991
C26	C	1.549968	-0.430342	0.139108
C27	C	1.552807	-0.430688	-0.137910
C28	C	1.552775	-0.333743	-0.139748
C29	C	1.488192	-0.198292	-0.000106
C30	C	1.478780	-0.555303	-0.000098
C31	C	1.713084	0.118423	-0.000119
C32	C	1.852495	0.120884	-0.000137
C33	C	1.474316	0.276232	-0.000101
C34	C	1.476793	0.369197	-0.000103
N35	N	1.483490	0.123207	0.346564
N36	N	1.483488	0.123192	-0.346765
C37	C	1.568887	0.066800	0.423211
C38	C	1.568883	0.066789	0.576548
C39	C	1.398083	0.179602	0.576578
C40	C	1.398081	0.179607	0.423244
C41	C	1.667501	0.001671	0.423195
C42	C	1.667497	0.001661	0.576532
H43	H	0.891826	-0.017130	-0.000133
N44	N	1.676435	-0.470058	0.147059
N45	N	1.744601	-0.456442	0.254053
H46	H	1.833917	-0.484488	0.259681
N47	N	1.781566	0.027238	0.363531
N48	N	1.849523	-0.021644	0.282638
H49	H	1.930084	-0.003584	0.240505
N50	N	1.052942	0.331656	0.127826
N51	N	0.971049	0.360136	0.217941
H52	H	0.996639	0.390577	0.308313
N53	N	1.310864	0.237224	0.344927
N54	N	1.310876	0.237225	0.208023
H55	H	1.249278	0.277920	0.152709
N56	N	1.490726	-0.299857	-0.268834
N57	N	1.397446	-0.245902	-0.258144
H58	H	1.353620	-0.221965	-0.349308
N59	N	1.494389	-0.298447	0.268869
N60	N	1.446432	-0.344823	0.358635
H61	H	1.404735	-0.319938	0.450360
H62	H	1.328544	0.225521	0.639026
H63	H	1.289082	-0.432806	-0.100393
H64	H	1.052003	0.316540	-0.105283
N65	N	1.279195	-0.282675	0.125206
N66	N	1.165222	-0.292617	0.141498
H67	H	1.117725	-0.268200	0.229997
H68	H	1.654048	-0.461861	-0.138855
N69	N	1.641636	-0.079051	0.370947
N70	N	1.637258	-0.092709	0.236342
H71	H	1.618989	-0.149716	0.199437
H72	H	1.507914	-0.451490	-0.243339
H73	H	1.637779	-0.059156	0.624082
H74	H	1.654321	-0.317791	-0.148158
N75	N	1.788330	0.019664	0.628731
N76	N	1.829558	0.087533	0.595676
H77	H	1.914892	0.100248	0.632543
H78	H	1.293204	-0.289138	-0.099805
H79	H	1.129471	-0.012929	-0.000037
H80	H	1.655720	-0.318967	0.144153
N81	N	1.487986	-0.453649	0.269551
N82	N	1.376496	-0.424573	0.294246
H83	H	1.332715	-0.441028	0.386373
N84	N	1.275425	-0.438936	0.123806
N85	N	1.327269	-0.490939	0.212893
H86	H	1.278868	-0.508585	0.300787
H87	H	0.839702	0.312800	0.105032
H88	H	0.843557	0.319358	-0.102090
