data_functionalizedCrystal
_audit_creation_method	'MofGen! by Chris Wilmer'
_symmetry_space_group_name_H-M	'P1'
_symmetry_Int_Tables_number	1
_symmetry_cell_setting	triclinic
loop_
_symmetry_equiv_pos_as_xyz
  x,y,z
_cell_length_a	17.038278
_cell_length_b	17.038272
_cell_length_c	9.130313
_cell_angle_alpha	89.995195
_cell_angle_beta	89.996417
_cell_angle_gamma	91.111028
loop_
_atom_site_label
_atom_site_type_symbol
_atom_site_fract_x
_atom_site_fract_y
_atom_site_fract_z
O1	O	1.048753	0.170527	-0.121814
O2	O	0.820941	0.167821	-0.121814
O3	O	0.933493	0.055268	-0.121802
O4	O	0.936201	0.283080	-0.121825
O5	O	0.933485	0.055264	0.121797
O6	O	0.820933	0.167817	0.121785
O7	O	1.048744	0.170523	0.121785
Cu8	Cu	0.934838	0.169170	0.144028
Cu9	Cu	0.934848	0.169174	-0.144056
O10	O	0.936193	0.283076	0.121773
C11	C	0.791645	0.165356	-0.000015
C12	C	0.704361	0.158009	-0.000014
C13	C	0.210935	0.112872	-0.000015
C14	C	0.292947	0.119781	-0.000007
C15	C	0.329347	0.194155	-0.000021
C16	C	0.283730	0.261623	-0.000029
C17	C	0.201720	0.254713	-0.000027
C18	C	0.576734	0.218567	-0.000020
C19	C	0.658751	0.225473	-0.000026
C20	C	0.667962	0.083630	-0.000002
C21	C	0.585949	0.076726	-0.000008
C22	C	0.540340	0.144194	-0.000008
C23	C	0.413176	0.201219	-0.000018
C24	C	0.456513	0.137129	-0.000001
C25	C	0.931026	0.025974	-0.000003
C26	C	0.923678	-0.061310	-0.000003
C27	C	0.991142	-0.106920	-0.000002
C28	C	0.984233	-0.188932	-0.000016
C29	C	0.909859	-0.225332	-0.000021
C30	C	0.842391	-0.179716	-0.000027
C31	C	0.849300	-0.097706	-0.000023
C32	C	0.885449	-0.472720	-0.000041
C33	C	0.878544	-0.554736	-0.000040
C34	C	1.020387	-0.563946	-0.000032
C35	C	1.027290	-0.481934	-0.000019
C36	C	0.959821	-0.436325	-0.000033
C37	C	0.902796	-0.309161	-0.000030
C38	C	0.966886	-0.352497	-0.000034
C39	C	1.078041	0.172988	-0.000017
C40	C	1.165325	0.180335	-0.000027
C41	C	0.938660	0.312370	-0.000029
C42	C	0.946008	0.399654	-0.000038
N43	N	0.934837	0.169166	0.346650
N44	N	0.934855	0.169172	-0.346679
C45	C	0.984694	0.119351	0.423307
C46	C	0.984701	0.119352	0.576644
C47	C	0.884992	0.218989	0.576653
C48	C	0.884981	0.218984	0.423319
H49	H	0.442822	0.261775	-0.000033
C50	C	0.830164	0.273792	0.660994
H51	H	0.837316	0.266667	0.763294
H52	H	0.777183	0.261748	0.635891
H53	H	0.842181	0.326778	0.635841
H54	H	0.164585	0.309649	-0.000031
C55	C	0.830138	0.273785	0.338991
H56	H	0.800456	0.303464	0.406610
H57	H	0.795568	0.243338	0.279194
H58	H	0.860562	0.308372	0.279157
H59	H	0.330080	0.064845	0.000008
C60	C	1.072953	-0.066886	0.000004
H61	H	1.112141	-0.105799	-0.000011
H62	H	1.078596	-0.035090	0.084952
H63	H	1.078599	-0.035082	-0.084955
H64	H	0.539609	0.273505	-0.000027
H65	H	0.313374	0.322180	-0.000031
H66	H	0.830511	-0.435595	-0.000052
H67	H	0.181305	0.052309	-0.000013
C68	C	0.545915	-0.005085	0.000025
H69	H	0.584826	-0.044275	0.000048
H70	H	0.514115	-0.010733	-0.084918
H71	H	0.514115	-0.010722	0.084989
H72	H	1.025288	0.078786	0.360887
H73	H	0.705105	0.028701	-0.000000
H74	H	0.426872	0.076575	-0.000006
H75	H	0.688384	0.286039	-0.000017
C76	C	0.820988	-0.349201	-0.000036
H77	H	0.781793	-0.310295	-0.000044
H78	H	0.815342	-0.381012	0.084904
H79	H	0.815354	-0.380992	-0.085003
C80	C	0.775091	-0.047535	-0.000021
H81	H	0.729807	-0.080958	-0.000012
H82	H	0.774842	-0.015347	-0.084969
H83	H	0.774834	-0.015356	0.084938
H84	H	1.087852	-0.452303	-0.000015
C85	C	1.039548	0.064559	0.660961
H86	H	1.069240	0.034895	0.593334
H87	H	1.009133	0.029970	0.720796
H88	H	1.074120	0.095012	0.720755
C89	C	1.058443	-0.239099	0.000001
H90	H	1.103726	-0.205675	0.000026
H91	H	1.058707	-0.271279	-0.084947
H92	H	1.058686	-0.271286	0.084961
H93	H	0.817978	-0.584370	-0.000020
C94	C	1.094598	-0.614113	-0.000032
H95	H	1.139880	-0.580688	-0.000020
H96	H	1.094854	-0.646292	-0.084981
H97	H	1.094849	-0.646300	0.084926
C98	C	0.760580	-0.219751	-0.000044
H99	H	0.721391	-0.180839	-0.000060
H100	H	0.754928	-0.251558	0.084900
H101	H	0.754945	-0.251544	-0.085007
H102	H	1.027440	-0.322857	-0.000062
