data_functionalizedCrystal
_audit_creation_method	'MofGen! by Chris Wilmer'
_symmetry_space_group_name_H-M	'P1'
_symmetry_Int_Tables_number	1
_symmetry_cell_setting	triclinic
loop_
_symmetry_equiv_pos_as_xyz
  x,y,z
_cell_length_a	11.169417
_cell_length_b	12.827892
_cell_length_c	11.169409
_cell_angle_alpha	89.966972
_cell_angle_beta	89.979436
_cell_angle_gamma	90.016270
loop_
_atom_site_label
_atom_site_type_symbol
_atom_site_fract_x
_atom_site_fract_y
_atom_site_fract_z
Zn1	Zn	1.834929	-0.415925	-0.678536
Zn2	Zn	1.834798	-0.590712	-0.477851
Zn3	Zn	1.634212	-0.415988	-0.477871
Zn4	Zn	1.634205	-0.590627	-0.678496
O5	O	1.734536	-0.503313	-0.578188
O6	O	2.002861	-0.439119	-0.651924
O7	O	1.808138	-0.567596	-0.309904
O8	O	1.660896	-0.269744	-0.504515
O9	O	2.002765	-0.567535	-0.504481
O10	O	1.808361	-0.269697	-0.651943
O11	O	1.660769	-0.439228	-0.309918
O12	O	1.466262	-0.439145	-0.504475
O13	O	1.660883	-0.567390	-0.846451
O14	O	1.466256	-0.567452	-0.651874
O15	O	1.808354	-0.439037	-0.846481
O16	O	1.808131	-0.736937	-0.504441
O17	O	1.660756	-0.736874	-0.651854
C18	C	1.422711	-0.503297	-0.578173
C19	C	1.289311	-0.503315	-0.578195
C20	C	1.734461	-0.774823	-0.578167
C21	C	1.734539	-0.890976	-0.578198
C22	C	1.807551	-0.942757	-0.505335
C23	C	1.807633	-1.062807	-0.505365
C24	C	2.047578	-0.503329	-0.578205
C25	C	2.180978	-0.503337	-0.578212
C26	C	1.734632	-0.503197	-0.891231
C27	C	1.734673	-0.503148	-1.024631
C28	C	1.734644	-0.230743	-0.578236
C29	C	1.734690	-0.114589	-0.578256
C30	C	1.734509	-0.503353	-0.266364
C31	C	1.734701	-0.503108	-0.132964
H32	H	1.870005	-0.898214	-0.442935
H33	H	1.870138	-1.107338	-0.442981
C34	C	1.650237	-1.054441	-0.662538
N35	N	1.586629	-1.009129	-0.726020
H36	H	1.672096	-0.935521	-0.640607
