data_functionalizedCrystal
_audit_creation_method	'MofGen! by Chris Wilmer'
_symmetry_space_group_name_H-M	'P1'
_symmetry_Int_Tables_number	1
_symmetry_cell_setting	triclinic
loop_
_symmetry_equiv_pos_as_xyz
  x,y,z
_cell_length_a	16.793024
_cell_length_b	16.793047
_cell_length_c	33.586455
_cell_angle_alpha	113.253857
_cell_angle_beta	66.219990
_cell_angle_gamma	112.758327
loop_
_atom_site_label
_atom_site_type_symbol
_atom_site_fract_x
_atom_site_fract_y
_atom_site_fract_z
O1	O	0.005016	-0.570216	-0.583573
O2	O	-0.034529	-0.474528	-0.453458
O3	O	0.114723	-0.474535	-0.528082
O4	O	-0.144235	-0.570209	-0.508949
O5	O	0.108729	-0.346329	-0.530229
O6	O	-0.040523	-0.346322	-0.455605
O7	O	-0.000977	-0.442010	-0.585721
Zn8	Zn	-0.021701	-0.373810	-0.521004
Zn9	Zn	-0.013805	-0.542728	-0.518175
O10	O	-0.150229	-0.442003	-0.511097
C11	C	0.005100	-0.790970	-0.238461
C12	C	-0.040584	-0.395375	-0.435637
C13	C	-0.044693	-0.353446	-0.386631
C14	C	-0.039275	-0.401741	-0.363054
C15	C	-0.040566	-0.125547	-0.300731
C16	C	-0.044689	-0.223451	-0.321635
C17	C	-0.039266	-0.270752	-0.297563
C18	C	0.005118	-0.521142	-0.103554
C19	C	-0.046224	-0.263935	-0.366370
C20	C	-0.036476	-0.360146	-0.318399
C21	C	-0.030850	-0.408530	-0.294565
C22	C	-0.028014	-0.367522	-0.249895
C23	C	-0.030804	-0.278128	-0.229058
C24	C	-0.036430	-0.229743	-0.252892
C25	C	-0.027971	-0.237122	-0.184383
C26	C	-0.022345	-0.285507	-0.160550
C27	C	-0.019555	-0.374900	-0.181386
C28	C	-0.022391	-0.415909	-0.226057
C29	C	-0.019601	-0.505302	-0.246894
C30	C	-0.013975	-0.553687	-0.223060
C31	C	-0.011142	-0.512684	-0.178391
C32	C	-0.013932	-0.423291	-0.157554
C33	C	-0.005516	-0.561069	-0.154557
C34	C	-0.002726	-0.650463	-0.175394
C35	C	-0.005562	-0.691471	-0.220064
C36	C	-0.011185	-0.643081	-0.243897
C37	C	-0.022434	-0.546309	-0.291568
C38	C	-0.019644	-0.635702	-0.312405
C39	C	-0.014021	-0.684089	-0.288567
C40	C	-0.022480	-0.676711	-0.357076
C41	C	-0.028106	-0.628326	-0.380910
C42	C	-0.030896	-0.538933	-0.360073
C43	C	-0.028060	-0.497924	-0.315402
C44	C	-0.036522	-0.490548	-0.383907
C45	C	0.815184	-0.521162	-0.508596
C46	C	0.415541	-0.125553	-0.528781
C47	C	0.375032	-0.223457	-0.531493
C48	C	0.423813	-0.270761	-0.529101
C49	C	0.149318	-0.395376	-0.530584
C50	C	0.246774	-0.353455	-0.532364
C51	C	0.294574	-0.401748	-0.529976
C52	C	0.548961	-0.790984	-0.510398
C53	C	0.286104	-0.263940	-0.532530
C54	C	0.383336	-0.360149	-0.528302
C55	C	0.432207	-0.407971	-0.525810
C56	C	0.392316	-0.497392	-0.524993
C57	C	0.303554	-0.538991	-0.526667
C58	C	0.254683	-0.491169	-0.529159
C59	C	0.263666	-0.628421	-0.525851
C60	C	0.312537	-0.676243	-0.523359
C61	C	0.401299	-0.634644	-0.521685
C62	C	0.441190	-0.545223	-0.522502
C63	C	0.529952	-0.503624	-0.520828
C64	C	0.578823	-0.551446	-0.518336
C65	C	0.538939	-0.640864	-0.517520
C66	C	0.450177	-0.682463	-0.519194
C67	C	0.587810	-0.688687	-0.515028
C68	C	0.676572	-0.647088	-0.513354
C69	C	0.716463	-0.557666	-0.514172
C70	C	0.667586	-0.509847	-0.516662
C71	C	0.569840	-0.414195	-0.521644
C72	C	0.658602	-0.372596	-0.519970
C73	C	0.707476	-0.420426	-0.517480
C74	C	0.698493	-0.283174	-0.520788
C75	C	0.649622	-0.235352	-0.523280
C76	C	0.560860	-0.276951	-0.524954
C77	C	0.520969	-0.366372	-0.524136
C78	C	0.511989	-0.229129	-0.527446
C79	C	-0.040530	-0.395407	-0.935652
C80	C	0.005063	-0.791004	-0.738448
C81	C	0.009186	-0.693099	-0.717543
C82	C	0.003779	-0.645796	-0.741620
C83	C	0.005077	-0.521171	-0.603544
C84	C	0.009198	-0.563096	-0.652550
C85	C	0.003786	-0.514804	-0.676131
C86	C	-0.040516	-0.125574	-0.800747
C87	C	0.010719	-0.652613	-0.672809
C88	C	0.000994	-0.556406	-0.720789
C89	C	-0.004621	-0.508585	-0.744908
C90	C	-0.007444	-0.419162	-0.724369
C91	C	-0.004651	-0.377560	-0.679711
C92	C	0.000964	-0.425381	-0.655592
C93	C	-0.007471	-0.288129	-0.659174
C94	C	-0.013086	-0.240308	-0.683293
C95	C	-0.015878	-0.281910	-0.727951
C96	C	-0.013056	-0.371333	-0.748490
C97	C	-0.015848	-0.412935	-0.793148
C98	C	-0.021463	-0.365114	-0.817267
C99	C	-0.024282	-0.275694	-0.796731
C100	C	-0.021490	-0.234092	-0.752073
C101	C	-0.029897	-0.227873	-0.820850
C102	C	-0.032690	-0.269476	-0.865508
C103	C	-0.029867	-0.358899	-0.886047
C104	C	-0.024255	-0.406717	-0.861925
C105	C	-0.013028	-0.502367	-0.813685
C106	C	-0.015821	-0.543969	-0.858343
C107	C	-0.021433	-0.496140	-0.882464
C108	C	-0.012998	-0.633392	-0.878882
C109	C	-0.007383	-0.681213	-0.854763
C110	C	-0.004591	-0.639611	-0.810105
C111	C	-0.007414	-0.550188	-0.789566
C112	C	0.001024	-0.687432	-0.785986
O113	O	-0.000965	0.173549	-0.277957
O114	O	-0.040516	-0.085616	-0.325254
O115	O	0.108737	0.059592	-0.327284
O116	O	-0.150219	0.028341	-0.275927
O117	O	0.114753	0.055151	-0.263265
O118	O	-0.034500	-0.090057	-0.261234
O119	O	0.005051	0.169108	-0.213937
Zn120	Zn	-0.013769	0.038820	-0.227421
Zn121	Zn	-0.021696	0.044672	-0.311770
O122	O	-0.144202	0.023900	-0.211907
O123	O	-0.034458	-0.474571	0.046517
O124	O	0.005076	-0.570190	-0.083599
O125	O	-0.144170	-0.570237	-0.008972
O126	O	0.114787	-0.474523	-0.028110
O127	O	-0.150200	-0.442024	-0.011093
O128	O	-0.000954	-0.441976	-0.085720
O129	O	-0.040488	-0.346357	0.044396
Zn130	Zn	-0.021679	-0.373810	-0.020999
Zn131	Zn	-0.013734	-0.542737	-0.018204
O132	O	0.108757	-0.346309	-0.030231
C133	C	-0.850734	0.086244	-0.289716
C134	C	-0.450996	0.035117	-0.097351
C135	C	-0.410501	0.028587	-0.146852
C136	C	-0.459292	0.034683	-0.169840
C137	C	-0.184802	0.024283	-0.235878
C138	C	-0.282257	0.023363	-0.213592
C139	C	-0.330068	0.029423	-0.237088
C140	C	-0.584541	0.075410	-0.428242
C141	C	-0.321573	0.024104	-0.168302
C142	C	-0.418828	0.035176	-0.215083
C143	C	-0.467711	0.041476	-0.238329
C144	C	-0.427833	0.042022	-0.283580
C145	C	-0.339073	0.036269	-0.305586
C146	C	-0.290190	0.029970	-0.282340
C147	C	-0.299198	0.036812	-0.350842
C148	C	-0.348081	0.043111	-0.374088
C149	C	-0.436841	0.048864	-0.352082
C150	C	-0.476719	0.048318	-0.306830
C151	C	-0.565480	0.054071	-0.284825
C152	C	-0.614362	0.060370	-0.308071
C153	C	-0.574491	0.060913	-0.353321
C154	C	-0.485730	0.055160	-0.375326
C155	C	-0.623374	0.067212	-0.376567
C156	C	-0.712134	0.072965	-0.354561
C157	C	-0.752012	0.072419	-0.309309
C158	C	-0.703123	0.066123	-0.286065
C159	C	-0.605355	0.053528	-0.239569
C160	C	-0.694115	0.059281	-0.217564
C161	C	-0.743001	0.065577	-0.240813
C162	C	-0.733993	0.058735	-0.172312
C163	C	-0.685110	0.052436	-0.149066
C164	C	-0.596350	0.046683	-0.171072
C165	C	-0.556472	0.047229	-0.216323
C166	C	-0.547467	0.040383	-0.147826
O167	O	0.585213	0.169090	-0.504004
O168	O	0.494056	-0.090076	-0.525516
O169	O	0.488081	0.055124	-0.449918
O170	O	0.591189	0.023889	-0.579602
O171	O	0.359978	0.059584	-0.452885
O172	O	0.365953	-0.085616	-0.528483
O173	O	0.457110	0.173550	-0.506971
Zn174	Zn	0.391193	0.044675	-0.518198
Zn175	Zn	0.559974	0.038798	-0.514289
O176	O	0.463086	0.028349	-0.582569
C177	C	0.815354	-0.521094	-0.008709
C178	C	0.415547	-0.125494	-0.028771
C179	C	0.375059	-0.223405	-0.031498
C180	C	0.423859	-0.270708	-0.029121
C181	C	0.149365	-0.395355	-0.030599
C182	C	0.246820	-0.353421	-0.032381
C183	C	0.294640	-0.401713	-0.030008
C184	C	0.549171	-0.790955	-0.010537
C185	C	0.286131	-0.263897	-0.032533
C186	C	0.383402	-0.360104	-0.028335
C187	C	0.432293	-0.407926	-0.025859
C188	C	0.392422	-0.497356	-0.025055
C189	C	0.303660	-0.538965	-0.026727
C190	C	0.254769	-0.491143	-0.029204
C191	C	0.263791	-0.628403	-0.025925
C192	C	0.312683	-0.676224	-0.023448
C193	C	0.401445	-0.634615	-0.021775
C194	C	0.441316	-0.545185	-0.022579
C195	C	0.530078	-0.503576	-0.020906
C196	C	0.578969	-0.551398	-0.018429
C197	C	0.539104	-0.640825	-0.017627
C198	C	0.450342	-0.682434	-0.019300
C199	C	0.587995	-0.688646	-0.015150
C200	C	0.676757	-0.647037	-0.013477
C201	C	0.716628	-0.557607	-0.014281
C202	C	0.667731	-0.509789	-0.016757
C203	C	0.569946	-0.414138	-0.021709
C204	C	0.658708	-0.372530	-0.020036
C205	C	0.707602	-0.420359	-0.017561
C206	C	0.698579	-0.283100	-0.020840
C207	C	0.649688	-0.235278	-0.023317
C208	C	0.560926	-0.276887	-0.024990
C209	C	0.521055	-0.366317	-0.024186
C210	C	0.512035	-0.229066	-0.027467
O211	O	-0.620614	0.089309	0.052274
O212	O	-0.529507	0.043784	-0.078544
O213	O	-0.523494	0.194833	-0.006033
O214	O	-0.626628	-0.061740	-0.020236
O215	O	-0.395386	0.185419	-0.005549
O216	O	-0.401400	0.034370	-0.078059
O217	O	-0.492507	0.079895	0.052758
Zn218	Zn	-0.426614	0.055638	-0.012574
Zn219	Zn	-0.595401	0.068041	-0.013212
O220	O	-0.498521	-0.071154	-0.019752
C221	C	-0.437537	0.048335	0.402491
C222	C	-0.837226	0.099430	0.210091
C223	C	-0.739773	0.100339	0.187806
C224	C	-0.691967	0.094287	0.211308
C225	C	-0.571027	0.088563	0.071568
C226	C	-0.611521	0.095108	0.121070
C227	C	-0.562739	0.089011	0.144061
C228	C	-0.171338	0.037467	0.263967
C229	C	-0.700452	0.099593	0.142516
C230	C	-0.603213	0.088528	0.189308
C231	C	-0.554892	0.082255	0.212848
C232	C	-0.466098	0.076466	0.191141
C233	C	-0.425624	0.076949	0.145894
C234	C	-0.473945	0.083222	0.122354
C235	C	-0.336822	0.071163	0.124188
C236	C	-0.288502	0.064890	0.147728
C237	C	-0.328975	0.064407	0.192975
C238	C	-0.417770	0.070196	0.214682
C239	C	-0.458244	0.069713	0.259929
C240	C	-0.409923	0.063441	0.283469
C241	C	-0.321132	0.057655	0.261765
C242	C	-0.280658	0.058138	0.216518
C243	C	-0.272811	0.051382	0.285305
C244	C	-0.313285	0.050899	0.330552
C245	C	-0.402079	0.056688	0.352259
C246	C	-0.450397	0.062957	0.328716
C247	C	-0.547046	0.075500	0.281635
C248	C	-0.587520	0.075016	0.326882
C249	C	-0.539191	0.068747	0.350423
C250	C	-0.676314	0.080806	0.348589
C251	C	-0.724634	0.087078	0.325049
C252	C	-0.684160	0.087561	0.279802
C253	C	-0.595366	0.081772	0.258095
C254	C	-0.732481	0.093834	0.256262
O255	O	-0.040608	-1.085661	-0.825229
O256	O	-0.001018	-0.826491	-0.777938
O257	O	-0.150287	-0.971682	-0.775894
O258	O	0.108661	-0.940470	-0.827272
O259	O	-0.144253	-0.976123	-0.711878
O260	O	0.005016	-0.830932	-0.713922
O261	O	-0.034575	-1.090102	-0.761213
Zn262	Zn	-0.013821	-0.961222	-0.727403
Zn263	Zn	-0.021771	-0.955371	-0.811747
O264	O	0.114695	-0.944911	-0.763256
O265	O	-0.049524	-0.216405	-0.390125
C266	C	-0.131927	-0.204545	-0.431045
C267	C	-0.128318	-0.258447	-0.404142
H268	H	-0.195616	-0.238525	-0.442393
H269	H	-0.132936	-0.133089	-0.408598
H270	H	-0.069853	-0.202148	-0.462092
H271	H	-0.190379	-0.260916	-0.373094
H272	H	-0.127263	-0.329875	-0.426621
H273	H	0.182115	-0.525189	-0.530531
O274	O	-0.024357	-0.146906	-0.731970
C275	C	-0.103894	-0.043184	-0.670685
C276	C	-0.100742	-0.141951	-0.693396
H277	H	-0.165656	-0.039148	-0.639499
H278	H	-0.040027	-0.001242	-0.660053
H279	H	-0.108361	-0.016049	-0.695713
H280	H	-0.096306	-0.169167	-0.668392
H281	H	-0.164608	-0.183832	-0.704036
O282	O	-0.019737	-0.245635	-0.116950
C283	C	-0.091207	-0.247885	-0.038990
C284	C	-0.094238	-0.293143	-0.088352
H285	H	-0.151444	-0.286264	-0.015854
H286	H	-0.025808	-0.248450	-0.036397
H287	H	-0.094154	-0.175383	-0.028175
H288	H	-0.091326	-0.365661	-0.099199
H289	H	-0.159631	-0.292506	-0.090918
H290	H	0.182201	-0.525171	-0.030575
O291	O	-0.015740	-0.674113	-0.922434
C292	C	-0.015038	-0.809651	-0.984825
C293	C	-0.011947	-0.763651	-0.935497
H294	H	-0.011953	-0.882044	-0.995405
H295	H	-0.080496	-0.809444	-0.987511
H296	H	0.045118	-0.771489	-1.008088
H297	H	-0.072057	-0.801776	-0.912204
H298	H	0.053550	-0.763847	-0.932848
O299	O	-0.194091	0.052377	0.195275
C300	C	-0.094157	-0.031500	0.133710
C301	C	-0.192227	-0.025072	0.157715
H302	H	-0.092619	-0.094123	0.103344
H303	H	-0.050791	0.030877	0.121619
H304	H	-0.066460	-0.036040	0.158421
H305	H	-0.220004	-0.020560	0.133030
H306	H	-0.235530	-0.087449	0.169814
O307	O	0.177277	-0.669014	-0.027650
C308	C	0.072755	-0.714547	-0.070013
C309	C	0.170766	-0.668533	-0.068112
H310	H	0.067455	-0.714157	-0.102719
H311	H	0.052569	-0.787003	-0.069045
H312	H	0.025662	-0.676486	-0.039659
H313	H	0.217926	-0.706521	-0.098460
H314	H	0.190877	-0.596072	-0.069058
O315	O	-0.434346	0.083638	0.078217
C316	C	-0.300466	0.077732	0.014036
C317	C	-0.345207	0.077239	0.064021
H318	H	-0.228384	0.072578	0.002545
H319	H	-0.340758	0.018028	-0.007899
H320	H	-0.299120	0.143027	0.010466
H321	H	-0.346561	0.011985	0.067633
H322	H	-0.304900	0.136987	0.085931
O323	O	-0.446693	0.055805	-0.419448
C324	C	-0.325513	0.130674	-0.472952
C325	C	-0.369610	0.130036	-0.422972
H326	H	-0.263194	0.190694	-0.475816
H327	H	-0.304812	0.065687	-0.494204
H328	H	-0.375936	0.136145	-0.485834
H329	H	-0.319235	0.124599	-0.410048
H330	H	-0.390330	0.195022	-0.401750
O331	O	-0.212620	0.031248	-0.372366
C332	C	-0.089706	0.026671	-0.441825
C333	C	-0.187757	0.033001	-0.417496
H334	H	-0.069580	0.028066	-0.478319
H335	H	-0.042582	0.086090	-0.423443
H336	H	-0.084390	-0.038902	-0.441728
H337	H	-0.193160	0.098536	-0.417587
H338	H	-0.234835	-0.026465	-0.435886
O339	O	-0.019795	-0.763927	-0.377324
C340	C	-0.011053	-0.896784	-0.369614
C341	C	-0.014114	-0.798030	-0.346624
H342	H	-0.006441	-0.924380	-0.344807
H343	H	-0.074995	-0.938484	-0.380211
H344	H	0.050614	-0.900577	-0.400861
H345	H	-0.075740	-0.794151	-0.315362
H346	H	0.049869	-0.756374	-0.336061
H347	H	-0.740818	0.102779	0.123104
H348	H	-0.315470	0.043557	-0.411085
O349	O	-0.004919	-0.247676	-0.615586
C350	C	-0.076485	-0.248908	-0.537487
C351	C	-0.079439	-0.294834	-0.586838
H352	H	-0.136737	-0.287005	-0.514229
H353	H	-0.011100	-0.249182	-0.534752
H354	H	-0.079459	-0.176486	-0.526942
H355	H	-0.076499	-0.367274	-0.597415
H356	H	-0.144819	-0.294488	-0.589546
O357	O	0.015365	-0.691284	-0.153405
C358	C	0.035624	-0.826870	-0.154768
C359	C	0.015149	-0.780743	-0.179724
H360	H	0.035437	-0.899211	-0.176032
H361	H	0.104798	-0.788714	-0.149199
H362	H	-0.018274	-0.826848	-0.120577
H363	H	0.068989	-0.780755	-0.213928
H364	H	-0.054052	-0.818914	-0.185257
O365	O	-0.752815	0.091656	-0.376328
C366	C	-0.749605	0.196741	-0.409647
C367	C	-0.703431	0.175674	-0.385010
H368	H	-0.709708	0.264678	-0.416666
H369	H	-0.751974	0.142051	-0.443085
H370	H	-0.821366	0.199114	-0.387397
H371	H	-0.631651	0.173315	-0.407224
H372	H	-0.701134	0.230369	-0.351568
O373	O	-0.273345	0.020181	-0.145217
C374	C	-0.191582	-0.064417	-0.140318
C375	C	-0.246168	-0.060082	-0.166510
H376	H	-0.169609	-0.129313	-0.157518
H377	H	-0.129299	-0.004150	-0.140056
H378	H	-0.235487	-0.063020	-0.103966
H379	H	-0.202338	-0.061506	-0.202873
H380	H	-0.308457	-0.120344	-0.166736
H381	H	-0.797237	0.091807	0.342798
O382	O	-0.050616	-0.224902	-0.885685
C383	C	0.002096	-0.159672	-0.947147
C384	C	0.022502	-0.210169	-0.924350
H385	H	0.061208	-0.147729	-0.978407
H386	H	-0.061878	-0.201630	-0.957677
H387	H	-0.008128	-0.092211	-0.922212
H388	H	0.032771	-0.277631	-0.949261
H389	H	0.086456	-0.168145	-0.913811
O390	O	0.013689	-0.700230	-0.648998
C391	C	-0.059461	-0.756811	-0.583591
C392	C	-0.062943	-0.702884	-0.610521
H393	H	-0.121400	-0.758958	-0.552472
H394	H	-0.058724	-0.828348	-0.605992
H395	H	0.004365	-0.722992	-0.572359
H396	H	-0.126760	-0.736625	-0.621758
H397	H	-0.063630	-0.631349	-0.588103
O398	O	0.411142	-0.769696	-0.518426
C399	C	0.277822	-0.895110	-0.519525
C400	C	0.321916	-0.796323	-0.520407
H401	H	0.205669	-0.916662	-0.521116
H402	H	0.318386	-0.939831	-0.549915
H403	H	0.276752	-0.901949	-0.486853
H404	H	0.322993	-0.789397	-0.553058
H405	H	0.281337	-0.751648	-0.489994
H406	H	-0.030255	-0.164038	-0.167345
H407	H	-0.217624	0.025258	-0.300336
H408	H	0.003251	-0.391359	-0.619081
H409	H	0.544632	-0.155941	-0.028119
H410	H	-0.011621	-0.389765	-0.121028
O411	O	-0.030880	-0.668464	-0.424477
C412	C	-0.030222	-0.803431	-0.487212
C413	C	-0.027107	-0.758093	-0.437866
H414	H	-0.027153	-0.875897	-0.498056
H415	H	-0.095681	-0.802950	-0.489778
H416	H	0.029933	-0.764979	-0.510346
H417	H	-0.087216	-0.796510	-0.414703
H418	H	0.038391	-0.758563	-0.435337
H419	H	-0.815575	0.070280	-0.222817
O420	O	-0.820543	0.064396	-0.150772
C421	C	-0.943484	0.068910	-0.081325
C422	C	-0.845463	0.062493	-0.105664
H423	H	-0.963668	0.067354	-0.044854
H424	H	-0.948825	0.134522	-0.081362
H425	H	-0.990552	0.009533	-0.099757
H426	H	-0.798335	0.121821	-0.087251
H427	H	-0.840196	-0.003156	-0.105632
O428	O	-0.723853	0.051934	-0.104919
C429	C	-0.705495	0.044456	-0.039037
C430	C	-0.661501	0.045035	-0.089027
H431	H	-0.655110	0.038859	-0.026176
H432	H	-0.726088	0.109497	-0.017778
H433	H	-0.767891	-0.015487	-0.036157
H434	H	-0.599077	0.104934	-0.091950
H435	H	-0.640974	-0.020046	-0.110263
H436	H	-0.580066	0.039960	-0.110823
O437	O	-0.039284	-0.530680	-0.427476
C438	C	-0.038600	-0.665636	-0.490217
C439	C	-0.035507	-0.620309	-0.440868
H440	H	-0.035529	-0.738102	-0.501063
H441	H	-0.104054	-0.665156	-0.492790
H442	H	0.021562	-0.627176	-0.513345
H443	H	-0.095624	-0.658733	-0.417711
H444	H	0.029984	-0.620777	-0.438332
O445	O	0.237846	-0.216325	-0.533700
C446	C	0.106274	-0.159747	-0.496749
C447	C	0.160855	-0.213669	-0.495366
H448	H	0.044006	-0.157598	-0.465765
H449	H	0.150120	-0.088210	-0.496642
H450	H	0.084259	-0.193570	-0.528887
H451	H	0.182880	-0.179924	-0.463233
H452	H	0.116976	-0.285205	-0.495498
H453	H	0.245737	-0.223998	-0.033572
O454	O	0.273657	-0.763415	-0.022610
C455	C	0.152486	-0.867171	0.016450
C456	C	0.196576	-0.768395	0.015548
H457	H	0.090169	-0.871229	0.047303
H458	H	0.131783	-0.909098	-0.015764
H459	H	0.202913	-0.894309	0.018493
H460	H	0.146197	-0.741176	0.013522
H461	H	0.217299	-0.726531	0.047762
H462	H	-0.015393	-0.167196	-0.666497
O463	O	0.273508	-0.763471	-0.522589
C464	C	0.140183	-0.888881	-0.523681
C465	C	0.184280	-0.790098	-0.524568
H466	H	0.068030	-0.910434	-0.525271
H467	H	0.180744	-0.933608	-0.554070
H468	H	0.139117	-0.895714	-0.491009
H469	H	0.185355	-0.783179	-0.557220
H470	H	0.143705	-0.745419	-0.494156
H471	H	-0.023718	-0.530163	-0.918978
H472	H	-0.005085	-0.754331	-0.871556
H473	H	0.003321	-0.760550	-0.802778
H474	H	-0.303725	0.071562	0.087197
H475	H	0.771070	-0.249160	-0.519423
O476	O	0.717590	-0.691510	-0.004673
C477	C	0.789145	-0.689903	0.045156
C478	C	0.742884	-0.639476	0.035239
H479	H	0.809624	-0.647846	0.077420
H480	H	0.740260	-0.757388	0.049833
H481	H	0.851859	-0.701784	0.015534
H482	H	0.680174	-0.627529	0.064848
H483	H	0.791829	-0.572024	0.030545
O484	O	0.785104	-0.242427	-0.019130
C485	C	0.884688	-0.121228	0.021396
C486	C	0.786661	-0.167216	0.019517
H487	H	0.885981	-0.060401	0.052634
H488	H	0.912928	-0.170916	0.023343
H489	H	0.927737	-0.098289	-0.010423
H490	H	0.743540	-0.190156	0.051328
H491	H	0.758493	-0.117498	0.017546
H492	H	0.191099	-0.662437	-0.527221
H493	H	0.417746	-0.755558	-0.018645
H494	H	-0.709407	0.080425	0.385586
O495	O	0.688662	-0.148132	-0.524069
C496	C	0.821915	-0.022658	-0.522869
C497	C	0.777827	-0.121451	-0.521996
H498	H	0.894006	-0.001050	-0.521184
H499	H	0.823123	-0.015719	-0.555545
H500	H	0.781221	0.021955	-0.492487
H501	H	0.818485	-0.166125	-0.552356
H502	H	0.776606	-0.128318	-0.489300
O503	O	-0.268648	0.032311	0.350365
C504	C	-0.200345	0.084807	0.410182
C505	C	-0.250910	0.105964	0.387794
H506	H	-0.185972	0.144350	0.440441
H507	H	-0.243735	0.022321	0.422172
H508	H	-0.133831	0.072105	0.384480
H509	H	-0.317425	0.118710	0.413470
H510	H	-0.207455	0.168428	0.375794
O511	O	-0.819021	0.099693	0.277470
C512	C	-0.918890	0.183639	0.339037
C513	C	-0.820855	0.177085	0.315061
H514	H	-0.920407	0.246195	0.369440
H515	H	-0.946567	0.188305	0.314354
H516	H	-0.962285	0.121219	0.351085
H517	H	-0.777388	0.239487	0.303012
H518	H	-0.793250	0.172375	0.339761
H519	H	-0.038719	-0.156659	-0.235851
H520	H	0.710767	-0.684484	-0.506030
H521	H	-0.011748	-0.757184	-0.305606
H522	H	0.780052	-0.386407	-0.516111
H523	H	0.544602	-0.156012	-0.528109
H524	H	0.780178	-0.386331	-0.016193
H525	H	0.682288	-0.162154	-0.023969
H526	H	-0.215904	0.060157	0.129977
H527	H	-0.572284	0.068372	0.387422
