data_functionalizedCrystal
_audit_creation_method	'MofGen! by Chris Wilmer'
_symmetry_space_group_name_H-M	'P1'
_symmetry_Int_Tables_number	1
_symmetry_cell_setting	triclinic
loop_
_symmetry_equiv_pos_as_xyz
  x,y,z
_cell_length_a	14.519731
_cell_length_b	17.000371
_cell_length_c	12.996460
_cell_angle_alpha	89.993316
_cell_angle_beta	89.994327
_cell_angle_gamma	79.644050
loop_
_atom_site_label
_atom_site_type_symbol
_atom_site_fract_x
_atom_site_fract_y
_atom_site_fract_z
O1	O	1.215191	0.104406	-0.085570
O2	O	1.465191	0.354406	0.164430
O3	O	1.715191	0.604406	0.414430
O4	O	1.965191	0.854406	0.664430
O5	O	0.945698	0.116674	-0.085571
O6	O	1.195698	0.366674	0.164429
O7	O	1.445698	0.616674	0.414429
O8	O	1.695698	0.866674	0.664429
O9	O	1.097178	-0.005301	-0.085563
O10	O	1.347178	0.244699	0.164437
O11	O	1.597178	0.494699	0.414437
O12	O	1.847178	0.744699	0.664437
O13	O	1.063711	0.226381	-0.085578
O14	O	1.313711	0.476381	0.164422
O15	O	1.563711	0.726381	0.414422
O16	O	1.813711	0.976381	0.664422
O17	O	1.097164	-0.005308	0.085571
O18	O	1.347164	0.244692	0.335571
O19	O	1.597164	0.494692	0.585571
O20	O	1.847164	0.744692	0.835571
O21	O	0.945684	0.116667	0.085563
O22	O	1.195684	0.366667	0.335563
O23	O	1.445684	0.616667	0.585563
O24	O	1.695684	0.866667	0.835563
O25	O	1.215177	0.104399	0.085564
O26	O	1.465177	0.354399	0.335564
O27	O	1.715177	0.604399	0.585564
O28	O	1.965177	0.854399	0.835564
Cu29	Cu	1.080429	0.110533	0.101189
Cu30	Cu	1.330429	0.360533	0.351189
Cu31	Cu	1.580429	0.610533	0.601189
Cu32	Cu	1.830429	0.860533	0.851189
Cu33	Cu	1.080446	0.110541	-0.101196
Cu34	Cu	1.330446	0.360541	0.148804
Cu35	Cu	1.580446	0.610541	0.398804
Cu36	Cu	1.830446	0.860541	0.648804
O37	O	1.063697	0.226375	0.085556
O38	O	1.313697	0.476375	0.335556
O39	O	1.563697	0.726375	0.585556
O40	O	1.813697	0.976375	0.835556
C41	C	0.911379	0.116096	-0.000004
C42	C	1.161379	0.366096	0.249996
C43	C	1.411379	0.616096	0.499996
C44	C	1.661379	0.866096	0.749996
C45	C	0.809142	0.114373	-0.000005
C46	C	1.059142	0.364373	0.249995
C47	C	1.309142	0.614373	0.499995
C48	C	1.559142	0.864373	0.749995
C49	C	0.726114	0.112974	-0.000009
C50	C	0.976114	0.362974	0.249991
C51	C	1.226114	0.612974	0.499991
C52	C	1.476114	0.862974	0.749991
C53	C	0.621951	0.111225	-0.000009
C54	C	0.871951	0.361225	0.249991
C55	C	1.121951	0.611225	0.499991
C56	C	1.371951	0.861225	0.749991
C57	C	0.538927	0.109837	-0.000009
C58	C	0.788927	0.359837	0.249991
C59	C	1.038927	0.609837	0.499991
C60	C	1.288927	0.859837	0.749991
C61	C	0.434756	0.108088	-0.000011
C62	C	0.684756	0.358088	0.249989
C63	C	0.934756	0.608088	0.499989
C64	C	1.184756	0.858088	0.749989
C65	C	1.098968	-0.034956	0.000004
C66	C	1.348968	0.215044	0.250004
C67	C	1.598968	0.465044	0.500004
C68	C	1.848968	0.715044	0.750004
C69	C	1.104313	-0.123307	0.000003
C70	C	1.354313	0.126693	0.250003
C71	C	1.604313	0.376693	0.500003
C72	C	1.854313	0.626693	0.750003
C73	C	1.022057	-0.155455	-0.000002
C74	C	1.272057	0.094545	0.249998
C75	C	1.522057	0.344545	0.499998
C76	C	1.772057	0.594545	0.749998
C77	C	1.027085	-0.238470	0.000000
C78	C	1.277085	0.011530	0.250000
C79	C	1.527085	0.261530	0.500000
C80	C	1.777085	0.511530	0.750000
C81	C	1.114370	-0.289336	0.000001
C82	C	1.364370	-0.039336	0.250001
C83	C	1.614370	0.210664	0.500001
C84	C	1.864370	0.460664	0.750001
C85	C	1.196633	-0.257183	0.000009
C86	C	1.446633	-0.007183	0.250009
C87	C	1.696633	0.242817	0.500009
C88	C	1.946633	0.492817	0.750009
C89	C	1.191604	-0.174169	0.000014
C90	C	1.441604	0.075831	0.250014
C91	C	1.691604	0.325831	0.500014
C92	C	1.941604	0.575831	0.750014
C93	C	1.133795	-0.540453	-0.000006
C94	C	1.383795	-0.290453	0.249994
C95	C	1.633795	-0.040453	0.499994
C96	C	1.883795	0.209547	0.749994
C97	C	1.138817	-0.623472	-0.000014
C98	C	1.388817	-0.373472	0.249986
C99	C	1.638817	-0.123472	0.499986
C100	C	1.888817	0.126528	0.749986
C101	C	0.969269	-0.604754	-0.000020
C102	C	1.219269	-0.354754	0.249980
C103	C	1.469269	-0.104754	0.499980
C104	C	1.719269	0.145246	0.749980
C105	C	0.964248	-0.521739	-0.000022
C106	C	1.214248	-0.271739	0.249978
C107	C	1.464248	-0.021739	0.499978
C108	C	1.714248	0.228261	0.749978
C109	C	1.046511	-0.489593	-0.000008
C110	C	1.296511	-0.239593	0.249992
C111	C	1.546511	0.010407	0.499992
C112	C	1.796511	0.260407	0.749992
C113	C	1.119512	-0.374191	0.000001
C114	C	1.369512	-0.124191	0.250001
C115	C	1.619512	0.125809	0.500001
C116	C	1.869512	0.375809	0.750001
C117	C	1.041368	-0.404739	-0.000001
C118	C	1.291368	-0.154739	0.249999
C119	C	1.541368	0.095261	0.499999
C120	C	1.791368	0.345261	0.749999
C121	C	1.249495	0.104978	-0.000005
C122	C	1.499495	0.354978	0.249995
C123	C	1.749495	0.604978	0.499995
C124	C	1.999495	0.854978	0.749995
C125	C	1.351733	0.106700	-0.000011
C126	C	1.601733	0.356700	0.249989
C127	C	1.851733	0.606700	0.499989
C128	C	2.101733	0.856700	0.749989
C129	C	1.061906	0.256029	-0.000013
C130	C	1.311906	0.506029	0.249987
C131	C	1.561906	0.756029	0.499987
C132	C	1.811906	1.006029	0.749987
C133	C	1.056561	0.344380	-0.000019
C134	C	1.306561	0.594380	0.249981
C135	C	1.556561	0.844380	0.499981
C136	C	1.806561	1.094380	0.749981
N137	N	1.080424	0.110526	0.243536
N138	N	1.330424	0.360526	0.493536
N139	N	1.580424	0.610526	0.743536
N140	N	1.830424	0.860526	0.993536
N141	N	1.080459	0.110540	-0.243543
N142	N	1.330459	0.360540	0.006457
N143	N	1.580459	0.610540	0.256457
N144	N	1.830459	0.860540	0.506457
C145	C	1.080444	0.110541	0.663351
C146	C	1.330444	0.360541	0.913351
C147	C	1.580444	0.610541	1.163351
C148	C	1.830444	0.860541	1.413351
C149	C	1.080436	0.110540	0.546546
C150	C	1.330436	0.360540	0.796546
C151	C	1.580436	0.610540	1.046546
C152	C	1.830436	0.860540	1.296546
C153	C	1.080435	0.110535	0.453447
C154	C	1.330435	0.360535	0.703447
C155	C	1.580435	0.610535	0.953447
C156	C	1.830435	0.860535	1.203447
C157	C	1.080425	0.110532	0.336635
C158	C	1.330425	0.360532	0.586635
C159	C	1.580425	0.610532	0.836635
C160	C	1.830425	0.860532	1.086635
H161	H	0.950980	-0.114044	-0.000008
H162	H	1.200980	0.135956	0.249992
H163	H	1.450980	0.385956	0.499992
H164	H	1.700980	0.635956	0.749992
H165	H	0.960103	-0.264640	-0.000011
H166	H	1.210103	-0.014640	0.249989
H167	H	1.460103	0.235360	0.499989
H168	H	1.710103	0.485360	0.749989
F169	F	0.871348	-0.467609	-0.000032
F170	F	1.121348	-0.217609	0.249968
F171	F	1.371348	0.032391	0.499968
F172	F	1.621348	0.282391	0.749968
H173	H	1.209899	-0.664887	-0.000020
H174	H	1.459899	-0.414887	0.249980
H175	H	1.709899	-0.164887	0.499980
H176	H	1.959899	0.085113	0.749980
F177	F	1.221346	-0.506252	-0.000019
F178	F	1.471346	-0.256252	0.249981
F179	F	1.721346	-0.006252	0.499981
F180	F	1.971346	0.243748	0.749981
F181	F	1.289528	-0.311321	0.000021
F182	F	1.539528	-0.061321	0.250021
F183	F	1.789528	0.188679	0.500021
F184	F	2.039528	0.438679	0.750021
F185	F	0.881726	-0.638972	-0.000034
F186	F	1.131726	-0.388972	0.249966
F187	F	1.381726	-0.138972	0.499966
F188	F	1.631726	0.111028	0.749966
F189	F	1.279152	-0.139956	0.000028
F190	F	1.529152	0.110044	0.250028
F191	F	1.779152	0.360044	0.500028
F192	F	2.029152	0.610044	0.750028
H193	H	0.970301	-0.363320	0.000005
H194	H	1.220301	-0.113320	0.250005
H195	H	1.470301	0.136680	0.500005
H196	H	1.720301	0.386680	0.750005
F197	F	1.212404	-0.428334	0.000004
F198	F	1.462404	-0.178334	0.250004
F199	F	1.712404	0.071666	0.500004
F200	F	1.962404	0.321666	0.750004
