data_functionalizedCrystal
_audit_creation_method	'MofGen! by Chris Wilmer'
_symmetry_space_group_name_H-M	'P1'
_symmetry_Int_Tables_number	1
_symmetry_cell_setting	triclinic
loop_
_symmetry_equiv_pos_as_xyz
  x,y,z
_cell_length_a	15.944545
_cell_length_b	15.944551
_cell_length_c	15.021413
_cell_angle_alpha	89.999557
_cell_angle_beta	89.990408
_cell_angle_gamma	83.497455
loop_
_atom_site_label
_atom_site_type_symbol
_atom_site_fract_x
_atom_site_fract_y
_atom_site_fract_z
O1	O	1.114514	0.108301	0.073976
O2	O	1.614514	0.608301	0.573976
O3	O	0.869964	0.121663	0.073991
O4	O	1.369964	0.621663	0.573991
O5	O	0.998917	-0.007293	0.073975
O6	O	1.498917	0.492707	0.573975
O7	O	0.985561	0.237257	0.073992
O8	O	1.485561	0.737257	0.573992
O9	O	0.998932	-0.007285	-0.074089
O10	O	1.498932	0.492715	0.425911
O11	O	0.869979	0.121671	-0.074073
O12	O	1.369979	0.621671	0.425927
O13	O	1.114529	0.108309	-0.074088
O14	O	1.614529	0.608309	0.425912
Zn15	Zn	0.992257	0.114991	-0.097589
Zn16	Zn	1.492257	0.614991	0.402411
Zn17	Zn	0.992237	0.114981	0.097492
Zn18	Zn	1.492237	0.614981	0.597492
O19	O	0.985576	0.237265	-0.074072
O20	O	1.485576	0.737265	0.425928
C21	C	0.838677	0.121113	-0.000039
C22	C	1.338677	0.621113	0.499961
C23	C	0.745431	0.119453	-0.000034
C24	C	1.245431	0.619453	0.499966
C25	C	0.998370	-0.038583	-0.000057
C26	C	1.498370	0.461417	0.499943
C27	C	0.996708	-0.131829	-0.000057
C28	C	1.496708	0.368171	0.499943
C29	C	0.474798	0.034559	-0.000049
C30	C	0.974798	0.534559	0.499951
C31	C	0.525387	0.075492	-0.073052
C32	C	1.025387	0.575492	0.426948
C33	C	0.409787	0.113532	-0.000050
C34	C	0.909787	0.613532	0.499950
C35	C	0.525353	0.075505	0.072928
C36	C	1.025353	0.575505	0.572928
C37	C	0.574701	0.116437	-0.000040
C38	C	1.074701	0.616437	0.499960
C39	C	0.459148	0.154444	-0.073113
C40	C	0.959148	0.654444	0.426887
C41	C	0.459110	0.154446	0.072933
C42	C	0.959110	0.654446	0.572933
C43	C	0.509667	0.195436	-0.000088
C44	C	1.009667	0.695436	0.499912
C45	C	0.314785	0.111856	-0.000056
C46	C	0.814785	0.611856	0.499944
C47	C	0.669700	0.118119	-0.000041
C48	C	1.169700	0.618119	0.499959
C49	C	0.912803	-0.346684	-0.000040
C50	C	1.412803	0.153316	0.499960
C51	C	0.951773	-0.407698	-0.073047
C52	C	1.451773	0.092302	0.426953
C53	C	0.993701	-0.302555	-0.000050
C54	C	1.493701	0.197445	0.499950
C55	C	0.951778	-0.407689	0.072933
C56	C	1.451778	0.092311	0.572933
C57	C	0.990790	-0.467468	-0.000040
C58	C	1.490790	0.032532	0.499960
C59	C	1.032693	-0.362341	-0.073118
C60	C	1.532693	0.137659	0.426882
C61	C	1.032686	-0.362326	0.072928
C62	C	1.532686	0.137674	0.572928
C63	C	1.071715	-0.423322	-0.000097
C64	C	1.571715	0.076678	0.499903
C65	C	0.995375	-0.207553	-0.000057
C66	C	1.495375	0.292447	0.499943
C67	C	0.989122	-0.562469	-0.000039
C68	C	1.489122	-0.062469	0.499961
C69	C	1.145816	0.108859	-0.000056
C70	C	1.645816	0.608859	0.499944
C71	C	1.239062	0.110519	-0.000055
C72	C	1.739062	0.610519	0.499945
C73	C	0.986123	0.268555	-0.000038
C74	C	1.486123	0.768555	0.499962
C75	C	0.987785	0.361801	-0.000032
C76	C	1.487785	0.861801	0.499968
N77	N	0.992276	0.114998	-0.230727
N78	N	1.492276	0.614998	0.269273
C79	C	1.051916	0.055355	-0.470393
C80	C	1.551916	0.555355	0.029607
C81	C	0.976016	0.039039	-0.529719
C82	C	1.476016	0.539039	-0.029719
C83	C	0.992257	0.114987	-0.412333
C84	C	1.492257	0.614987	0.087667
C85	C	1.068138	0.131253	-0.529749
C86	C	1.568138	0.631253	-0.029749
C87	C	0.992245	0.114975	-0.587757
C88	C	1.492245	0.614975	-0.087757
C89	C	0.916318	0.098634	-0.470353
C90	C	1.416318	0.598634	0.029647
C91	C	1.008490	0.190881	-0.470378
C92	C	1.508490	0.690881	0.029622
C93	C	0.932536	0.174598	-0.529677
C94	C	1.432536	0.674598	-0.029677
C95	C	0.992265	0.114992	-0.311276
C96	C	1.492265	0.614992	0.188724
C97	C	0.992228	0.114971	-0.688813
C98	C	1.492228	0.614971	-0.188813
N99	N	0.992224	0.114967	0.230630
N100	N	1.492224	0.614967	0.730630
H101	H	0.459145	-0.033453	-0.000125
H102	H	0.959145	0.466547	0.499875
C103	C	1.078884	-0.335334	-0.156595
C104	C	1.578884	0.164666	0.343405
N105	N	1.113671	-0.314989	-0.219471
N106	N	1.613671	0.185011	0.280529
C107	C	1.027090	0.277565	-0.435130
C108	C	1.527090	0.777565	0.064870
N109	N	1.041109	0.342855	-0.408578
N110	N	1.541109	0.842855	0.091422
H111	H	0.554325	0.042143	-0.134775
H112	H	1.054325	0.542143	0.365225
C113	C	0.822092	-0.301678	-0.000134
C114	C	1.322092	0.198322	0.499866
N115	N	0.753771	-0.267776	-0.000211
N116	N	1.253771	0.232224	0.499789
C117	C	0.530604	0.287386	-0.000140
C118	C	1.030604	0.787386	0.499860
N119	N	0.546376	0.356642	-0.000185
N120	N	1.046376	0.856642	0.499815
C121	C	1.078862	-0.335132	0.156311
C122	C	1.578862	0.164868	0.656311
N123	N	1.113636	-0.314648	0.219122
N124	N	1.613636	0.185352	0.719122
H125	H	0.917563	-0.427802	-0.134765
H126	H	1.417563	0.072198	0.365235
H127	H	0.962274	-0.025147	-0.555785
H128	H	1.462274	0.474853	-0.055785
C129	C	0.829601	0.079930	-0.435257
C130	C	1.329601	0.579930	0.064743
N131	N	0.764289	0.065838	-0.408821
N132	N	1.264289	0.565838	0.091179
C133	C	0.864297	0.242720	-0.564629
C134	C	1.364297	0.742720	-0.064629
N135	N	0.812898	0.294025	-0.590957
N136	N	1.312898	0.794025	-0.090957
C137	C	0.420240	0.199467	-0.156585
C138	C	0.920240	0.699467	0.343415
N139	N	0.390933	0.233375	-0.219457
N140	N	0.890933	0.733375	0.280543
C141	C	0.905527	-0.434828	0.156314
C142	C	1.405527	0.065172	0.656314
N143	N	0.870685	-0.455264	0.219114
N144	N	1.370685	0.044736	0.719114
H145	H	1.138922	-0.456483	-0.000142
H146	H	1.638922	0.043517	0.499858
C147	C	0.564407	0.030427	0.156303
C148	C	1.064407	0.530427	0.656303
N149	N	0.593820	-0.003531	0.219099
N150	N	1.093820	0.496469	0.719099
C151	C	0.419989	0.199455	0.156321
C152	C	0.919989	0.699455	0.656321
N153	N	0.390521	0.233350	0.219137
N154	N	0.890521	0.733350	0.719137
H155	H	1.102315	0.004898	-0.444362
H156	H	1.602315	0.504898	0.055638
H157	H	1.132315	0.145017	-0.555840
H158	H	1.632315	0.645017	-0.055840
