data_functionalizedCrystal
_audit_creation_method	'MofGen! by Chris Wilmer'
_symmetry_space_group_name_H-M	'P1'
_symmetry_Int_Tables_number	1
_symmetry_cell_setting	triclinic
loop_
_symmetry_equiv_pos_as_xyz
  x,y,z
_cell_length_a	14.971506
_cell_length_b	14.971486
_cell_length_c	14.048226
_cell_angle_alpha	89.998499
_cell_angle_beta	89.995147
_cell_angle_gamma	83.618258
loop_
_atom_site_label
_atom_site_type_symbol
_atom_site_fract_x
_atom_site_fract_y
_atom_site_fract_z
O1	O	0.116563	1.186955	-0.079048
O2	O	0.616563	1.686955	0.420952
O3	O	0.130522	0.926556	-0.079073
O4	O	0.630522	1.426556	0.420927
O5	O	-0.006656	1.063726	-0.079057
O6	O	0.493344	1.563726	0.420943
O7	O	0.253742	1.049786	-0.079064
O8	O	0.753742	1.549786	0.420936
O9	O	-0.006664	1.063709	0.079264
O10	O	0.493336	1.563709	0.579264
O11	O	0.130514	0.926540	0.079248
O12	O	0.630514	1.426540	0.579248
O13	O	0.116555	1.186939	0.079274
O14	O	0.616555	1.686939	0.579274
Zn15	Zn	0.123533	1.056737	0.104398
Zn16	Zn	0.623533	1.556737	0.604398
Zn17	Zn	0.123544	1.056759	-0.104197
Zn18	Zn	0.623544	1.556759	0.395803
O19	O	0.253734	1.049769	0.079258
O20	O	0.753734	1.549769	0.579258
C21	C	0.129894	0.893223	0.000084
C22	C	0.629894	1.393223	0.500084
C23	C	0.128023	0.793926	0.000074
C24	C	0.628023	1.293926	0.500074
C25	C	-0.039984	1.063091	0.000102
C26	C	0.460016	1.563091	0.500102
C27	C	-0.139281	1.061213	0.000098
C28	C	0.360719	1.561213	0.500098
C29	C	0.208612	0.736707	0.000074
C30	C	0.708612	1.236707	0.500074
C31	C	0.206849	0.643407	0.000088
C32	C	0.706849	1.143407	0.500088
C33	C	0.124496	0.607329	0.000096
C34	C	0.624496	1.107329	0.500096
C35	C	0.043901	0.664556	0.000099
C36	C	0.543901	1.164556	0.500099
C37	C	0.045665	0.757853	0.000092
C38	C	0.545665	1.257853	0.500092
C39	C	0.040230	0.470093	0.000113
C40	C	0.540230	0.970093	0.500113
C41	C	0.038466	0.376789	0.000118
C42	C	0.538466	0.876789	0.500118
C43	C	0.201414	0.355647	0.000109
C44	C	0.701414	0.855647	0.500109
C45	C	0.203178	0.448944	0.000101
C46	C	0.703178	0.948944	0.500101
C47	C	0.122582	0.506165	0.000103
C48	C	0.622582	1.006165	0.500103
C49	C	-0.577563	1.134631	0.000105
C50	C	-0.077563	1.634631	0.500105
C51	C	-0.484263	1.136389	0.000112
C52	C	0.015737	1.636389	0.500112
C53	C	-0.427043	1.055796	0.000100
C54	C	0.072957	1.555796	0.500100
C55	C	-0.463127	0.973441	0.000092
C56	C	0.036873	1.473441	0.500092
C57	C	-0.556426	0.971685	0.000093
C58	C	-0.056426	1.471685	0.500093
C59	C	-0.268664	0.977108	0.000089
C60	C	0.231336	1.477108	0.500089
C61	C	-0.175359	0.978864	0.000087
C62	C	0.324641	1.478864	0.500087
C63	C	-0.196501	1.141812	0.000108
C64	C	0.303499	1.641812	0.500108
C65	C	-0.289800	1.140055	0.000108
C66	C	0.210200	1.640055	0.500108
C67	C	-0.325878	1.057700	0.000099
C68	C	0.174122	1.557700	0.500099
C69	C	0.287062	1.050404	0.000096
C70	C	0.787062	1.550404	0.500096
C71	C	0.386358	1.052282	0.000094
C72	C	0.886358	1.552282	0.500094
C73	C	0.117184	1.220272	0.000114
C74	C	0.617184	1.720272	0.500114
C75	C	0.119054	1.319569	0.000118
C76	C	0.619054	1.819569	0.500118
N77	N	0.123526	1.056728	0.246758
N78	N	0.623526	1.556728	0.746758
N79	N	0.123545	1.056774	-0.246558
N80	N	0.623545	1.556774	0.253442
C81	C	0.062808	1.117486	0.296584
C82	C	0.562808	1.617486	0.796584
C83	C	0.062808	1.117492	0.396241
C84	C	0.562808	1.617492	0.896241
C85	C	0.123530	1.056744	0.446072
C86	C	0.623530	1.556744	0.946072
C87	C	0.184250	0.995980	0.396240
C88	C	0.684250	1.495980	0.896240
C89	C	0.184245	0.995970	0.296584
C90	C	0.684245	1.495970	0.796584
C91	C	0.184256	0.996006	0.603954
C92	C	0.684256	1.496006	1.103954
C93	C	0.184262	0.996016	0.703617
C94	C	0.684262	1.496016	1.203617
C95	C	0.062819	1.117528	0.703611
C96	C	0.562819	1.617528	1.203611
C97	C	0.062814	1.117518	0.603955
C98	C	0.562814	1.617518	1.103955
C99	C	0.123536	1.056755	0.554130
C100	C	0.623536	1.556755	1.054130
H101	H	0.275673	0.766074	0.000066
H102	H	0.775673	1.266074	0.500066
H103	H	0.233700	0.946523	0.563390
H104	H	0.733700	1.446523	1.063390
H105	H	-0.624146	1.200259	0.000107
H106	H	-0.124146	1.700259	0.500107
Cl107	Cl	0.260583	0.919605	0.458882
Cl108	Cl	0.760583	1.419605	0.958882
Cl109	Cl	-0.391194	0.872124	0.000082
Cl110	Cl	0.108806	1.372124	0.500082
H111	H	0.013365	1.166958	0.256018
H112	H	0.513365	1.666958	0.756018
Cl113	Cl	-0.314018	0.873574	0.000082
Cl114	Cl	0.185982	1.373574	0.500082
Cl115	Cl	0.260600	0.919641	0.766254
Cl116	Cl	0.760600	1.419641	1.266254
H117	H	0.272472	0.596822	0.000086
H118	H	0.772472	1.096822	0.500086
H119	H	0.233686	0.946494	0.256017
H120	H	0.733686	1.446494	0.756017
H121	H	0.270236	0.478316	0.000086
H122	H	0.770236	0.978316	0.500086
Cl123	Cl	-0.013516	1.193892	0.541309
Cl124	Cl	0.486484	1.693892	1.041309
Cl125	Cl	-0.438911	1.239918	0.000101
Cl126	Cl	0.061089	1.739918	0.500101
H127	H	-0.128772	0.913239	0.000083
H128	H	0.371228	1.413239	0.500083
H129	H	0.267037	0.309053	0.000111
H130	H	0.767037	0.809053	0.500111
Cl131	Cl	-0.065064	0.331434	0.000160
Cl132	Cl	0.434936	0.831434	0.500160
H133	H	0.013367	1.166965	0.436808
H134	H	0.513367	1.666965	0.936808
H135	H	-0.585799	0.904628	0.000092
H136	H	-0.085799	1.404628	0.500092
Cl137	Cl	-0.151147	1.245345	0.000119
Cl138	Cl	0.348853	1.745345	0.500119
Cl139	Cl	-0.061091	0.542026	0.000116
Cl140	Cl	0.438909	1.042026	0.500116
Cl141	Cl	-0.059628	0.619200	0.000115
Cl142	Cl	0.440372	1.119200	0.500115
H143	H	0.013377	1.167003	0.744185
H144	H	0.513377	1.667003	1.244185
H145	H	-0.019958	0.804441	0.000092
H146	H	0.480042	1.304441	0.500092
H147	H	-0.336387	1.205681	0.000111
H148	H	0.163613	1.705681	0.500111
