data_functionalizedCrystal
_audit_creation_method	'MofGen! by Chris Wilmer'
_symmetry_space_group_name_H-M	'P1'
_symmetry_Int_Tables_number	1
_symmetry_cell_setting	triclinic
loop_
_symmetry_equiv_pos_as_xyz
  x,y,z
_cell_length_a	15.944545
_cell_length_b	15.944551
_cell_length_c	14.472310
_cell_angle_alpha	89.997979
_cell_angle_beta	89.989758
_cell_angle_gamma	83.497455
loop_
_atom_site_label
_atom_site_type_symbol
_atom_site_fract_x
_atom_site_fract_y
_atom_site_fract_z
O1	O	1.114538	0.108301	-0.076783
O2	O	0.869988	0.121663	-0.076798
O3	O	0.998941	-0.007293	-0.076782
O4	O	0.985585	0.237257	-0.076799
O5	O	0.998908	-0.007285	0.076900
O6	O	0.869955	0.121670	0.076884
O7	O	1.114505	0.108309	0.076899
Cu8	Cu	0.992227	0.114990	0.090924
Cu9	Cu	0.992266	0.114981	-0.090823
O10	O	0.985552	0.237265	0.076883
C11	C	0.838677	0.121113	0.000041
C12	C	0.745431	0.119453	0.000035
C13	C	0.998370	-0.038583	0.000059
C14	C	0.996708	-0.131829	0.000060
C15	C	0.474798	0.034559	0.000051
C16	C	0.525364	0.075492	0.075824
C17	C	0.409787	0.113532	0.000051
C18	C	0.525377	0.075505	-0.075695
C19	C	0.574701	0.116437	0.000042
C20	C	0.459124	0.154444	0.075887
C21	C	0.459134	0.154446	-0.075700
C22	C	0.509667	0.195436	0.000091
C23	C	0.314785	0.111856	0.000058
C24	C	0.669700	0.118119	0.000042
C25	C	0.912803	-0.346684	0.000042
C26	C	0.951750	-0.407698	0.075819
C27	C	0.993701	-0.302555	0.000052
C28	C	0.951801	-0.407689	-0.075700
C29	C	0.990790	-0.467468	0.000041
C30	C	1.032669	-0.362341	0.075892
C31	C	1.032710	-0.362326	-0.075695
C32	C	1.071715	-0.423322	0.000101
C33	C	0.995375	-0.207553	0.000059
C34	C	0.989122	-0.562469	0.000041
C35	C	1.145816	0.108859	0.000058
C36	C	1.239062	0.110519	0.000057
C37	C	0.986123	0.268555	0.000039
C38	C	0.987785	0.361801	0.000033
N39	N	0.992206	0.114996	0.218755
N40	N	0.992294	0.114969	-0.218654
C41	C	0.992265	0.114978	0.592846
C42	C	0.923033	0.183748	0.553671
C43	C	0.923193	0.183999	0.446583
C44	C	0.992235	0.114987	0.407255
C45	C	1.079879	0.134132	0.446096
C46	C	1.079490	0.134621	0.553217
C47	C	0.974635	0.026859	0.553380
C48	C	0.972625	0.027446	0.446252
C49	C	0.992223	0.114990	0.302367
C50	C	0.992283	0.114976	0.697734
H51	H	0.459145	-0.033453	0.000130
H52	H	0.845655	-0.313375	0.000113
Br53	Br	1.089716	-0.328778	-0.182471
Br54	Br	1.058783	-0.058440	0.595600
Br55	Br	0.410908	0.209984	-0.182483
H56	H	0.554281	0.042142	0.139888
Br57	Br	0.894771	-0.441182	-0.182467
Br58	Br	0.814090	0.165036	0.596620
Br59	Br	0.573602	0.019890	-0.182457
H60	H	1.132627	0.085376	0.420619
H61	H	1.138922	-0.456483	0.000148
H62	H	0.917519	-0.427803	0.139878
Br63	Br	0.814594	0.165045	0.402811
Br64	Br	0.411090	0.209999	0.182773
Br65	Br	1.089633	-0.329026	0.182784
Br66	Br	0.941919	0.293001	0.403843
H67	H	0.934137	0.248772	0.580577
H68	H	1.095025	0.198886	0.578189
H69	H	1.132616	0.086507	0.579129
H70	H	1.095785	0.197665	0.419255
Br71	Br	0.870409	-0.003809	0.598457
Br72	Br	0.865167	0.003225	0.403946
H73	H	0.525158	0.263501	0.000131
Br74	Br	1.051219	-0.061850	0.401653
