data_functionalizedCrystal
_audit_creation_method	'MofGen! by Chris Wilmer'
_symmetry_space_group_name_H-M	'P1'
_symmetry_Int_Tables_number	1
_symmetry_cell_setting	triclinic
loop_
_symmetry_equiv_pos_as_xyz
  x,y,z
_cell_length_a	13.033286
_cell_length_b	13.032721
_cell_length_c	13.032268
_cell_angle_alpha	103.289627
_cell_angle_beta	105.163409
_cell_angle_gamma	89.137287
loop_
_atom_site_label
_atom_site_type_symbol
_atom_site_fract_x
_atom_site_fract_y
_atom_site_fract_z
Zn1	Zn	1.451070	-0.662369	-0.490252
Zn2	Zn	1.951070	-0.162369	0.009748
Zn3	Zn	1.450956	-0.817441	-0.335213
Zn4	Zn	1.950956	-0.317441	0.164787
Zn5	Zn	1.301741	-0.623060	-0.329544
Zn6	Zn	1.801741	-0.123060	0.170456
Zn7	Zn	1.250876	-0.817400	-0.535361
Zn8	Zn	1.750876	-0.317400	-0.035361
O9	O	1.363661	-0.730068	-0.422593
O10	O	1.863661	-0.230068	0.077407
O11	O	1.597284	-0.699408	-0.453180
O12	O	2.097284	-0.199408	0.046820
O13	O	1.452402	-0.775222	-0.183441
O14	O	1.952402	-0.275222	0.316559
O15	O	1.342885	-0.482045	-0.329612
O16	O	1.842885	0.017955	0.170388
O17	O	1.597200	-0.813338	-0.339274
O18	O	2.097200	-0.313338	0.160726
O19	O	1.452596	-0.510925	-0.447683
O20	O	1.952596	-0.010925	0.052317
O21	O	1.342774	-0.632412	-0.179276
O22	O	1.842774	-0.132412	0.320724
O23	O	1.148765	-0.632372	-0.373352
O24	O	1.648765	-0.132372	0.126648
O25	O	1.256193	-0.813269	-0.680397
O26	O	1.756193	-0.313269	-0.180397
O27	O	1.111395	-0.775152	-0.524564
O28	O	1.611395	-0.275152	-0.024564
O29	O	1.403275	-0.699368	-0.647256
O30	O	1.903275	-0.199368	-0.147256
O31	O	1.403080	-0.963665	-0.383014
O32	O	1.903080	-0.463665	0.116986
O33	O	1.256083	-0.963635	-0.530062
O34	O	1.756083	-0.463635	-0.030062
C35	C	1.092164	-0.699493	-0.453239
C36	C	1.592164	-0.199493	0.046761
C37	C	0.976010	-0.686441	-0.466378
C38	C	1.476010	-0.186441	0.033622
C39	C	0.924212	-0.736883	-0.415762
C40	C	1.424212	-0.236883	0.084238
C41	C	0.804160	-0.723394	-0.429341
C42	C	1.304160	-0.223394	0.070659
C43	C	1.324075	-1.001572	-0.462068
C44	C	1.824075	-0.501572	0.037932
C45	C	1.307230	-1.117737	-0.478981
C46	C	1.807230	-0.617737	0.021019
C47	C	1.372501	-1.169519	-0.413808
C48	C	1.872501	-0.669519	0.086192
C49	C	1.355093	-1.289582	-0.431287
C50	C	1.855093	-0.789582	0.068713
C51	C	1.636217	-0.760763	-0.391828
C52	C	2.136217	-0.260763	0.108172
C53	C	1.752365	-0.773843	-0.378717
C54	C	2.252365	-0.273843	0.121283
C55	C	1.324073	-0.760699	-0.704079
C56	C	1.824073	-0.260699	-0.204079
C57	C	1.307203	-0.773752	-0.824031
C58	C	1.807203	-0.273752	-0.324031
C59	C	1.403427	-0.457509	-0.382983
C60	C	1.903427	0.042491	0.117017
C61	C	1.420373	-0.341361	-0.366104
C62	C	1.920373	0.158639	0.133896
C63	C	1.372455	-0.723216	-0.861113
C64	C	1.872455	-0.223216	-0.361113
C65	C	1.355020	-0.736706	-0.985090
C66	C	1.855020	-0.236706	-0.485090
C67	C	1.403166	-0.699487	-0.142184
C68	C	1.903166	-0.199487	0.357816
C69	C	1.420281	-0.686162	-0.022166
C70	C	1.920281	-0.186162	0.477834
H71	H	0.931477	-0.633273	-0.519770
H72	H	1.431477	-0.133273	-0.019770
H73	H	0.796889	-0.827027	-0.325335
H74	H	1.296889	-0.327027	0.174665
H75	H	1.489053	-0.632899	-0.962133
H76	H	1.989053	-0.132899	-0.462133
H77	H	0.968743	-0.790058	-0.362378
H78	H	1.468743	-0.290058	0.137622
H79	H	1.238426	-0.826997	-0.884068
H80	H	1.738426	-0.326997	-0.384068
H81	H	1.441274	-1.124969	-0.345073
H82	H	1.941274	-0.624969	0.154927
H83	H	1.489150	-1.296814	-0.297365
H84	H	1.989150	-0.796814	0.202635
H85	H	1.286238	-0.789954	-1.045124
H86	H	1.786238	-0.289954	-0.545124
H87	H	1.238465	-1.162291	-0.547722
H88	H	1.738465	-0.662291	-0.047722
H89	H	0.759631	-0.670223	-0.482737
H90	H	1.259631	-0.170223	0.017263
H91	H	1.441223	-0.669959	-0.801075
H92	H	1.941223	-0.169959	-0.301075
H93	H	1.286323	-1.334132	-0.500033
H94	H	1.786323	-0.834132	-0.000033
