data_functionalizedCrystal
_audit_creation_method	'MofGen! by Chris Wilmer'
_symmetry_space_group_name_H-M	'P1'
_symmetry_Int_Tables_number	1
_symmetry_cell_setting	triclinic
loop_
_symmetry_equiv_pos_as_xyz
  x,y,z
_cell_length_a	12.645330
_cell_length_b	12.645331
_cell_length_c	18.050582
_cell_angle_alpha	90.011369
_cell_angle_beta	89.981661
_cell_angle_gamma	89.981279
loop_
_atom_site_label
_atom_site_type_symbol
_atom_site_fract_x
_atom_site_fract_y
_atom_site_fract_z
Zn1	Zn	-0.422070	-1.620661	-0.419850
Zn2	Zn	-0.088737	-1.287328	-0.086517
Zn3	Zn	0.244596	-0.953995	0.246817
Zn4	Zn	-0.599338	-1.620564	-0.295671
Zn5	Zn	-0.266005	-1.287230	0.037663
Zn6	Zn	0.067329	-0.953897	0.370996
Zn7	Zn	-0.422092	-1.443397	-0.295684
Zn8	Zn	-0.088759	-1.110063	0.037650
Zn9	Zn	0.244574	-0.776730	0.370983
Zn10	Zn	-0.599295	-1.443358	-0.419829
Zn11	Zn	-0.265962	-1.110024	-0.086495
Zn12	Zn	0.067371	-0.776691	0.246838
O13	O	-0.510699	-1.531995	-0.357758
O14	O	-0.177366	-1.198661	-0.024425
O15	O	0.155968	-0.865328	0.308908
O16	O	-0.445594	-1.768996	-0.403381
O17	O	-0.112261	-1.435662	-0.070047
O18	O	0.221073	-1.102329	0.263286
O19	O	-0.575853	-1.597037	-0.191748
O20	O	-0.242520	-1.263704	0.141586
O21	O	0.090814	-0.930371	0.474919
O22	O	-0.273742	-1.466968	-0.312169
O23	O	0.059591	-1.133635	0.021164
O24	O	0.392925	-0.800302	0.354498
O25	O	-0.575832	-1.768924	-0.312147
O26	O	-0.242498	-1.435591	0.021187
O27	O	0.090835	-1.102257	0.354520
O28	O	-0.273726	-1.597204	-0.403393
O29	O	0.059607	-1.263871	-0.070060
O30	O	0.392941	-0.930537	0.263273
O31	O	-0.445631	-1.466874	-0.191757
O32	O	-0.112298	-1.133540	0.141576
O33	O	0.221035	-0.800207	0.474909
O34	O	-0.445590	-1.295044	-0.312148
O35	O	-0.112257	-0.961711	0.021185
O36	O	0.221077	-0.628378	0.354518
O37	O	-0.575759	-1.466902	-0.523756
O38	O	-0.242426	-1.133569	-0.190423
O39	O	0.090908	-0.800235	0.142910
O40	O	-0.575780	-1.295016	-0.403357
O41	O	-0.242447	-0.961682	-0.070024
O42	O	0.090886	-0.628349	0.263309
O43	O	-0.445552	-1.597166	-0.523772
O44	O	-0.112219	-1.263833	-0.190438
O45	O	0.221114	-0.930500	0.142895
O46	O	-0.747680	-1.597000	-0.312126
O47	O	-0.414346	-1.263666	0.021207
O48	O	-0.081013	-0.930333	0.354541
O49	O	-0.747648	-1.466807	-0.403345
O50	O	-0.414315	-1.133474	-0.070011
O51	O	-0.080982	-0.800141	0.263322
C52	C	-0.510684	-1.256565	-0.357752
C53	C	-0.177350	-0.923232	-0.024419
C54	C	0.155983	-0.589898	0.308914
C55	C	-0.510703	-1.138735	-0.357767
C56	C	-0.177369	-0.805402	-0.024434
C57	C	0.155964	-0.472068	0.308899
C58	C	-0.592746	-1.093871	-0.415063
C59	C	-0.259412	-0.760537	-0.081730
C60	C	0.073921	-0.427204	0.251604
C61	C	-0.593084	-0.971311	-0.414893
C62	C	-0.259750	-0.637977	-0.081559
C63	C	0.073583	-0.304644	0.251774
C64	C	-0.540530	-0.970795	-0.279406
C65	C	-0.207197	-0.637461	0.053927
C66	C	0.126136	-0.304128	0.387260
C67	C	-0.541108	-1.093393	-0.279738
C68	C	-0.207775	-0.760059	0.053595
C69	C	0.125559	-0.426726	0.386929
C70	C	-0.398661	-1.093586	-0.378148
C71	C	-0.065328	-0.760252	-0.044815
C72	C	0.268006	-0.426919	0.288519
C73	C	-0.399281	-0.970980	-0.379874
C74	C	-0.065948	-0.637647	-0.046540
C75	C	0.267385	-0.304313	0.286793
C76	C	-0.786129	-1.531917	-0.357748
C77	C	-0.452795	-1.198584	-0.024415
C78	C	-0.119462	-0.865251	0.308919
C79	C	-0.903959	-1.531981	-0.357768
C80	C	-0.570625	-1.198648	-0.024435
C81	C	-0.237292	-0.865315	0.308898
C82	C	-1.071547	-1.450415	-0.415331
C83	C	-0.738214	-1.117082	-0.081997
C84	C	-0.404880	-0.783748	0.251336
C85	C	-0.948988	-1.449998	-0.415146
C86	C	-0.615654	-1.116664	-0.081812
C87	C	-0.282321	-0.783331	0.251521
C88	C	-0.948541	-1.501749	-0.279503
C89	C	-0.615207	-1.168416	0.053830
C90	C	-0.281874	-0.835082	0.387163
C91	C	-1.071139	-1.501251	-0.279853
C92	C	-0.737806	-1.167918	0.053481
C93	C	-0.404472	-0.834584	0.386814
C94	C	-1.071049	-1.644279	-0.377836
C95	C	-0.737716	-1.310946	-0.044503
C96	C	-0.404383	-0.977612	0.288831
C97	C	-0.948443	-1.643591	-0.379548
C98	C	-0.615109	-1.310257	-0.046214
C99	C	-0.281776	-0.976924	0.287119
C100	C	-0.234194	-1.532101	-0.357785
C101	C	0.099140	-1.198768	-0.024452
C102	C	0.432473	-0.865435	0.308882
C103	C	-0.116364	-1.532147	-0.357796
C104	C	0.216970	-1.198813	-0.024463
C105	C	0.550303	-0.865480	0.308870
C106	C	-0.510649	-1.532041	-0.551464
C107	C	-0.177315	-1.198707	-0.218131
C108	C	0.156018	-0.865374	0.115203
C109	C	-0.510627	-1.532060	-0.634010
C110	C	-0.177294	-1.198727	-0.300676
C111	C	0.156040	-0.865394	0.032657
C112	C	-0.510718	-0.808500	-0.357764
C113	C	-0.177384	-0.475167	-0.024431
C114	C	0.155949	-0.141833	0.308902
C115	C	-0.510733	-0.926330	-0.357767
C116	C	-0.177399	-0.592997	-0.024433
C117	C	0.155934	-0.259663	0.308900
C118	C	-0.581318	-1.461289	-0.882827
C119	C	-0.247985	-1.127955	-0.549494
C120	C	0.085349	-0.794622	-0.216160
C121	C	-0.484627	-1.435377	-0.833435
C122	C	-0.151293	-1.102043	-0.500101
C123	C	0.182040	-0.768710	-0.166768
C124	C	-0.510471	-1.532150	-0.931130
C125	C	-0.177138	-1.198816	-0.597797
C126	C	0.156195	-0.865483	-0.264464
C127	C	-0.607234	-1.557967	-0.833441
C128	C	-0.273901	-1.224634	-0.500107
C129	C	0.059433	-0.891301	-0.166774
C130	C	-0.510553	-1.532103	-0.785145
C131	C	-0.177220	-1.198770	-0.451812
C132	C	0.156114	-0.865436	-0.118478
C133	C	-0.413728	-1.506188	-0.882825
C134	C	-0.080395	-1.172855	-0.549492
C135	C	0.252938	-0.839521	-0.216159
C136	C	-0.536401	-1.628824	-0.882836
C137	C	-0.203067	-1.295491	-0.549502
C138	C	0.130266	-0.962157	-0.216169
C139	C	-0.439643	-1.602949	-0.833466
C140	C	-0.106309	-1.269615	-0.500132
C141	C	0.227024	-0.936282	-0.166799
C142	C	-0.510426	-1.532174	-1.015229
C143	C	-0.177092	-1.198841	-0.681895
C144	C	0.156241	-0.865507	-0.348562
C145	C	-0.510588	-1.532079	-0.701049
C146	C	-0.177254	-1.198746	-0.367715
C147	C	0.156079	-0.865412	-0.034382
C148	C	-0.510673	-1.532010	-0.164806
C149	C	-0.177339	-1.198677	0.168527
C150	C	0.155994	-0.865343	0.501861
C151	C	-0.510396	-1.532196	-0.082261
C152	C	-0.177062	-1.198863	0.251073
C153	C	0.156271	-0.865529	0.584406
H154	H	-0.676116	-0.941955	-0.401371
H155	H	-0.342782	-0.608621	-0.068038
H156	H	-0.009449	-0.275288	0.265295
H157	H	-1.100029	-1.705171	-0.335931
H158	H	-0.766696	-1.371838	-0.002598
H159	H	-0.433363	-1.038504	0.330735
F160	F	-1.108642	-1.394112	-0.257663
F161	F	-0.775309	-1.060779	0.075671
F162	F	-0.441976	-0.727445	0.409004
H163	H	-0.379696	-1.662854	-0.811930
H164	H	-0.046363	-1.329521	-0.478596
H165	H	0.286971	-0.996187	-0.145263
H166	H	-0.621527	-0.940068	-0.261887
H167	H	-0.288193	-0.606734	0.071446
H168	H	0.045140	-0.273401	0.404780
H169	H	-0.689031	-1.579825	-0.811749
H170	H	-0.355698	-1.246492	-0.478416
H171	H	-0.022364	-0.913158	-0.145082
H172	H	-0.675298	-1.124650	-0.401705
H173	H	-0.341964	-0.791317	-0.068372
H174	H	-0.008631	-0.457984	0.264961
H175	H	-0.918843	-1.468912	-0.473179
H176	H	-0.585509	-1.135578	-0.139845
H177	H	-0.252176	-0.802245	0.193488
F178	F	-0.369897	-0.933001	-0.455252
F179	F	-0.036564	-0.599667	-0.121918
F180	F	0.296770	-0.266334	0.211415
F181	F	-0.659484	-1.382932	-0.911159
F182	F	-0.326151	-1.049599	-0.577826
F183	F	0.007183	-0.716265	-0.244493
F184	F	-0.565068	-1.735679	-0.911223
F185	F	-0.231734	-1.402346	-0.577889
F186	F	0.101599	-1.069013	-0.244556
F187	F	-1.110004	-1.474904	-0.491435
F188	F	-0.776671	-1.141571	-0.158102
F189	F	-0.443338	-0.808238	0.175232
F190	F	-1.111954	-1.342440	-0.398213
F191	F	-0.778621	-1.009106	-0.064879
F192	F	-0.445287	-0.675773	0.268454
F193	F	-0.568753	-1.132465	-0.491231
F194	F	-0.235419	-0.799132	-0.157897
F195	F	0.097914	-0.465798	0.175436
H196	H	-0.917928	-1.420634	-0.262219
H197	H	-0.584595	-1.087301	0.071114
H198	H	-0.251261	-0.753968	0.404447
H199	H	-0.622994	-1.121960	-0.262512
H200	H	-0.289661	-0.788627	0.070821
H201	H	0.043672	-0.455293	0.404154
H202	H	-0.482608	-0.941659	-0.235544
H203	H	-0.149275	-0.608326	0.097789
H204	H	0.184058	-0.274992	0.431122
H205	H	-0.334932	-0.940362	-0.341218
H206	H	-0.001599	-0.607029	-0.007884
H207	H	0.331735	-0.273696	0.325449
F208	F	-0.466369	-1.132187	-0.222009
F209	F	-0.133036	-0.798854	0.111325
F210	F	0.200297	-0.465521	0.444658
H211	H	-0.331908	-1.484239	-0.904427
H212	H	0.001426	-1.150905	-0.571094
H213	H	0.334759	-0.817572	-0.237760
H214	H	-0.574497	-0.941248	-0.472986
H215	H	-0.241164	-0.607915	-0.139653
H216	H	0.092169	-0.274582	0.193680
F217	F	-0.363069	-1.134032	-0.451577
F218	F	-0.029736	-0.800699	-0.118243
F219	F	0.303598	-0.467365	0.215090
F220	F	-0.455994	-1.328491	-0.805072
F221	F	-0.122660	-0.995158	-0.471739
F222	F	0.210673	-0.661825	-0.138406
F223	F	-0.318772	-1.131506	-0.323607
F224	F	0.014561	-0.798172	0.009726
F225	F	0.347895	-0.464839	0.343060
H226	H	-0.919752	-1.366868	-0.401870
H227	H	-0.586419	-1.033534	-0.068536
H228	H	-0.253086	-0.700201	0.264797
H229	H	-1.100788	-1.558198	-0.235523
H230	H	-0.767455	-1.224865	0.097810
H231	H	-0.434121	-0.891532	0.431143
H232	H	-0.919374	-1.559392	-0.235464
H233	H	-0.586041	-1.226058	0.097869
H234	H	-0.252707	-0.892725	0.431202
F235	F	-1.111374	-1.680330	-0.451164
F236	F	-0.778041	-1.346997	-0.117830
F237	F	-0.444708	-1.013663	0.215503
F238	F	-0.910354	-1.673394	-0.454834
F239	F	-0.577021	-1.340061	-0.121500
F240	F	-0.243687	-1.006728	0.211833
H241	H	-0.917785	-1.707691	-0.340694
H242	H	-0.584451	-1.374357	-0.007360
H243	H	-0.251118	-1.041024	0.325973
