data_functionalizedCrystal
_audit_creation_method	'MofGen! by Chris Wilmer'
_symmetry_space_group_name_H-M	'P1'
_symmetry_Int_Tables_number	1
_symmetry_cell_setting	triclinic
loop_
_symmetry_equiv_pos_as_xyz
  x,y,z
_cell_length_a	21.395362
_cell_length_b	19.805405
_cell_length_c	21.395355
_cell_angle_alpha	90.017223
_cell_angle_beta	90.043940
_cell_angle_gamma	90.042604
loop_
_atom_site_label
_atom_site_type_symbol
_atom_site_fract_x
_atom_site_fract_y
_atom_site_fract_z
Zn1	Zn	0.957877	-0.269255	0.354591
Zn2	Zn	1.457877	0.230745	0.854591
Zn3	Zn	0.957787	-0.382425	0.249816
Zn4	Zn	1.457787	0.117575	0.749816
Zn5	Zn	0.853092	-0.269286	0.249793
Zn6	Zn	1.353092	0.230714	0.749793
Zn7	Zn	0.853068	-0.382438	0.354521
Zn8	Zn	1.353068	0.117562	0.854521
O9	O	0.905456	-0.325851	0.302180
O10	O	1.405456	0.174149	0.802180
O11	O	1.045543	-0.284248	0.340732
O12	O	1.545543	0.215752	0.840732
O13	O	0.943871	-0.367424	0.162135
O14	O	1.443871	0.132576	0.662135
O15	O	0.867039	-0.174565	0.263714
O16	O	1.367039	0.325435	0.763714
O17	O	1.045476	-0.367393	0.263754
O18	O	1.545476	0.132607	0.763754
O19	O	0.944024	-0.174542	0.340709
O20	O	1.444024	0.325458	0.840709
O21	O	0.866952	-0.284302	0.162118
O22	O	1.366952	0.215698	0.662118
O23	O	0.765411	-0.284315	0.263646
O24	O	1.265411	0.215685	0.763646
O25	O	0.866999	-0.367417	0.442208
O26	O	1.366999	0.132583	0.942208
O27	O	0.765393	-0.367448	0.340589
O28	O	1.265393	0.132552	0.840589
O29	O	0.944002	-0.284261	0.442260
O30	O	1.444002	0.215739	0.942260
O31	O	0.943848	-0.477143	0.263686
O32	O	1.443848	0.022857	0.763686
O33	O	0.866912	-0.477153	0.340612
O34	O	1.366912	0.022847	0.840612
C35	C	0.742668	-0.325887	0.302107
C36	C	1.242668	0.174113	0.802107
C37	C	0.673027	-0.325918	0.302091
C38	C	1.173027	0.174082	0.802091
C39	C	0.640321	-0.369263	0.342096
C40	C	1.140321	0.130737	0.842096
C41	C	0.574886	-0.369246	0.342124
C42	C	1.074886	0.130754	0.842124
C43	C	0.542159	-0.325892	0.302136
C44	C	1.042159	0.174108	0.802136
C45	C	0.574872	-0.282539	0.262129
C46	C	1.074872	0.217461	0.762129
C47	C	0.640306	-0.282553	0.262106
C48	C	1.140306	0.217447	0.762106
C49	C	0.438434	-0.320440	0.245731
C50	C	0.938434	0.179560	0.745731
C51	C	0.373001	-0.320431	0.245752
C52	C	0.873001	0.179569	0.745752
C53	C	0.340338	-0.325848	0.302205
C54	C	0.840338	0.174152	0.802205
C55	C	0.373116	-0.331287	0.358639
C56	C	0.873116	0.168713	0.858639
C57	C	0.438550	-0.331301	0.358616
C58	C	0.938550	0.168699	0.858616
C59	C	0.471206	-0.325873	0.302156
C60	C	0.971206	0.174127	0.802156
C61	C	0.236680	-0.369177	0.342243
C62	C	0.736680	0.130823	0.842243
C63	C	0.171243	-0.369156	0.342272
C64	C	0.671243	0.130844	0.842272
C65	C	0.171231	-0.282452	0.262272
C66	C	0.671231	0.217548	0.762272
C67	C	0.236666	-0.282470	0.262248
C68	C	0.736666	0.217530	0.762248
C69	C	0.269387	-0.325836	0.302233
C70	C	0.769387	0.174164	0.802233
C71	C	0.905384	-0.501707	0.302157
C72	C	1.405384	-0.001707	0.802157
C73	C	0.905411	-0.576939	0.302169
C74	C	1.405411	-0.076939	0.802169
C75	C	0.945474	-0.612213	0.342292
C76	C	1.445474	-0.112213	0.842292
C77	C	0.945496	-0.682901	0.342303
C78	C	1.445496	-0.182901	0.842303
C79	C	0.905459	-0.718315	0.302188
C80	C	1.405459	-0.218315	0.802188
C81	C	0.865392	-0.683036	0.262064
C82	C	1.365392	-0.183036	0.762064
C83	C	0.865367	-0.612349	0.262056
C84	C	1.365367	-0.112349	0.762056
C85	C	0.865493	-0.968109	0.262096
C86	C	1.365493	-0.468109	0.762096
C87	C	0.865523	-1.038801	0.262106
C88	C	1.365523	-0.538801	0.762106
C89	C	0.945622	-1.038662	0.342343
C90	C	1.445622	-0.538662	0.842343
C91	C	0.945597	-0.967975	0.342335
C92	C	1.445597	-0.467975	0.842335
C93	C	0.905528	-0.932702	0.302213
C94	C	1.405528	-0.432702	0.802213
C95	C	0.905503	-0.856053	0.302202
C96	C	1.405503	-0.356053	0.802202
C97	C	0.905487	-0.794962	0.302196
C98	C	1.405487	-0.294962	0.802196
C99	C	1.068879	-0.325816	0.302253
C100	C	1.568879	0.174184	0.802253
C101	C	1.138520	-0.325800	0.302285
C102	C	1.638520	0.174200	0.802285
C103	C	0.905508	-0.325837	0.465604
C104	C	1.405508	0.174163	0.965604
C105	C	0.905530	-0.325831	0.535245
C106	C	1.405530	0.174169	1.035245
C107	C	0.905545	-0.149308	0.302217
C108	C	1.405545	0.350692	0.802217
C109	C	0.905582	-0.074076	0.302232
C110	C	1.405582	0.425924	0.802232
C111	C	0.905440	-0.325816	0.139393
C112	C	1.405440	0.174184	0.639393
C113	C	0.905539	-0.325631	0.069752
C114	C	1.405539	0.174369	0.569752
C115	C	0.945623	-0.282530	0.567986
C116	C	1.445623	0.217470	1.067986
C117	C	0.945623	-0.282501	0.633421
C118	C	1.445623	0.217499	1.133421
C119	C	0.905535	-0.325785	0.666113
C120	C	1.405535	0.174215	1.166113
C121	C	0.865434	-0.369089	0.633364
C122	C	1.365434	0.130911	1.133364
C123	C	0.865431	-0.369112	0.567930
C124	C	1.365431	0.130888	1.067930
C125	C	0.900563	-0.386731	0.769778
C126	C	1.400563	0.113269	1.269778
C127	C	0.900570	-0.386709	0.835211
C128	C	1.400570	0.113291	1.335211
C129	C	0.905539	-0.325714	0.867934
C130	C	1.405539	0.174286	1.367934
C131	C	0.910514	-0.264738	0.835216
C132	C	1.410514	0.235262	1.335216
C133	C	0.910512	-0.264762	0.769782
C134	C	1.410512	0.235238	1.269782
C135	C	0.905533	-0.325765	0.737066
C136	C	1.405533	0.174235	1.237066
C137	C	0.945633	-0.282378	0.971628
C138	C	1.445633	0.217622	1.471628
C139	C	0.945628	-0.282347	1.037064
C140	C	1.445628	0.217653	1.537064
C141	C	0.865443	-0.368941	1.037006
C142	C	1.365443	0.131059	1.537006
C143	C	0.865445	-0.368966	0.971571
C144	C	1.365445	0.131034	1.471571
C145	C	0.905543	-0.325685	0.938885
C146	C	1.405543	0.174315	1.438885
H147	H	0.666935	-0.247254	0.229530
H148	H	1.166935	0.252746	0.729530
F149	F	0.822776	-0.720727	0.219376
F150	F	1.322776	-0.220727	0.719376
F151	F	0.822843	-0.930578	0.219399
F152	F	1.322843	-0.430578	0.719399
H153	H	0.144585	-0.247150	0.229716
H154	H	0.644585	0.252850	0.729716
F155	F	0.988212	-0.930289	0.385029
F156	F	1.488212	-0.430289	0.885029
H157	H	0.978270	-0.247237	0.660084
H158	H	1.478270	0.252763	1.160084
F159	F	0.895280	-0.451604	0.870027
F160	F	1.395280	0.048396	1.370027
F161	F	0.895288	-0.451657	0.734959
F162	F	1.395288	0.048343	1.234959
F163	F	0.473433	-0.337086	0.418676
F164	F	0.973433	0.162914	0.918676
F165	F	0.540041	-0.236397	0.219573
F166	F	1.040041	0.263603	0.719573
F167	F	0.988130	-0.720439	0.385014
F168	F	1.488130	-0.220439	0.885014
F169	F	0.822773	-0.415003	1.071795
F170	F	1.322773	0.084997	1.571795
H171	H	0.914561	-0.215070	0.861857
H172	H	1.414561	0.284930	1.361857
F173	F	0.338360	-0.337050	0.418726
F174	F	0.838360	0.162950	0.918726
F175	F	0.822907	-1.076489	0.219409
F176	F	1.322907	-0.576489	0.719409
H177	H	0.832743	-0.583629	0.229385
H178	H	1.332743	-0.083629	0.729385
H179	H	0.832779	-0.404372	0.541273
H180	H	1.332779	0.095628	1.041273
F181	F	0.473189	-0.314676	0.185641
F182	F	0.973189	0.185324	0.685641
F183	F	0.271506	-0.415327	0.384801
F184	F	0.771506	0.084673	0.884801
F185	F	0.915804	-0.199869	0.734963
F186	F	1.415804	0.300131	1.234963
F187	F	0.136435	-0.415288	0.384856
F188	F	0.636435	0.084712	0.884856
H189	H	0.666958	-0.404574	0.374656
H190	H	1.166958	0.095426	0.874656
H191	H	0.978246	-1.067389	0.375015
H192	H	1.478246	-0.567389	0.875015
F193	F	0.988298	-0.236464	0.533204
F194	F	1.488298	0.263536	1.033204
H195	H	0.263295	-0.247178	0.229669
H196	H	0.763295	0.252822	0.729669
F197	F	0.988307	-0.236312	0.936839
F198	F	1.488307	0.263688	1.436839
H199	H	0.346318	-0.316007	0.199800
H200	H	0.846318	0.183993	0.699800
F201	F	0.822773	-0.415055	0.936724
F202	F	1.322773	0.084945	1.436724
F203	F	0.988311	-0.236266	1.071910
F204	F	1.488311	0.263734	1.571910
H205	H	0.548252	-0.404542	0.374702
H206	H	1.048252	0.095458	0.874702
H207	H	0.832792	-0.404329	0.659986
H208	H	1.332792	0.095671	1.159986
F209	F	0.988091	-0.574530	0.384985
F210	F	1.488091	-0.074530	0.884985
