data_functionalizedCrystal
_audit_creation_method	'MofGen! by Chris Wilmer'
_symmetry_space_group_name_H-M	'P1'
_symmetry_Int_Tables_number	1
_symmetry_cell_setting	triclinic
loop_
_symmetry_equiv_pos_as_xyz
  x,y,z
_cell_length_a	16.625539
_cell_length_b	10.686220
_cell_length_c	10.686285
_cell_angle_alpha	90.345431
_cell_angle_beta	94.392139
_cell_angle_gamma	85.649691
loop_
_atom_site_label
_atom_site_type_symbol
_atom_site_fract_x
_atom_site_fract_y
_atom_site_fract_z
Zn1	Zn	-0.342920	-1.956165	0.352082
Zn2	Zn	-0.197047	-1.972163	0.561874
Zn3	Zn	-0.217581	-1.746396	0.368240
Zn4	Zn	-0.341319	-1.762490	0.577904
O5	O	-0.274716	-1.859304	0.465025
O6	O	-0.315646	-2.133825	0.366441
O7	O	-0.086937	-1.942175	0.536241
O8	O	-0.243471	-1.760791	0.190553
O9	O	-0.208473	-2.145579	0.520574
O10	O	-0.335557	-1.914907	0.178682
O11	O	-0.102024	-1.776305	0.393979
O12	O	-0.241918	-1.572993	0.409522
O13	O	-0.454364	-1.788221	0.547894
O14	O	-0.332828	-1.584817	0.563562
O15	O	-0.455540	-1.930513	0.381984
O16	O	-0.206921	-1.957781	0.739544
O17	O	-0.312917	-1.803735	0.751321
C18	C	-0.257533	-1.884274	0.790946
C19	C	-0.250204	-1.895072	0.930368
C20	C	-0.289428	-1.533390	0.490036
C21	C	-0.295739	-1.393965	0.500766
C22	C	-0.485027	-1.859378	0.464925
C23	C	-0.574648	-1.859410	0.464883
C24	C	-0.902829	-1.859457	0.464738
C25	C	-0.811519	-1.859440	0.464782
C26	C	-0.738741	-1.859434	0.464811
C27	C	-0.647426	-1.859416	0.464854
C28	C	-0.065226	-1.859295	0.465028
C29	C	0.024388	-1.859479	0.464699
C30	C	-0.259948	-2.186490	0.439917
C31	C	-0.253654	-2.325917	0.429218
C32	C	-0.291983	-1.834270	0.137828
C33	C	-0.299341	-1.823601	-0.001604
H34	H	-0.212794	-1.374322	0.359755
H35	H	-0.336597	-1.345554	0.570241
H36	H	-0.347018	-1.754154	0.949977
Cl37	Cl	-0.176580	-2.002288	1.005127
