data_functionalizedCrystal
_audit_creation_method	'MofGen! by Chris Wilmer'
_symmetry_space_group_name_H-M	'P1'
_symmetry_Int_Tables_number	1
_symmetry_cell_setting	triclinic
loop_
_symmetry_equiv_pos_as_xyz
  x,y,z
_cell_length_a	18.050591
_cell_length_b	18.050589
_cell_length_c	18.215399
_cell_angle_alpha	90.023603
_cell_angle_beta	90.024537
_cell_angle_gamma	90.024669
loop_
_atom_site_label
_atom_site_type_symbol
_atom_site_fract_x
_atom_site_fract_y
_atom_site_fract_z
Zn1	Zn	1.135328	-0.295737	0.416230
Zn2	Zn	1.468661	0.037596	0.749564
Zn3	Zn	1.801994	0.370929	1.082897
Zn4	Zn	1.135228	-0.419932	0.293173
Zn5	Zn	1.468561	-0.086599	0.626507
Zn6	Zn	1.801895	0.246734	0.959840
Zn7	Zn	1.011136	-0.295753	0.293168
Zn8	Zn	1.344470	0.037580	0.626501
Zn9	Zn	1.677803	0.370914	0.959834
Zn10	Zn	1.011095	-0.419882	0.416188
Zn11	Zn	1.344428	-0.086549	0.749522
Zn12	Zn	1.677761	0.246784	1.082855
O13	O	1.073197	-0.357826	0.354690
O14	O	1.406530	-0.024493	0.688023
O15	O	1.739863	0.308840	1.021357
O16	O	1.239239	-0.312227	0.399927
O17	O	1.572572	0.021107	0.733260
O18	O	1.905906	0.354440	1.066593
O19	O	1.118743	-0.403487	0.190188
O20	O	1.452076	-0.070154	0.523522
O21	O	1.785409	0.263179	0.856855
O22	O	1.027670	-0.191826	0.309507
O23	O	1.361003	0.141507	0.642841
O24	O	1.694336	0.474840	0.976174
O25	O	1.239166	-0.403472	0.309517
O26	O	1.572499	-0.070139	0.642851
O27	O	1.905832	0.263195	0.976184
O28	O	1.118912	-0.191815	0.399921
O29	O	1.452246	0.141518	0.733254
O30	O	1.785579	0.474852	1.066588
O31	O	1.027573	-0.312253	0.190184
O32	O	1.360906	0.021080	0.523517
O33	O	1.694240	0.354413	0.856851
O34	O	0.907206	-0.312205	0.309467
O35	O	1.240540	0.021129	0.642800
O36	O	1.573873	0.354462	0.976133
O37	O	1.027599	-0.403387	0.519178
O38	O	1.360932	-0.070054	0.852512
O39	O	1.694265	0.263280	1.185845
O40	O	0.907176	-0.403402	0.399849
O41	O	1.240509	-0.070069	0.733183
O42	O	1.573842	0.263265	1.066516
O43	O	1.118872	-0.312178	0.519209
O44	O	1.452205	0.021155	0.852542
O45	O	1.785539	0.354489	1.185876
O46	O	1.118702	-0.523850	0.309476
O47	O	1.452036	-0.190517	0.642810
O48	O	1.785369	0.142816	0.976143
O49	O	1.027502	-0.523814	0.399855
O50	O	1.360835	-0.190480	0.733188
O51	O	1.694169	0.142853	1.066522
C52	C	0.880245	-0.357800	0.354653
C53	C	1.213578	-0.024467	0.687986
C54	C	1.546911	0.308867	1.021320
C55	C	0.797699	-0.357807	0.354655
C56	C	1.131032	-0.024474	0.687988
C57	C	1.464365	0.308860	1.021322
C58	C	0.548868	-0.308162	0.305621
C59	C	0.882202	0.025171	0.638954
C60	C	1.215535	0.358504	0.972288
C61	C	0.598306	-0.290075	0.372783
C62	C	0.931639	0.043258	0.706116
C63	C	1.264973	0.376592	1.039449
C64	C	0.500578	-0.357845	0.354715
C65	C	0.833912	-0.024511	0.688048
C66	C	1.167245	0.308822	1.021382
C67	C	0.598222	-0.375879	0.287528
C68	C	0.931556	-0.042545	0.620861
C69	C	1.264889	0.290788	0.954194
C70	C	0.646563	-0.357824	0.354682
C71	C	0.979897	-0.024491	0.688015
C72	C	1.313230	0.308842	1.021349
C73	C	0.548929	-0.339722	0.421912
C74	C	0.882262	-0.006389	0.755246
C75	C	1.215595	0.326944	1.088579
C76	C	0.548841	-0.425557	0.336612
C77	C	0.882174	-0.092224	0.669946
C78	C	1.215508	0.241109	1.003279
C79	C	0.598256	-0.407496	0.403820
C80	C	0.931590	-0.074162	0.737153
C81	C	1.264923	0.259171	1.070487
C82	C	0.416480	-0.357855	0.354733
C83	C	0.749813	-0.024521	0.688067
C84	C	1.083147	0.308812	1.021400
C85	C	0.730660	-0.357815	0.354671
C86	C	1.063993	-0.024481	0.688005
C87	C	1.397327	0.308852	1.021338
C88	C	1.073107	-0.550778	0.354678
C89	C	1.406440	-0.217445	0.688011
C90	C	1.739774	0.115888	1.021344
C91	C	1.073137	-0.633324	0.354697
C92	C	1.406470	-0.299991	0.688030
C93	C	1.739803	0.033342	1.021364
C94	C	1.023591	-0.832782	0.403828
C95	C	1.356924	-0.499449	0.737161
C96	C	1.690257	-0.166115	1.070494
C97	C	1.005487	-0.882221	0.336672
C98	C	1.338821	-0.548888	0.670005
C99	C	1.672154	-0.215554	1.003339
C100	C	1.073210	-0.784455	0.354707
C101	C	1.406543	-0.451121	0.688040
C102	C	1.739876	-0.117788	1.021373
C103	C	1.091350	-0.882097	0.421870
C104	C	1.424683	-0.548764	0.755203
C105	C	1.758016	-0.215430	1.088537
C106	C	1.073279	-0.930440	0.354722
C107	C	1.406612	-0.597106	0.688055
C108	C	1.739945	-0.263773	1.021389
C109	C	1.055070	-0.832807	0.287515
C110	C	1.388404	-0.499473	0.620849
C111	C	1.721737	-0.166140	0.954182
C112	C	1.140964	-0.832678	0.372759
C113	C	1.474298	-0.499345	0.706092
C114	C	1.807631	-0.166011	1.039425
C115	C	1.122886	-0.882095	0.305557
C116	C	1.456220	-0.548762	0.638890
C117	C	1.789553	-0.215428	0.972224
C118	C	1.073168	-0.700356	0.354699
C119	C	1.406501	-0.367023	0.688032
C120	C	1.739835	-0.033690	1.021366
C121	C	1.073320	-1.014536	0.354722
C122	C	1.406654	-0.681203	0.688055
C123	C	1.739987	-0.347869	1.021389
C124	C	1.266902	-0.357853	0.354727
C125	C	1.600236	-0.024520	0.688061
C126	C	1.933569	0.308814	1.021394
C127	C	1.349448	-0.357865	0.354743
C128	C	1.682781	-0.024531	0.688077
C129	C	2.016115	0.308802	1.021410
C130	C	1.073242	-0.357775	0.546643
C131	C	1.406575	-0.024442	0.879976
C132	C	1.739909	0.308892	1.213310
C133	C	1.073261	-0.357753	0.628442
C134	C	1.406595	-0.024420	0.961775
C135	C	1.739928	0.308913	1.295109
C136	C	1.073307	-0.164121	0.354718
C137	C	1.406640	0.169213	0.688052
C138	C	1.739974	0.502546	1.021385
C139	C	1.073354	-0.081575	0.354730
C140	C	1.406687	0.251758	0.688064
C141	C	1.740021	0.585092	1.021397
C142	C	1.073194	-0.357824	0.163484
C143	C	1.406528	-0.024490	0.496817
C144	C	1.739861	0.308843	0.830150
C145	C	1.073319	-0.357636	0.081685
C146	C	1.406652	-0.024303	0.415019
C147	C	1.739986	0.309030	0.748352
C148	C	1.120804	-0.310216	0.816653
C149	C	1.454138	0.023117	1.149987
C150	C	1.787471	0.356450	1.483320
C151	C	1.120813	-0.310195	0.893512
C152	C	1.454146	0.023139	1.226845
C153	C	1.787480	0.356472	1.560179
C154	C	1.025771	-0.405175	0.893469
C155	C	1.359104	-0.071842	1.226802
C156	C	1.692437	0.261491	1.560135
C157	C	1.025759	-0.405193	0.816611
C158	C	1.359092	-0.071859	1.149944
C159	C	1.692425	0.261474	1.483278
C160	C	1.073280	-0.357714	0.778205
C161	C	1.406613	-0.024381	1.111539
C162	C	1.739946	0.308952	1.444872
C163	C	1.073301	-0.357675	0.931922
C164	C	1.406634	-0.024342	1.265255
C165	C	1.739967	0.308991	1.598588
C166	C	1.073310	-0.357652	1.015255
C167	C	1.406643	-0.024319	1.348589
C168	C	1.739976	0.309014	1.681922
C169	C	1.073270	-0.357736	0.694866
C170	C	1.406603	-0.024403	1.028200
C171	C	1.739936	0.308930	1.361533
H172	H	0.527365	-0.324394	0.478734
H173	H	0.860699	0.008939	0.812067
H174	H	1.194032	0.342273	1.145401
H175	H	1.039689	-0.811245	0.230707
H176	H	1.373022	-0.477911	0.564040
H177	H	1.706355	-0.144578	0.897373
Br178	Br	0.634319	-0.401316	0.192850
Br179	Br	0.967652	-0.067982	0.526184
Br180	Br	1.300985	0.265351	0.859517
H181	H	1.159511	-0.271516	0.924813
H182	H	1.492845	0.061817	1.258146
H183	H	1.826178	0.395151	1.591479
H184	H	0.987082	-0.443832	0.924748
H185	H	1.320416	-0.110499	1.258081
H186	H	1.653749	0.222835	1.591414
Br187	Br	1.116875	-0.918190	0.516527
Br188	Br	1.450208	-0.584857	0.849860
Br189	Br	1.783541	-0.251524	1.183193
H190	H	0.987053	-0.443871	0.785306
H191	H	1.320386	-0.110537	1.118639
H192	H	1.653720	0.222796	1.451973
Br193	Br	0.634172	-0.477513	0.473070
Br194	Br	0.967505	-0.144180	0.806403
Br195	Br	1.300838	0.189154	1.139736
Br196	Br	0.512723	-0.238101	0.236531
Br197	Br	0.846056	0.095232	0.569865
Br198	Br	1.179389	0.428565	0.903198
Br199	Br	0.634510	-0.194618	0.398297
Br200	Br	0.967843	0.138716	0.731630
Br201	Br	1.301177	0.472049	1.064963
H202	H	0.948222	-0.903999	0.321417
H203	H	1.281555	-0.570666	0.654751
H204	H	1.614888	-0.237332	0.988084
H205	H	1.164877	-0.903611	0.263975
H206	H	1.498210	-0.570278	0.597309
H207	H	1.831544	-0.236945	0.930642
H208	H	0.981568	-0.811128	0.445309
H209	H	1.314901	-0.477795	0.778642
H210	H	1.648235	-0.144462	1.111976
H211	H	1.198217	-0.810902	0.388046
H212	H	1.531550	-0.477569	0.721379
H213	H	1.864883	-0.144235	1.054712
H214	H	0.527098	-0.482813	0.321290
H215	H	0.860431	-0.149480	0.654624
H216	H	1.193765	0.183854	0.987957
H217	H	1.159497	-0.271555	0.785386
H218	H	1.492830	0.061779	1.118719
H219	H	1.826164	0.395112	1.452052
