data_functionalizedCrystal
_audit_creation_method	'MofGen! by Chris Wilmer'
_symmetry_space_group_name_H-M	'P1'
_symmetry_Int_Tables_number	1
_symmetry_cell_setting	triclinic
loop_
_symmetry_equiv_pos_as_xyz
  x,y,z
_cell_length_a	18.215407
_cell_length_b	18.050589
_cell_length_c	18.215399
_cell_angle_alpha	89.976397
_cell_angle_beta	89.980167
_cell_angle_gamma	90.028669
loop_
_atom_site_label
_atom_site_type_symbol
_atom_site_fract_x
_atom_site_fract_y
_atom_site_fract_z
Zn1	Zn	1.125055	-0.295658	-0.416138
Zn2	Zn	1.124956	-0.419853	-0.293081
Zn3	Zn	1.001987	-0.295682	-0.293085
Zn4	Zn	1.001946	-0.419812	-0.416106
O5	O	1.063486	-0.357751	-0.354603
O6	O	1.228026	-0.312140	-0.399826
O7	O	1.108620	-0.403409	-0.190097
O8	O	1.018371	-0.191755	-0.309424
O9	O	1.227953	-0.403386	-0.309417
O10	O	1.108788	-0.191737	-0.399830
O11	O	1.018275	-0.312181	-0.190101
O12	O	0.898998	-0.312141	-0.309393
O13	O	1.018301	-0.403315	-0.519095
O14	O	0.898967	-0.403339	-0.399775
O15	O	1.108748	-0.312100	-0.519118
O16	O	1.108580	-0.523772	-0.309385
O17	O	1.018205	-0.523742	-0.399771
C18	C	0.872280	-0.357739	-0.354582
C19	C	0.790481	-0.357751	-0.354590
C20	C	1.063397	-0.550704	-0.354590
C21	C	1.063427	-0.633249	-0.354610
C22	C	0.602291	-0.405312	-0.401593
C23	C	0.525432	-0.405315	-0.401602
C24	C	0.525434	-0.310204	-0.307628
C25	C	0.602291	-0.310199	-0.307623
C26	C	0.640718	-0.357757	-0.354605
C27	C	0.487001	-0.357765	-0.354619
C28	C	0.403668	-0.357767	-0.354628
C29	C	0.724056	-0.357754	-0.354596
C30	C	1.014329	-0.832710	-0.403744
C31	C	0.996389	-0.882151	-0.336590
C32	C	1.063499	-0.784380	-0.354619
C33	C	1.081475	-0.882021	-0.421781
C34	C	1.063567	-0.930365	-0.354635
C35	C	1.045524	-0.832733	-0.287430
C36	C	1.130641	-0.832599	-0.372666
C37	C	1.112726	-0.882017	-0.305466
C38	C	1.063458	-0.700281	-0.354612
C39	C	1.063609	-1.014461	-0.354635
C40	C	1.255439	-0.357765	-0.354624
C41	C	1.337238	-0.357770	-0.354634
C42	C	1.063531	-0.357700	-0.546556
C43	C	1.063550	-0.357678	-0.628355
C44	C	1.063595	-0.164046	-0.354631
C45	C	1.063642	-0.081500	-0.354643
C46	C	1.110663	-0.310138	-0.816562
C47	C	1.110672	-0.310117	-0.893421
C48	C	1.016489	-0.405104	-0.893385
C49	C	1.016477	-0.405121	-0.816528
C50	C	1.063568	-0.357639	-0.778118
C51	C	1.063589	-0.357600	-0.931834
C52	C	1.063598	-0.357577	-1.015168
C53	C	1.063558	-0.357661	-0.694779
C54	C	1.063484	-0.357749	-0.163396
C55	C	1.063607	-0.357561	-0.081598
H56	H	0.633575	-0.444035	-0.439850
H57	H	0.494148	-0.444038	-0.439866
C58	C	0.954896	-0.829265	-0.191748
C59	C	1.024943	-0.803637	-0.210739
H60	H	0.942193	-0.811305	-0.144402
H61	H	0.920170	-0.811985	-0.226661
H62	H	0.954826	-0.881891	-0.191289
H63	H	1.025012	-0.751011	-0.211203
H64	H	1.059678	-0.820913	-0.175817
C65	C	0.923029	-0.863315	-0.493827
C66	C	0.958117	-0.803476	-0.459746
H67	H	0.888322	-0.845264	-0.528393
H68	H	0.958443	-0.892941	-0.518359
H69	H	0.898514	-0.892313	-0.457839
H70	H	0.982636	-0.774480	-0.495734
H71	H	0.922697	-0.773837	-0.435213
C72	C	0.920815	-0.989104	-0.315565
C73	C	0.919782	-0.911539	-0.315985
H74	H	0.873520	-1.007243	-0.302844
H75	H	0.933894	-1.006698	-0.362930
H76	H	0.955724	-1.005972	-0.280627
H77	H	0.884876	-0.894671	-0.350927
H78	H	0.906693	-0.893938	-0.268613
H79	H	1.187375	-0.810819	-0.387948
H80	H	1.154337	-0.903530	-0.263881
C81	C	1.146597	-0.184360	-0.917099
C82	C	1.162443	-0.257902	-0.935675
H83	H	1.178563	-0.152124	-0.943181
H84	H	1.097165	-0.173490	-0.929692
H85	H	1.153328	-0.177590	-0.865826
H86	H	1.155706	-0.264673	-0.986947
H87	H	1.211887	-0.268776	-0.923087
C88	C	0.438965	-0.299765	-0.208659
C89	C	0.483192	-0.257934	-0.255985
H90	H	0.412892	-0.267494	-0.176773
H91	H	0.405083	-0.328082	-0.236644
H92	H	0.468931	-0.332080	-0.180454
H93	H	0.453225	-0.225623	-0.284193
H94	H	0.517078	-0.229604	-0.227996
C95	C	0.974692	-0.447258	-1.011187
C96	C	0.964734	-0.457300	-0.935608
H97	H	0.942743	-0.479487	-1.037250
H98	H	0.963948	-0.397363	-1.023787
H99	H	1.024138	-0.458126	-1.023781
H100	H	0.915290	-0.446426	-0.923012
H101	H	0.975473	-0.507206	-0.923003
C102	C	1.113932	-0.851405	-0.545909
C103	C	1.101971	-0.911248	-0.498446
H104	H	1.126585	-0.869448	-0.593237
H105	H	1.070496	-0.822502	-0.549188
H106	H	1.152835	-0.821685	-0.527495
H107	H	1.063064	-0.940965	-0.516857
H108	H	1.145412	-0.940163	-0.495169
C109	C	1.120922	-0.210262	-0.730151
C110	C	1.162416	-0.257939	-0.774341
H111	H	1.152873	-0.178038	-0.704084
H112	H	1.088882	-0.181854	-0.760134
H113	H	1.092878	-0.238564	-0.696255
H114	H	1.190456	-0.229638	-0.808241
H115	H	1.194469	-0.286351	-0.744355
C116	C	0.720111	-0.267958	-0.265893
C117	C	0.644537	-0.257922	-0.255970
H118	H	0.746191	-0.235680	-0.234010
H119	H	0.732676	-0.317835	-0.255037
H120	H	0.732721	-0.257150	-0.315360
H121	H	0.631926	-0.268734	-0.206504
H122	H	0.631967	-0.208032	-0.266820
C123	C	0.923386	-0.499021	-0.824206
C124	C	0.964710	-0.457342	-0.774264
H125	H	0.891432	-0.531260	-0.798113
H126	H	0.895257	-0.466659	-0.854182
H127	H	0.955447	-0.527422	-0.854186
H128	H	0.932649	-0.428937	-0.744288
H129	H	0.992841	-0.489708	-0.744276
