data_functionalizedCrystal
_audit_creation_method	'MofGen! by Chris Wilmer'
_symmetry_space_group_name_H-M	'P1'
_symmetry_Int_Tables_number	1
_symmetry_cell_setting	triclinic
loop_
_symmetry_equiv_pos_as_xyz
  x,y,z
_cell_length_a	21.395362
_cell_length_b	19.805405
_cell_length_c	21.395355
_cell_angle_alpha	89.980090
_cell_angle_beta	89.956060
_cell_angle_gamma	90.042288
loop_
_atom_site_label
_atom_site_type_symbol
_atom_site_fract_x
_atom_site_fract_y
_atom_site_fract_z
Zn1	Zn	0.957878	-0.269255	-0.354580
Zn2	Zn	1.207878	-0.019255	-0.104580
Zn3	Zn	1.457878	0.230745	0.145420
Zn4	Zn	1.707878	0.480745	0.395420
Zn5	Zn	0.957789	-0.382425	-0.249800
Zn6	Zn	1.207789	-0.132425	0.000200
Zn7	Zn	1.457789	0.117575	0.250200
Zn8	Zn	1.707789	0.367575	0.500200
Zn9	Zn	0.853093	-0.269286	-0.249781
Zn10	Zn	1.103093	-0.019286	0.000219
Zn11	Zn	1.353093	0.230714	0.250219
Zn12	Zn	1.603093	0.480714	0.500219
Zn13	Zn	0.853070	-0.382438	-0.354504
Zn14	Zn	1.103070	-0.132438	-0.104504
Zn15	Zn	1.353070	0.117562	0.145496
Zn16	Zn	1.603070	0.367562	0.395496
O17	O	0.905458	-0.325851	-0.302166
O18	O	1.155458	-0.075851	-0.052166
O19	O	1.405458	0.174149	0.197834
O20	O	1.655458	0.424149	0.447834
O21	O	1.045544	-0.284248	-0.340720
O22	O	1.295544	-0.034248	-0.090720
O23	O	1.545544	0.215752	0.159280
O24	O	1.795544	0.465752	0.409280
O25	O	0.943873	-0.367424	-0.162119
O26	O	1.193873	-0.117424	0.087881
O27	O	1.443873	0.132576	0.337881
O28	O	1.693873	0.382576	0.587881
O29	O	0.867040	-0.174565	-0.263706
O30	O	1.117040	0.075435	-0.013706
O31	O	1.367040	0.325435	0.236294
O32	O	1.617040	0.575435	0.486294
O33	O	1.045478	-0.367393	-0.263738
O34	O	1.295478	-0.117393	-0.013738
O35	O	1.545478	0.132607	0.236262
O36	O	1.795478	0.382607	0.486262
O37	O	0.944025	-0.174542	-0.340701
O38	O	1.194025	0.075458	-0.090701
O39	O	1.444025	0.325458	0.159299
O40	O	1.694025	0.575458	0.409299
O41	O	0.866953	-0.284302	-0.162105
O42	O	1.116953	-0.034302	0.087895
O43	O	1.366953	0.215698	0.337895
O44	O	1.616953	0.465698	0.587895
O45	O	0.765412	-0.284315	-0.263633
O46	O	1.015412	-0.034315	-0.013633
O47	O	1.265412	0.215685	0.236367
O48	O	1.515412	0.465685	0.486367
O49	O	0.867001	-0.367417	-0.442192
O50	O	1.117001	-0.117417	-0.192192
O51	O	1.367001	0.132583	0.057808
O52	O	1.617001	0.382583	0.307808
O53	O	0.765395	-0.367448	-0.340573
O54	O	1.015395	-0.117448	-0.090573
O55	O	1.265395	0.132552	0.159427
O56	O	1.515395	0.382552	0.409427
O57	O	0.944003	-0.284261	-0.442247
O58	O	1.194003	-0.034261	-0.192247
O59	O	1.444003	0.215739	0.057753
O60	O	1.694003	0.465739	0.307753
O61	O	0.943850	-0.477143	-0.263665
O62	O	1.193850	-0.227143	-0.013665
O63	O	1.443850	0.022857	0.236335
O64	O	1.693850	0.272857	0.486335
O65	O	0.866914	-0.477153	-0.340591
O66	O	1.116914	-0.227153	-0.090591
O67	O	1.366914	0.022847	0.159409
O68	O	1.616914	0.272847	0.409409
C69	C	0.742670	-0.325887	-0.302093
C70	C	0.992670	-0.075887	-0.052093
C71	C	1.242670	0.174113	0.197907
C72	C	1.492670	0.424113	0.447907
C73	C	0.673029	-0.325918	-0.302077
C74	C	0.923029	-0.075918	-0.052077
C75	C	1.173029	0.174082	0.197923
C76	C	1.423029	0.424082	0.447923
C77	C	0.640323	-0.369263	-0.342080
C78	C	0.890323	-0.119263	-0.092080
C79	C	1.140323	0.130737	0.157920
C80	C	1.390323	0.380737	0.407920
C81	C	0.574888	-0.369246	-0.342108
C82	C	0.824888	-0.119246	-0.092108
C83	C	1.074888	0.130754	0.157892
C84	C	1.324888	0.380754	0.407892
C85	C	0.542160	-0.325892	-0.302122
C86	C	0.792160	-0.075892	-0.052122
C87	C	1.042160	0.174108	0.197878
C88	C	1.292160	0.424108	0.447878
C89	C	0.574874	-0.282539	-0.262116
C90	C	0.824874	-0.032539	-0.012116
C91	C	1.074874	0.217461	0.237884
C92	C	1.324874	0.467461	0.487884
C93	C	0.640308	-0.282553	-0.262094
C94	C	0.890308	-0.032553	-0.012094
C95	C	1.140308	0.217447	0.237906
C96	C	1.390308	0.467447	0.487906
C97	C	0.438435	-0.320440	-0.245717
C98	C	0.688435	-0.070440	0.004283
C99	C	0.938435	0.179560	0.254283
C100	C	1.188435	0.429560	0.504283
C101	C	0.373002	-0.320431	-0.245738
C102	C	0.623002	-0.070431	0.004262
C103	C	0.873002	0.179569	0.254262
C104	C	1.123002	0.429569	0.504262
C105	C	0.340340	-0.325848	-0.302191
C106	C	0.590340	-0.075848	-0.052191
C107	C	0.840340	0.174152	0.197809
C108	C	1.090340	0.424152	0.447809
C109	C	0.373118	-0.331287	-0.358624
C110	C	0.623118	-0.081287	-0.108624
C111	C	0.873118	0.168713	0.141376
C112	C	1.123118	0.418713	0.391376
C113	C	0.438552	-0.331301	-0.358602
C114	C	0.688552	-0.081301	-0.108602
C115	C	0.938552	0.168699	0.141398
C116	C	1.188552	0.418699	0.391398
C117	C	0.471208	-0.325873	-0.302142
C118	C	0.721208	-0.075873	-0.052142
C119	C	0.971208	0.174127	0.197858
C120	C	1.221208	0.424127	0.447858
C121	C	0.236682	-0.369177	-0.342227
C122	C	0.486682	-0.119177	-0.092227
C123	C	0.736682	0.130823	0.157773
C124	C	0.986682	0.380823	0.407773
C125	C	0.171245	-0.369156	-0.342256
C126	C	0.421245	-0.119156	-0.092256
C127	C	0.671245	0.130844	0.157744
C128	C	0.921245	0.380844	0.407744
C129	C	0.171232	-0.282452	-0.262259
C130	C	0.421232	-0.032452	-0.012259
C131	C	0.671232	0.217548	0.237741
C132	C	0.921232	0.467548	0.487741
C133	C	0.236668	-0.282470	-0.262236
C134	C	0.486668	-0.032470	-0.012236
C135	C	0.736668	0.217530	0.237764
C136	C	0.986668	0.467530	0.487764
C137	C	0.269388	-0.325836	-0.302219
C138	C	0.519388	-0.075836	-0.052219
C139	C	0.769388	0.174164	0.197781
C140	C	1.019388	0.424164	0.447781
C141	C	0.905387	-0.501707	-0.302136
C142	C	1.155387	-0.251707	-0.052136
C143	C	1.405387	-0.001707	0.197864
C144	C	1.655387	0.248293	0.447864
C145	C	0.905414	-0.576939	-0.302144
C146	C	1.155414	-0.326939	-0.052144
C147	C	1.405414	-0.076939	0.197856
C148	C	1.655414	0.173061	0.447856
C149	C	0.945514	-0.612255	-0.262130
C150	C	1.195514	-0.362255	-0.012130
C151	C	1.445514	-0.112255	0.237870
C152	C	1.695514	0.137745	0.487870
C153	C	0.945540	-0.682944	-0.262144
C154	C	1.195540	-0.432944	-0.012144
C155	C	1.445540	-0.182944	0.237856
C156	C	1.695540	0.067056	0.487856
C157	C	0.905464	-0.718315	-0.302169
C158	C	1.155464	-0.468315	-0.052169
C159	C	1.405464	-0.218315	0.197831
C160	C	1.655464	0.031685	0.447831
C161	C	0.865362	-0.682993	-0.342187
C162	C	1.115362	-0.432993	-0.092187
C163	C	1.365362	-0.182993	0.157813
C164	C	1.615362	0.067007	0.407813
C165	C	0.865339	-0.612306	-0.342175
C166	C	1.115339	-0.362306	-0.092175
C167	C	1.365339	-0.112306	0.157825
C168	C	1.615339	0.137694	0.407825
C169	C	0.865455	-0.968067	-0.342233
C170	C	1.115455	-0.718067	-0.092233
C171	C	1.365455	-0.468067	0.157767
C172	C	1.615455	-0.218067	0.407767
C173	C	0.865480	-1.038759	-0.342240
C174	C	1.115480	-0.788759	-0.092240
C175	C	1.365480	-0.538759	0.157760
C176	C	1.615480	-0.288759	0.407760
C177	C	0.945656	-1.038704	-0.262202
C178	C	1.195656	-0.788704	-0.012202
C179	C	1.445656	-0.538704	0.237798
C180	C	1.695656	-0.288704	0.487798
C181	C	0.945633	-0.968017	-0.262191
C182	C	1.195633	-0.718017	-0.012191
C183	C	1.445633	-0.468017	0.237809
C184	C	1.695633	-0.218017	0.487809
C185	C	0.905534	-0.932702	-0.302210
C186	C	1.155534	-0.682702	-0.052210
C187	C	1.405534	-0.432702	0.197790
C188	C	1.655534	-0.182702	0.447790
C189	C	0.905507	-0.856053	-0.302196
C190	C	1.155507	-0.606053	-0.052196
C191	C	1.405507	-0.356053	0.197804
C192	C	1.655507	-0.106053	0.447804
C193	C	0.905488	-0.794962	-0.302181
C194	C	1.155488	-0.544962	-0.052181
C195	C	1.405488	-0.294962	0.197819
C196	C	1.655488	-0.044962	0.447819
C197	C	1.068881	-0.325816	-0.302239
C198	C	1.318881	-0.075816	-0.052239
C199	C	1.568881	0.174184	0.197761
C200	C	1.818881	0.424184	0.447761
C201	C	1.138522	-0.325800	-0.302271
C202	C	1.388522	-0.075800	-0.052271
C203	C	1.638522	0.174200	0.197729
C204	C	1.888522	0.424200	0.447729
C205	C	0.905510	-0.325837	-0.465589
C206	C	1.155510	-0.075837	-0.215589
C207	C	1.405510	0.174163	0.034411
C208	C	1.655510	0.424163	0.284411
C209	C	0.905532	-0.325831	-0.535231
C210	C	1.155532	-0.075831	-0.285231
C211	C	1.405532	0.174169	-0.035231
C212	C	1.655532	0.424169	0.214769
C213	C	0.905545	-0.149308	-0.302210
C214	C	1.155545	0.100692	-0.052210
C215	C	1.405545	0.350692	0.197790
C216	C	1.655545	0.600692	0.447790
C217	C	0.905583	-0.074076	-0.302229
C218	C	1.155583	0.175924	-0.052229
C219	C	1.405583	0.425924	0.197771
C220	C	1.655583	0.675924	0.447771
C221	C	0.945625	-0.282530	-0.567974
C222	C	1.195625	-0.032530	-0.317974
C223	C	1.445625	0.217470	-0.067974
C224	C	1.695625	0.467470	0.182026
C225	C	0.945624	-0.282501	-0.633409
C226	C	1.195624	-0.032501	-0.383409
C227	C	1.445624	0.217499	-0.133409
C228	C	1.695624	0.467499	0.116591
C229	C	0.905537	-0.325785	-0.666099
C230	C	1.155537	-0.075785	-0.416099
C231	C	1.405537	0.174215	-0.166099
C232	C	1.655537	0.424215	0.083901
C233	C	0.865436	-0.369089	-0.633348
C234	C	1.115436	-0.119089	-0.383348
C235	C	1.365436	0.130911	-0.133348
C236	C	1.615436	0.380911	0.116652
C237	C	0.865433	-0.369112	-0.567914
C238	C	1.115433	-0.119112	-0.317914
C239	C	1.365433	0.130888	-0.067914
C240	C	1.615433	0.380888	0.182086
C241	C	0.900565	-0.386731	-0.769762
C242	C	1.150565	-0.136731	-0.519762
C243	C	1.400565	0.113269	-0.269762
C244	C	1.650565	0.363269	-0.019762
C245	C	0.900572	-0.386709	-0.835195
C246	C	1.150572	-0.136709	-0.585195
C247	C	1.400572	0.113291	-0.335195
C248	C	1.650572	0.363291	-0.085195
C249	C	0.905540	-0.325714	-0.867920
C250	C	1.155540	-0.075714	-0.617920
C251	C	1.405540	0.174286	-0.367920
C252	C	1.655540	0.424286	-0.117920
C253	C	0.910516	-0.264738	-0.835204
C254	C	1.160516	-0.014738	-0.585204
C255	C	1.410516	0.235262	-0.335204
C256	C	1.660516	0.485262	-0.085204
C257	C	0.910513	-0.264762	-0.769770
C258	C	1.160513	-0.014762	-0.519770
C259	C	1.410513	0.235238	-0.269770
C260	C	1.660513	0.485238	-0.019770
C261	C	0.905534	-0.325765	-0.737051
C262	C	1.155534	-0.075765	-0.487051
C263	C	1.405534	0.174235	-0.237051
C264	C	1.655534	0.424235	0.012949
C265	C	0.945635	-0.282378	-0.971615
C266	C	1.195635	-0.032378	-0.721615
C267	C	1.445635	0.217622	-0.471615
C268	C	1.695635	0.467622	-0.221615
C269	C	0.945630	-0.282347	-1.037052
C270	C	1.195630	-0.032347	-0.787052
C271	C	1.445630	0.217653	-0.537052
C272	C	1.695630	0.467653	-0.287052
C273	C	0.865444	-0.368941	-1.036990
C274	C	1.115444	-0.118941	-0.786990
C275	C	1.365444	0.131059	-0.536990
C276	C	1.615444	0.381059	-0.286990
C277	C	0.865446	-0.368966	-0.971555
C278	C	1.115446	-0.118966	-0.721555
C279	C	1.365446	0.131034	-0.471555
C280	C	1.615446	0.381034	-0.221555
C281	C	0.905545	-0.325685	-0.938871
C282	C	1.155545	-0.075685	-0.688871
C283	C	1.405545	0.174315	-0.438871
C284	C	1.655545	0.424315	-0.188871
C285	C	0.905442	-0.325816	-0.139378
C286	C	1.155442	-0.075816	0.110622
C287	C	1.405442	0.174184	0.360622
C288	C	1.655442	0.424184	0.610622
C289	C	0.905541	-0.325631	-0.069738
C290	C	1.155541	-0.075631	0.180262
C291	C	1.405541	0.174369	0.430262
C292	C	1.655541	0.424369	0.680262
H293	H	0.666960	-0.404574	-0.374638
H294	H	0.916960	-0.154574	-0.124638
H295	H	1.166960	0.095426	0.125362
H296	H	1.416960	0.345426	0.375362
Cl297	Cl	0.277819	-0.423689	-0.392494
Cl298	Cl	0.527819	-0.173689	-0.142494
Cl299	Cl	0.777819	0.076311	0.107506
Cl300	Cl	1.027819	0.326311	0.357506
Cl301	Cl	0.996031	-0.228116	-0.526889
Cl302	Cl	1.246031	0.021884	-0.276889
Cl303	Cl	1.496031	0.271884	-0.026889
Cl304	Cl	1.746031	0.521884	0.223111
H305	H	0.914563	-0.215070	-0.861848
H306	H	1.164563	0.034930	-0.611848
H307	H	1.414563	0.284930	-0.361848
H308	H	1.664563	0.534930	-0.111848
Cl309	Cl	0.814928	-0.567908	-0.392482
Cl310	Cl	1.064928	-0.317908	-0.142482
Cl311	Cl	1.314928	-0.067908	0.107518
Cl312	Cl	1.564928	0.182092	0.357518
Cl313	Cl	0.331802	-0.313593	-0.174794
Cl314	Cl	0.581802	-0.063593	0.075206
Cl315	Cl	0.831802	0.186407	0.325206
Cl316	Cl	1.081802	0.436407	0.575206
Cl317	Cl	0.996017	-0.923555	-0.211872
Cl318	Cl	1.246017	-0.673555	0.038128
Cl319	Cl	1.496017	-0.423555	0.288128
Cl320	Cl	1.746017	-0.173555	0.538128
H321	H	0.832804	-0.939318	-0.374817
H322	H	1.082804	-0.689318	-0.124817
H323	H	1.332804	-0.439318	0.125183
H324	H	1.582804	-0.189318	0.375183
H325	H	0.465024	-0.316026	-0.199743
H326	H	0.715024	-0.066026	0.050257
H327	H	0.965024	0.183974	0.300257
H328	H	1.215024	0.433974	0.550257
Cl329	Cl	0.130129	-0.423647	-0.392554
Cl330	Cl	0.380129	-0.173647	-0.142554
Cl331	Cl	0.630129	0.076353	0.107446
Cl332	Cl	0.880129	0.326353	0.357446
Cl333	Cl	0.996018	-0.228048	-0.674580
Cl334	Cl	1.246018	0.021952	-0.424580
Cl335	Cl	1.496018	0.271952	-0.174580
Cl336	Cl	1.746018	0.521952	0.075420
Cl337	Cl	0.894323	-0.463363	-0.876316
Cl338	Cl	1.144323	-0.213363	-0.626316
Cl339	Cl	1.394323	0.036637	-0.376316
Cl340	Cl	1.644323	0.286637	-0.126316
Cl341	Cl	0.814984	-0.727460	-0.392507
Cl342	Cl	1.064984	-0.477460	-0.142507
Cl343	Cl	1.314984	-0.227460	0.107493
Cl344	Cl	1.564984	0.022540	0.357493
H345	H	0.978146	-0.583461	-0.229535
H346	H	1.228146	-0.333461	0.020465
H347	H	1.478146	-0.083461	0.270465
H348	H	1.728146	0.166539	0.520465
Cl349	Cl	0.916762	-0.188111	-0.728644
Cl350	Cl	1.166762	0.061889	-0.478644
Cl351	Cl	1.416762	0.311889	-0.228644
Cl352	Cl	1.666762	0.561889	0.021356
Cl353	Cl	0.996070	-1.083105	-0.211893
Cl354	Cl	1.246070	-0.833105	0.038107
Cl355	Cl	1.496070	-0.583105	0.288107
Cl356	Cl	1.746070	-0.333105	0.538107
H357	H	0.978193	-0.711695	-0.229561
H358	H	1.228193	-0.461695	0.020439
H359	H	1.478193	-0.211695	0.270439
H360	H	1.728193	0.038305	0.520439
H361	H	0.832782	-0.404372	-0.541255
H362	H	1.082782	-0.154372	-0.291255
H363	H	1.332782	0.095628	-0.041255
H364	H	1.582782	0.345628	0.208745
H365	H	0.978282	-0.247132	-0.945003
H366	H	1.228282	0.002868	-0.695003
H367	H	1.478282	0.252868	-0.445003
H368	H	1.728282	0.502868	-0.195003
Cl369	Cl	0.130095	-0.227945	-0.211995
Cl370	Cl	0.380095	0.022055	0.038005
Cl371	Cl	0.630095	0.272055	0.288005
Cl372	Cl	0.880095	0.522055	0.538005
H373	H	0.978277	-0.247083	-1.063710
H374	H	1.228277	0.002917	-0.813710
H375	H	1.478277	0.252917	-0.563710
H376	H	1.728277	0.502917	-0.313710
Cl377	Cl	0.815095	-1.083224	-0.392562
Cl378	Cl	1.065095	-0.833224	-0.142562
Cl379	Cl	1.315095	-0.583224	0.107438
Cl380	Cl	1.565095	-0.333224	0.357438
H381	H	0.548223	-0.247239	-0.229561
H382	H	0.798223	0.002761	0.020439
H383	H	1.048223	0.252761	0.270439
H384	H	1.298223	0.502761	0.520439
H385	H	0.832798	-0.404177	-1.063606
H386	H	1.082798	-0.154177	-0.813606
H387	H	1.332798	0.095823	-0.563606
H388	H	1.582798	0.345823	-0.313606
H389	H	0.832802	-0.404230	-0.944895
H390	H	1.082802	-0.154230	-0.694895
H391	H	1.332802	0.095770	-0.444895
H392	H	1.582802	0.345770	-0.194895
H393	H	0.896351	-0.436388	-0.743122
H394	H	1.146351	-0.186388	-0.493122
H395	H	1.396351	0.063612	-0.243122
H396	H	1.646351	0.313612	0.006878
H397	H	0.548254	-0.404542	-0.374685
H398	H	0.798254	-0.154542	-0.124685
H399	H	1.048254	0.095458	0.125315
H400	H	1.298254	0.345458	0.375315
Cl401	Cl	0.681426	-0.228058	-0.211801
Cl402	Cl	0.931426	0.021942	0.038199
Cl403	Cl	1.181426	0.271942	0.288199
Cl404	Cl	1.431426	0.521942	0.538199
H405	H	0.346526	-0.335697	-0.404594
H406	H	0.596526	-0.085697	-0.154594
H407	H	0.846526	0.164303	0.095406
H408	H	1.096526	0.414303	0.345406
Cl409	Cl	0.479757	-0.338134	-0.429544
Cl410	Cl	0.729757	-0.088134	-0.179544
Cl411	Cl	0.979757	0.161866	0.070456
Cl412	Cl	1.229757	0.411866	0.320456
H413	H	0.263297	-0.247178	-0.229658
H414	H	0.513297	0.002822	0.020342
H415	H	0.763297	0.252822	0.270342
H416	H	1.013297	0.502822	0.520342
H417	H	0.832794	-0.404329	-0.659969
H418	H	1.082794	-0.154329	-0.409969
H419	H	1.332794	0.095671	-0.159969
H420	H	1.582794	0.345671	0.090031
