data_functionalizedCrystal
_audit_creation_method	'MofGen! by Chris Wilmer'
_symmetry_space_group_name_H-M	'P1'
_symmetry_Int_Tables_number	1
_symmetry_cell_setting	triclinic
loop_
_symmetry_equiv_pos_as_xyz
  x,y,z
_cell_length_a	19.077442
_cell_length_b	19.077367
_cell_length_c	19.076919
_cell_angle_alpha	85.521998
_cell_angle_beta	90.066548
_cell_angle_gamma	89.883403
loop_
_atom_site_label
_atom_site_type_symbol
_atom_site_fract_x
_atom_site_fract_y
_atom_site_fract_z
Zn1	Zn	-0.251017	-1.072176	-0.344928
Zn2	Zn	0.248983	-0.572176	0.155072
Zn3	Zn	-0.363414	-1.081533	-0.222349
Zn4	Zn	0.136586	-0.581533	0.277651
Zn5	Zn	-0.251034	-0.959032	-0.231779
Zn6	Zn	0.248966	-0.459032	0.268221
Zn7	Zn	-0.373189	-0.959371	-0.344505
Zn8	Zn	0.126811	-0.459371	0.155495
O9	O	-0.309664	-1.018028	-0.285890
O10	O	0.190336	-0.518028	0.214110
O11	O	-0.261829	-1.171894	-0.324898
O12	O	0.238171	-0.671894	0.175102
O13	O	-0.344423	-1.069057	-0.125123
O14	O	0.155577	-0.569057	0.374877
O15	O	-0.152871	-0.969983	-0.250912
O16	O	0.347129	-0.469983	0.249088
O17	O	-0.344406	-1.178769	-0.234840
O18	O	0.155594	-0.678769	0.265160
O19	O	-0.152859	-1.053110	-0.334042
O20	O	0.347141	-0.553110	0.165958
O21	O	-0.261858	-0.979056	-0.132051
O22	O	0.238142	-0.479056	0.367949
O23	O	-0.271336	-0.860600	-0.250502
O24	O	0.228664	-0.360600	0.249498
O25	O	-0.361067	-0.970560	-0.443038
O26	O	0.138933	-0.470560	0.056962
O27	O	-0.361083	-0.860849	-0.333321
O28	O	0.138917	-0.360849	0.166679
O29	O	-0.271307	-1.053438	-0.443348
O30	O	0.228693	-0.553438	0.056652
O31	O	-0.462871	-1.069386	-0.234430
O32	O	0.037129	-0.569386	0.265570
O33	O	-0.470053	-0.979633	-0.324178
O34	O	0.029947	-0.479633	0.175822
C35	C	-0.317273	-0.835191	-0.292889
C36	C	0.182727	-0.335191	0.207111
C37	C	-0.320546	-0.756972	-0.295899
C38	C	0.179454	-0.256972	0.204101
C39	C	-0.275293	-0.720069	-0.254271
C40	C	0.224707	-0.220069	0.245729
C41	C	-0.278374	-0.646575	-0.257098
C42	C	0.221626	-0.146575	0.242902
C43	C	-0.326705	-0.609984	-0.301559
C44	C	0.173295	-0.109984	0.198441
C45	C	-0.371964	-0.646893	-0.343190
C46	C	0.128036	-0.146893	0.156810
C47	C	-0.368885	-0.720386	-0.340358
C48	C	0.131115	-0.220386	0.159642
C49	C	-0.340933	-0.390200	-0.314642
C50	C	0.159067	0.109800	0.185358
C51	C	-0.344007	-0.316701	-0.317472
C52	C	0.155993	0.183299	0.182528
C53	C	-0.250417	-0.316388	-0.231380
C54	C	0.249583	0.183612	0.268620
C55	C	-0.247340	-0.389883	-0.228555
C56	C	0.252660	0.110117	0.271445
C57	C	-0.292601	-0.426785	-0.270182
C58	C	0.207399	0.073215	0.229818
N59	N	-0.329855	-0.534861	-0.304453
N60	N	0.170145	-0.034861	0.195547
N61	N	-0.289454	-0.501907	-0.267285
N62	N	0.210546	-0.001907	0.232715
C63	C	-0.491914	-1.025580	-0.278249
C64	C	0.008086	-0.525580	0.221751
C65	C	-0.569880	-1.028874	-0.275001
C66	C	-0.069880	-0.528874	0.224999
C67	C	-1.008340	-1.052454	-0.251688
C68	C	-0.508340	-0.552454	0.248312
C69	C	-0.935083	-1.049352	-0.254741
C70	C	-0.435083	-0.549352	0.245259
C71	C	-0.902221	-1.001042	-0.302962
C72	C	-0.402221	-0.501042	0.197038
C73	C	-0.942621	-0.955825	-0.348127
C74	C	-0.442621	-0.455825	0.151873
C75	C	-1.015876	-0.958924	-0.345070
C76	C	-0.515876	-0.458924	0.154930
C77	C	-0.683535	-0.986757	-0.317109
C78	C	-0.183535	-0.486757	0.182891
C79	C	-0.610274	-0.983663	-0.320164
C80	C	-0.110274	-0.483663	0.179836
C81	C	-0.602741	-1.077189	-0.226777
C82	C	-0.102741	-0.577189	0.273223
C83	C	-0.675998	-1.080287	-0.223727
C84	C	-0.175998	-0.580287	0.276273
C85	C	-0.716391	-1.035068	-0.268890
C86	C	-0.216391	-0.535068	0.231110
N87	N	-0.827341	-0.997872	-0.306085
N88	N	-0.327341	-0.497872	0.193915
N89	N	-0.791270	-1.038235	-0.265762
N90	N	-0.291270	-0.538235	0.234238
C91	C	-0.126701	-1.010465	-0.293576
C92	C	0.373299	-0.510465	0.206424
C93	C	-0.048734	-1.007242	-0.296851
C94	C	0.451266	-0.507242	0.203149
C95	C	-0.317275	-1.010993	-0.469441
C96	C	0.182725	-0.510993	0.030559
C97	C	-0.320519	-1.007996	-0.547659
C98	C	0.179481	-0.507996	-0.047659
C99	C	-0.302021	-0.201579	-0.278858
C100	C	0.197979	0.298421	0.221142
C101	C	-0.298753	-0.279798	-0.275844
C102	C	0.201247	0.220202	0.224156
C103	C	-0.275312	-1.049735	-0.584569
C104	C	0.224688	-0.549735	-0.084569
C105	C	-0.278358	-1.046910	-0.658064
C106	C	0.221642	-0.546910	-0.158064
C107	C	-0.326614	-1.002348	-0.694647
C108	C	0.173386	-0.502348	-0.194647
C109	C	-0.371823	-0.960604	-0.657732
C110	C	0.128177	-0.460604	-0.157732
C111	C	-0.368773	-0.963426	-0.584239
C112	C	0.131227	-0.463426	-0.084239
C113	C	-0.340742	-0.989277	-0.914431
C114	C	0.159258	-0.489277	-0.414431
C115	C	-0.343789	-0.986460	-0.987929
C116	C	0.156211	-0.486460	-0.487929
C117	C	-0.250323	-1.072765	-0.988256
C118	C	0.249677	-0.572765	-0.488256
C119	C	-0.247281	-1.075586	-0.914761
C120	C	0.252719	-0.575586	-0.414761
C121	C	-0.292487	-1.033840	-0.877853
C122	C	0.207513	-0.533840	-0.377853
N123	N	-0.329729	-0.999461	-0.769771
N124	N	0.170271	-0.499461	-0.269771
N125	N	-0.289367	-1.036724	-0.802731
N126	N	0.210633	-0.536724	-0.302731
C127	C	-0.302029	-1.025074	-0.103054
C128	C	0.197971	-0.525074	0.396946
C129	C	-0.298582	-1.028199	-0.024839
C130	C	0.201418	-0.528199	0.475161
H131	H	-0.235930	-0.749855	-0.218071
H132	H	0.264070	-0.249855	0.281929
Br133	Br	-0.217034	-1.103593	-0.708151
Br134	Br	0.282966	-0.603593	-0.208151
Br135	Br	-0.409600	-0.267043	-0.377820
Br136	Br	0.090400	0.232957	0.122180
H137	H	-0.383087	-0.950170	-1.017713
H138	H	0.116913	-0.450170	-0.517713
Br139	Br	-0.565677	-0.918096	-0.385613
Br140	Br	-0.065677	-0.418096	0.114387
H141	H	-1.048765	-0.922111	-0.381850
H142	H	-0.548765	-0.422111	0.118150
Br143	Br	-0.188996	-0.266303	-0.174888
Br144	Br	0.311004	0.233697	0.325112
H145	H	-0.207987	-1.111875	-0.884980
H146	H	0.292013	-0.611875	-0.384980
Br147	Br	-0.216954	-0.596494	-0.200602
Br148	Br	0.283046	-0.096494	0.299398
Br149	Br	-0.188974	-1.129417	-1.038350
Br150	Br	0.311026	-0.629417	-0.538350
Br151	Br	-0.738345	-0.925399	-0.378413
Br152	Br	-0.238345	-0.425399	0.121587
H153	H	-0.411319	-0.617096	-0.379388
H154	H	0.088681	-0.117096	0.120612
Br155	Br	-0.209823	-1.110220	-0.534927
Br156	Br	0.290177	-0.610220	-0.034927
H157	H	-0.377562	-0.955295	-0.884388
H158	H	0.122438	-0.455295	-0.384388
H159	H	-0.207988	-0.419670	-0.192345
H160	H	0.292012	0.080330	0.307655
H161	H	-0.411111	-0.924318	-0.687524
H162	H	0.088889	-0.424318	-0.187524
H163	H	-0.377787	-0.420237	-0.348538
H164	H	0.122213	0.079763	0.151462
H165	H	-0.702749	-1.119625	-0.184460
H166	H	-0.202749	-0.619625	0.315540
Br167	Br	-0.430307	-0.770471	-0.396851
Br168	Br	0.069693	-0.270471	0.103149
Br169	Br	-0.430124	-0.906773	-0.534146
Br170	Br	0.069876	-0.406773	-0.034146
Br171	Br	-1.052930	-1.118026	-0.186247
Br172	Br	-0.552930	-0.618026	0.313753
H173	H	-0.569846	-1.114004	-0.190007
H174	H	-0.069846	-0.614004	0.309993
Br175	Br	-0.880264	-1.110720	-0.193452
Br176	Br	-0.380264	-0.610720	0.306548
Br177	Br	-0.898024	-0.890259	-0.413569
Br178	Br	-0.398024	-0.390259	0.086431
