data_functionalizedCrystal
_audit_creation_method	'MofGen! by Chris Wilmer'
_symmetry_space_group_name_H-M	'P1'
_symmetry_Int_Tables_number	1
_symmetry_cell_setting	triclinic
loop_
_symmetry_equiv_pos_as_xyz
  x,y,z
_cell_length_a	19.188930
_cell_length_b	15.995362
_cell_length_c	17.666332
_cell_angle_alpha	89.998915
_cell_angle_beta	90.023234
_cell_angle_gamma	96.678919
loop_
_atom_site_label
_atom_site_type_symbol
_atom_site_fract_x
_atom_site_fract_y
_atom_site_fract_z
O1	O	0.926420	-0.104534	0.063183
O2	O	1.426420	0.395466	0.563183
O3	O	0.723145	-0.118606	0.063130
O4	O	1.223145	0.381394	0.563130
O5	O	0.830334	0.010337	0.063163
O6	O	1.330334	0.510337	0.563163
O7	O	0.819230	-0.233478	0.063149
O8	O	1.319230	0.266522	0.563149
O9	O	0.830316	0.010344	-0.062734
O10	O	1.330316	0.510344	0.437266
O11	O	0.723126	-0.118600	-0.062767
O12	O	1.223126	0.381400	0.437233
O13	O	0.926401	-0.104528	-0.062714
O14	O	1.426401	0.395472	0.437286
Cu15	Cu	0.824762	-0.111563	-0.074236
Cu16	Cu	1.324762	0.388437	0.425764
Cu17	Cu	0.824784	-0.111571	0.074652
Cu18	Cu	1.324784	0.388429	0.574652
O19	O	0.819211	-0.233471	-0.062747
O20	O	1.319211	0.266529	0.437253
C21	C	0.697123	-0.118147	0.000175
C22	C	1.197123	0.381853	0.500175
C23	C	0.619615	-0.116779	0.000155
C24	C	1.119615	0.383221	0.500155
C25	C	0.829864	0.041533	0.000218
C26	C	1.329864	0.541533	0.500218
C27	C	0.828484	0.134478	0.000226
C28	C	1.328484	0.634478	0.500226
N29	N	0.824751	-0.111557	-0.178955
N30	N	1.324751	0.388443	0.321045
C31	C	0.574887	-0.192439	0.000163
C32	C	1.074887	0.307561	0.500163
C33	C	0.502059	-0.191154	0.000171
C34	C	1.002059	0.308846	0.500171
C35	C	0.473964	-0.114205	0.000187
C36	C	0.973964	0.385795	0.500187
C37	C	0.518702	-0.038535	0.000175
C38	C	1.018702	0.461465	0.500175
C39	C	0.591528	-0.039822	0.000159
C40	C	1.091528	0.460178	0.500159
N41	N	0.365838	-0.055389	0.043069
N42	N	0.865838	0.444611	0.543069
N43	N	0.296657	-0.054171	0.043086
N44	N	0.796657	0.445829	0.543086
C45	C	0.254545	-0.110321	0.000233
C46	C	0.754545	0.389679	0.500233
N47	N	0.284228	-0.167748	-0.042627
N48	N	0.784228	0.332252	0.457373
N49	N	0.353416	-0.168968	-0.042640
N50	N	0.853416	0.331032	0.457360
C51	C	0.394998	-0.112800	0.000204
C52	C	0.894998	0.387200	0.500204
C53	C	0.130849	-0.184593	0.000249
C54	C	0.630849	0.315407	0.500249
C55	C	0.058021	-0.183304	0.000253
C56	C	0.558021	0.316696	0.500253
C57	C	0.074665	-0.030684	0.000264
C58	C	0.574665	0.469316	0.500264
C59	C	0.147492	-0.031974	0.000253
C60	C	0.647492	0.468026	0.500253
C61	C	0.175579	-0.108931	0.000249
C62	C	0.675579	0.391069	0.500249
C63	C	0.952422	-0.104987	0.000243
C64	C	1.452422	0.395013	0.500243
C65	C	1.029931	-0.106355	0.000268
C66	C	1.529931	0.393645	0.500268
C67	C	0.823525	0.472205	0.000239
C68	C	1.323525	0.972205	0.500239
C69	C	0.747184	0.424492	0.000500
C70	C	1.247184	0.924492	0.500500
C71	C	0.748566	0.327807	0.000211
C72	C	1.248566	0.827807	0.500211
C73	C	0.825984	0.304655	0.000233
C74	C	1.325984	0.804655	0.500233
C75	C	0.863627	0.345874	-0.071647
C76	C	1.363627	0.845874	0.428353
C77	C	0.861705	0.442502	-0.071703
C78	C	1.361705	0.942502	0.428297
C79	C	0.863304	0.442858	0.071466
C80	C	1.363304	0.942858	0.571466
C81	C	0.863289	0.345913	0.072411
C82	C	1.363289	0.845913	0.572411
C83	C	0.827379	0.209963	0.000227
C84	C	1.327379	0.709963	0.500227
C85	C	0.822133	0.566898	0.000240
C86	C	1.322133	1.066898	0.500240
C87	C	0.819672	0.735331	0.000212
C88	C	1.319672	1.235331	0.500212
C89	C	0.821025	0.642382	0.000246
C90	C	1.321025	1.142382	0.500246
C91	C	0.872230	-0.054489	-0.218550
C92	C	1.372230	0.445511	0.281450
C93	C	0.872234	-0.054484	-0.297798
C94	C	1.372234	0.445516	0.202202
C95	C	0.824766	-0.111563	-0.337447
C96	C	1.324766	0.388437	0.162553
C97	C	0.777278	-0.168636	-0.297843
C98	C	1.277278	0.331364	0.202157
C99	C	0.777271	-0.168633	-0.218597
C100	C	1.277271	0.331367	0.281403
N101	N	0.815881	-0.185684	-0.461872
N102	N	1.315881	0.314316	0.038128
N103	N	0.815892	-0.185684	-0.537152
N104	N	1.315892	0.314316	-0.037152
C105	C	0.824784	-0.111575	-0.576211
C106	C	1.324784	0.388425	-0.076211
N107	N	0.833678	-0.037463	-0.537146
N108	N	1.333678	0.462537	-0.037146
N109	N	0.833671	-0.037463	-0.461859
N110	N	1.333671	0.462537	0.038141
C111	C	0.824768	-0.111572	-0.423377
C112	C	1.324768	0.388428	0.076623
C113	C	0.872270	-0.054497	-0.701736
C114	C	1.372270	0.445503	-0.201736
C115	C	0.872270	-0.054492	-0.780985
C116	C	1.372270	0.445508	-0.280985
C117	C	0.777317	-0.168651	-0.781028
C118	C	1.277317	0.331349	-0.281028
C119	C	0.777314	-0.168649	-0.701781
C120	C	1.277314	0.331351	-0.201781
C121	C	0.824795	-0.111573	-0.662139
C122	C	1.324795	0.388427	-0.162139
N123	N	0.824800	-0.111571	0.179371
N124	N	1.324800	0.388429	0.679371
H125	H	0.597750	-0.255103	0.000161
H126	H	1.097750	0.244897	0.500161
H127	H	0.465635	-0.252767	0.000175
H128	H	0.965635	0.247233	0.500175
Cl129	Cl	0.717579	-0.240382	-0.168817
Cl130	Cl	1.217579	0.259618	0.331183
Cl131	Cl	0.717637	-0.240401	-0.830868
Cl132	Cl	1.217637	0.259599	-0.330868
H133	H	0.738655	-0.215122	-0.669540
H134	H	1.238655	0.284878	-0.169540
H135	H	0.835768	0.318561	0.125586
H136	H	1.335768	0.818561	0.625586
H137	H	0.495823	0.024118	0.000198
H138	H	0.995823	0.524118	0.500198
Cl139	Cl	0.819295	0.470610	-0.154684
Cl140	Cl	1.319295	0.970610	0.345316
Cl141	Cl	0.948235	0.492611	-0.076722
Cl142	Cl	1.448235	0.992611	0.423278
H143	H	0.919747	0.330758	0.076768
H144	H	1.419747	0.830758	0.576768
Cl145	Cl	0.700139	0.454932	-0.078431
Cl146	Cl	1.200139	0.954932	0.421569
H147	H	0.920504	0.331957	-0.074304
H148	H	1.420504	0.831957	0.425696
H149	H	0.838351	0.463303	0.125950
H150	H	1.338351	0.963303	0.625950
H151	H	0.627947	0.021791	0.000153
H152	H	1.127947	0.521791	0.500153
Cl153	Cl	0.823239	0.301917	-0.154264
Cl154	Cl	1.323239	0.801917	0.345736
Cl155	Cl	0.166162	-0.281336	0.000237
Cl156	Cl	0.666162	0.218664	0.500237
Cl157	Cl	0.931956	0.017259	-0.651899
Cl158	Cl	1.431956	0.517259	-0.151899
H159	H	0.919589	0.474825	0.071967
H160	H	1.419589	0.974825	0.571967
Cl161	Cl	0.931915	0.017266	-0.168716
Cl162	Cl	1.431915	0.517266	0.331284
H163	H	0.021603	-0.244918	0.000255
H164	H	0.521603	0.255082	0.500255
H165	H	0.051791	0.031970	0.000324
H166	H	0.551791	0.531970	0.500324
H167	H	0.183911	0.029636	0.000251
H168	H	0.683911	0.529636	0.500251
Cl169	Cl	0.702880	0.283751	0.079762
Cl170	Cl	1.202880	0.783751	0.579762
Cl171	Cl	0.931928	0.017264	-0.347583
Cl172	Cl	1.431928	0.517264	0.152417
Cl173	Cl	0.717600	-0.240389	-0.347686
Cl174	Cl	1.217600	0.259611	0.152314
H175	H	0.716678	0.442909	0.052047
H176	H	1.216678	0.942909	0.552047
Cl177	Cl	0.702547	0.284616	-0.079503
Cl178	Cl	1.202547	0.784616	0.420497
Cl179	Cl	0.931958	0.017262	-0.830764
Cl180	Cl	1.431958	0.517262	-0.330764
