data_functionalizedCrystal
_audit_creation_method	'MofGen! by Chris Wilmer'
_symmetry_space_group_name_H-M	'P1'
_symmetry_Int_Tables_number	1
_symmetry_cell_setting	triclinic
loop_
_symmetry_equiv_pos_as_xyz
  x,y,z
_cell_length_a	10.654562
_cell_length_b	11.792254
_cell_length_c	9.130313
_cell_angle_alpha	89.998555
_cell_angle_beta	89.996930
_cell_angle_gamma	84.344351
loop_
_atom_site_label
_atom_site_type_symbol
_atom_site_fract_x
_atom_site_fract_y
_atom_site_fract_z
O1	O	1.667382	0.159482	-0.121896
O2	O	1.301863	0.174656	-0.121878
O3	O	1.493484	0.001920	-0.121877
O4	O	1.475761	0.332218	-0.121897
O5	O	1.493482	0.001925	0.121721
O6	O	1.301861	0.174660	0.121720
O7	O	1.667379	0.159487	0.121702
Cu8	Cu	1.484620	0.167074	0.143954
Cu9	Cu	1.484623	0.167069	-0.144130
O10	O	1.475758	0.332223	0.121701
C11	C	1.255067	0.173541	-0.000077
C12	C	1.115634	0.170199	-0.000069
C13	C	1.492367	-0.040371	-0.000078
C14	C	1.489025	-0.166391	-0.000080
C15	C	1.050106	0.168642	0.132705
C16	C	0.919093	0.165511	0.132681
C17	C	0.919146	0.165497	-0.132904
C18	C	1.050158	0.168621	-0.132878
C19	C	1.115583	0.170221	0.265514
C20	C	1.050055	0.168665	0.398299
C21	C	0.919041	0.165534	0.398275
C22	C	0.853556	0.163958	0.265465
C23	C	1.486310	-0.268734	-0.000085
C24	C	1.482914	-0.397129	-0.000098
C25	C	1.714175	0.160602	-0.000103
C26	C	1.853608	0.163944	-0.000119
C27	C	1.476876	0.374514	-0.000101
C28	C	1.480218	0.500534	-0.000109
N29	N	1.484627	0.167077	0.346577
N30	N	1.484625	0.167057	-0.346753
C31	C	1.569499	0.090616	0.423229
C32	C	1.569495	0.090603	0.576566
C33	C	1.399745	0.243521	0.576584
C34	C	1.399743	0.243528	0.423250
C35	C	1.654383	0.014165	0.346555
C36	C	1.739262	-0.062301	0.423208
C37	C	1.739259	-0.062315	0.576544
C38	C	1.654376	0.014138	0.653229
H39	H	1.222260	0.172774	0.265549
H40	H	1.330637	0.305767	0.639031
F41	F	1.119752	0.170332	0.539636
F42	F	0.714122	0.160598	0.265446
H43	H	0.865816	0.164217	-0.241031
H44	H	1.654396	0.014172	0.221701
F45	F	1.829583	-0.143703	0.658121
F46	F	1.654369	0.014109	0.816425
H47	H	1.330631	0.305789	0.360839
F48	F	1.119902	0.170275	-0.274192
F49	F	1.829586	-0.143671	0.341594
F50	F	0.849306	0.163870	0.539593
