data_functionalizedCrystal
_audit_creation_method	'MofGen! by Chris Wilmer'
_symmetry_space_group_name_H-M	'P1'
_symmetry_Int_Tables_number	1
_symmetry_cell_setting	triclinic
loop_
_symmetry_equiv_pos_as_xyz
  x,y,z
_cell_length_a	12.645330
_cell_length_b	16.120530
_cell_length_c	12.645323
_cell_angle_alpha	87.080466
_cell_angle_beta	89.975130
_cell_angle_gamma	87.113442
loop_
_atom_site_label
_atom_site_type_symbol
_atom_site_fract_x
_atom_site_fract_y
_atom_site_fract_z
Zn1	Zn	-0.504324	1.274613	-0.681531
Zn2	Zn	-0.004324	1.774613	-0.181531
Zn3	Zn	-0.681606	1.274520	-0.504265
Zn4	Zn	-0.181606	1.774520	-0.004265
Zn5	Zn	-0.495361	1.135188	-0.495296
Zn6	Zn	0.004639	1.635188	0.004704
Zn7	Zn	-0.672543	1.135173	-0.672507
Zn8	Zn	-0.172543	1.635173	-0.172507
O9	O	-0.588458	1.204873	-0.588400
O10	O	-0.088458	1.704873	-0.088400
O11	O	-0.535384	1.391267	-0.665546
O12	O	-0.035384	1.891267	-0.165546
O13	O	-0.656942	1.256004	-0.354726
O14	O	-0.156942	1.756004	0.145274
O15	O	-0.348206	1.153728	-0.520024
O16	O	0.151794	1.653728	-0.020024
O17	O	-0.665632	1.391199	-0.535310
O18	O	-0.165632	1.891199	-0.035310
O19	O	-0.354790	1.256163	-0.656850
O20	O	0.145210	1.756163	-0.156850
O21	O	-0.520109	1.153638	-0.348137
O22	O	-0.020109	1.653638	0.151863
O23	O	-0.511321	1.018519	-0.511274
O24	O	-0.011321	1.518519	-0.011274
O25	O	-0.650186	1.153703	-0.822053
O26	O	-0.150186	1.653703	-0.322053
O27	O	-0.641496	1.018509	-0.641469
O28	O	-0.141496	1.518509	-0.141469
O29	O	-0.526596	1.256149	-0.828683
O30	O	-0.026596	1.756149	-0.328683
O31	O	-0.828748	1.255990	-0.526559
O32	O	-0.328748	1.755990	-0.026559
O33	O	-0.822089	1.153613	-0.650166
O34	O	-0.322089	1.653613	-0.150166
C35	C	-0.574453	0.988264	-0.574420
C36	C	-0.074453	1.488264	-0.074420
C37	C	-0.568487	0.895597	-0.568464
C38	C	-0.068487	1.395597	-0.068464
C39	C	-0.557570	0.725934	-0.557600
C40	C	-0.057570	1.225934	-0.057600
C41	C	-0.619425	0.684653	-0.619278
C42	C	-0.119425	1.184653	-0.119278
C43	C	-0.613350	0.590247	-0.613233
C44	C	-0.113350	1.090247	-0.113233
C45	C	-0.563643	0.820349	-0.563643
C46	C	-0.063643	1.320349	-0.063643
C47	C	-0.863884	1.204813	-0.588381
C48	C	-0.363884	1.704813	-0.088381
C49	C	-0.981717	1.204863	-0.588413
C50	C	-0.481717	1.704863	-0.088413
C51	C	-1.145154	1.140723	-0.666444
C52	C	-0.645154	1.640723	-0.166444
C53	C	-1.022573	1.140395	-0.666159
C54	C	-0.522573	1.640395	-0.166159
C55	C	-1.024776	1.181077	-0.475160
C56	C	-0.524776	1.681077	0.024840
C57	C	-1.147349	1.180685	-0.475633
C58	C	-0.647349	1.680685	0.024367
C59	C	-1.154509	1.293181	-0.622756
C60	C	-0.654509	1.793181	-0.122756
C61	C	-1.031867	1.292640	-0.625164
C62	C	-0.531867	1.792640	-0.125164
C63	C	-0.311958	1.204957	-0.588443
C64	C	0.188042	1.704957	-0.088443
C65	C	-0.194131	1.204993	-0.588462
C66	C	0.305869	1.704993	-0.088462
C67	C	-0.588380	1.204935	-0.864909
C68	C	-0.088380	1.704935	-0.364909
C69	C	-0.588347	1.204961	-0.982741
C70	C	-0.088347	1.704961	-0.482741
C71	C	-0.602519	1.422329	-0.602435
C72	C	-0.102519	1.922329	-0.102435
C73	C	-0.608511	1.514996	-0.608416
C74	C	-0.108511	2.014996	-0.108416
C75	C	-0.665699	1.140314	-1.146121
C76	C	-0.165699	1.640314	-0.646121
C77	C	-0.666113	1.140483	-1.023572
C78	C	-0.166113	1.640483	-0.523572
C79	C	-0.624337	1.292806	-1.032918
C80	C	-0.124337	1.792806	-0.532918
C81	C	-0.624825	1.292452	-1.155494
C82	C	-0.124825	1.792452	-0.655494
C83	C	-0.474603	1.182593	-1.148498
C84	C	0.025397	1.682593	-0.648498
C85	C	-0.475149	1.180634	-1.025766
C86	C	0.024851	1.680634	-0.525766
C87	C	-0.588463	1.204860	-0.312969
C88	C	-0.088463	1.704860	0.187031
C89	C	-0.588208	1.204996	-0.195148
C90	C	-0.088208	1.704996	0.304852
H91	H	-0.500058	0.690377	-0.500259
H92	H	-0.000058	1.190377	-0.000259
Cl93	Cl	-0.753304	1.321766	-1.201559
Cl94	Cl	-0.253304	1.821766	-0.701559
Cl95	Cl	-0.984279	1.251055	-0.382612
Cl96	Cl	-0.484279	1.751055	0.117388
Cl97	Cl	-0.977496	1.163368	-0.795539
Cl98	Cl	-0.477496	1.663368	-0.295539
H99	H	-0.750216	1.155272	-0.995211
H100	H	-0.250216	1.655272	-0.495211
Cl101	Cl	-0.708221	0.739551	-0.707821
Cl102	Cl	-0.208221	1.239551	-0.207821
Cl103	Cl	-0.380592	1.248065	-0.982849
Cl104	Cl	0.119408	1.748065	-0.482849
Cl105	Cl	-1.192037	1.163482	-0.796234
Cl106	Cl	-0.692037	1.663482	-0.296234
Cl107	Cl	-1.186408	1.040416	-0.631113
Cl108	Cl	-0.686408	1.540416	-0.131113
Cl109	Cl	-0.970912	1.039454	-0.630393
Cl110	Cl	-0.470912	1.539454	-0.130393
H111	H	-0.416800	1.229704	-1.180546
H112	H	0.083200	1.729704	-0.680546
Cl113	Cl	-0.988651	1.320339	-0.753892
Cl114	Cl	-0.488651	1.820339	-0.253892
H115	H	-0.442903	1.119652	-1.175349
H116	H	0.057097	1.619652	-0.675349
H117	H	-1.171878	1.116219	-0.447241
H118	H	-0.671878	1.616219	0.052759
Cl119	Cl	-0.989564	1.370468	-0.544562
Cl120	Cl	-0.489564	1.870468	-0.044562
Cl121	Cl	-0.971165	1.082580	-0.430713
Cl122	Cl	-0.471165	1.582580	0.069287
H123	H	-1.179897	1.225465	-0.415244
H124	H	-0.679897	1.725465	0.084756
Cl125	Cl	-1.204059	1.367113	-0.535190
Cl126	Cl	-0.704059	1.867113	-0.035190
H127	H	-0.749272	1.154958	-1.177883
H128	H	-0.249272	1.654958	-0.677883
Cl129	Cl	-1.204289	1.326681	-0.748557
Cl130	Cl	-0.704289	1.826681	-0.248557
H131	H	-0.642935	1.075343	-0.989275
H132	H	-0.142935	1.575343	-0.489275
H133	H	-0.642691	1.074980	-1.171387
H134	H	-0.142691	1.574980	-0.671387
H135	H	-0.571142	1.342279	-1.188381
H136	H	-0.071142	1.842279	-0.688381
H137	H	-0.569931	1.342291	-1.006970
H138	H	-0.069931	1.842291	-0.506970
Cl139	Cl	-0.751522	1.322629	-0.987462
Cl140	Cl	-0.251522	1.822629	-0.487462
Cl141	Cl	-0.433406	1.080819	-0.974425
Cl142	Cl	0.066594	1.580819	-0.474425
