data_functionalizedCrystal
_audit_creation_method	'MofGen! by Chris Wilmer'
_symmetry_space_group_name_H-M	'P1'
_symmetry_Int_Tables_number	1
_symmetry_cell_setting	triclinic
loop_
_symmetry_equiv_pos_as_xyz
  x,y,z
_cell_length_a	9.065215
_cell_length_b	10.723024
_cell_length_c	9.198806
_cell_angle_alpha	90.002012
_cell_angle_beta	90.003417
_cell_angle_gamma	84.741283
loop_
_atom_site_label
_atom_site_type_symbol
_atom_site_fract_x
_atom_site_fract_y
_atom_site_fract_z
O1	O	1.959364	0.182966	0.120872
O2	O	1.529994	0.197979	0.120878
O3	O	1.754583	0.008936	0.120869
O4	O	1.734775	0.372008	0.120880
O5	O	1.754565	0.008936	-0.120916
O6	O	1.529976	0.197978	-0.120907
O7	O	1.959346	0.182965	-0.120914
Cu8	Cu	1.744659	0.190472	-0.142987
Cu9	Cu	1.744680	0.190473	0.142952
O10	O	1.734757	0.372008	-0.120905
C11	C	1.475006	0.196537	-0.000014
C12	C	1.311187	0.192225	-0.000012
C13	C	1.753132	-0.037569	-0.000022
C14	C	1.748820	-0.176141	-0.000017
C15	C	1.874488	-0.250614	-0.000016
C16	C	1.870033	-0.393836	-0.000011
C17	C	2.014334	0.184408	-0.000019
C18	C	2.178152	0.188719	-0.000011
C19	C	1.736207	0.418514	-0.000011
C20	C	1.740520	0.557085	-0.000007
N21	N	1.744655	0.190471	-0.344101
C22	C	1.838954	0.110745	-0.416302
C23	C	1.838977	0.110741	-0.583714
N24	N	1.744696	0.190464	0.344065
H25	H	1.985375	-0.208343	-0.000027
F26	F	1.603877	-0.231386	-0.000001
H27	H	1.977615	-0.457832	-0.000017
F28	F	1.599891	-0.359278	-0.000017
F29	F	1.944194	0.021308	-0.335106
H30	H	1.663934	0.258719	-0.406226
F31	F	1.639172	0.279692	-0.574792
H32	H	1.919715	0.042490	-0.645804
