data_functionalizedCrystal
_audit_creation_method	'MofGen! by Chris Wilmer'
_symmetry_space_group_name_H-M	'P1'
_symmetry_Int_Tables_number	1
_symmetry_cell_setting	triclinic
loop_
_symmetry_equiv_pos_as_xyz
  x,y,z
_cell_length_a	13.262522
_cell_length_b	13.339070
_cell_length_c	16.053802
_cell_angle_alpha	93.267614
_cell_angle_beta	71.511321
_cell_angle_gamma	99.428816
loop_
_atom_site_label
_atom_site_type_symbol
_atom_site_fract_x
_atom_site_fract_y
_atom_site_fract_z
O1	O	1.450739	0.112024	-0.398833
O2	O	1.950739	0.612024	0.101167
O3	O	1.146297	0.131088	-0.329708
O4	O	1.646297	0.631088	0.170292
O5	O	1.263578	-0.025368	-0.356335
O6	O	1.763578	0.474632	0.143665
O7	O	1.333458	0.268479	-0.372206
O8	O	1.833458	0.768479	0.127794
O9	O	1.257112	-0.016791	-0.216008
O10	O	1.757112	0.483209	0.283992
O11	O	1.139831	0.139664	-0.189381
O12	O	1.639831	0.639664	0.310619
O13	O	1.444273	0.120600	-0.258507
O14	O	1.944273	0.620600	0.241493
Zn15	Zn	1.291026	0.131494	-0.201664
Zn16	Zn	1.791026	0.631494	0.298336
Zn17	Zn	1.299545	0.120194	-0.386550
Zn18	Zn	1.799545	0.620194	0.113450
O19	O	1.326993	0.277056	-0.231880
O20	O	1.826993	0.777056	0.268120
C21	C	1.103303	0.135097	-0.250516
C22	C	1.603303	0.635097	0.249484
C23	C	0.984824	0.134254	-0.223615
C24	C	1.484824	0.634254	0.276385
C25	C	1.248541	-0.058654	-0.283492
C26	C	1.748541	0.441346	0.216508
C27	C	1.213356	-0.170614	-0.275507
C28	C	1.713356	0.329386	0.224493
C29	C	0.925645	0.138535	-0.134480
C30	C	1.425645	0.638535	0.365520
C31	C	0.814326	0.137733	-0.109197
C32	C	1.314326	0.637733	0.390803
C33	C	0.762176	0.132659	-0.173047
C34	C	1.262176	0.632659	0.326953
C35	C	0.821356	0.128385	-0.262185
C36	C	1.321356	0.628385	0.237815
C37	C	0.932685	0.129179	-0.287469
C38	C	1.432685	0.629179	0.212531
C39	C	0.769215	0.123303	-0.326037
C40	C	1.269215	0.623303	0.173963
C41	C	0.828395	0.119029	-0.415174
C42	C	1.328395	0.619029	0.084826
C43	C	0.939713	0.119823	-0.440455
C44	C	1.439713	0.619823	0.059545
C45	C	0.991863	0.124898	-0.376604
C46	C	1.491863	0.624898	0.123396
C47	C	0.657886	0.122509	-0.300752
C48	C	1.157886	0.622509	0.199248
C49	C	0.664926	0.113153	-0.453742
C50	C	1.164926	0.613153	0.046258
C51	C	0.776245	0.113954	-0.479025
C52	C	1.276245	0.613954	0.020975
C53	C	1.486938	-0.538068	-0.337625
C54	C	1.986938	-0.038068	0.162375
C55	C	1.520000	-0.432876	-0.345124
C56	C	2.020000	0.067124	0.154876
C57	C	1.443341	-0.367306	-0.327720
C58	C	1.943341	0.132694	0.172280
C59	C	1.333616	-0.406937	-0.302816
C60	C	1.833616	0.093063	0.197184
C61	C	1.300551	-0.512138	-0.295310
C62	C	1.800551	-0.012138	0.204690
C63	C	1.256955	-0.341376	-0.285405
C64	C	1.756955	0.158624	0.214595
C65	C	1.147230	-0.381007	-0.260501
C66	C	1.647230	0.118993	0.239499
C67	C	1.114170	-0.486198	-0.252997
C68	C	1.614170	0.013802	0.247003
C69	C	1.190828	-0.551769	-0.270400
C70	C	1.690828	-0.051769	0.229600
C71	C	1.290020	-0.236174	-0.292912
C72	C	1.790020	0.263826	0.207088
C73	C	1.103633	-0.210245	-0.250597
C74	C	1.603633	0.289755	0.249403
C75	C	1.070571	-0.315436	-0.243098
C76	C	1.570571	0.184564	0.256902
C77	C	1.487268	0.116591	-0.337700
C78	C	1.987268	0.616591	0.162300
C79	C	1.605747	0.117434	-0.364607
C80	C	2.105747	0.617434	0.135393
C81	C	1.342030	0.310342	-0.304724
C82	C	1.842030	0.810342	0.195276
C83	C	1.377215	0.422301	-0.312715
C84	C	1.877215	0.922301	0.187285
N85	N	1.285219	0.139205	-0.075485
N86	N	1.785219	0.639205	0.424515
N87	N	1.305357	0.112475	-0.512730
N88	N	1.805357	0.612475	-0.012730
C89	C	1.335155	0.072657	-0.043128
C90	C	1.835155	0.572657	0.456872
C91	C	1.331106	0.078060	0.045198
C92	C	1.831106	0.578060	0.545198
C93	C	1.277127	0.150018	0.101164
C94	C	1.777127	0.650018	0.601164
C95	C	1.227186	0.216570	0.068802
C96	C	1.727186	0.716570	0.568802
C97	C	1.231229	0.211161	-0.019521
C98	C	1.731229	0.711161	0.480479
C99	C	1.259458	0.173617	0.366585
C100	C	1.759458	0.673617	0.866585
C101	C	1.255422	0.179023	0.454913
C102	C	1.755422	0.679023	0.954913
C103	C	1.359341	0.040512	0.431302
C104	C	1.859341	0.540512	0.931302
C105	C	1.363385	0.035113	0.342977
C106	C	1.863385	0.535113	0.842977
C107	C	1.313438	0.101661	0.310625
C108	C	1.813438	0.601661	0.810625
N109	N	1.272990	0.155545	0.191447
N110	N	1.772990	0.655545	0.691447
N111	N	1.317569	0.096129	0.220344
N112	N	1.817569	0.596129	0.720344
H113	H	0.609714	0.125997	-0.228177
H114	H	1.109714	0.625997	0.271823
F115	F	1.206306	0.244445	0.332159
F116	F	1.706306	0.744445	0.832159
F117	F	0.953796	-0.357627	-0.216595
F118	F	1.453796	0.142373	0.283405
H119	H	0.968114	0.142658	-0.082502
H120	H	1.468114	0.642658	0.417498
H121	H	1.082509	0.125554	-0.397185
H122	H	1.582509	0.625554	0.102815
F123	F	1.478531	-0.255351	-0.335705
F124	F	1.978531	0.244649	0.164295
F125	F	1.412491	-0.030311	0.465741
F126	F	1.912491	0.469689	0.965741
H127	H	1.183229	0.275156	0.114377
H128	H	1.683229	0.775156	0.614377
H129	H	1.211464	0.237624	0.500478
H130	H	1.711464	0.737624	1.000478
H131	H	1.190564	0.265351	-0.045863
H132	H	1.690564	0.765351	0.454137
F133	F	0.643700	0.131812	-0.146137
F134	F	1.143700	0.631812	0.353863
H135	H	0.766147	0.141199	-0.036621
H136	H	1.266147	0.641199	0.463379
F137	F	1.568509	-0.607856	-0.356131
F138	F	2.068509	-0.107856	0.143869
F139	F	1.002692	0.115258	-0.535322
F140	F	1.502692	0.615258	-0.035322
F141	F	0.839241	0.109403	-0.573889
F142	F	1.339241	0.609403	-0.073889
F143	F	1.636772	-0.390706	-0.371641
F144	F	2.136772	0.109294	0.128359
H145	H	1.041211	-0.156856	-0.236421
H146	H	1.541211	0.343144	0.263579
H147	H	0.622467	0.109023	-0.505735
H148	H	1.122467	0.609023	-0.005735
F149	F	1.155650	-0.663733	-0.262500
F150	F	1.655650	-0.163733	0.237500
H151	H	1.379358	-0.203918	-0.313189
H152	H	1.879358	0.296082	0.186811
H153	H	1.024825	-0.518461	-0.232712
H154	H	1.524825	-0.018461	0.267288
H155	H	1.371766	0.023870	0.071541
H156	H	1.871766	0.523870	0.571541
F157	F	1.392613	-0.003927	-0.102686
F158	F	1.892613	0.496073	0.397314
H159	H	1.407338	-0.023481	0.297410
H160	H	1.907338	0.476519	0.797410
