data_functionalizedCrystal
_audit_creation_method	'MofGen! by Chris Wilmer'
_symmetry_space_group_name_H-M	'P1'
_symmetry_Int_Tables_number	1
_symmetry_cell_setting	triclinic
loop_
_symmetry_equiv_pos_as_xyz
  x,y,z
_cell_length_a	19.288864
_cell_length_b	19.188930
_cell_length_c	17.766277
_cell_angle_alpha	89.988508
_cell_angle_beta	89.976791
_cell_angle_gamma	83.140512
loop_
_atom_site_label
_atom_site_type_symbol
_atom_site_fract_x
_atom_site_fract_y
_atom_site_fract_z
O1	O	0.921360	0.087099	-0.062844
O2	O	1.254693	0.420433	0.270489
O3	O	1.588026	0.753766	0.603823
O4	O	0.719100	0.098849	-0.062794
O5	O	1.052433	0.432182	0.270540
O6	O	1.385766	0.765515	0.603873
O7	O	0.826066	-0.008682	-0.062806
O8	O	1.159400	0.324651	0.270528
O9	O	1.492733	0.657985	0.603861
O10	O	0.814393	0.194630	-0.062832
O11	O	1.147726	0.527963	0.270501
O12	O	1.481060	0.861297	0.603835
O13	O	0.826048	-0.008688	0.062383
O14	O	1.159381	0.324646	0.395716
O15	O	1.492714	0.657979	0.729050
O16	O	0.719081	0.098843	0.062395
O17	O	1.052414	0.432177	0.395728
O18	O	1.385748	0.765510	0.729062
O19	O	0.921341	0.087094	0.062345
O20	O	1.254674	0.420427	0.395678
O21	O	1.588008	0.753760	0.729011
Cu22	Cu	0.820209	0.092968	0.073800
Cu23	Cu	1.153543	0.426301	0.407134
Cu24	Cu	1.486876	0.759635	0.740467
Cu25	Cu	0.820231	0.092974	-0.074250
Cu26	Cu	1.153565	0.426308	0.259084
Cu27	Cu	1.486898	0.759641	0.592417
O28	O	0.814374	0.194625	0.062356
O29	O	1.147708	0.527958	0.395690
O30	O	1.481041	0.861291	0.729023
C31	C	0.693214	0.098468	-0.000193
C32	C	1.026547	0.431801	0.333141
C33	C	1.359881	0.765135	0.666474
C34	C	0.616110	0.097333	-0.000173
C35	C	0.949444	0.430666	0.333160
C36	C	1.282777	0.764000	0.666494
C37	C	0.825679	-0.034696	-0.000209
C38	C	1.159012	0.298638	0.333124
C39	C	1.492346	0.631971	0.666458
C40	C	0.824544	-0.112200	-0.000202
C41	C	1.157878	0.221133	0.333131
C42	C	1.491211	0.554466	0.666464
C43	C	0.571419	0.160427	-0.000193
C44	C	0.904752	0.493761	0.333140
C45	C	1.238085	0.827094	0.666474
C46	C	0.498972	0.159361	-0.000201
C47	C	0.832305	0.492694	0.333132
C48	C	1.165638	0.826028	0.666466
C49	C	0.471219	0.095197	-0.000204
C50	C	0.804553	0.428530	0.333129
C51	C	1.137886	0.761864	0.666462
C52	C	0.515921	0.032095	-0.000180
C53	C	0.849254	0.365428	0.333153
C54	C	1.182587	0.698761	0.666487
C55	C	0.588366	0.033163	-0.000164
C56	C	0.921700	0.366496	0.333169
C57	C	1.255033	0.699829	0.666502
C58	C	0.362960	0.044759	-0.044082
C59	C	0.696293	0.378092	0.289251
C60	C	1.029627	0.711426	0.622585
C61	C	0.290515	0.043694	-0.044103
C62	C	0.623849	0.377027	0.289231
C63	C	0.957182	0.710360	0.622564
C64	C	0.247773	0.091900	-0.000249
C65	C	0.581107	0.425234	0.333084
C66	C	0.914440	0.758567	0.666417
C67	C	0.277483	0.141184	0.043614
C68	C	0.610817	0.474518	0.376948
C69	C	0.944150	0.807851	0.710281
C70	C	0.349929	0.142252	0.043630
C71	C	0.683262	0.475586	0.376963
C72	C	1.016595	0.808919	0.710297
C73	C	0.392665	0.094032	-0.000221
C74	C	0.725998	0.427365	0.333112
C75	C	1.059332	0.760699	0.666446
C76	C	0.124526	0.153843	-0.000277
C77	C	0.457859	0.487176	0.333056
C78	C	0.791192	0.820510	0.666389
C79	C	0.052078	0.152774	-0.000281
C80	C	0.385411	0.486107	0.333052
C81	C	0.718744	0.819441	0.666386
C82	C	0.069028	0.025506	-0.000267
C83	C	0.402362	0.358839	0.333066
C84	C	0.735695	0.692172	0.666399
C85	C	0.141475	0.026576	-0.000256
C86	C	0.474808	0.359910	0.333077
C87	C	0.808142	0.693243	0.666410
C88	C	0.169219	0.090747	-0.000265
C89	C	0.502552	0.424080	0.333069
C90	C	0.835886	0.757414	0.666402
C91	C	0.887309	-0.157129	-0.000214
C92	C	1.220642	0.176204	0.333119
C93	C	1.553975	0.509538	0.666452
C94	C	0.886243	-0.229953	-0.000226
C95	C	1.219576	0.103381	0.333107
C96	C	1.552909	0.436714	0.666441
C97	C	0.822408	-0.257844	-0.000211
C98	C	1.155742	0.075489	0.333123
C99	C	1.489075	0.408822	0.666456
C100	C	0.759636	-0.212906	-0.000203
C101	C	1.092969	0.120427	0.333130
C102	C	1.426302	0.453761	0.666464
C103	C	0.760704	-0.140084	-0.000199
C104	C	1.094037	0.193250	0.333135
C105	C	1.427370	0.526583	0.666468
N106	N	0.773608	-0.365848	0.042405
N107	N	1.106942	-0.032514	0.375739
N108	N	1.440275	0.300819	0.709072
N109	N	0.772598	-0.435026	0.042403
N110	N	1.105932	-0.101693	0.375736
N111	N	1.439265	0.231641	0.709070
C112	C	0.819187	-0.477253	-0.000225
C113	C	1.152520	-0.143919	0.333108
C114	C	1.485854	0.189414	0.666441
N115	N	0.866835	-0.447689	-0.042841
N116	N	1.200168	-0.114356	0.290492
N117	N	1.533502	0.218978	0.623825
N118	N	0.867847	-0.378504	-0.042836
N119	N	1.201180	-0.045171	0.290498
N120	N	1.534514	0.288162	0.623831
C121	C	0.821243	-0.336807	-0.000216
C122	C	1.154577	-0.003473	0.333117
C123	C	1.487910	0.329860	0.666451
C124	C	0.880800	-0.601146	-0.000251
C125	C	1.214133	-0.267813	0.333082
C126	C	1.547467	0.065521	0.666416
C127	C	0.879731	-0.673971	-0.000268
C128	C	1.213065	-0.340637	0.333066
C129	C	1.546398	-0.007304	0.666399
C130	C	0.753122	-0.656922	-0.000237
C131	C	1.086456	-0.323589	0.333097
C132	C	1.419789	0.009745	0.666430
C133	C	0.754193	-0.584099	-0.000228
C134	C	1.087526	-0.250766	0.333105
C135	C	1.420860	0.082568	0.666439
C136	C	0.818034	-0.556216	-0.000231
C137	C	1.151367	-0.222882	0.333102
C138	C	1.484700	0.110451	0.666435
C139	C	0.947227	0.087475	-0.000258
C140	C	1.280560	0.420808	0.333075
C141	C	1.613893	0.754141	0.666409
C142	C	1.024330	0.088609	-0.000283
C143	C	1.357664	0.421943	0.333051
C144	C	1.690997	0.755276	0.666384
C145	C	0.814762	0.220638	-0.000242
C146	C	1.148095	0.553972	0.333092
C147	C	1.481428	0.887305	0.666425
C148	C	0.815896	0.298143	-0.000253
C149	C	1.149230	0.631476	0.333080
C150	C	1.482563	0.964809	0.666413
N151	N	0.820199	0.092963	0.177931
N152	N	1.153532	0.426296	0.511264
N153	N	1.486865	0.759630	0.844597
N154	N	0.820247	0.092974	-0.178380
N155	N	1.153581	0.426307	0.154953
N156	N	1.486914	0.759641	0.488287
C157	C	0.867579	0.045372	0.217312
C158	C	1.200912	0.378705	0.550646
C159	C	1.534245	0.712038	0.883979
C160	C	0.867583	0.045368	0.296114
C161	C	1.200916	0.378702	0.629448
C162	C	1.534250	0.712035	0.962781
C163	C	0.820213	0.092969	0.335531
C164	C	1.153547	0.426302	0.668865
C165	C	1.486880	0.759635	1.002198
C166	C	0.772824	0.140564	0.296140
C167	C	1.106158	0.473897	0.629474
C168	C	1.439491	0.807230	0.962807
C169	C	0.772817	0.140561	0.217340
C170	C	1.106150	0.473894	0.550673
C171	C	1.439484	0.807228	0.884007
C172	C	0.810919	0.156585	0.460362
C173	C	1.144253	0.489919	0.793696
C174	C	1.477586	0.823252	1.127029
C175	C	0.810931	0.156589	0.539161
C176	C	1.144265	0.489922	0.872495
C177	C	1.477598	0.823256	1.205828
C178	C	0.820232	0.092977	0.578578
C179	C	1.153565	0.426310	0.911911
C180	C	1.486899	0.759644	1.245244
C181	C	0.829535	0.029359	0.539185
C182	C	1.162868	0.362692	0.872519
C183	C	1.496202	0.696025	1.205852
C184	C	0.829528	0.029356	0.460385
C185	C	1.162861	0.362689	0.793719
C186	C	1.496194	0.696022	1.127052
C187	C	0.820216	0.092977	0.420977
C188	C	1.153549	0.426310	0.754310
C189	C	1.486882	0.759643	1.087644
C190	C	0.867619	0.045378	0.703405
C191	C	1.200952	0.378711	1.036739
C192	C	1.534286	0.712045	1.370072
C193	C	0.867618	0.045374	0.782208
C194	C	1.200951	0.378707	1.115542
C195	C	1.534285	0.712041	1.448875
C196	C	0.772863	0.140575	0.782233
C197	C	1.106196	0.473909	1.115566
C198	C	1.439530	0.807242	1.448900
C199	C	0.772861	0.140573	0.703431
C200	C	1.106194	0.473907	1.036765
C201	C	1.439527	0.807240	1.370098
C202	C	0.820242	0.092976	0.664022
C203	C	1.153576	0.426309	0.997355
C204	C	1.486909	0.759642	1.330689
H205	H	0.594003	0.212680	-0.000201
H206	H	0.927336	0.546013	0.333132
H207	H	1.260670	0.879347	0.666465
C208	C	0.919704	-0.006983	0.339443
C209	C	1.253037	0.326351	0.672777
C210	C	1.586371	0.659684	1.006110
H211	H	0.947923	-0.035328	0.304686
H212	H	1.281256	0.298006	0.638020
H213	H	1.614590	0.631339	0.971353
H214	H	0.894815	-0.035983	0.370207
H215	H	1.228148	0.297350	0.703540
H216	H	1.561481	0.630684	1.036873
H217	H	0.948540	0.018071	0.370158
H218	H	1.281874	0.351404	0.703492
H219	H	1.615207	0.684737	1.036825
C220	C	0.720702	0.192919	0.174018
C221	C	1.054035	0.526252	0.507352
C222	C	1.387368	0.859585	0.840685
H223	H	0.692492	0.221271	0.208777
H224	H	1.025825	0.554604	0.542110
H225	H	1.359158	0.887937	0.875443
H226	H	0.691866	0.167877	0.143296
H227	H	1.025200	0.501210	0.476630
H228	H	1.358533	0.834544	0.809963
H229	H	0.745601	0.221921	0.143262
H230	H	1.078935	0.555255	0.476595
H231	H	1.412268	0.888588	0.809928
C232	C	0.230480	0.194215	0.091858
C233	C	0.563813	0.527549	0.425191
C234	C	0.897147	0.860882	0.758525
H235	H	0.258549	0.223720	0.117978
H236	H	0.591882	0.557054	0.451311
H237	H	0.925216	0.890387	0.784645
H238	H	0.205416	0.169659	0.127124
H239	H	0.538749	0.502992	0.460457
H240	H	0.872083	0.836326	0.793790
H241	H	0.198480	0.221994	0.060226
H242	H	0.531814	0.555327	0.393559
H243	H	0.865147	0.888660	0.726893
C244	C	0.948776	-0.723393	-0.000279
C245	C	1.282109	-0.390060	0.333054
C246	C	1.615443	-0.056726	0.666387
H247	H	0.986947	-0.696353	-0.000273
H248	H	1.320280	-0.363020	0.333060
H249	H	1.653614	-0.029687	0.666393
H250	H	0.951004	-0.752146	-0.043938
H251	H	1.284337	-0.418812	0.289396
H252	H	1.617670	-0.085479	0.622729
H253	H	0.950978	-0.752164	0.043380
H254	H	1.284311	-0.418831	0.376713
H255	H	1.617645	-0.085497	0.710046
C256	C	0.800704	0.226565	0.582485
C257	C	1.134037	0.559898	0.915819
C258	C	1.467370	0.893232	1.249152
H259	H	0.795152	0.264449	0.547726
H260	H	1.128485	0.597783	0.881060
H261	H	1.461819	0.931116	1.214393
H262	H	0.840381	0.230342	0.613200
H263	H	1.173715	0.563675	0.946533
H264	H	1.507048	0.897008	1.279867
H265	H	0.760256	0.228080	0.613249
H266	H	1.093589	0.561413	0.946583
H267	H	1.426923	0.894747	1.279916
C268	C	0.002913	0.222179	-0.000304
C269	C	0.336246	0.555513	0.333030
C270	C	0.669580	0.888846	0.666363
H271	H	-0.044207	0.212355	-0.000303
H272	H	0.289126	0.545688	0.333030
H273	H	0.622460	0.879021	0.666363
H274	H	0.011327	0.248498	-0.043963
H275	H	0.344660	0.581831	0.289370
H276	H	0.677993	0.915164	0.622703
H277	H	0.011281	0.248501	0.043354
H278	H	0.344615	0.581834	0.376688
H279	H	0.677948	0.915168	0.710021
H280	H	0.906198	0.006619	0.671317
H281	H	1.239531	0.339952	1.004650
H282	H	1.572865	0.673286	1.337984
H283	H	0.932783	-0.578442	-0.000257
H284	H	1.266116	-0.245109	0.333076
H285	H	1.599450	0.088225	0.666409
C286	C	0.720756	0.192936	0.660106
C287	C	1.054089	0.526269	0.993439
C288	C	1.387423	0.859603	1.326772
H289	H	0.727534	0.186116	0.607530
H290	H	1.060868	0.519449	0.940864
H291	H	1.394201	0.852783	1.274197
H292	H	0.728162	0.239513	0.673007
H293	H	1.061495	0.572846	1.006341
H294	H	1.394828	0.906180	1.339674
H295	H	0.674421	0.185474	0.673043
H296	H	1.007754	0.518808	1.006376
H297	H	1.341088	0.852141	1.339709
H298	H	0.837108	-0.022440	0.571277
H299	H	1.170441	0.310893	0.904610
H300	H	1.503775	0.644226	1.237943
C301	C	0.919740	-0.006978	0.825529
C302	C	1.253074	0.326355	1.158862
C303	C	1.586407	0.659689	1.492195
H304	H	0.947960	-0.035319	0.790769
H305	H	1.281294	0.298015	1.124102
H306	H	1.614627	0.631348	1.457436
H307	H	0.894853	-0.035983	0.856290
H308	H	1.228186	0.297351	1.189623
H309	H	1.561520	0.630684	1.522956
H310	H	0.948576	0.018075	0.856246
H311	H	1.281909	0.351408	1.189579
H312	H	1.615242	0.684741	1.522912
C313	C	0.257841	-0.010518	-0.092347
C314	C	0.591174	0.322816	0.240987
C315	C	0.924508	0.656149	0.574320
H316	H	0.293672	-0.039084	-0.118450
H317	H	0.627005	0.294249	0.214884
H318	H	0.960339	0.627582	0.548217
H319	H	0.226385	0.013199	-0.127627
H320	H	0.559718	0.346532	0.205707
H321	H	0.893052	0.679865	0.539040
H322	H	0.233318	-0.039125	-0.060719
H323	H	0.566652	0.294208	0.272614
H324	H	0.899985	0.627542	0.605948
H325	H	0.937355	-0.266541	-0.000239
H326	H	1.270688	0.066793	0.333094
H327	H	1.604021	0.400126	0.666428
C328	C	0.382609	0.196454	0.091883
C329	C	0.715942	0.529787	0.425216
C330	C	1.049275	0.863120	0.758549
H331	H	0.346783	0.225010	0.118004
H332	H	0.680116	0.558344	0.451337
H333	H	1.013449	0.891677	0.784670
H334	H	0.407136	0.225063	0.060268
H335	H	0.740469	0.558396	0.393602
H336	H	1.073802	0.891729	0.726935
H337	H	0.414063	0.172721	0.127160
H338	H	0.747397	0.506055	0.460493
H339	H	1.080730	0.839388	0.793826
C340	C	0.409969	-0.008267	-0.092330
C341	C	0.743303	0.325067	0.241003
C342	C	1.076636	0.658400	0.574336
H343	H	0.381900	-0.037761	-0.118465
H344	H	0.715233	0.295572	0.214868
H345	H	1.048567	0.628905	0.548201
H346	H	0.441971	-0.036046	-0.060709
H347	H	0.775305	0.297287	0.272624
H348	H	1.108638	0.630620	0.605958
H349	H	0.435029	0.016301	-0.127595
H350	H	0.768363	0.349634	0.205738
H351	H	1.101696	0.682968	0.539071
C352	C	0.449799	0.228765	-0.000227
C353	C	0.783132	0.562099	0.333107
C354	C	1.116466	0.895432	0.666440
H355	H	0.402680	0.218937	-0.000231
H356	H	0.736013	0.552270	0.333103
H357	H	1.069347	0.885604	0.666436
H358	H	0.458214	0.255085	-0.043885
H359	H	0.791547	0.588418	0.289448
H360	H	1.124880	0.921752	0.622782
H361	H	0.458162	0.255087	0.043432
H362	H	0.791496	0.588420	0.376766
H363	H	1.124829	0.921753	0.710099
H364	H	0.701147	-0.679631	-0.000228
H365	H	1.034481	-0.346297	0.333105
H366	H	1.367814	-0.012964	0.666439
H367	H	0.177864	-0.024802	-0.000244
H368	H	0.511197	0.308531	0.333089
H369	H	0.844531	0.641865	0.666423
C370	C	0.800693	0.226563	0.417012
C371	C	1.134027	0.559896	0.750345
C372	C	1.467360	0.893230	1.083679
H373	H	0.795166	0.264451	0.451756
H374	H	1.128499	0.597784	0.785090
H375	H	1.461833	0.931117	1.118423
H376	H	0.760245	0.228084	0.386291
H377	H	1.093578	0.561417	0.719624
H378	H	1.426912	0.894750	1.052958
H379	H	0.840372	0.230329	0.386253
H380	H	1.173706	0.563663	0.719586
H381	H	1.507039	0.896996	1.052919
H382	H	0.046433	-0.026738	-0.000317
H383	H	0.379767	0.306595	0.333017
H384	H	0.713100	0.639929	0.666350
H385	H	0.493320	-0.020148	-0.000193
H386	H	0.826653	0.313185	0.333140
H387	H	1.159987	0.646518	0.666474
C388	C	0.720757	0.192935	0.825582
C389	C	1.054091	0.526268	1.158916
C390	C	1.387424	0.859601	1.492249
H391	H	0.727549	0.186123	0.878154
H392	H	1.060882	0.519457	1.211487
H393	H	1.394216	0.852790	1.544821
H394	H	0.674425	0.185471	0.812694
H395	H	1.007759	0.518805	1.146028
H396	H	1.341092	0.852138	1.479361
H397	H	0.728160	0.239516	0.812652
H398	H	1.061494	0.572849	1.145985
H399	H	1.394827	0.906183	1.479319
H400	H	0.624755	-0.018218	-0.000148
H401	H	0.958088	0.315115	0.333185
H402	H	1.291422	0.648449	0.666518
C403	C	0.685151	-0.534675	-0.000202
C404	C	1.018484	-0.201342	0.333131
C405	C	1.351818	0.131991	0.666465
H406	H	0.646980	-0.561714	-0.000188
H407	H	0.980313	-0.228381	0.333145
H408	H	1.313647	0.104952	0.666479
H409	H	0.682940	-0.505901	-0.043854
H410	H	1.016273	-0.172568	0.289480
H411	H	1.349607	0.160766	0.622813
H412	H	0.682933	-0.505926	0.043464
H413	H	1.016266	-0.172593	0.376797
H414	H	1.349599	0.160740	0.710130
C415	C	0.155051	0.224424	-0.000278
C416	C	0.488385	0.557757	0.333056
C417	C	0.821718	0.891091	0.666389
H418	H	0.204599	0.216024	-0.000276
H419	H	0.537932	0.549357	0.333058
H420	H	0.871265	0.882691	0.666391
H421	H	0.139675	0.250392	0.043374
H422	H	0.473009	0.583725	0.376707
H423	H	0.806342	0.917059	0.710041
H424	H	0.139718	0.250396	-0.043944
H425	H	0.473052	0.583729	0.289390
H426	H	0.806385	0.917062	0.622723
H427	H	0.939293	-0.134431	-0.000220
H428	H	1.272626	0.198902	0.333114
H429	H	1.605960	0.532235	0.666447
C430	C	0.720721	0.192924	0.339496
C431	C	1.054055	0.526258	0.672829
C432	C	1.387388	0.859591	1.006162
H433	H	0.727516	0.186115	0.392067
H434	H	1.060850	0.519449	0.725400
H435	H	1.394183	0.852782	1.058734
H436	H	0.674389	0.185461	0.326612
H437	H	1.007722	0.518794	0.659945
H438	H	1.341056	0.852127	0.993278
H439	H	0.728124	0.239505	0.326562
H440	H	1.061457	0.572839	0.659896
H441	H	1.394790	0.906172	0.993229
C442	C	0.689418	-0.243580	-0.000189
C443	C	1.022752	0.089753	0.333144
C444	C	1.356085	0.423086	0.666478
H445	H	0.652189	-0.206389	-0.000188
H446	H	0.985522	0.126944	0.333146
H447	H	1.318856	0.460277	0.666479
H448	H	0.686359	-0.271644	0.043465
H449	H	1.019693	0.061689	0.376798
H450	H	1.353026	0.395023	0.710132
H451	H	0.686381	-0.271624	-0.043852
H452	H	1.019714	0.061710	0.289481
H453	H	1.353048	0.395043	0.622814
C454	C	0.691662	-0.090657	-0.000184
C455	C	1.024995	0.242676	0.333150
C456	C	1.358328	0.576009	0.666483
H457	H	0.701441	-0.043293	-0.000187
H458	H	1.034774	0.290040	0.333146
H459	H	1.368107	0.623373	0.666480
H460	H	0.665466	-0.099099	0.043475
H461	H	0.998799	0.234234	0.376808
H462	H	1.332133	0.567568	0.710141
H463	H	0.665488	-0.099079	-0.043843
H464	H	0.998821	0.234255	0.289491
H465	H	1.332154	0.567588	0.622824
C466	C	0.919689	-0.006991	0.173966
C467	C	1.253022	0.326342	0.507300
C468	C	1.586356	0.659676	0.840633
H469	H	0.947903	-0.035340	0.208712
H470	H	1.281237	0.297993	0.542045
H471	H	1.614570	0.631327	0.875378
H472	H	0.948521	0.018047	0.143200
H473	H	1.281854	0.351380	0.476534
H474	H	1.615188	0.684714	0.809867
H475	H	0.894785	-0.035997	0.143252
H476	H	1.228119	0.297337	0.476586
H477	H	1.561452	0.630670	0.809919
H478	H	0.837101	-0.022444	0.428315
H479	H	1.170434	0.310889	0.761649
H480	H	1.503767	0.644222	1.094982
