data_functionalizedCrystal
_audit_creation_method	'MofGen! by Chris Wilmer'
_symmetry_space_group_name_H-M	'P1'
_symmetry_Int_Tables_number	1
_symmetry_cell_setting	triclinic
loop_
_symmetry_equiv_pos_as_xyz
  x,y,z
_cell_length_a	8.497366
_cell_length_b	10.685980
_cell_length_c	10.686285
_cell_angle_alpha	90.334291
_cell_angle_beta	94.417160
_cell_angle_gamma	85.593218
loop_
_atom_site_label
_atom_site_type_symbol
_atom_site_fract_x
_atom_site_fract_y
_atom_site_fract_z
Zn1	Zn	-1.046085	1.956499	0.352083
Zn2	Zn	-0.763731	1.972452	0.561977
Zn3	Zn	-0.760616	1.746666	0.368301
Zn4	Zn	-1.005814	1.762802	0.577883
O5	O	-0.894061	1.859605	0.465061
O6	O	-1.026787	2.134171	0.366482
O7	O	-0.542535	1.942424	0.536416
O8	O	-0.814034	1.761071	0.190598
O9	O	-0.819343	2.145891	0.520690
O10	O	-1.023767	1.915235	0.178683
O11	O	-0.540246	1.776540	0.394123
O12	O	-0.774985	1.573251	0.409547
O13	O	-1.231938	1.788573	0.547800
O14	O	-0.955130	1.585106	0.563525
O15	O	-1.261525	1.930881	0.381906
O16	O	-0.780293	1.958071	0.739638
O17	O	-0.958151	1.804042	0.751324
C18	C	-0.860350	1.533659	0.490023
C19	C	-0.845963	1.394220	0.500732
C20	C	-0.865228	1.884573	0.790997
C21	C	-0.852958	1.895369	0.930425
C22	C	-0.305560	1.859669	0.464941
C23	C	-0.484163	1.859523	0.465216
C24	C	-0.927905	2.186823	0.440003
C25	C	-0.942327	2.326264	0.429324
C26	C	-0.923045	1.834573	0.137849
C27	C	-0.935397	1.823907	-0.001589
H28	H	-1.035832	1.374758	0.359990
H29	H	-0.752442	1.345719	0.570063
C30	C	-0.744905	1.989181	0.995889
C31	C	-0.774245	2.130415	0.966935
C32	C	-0.666194	2.224225	1.032399
C33	C	-0.528804	2.176800	1.126816
C34	C	-0.499458	2.035559	1.155774
C35	C	-0.607509	1.941749	1.090311
H36	H	-0.875955	2.165527	0.897038
H37	H	-0.687919	2.328781	1.010961
H38	H	-0.448819	2.246244	1.175276
H39	H	-0.397748	2.000447	1.225671
H40	H	-0.585784	1.837193	1.111748
C41	C	-1.043444	1.730100	0.932953
C42	C	-0.972630	1.624744	0.850527
C43	C	-1.080679	1.530936	0.785059
C44	C	-1.259541	1.542482	0.802018
C45	C	-1.330364	1.647842	0.884447
C46	C	-1.222315	1.741651	0.949915
H47	H	-0.840217	1.616192	0.837970
H48	H	-1.028250	1.452941	0.724039
H49	H	-1.339525	1.473040	0.753555
H50	H	-1.462777	1.656394	0.897004
H51	H	-1.274744	1.819645	1.010935
