data_functionalizedCrystal
_audit_creation_method	'MofGen! by Chris Wilmer'
_symmetry_space_group_name_H-M	'P1'
_symmetry_Int_Tables_number	1
_symmetry_cell_setting	triclinic
loop_
_symmetry_equiv_pos_as_xyz
  x,y,z
_cell_length_a	12.759401
_cell_length_b	12.759400
_cell_length_c	12.759393
_cell_angle_alpha	90.027853
_cell_angle_beta	90.019625
_cell_angle_gamma	90.013328
loop_
_atom_site_label
_atom_site_type_symbol
_atom_site_fract_x
_atom_site_fract_y
_atom_site_fract_z
Zn1	Zn	1.606269	-0.418242	0.594003
Zn2	Zn	1.606162	-0.593958	0.418331
Zn3	Zn	1.430568	-0.418291	0.418342
Zn4	Zn	1.430561	-0.593877	0.593972
O5	O	1.518390	-0.506092	0.506162
O6	O	1.753276	-0.441565	0.570708
O7	O	1.582827	-0.570709	0.271311
O8	O	1.453923	-0.271263	0.441661
O9	O	1.753197	-0.570662	0.441642
O10	O	1.583010	-0.271228	0.570718
O11	O	1.453819	-0.441647	0.271319
O12	O	1.283546	-0.441569	0.441631
O13	O	1.453912	-0.570524	0.740997
O14	O	1.283541	-0.570571	0.570666
O15	O	1.583004	-0.441486	0.741020
O16	O	1.582820	-0.740968	0.441613
O17	O	1.453807	-0.740909	0.570655
C18	C	1.245423	-0.506067	0.506147
C19	C	1.128646	-0.506082	0.506166
C20	C	1.073818	-0.438988	0.573474
C21	C	0.964094	-0.439008	0.573481
C22	C	0.964035	-0.573225	0.438868
C23	C	1.073758	-0.573199	0.438857
C24	C	1.073851	-0.361501	0.651195
C25	C	0.964127	-0.361521	0.651202
C26	C	1.518330	-0.779059	0.506152
C27	C	1.518400	-0.895836	0.506184
C28	C	1.451209	-0.950705	0.573323
C29	C	1.451264	-1.060429	0.573333
C30	C	1.585712	-1.060405	0.439061
C31	C	1.585650	-0.950683	0.439047
C32	C	1.373589	-0.950720	0.650847
C33	C	1.373645	-1.060444	0.650857
C34	C	1.792423	-0.506117	0.506177
C35	C	1.909200	-0.506128	0.506184
C36	C	1.518469	-0.505991	0.780195
C37	C	1.518502	-0.505948	0.896972
C38	C	1.518479	-0.232059	0.506194
C39	C	1.518517	-0.115282	0.506208
C40	C	1.518372	-0.506117	0.233194
C41	C	1.518542	-0.505864	0.116418
C42	C	1.585725	-0.438747	0.951847
C43	C	1.585743	-0.438702	1.061571
C44	C	1.451312	-0.573067	1.061535
C45	C	1.451289	-0.573107	0.951813
H46	H	0.930085	-0.284193	0.622199
O47	O	1.412048	-0.905574	0.753297
H48	H	1.493475	-0.932405	0.768010
H49	H	1.292213	-0.921022	0.628984
H50	H	1.103617	-0.280098	0.629538
H51	H	1.396592	-0.627748	1.106200
H52	H	1.640452	-0.384060	0.907199
H53	H	1.296381	-1.094553	0.621650
O54	O	1.378778	-0.645580	0.892606
H55	H	1.325339	-0.598545	0.842628
O56	O	1.658253	-0.366228	1.120763
H57	H	1.704989	-0.319544	1.064191
H58	H	1.395356	-1.090156	0.732265
O59	O	0.924713	-0.390537	0.758931
H60	H	0.992434	-0.404738	0.811665
O61	O	1.132899	-0.645548	0.366245
H62	H	1.076295	-0.692224	0.319449
O63	O	0.904836	-0.645614	0.366270
H64	H	0.854869	-0.699142	0.413201
O65	O	1.118987	-0.400207	0.753510
H66	H	1.092086	-0.481658	0.767969
O67	O	1.658117	-0.891497	0.366630
H68	H	1.704896	-0.948072	0.319959
H69	H	1.640464	-1.105075	0.384400
