data_functionalizedCrystal
_audit_creation_method	'MofGen! by Chris Wilmer'
_symmetry_space_group_name_H-M	'P1'
_symmetry_Int_Tables_number	1
_symmetry_cell_setting	triclinic
loop_
_symmetry_equiv_pos_as_xyz
  x,y,z
_cell_length_a	10.654545
_cell_length_b	11.792254
_cell_length_c	9.730223
_cell_angle_alpha	89.995422
_cell_angle_beta	89.997167
_cell_angle_gamma	84.340838
loop_
_atom_site_label
_atom_site_type_symbol
_atom_site_fract_x
_atom_site_fract_y
_atom_site_fract_z
O1	O	1.667399	0.159394	-0.114277
O2	O	1.301878	0.174588	-0.114283
O3	O	1.493501	0.001842	-0.114270
O4	O	1.475777	0.332140	-0.114290
O5	O	1.493488	0.001837	0.114310
O6	O	1.301866	0.174583	0.114297
O7	O	1.667387	0.159390	0.114303
Zn8	Zn	1.484624	0.166986	0.150592
Zn9	Zn	1.484641	0.166992	-0.150572
O10	O	1.475765	0.332136	0.114290
C11	C	1.255077	0.173471	0.000007
C12	C	1.115643	0.170137	0.000005
C13	C	1.050136	0.168564	0.124604
C14	C	0.919125	0.165412	0.124605
C15	C	0.919139	0.165410	-0.124606
C16	C	1.050149	0.168554	-0.124605
C17	C	1.492378	-0.040454	0.000020
C18	C	1.489036	-0.166474	0.000018
C19	C	1.486321	-0.268817	0.000013
C20	C	1.482926	-0.397212	0.000001
C21	C	1.714188	0.160506	0.000011
C22	C	1.853623	0.163841	0.000004
C23	C	1.476887	0.374431	-0.000002
C24	C	1.480229	0.500452	-0.000010
N25	N	1.484622	0.166981	0.356128
N26	N	1.484653	0.166988	-0.356108
C27	C	1.569502	0.090521	0.428060
C28	C	1.569515	0.090522	0.571943
C29	C	1.399764	0.243451	0.571950
C30	C	1.399746	0.243444	0.428070
H31	H	1.638612	0.028259	0.369489
C32	C	1.662879	0.006419	0.651068
H33	H	1.650728	0.017361	0.747063
H34	H	1.746774	0.019448	0.627473
H35	H	1.648717	-0.069453	0.627498
C36	C	0.847093	0.163700	-0.261668
H37	H	0.904875	0.165082	-0.335875
H38	H	0.786865	0.228551	-0.266840
H39	H	0.805109	0.096399	-0.266857
H40	H	1.103486	0.169831	-0.226075
C41	C	1.306420	0.327564	0.651090
H42	H	1.318595	0.316627	0.747083
H43	H	1.222518	0.314536	0.627534
H44	H	1.320581	0.403433	0.627489
C45	C	1.122183	0.170295	0.261664
H46	H	1.209589	0.172403	0.243824
H47	H	1.109839	0.103708	0.312867
H48	H	1.091577	0.235859	0.312853
C49	C	1.306377	0.327557	0.348940
H50	H	1.255843	0.373107	0.412390
H51	H	1.253820	0.286283	0.292829
H52	H	1.351877	0.375185	0.292796
H53	H	0.865795	0.164133	0.226066
