data_functionalizedCrystal
_audit_creation_method	'MofGen! by Chris Wilmer'
_symmetry_space_group_name_H-M	'P1'
_symmetry_Int_Tables_number	1
_symmetry_cell_setting	triclinic
loop_
_symmetry_equiv_pos_as_xyz
  x,y,z
_cell_length_a	16.109295
_cell_length_b	14.185569
_cell_length_c	16.109301
_cell_angle_alpha	103.152416
_cell_angle_beta	96.539666
_cell_angle_gamma	103.153123
loop_
_atom_site_label
_atom_site_type_symbol
_atom_site_fract_x
_atom_site_fract_y
_atom_site_fract_z
O1	O	-1.084284	0.083355	0.125686
O2	O	-0.842218	0.083372	0.138994
O3	O	-0.969903	0.083353	0.011307
O4	O	-0.956599	0.083374	0.253374
O5	O	-1.007623	-0.083487	-0.026409
O6	O	-0.879937	-0.083468	0.101278
O7	O	-1.122004	-0.083485	0.087970
Cu8	Cu	-1.004414	-0.098710	0.091181
Cu9	Cu	-0.959807	0.098598	0.135784
O10	O	-0.994318	-0.083466	0.215658
C11	C	-0.830102	-0.000046	0.119599
C12	C	-0.737805	-0.000039	0.117987
C13	C	-0.515533	-0.000044	0.189998
C14	C	-0.428814	-0.000050	0.188474
C15	C	-0.448690	-0.000059	0.036983
C16	C	-0.535409	-0.000060	0.038506
C17	C	-0.568827	-0.000047	0.115017
C18	C	-0.395389	-0.000052	0.111970
C19	C	-0.301364	-0.000059	0.110318
C20	C	-0.662858	-0.000042	0.116670
N21	N	-1.035795	-0.237486	0.059808
C22	C	-0.836237	-0.605106	0.259285
C23	C	-0.860013	-0.710131	0.235527
C24	C	-0.973101	-0.710109	0.122501
C25	C	-0.949332	-0.605082	0.146248
C26	C	-0.880900	-0.552589	0.214641
C27	C	-0.993995	-0.552565	0.101603
C28	C	-0.970230	-0.447546	0.125351
C29	C	-0.901802	-0.395046	0.193743
C30	C	-0.857135	-0.447570	0.238388
C31	C	-1.062430	-0.605060	0.033214
C32	C	-1.107093	-0.552543	-0.011430
C33	C	-1.083325	-0.447523	0.012313
C34	C	-1.014897	-0.395022	0.080705
C35	C	-1.127992	-0.394998	-0.032332
C36	C	-1.104227	-0.289980	-0.008585
C37	C	-0.991132	-0.290004	0.104453
C38	C	-0.134118	-0.000064	0.107372
C39	C	-0.226411	-0.000060	0.109001
C40	C	-0.988224	-0.000068	-0.038526
C41	C	-0.986609	-0.000069	-0.130822
N42	N	-0.928433	0.237373	0.167150
C43	C	-1.058615	-0.000058	-0.353093
C44	C	-1.057089	-0.000050	-0.439812
C45	C	-0.905598	-0.000043	-0.419933
C46	C	-0.907123	-0.000044	-0.333214
C47	C	-0.983635	-0.000057	-0.299798
C48	C	-0.980584	-0.000047	-0.473235
C49	C	-0.978929	-0.000038	-0.567259
C50	C	-0.985290	-0.000064	-0.205768
C51	C	-0.975997	-0.000043	0.265491
C52	C	-0.977610	-0.000035	0.357788
H53	H	-0.421472	-0.000076	-0.025311
Br54	Br	-0.356489	-0.000050	0.290238
Br55	Br	-1.162452	-0.000076	-0.307745
Br56	Br	-1.199967	-0.623790	-0.104243
Br57	Br	-0.898247	-0.218757	0.197263
Br58	Br	-1.220872	-0.466248	-0.125137
Br59	Br	-1.158850	-0.000046	-0.512137
Br60	Br	-0.764249	-0.376324	0.331198
Br61	Br	-0.743351	-0.533859	0.352095
H62	H	-0.843305	-0.000034	-0.447151
H63	H	-1.081780	-0.690572	0.013884
H64	H	-0.542740	-0.000041	0.252297
H65	H	-0.846062	-0.000040	-0.289818
H66	H	-1.140598	-0.247220	-0.044939
H67	H	-0.578805	-0.000066	-0.022557
Br68	Br	-0.799392	-0.781398	0.296131
H69	H	-0.882456	-0.309533	0.213080
H70	H	-1.028822	-0.752861	0.066817
