data_functionalizedCrystal
_audit_creation_method	'MofGen! by Chris Wilmer'
_symmetry_space_group_name_H-M	'P1'
_symmetry_Int_Tables_number	1
_symmetry_cell_setting	triclinic
loop_
_symmetry_equiv_pos_as_xyz
  x,y,z
_cell_length_a	21.395362
_cell_length_b	21.295417
_cell_length_c	21.395355
_cell_angle_alpha	90.021451
_cell_angle_beta	90.043940
_cell_angle_gamma	90.046383
loop_
_atom_site_label
_atom_site_type_symbol
_atom_site_fract_x
_atom_site_fract_y
_atom_site_fract_z
Zn1	Zn	0.957860	-0.250415	0.354573
Zn2	Zn	1.291194	0.082918	0.687906
Zn3	Zn	1.624527	0.416251	1.021239
Zn4	Zn	0.957763	-0.355667	0.249790
Zn5	Zn	1.291097	-0.022334	0.583123
Zn6	Zn	1.624430	0.311000	0.916457
Zn7	Zn	0.853075	-0.250445	0.249774
Zn8	Zn	1.186409	0.082889	0.583107
Zn9	Zn	1.519742	0.416222	0.916441
Zn10	Zn	0.853045	-0.355680	0.354495
Zn11	Zn	1.186378	-0.022346	0.687828
Zn12	Zn	1.519712	0.310987	1.021161
O13	O	0.905436	-0.303052	0.302158
O14	O	1.238769	0.030282	0.635491
O15	O	1.572103	0.363615	0.968825
O16	O	1.045525	-0.264359	0.340713
O17	O	1.378859	0.068974	0.674046
O18	O	1.712192	0.402307	1.007379
O19	O	0.943848	-0.341716	0.162110
O20	O	1.277182	-0.008382	0.495443
O21	O	1.610515	0.324951	0.828777
O22	O	0.867029	-0.162351	0.263702
O23	O	1.200362	0.170982	0.597035
O24	O	1.533695	0.504315	0.930369
O25	O	1.045454	-0.341687	0.263729
O26	O	1.378787	-0.008354	0.597062
O27	O	1.712121	0.324979	0.930396
O28	O	0.944014	-0.162330	0.340697
O29	O	1.277347	0.171004	0.674030
O30	O	1.610680	0.504337	1.007364
O31	O	0.866934	-0.264409	0.162098
O32	O	1.200268	0.068924	0.495432
O33	O	1.533601	0.402257	0.828765
O34	O	0.765393	-0.264422	0.263626
O35	O	1.098727	0.068911	0.596959
O36	O	1.432060	0.402245	0.930293
O37	O	0.866977	-0.341709	0.442183
O38	O	1.200310	-0.008376	0.775516
O39	O	1.533643	0.324957	1.108850
O40	O	0.765371	-0.341738	0.340564
O41	O	1.098704	-0.008404	0.673897
O42	O	1.432038	0.324929	1.007231
O43	O	0.943984	-0.264372	0.442240
O44	O	1.277318	0.068961	0.775574
O45	O	1.610651	0.402295	1.108907
O46	O	0.943819	-0.443758	0.263653
O47	O	1.277152	-0.110425	0.596987
O48	O	1.610485	0.222909	0.930320
O49	O	0.866883	-0.443767	0.340579
O50	O	1.200216	-0.110434	0.673913
O51	O	1.533549	0.222899	1.007246
C52	C	0.742648	-0.303085	0.302085
C53	C	1.075982	0.030248	0.635419
C54	C	1.409315	0.363582	0.968752
C55	C	0.673007	-0.303114	0.302069
C56	C	1.006340	0.030219	0.635402
C57	C	1.339674	0.363552	0.968736
C58	C	0.640299	-0.343426	0.342070
C59	C	0.973632	-0.010093	0.675404
C60	C	1.306965	0.323241	1.008737
C61	C	0.574863	-0.343411	0.342098
C62	C	0.908197	-0.010077	0.675432
C63	C	1.241530	0.323256	1.008765
C64	C	0.542139	-0.303090	0.302114
C65	C	0.875472	0.030243	0.635447
C66	C	1.208805	0.363577	0.968780
C67	C	0.574855	-0.262771	0.262109
C68	C	0.908188	0.070563	0.595443
C69	C	1.241522	0.403896	0.928776
C70	C	0.640289	-0.262783	0.262087
C71	C	0.973622	0.070551	0.595420
C72	C	1.306956	0.403884	0.928754
C73	C	0.438414	-0.298019	0.245709
C74	C	0.771747	0.035314	0.579042
C75	C	1.105081	0.368648	0.912375
C76	C	0.372981	-0.298011	0.245730
C77	C	0.706314	0.035322	0.579063
C78	C	1.039648	0.368655	0.912397
C79	C	0.340318	-0.303049	0.302183
C80	C	0.673651	0.030284	0.635516
C81	C	1.006985	0.363618	0.968849
C82	C	0.373096	-0.308108	0.358616
C83	C	0.706429	0.025226	0.691949
C84	C	1.039763	0.358559	1.025283
C85	C	0.438530	-0.308120	0.358594
C86	C	0.771863	0.025213	0.691927
C87	C	1.105197	0.358547	1.025261
C88	C	0.471186	-0.303072	0.302134
C89	C	0.804520	0.030261	0.635467
C90	C	1.137853	0.363594	0.968800
C91	C	0.236657	-0.343346	0.342218
C92	C	0.569990	-0.010013	0.675551
C93	C	0.903324	0.323321	1.008885
C94	C	0.171221	-0.343326	0.342247
C95	C	0.504554	-0.009993	0.675580
C96	C	0.837887	0.323340	1.008914
C97	C	0.171214	-0.262690	0.262252
C98	C	0.504547	0.070644	0.595586
C99	C	0.837880	0.403977	0.928919
C100	C	0.236649	-0.262706	0.262229
C101	C	0.569982	0.070627	0.595562
C102	C	0.903316	0.403961	0.928896
C103	C	0.269367	-0.303038	0.302211
C104	C	0.602700	0.030296	0.635544
C105	C	0.936033	0.363629	0.968878
C106	C	0.905354	-0.466603	0.302123
C107	C	1.238687	-0.133270	0.635457
C108	C	1.572020	0.200063	0.968790
C109	C	0.905376	-0.536571	0.302129
C110	C	1.238709	-0.203238	0.635463
C111	C	1.572043	0.130095	0.968796
C112	C	0.945472	-0.569412	0.262115
C113	C	1.278806	-0.236079	0.595448
C114	C	1.612139	0.097254	0.928782
C115	C	0.945502	-0.635155	0.262129
C116	C	1.278835	-0.301821	0.595462
C117	C	1.612168	0.031512	0.928796
C118	C	0.905424	-0.668054	0.302151
C119	C	1.238757	-0.334721	0.635484
C120	C	1.572090	-0.001387	0.968818
C121	C	0.865324	-0.635205	0.342173
C122	C	1.198658	-0.301872	0.675506
C123	C	1.531991	0.031462	1.008840
C124	C	0.865301	-0.569464	0.342162
C125	C	1.198634	-0.236131	0.675496
C126	C	1.531967	0.097203	1.008829
N127	N	0.850614	-0.771336	0.306903
N128	N	1.183947	-0.438002	0.640236
N129	N	1.517280	-0.104669	0.973570
N130	N	0.850638	-0.833787	0.306910
N131	N	1.183971	-0.500454	0.640243
N132	N	1.517305	-0.167121	0.973576
C133	C	0.905494	-0.866129	0.302187
C134	C	1.238827	-0.532795	0.635520
C135	C	1.572160	-0.199462	0.968854
N136	N	0.960325	-0.833659	0.297445
N137	N	1.293659	-0.500326	0.630778
N138	N	1.626992	-0.166993	0.964112
N139	N	0.960300	-0.771202	0.297435
N140	N	1.293634	-0.437869	0.630769
N141	N	1.626967	-0.104535	0.964102
C142	C	0.905445	-0.739339	0.302167
C143	C	1.238778	-0.406006	0.635501
C144	C	1.572112	-0.072673	0.968834
C145	C	0.945625	-0.970255	0.262186
C146	C	1.278959	-0.636922	0.595519
C147	C	1.612292	-0.303588	0.928852
C148	C	0.945656	-1.035999	0.262204
C149	C	1.278989	-0.702665	0.595537
C150	C	1.612322	-0.369332	0.928871
C151	C	0.865473	-1.036048	0.342245
C152	C	1.198806	-0.702714	0.675578
C153	C	1.532140	-0.369381	1.008912
C154	C	0.865448	-0.970305	0.342230
C155	C	1.198781	-0.636972	0.675563
C156	C	1.532115	-0.303639	1.008896
C157	C	0.905523	-0.937413	0.302197
C158	C	1.238857	-0.604079	0.635530
C159	C	1.572190	-0.270746	0.968863
C160	C	1.068859	-0.303019	0.302231
C161	C	1.402193	0.030315	0.635565
C162	C	1.735526	0.363648	0.968898
C163	C	1.138501	-0.303005	0.302262
C164	C	1.471834	0.030329	0.635596
C165	C	1.805167	0.363662	0.968929
C166	C	0.905488	-0.303039	0.465581
C167	C	1.238821	0.030294	0.798915
C168	C	1.572155	0.363628	1.132248
C169	C	0.905510	-0.303033	0.535223
C170	C	1.238843	0.030300	0.868556
C171	C	1.572177	0.363633	1.201889
C172	C	0.905535	-0.138861	0.302206
C173	C	1.238869	0.194472	0.635540
C174	C	1.572202	0.527805	0.968873
C175	C	0.905578	-0.068893	0.302227
C176	C	1.238911	0.264440	0.635561
C177	C	1.572245	0.597773	0.968894
C178	C	0.905420	-0.303019	0.139370
C179	C	1.238754	0.030314	0.472704
C180	C	1.572087	0.363648	0.806037
C181	C	0.905519	-0.302847	0.069729
C182	C	1.238853	0.030486	0.403063
C183	C	1.572186	0.363820	0.736396
C184	C	0.945606	-0.262762	0.567967
C185	C	1.278940	0.070571	0.901300
C186	C	1.612273	0.403904	1.234633
C187	C	0.945605	-0.262735	0.633402
C188	C	1.278939	0.070598	0.966735
C189	C	1.612272	0.403932	1.300069
C190	C	0.905515	-0.302991	0.666091
C191	C	1.238848	0.030343	0.999424
C192	C	1.572182	0.363676	1.332758
C193	C	0.865411	-0.343265	0.633339
C194	C	1.198744	-0.009931	0.966672
C195	C	1.532078	0.323402	1.300006
C196	C	0.865409	-0.343286	0.567905
C197	C	1.198742	-0.009953	0.901238
C198	C	1.532075	0.323381	1.234571
C199	C	0.900539	-0.359672	0.769752
C200	C	1.233873	-0.026339	1.103085
C201	C	1.567206	0.306995	1.436419
C202	C	0.900546	-0.359652	0.835185
C203	C	1.233879	-0.026318	1.168518
C204	C	1.567213	0.307015	1.501852
C205	C	0.905519	-0.302924	0.867912
C206	C	1.238852	0.030409	1.201245
C207	C	1.572186	0.363743	1.534578
C208	C	0.910498	-0.246215	0.835198
C209	C	1.243831	0.087118	1.168531
C210	C	1.577165	0.420452	1.501864
C211	C	0.910496	-0.246237	0.769763
C212	C	1.243829	0.087097	1.103097
C213	C	1.577162	0.420430	1.436430
C214	C	0.905513	-0.302972	0.737043
C215	C	1.238846	0.030362	1.070377
C216	C	1.572180	0.363695	1.403710
C217	C	0.945616	-0.262620	0.971608
C218	C	1.278950	0.070713	1.304942
C219	C	1.612283	0.404047	1.638275
C220	C	0.945611	-0.262592	1.037045
C221	C	1.278944	0.070741	1.370378
C222	C	1.612278	0.404075	1.703712
C223	C	0.865420	-0.343127	1.036981
C224	C	1.198753	-0.009794	1.370314
C225	C	1.532087	0.323540	1.703647
C226	C	0.865422	-0.343150	0.971545
C227	C	1.198755	-0.009816	1.304879
C228	C	1.532089	0.323517	1.638212
C229	C	0.905523	-0.302897	0.938863
C230	C	1.238857	0.030436	1.272196
C231	C	1.572190	0.363770	1.605530
H232	H	0.144570	-0.229857	0.229699
H233	H	0.477903	0.103476	0.563032
H234	H	0.811237	0.436810	0.896365
C235	C	0.895067	-0.422027	0.871164
C236	C	1.228400	-0.088694	1.204498
C237	C	1.561734	0.244639	1.537831
H238	H	0.892093	-0.455814	0.842303
H239	H	1.225426	-0.122481	1.175637
H240	H	1.558759	0.210852	1.508970
H241	H	0.930971	-0.427551	0.896717
H242	H	1.264304	-0.094218	1.230050
H243	H	1.597638	0.239115	1.563383
H244	H	0.858745	-0.421202	0.896663
H245	H	1.192079	-0.087869	1.229996
H246	H	1.525412	0.245465	1.563330
H247	H	0.465215	-0.312237	0.404544
H248	H	0.798549	0.021096	0.737877
H249	H	1.131882	0.354430	1.071210
C250	C	0.821334	-0.934179	0.386238
C251	C	1.154667	-0.600845	0.719571
C252	C	1.488000	-0.267512	1.052905
H253	H	0.797464	-0.963186	0.410072
H254	H	1.130797	-0.629853	0.743406
H255	H	1.464131	-0.296519	1.076739
H256	H	0.845275	-0.908488	0.413564
H257	H	1.178609	-0.575154	0.746897
H258	H	1.511942	-0.241821	1.080231
H259	H	0.794035	-0.908581	0.362225
H260	H	1.127368	-0.575248	0.695558
H261	H	1.460702	-0.241914	1.028892
C262	C	0.272630	-0.218371	0.218219
C263	C	0.605963	0.114963	0.551552
C264	C	0.939297	0.448296	0.884885
H265	H	0.243770	-0.194358	0.194405
H266	H	0.577104	0.138975	0.527738
H267	H	0.910437	0.472308	0.861071
H268	H	0.298212	-0.190983	0.242225
H269	H	0.631545	0.142350	0.575558
H270	H	0.964879	0.475684	0.908892
H271	H	0.298099	-0.242422	0.190864
H272	H	0.631432	0.090911	0.524198
H273	H	0.964765	0.424245	0.857531
H274	H	0.978259	-0.229985	0.541361
H275	H	1.311593	0.103349	0.874694
H276	H	1.644926	0.436682	1.208027
H277	H	0.346503	-0.312209	0.404586
H278	H	0.679837	0.021124	0.737919
H279	H	1.013170	0.354458	1.071252
C280	C	0.989718	-0.218440	0.669428
C281	C	1.323051	0.114893	1.002761
C282	C	1.656384	0.448227	1.336095
H283	H	1.013603	-0.194474	0.640592
H284	H	1.346936	0.138859	0.973925
H285	H	1.680269	0.472193	1.307259
H286	H	0.965773	-0.191007	0.694941
H287	H	1.299107	0.142326	1.028275
H288	H	1.632440	0.475659	1.361608
H289	H	1.017002	-0.242518	0.694969
H290	H	1.350335	0.090815	1.028302
H291	H	1.683668	0.424149	1.361636
C292	C	0.336928	-0.292491	0.183655
C293	C	0.670262	0.040842	0.516988
C294	C	1.003595	0.374175	0.850322
H295	H	0.293280	-0.293227	0.191750
H296	H	0.626614	0.040106	0.525084
H297	H	0.959947	0.373440	0.858417
H298	H	0.347650	-0.254151	0.163661
H299	H	0.680983	0.079183	0.496995
H300	H	1.014317	0.412516	0.830328
H301	H	0.347607	-0.326715	0.157257
H302	H	0.680940	0.006618	0.490591
H303	H	1.014273	0.339951	0.823924
C304	C	0.989763	-1.072124	0.218186
C305	C	1.323097	-0.738790	0.551519
C306	C	1.656430	-0.405457	0.884852
H307	H	1.013621	-1.043116	0.194340
H308	H	1.346954	-0.709783	0.527673
H309	H	1.680288	-0.376449	0.861006
H310	H	1.017064	-1.097723	0.242188
H311	H	1.350397	-0.764390	0.575522
H312	H	1.683730	-0.431057	0.908855
H313	H	0.965812	-1.097813	0.190861
H314	H	1.299145	-0.764479	0.524194
H315	H	1.632478	-0.431146	0.857528
C316	C	0.538873	-0.387756	0.386098
C317	C	0.872207	-0.054423	0.719431
C318	C	1.205540	0.278910	1.052765
H319	H	0.495217	-0.381969	0.380386
H320	H	0.828551	-0.048636	0.713720
H321	H	1.161884	0.284697	1.047053
H322	H	0.549545	-0.430039	0.376844
H323	H	0.882878	-0.096706	0.710177
H324	H	1.216211	0.236628	1.043511
H325	H	0.549650	-0.378609	0.428213
H326	H	0.882983	-0.045275	0.761546
H327	H	1.216317	0.288058	1.094880
H328	H	0.465003	-0.293914	0.199735
H329	H	0.798336	0.039419	0.533068
H330	H	1.131669	0.372753	0.866401
H331	H	0.914548	-0.200062	0.743130
H332	H	1.247881	0.133271	1.076464
H333	H	1.581215	0.466604	1.409797
C334	C	0.676288	-0.387800	0.386035
C335	C	1.009621	-0.054467	0.719369
C336	C	1.342954	0.278867	1.052702
H337	H	0.719943	-0.382043	0.380286
H338	H	1.053277	-0.048710	0.713619
H339	H	1.386610	0.284623	1.046953
H340	H	0.665627	-0.378666	0.428159
H341	H	0.998960	-0.045333	0.761492
H342	H	1.332294	0.288000	1.094826
H343	H	0.665503	-0.430076	0.376769
H344	H	0.998836	-0.096742	0.710103
H345	H	1.332170	0.236591	1.043436
H346	H	0.978266	-0.229840	0.944997
H347	H	1.311599	0.103493	1.278330
H348	H	1.644932	0.436826	1.611664
H349	H	0.666920	-0.229954	0.229513
H350	H	1.000253	0.103379	0.562846
H351	H	1.333587	0.436713	0.896179
C352	C	0.916375	-0.183849	0.871188
C353	C	1.249709	0.149485	1.204521
C354	C	1.583042	0.482818	1.537854
H355	H	0.915781	-0.191966	0.914843
H356	H	1.249114	0.141368	1.248176
H357	H	1.582448	0.474701	1.581509
H358	H	0.954630	-0.163992	0.860342
H359	H	1.287964	0.169341	1.193675
H360	H	1.621297	0.502675	1.527008
H361	H	0.882453	-0.157127	0.860590
H362	H	1.215786	0.176206	1.193923
H363	H	1.549119	0.509539	1.527256
C364	C	0.538861	-0.218419	0.218127
C365	C	0.872194	0.114914	0.551461
C366	C	1.205528	0.448247	0.884794
H367	H	0.495206	-0.224190	0.223865
H368	H	0.828539	0.109144	0.557198
H369	H	1.161872	0.442477	0.890532
H370	H	0.549636	-0.176140	0.227372
H371	H	0.882969	0.157193	0.560705
H372	H	1.216302	0.490527	0.894038
H373	H	0.549530	-0.227574	0.176007
H374	H	0.882863	0.105759	0.509340
H375	H	1.216196	0.439092	0.842673
C376	C	0.272649	-0.387701	0.386202
C377	C	0.605983	-0.054368	0.719535
C378	C	0.939316	0.278965	1.052869
H379	H	0.243795	-0.411701	0.410037
H380	H	0.577128	-0.078368	0.743371
H381	H	0.910462	0.254965	1.076704
H382	H	0.298121	-0.415100	0.362177
H383	H	0.631454	-0.081767	0.695510
H384	H	0.964787	0.251567	1.028843
H385	H	0.298230	-0.363661	0.413537
H386	H	0.631563	-0.030328	0.746871
H387	H	0.964896	0.303005	1.080204
C388	C	0.135241	-0.387680	0.386242
C389	C	0.468574	-0.054347	0.719575
C390	C	0.801908	0.278986	1.052909
H391	H	0.164101	-0.411707	0.410042
H392	H	0.497434	-0.078374	0.743375
H393	H	0.830767	0.254960	1.076709
H394	H	0.109766	-0.363647	0.413601
H395	H	0.443099	-0.030314	0.746934
H396	H	0.776432	0.303019	1.080268
H397	H	0.109666	-0.415064	0.362218
H398	H	0.442999	-0.081730	0.695551
H399	H	0.776332	0.251603	1.028885
H400	H	0.978105	-0.542633	0.229519
H401	H	1.311439	-0.209300	0.562853
H402	H	1.644772	0.124034	0.896186
C403	C	0.821322	-0.387453	0.935522
C404	C	1.154656	-0.054119	1.268856
C405	C	1.487989	0.279214	1.602189
H406	H	0.827059	-0.381697	0.891871
H407	H	1.160393	-0.048364	1.225204
H408	H	1.493726	0.284969	1.558537
H409	H	0.830465	-0.429743	0.946251
H410	H	1.163799	-0.096409	1.279584
H411	H	1.497132	0.236924	1.612917
H412	H	0.779228	-0.378241	0.946215
H413	H	1.112562	-0.044907	1.279549
H414	H	1.445895	0.288426	1.612882
C415	C	0.821239	-0.671391	0.386195
C416	C	1.154572	-0.338058	0.719528
C417	C	1.487905	-0.004725	1.052861
H418	H	0.826991	-0.715249	0.380466
H419	H	1.160324	-0.381915	0.713799
H420	H	1.493657	-0.048582	1.047133
H421	H	0.830383	-0.660586	0.428302
H422	H	1.163716	-0.327252	0.761636
H423	H	1.497050	0.006081	1.094969
H424	H	0.779140	-0.660670	0.376966
H425	H	1.112473	-0.327337	0.710300
H426	H	1.445806	0.005996	1.043633
H427	H	0.978155	-0.661899	0.229545
H428	H	1.311488	-0.328566	0.562878
H429	H	1.644822	0.004768	0.896211
H430	H	0.978261	-0.229795	1.063704
H431	H	1.311594	0.103539	1.397037
H432	H	1.644928	0.436872	1.730371
C433	C	0.821325	-0.387411	1.072931
C434	C	1.154659	-0.054078	1.406264
C435	C	1.487992	0.279255	1.739597
H436	H	0.827072	-0.381635	1.116591
H437	H	1.160406	-0.048302	1.449925
H438	H	1.493739	0.285031	1.783258
H439	H	0.779232	-0.378217	1.062178
H440	H	1.112565	-0.044883	1.395511
H441	H	1.445898	0.288450	1.728845
H442	H	0.830478	-0.429709	1.062210
H443	H	1.163811	-0.096376	1.395543
H444	H	1.497145	0.236957	1.728877
C445	C	0.821190	-0.533338	0.386176
C446	C	1.154523	-0.200004	0.719510
C447	C	1.487856	0.133329	1.052843
H448	H	0.797322	-0.562344	0.410013
H449	H	1.130655	-0.229011	0.743347
H450	H	1.463988	0.104322	1.076680
H451	H	0.845133	-0.507646	0.413500
H452	H	1.178466	-0.174312	0.746833
H453	H	1.511800	0.159021	1.080167
H454	H	0.793889	-0.507741	0.362164
H455	H	1.127222	-0.174407	0.695498
H456	H	1.460556	0.158926	1.028831
H457	H	0.978259	-0.943473	0.229590
H458	H	1.311592	-0.610139	0.562924
H459	H	1.644926	-0.276806	0.896257
H460	H	0.832843	-1.062834	0.374834
H461	H	1.166177	-0.729500	0.708168
H462	H	1.499510	-0.396167	1.041501
H463	H	0.896322	-0.405855	0.743111
H464	H	1.229656	-0.072521	1.076445
H465	H	1.562989	0.260812	1.409778
C466	C	0.821316	-0.387547	0.669294
C467	C	1.154649	-0.054214	1.002627
C468	C	1.487983	0.279119	1.335961
H469	H	0.827065	-0.381772	0.712954
H470	H	1.160398	-0.048439	1.046288
H471	H	1.493731	0.284894	1.379621
H472	H	0.779223	-0.378349	0.658543
H473	H	1.112556	-0.045015	0.991876
H474	H	1.445889	0.288318	1.325209
H475	H	0.830465	-0.429846	0.658572
H476	H	1.163798	-0.096512	0.991906
H477	H	1.497131	0.236821	1.325239
H478	H	0.832755	-0.376079	0.541245
H479	H	1.166088	-0.042746	0.874578
H480	H	1.499421	0.290588	1.207912
