data_functionalizedCrystal
_audit_creation_method	'MofGen! by Chris Wilmer'
_symmetry_space_group_name_H-M	'P1'
_symmetry_Int_Tables_number	1
_symmetry_cell_setting	triclinic
loop_
_symmetry_equiv_pos_as_xyz
  x,y,z
_cell_length_a	10.654550
_cell_length_b	15.995350
_cell_length_c	9.130313
_cell_angle_alpha	89.997713
_cell_angle_beta	89.999724
_cell_angle_gamma	83.988653
loop_
_atom_site_label
_atom_site_type_symbol
_atom_site_fract_x
_atom_site_fract_y
_atom_site_fract_z
O1	O	1.666303	0.117603	-0.121682
O2	O	1.300678	0.128807	-0.121708
O3	O	1.493485	0.001375	-0.121693
O4	O	1.473496	0.245034	-0.121697
O5	O	1.493472	0.001371	0.121906
O6	O	1.300665	0.128803	0.121891
O7	O	1.666290	0.117599	0.121917
Cu8	Cu	1.483476	0.123201	0.144146
Cu9	Cu	1.483492	0.123205	-0.143938
O10	O	1.473483	0.245031	0.121902
C11	C	1.253884	0.127982	0.000088
C12	C	1.114473	0.125521	0.000078
C13	C	1.034008	0.200551	0.000080
C14	C	0.903017	0.198233	0.000106
C15	C	0.932971	0.045849	0.000120
C16	C	1.063959	0.048168	0.000105
C17	C	1.492652	-0.029826	0.000103
C18	C	1.490175	-0.122791	0.000095
C19	C	1.481277	-0.460590	0.000099
C20	C	1.343964	-0.413954	-0.000457
C21	C	1.346442	-0.317249	0.000092
C22	C	1.485691	-0.293004	0.000096
C23	C	1.553411	-0.333690	0.139205
C24	C	1.549962	-0.430346	0.139322
C25	C	1.552813	-0.430684	-0.137696
C26	C	1.552781	-0.333738	-0.139534
C27	C	1.488192	-0.198292	0.000100
C28	C	1.478780	-0.555303	0.000106
C29	C	1.713084	0.118423	0.000118
C30	C	1.852495	0.120885	0.000118
C31	C	1.474316	0.276232	0.000102
C32	C	1.476793	0.369197	0.000101
N33	N	1.483475	0.123197	0.346769
N34	N	1.483504	0.123202	-0.346560
C35	C	1.568878	0.066794	0.423427
C36	C	1.568890	0.066794	0.576764
C37	C	1.398091	0.179608	0.576770
C38	C	1.398074	0.179603	0.423436
H39	H	1.075132	0.263537	0.000069
H40	H	1.328522	0.225533	0.361017
C41	C	1.274778	-0.280442	0.133096
C42	C	1.173558	-0.223650	0.086978
C43	C	1.107503	-0.189738	0.209469
H44	H	1.329726	-0.252003	0.192766
H45	H	1.243661	-0.324406	0.187791
H46	H	1.204675	-0.179693	0.032308
H47	H	1.118580	-0.252069	0.027325
H48	H	1.076386	-0.233702	0.264163
H49	H	1.162461	-0.161303	0.269130
H50	H	1.038812	-0.151207	0.178194
H51	H	1.328561	0.225533	0.639208
C52	C	1.661557	0.005424	0.659806
C53	C	1.641226	-0.076984	0.622490
C54	C	1.726580	-0.133544	0.698943
H55	H	1.649428	0.013383	0.762130
H56	H	1.745387	0.014990	0.634631
H57	H	1.557416	-0.086547	0.647674
H58	H	1.653364	-0.084970	0.520179
H59	H	1.810409	-0.123977	0.673768
H60	H	1.714444	-0.125576	0.801263
H61	H	1.712804	-0.189463	0.673625
C62	C	0.815863	0.279787	0.000029
C63	C	0.888144	0.348021	-0.000034
C64	C	0.807901	0.423165	-0.000122
H65	H	0.764122	0.282173	0.084962
H66	H	0.764151	0.282094	-0.084946
H67	H	0.939834	0.345715	0.084933
H68	H	0.939882	0.345663	-0.084960
H69	H	0.756189	0.425472	-0.085097
H70	H	0.756165	0.425542	0.084812
H71	H	0.856932	0.469470	-0.000178
C72	C	0.877879	-0.038047	0.000060
C73	C	0.745943	-0.024021	0.000031
C74	C	0.695153	-0.101288	-0.000047
H75	H	0.905366	-0.069039	0.084985
H76	H	0.905425	-0.068980	-0.084923
H77	H	0.718409	0.006898	0.085006
H78	H	0.718422	0.006957	-0.084887
H79	H	0.722699	-0.132221	-0.085030
H80	H	0.722649	-0.132274	0.084879
H81	H	0.605630	-0.091782	-0.000081
H82	H	1.129478	-0.012934	0.000106
H83	H	1.638415	0.020864	0.361008
H84	H	1.293209	-0.289135	-0.099627
H85	H	1.503268	-0.306776	-0.242443
H86	H	1.289086	-0.432803	-0.100215
H87	H	1.289319	-0.433866	0.098738
H88	H	1.500569	-0.448936	0.243305
H89	H	1.655713	-0.318971	0.144382
C90	C	1.684465	-0.472414	0.147842
C91	C	1.768475	-0.410771	0.152859
C92	C	1.892385	-0.449488	0.160737
H93	H	1.701966	-0.506824	0.063996
H94	H	1.694036	-0.506075	0.233654
H95	H	1.758910	-0.377125	0.067056
H96	H	1.751015	-0.376358	0.236701
H97	H	1.901956	-0.483148	0.246549
H98	H	1.909873	-0.483896	0.076889
H99	H	1.949400	-0.407669	0.164155
H100	H	1.507924	-0.451482	-0.243132
C101	C	1.490678	-0.296390	0.277363
C102	C	1.444532	-0.360376	0.359747
C103	C	1.386742	-0.326050	0.487031
H104	H	1.422823	-0.255770	0.251478
H105	H	1.550650	-0.270333	0.333724
H106	H	1.384565	-0.386420	0.303396
H107	H	1.512362	-0.401000	0.385669
H108	H	1.446713	-0.299993	0.543392
H109	H	1.318892	-0.285430	0.461132
H110	H	1.355435	-0.369459	0.542950
H111	H	1.654327	-0.317787	-0.147930
H112	H	1.654054	-0.461856	-0.138627
