data_functionalizedCrystal
_audit_creation_method	'MofGen! by Chris Wilmer'
_symmetry_space_group_name_H-M	'P1'
_symmetry_Int_Tables_number	1
_symmetry_cell_setting	triclinic
loop_
_symmetry_equiv_pos_as_xyz
  x,y,z
_cell_length_a	10.685976
_cell_length_b	16.625546
_cell_length_c	10.685986
_cell_angle_alpha	85.585629
_cell_angle_beta	98.366972
_cell_angle_gamma	85.659501
loop_
_atom_site_label
_atom_site_type_symbol
_atom_site_fract_x
_atom_site_fract_y
_atom_site_fract_z
Zn1	Zn	1.885443	-0.385319	-0.568496
Zn2	Zn	1.901546	-0.531374	-0.356239
Zn3	Zn	1.689443	-0.385381	-0.372577
Zn4	Zn	1.673148	-0.508929	-0.584745
O5	O	1.787395	-0.452751	-0.470514
O6	O	2.065191	-0.414061	-0.526702
O7	O	1.886969	-0.521427	-0.180783
O8	O	1.715523	-0.272542	-0.398603
O9	O	2.077022	-0.521367	-0.370758
O10	O	1.859523	-0.272497	-0.542544
O11	O	1.731138	-0.414166	-0.192786
O12	O	1.509670	-0.392402	-0.414359
O13	O	1.687751	-0.483113	-0.760213
O14	O	1.497698	-0.483173	-0.570238
O15	O	1.843723	-0.392297	-0.748275
O16	O	1.871169	-0.641227	-0.386514
O17	O	1.703366	-0.624737	-0.554396
C18	C	1.457631	-0.435359	-0.495835
C19	C	1.316554	-0.427937	-0.506698
C20	C	1.787279	-0.662238	-0.470470
C21	C	1.787342	-0.751862	-0.470485
C22	C	1.787554	-1.080042	-0.470600
C23	C	1.787490	-0.988732	-0.470572
C24	C	1.787447	-0.915955	-0.470542
C25	C	1.787386	-0.824639	-0.470515
C26	C	2.118447	-0.470211	-0.445095
C27	C	2.259521	-0.477651	-0.434263
C28	C	1.762123	-0.435194	-0.801587
C29	C	1.751353	-0.427713	-0.942671
C30	C	1.787544	-0.242446	-0.470584
C31	C	1.787608	-0.152826	-0.470613
C32	C	1.812642	-0.470185	-0.140724
C33	C	1.823657	-0.477452	0.000378
H34	H	1.681213	-0.379403	-1.001853
N35	N	1.238281	-0.364035	-0.599868
H36	H	1.145215	-0.367611	-0.594688
H37	H	1.262898	-0.308671	-0.578514
N38	N	1.337800	-0.541564	-0.341101
H39	H	1.430866	-0.537990	-0.346280
H40	H	1.321594	-0.532526	-0.252245
H41	H	1.893803	-0.525753	-0.940446
