data_functionalizedCrystal
_audit_creation_method	'MofGen! by Chris Wilmer'
_symmetry_space_group_name_H-M	'P1'
_symmetry_Int_Tables_number	1
_symmetry_cell_setting	triclinic
loop_
_symmetry_equiv_pos_as_xyz
  x,y,z
_cell_length_a	15.944499
_cell_length_b	15.944545
_cell_length_c	13.596369
_cell_angle_alpha	89.991909
_cell_angle_beta	89.992083
_cell_angle_gamma	83.486891
loop_
_atom_site_label
_atom_site_type_symbol
_atom_site_fract_x
_atom_site_fract_y
_atom_site_fract_z
O1	O	1.114550	0.108127	-0.081855
O2	O	1.447883	0.441460	0.251478
O3	O	1.781216	0.774794	0.584812
O4	O	0.869994	0.121529	-0.081845
O5	O	1.203327	0.454862	0.251489
O6	O	1.536660	0.788195	0.584822
O7	O	0.998953	-0.007449	-0.081838
O8	O	1.332286	0.325885	0.251495
O9	O	1.665619	0.659218	0.584828
O10	O	0.985591	0.237104	-0.081861
O11	O	1.318924	0.570438	0.251472
O12	O	1.652257	0.903771	0.584805
O13	O	0.998940	-0.007455	0.081745
O14	O	1.332273	0.325878	0.415078
O15	O	1.665607	0.659211	0.748411
O16	O	0.869981	0.121522	0.081738
O17	O	1.203314	0.454855	0.415072
O18	O	1.536648	0.788188	0.748405
O19	O	1.114537	0.108120	0.081728
O20	O	1.447870	0.441453	0.415061
O21	O	1.781203	0.774787	0.748395
Zn22	Zn	0.992257	0.114820	0.107705
Zn23	Zn	1.325590	0.448153	0.441039
Zn24	Zn	1.658923	0.781487	0.774372
Zn25	Zn	0.992274	0.114829	-0.107822
Zn26	Zn	1.325607	0.448162	0.225511
Zn27	Zn	1.658940	0.781496	0.558845
O28	O	0.985578	0.237097	0.081722
O29	O	1.318911	0.570431	0.415055
O30	O	1.652244	0.903764	0.748388
C31	C	0.838693	0.120977	-0.000052
C32	C	1.172026	0.454310	0.333282
C33	C	1.505359	0.787643	0.666615
C34	C	0.745444	0.119332	-0.000047
C35	C	1.078778	0.452665	0.333286
C36	C	1.412111	0.785998	0.666619
C37	C	0.453907	0.194264	-0.000069
C38	C	0.787240	0.527597	0.333264
C39	C	1.120573	0.860931	0.666598
C40	C	0.514943	0.155316	-0.080722
C41	C	0.848276	0.488649	0.252611
C42	C	1.181610	0.821982	0.585945
C43	C	0.409808	0.113355	-0.000069
C44	C	0.743141	0.446689	0.333264
C45	C	1.076475	0.780022	0.666597
C46	C	0.514916	0.155287	0.080558
C47	C	0.848250	0.488620	0.413891
C48	C	1.181583	0.821954	0.747225
C49	C	0.574717	0.116296	-0.000057
C50	C	0.908050	0.449629	0.333276
C51	C	1.241383	0.782963	0.666610
C52	C	0.469616	0.074385	-0.080789
C53	C	0.802950	0.407718	0.252544
C54	C	1.136283	0.741051	0.585878
C55	C	0.469583	0.074367	0.080563
C56	C	0.802916	0.407701	0.413897
C57	C	1.136250	0.741034	0.747230
C58	C	0.530602	0.035360	-0.000110
C59	C	0.863935	0.368693	0.333224
C60	C	1.197269	0.702027	0.666557
C61	C	0.314808	0.111664	-0.000078
C62	C	0.648141	0.444997	0.333256
C63	C	0.981475	0.778330	0.666589
C64	C	0.669716	0.117981	-0.000056
C65	C	1.003049	0.451315	0.333277
C66	C	1.336382	0.784648	0.666611
C67	C	0.998393	-0.038746	-0.000046
C68	C	1.331726	0.294587	0.333287
C69	C	1.665059	0.627921	0.666621
C70	C	0.996732	-0.131992	-0.000043
C71	C	1.330066	0.201341	0.333290
C72	C	1.663399	0.534675	0.666623
C73	C	0.911837	-0.402609	-0.000059
C74	C	1.245170	-0.069276	0.333274
C75	C	1.578503	0.264058	0.666607
C76	C	0.952773	-0.352028	-0.080717
C77	C	1.286106	-0.018694	0.252617
C78	C	1.619440	0.314639	0.585950
C79	C	0.990811	-0.467635	-0.000071
C80	C	1.324145	-0.134301	0.333262
C81	C	1.657478	0.199032	0.666596
C82	C	0.952781	-0.352062	0.080563
C83	C	1.286115	-0.018728	0.413897
C84	C	1.619448	0.314605	0.747230
C85	C	0.993716	-0.302722	-0.000056
C86	C	1.327050	0.030612	0.333278
C87	C	1.660383	0.363945	0.666611
C88	C	1.031727	-0.418282	-0.080795
C89	C	1.365060	-0.084948	0.252539
C90	C	1.698393	0.248385	0.585872
C91	C	1.031724	-0.418319	0.080558
C92	C	1.365057	-0.084986	0.413891
C93	C	1.698390	0.248348	0.747224
C94	C	1.072718	-0.367771	-0.000119
C95	C	1.406051	-0.034437	0.333214
C96	C	1.739384	0.298896	0.666548
C97	C	0.989136	-0.562637	-0.000080
C98	C	1.322469	-0.229303	0.333253
C99	C	1.655803	0.104030	0.666586
C100	C	0.995398	-0.207723	-0.000053
C101	C	1.328731	0.125611	0.333280
C102	C	1.662065	0.458944	0.666614
C103	C	1.145838	0.108672	-0.000067
C104	C	1.479171	0.442006	0.333266
C105	C	1.812505	0.775339	0.666599
C106	C	1.239086	0.110317	-0.000078
C107	C	1.572420	0.443651	0.333255
C108	C	1.905753	0.776984	0.666589
C109	C	0.986138	0.268395	-0.000073
C110	C	1.319471	0.601728	0.333260
C111	C	1.652805	0.935061	0.666594
C112	C	0.987798	0.361641	-0.000082
C113	C	1.321132	0.694974	0.333251
C114	C	1.654465	1.028307	0.666585
N115	N	0.992251	0.114813	0.254797
N116	N	1.325585	0.448147	0.588131
N117	N	1.658918	0.781480	0.921464
N118	N	0.992286	0.114829	-0.254914
N119	N	1.325619	0.448162	0.078419
N120	N	1.658952	0.781496	0.411753
C121	C	0.992273	0.114830	0.656088
C122	C	1.325606	0.448163	0.989422
C123	C	1.658939	0.781496	1.322755
C124	C	0.992264	0.114828	0.544437
C125	C	1.325598	0.448161	0.877770
C126	C	1.658931	0.781495	1.211103
C127	C	0.992262	0.114822	0.455446
C128	C	1.325596	0.448155	0.788780
C129	C	1.658929	0.781489	1.122113
C130	C	0.992253	0.114819	0.343788
C131	C	1.325587	0.448152	0.677121
C132	C	1.658920	0.781486	1.010454
H133	H	0.449643	0.040198	-0.149051
H134	H	0.782977	0.373531	0.184282
H135	H	1.116310	0.706865	0.517615
F136	F	0.443281	0.029670	0.169698
F137	F	0.776614	0.363004	0.503032
F138	F	1.109947	0.696337	0.836365
F139	F	1.075297	-0.455934	-0.170022
F140	F	1.408630	-0.122601	0.163311
F141	F	1.741963	0.210732	0.496644
F142	F	0.573977	-0.052480	-0.000158
F143	F	0.907310	0.280853	0.333175
F144	F	1.240643	0.614187	0.666508
F145	F	0.541151	0.200030	0.169677
F146	F	0.874485	0.533363	0.503010
F147	F	1.207818	0.866696	0.836343
H148	H	0.843822	-0.418249	-0.000135
H149	H	1.177156	-0.084915	0.333198
H150	H	1.510489	0.248418	0.666531
H151	H	0.919409	-0.323144	0.148751
H152	H	1.252743	0.010189	0.482084
H153	H	1.586076	0.343523	0.815417
H154	H	0.919425	-0.323084	-0.148904
H155	H	1.252758	0.010249	0.184430
H156	H	1.586092	0.343582	0.517763
F157	F	0.410338	0.282027	-0.000176
F158	F	0.743671	0.615360	0.333157
F159	F	1.077004	0.948694	0.666490
H160	H	1.140785	-0.352292	-0.000167
H161	H	1.474118	-0.018959	0.333166
H162	H	1.807451	0.314374	0.666499
F163	F	1.075274	-0.456173	0.169687
F164	F	1.408607	-0.122839	0.503020
F165	F	1.741940	0.210494	0.836353
H166	H	0.535046	0.189542	-0.148910
H167	H	0.868379	0.522876	0.184423
H168	H	1.201712	0.856209	0.517757
