data_functionalizedCrystal
_audit_creation_method	'MofGen! by Chris Wilmer'
_symmetry_space_group_name_H-M	'P1'
_symmetry_Int_Tables_number	1
_symmetry_cell_setting	triclinic
loop_
_symmetry_equiv_pos_as_xyz
  x,y,z
_cell_length_a	13.262390
_cell_length_b	14.519731
_cell_length_c	11.804365
_cell_angle_alpha	101.852944
_cell_angle_beta	62.657606
_cell_angle_gamma	84.075143
loop_
_atom_site_label
_atom_site_type_symbol
_atom_site_fract_x
_atom_site_fract_y
_atom_site_fract_z
O1	O	1.519304	0.013557	-0.591105
O2	O	1.191011	0.046968	-0.484780
O3	O	1.363847	-0.104480	-0.540746
O4	O	1.346468	0.165005	-0.535139
O5	O	1.318346	-0.064647	-0.327956
O6	O	1.145510	0.086801	-0.271990
O7	O	1.473803	0.053390	-0.378316
Cu8	Cu	1.305502	0.073733	-0.305723
Cu9	Cu	1.359312	0.026626	-0.557372
O10	O	1.300967	0.204838	-0.322349
C11	C	1.126245	0.068676	-0.364777
C12	C	1.001053	0.074000	-0.324230
C13	C	0.747381	0.002140	-0.673922
C14	C	0.865006	-0.002868	-0.712020
C15	C	0.899024	0.016349	-0.615076
C16	C	0.815404	0.040573	-0.480027
C17	C	0.697769	0.045574	-0.441926
C18	C	0.849412	0.059783	-0.383079
C19	C	0.765792	0.084007	-0.248031
C20	C	0.648169	0.089007	-0.209936
C21	C	0.614151	0.069791	-0.306880
C22	C	0.967048	0.054783	-0.421181
C23	C	0.917436	0.098217	-0.189185
C24	C	0.799810	0.103224	-0.151087
C25	C	1.340281	-0.118875	-0.434087
C26	C	1.337841	-0.221113	-0.433296
C27	C	1.335858	-0.304142	-0.432656
C28	C	1.333382	-0.408307	-0.431863
C29	C	1.331417	-0.491333	-0.431235
C30	C	1.328941	-0.595505	-0.430440
C31	C	1.538569	0.031682	-0.498321
C32	C	1.663763	0.026357	-0.538876
C33	C	1.324533	0.219233	-0.429011
C34	C	1.326976	0.321469	-0.429811
N35	N	1.267663	0.106864	-0.128730
N36	N	1.397160	-0.006514	-0.734368
C37	C	1.488025	-0.086093	0.173863
C38	C	1.516649	-0.111160	0.039932
C39	C	1.454405	-0.056657	-0.002240
C40	C	1.363532	0.022920	0.089532
C41	C	1.334911	0.047995	0.223473
C42	C	1.301291	0.077431	0.047370
C43	C	1.210418	0.157007	0.139142
C44	C	1.181802	0.182077	0.273070
C45	C	1.244046	0.127574	0.315242
C46	C	1.329911	0.052356	-0.086571
C47	C	1.176798	0.186443	-0.036961
C48	C	1.148174	0.211511	0.096970
H49	H	1.035120	0.035061	-0.531138
H50	H	1.590637	-0.175950	-0.034784
N51	N	1.019179	0.011228	-0.654010
N52	N	1.093826	-0.010401	-0.774590
H53	H	1.178692	-0.014016	-0.802095
N54	N	0.950401	-0.027617	-0.849963
N55	N	0.920018	-0.044773	-0.936508
H56	H	0.980330	-0.062253	-1.033939
H57	H	0.719672	-0.013513	-0.752839
H58	H	1.477714	-0.077071	-0.111293
N59	N	1.551610	-0.141731	0.216957
N60	N	1.526056	-0.119320	0.336540
H61	H	1.570974	-0.158613	0.366974
H62	H	0.731711	0.122947	-0.041128
N63	N	0.493994	0.074924	-0.267966
N64	N	0.442319	0.133019	-0.299436
H65	H	0.357457	0.136646	-0.271958
H66	H	1.126114	0.230827	-0.071296
N67	N	1.214814	0.153162	0.452051
N68	N	1.270393	0.104482	0.489681
H69	H	1.249750	0.122550	0.586303
H70	H	1.074183	0.276304	0.171706
N71	N	1.422719	-0.028934	-0.180287
N72	N	1.508773	-0.017668	-0.277741
H73	H	1.574320	-0.075090	-0.343919
H74	H	1.107817	0.246879	0.347790
H75	H	0.580089	0.108715	-0.099971
H76	H	0.945131	0.113863	-0.110244
