data_functionalizedCrystal
_audit_creation_method	'MofGen! by Chris Wilmer'
_symmetry_space_group_name_H-M	'P1'
_symmetry_Int_Tables_number	1
_symmetry_cell_setting	triclinic
loop_
_symmetry_equiv_pos_as_xyz
  x,y,z
_cell_length_a	10.654550
_cell_length_b	8.597304
_cell_length_c	9.130313
_cell_angle_alpha	97.702873
_cell_angle_beta	90.000488
_cell_angle_gamma	84.910193
loop_
_atom_site_label
_atom_site_type_symbol
_atom_site_fract_x
_atom_site_fract_y
_atom_site_fract_z
O1	O	1.669011	0.220460	0.149504
O2	O	1.303644	0.241465	0.152181
O3	O	1.493518	0.002574	0.122018
O4	O	1.479138	0.459351	0.179667
O5	O	1.493503	0.002574	-0.121581
O6	O	1.303630	0.241465	-0.091418
O7	O	1.668997	0.220460	-0.094095
Cu8	Cu	1.486312	0.230963	-0.114999
Cu9	Cu	1.486329	0.230962	0.173085
O10	O	1.479123	0.459351	-0.063932
C11	C	1.256831	0.239922	0.030190
C12	C	1.117363	0.235308	0.029618
C13	C	1.038625	0.375963	0.047366
C14	C	0.907581	0.371618	0.046792
C15	C	0.934026	0.085951	0.010727
C16	C	1.065068	0.090298	0.011291
C17	C	1.491966	-0.055914	-0.007160
C18	C	1.487348	-0.230191	-0.029145
C19	C	1.715810	0.222003	0.027899
C20	C	1.855278	0.226617	0.028481
C21	C	1.480675	0.517839	0.065249
C22	C	1.485293	0.692116	0.087244
N23	N	1.486309	0.230962	-0.317622
C24	C	1.563651	0.327049	-0.382147
C25	C	1.563671	0.327040	-0.535485
C26	C	1.408997	0.134853	-0.559759
C27	C	1.408984	0.134854	-0.406425
N28	N	1.486342	0.230951	0.375706
H29	H	0.843476	0.486154	0.061241
F30	F	1.485012	-0.317517	-0.181396
F31	F	1.326700	0.032583	-0.654281
F32	F	1.326661	0.032581	-0.337749
H33	H	1.626613	0.405306	-0.309847
H34	H	1.626652	0.405282	-0.588014
F35	F	1.487610	-0.220562	0.239486
H36	H	0.891431	-0.032112	-0.004203
F37	F	1.094277	0.530296	0.066865
F38	F	1.148873	-0.059415	-0.007609
