data_functionalizedCrystal
_audit_creation_method	'MofGen! by Chris Wilmer'
_symmetry_space_group_name_H-M	'P1'
_symmetry_Int_Tables_number	1
_symmetry_cell_setting	triclinic
loop_
_symmetry_equiv_pos_as_xyz
  x,y,z
_cell_length_a	15.944551
_cell_length_b	14.971486
_cell_length_c	13.448316
_cell_angle_alpha	89.993189
_cell_angle_beta	89.997731
_cell_angle_gamma	83.556433
loop_
_atom_site_label
_atom_site_type_symbol
_atom_site_fract_x
_atom_site_fract_y
_atom_site_fract_z
O1	O	1.114636	0.115362	-0.082589
O2	O	1.614636	0.615362	0.417411
O3	O	0.870100	0.129585	-0.082613
O4	O	1.370100	0.629585	0.417387
O5	O	0.998923	-0.007734	-0.082593
O6	O	1.498923	0.492266	0.417407
O7	O	0.985814	0.252680	-0.082609
O8	O	1.485814	0.752680	0.417391
O9	O	0.998906	-0.007742	0.082791
O10	O	1.498906	0.492258	0.582791
O11	O	0.870084	0.129576	0.082770
O12	O	1.370084	0.629576	0.582770
O13	O	1.114620	0.115354	0.082795
O14	O	1.614620	0.615354	0.582795
Cu15	Cu	0.992351	0.122464	0.097884
Cu16	Cu	1.492351	0.622464	0.597884
Cu17	Cu	0.992370	0.122474	-0.097702
Cu18	Cu	1.492370	0.622474	0.402298
O19	O	0.985798	0.252672	0.082775
O20	O	1.485798	0.752672	0.582775
C21	C	0.998328	-0.041062	0.000098
C22	C	1.498328	0.458938	0.500098
C23	C	0.996572	-0.140357	0.000097
C24	C	1.496572	0.359643	0.500097
C25	C	0.838798	0.128990	0.000075
C26	C	1.338798	0.628990	0.500075
C27	C	0.745550	0.127220	0.000066
C28	C	1.245550	0.627220	0.500066
C29	C	1.072251	-0.197664	0.000106
C30	C	1.572251	0.302336	0.500106
C31	C	1.070595	-0.290962	0.000095
C32	C	1.570595	0.209038	0.500095
C33	C	0.993259	-0.326951	0.000084
C34	C	1.493259	0.173049	0.500084
C35	C	0.917574	-0.269637	0.000073
C36	C	1.417574	0.230363	0.500073
C37	C	0.919230	-0.176341	0.000076
C38	C	1.419230	0.323659	0.500076
C39	C	0.914127	-0.464095	0.000069
C40	C	1.414127	0.035905	0.500069
C41	C	0.912470	-0.557398	0.000067
C42	C	1.412470	-0.057398	0.500067
C43	C	1.065491	-0.578717	0.000088
C44	C	1.565491	-0.078717	0.500088
C45	C	1.067148	-0.485421	0.000091
C46	C	1.567148	0.014579	0.500091
C47	C	0.991462	-0.428113	0.000082
C48	C	1.491462	0.071887	0.500082
C49	C	0.530608	0.037872	0.000091
C50	C	1.030608	0.537872	0.500091
C51	C	0.469636	0.079366	-0.081455
C52	C	0.969636	0.579366	0.418545
C53	C	0.574821	0.124017	0.000078
C54	C	1.074821	0.624017	0.500078
C55	C	0.469642	0.079379	0.081601
C56	C	0.969642	0.579379	0.581601
C57	C	0.409905	0.120918	0.000094
C58	C	0.909905	0.620918	0.500094
C59	C	0.515077	0.165535	-0.081535
C60	C	1.015077	0.665535	0.418465
C61	C	0.515089	0.165535	0.081594
C62	C	1.015089	0.665535	0.581594
C63	C	0.454134	0.207092	0.000029
C64	C	0.954134	0.707092	0.500029
C65	C	0.669825	0.125801	0.000068
C66	C	1.169825	0.625801	0.500068
C67	C	0.314903	0.119141	0.000097
C68	C	0.814903	0.619141	0.500097
C69	C	1.145923	0.115948	0.000104
C70	C	1.645923	0.615948	0.500104
C71	C	1.239171	0.117718	0.000107
C72	C	1.739171	0.617718	0.500107
C73	C	0.986392	0.286000	0.000081
C74	C	1.486392	0.786000	0.500081
C75	C	0.988149	0.385295	0.000076
C76	C	1.488149	0.885295	0.500076
N77	N	0.992343	0.122456	0.235448
N78	N	1.492343	0.622456	0.735448
N79	N	0.992384	0.122475	-0.235266
N80	N	1.492384	0.622475	0.264734
C81	C	1.049404	0.061677	0.287497
C82	C	1.549404	0.561677	0.787497
C83	C	1.049409	0.061676	0.391600
C84	C	1.549409	0.561676	0.891600
C85	C	0.992357	0.122460	0.443653
C86	C	1.492357	0.622460	0.943653
C87	C	0.935291	0.183243	0.391596
C88	C	1.435291	0.683243	0.891596
C89	C	0.935282	0.183238	0.287495
C90	C	1.435282	0.683238	0.787495
C91	C	0.935314	0.183249	0.608576
C92	C	1.435314	0.683249	1.108576
C93	C	0.935324	0.183254	0.712685
C94	C	1.435324	0.683254	1.212685
C95	C	1.049441	0.061686	0.712682
C96	C	1.549441	0.561686	1.212682
C97	C	1.049432	0.061682	0.608581
C98	C	1.549432	0.561682	1.108581
C99	C	0.992367	0.122466	0.556531
C100	C	1.492367	0.622466	1.056531
H101	H	1.135227	-0.168370	0.000121
H102	H	1.635227	0.331630	0.500121
Br103	Br	0.548453	0.226227	-0.196566
Br104	Br	1.048453	0.726227	0.303434
Br105	Br	0.586010	-0.081305	-0.000030
Br106	Br	1.086010	0.418695	0.499970
H107	H	0.852495	-0.417437	0.000058
H108	H	1.352495	0.082563	0.500058
H109	H	0.888865	0.232750	0.755060
H110	H	1.388865	0.732750	1.255060
H111	H	0.888834	0.232731	0.433983
H112	H	1.388834	0.732731	0.933983
H113	H	0.449514	0.042923	0.150539
H114	H	0.949514	0.542923	0.650539
H115	H	0.421044	0.278659	-0.000021
H116	H	0.921044	0.778659	0.499979
Br117	Br	0.816518	-0.098565	0.000056
Br118	Br	1.316518	0.401435	0.500056
Br119	Br	1.126842	-0.020814	0.216866
Br120	Br	1.626842	0.479186	0.716866
Br121	Br	1.126889	-0.020801	0.783323
Br122	Br	1.626889	0.479199	1.283323
H123	H	0.888843	0.232743	0.566201
H124	H	1.388843	0.732743	1.066201
Br125	Br	1.126846	-0.020815	0.462242
Br126	Br	1.626846	0.479185	0.962242
Br127	Br	0.548692	0.226211	0.196499
Br128	Br	1.048692	0.726211	0.696499
Br129	Br	1.126866	-0.020802	0.537935
Br130	Br	1.626866	0.479198	1.037935
H131	H	1.127118	-0.625382	0.000093
H132	H	1.627118	-0.125382	0.500093
H133	H	0.854605	-0.298946	0.000057
H134	H	1.354605	0.201054	0.500057
Br135	Br	1.173308	-0.368733	0.000107
Br136	Br	1.673308	0.131267	0.500107
Br137	Br	1.172105	-0.436579	0.000104
Br138	Br	1.672105	0.063421	0.500104
H139	H	0.849496	-0.586696	0.000074
H140	H	1.349496	-0.086696	0.500074
H141	H	0.888817	0.232730	0.245117
H142	H	1.388817	0.732730	0.745117
Br143	Br	0.436074	0.018649	-0.196358
Br144	Br	0.936074	0.518649	0.303642
