data_functionalizedCrystal
_audit_creation_method	'MofGen! by Chris Wilmer'
_symmetry_space_group_name_H-M	'P1'
_symmetry_Int_Tables_number	1
_symmetry_cell_setting	triclinic
loop_
_symmetry_equiv_pos_as_xyz
  x,y,z
_cell_length_a	18.050591
_cell_length_b	18.050589
_cell_length_c	18.050582
_cell_angle_alpha	89.981795
_cell_angle_beta	90.020922
_cell_angle_gamma	89.975773
loop_
_atom_site_label
_atom_site_type_symbol
_atom_site_fract_x
_atom_site_fract_y
_atom_site_fract_z
Zn1	Zn	1.135293	0.295786	0.420054
Zn2	Zn	1.135203	0.419969	0.295873
Zn3	Zn	1.011112	0.295789	0.295865
Zn4	Zn	1.011060	0.419930	0.420009
O5	O	1.073167	0.357868	0.357950
O6	O	1.239205	0.312274	0.403603
O7	O	1.118727	0.403514	0.191948
O8	O	1.027644	0.191864	0.312354
O9	O	1.239140	0.403511	0.312369
O10	O	1.118879	0.191862	0.403595
O11	O	1.027557	0.312279	0.191942
O12	O	0.907180	0.312241	0.312311
O13	O	1.027555	0.403444	0.523940
O14	O	0.907142	0.403447	0.403519
O15	O	1.118828	0.312236	0.523973
O16	O	1.118676	0.523888	0.312325
O17	O	1.027468	0.523860	0.403527
C18	C	0.880215	0.357841	0.357909
C19	C	0.797669	0.357847	0.357909
C20	C	1.073077	0.550820	0.357938
C21	C	1.073107	0.633366	0.357958
C22	C	0.598217	0.308191	0.308425
C23	C	0.548798	0.375927	0.290154
C24	C	0.646539	0.357869	0.357943
C25	C	0.548877	0.290157	0.376212
C26	C	0.500553	0.357885	0.357974
C27	C	0.598206	0.425641	0.339637
C28	C	0.598289	0.339825	0.425726
C29	C	0.548892	0.407607	0.407481
C30	C	0.730637	0.357859	0.357923
C31	C	0.416457	0.357903	0.357994
C32	C	1.073196	0.357835	0.551656
C33	C	1.073208	0.357821	0.634202
C34	C	1.266872	0.357897	0.357992
C35	C	1.349418	0.357909	0.358010
C36	C	1.073277	0.164163	0.357979
C37	C	1.073324	0.081617	0.357991
C38	C	1.023557	0.832828	0.407536
C39	C	1.005459	0.882261	0.339767
C40	C	1.073180	0.784497	0.357967
C41	C	1.091314	0.882146	0.425744
C42	C	1.073249	0.930482	0.357983
C43	C	1.055046	0.832842	0.290162
C44	C	1.140933	0.832722	0.376186
C45	C	1.122861	0.882133	0.308370
C46	C	1.073138	0.700398	0.357959
C47	C	1.073291	1.014578	0.357983
C48	C	1.073181	0.357848	0.164998
C49	C	1.073312	0.357652	0.082453
C50	C	1.023612	0.407353	0.833635
C51	C	1.091367	0.425511	0.883034
C52	C	1.073245	0.357765	0.785332
C53	C	1.005527	0.339586	0.883014
C54	C	1.073274	0.357711	0.931317
C55	C	1.141036	0.375958	0.833645
C56	C	1.055150	0.290002	0.833620
C57	C	1.122952	0.308134	0.882998
C58	C	1.073227	0.357797	0.701234
C59	C	1.073300	0.357679	1.015414
H60	H	0.527060	0.391202	0.232844
O61	O	0.937189	0.908261	0.321261
C62	C	0.942387	0.951249	0.256241
H63	H	0.993952	0.934356	0.223940
H64	H	0.946271	1.012369	0.271650
C65	C	0.809827	0.959211	0.247708
C66	C	0.873158	0.938459	0.208032
H67	H	0.767123	0.951325	0.217971
H68	H	0.806325	0.930252	0.291515
H69	H	0.813074	1.010144	0.260547
H70	H	0.869914	0.887525	0.195202
H71	H	0.876658	0.967409	0.164222
H72	H	0.619785	0.482928	0.324134
O73	O	0.624025	0.258209	0.258316
C74	C	0.598788	0.277515	0.186943
H75	H	0.584916	0.339116	0.185439
H76	H	0.547105	0.243979	0.173088
C77	C	0.676809	0.185032	0.131573
C78	C	0.659778	0.260693	0.129724
H79	H	0.714428	0.174653	0.096277
H80	H	0.693810	0.172023	0.179659
H81	H	0.633735	0.157095	0.120029
H82	H	0.702849	0.288629	0.141277
H83	H	0.642785	0.273706	0.081639
O84	O	0.523244	0.457889	0.457370
C85	C	0.548530	0.529164	0.437860
H86	H	0.562283	0.530489	0.376240
H87	H	0.600294	0.542998	0.471303
C88	C	0.470755	0.584916	0.530296
C89	C	0.487641	0.586545	0.454611
H90	H	0.433198	0.620313	0.540631
H91	H	0.453721	0.536897	0.543442
H92	H	0.513897	0.596443	0.558155
H93	H	0.444502	0.575010	0.426754
H94	H	0.504667	0.634565	0.441460
O95	O	1.036595	0.807208	0.221764
C96	C	0.965404	0.833048	0.202575
H97	H	0.952298	0.885197	0.235689
H98	H	0.922616	0.788494	0.215665
C99	C	0.979239	0.786969	0.078529
C100	C	0.963145	0.851022	0.119196
H101	H	0.977843	0.798052	0.027097
H102	H	1.027200	0.769557	0.091457
H103	H	0.943579	0.749846	0.089446
H104	H	0.998809	0.888140	0.108286
H105	H	0.915188	0.868440	0.106264
O106	O	0.973493	0.457394	0.807859
C107	C	0.902309	0.438834	0.834078
H108	H	0.907629	0.403895	0.886433
H109	H	0.871490	0.405943	0.789845
C110	C	0.852461	0.553099	0.787441
C111	C	0.858995	0.510192	0.851749
H112	H	0.825741	0.597116	0.798339
H113	H	0.900418	0.565603	0.769775
H114	H	0.826780	0.525682	0.750587
H115	H	0.884683	0.537607	0.888598
H116	H	0.811041	0.497695	0.869422
O117	O	1.172876	0.907770	0.258214
C118	C	1.153528	0.882497	0.186887
H119	H	1.091907	0.868764	0.185410
H120	H	1.186989	0.830723	0.173123
C121	C	1.246116	0.960247	0.131374
C122	C	1.170431	0.943386	0.129559
H123	H	1.256546	0.997804	0.096010
H124	H	1.259154	0.977272	0.179429
H125	H	1.273991	0.917097	0.119906
H126	H	1.142558	0.986533	0.141035
H127	H	1.157389	0.926369	0.081504
O128	O	1.109526	0.493891	0.908900
C129	C	1.057056	0.546037	0.883739
H130	H	1.002994	0.516500	0.869869
H131	H	1.079116	0.574888	0.832072
C132	C	1.109370	0.640201	0.961821
C133	C	1.042968	0.603925	0.944792
H134	H	1.100682	0.675912	0.999479
H135	H	1.144722	0.605071	0.978771
H136	H	1.127747	0.664238	0.918760
H137	H	1.024598	0.579882	0.987850
H138	H	1.007613	0.639053	0.927851
H139	H	0.527169	0.232894	0.391625
H140	H	1.198184	0.810948	0.391613
O141	O	1.209443	0.394339	0.808013
C142	C	1.257305	0.407180	0.868401
H143	H	1.235395	0.377087	0.919416
H144	H	1.260190	0.469166	0.880136
C145	C	1.362195	0.415085	0.786943
C146	C	1.335289	0.378118	0.849599
H147	H	1.410300	0.397162	0.775345
H148	H	1.329950	0.406436	0.746258
H149	H	1.364593	0.466738	0.796731
H150	H	1.332882	0.326468	0.839808
H151	H	1.367535	0.386757	0.890282
O152	O	1.173195	0.258163	0.908665
C153	C	1.244484	0.277566	0.883357
H154	H	1.245858	0.339187	0.869571
H155	H	1.258286	0.244111	0.831608
C156	C	1.300168	0.185032	0.961172
C157	C	1.301857	0.260717	0.944246
H158	H	1.335560	0.174636	0.998729
H159	H	1.252140	0.171957	0.978220
H160	H	1.311668	0.157161	0.918043
H161	H	1.290349	0.288585	0.987372
H162	H	1.349886	0.273795	0.927206
O163	O	1.036718	0.221708	0.807733
C164	C	0.965238	0.202776	0.832857
H165	H	0.933172	0.255392	0.846728
H166	H	0.969956	0.166726	0.884516
C167	C	0.963486	0.095091	0.754742
C168	C	0.924099	0.159716	0.771773
H169	H	0.938110	0.068526	0.717065
H170	H	1.011645	0.107844	0.737817
H171	H	0.967414	0.065058	0.797796
H172	H	0.920180	0.189751	0.728722
H173	H	0.875939	0.146966	0.788690
O174	O	0.937174	0.321392	0.908924
C175	C	0.909658	0.379710	0.952992
H176	H	0.938379	0.433601	0.936918
H177	H	0.920910	0.367189	1.013874
C178	C	0.790331	0.321340	0.960342
C179	C	0.825601	0.387531	0.940595
H180	H	0.738480	0.326164	0.952699
H181	H	0.808869	0.282049	0.930655
H182	H	0.799715	0.310913	1.011077
H183	H	0.816224	0.397952	0.889860
H184	H	0.807059	0.426825	0.970273
H185	H	0.620045	0.324530	0.483019
O186	O	0.973323	0.807028	0.457390
C187	C	0.902002	0.832290	0.437917
H188	H	0.900649	0.846171	0.376316
H189	H	0.888079	0.883971	0.471432
C190	C	0.846393	0.754270	0.530243
C191	C	0.844729	0.771313	0.454583
H192	H	0.811064	0.716659	0.540526
H193	H	0.894444	0.737253	0.543365
H194	H	0.834792	0.797343	0.558164
H195	H	0.856339	0.728243	0.426664
H196	H	0.796679	0.788322	0.441457
H197	H	1.106625	0.903802	0.483056
