data_functionalizedCrystal
_audit_creation_method	'MofGen! by Chris Wilmer'
_symmetry_space_group_name_H-M	'P1'
_symmetry_Int_Tables_number	1
_symmetry_cell_setting	triclinic
loop_
_symmetry_equiv_pos_as_xyz
  x,y,z
_cell_length_a	6.817900
_cell_length_b	10.943632
_cell_length_c	17.110486
_cell_angle_alpha	95.128976
_cell_angle_beta	99.060439
_cell_angle_gamma	108.838880
loop_
_atom_site_label
_atom_site_type_symbol
_atom_site_fract_x
_atom_site_fract_y
_atom_site_fract_z
V1	V	-4.004183	-0.178245	-0.246701
O2	O	-3.964002	0.008961	-0.242025
O3	O	-3.982903	-0.353811	-0.244995
O4	O	-3.933594	-0.175330	-0.354305
O5	O	-4.013652	-0.170756	-0.131958
V6	V	-4.487172	-0.155874	-0.232979
O7	O	-4.266613	-0.227319	-0.276801
O8	O	-4.674939	-0.106800	-0.202879
O9	O	-4.285245	0.019692	-0.234685
O10	O	-4.644749	-0.343080	-0.237656
O11	O	-4.595099	-0.163364	-0.347722
O12	O	-4.334553	-0.158789	-0.125376
C13	C	-3.835219	-0.396616	-0.241099
C14	C	-3.898959	-0.540142	-0.240421
C15	C	-3.745839	-0.617302	-0.235914
C16	C	-3.853497	-0.690048	-0.172035
C17	C	-3.904898	-0.723136	-0.303101
C18	C	-4.005757	-0.610984	-0.176497
C19	C	-4.057150	-0.644079	-0.307620
C20	C	-4.164924	-0.716787	-0.243728
C21	C	-3.772320	-0.168944	-0.380533
C22	C	-3.796069	-0.167722	-0.468499
C23	C	-3.989509	-0.173591	-0.513856
C24	C	-4.011811	-0.172442	-0.596510
C25	C	-3.840676	-0.165433	-0.633805
C26	C	-3.647219	-0.159559	-0.588441
C27	C	-3.624915	-0.160699	-0.505789
C28	C	-3.898898	-0.161661	-0.883160
C29	C	-3.921220	-0.160526	-0.965819
C30	C	-4.285810	-0.173406	-0.973882
C31	C	-4.263492	-0.174554	-0.891228
C32	C	-4.070035	-0.168673	-0.845871
C33	C	-3.863471	-0.164263	-0.718290
C34	C	-4.047239	-0.169834	-0.761386
C35	C	-4.096272	0.062490	-0.238580
C36	C	-4.011770	0.206015	-0.239263
C37	C	-4.159171	-0.165180	-0.099144
C38	C	-4.114660	-0.166395	-0.011177
H39	H	-4.128874	-0.179308	-0.483497
O40	O	-3.533681	-0.565441	-0.231744
C41	C	-3.426319	-0.588180	-0.160154
H42	H	-3.533738	-0.604288	-0.114485
H43	H	-3.381037	-0.678549	-0.172723
C44	C	-3.093174	-0.449398	-0.182759
C45	C	-3.225102	-0.469172	-0.126665
H46	H	-2.969048	-0.375993	-0.162102
H47	H	-3.165503	-0.434082	-0.230992
H48	H	-3.055462	-0.524715	-0.193228
H49	H	-3.262833	-0.393863	-0.116204
H50	H	-3.152774	-0.484473	-0.078429
O51	O	-4.055707	-0.553041	-0.112510
C52	C	-3.948623	-0.576856	-0.041225
H53	H	-3.906173	-0.668205	-0.054157
H54	H	-3.798029	-0.489767	-0.016659
C55	C	-4.144560	-0.484922	0.036810
C56	C	-4.092438	-0.597124	0.020928
H57	H	-4.233265	-0.497418	0.075150
H58	H	-4.216700	-0.468872	-0.011216
H59	H	-4.019051	-0.412358	0.057277
H60	H	-4.217943	-0.669681	0.000451
H61	H	-4.020322	-0.613186	0.068951
O62	O	-4.199884	-0.178192	-0.640455
C63	C	-4.346131	-0.184587	-0.589810
H64	H	-4.296261	-0.224593	-0.533636
H65	H	-4.350486	-0.082639	-0.572315
C66	C	-4.628616	-0.226107	-0.702995
C67	C	-4.567375	-0.275255	-0.634005
H68	H	-4.765092	-0.282030	-0.730257
H69	H	-4.530087	-0.221794	-0.737116
H70	H	-4.632230	-0.141152	-0.688406
H71	H	-4.563736	-0.360201	-0.648595
H72	H	-4.665909	-0.279584	-0.599887
H73	H	-4.142508	-0.623199	-0.364952
H74	H	-4.402852	-0.180260	-0.860868
O75	O	-3.436948	-0.154781	-0.461669
C76	C	-3.359950	-0.042756	-0.402881
H77	H	-3.432913	0.032444	-0.422585
H78	H	-3.404063	-0.070744	-0.343750
C79	C	-3.028078	-0.076525	-0.367726
C80	C	-3.117678	0.015842	-0.391929
H81	H	-2.878633	-0.040380	-0.360966
H82	H	-3.079954	-0.152001	-0.407329
H83	H	-3.064860	-0.099840	-0.318452
H84	H	-3.080918	0.039144	-0.441207
H85	H	-3.065790	0.091324	-0.352333
H86	H	-3.862844	-0.771973	-0.356587
O87	O	-4.473871	-0.179352	-1.017933
C88	C	-4.632528	-0.295853	-1.010894
H89	H	-4.556916	-0.370896	-0.993301
H90	H	-4.721225	-0.275136	-0.963012
C91	C	-4.881031	-0.257556	-1.113259
C92	C	-4.788163	-0.349730	-1.091658
H93	H	-4.977041	-0.290789	-1.163076
H94	H	-4.774144	-0.179065	-1.118000
H95	H	-4.954929	-0.240301	-1.073351
H96	H	-4.714246	-0.366972	-1.131561
H97	H	-4.895042	-0.428226	-1.086926
H98	H	-3.768058	-0.710895	-0.114704
H99	H	-3.781849	-0.154814	-0.996182
H100	H	-4.342699	-0.760007	-0.247010
H101	H	-3.741399	-0.156918	-0.846245
H102	H	-3.507876	-0.153844	-0.618813
H103	H	-4.186572	-0.175537	-0.731016
H104	H	-3.724138	-0.158561	-0.748666
