data_functionalizedCrystal
_audit_creation_method	'MofGen! by Chris Wilmer'
_symmetry_space_group_name_H-M	'P1'
_symmetry_Int_Tables_number	1
_symmetry_cell_setting	triclinic
loop_
_symmetry_equiv_pos_as_xyz
  x,y,z
_cell_length_a	21.295418
_cell_length_b	16.994747
_cell_length_c	21.295411
_cell_angle_alpha	89.994024
_cell_angle_beta	90.043738
_cell_angle_gamma	90.026880
loop_
_atom_site_label
_atom_site_type_symbol
_atom_site_fract_x
_atom_site_fract_y
_atom_site_fract_z
Zn1	Zn	0.962441	-0.313785	0.356354
Zn2	Zn	0.962379	-0.445672	0.251131
Zn3	Zn	0.857164	-0.313822	0.251064
Zn4	Zn	0.857169	-0.445687	0.356327
O5	O	0.909788	-0.379741	0.303719
O6	O	1.050522	-0.331258	0.342435
O7	O	0.948394	-0.428190	0.163032
O8	O	0.871153	-0.203436	0.265015
O9	O	1.050477	-0.428155	0.265128
O10	O	0.948499	-0.203409	0.342371
O11	O	0.871093	-0.331321	0.162984
O12	O	0.769075	-0.331336	0.264988
O13	O	0.871162	-0.428181	0.444420
O14	O	0.769079	-0.428217	0.342324
O15	O	0.948504	-0.331273	0.444440
O16	O	0.948399	-0.556055	0.265101
O17	O	0.871102	-0.556066	0.342389
C18	C	0.746237	-0.379783	0.303647
C19	C	0.676268	-0.379820	0.303631
C20	C	0.909752	-0.584681	0.303747
C21	C	0.909756	-0.674003	0.303746
Zn22	Zn	0.857182	-0.944908	0.251047
Zn23	Zn	0.962469	-0.944850	0.356327
Zn24	Zn	0.857191	-0.813080	0.356316
Zn25	Zn	0.962390	-0.812927	0.251110
O26	O	0.909808	-0.878941	0.303700
O27	O	0.871178	-1.055282	0.264990
O28	O	0.948540	-0.927410	0.444415
O29	O	0.769100	-0.830655	0.342321
O30	O	0.948532	-1.055239	0.342339
O31	O	0.769094	-0.927510	0.264980
O32	O	0.871192	-0.830599	0.444407
O33	O	0.871116	-0.702678	0.342383
O34	O	0.948398	-0.830395	0.163012
O35	O	0.948406	-0.702566	0.265088
O36	O	0.871102	-0.927361	0.162966
O37	O	1.050548	-0.927262	0.342400
O38	O	1.050490	-0.830338	0.265098
C39	C	0.643420	-0.430332	0.343839
C40	C	0.577678	-0.430313	0.343868
C41	C	0.544786	-0.379789	0.303676
C42	C	0.577642	-0.329267	0.263464
C43	C	0.643383	-0.329282	0.263442
N44	N	0.441508	-0.373615	0.248616
N45	N	0.379057	-0.373605	0.248639
C46	C	0.346711	-0.379739	0.303743
N47	N	0.379176	-0.385898	0.358823
N48	N	0.441634	-0.385912	0.358799
C49	C	0.473501	-0.379767	0.303696
C50	C	0.242578	-0.430233	0.343985
C51	C	0.176834	-0.430208	0.344015
C52	C	0.176800	-0.329166	0.263606
C53	C	0.242542	-0.329187	0.263582
C54	C	0.275427	-0.379725	0.303771
C55	C	1.073979	-0.379700	0.303792
C56	C	1.143947	-0.379683	0.303823
C57	C	0.909840	-0.379725	0.467909
C58	C	0.909863	-0.379718	0.537878
C59	C	0.909828	-0.174001	0.303687
C60	C	0.909847	-0.084679	0.303674
C61	C	0.909772	-0.379701	0.140167
C62	C	0.909872	-0.379486	0.070200
C63	C	0.950133	-0.329255	0.570756
C64	C	0.950132	-0.329221	0.636498
C65	C	0.909868	-0.379663	0.669360
C66	C	0.869589	-0.430129	0.636474
C67	C	0.869587	-0.430156	0.570733
N68	N	0.905030	-0.448668	0.772600
N69	N	0.905036	-0.448640	0.835052
C70	C	0.909872	-0.379583	0.867435
N71	N	0.914714	-0.310554	0.835007
N72	N	0.914711	-0.310583	0.772550
C73	C	0.909866	-0.379639	0.740645
C74	C	0.950143	-0.329080	0.971599
C75	C	0.950138	-0.329044	1.037342
C76	C	0.869598	-0.429959	1.037317
C77	C	0.869600	-0.429988	0.971574
C78	C	0.909876	-0.379549	0.938719
C79	C	1.073360	-0.878779	0.303759
C80	C	1.143328	-0.878733	0.303802
C81	C	0.909740	-0.878868	0.139510
C82	C	0.909711	-0.878836	0.069541
C83	C	0.745618	-0.879106	0.303642
C84	C	0.675650	-0.879176	0.303618
C85	C	0.909831	-0.879059	0.467251
C86	C	0.909684	-0.879241	0.537219
C87	C	1.176197	-0.929221	0.344037
C88	C	1.241940	-0.929193	0.344079
C89	C	1.274812	-0.878672	0.303887
C90	C	1.241938	-0.828182	0.263648
C91	C	1.176196	-0.828214	0.263604
C92	C	0.869449	-0.929307	0.036656
C93	C	0.869409	-0.929278	-0.029087
C94	C	0.909636	-0.878781	-0.061942
C95	C	0.949900	-0.828305	-0.029052
C96	C	0.949936	-0.828331	0.036689
C97	C	0.642792	-0.828777	0.343874
C98	C	0.577049	-0.828827	0.343851
C99	C	0.544166	-0.879282	0.303575
C100	C	0.577028	-0.929684	0.263314
C101	C	0.642770	-0.929629	0.263334
C102	C	0.869633	-0.828557	0.570046
C103	C	0.869483	-0.828727	0.635788
C104	C	0.909387	-0.879579	0.668702
C105	C	0.949440	-0.930269	0.635871
C106	C	0.949587	-0.930102	0.570130
H107	H	0.550928	-0.471446	0.376613
H108	H	0.982928	-0.288183	0.544009
C109	C	1.140046	-0.984803	0.388248
C110	C	1.149088	-1.074459	0.383029
C111	C	1.112942	-1.130048	0.427239
C112	C	1.067755	-1.095981	0.476668
C113	C	1.058711	-1.006320	0.481889
C114	C	1.094857	-0.950731	0.437679
H115	H	1.182541	-1.099682	0.346437
H116	H	1.119637	-1.196421	0.423373
H117	H	1.040997	-1.137131	0.509394
H118	H	1.025258	-0.981097	0.518481
H119	H	1.088162	-0.884358	0.441545
C120	C	1.278099	-0.772598	0.219447
C121	C	1.269067	-0.778912	0.147871
C122	C	1.305229	-0.723320	0.103676
C123	C	1.350423	-0.661416	0.131057
C124	C	1.359457	-0.655100	0.202637
C125	C	1.323295	-0.710691	0.246832
H126	H	1.235610	-0.824739	0.127599
H127	H	1.298541	-0.727996	0.050688
H128	H	1.377192	-0.620264	0.098341
H129	H	1.392914	-0.609272	0.222909
H130	H	1.329983	-0.706015	0.299820
H131	H	0.836811	-0.471084	0.944805
H132	H	0.982924	-0.288124	0.663273
C133	C	0.140698	-0.485774	0.388249
C134	C	0.176874	-0.541361	0.432452
C135	C	0.140737	-0.596927	0.476687
C136	C	0.068424	-0.596907	0.476719
C137	C	0.032244	-0.541319	0.432515
C138	C	0.068381	-0.485752	0.388279
H139	H	0.230408	-0.541377	0.432430
H140	H	0.167520	-0.638078	0.509411
H141	H	0.041674	-0.638041	0.509465
H142	H	-0.021290	-0.541302	0.432537
H143	H	0.041598	-0.444602	0.355556
H144	H	0.909601	-0.878769	-0.115473
C145	C	1.278092	-0.984729	0.388350
C146	C	1.241928	-1.040285	0.432566
C147	C	1.278078	-1.095819	0.476838
C148	C	1.350391	-1.095797	0.476894
C149	C	1.386558	-1.040238	0.432676
C150	C	1.350409	-0.984704	0.388404
H151	H	1.188394	-1.040304	0.432526
H152	H	1.251304	-1.136948	0.509571
H153	H	1.377151	-1.136907	0.509667
H154	H	1.440092	-1.040219	0.432716
H155	H	1.377182	-0.943576	0.355671
H156	H	0.982651	-0.787192	-0.055813
H157	H	0.836620	-0.970383	-0.055856
H158	H	0.550302	-0.787783	0.376638
C159	C	0.825199	-0.984859	0.072792
C160	C	0.830353	-1.074520	0.063732
C161	C	0.786100	-1.130073	0.099864
C162	C	0.736694	-1.095966	0.145056
C163	C	0.731538	-1.006300	0.154118
C164	C	0.775791	-0.950747	0.117986
H165	H	0.866928	-1.099773	0.030276
H166	H	0.789917	-1.196450	0.093155
H167	H	0.703935	-1.137089	0.171803
H168	H	0.694963	-0.981047	0.187574
H169	H	0.771974	-0.884370	0.124694
H170	H	0.982725	-0.787233	0.063459
H171	H	0.669557	-0.787687	0.376673
C172	C	0.679595	-0.485916	0.388050
C173	C	0.724864	-0.451839	0.437493
C174	C	0.761041	-0.507421	0.481703
C175	C	0.751951	-0.597080	0.476471
C176	C	0.706680	-0.631162	0.427025
C177	C	0.670503	-0.575580	0.382815
H178	H	0.731595	-0.385464	0.441368
H179	H	0.794554	-0.482191	0.518306
H180	H	0.778732	-0.638226	0.509198
H181	H	0.699949	-0.697537	0.423150
H182	H	0.636990	-0.600810	0.346212
C183	C	1.140046	-0.772667	0.219346
C184	C	1.149101	-0.683001	0.224572
C185	C	1.112955	-0.627451	0.180309
C186	C	1.067755	-0.661567	0.130821
C187	C	1.058698	-0.751237	0.125592
C188	C	1.094844	-0.806787	0.169855
H189	H	1.182562	-0.657743	0.261208
H190	H	1.119660	-0.561071	0.184180
H191	H	1.040998	-0.620445	0.098055
H192	H	1.025236	-0.776495	0.088956
H193	H	1.088139	-0.873167	0.165984
H194	H	0.982205	-0.971373	0.543408
H195	H	0.550245	-0.970762	0.230522
H196	H	0.490635	-0.879316	0.303562
C197	C	0.825428	-0.772958	0.671893
C198	C	0.781546	-0.717013	0.635683
C199	C	0.737493	-0.661243	0.671786
C200	C	0.737321	-0.661417	0.744098
C201	C	0.781205	-0.717363	0.780312
C202	C	0.825258	-0.773134	0.744209
H203	H	0.781671	-0.716883	0.582150
H204	H	0.705007	-0.619827	0.644978
H205	H	0.704711	-0.620132	0.770824
H206	H	0.781080	-0.717494	0.833846
H207	H	0.857744	-0.814549	0.771018
H208	H	0.150020	-0.288025	0.230884
C209	C	0.993338	-0.986198	0.672082
C210	C	0.993176	-0.986366	0.744395
C211	C	1.037077	-1.042290	0.780608
C212	C	1.081140	-1.098045	0.744509
C213	C	1.081304	-1.097879	0.672193
C214	C	1.037403	-1.041955	0.635979
H215	H	0.960556	-0.945091	0.771121
H216	H	1.036955	-1.042413	0.834142
H217	H	1.113639	-1.139443	0.771317
H218	H	1.113924	-1.139154	0.645467
H219	H	1.037524	-1.041833	0.582446
C220	C	0.825295	-0.485440	1.073452
C221	C	0.830399	-0.575115	1.064448
C222	C	0.786088	-0.630591	1.100584
C223	C	0.736673	-0.596393	1.145723
C224	C	0.731567	-0.506714	1.154729
C225	C	0.775878	-0.451237	1.118593
H226	H	0.866981	-0.600434	1.031031
H227	H	0.789868	-0.696978	1.093917
H228	H	0.703872	-0.637460	1.172473
H229	H	0.694986	-0.481395	1.188145
H230	H	0.772098	-0.384851	1.125260
H231	H	0.550857	-0.288128	0.230741
H232	H	0.669518	-0.970675	0.230554
H233	H	0.670128	-0.288146	0.230699
H234	H	0.269287	-0.288058	0.230836
H235	H	0.269354	-0.471380	0.376713
H236	H	0.837138	-0.787143	0.543256
H237	H	0.836803	-0.471197	0.663234
H238	H	0.982935	-0.288005	0.944846
C239	C	0.994437	-0.273529	1.073511
C240	C	1.038735	-0.218051	1.037368
C241	C	1.083034	-0.162534	1.073538
C242	C	1.083033	-0.162494	1.145851
C243	C	1.038733	-0.217974	1.181998
C244	C	0.994434	-0.273491	1.145828
H245	H	1.038737	-0.218078	0.983834
H246	H	1.115828	-0.121464	1.046779
H247	H	1.115826	-0.121397	1.172626
H248	H	1.038731	-0.217946	1.235532
H249	H	0.961640	-0.314561	1.172587
H250	H	0.836791	-0.471248	0.543964
H251	H	0.909263	-0.879706	0.722233
H252	H	1.328342	-0.878653	0.303930
