data_functionalizedCrystal
_audit_creation_method	'MofGen! by Chris Wilmer'
_symmetry_space_group_name_H-M	'P1'
_symmetry_Int_Tables_number	1
_symmetry_cell_setting	triclinic
loop_
_symmetry_equiv_pos_as_xyz
  x,y,z
_cell_length_a	25.639243
_cell_length_b	25.639239
_cell_length_c	15.296720
_cell_angle_alpha	99.638856
_cell_angle_beta	99.658289
_cell_angle_gamma	90.041410
loop_
_atom_site_label
_atom_site_type_symbol
_atom_site_fract_x
_atom_site_fract_y
_atom_site_fract_z
Zn1	Zn	0.748047	-0.259267	-0.510104
Zn2	Zn	1.081380	0.074066	-0.176770
Zn3	Zn	1.414714	0.407400	0.156563
Zn4	Zn	0.763106	-0.331577	-0.359248
Zn5	Zn	1.096439	0.001757	-0.025915
Zn6	Zn	1.429772	0.335090	0.307418
Zn7	Zn	0.675757	-0.244163	-0.359264
Zn8	Zn	1.009090	0.089171	-0.025931
Zn9	Zn	1.342424	0.422504	0.307403
Zn10	Zn	0.660575	-0.346671	-0.510041
Zn11	Zn	0.993908	-0.013338	-0.176708
Zn12	Zn	1.327241	0.319995	0.156626
O13	O	0.711871	-0.295419	-0.434664
O14	O	1.045204	0.037914	-0.101331
O15	O	1.378538	0.371247	0.232002
O16	O	0.823208	-0.268863	-0.490112
O17	O	1.156541	0.064470	-0.156778
O18	O	1.489874	0.397803	0.176555
O19	O	0.764174	-0.307343	-0.233016
O20	O	1.097508	0.025991	0.100317
O21	O	1.430841	0.359324	0.433650
O22	O	0.685398	-0.173004	-0.379306
O23	O	1.018731	0.160329	-0.045973
O24	O	1.352065	0.493662	0.287361
O25	O	0.834271	-0.321989	-0.379279
O26	O	1.167605	0.011345	-0.045946
O27	O	1.500938	0.344678	0.287388
O28	O	0.738509	-0.184102	-0.490127
O29	O	1.071843	0.149232	-0.156794
O30	O	1.405176	0.482565	0.176539
O31	O	0.700000	-0.243120	-0.233028
O32	O	1.033333	0.090213	0.100305
O33	O	1.366666	0.423547	0.433639
O34	O	0.600580	-0.257757	-0.379245
O35	O	0.933913	0.075577	-0.045912
O36	O	1.267246	0.408910	0.287421
O37	O	0.659522	-0.347715	-0.636283
O38	O	0.992856	-0.014382	-0.302950
O39	O	1.326189	0.318951	0.030383
O40	O	0.589425	-0.333069	-0.490021
O41	O	0.922759	0.000264	-0.156687
O42	O	1.256092	0.333597	0.176646
O43	O	0.723788	-0.283500	-0.636329
O44	O	1.057121	0.049833	-0.302996
O45	O	1.390454	0.383167	0.030337
O46	O	0.749453	-0.406741	-0.379218
O47	O	1.082786	-0.073408	-0.045885
O48	O	1.416120	0.259926	0.287448
O49	O	0.674124	-0.417831	-0.490005
O50	O	1.007457	-0.084498	-0.156672
O51	O	1.340791	0.248836	0.176662
C52	C	0.576032	-0.295412	-0.434628
C53	C	0.909365	0.037921	-0.101295
C54	C	1.242699	0.371254	0.232038
C55	C	0.517917	-0.295424	-0.434635
C56	C	0.851251	0.037909	-0.101301
C57	C	1.184584	0.371243	0.232032
C58	C	0.151775	-0.267819	-0.492471
C59	C	0.485109	0.065514	-0.159138
C60	C	0.818442	0.398847	0.174196
C61	C	0.097171	-0.267819	-0.492477
C62	C	0.430504	0.065514	-0.159143
C63	C	0.763837	0.398847	0.174190
O64	O	0.064025	-0.244334	-0.541607
O65	O	0.397358	0.088999	-0.208273
O66	O	0.730691	0.422332	0.125060
N67	N	0.075629	-0.295420	-0.434689
N68	N	0.408963	0.037913	-0.101356
N69	N	0.742296	0.371246	0.231978
C70	C	0.108697	-0.323019	-0.376886
C71	C	0.442031	0.010315	-0.043552
C72	C	0.775364	0.343648	0.289781
O73	O	0.085361	-0.346495	-0.327733
O74	O	0.418694	-0.013162	0.005601
O75	O	0.752028	0.320171	0.338934
C76	C	0.163301	-0.323015	-0.376876
C77	C	0.496635	0.010318	-0.043543
C78	C	0.829968	0.343651	0.289791
C79	C	0.184839	-0.295417	-0.434674
C80	C	0.518172	0.037917	-0.101341
C81	C	0.851505	0.371250	0.231993
C82	C	0.173313	-0.240222	-0.550263
C83	C	0.506646	0.093111	-0.216930
C84	C	0.839980	0.426444	0.116403
C85	C	0.227914	-0.240223	-0.550259
C86	C	0.561247	0.093110	-0.216925
C87	C	0.894581	0.426443	0.116408
C88	C	0.260977	-0.267821	-0.492462
C89	C	0.594311	0.065513	-0.159128
C90	C	0.927644	0.398846	0.174205
C91	C	0.239440	-0.295418	-0.434669
C92	C	0.572773	0.037916	-0.101336
C93	C	0.906106	0.371249	0.231997
C94	C	0.196369	-0.350610	-0.319069
C95	C	0.529702	-0.017277	0.014265
C96	C	0.863035	0.316056	0.347598
C97	C	0.250976	-0.350604	-0.319064
C98	C	0.584309	-0.017271	0.014270
C99	C	0.917643	0.316063	0.347603
C100	C	0.272513	-0.323005	-0.376862
C101	C	0.605847	0.010328	-0.043528
C102	C	0.939180	0.343661	0.289805
C103	C	0.327104	-0.323016	-0.376868
C104	C	0.660437	0.010317	-0.043534
C105	C	0.993771	0.343651	0.289799
N106	N	0.348645	-0.295415	-0.434655
N107	N	0.681978	0.037919	-0.101322
N108	N	1.015312	0.371252	0.232011
C109	C	0.315582	-0.267817	-0.492452
C110	C	0.648915	0.065516	-0.159119
C111	C	0.982248	0.398849	0.174214
C112	C	-0.005976	-0.323023	-0.376909
C113	C	0.327358	0.010310	-0.043575
C114	C	0.660691	0.343643	0.289758
C115	C	-0.060579	-0.323030	-0.376922
C116	C	0.272754	0.010303	-0.043589
C117	C	0.606087	0.343636	0.289745
C118	C	-0.072102	-0.267830	-0.492512
C119	C	0.261231	0.065503	-0.159179
C120	C	0.594564	0.398837	0.174155
C121	C	-0.017498	-0.267826	-0.492503
C122	C	0.315835	0.065507	-0.159169
C123	C	0.649169	0.398840	0.174164
C124	C	0.015565	-0.295422	-0.434696
C125	C	0.348899	0.037911	-0.101363
C126	C	0.682232	0.371244	0.231970
C127	C	0.430248	-0.267821	-0.492439
C128	C	0.763581	0.065512	-0.159105
C129	C	1.096915	0.398845	0.174228
C130	C	0.484854	-0.267826	-0.492432
C131	C	0.818188	0.065507	-0.159098
C132	C	1.151521	0.398840	0.174235
C133	C	0.496373	-0.323024	-0.376839
C134	C	0.829706	0.010309	-0.043505
C135	C	1.163039	0.343642	0.289828
C136	C	0.441771	-0.323022	-0.376849
C137	C	0.775104	0.010312	-0.043515
C138	C	1.108438	0.343645	0.289818
C139	C	0.408710	-0.295416	-0.434652
C140	C	0.742043	0.037917	-0.101318
C141	C	1.075376	0.371250	0.232015
O142	O	0.360282	-0.346487	-0.327760
O143	O	0.693615	-0.013154	0.005573
O144	O	1.026949	0.320180	0.338907
O145	O	0.338926	-0.244339	-0.541589
O146	O	0.672260	0.088994	-0.208255
O147	O	1.005593	0.422328	0.125078
C148	C	0.711787	-0.431258	-0.434623
C149	C	1.045121	-0.097925	-0.101290
C150	C	1.378454	0.235409	0.232044
C151	C	0.711796	-0.489373	-0.434635
C152	C	1.045130	-0.156040	-0.101302
C153	C	1.378463	0.177293	0.232031
C154	C	0.751172	-0.843962	-0.377076
C155	C	1.084506	-0.510628	-0.043743
C156	C	1.417839	-0.177295	0.289591
C157	C	0.751191	-0.898567	-0.377088
C158	C	1.084525	-0.565234	-0.043755
C159	C	1.417858	-0.231901	0.289579
O160	O	0.784584	-0.921890	-0.328103
O161	O	1.117917	-0.588557	0.005230
O162	O	1.451250	-0.255223	0.338563
N163	N	0.711957	-0.931664	-0.434724
N164	N	1.045290	-0.598331	-0.101391
N165	N	1.378624	-0.264998	0.231943
C166	C	0.672704	-0.910154	-0.492358
C167	C	1.006037	-0.576821	-0.159025
C168	C	1.339371	-0.243488	0.174308
O169	O	0.639334	-0.943320	-0.541384
O170	O	0.972668	-0.609987	-0.208051
O171	O	1.306001	-0.276653	0.125283
C172	C	0.672688	-0.855550	-0.492350
C173	C	1.006021	-0.522217	-0.159017
C174	C	1.339354	-0.188883	0.174317
C175	C	0.711921	-0.822455	-0.434704
C176	C	1.045255	-0.489121	-0.101370
C177	C	1.378588	-0.155788	0.231963
C178	C	0.790403	-0.810867	-0.319435
C179	C	1.123737	-0.477534	0.013898
C180	C	1.457070	-0.144200	0.347232
C181	C	0.790383	-0.756265	-0.319422
C182	C	1.123717	-0.422932	0.013911
C183	C	1.457050	-0.089598	0.347245
C184	C	0.751133	-0.734758	-0.377050
C185	C	1.084466	-0.401425	-0.043716
C186	C	1.417799	-0.068091	0.289617
C187	C	0.711902	-0.767853	-0.434691
C188	C	1.045235	-0.434520	-0.101357
C189	C	1.378568	-0.101186	0.231976
C190	C	0.633437	-0.834041	-0.549988
C191	C	0.966771	-0.500708	-0.216655
C192	C	1.300104	-0.167375	0.116679
C193	C	0.633425	-0.779433	-0.549975
C194	C	0.966758	-0.446100	-0.216642
C195	C	1.300091	-0.112766	0.116691
C196	C	0.672658	-0.746338	-0.492329
C197	C	1.005992	-0.413004	-0.158996
C198	C	1.339325	-0.079671	0.174337
C199	C	0.672631	-0.691744	-0.492306
C200	C	1.005965	-0.358411	-0.158972
C201	C	1.339298	-0.025077	0.174361
N202	N	0.711866	-0.658647	-0.434669
N203	N	1.045199	-0.325314	-0.101336
N204	N	1.378532	0.008020	0.231997
C205	C	0.751116	-0.680154	-0.377042
C206	C	1.084450	-0.346821	-0.043708
C207	C	1.417783	-0.013487	0.289625
C208	C	0.672742	-1.024826	-0.492372
C209	C	1.006075	-0.691493	-0.159039
C210	C	1.339409	-0.358160	0.174295
C211	C	0.672756	-1.079429	-0.492376
C212	C	1.006089	-0.746096	-0.159043
C213	C	1.339423	-0.412762	0.174290
C214	C	0.751244	-1.067838	-0.377107
C215	C	1.084577	-0.734505	-0.043774
C216	C	1.417910	-0.401172	0.289560
C217	C	0.751227	-1.013234	-0.377099
C218	C	1.084561	-0.679901	-0.043766
C219	C	1.417894	-0.346568	0.289568
C220	C	0.711976	-0.991729	-0.434736
C221	C	1.045310	-0.658396	-0.101403
C222	C	1.378643	-0.325062	0.231931
C223	C	0.751072	-0.565487	-0.377018
C224	C	1.084405	-0.232153	-0.043685
C225	C	1.417738	0.101180	0.289649
C226	C	0.751047	-0.510880	-0.377008
C227	C	1.084380	-0.177547	-0.043674
C228	C	1.417714	0.155786	0.289659
C229	C	0.672561	-0.522476	-0.492280
C230	C	1.005894	-0.189143	-0.158946
C231	C	1.339228	0.144191	0.174387
C232	C	0.672584	-0.577077	-0.492287
C233	C	1.005917	-0.243744	-0.158954
C234	C	1.339250	0.089589	0.174379
C235	C	0.711843	-0.598581	-0.434654
C236	C	1.045177	-0.265248	-0.101320
C237	C	1.378510	0.068086	0.232013
O238	O	0.639257	-0.668385	-0.541268
O239	O	0.972591	-0.335051	-0.207934
O240	O	1.305924	-0.001718	0.125399
O241	O	0.784485	-0.646983	-0.328033
O242	O	1.117818	-0.313650	0.005301
O243	O	1.451151	0.019683	0.338634
C244	C	0.848240	-0.295427	-0.434701
C245	C	1.181574	0.037906	-0.101367
C246	C	1.514907	0.371240	0.231966
C247	C	0.906353	-0.295430	-0.434716
C248	C	1.239686	0.037903	-0.101383
C249	C	1.573020	0.371236	0.231950
C250	C	0.688282	-0.318976	-0.669953
C251	C	1.021615	0.014357	-0.336619
C252	C	1.354948	0.347690	-0.003286
C253	C	0.678229	-0.329015	-0.770219
C254	C	1.011563	0.004319	-0.436885
C255	C	1.344896	0.337652	-0.103552
C256	C	0.711967	-0.159053	-0.434725
C257	C	1.045301	0.174281	-0.101392
C258	C	1.378634	0.507614	0.231941
C259	C	0.712008	-0.100941	-0.434751
C260	C	1.045342	0.232392	-0.101418
C261	C	1.378675	0.565726	0.231915
C262	C	0.783736	-0.223581	-1.052947
C263	C	1.117070	0.109752	-0.719614
C264	C	1.450403	0.443085	-0.386281
C265	C	0.793184	-0.214151	-0.958743
C266	C	1.126518	0.119183	-0.625409
C267	C	1.459851	0.452516	-0.292076
C268	C	0.764446	-0.242866	-0.911607
C269	C	1.097780	0.090468	-0.578274
C270	C	1.431113	0.423801	-0.244940
C271	C	0.726259	-0.281013	-0.958685
C272	C	1.059592	0.052320	-0.625352
C273	C	1.392926	0.385653	-0.292019
C274	C	0.716813	-0.290448	-1.052899
C275	C	1.050146	0.042885	-0.719566
C276	C	1.383480	0.376219	-0.386233
C277	C	0.697523	-0.309732	-0.911559
C278	C	1.030856	0.023601	-0.578226
C279	C	1.364190	0.356934	-0.244892
C280	C	0.659335	-0.347880	-0.958637
C281	C	0.992669	-0.014547	-0.625304
C282	C	1.326002	0.318787	-0.291971
C283	C	0.649891	-0.357313	-1.052842
C284	C	0.983224	-0.023979	-0.719509
C285	C	1.316558	0.309354	-0.386175
C286	C	0.678629	-0.328598	-1.099978
C287	C	1.011962	0.004736	-0.766644
C288	C	1.345296	0.338069	-0.433311
C289	C	0.706969	-0.300298	-0.817345
C290	C	1.040302	0.033036	-0.484012
C291	C	1.373636	0.366369	-0.150678
C292	C	0.640045	-0.367164	-0.817297
C293	C	0.973379	-0.033831	-0.483964
C294	C	1.306712	0.299502	-0.150630
C295	C	0.630597	-0.376595	-0.911502
C296	C	0.963931	-0.043262	-0.578168
C297	C	1.297264	0.290072	-0.244835
C298	C	0.735399	-0.271917	-0.200291
C299	C	1.068732	0.061417	0.133042
C300	C	1.402065	0.394750	0.466376
C301	C	0.745552	-0.261731	-0.100026
C302	C	1.078886	0.071602	0.233308
C303	C	1.412219	0.404936	0.566641
H304	H	0.523302	-0.345495	-0.329783
H305	H	0.856635	-0.012162	0.003550
H306	H	1.189969	0.321172	0.336883
H307	H	0.403336	-0.245341	-0.539505
H308	H	0.736669	0.087993	-0.206171
H309	H	1.070003	0.421326	0.127162
Cl310	Cl	0.414692	-0.357735	-0.304214
Cl311	Cl	0.748025	-0.024402	0.029119
Cl312	Cl	1.081359	0.308931	0.362453
Cl313	Cl	-0.113677	-0.233133	-0.565168
Cl314	Cl	0.219656	0.100201	-0.231835
Cl315	Cl	0.552989	0.433534	0.101499
Cl316	Cl	0.601892	-0.405279	-1.112024
Cl317	Cl	0.935226	-0.071945	-0.778691
Cl318	Cl	1.268559	0.261388	-0.445358
H319	H	0.616645	-0.390547	-0.778919
H320	H	0.949979	-0.057214	-0.445586
H321	H	1.283312	0.276119	-0.112253
H322	H	0.599505	-0.407655	-0.949846
H323	H	0.932838	-0.074322	-0.616513
H324	H	1.266171	0.259011	-0.283180
Cl325	Cl	0.839754	-0.837894	-0.246978
Cl326	Cl	1.173087	-0.504560	0.086355
Cl327	Cl	1.506421	-0.171227	0.419688
Cl328	Cl	0.666756	-0.340455	-1.218412
Cl329	Cl	1.000089	-0.007122	-0.885079
Cl330	Cl	1.333423	0.326212	-0.551745
H331	H	0.502386	-0.245352	-0.539501
H332	H	0.835720	0.087981	-0.206167
H333	H	1.169053	0.421314	0.127166
Cl334	Cl	0.839715	-0.714669	-0.246962
Cl335	Cl	1.173049	-0.381335	0.086371
Cl336	Cl	1.506382	-0.048002	0.419705
H337	H	0.772141	-0.235185	-0.834901
H338	H	1.105475	0.098149	-0.501568
H339	H	1.438808	0.431482	-0.168234
Cl340	Cl	0.623426	-1.121027	-0.564839
Cl341	Cl	0.956759	-0.787694	-0.231505
Cl342	Cl	1.290093	-0.454360	0.101828
Cl343	Cl	0.800587	-1.094886	-0.304658
Cl344	Cl	1.133921	-0.761552	0.028675
Cl345	Cl	1.467254	-0.428219	0.362008
Cl346	Cl	0.623222	-0.495428	-0.564727
Cl347	Cl	0.956555	-0.162095	-0.231394
Cl348	Cl	1.289889	0.171238	0.101940
Cl349	Cl	0.841189	-0.166196	-0.899565
Cl350	Cl	1.174522	0.167138	-0.566232
Cl351	Cl	1.507856	0.500471	-0.232899
Cl352	Cl	0.584078	-0.752402	-0.622440
Cl353	Cl	0.917411	-0.419069	-0.289106
Cl354	Cl	1.250745	-0.085735	0.044227
H355	H	0.277894	-0.373075	-0.271988
H356	H	0.611228	-0.039742	0.061345
H357	H	0.944561	0.293591	0.394678
H358	H	0.601487	-0.860978	-0.596926
H359	H	0.934820	-0.527645	-0.263592
H360	H	1.268154	-0.194312	0.069741
H361	H	0.782996	-0.483935	-0.330062
H362	H	1.116329	-0.150601	0.003272
H363	H	1.449663	0.182732	0.336605
H364	H	0.245444	-0.217749	-0.597322
H365	H	0.578778	0.115585	-0.263989
H366	H	0.912111	0.448918	0.069344
Cl367	Cl	0.623389	-0.997797	-0.564830
Cl368	Cl	0.956723	-0.664463	-0.231497
Cl369	Cl	1.290056	-0.331130	0.101836
H370	H	0.146398	-0.217746	-0.597329
H371	H	0.479731	0.115587	-0.263996
H372	H	0.813065	0.448920	0.069338
Cl373	Cl	0.009572	-0.233128	-0.565163
Cl374	Cl	0.342905	0.100205	-0.231830
Cl375	Cl	0.676238	0.433538	0.101504
H376	H	0.640638	-0.604025	-0.539230
H377	H	0.973971	-0.270692	-0.205897
H378	H	1.307304	0.062641	0.127436
Cl379	Cl	-0.087649	-0.357733	-0.304267
Cl380	Cl	0.245685	-0.024400	0.029066
Cl381	Cl	0.579018	0.308934	0.362399
H382	H	0.020941	-0.345500	-0.329838
H383	H	0.354275	-0.012167	0.003495
H384	H	0.687608	0.321166	0.336829
Cl385	Cl	0.800427	-0.592511	-0.304561
Cl386	Cl	1.133760	-0.259178	0.028772
Cl387	Cl	1.467093	0.074156	0.362105
H388	H	0.783175	-0.986291	-0.330159
H389	H	1.116508	-0.652957	0.003174
H390	H	1.449842	-0.319624	0.336508
H391	H	0.738061	-0.269237	-0.779023
H392	H	1.071394	0.064096	-0.445689
H393	H	1.404728	0.397430	-0.112356
H394	H	0.807134	-0.200209	-1.091334
H395	H	1.140467	0.133125	-0.758000
H396	H	1.473800	0.466458	-0.424667
Cl397	Cl	0.169309	-0.385295	-0.246385
Cl398	Cl	0.502642	-0.051962	0.086948
Cl399	Cl	0.835976	0.281371	0.420281
