data_functionalizedCrystal
_audit_creation_method	'MofGen! by Chris Wilmer'
_symmetry_space_group_name_H-M	'P1'
_symmetry_Int_Tables_number	1
_symmetry_cell_setting	triclinic
loop_
_symmetry_equiv_pos_as_xyz
  x,y,z
_cell_length_a	15.944551
_cell_length_b	14.421503
_cell_length_c	15.944551
_cell_angle_alpha	89.996660
_cell_angle_beta	83.498738
_cell_angle_gamma	90.003141
loop_
_atom_site_label
_atom_site_type_symbol
_atom_site_fract_x
_atom_site_fract_y
_atom_site_fract_z
O1	O	1.114529	0.077017	0.108320
O2	O	1.614529	0.577017	0.608320
O3	O	0.869980	0.077040	0.121677
O4	O	1.369980	0.577040	0.621677
O5	O	0.998933	0.077020	-0.007276
O6	O	1.498933	0.577020	0.492724
O7	O	0.985576	0.077038	0.237273
O8	O	1.485576	0.577038	0.737273
O9	O	0.998911	-0.077204	-0.007257
O10	O	1.498911	0.422796	0.492743
O11	O	0.869958	-0.077183	0.121696
O12	O	1.369958	0.422817	0.621696
O13	O	1.114508	-0.077206	0.108340
O14	O	1.614508	0.422794	0.608340
Cu15	Cu	0.992231	-0.091277	0.115020
Cu16	Cu	1.492231	0.408723	0.615020
Cu17	Cu	0.992256	0.091110	0.114997
Cu18	Cu	1.492256	0.591110	0.614997
O19	O	0.985555	-0.077186	0.237293
O20	O	1.485555	0.422814	0.737293
C21	C	0.838675	-0.000069	0.121132
C22	C	1.338675	0.499931	0.621132
C23	C	0.745429	-0.000060	0.119470
C24	C	1.245429	0.499940	0.619470
N25	N	0.992219	-0.219558	0.115035
N26	N	1.492219	0.280442	0.615035
C27	C	0.932581	-0.469202	0.174636
C28	C	1.432581	0.030798	0.674636
C29	C	1.008481	-0.531011	0.190943
C30	C	1.508481	-0.031011	0.690943
C31	C	0.992240	-0.408719	0.115015
C32	C	1.492240	0.091281	0.615015
C33	C	0.916359	-0.531005	0.098727
C34	C	1.416359	-0.031005	0.598727
C35	C	0.992253	-0.591441	0.114997
C36	C	1.492253	-0.091441	0.614997
C37	C	1.068178	-0.469167	0.131360
C38	C	1.568178	0.030833	0.631360
C39	C	0.976007	-0.469156	0.039111
C40	C	1.476007	0.030844	0.539111
C41	C	1.051961	-0.530936	0.055386
C42	C	1.551961	-0.030936	0.555386
C43	C	0.992231	-0.303458	0.115027
C44	C	1.492231	0.196542	0.615027
C45	C	0.992270	-0.696700	0.114985
C46	C	1.492270	-0.196700	0.614985
C47	C	0.530572	-0.000084	0.035565
C48	C	1.030572	0.499916	0.535565
C49	C	0.469563	0.075959	0.074518
C50	C	0.969563	0.575959	0.574518
C51	C	0.574703	-0.000071	0.116462
C52	C	1.074703	0.499929	0.616462
C53	C	0.469564	-0.076093	0.074556
C54	C	0.969564	0.423907	0.574556
C55	C	0.409790	-0.000086	0.113551
C56	C	0.909790	0.499914	0.613551
C57	C	0.514922	0.076035	0.155437
C58	C	1.014922	0.576035	0.655437
C59	C	0.514929	-0.076086	0.155464
C60	C	1.014929	0.423914	0.655464
C61	C	0.453937	-0.000024	0.194476
C62	C	0.953937	0.499976	0.694476
C63	C	0.669705	-0.000062	0.118137
C64	C	1.169705	0.499938	0.618137
C65	C	0.314789	-0.000089	0.111883
C66	C	0.814789	0.499911	0.611883
C67	C	1.145813	-0.000096	0.108885
C68	C	1.645813	0.499904	0.608885
C69	C	1.239059	-0.000098	0.110547
C70	C	1.739059	0.499902	0.610547
C71	C	0.998367	-0.000092	-0.038561
C72	C	1.498367	0.499908	0.461439
C73	C	0.996705	-0.000093	-0.131807
C74	C	1.496705	0.499907	0.368193
N75	N	0.992275	0.219392	0.114975
N76	N	1.492275	0.719392	0.614975
C77	C	0.912801	-0.000072	-0.346663
C78	C	1.412801	0.499928	0.153337
C79	C	0.951753	-0.076117	-0.407671
C80	C	1.451753	0.423883	0.092329
C81	C	0.993698	-0.000085	-0.302533
C82	C	1.493698	0.499915	0.197467
C83	C	0.951793	0.075935	-0.407674
C84	C	1.451793	0.575935	0.092326
C85	C	0.990787	-0.000074	-0.467445
C86	C	1.490787	0.499926	0.032555
C87	C	1.032672	-0.076193	-0.362312
C88	C	1.532672	0.423807	0.137688
C89	C	1.032701	0.075927	-0.362308
C90	C	1.532701	0.575927	0.137692
C91	C	1.071711	-0.000136	-0.423298
C92	C	1.571711	0.499864	0.076702
C93	C	0.995372	-0.000092	-0.207530
C94	C	1.495372	0.499908	0.292470
C95	C	0.989119	-0.000073	-0.562446
C96	C	1.489119	0.499927	-0.062446
C97	C	0.986120	-0.000072	0.268577
C98	C	1.486120	0.499928	0.768577
C99	C	0.987782	-0.000066	0.361823
C100	C	1.487782	0.499934	0.861823
H101	H	0.882181	-0.442096	0.225096
H102	H	1.382181	0.057904	0.725096
O103	O	1.077998	0.161077	-0.335639
O104	O	1.577998	0.661077	0.164361
H105	H	1.044295	0.224112	-0.353593
H106	H	1.544295	0.724112	0.146407
H107	H	0.535052	-0.140373	0.189660
H108	H	1.035052	0.359627	0.689660
H109	H	1.066850	-0.140554	-0.342314
H110	H	1.566850	0.359446	0.157686
H111	H	0.917527	-0.140401	-0.427771
H112	H	1.417527	0.359599	0.072229
H113	H	0.845652	-0.000141	-0.313356
H114	H	1.345652	0.499859	0.186644
O115	O	0.957774	-0.433138	-0.045881
O116	O	1.457774	0.066862	0.454119
H117	H	1.011915	-0.390803	-0.074068
H118	H	1.511915	0.109197	0.425932
O119	O	0.442929	0.161112	0.029192
O120	O	0.942929	0.661112	0.529192
H121	H	0.373349	0.160660	0.028914
H122	H	0.873349	0.660660	0.528914
H123	H	1.138919	-0.000186	-0.456457
H124	H	1.638919	0.499814	0.043543
H125	H	0.449469	-0.140379	0.040333
H126	H	0.949469	0.359621	0.540333
H127	H	0.420779	0.000023	0.261683
H128	H	0.920779	0.500023	0.761683
O129	O	0.906473	0.161097	-0.434294
O130	O	1.406473	0.661097	0.065706
H131	H	0.840536	0.160937	-0.403291
H132	H	1.340536	0.660937	0.096709
H133	H	1.022224	-0.558180	0.255126
H134	H	1.522224	-0.058180	0.755126
H135	H	1.132368	-0.442119	0.145205
H136	H	1.632368	0.057881	0.645205
H137	H	1.102474	-0.557872	0.004956
H138	H	1.602474	-0.057872	0.504956
H139	H	0.563905	0.000005	-0.031573
H140	H	1.063905	0.500005	0.468427
O141	O	0.831355	-0.566987	0.080477
O142	O	1.331355	-0.066987	0.580477
H143	H	0.781945	-0.542252	0.130062
H144	H	1.281945	-0.042252	0.630062
O145	O	0.541401	0.161310	0.200685
O146	O	1.041401	0.661310	0.700685
H147	H	0.610912	0.160671	0.201521
H148	H	1.110912	0.660671	0.701521
