data_functionalizedCrystal
_audit_creation_method	'MofGen! by Chris Wilmer'
_symmetry_space_group_name_H-M	'P1'
_symmetry_Int_Tables_number	1
_symmetry_cell_setting	triclinic
loop_
_symmetry_equiv_pos_as_xyz
  x,y,z
_cell_length_a	10.489746
_cell_length_b	10.489741
_cell_length_c	7.540329
_cell_angle_alpha	89.996684
_cell_angle_beta	89.999963
_cell_angle_gamma	84.540238
loop_
_atom_site_label
_atom_site_type_symbol
_atom_site_fract_x
_atom_site_fract_y
_atom_site_fract_z
O1	O	1.694047	0.179998	-0.147362
O2	O	1.322852	0.196884	-0.147392
O3	O	1.516896	0.002843	-0.147366
O4	O	1.500003	0.374038	-0.147388
O5	O	1.516885	0.002840	0.147599
O6	O	1.322841	0.196881	0.147573
O7	O	1.694036	0.179995	0.147603
Cu8	Cu	1.508437	0.188438	0.174521
Cu9	Cu	1.508451	0.188441	-0.174310
O10	O	1.499992	0.374036	0.147577
C11	C	1.275315	0.195606	0.000087
C12	C	1.133686	0.191786	0.000076
C13	C	0.980828	0.066062	0.000109
C14	C	1.058216	0.128918	0.145533
C15	C	1.058183	0.128949	-0.145280
C16	C	0.958725	0.247899	0.145664
C17	C	0.958686	0.247914	-0.145279
C18	C	1.036025	0.310856	0.000181
C19	C	1.515614	-0.044690	0.000116
C20	C	1.511797	-0.186320	0.000112
C21	C	1.388333	-0.254462	0.000089
C22	C	1.446651	-0.346585	0.145527
C23	C	1.446691	-0.346557	-0.145285
C24	C	1.570166	-0.276577	0.145670
C25	C	1.570189	-0.276539	-0.145273
C26	C	1.628597	-0.368635	0.000200
C27	C	1.741573	0.181273	0.000120
C28	C	1.883202	0.185093	0.000120
C29	C	1.501273	0.421569	0.000092
C30	C	1.505091	0.563198	0.000083
N31	N	1.508437	0.188435	0.419869
N32	N	1.508461	0.188434	-0.419658
H33	H	0.915440	0.298113	0.268752
N34	N	1.115736	0.062374	-0.308143
H35	H	1.211585	0.066160	-0.307547
H36	H	1.095971	-0.029994	-0.307898
H37	H	1.394440	-0.377521	-0.268253
N38	N	1.253873	-0.188694	0.000250
H39	H	1.207400	-0.213990	0.110209
H40	H	1.257505	-0.092831	-0.000941
H41	H	0.956107	-0.037439	0.000261
N42	N	1.068436	0.448060	0.000245
H43	H	1.031897	0.492855	0.110137
H44	H	1.164532	0.449800	-0.000879
N45	N	1.377464	-0.387658	0.308404
H46	H	1.286710	-0.345722	0.308297
H47	H	1.376216	-0.483810	0.307703
H48	H	1.622390	-0.245493	-0.268229
N49	N	0.901062	0.314422	-0.308144
H50	H	0.937403	0.269354	-0.417948
H51	H	0.805045	0.312066	-0.306133
N52	N	1.115774	0.062378	0.308429
H53	H	1.096102	-0.030022	0.308341
H54	H	1.211606	0.066260	0.307744
H55	H	1.622356	-0.245745	0.268764
H56	H	1.730200	-0.418057	0.000289
