data_functionalizedCrystal
_audit_creation_method	'MofGen! by Chris Wilmer'
_symmetry_space_group_name_H-M	'P1'
_symmetry_Int_Tables_number	1
_symmetry_cell_setting	triclinic
loop_
_symmetry_equiv_pos_as_xyz
  x,y,z
_cell_length_a	18.215407
_cell_length_b	12.759394
_cell_length_c	18.215399
_cell_angle_alpha	89.976418
_cell_angle_beta	89.982632
_cell_angle_gamma	90.011299
loop_
_atom_site_label
_atom_site_type_symbol
_atom_site_fract_x
_atom_site_fract_y
_atom_site_fract_z
Zn1	Zn	1.125128	-0.418349	-0.416090
Zn2	Zn	1.125060	-0.594046	-0.293033
Zn3	Zn	1.002061	-0.418374	-0.293042
Zn4	Zn	1.002050	-0.593979	-0.416063
O5	O	1.063575	-0.506187	-0.354557
O6	O	1.228104	-0.441673	-0.399773
O7	O	1.108720	-0.570782	-0.190050
O8	O	1.018419	-0.271350	-0.309380
O9	O	1.228054	-0.570758	-0.309364
O10	O	1.108836	-0.271331	-0.399782
O11	O	1.018353	-0.441716	-0.190057
O12	O	0.899075	-0.441651	-0.309354
O13	O	1.018401	-0.570642	-0.519051
O14	O	0.899068	-0.570667	-0.399737
O15	O	1.108826	-0.441608	-0.519071
O16	O	1.108710	-0.741058	-0.309338
O17	O	1.018335	-0.741009	-0.399728
C18	C	0.872369	-0.506155	-0.354544
C19	C	0.790570	-0.506166	-0.354556
C20	C	1.063534	-0.779155	-0.354545
C21	C	1.063584	-0.895931	-0.354564
C22	C	0.602401	-0.439090	-0.401707
C23	C	0.525542	-0.439099	-0.401709
C24	C	0.525501	-0.573313	-0.307420
C25	C	0.602358	-0.573298	-0.307415
C26	C	0.640806	-0.506188	-0.354562
C27	C	0.487090	-0.506212	-0.354570
C28	C	0.403757	-0.506223	-0.354573
C29	C	0.724145	-0.506176	-0.354559
C30	C	1.157665	-0.895754	-0.448771
C31	C	1.204728	-0.950526	-0.495880
C32	C	1.204772	-1.060247	-0.495896
C33	C	1.157746	-1.115199	-0.448799
C34	C	1.110682	-1.060427	-0.401690
C35	C	1.110645	-0.950703	-0.401678
C36	C	1.016599	-1.060605	-0.307489
C37	C	1.016557	-0.950883	-0.307468
C38	C	0.969572	-1.115557	-0.260392
C39	C	0.922511	-1.060785	-0.213278
C40	C	0.922470	-0.951057	-0.213264
C41	C	0.969494	-0.896111	-0.260359
C42	C	1.255528	-0.506220	-0.354570
C43	C	1.337327	-0.506234	-0.354576
C44	C	1.063620	-0.506115	-0.546510
C45	C	1.063639	-0.506084	-0.628309
C46	C	1.063636	-0.232154	-0.354585
C47	C	1.063662	-0.115377	-0.354597
C48	C	1.110740	-0.438833	-0.816514
C49	C	1.110749	-0.438802	-0.893373
C50	C	1.016590	-0.573172	-0.893342
C51	C	1.016578	-0.573197	-0.816484
C52	C	1.063657	-0.506029	-0.778073
C53	C	1.063678	-0.505973	-0.931789
C54	C	1.063687	-0.505941	-1.015122
C55	C	1.063647	-0.506060	-0.694734
C56	C	1.063573	-0.506183	-0.163351
C57	C	1.063696	-0.505918	-0.081552
H58	H	0.494276	-0.384460	-0.440098
H59	H	0.633703	-0.384442	-0.440095
C60	C	0.969447	-0.775421	-0.260349
H61	H	1.004188	-0.750542	-0.295149
H62	H	0.982183	-0.750615	-0.212867
H63	H	0.921937	-0.750646	-0.273044
H64	H	0.494188	-0.627952	-0.269036
C65	C	1.162547	-0.364900	-0.935660
H66	H	1.155810	-0.374498	-0.986935
H67	H	1.211986	-0.380296	-0.923067
H68	H	1.151791	-0.294306	-0.923072
C69	C	0.964811	-0.647061	-0.935593
H70	H	0.936764	-0.687078	-0.901689
H71	H	0.992959	-0.692832	-0.965573
H72	H	0.932756	-0.606853	-0.965576
C73	C	0.964785	-0.647113	-0.774192
H74	H	0.971516	-0.637498	-0.722917
H75	H	0.975540	-0.717703	-0.786776
H76	H	0.915341	-0.631719	-0.786782
H77	H	0.633629	-0.627938	-0.269020
H78	H	1.157779	-1.204541	-0.448823
C79	C	1.157620	-0.775063	-0.448755
H80	H	1.192362	-0.750181	-0.483552
H81	H	1.170355	-0.750266	-0.401271
H82	H	1.110110	-0.750284	-0.461448
C83	C	1.162515	-0.364938	-0.774264
H84	H	1.190551	-0.324907	-0.808169
H85	H	1.194571	-0.405132	-0.744279
H86	H	1.134359	-0.319166	-0.744287
C87	C	1.256456	-0.890078	-0.547679
H88	H	1.249697	-0.816887	-0.540920
H89	H	1.245673	-0.908027	-0.597121
H90	H	1.305917	-0.908019	-0.536942
C91	C	1.256543	-1.120499	-0.547711
H92	H	1.284547	-1.072062	-0.575754
H93	H	1.228394	-1.163309	-0.579758
H94	H	1.288639	-1.163286	-0.519580
C95	C	0.870785	-1.121227	-0.161481
H96	H	0.842748	-1.072895	-0.133423
H97	H	0.898966	-1.164036	-0.129447
H98	H	0.838718	-1.164029	-0.189623
C99	C	0.870698	-0.890815	-0.161444
H100	H	0.842704	-0.939260	-0.133397
H101	H	0.838605	-0.848019	-0.189563
H102	H	0.898853	-0.848015	-0.129388
C103	C	0.969615	-1.236247	-0.260407
H104	H	0.934865	-1.261127	-0.225617
H105	H	1.017120	-1.261032	-0.247721
H106	H	0.956872	-1.261041	-0.307894
