data_functionalizedCrystal
_audit_creation_method	'MofGen! by Chris Wilmer'
_symmetry_space_group_name_H-M	'P1'
_symmetry_Int_Tables_number	1
_symmetry_cell_setting	triclinic
loop_
_symmetry_equiv_pos_as_xyz
  x,y,z
_cell_length_a	15.995355
_cell_length_b	14.472311
_cell_length_c	15.995343
_cell_angle_alpha	90.013007
_cell_angle_beta	96.508305
_cell_angle_gamma	89.999070
loop_
_atom_site_label
_atom_site_type_symbol
_atom_site_fract_x
_atom_site_fract_y
_atom_site_fract_z
O1	O	-1.110980	0.076761	0.107949
O2	O	-0.867205	0.076784	0.121273
O3	O	-0.995760	0.076755	-0.007277
O4	O	-0.982426	0.076790	0.236499
O5	O	-0.995748	-0.076927	-0.007290
O6	O	-0.867194	-0.076898	0.121260
O7	O	-1.110969	-0.076921	0.107937
Cu8	Cu	-0.989080	-0.090942	0.114597
Cu9	Cu	-0.989094	0.090805	0.114612
O10	O	-0.982414	-0.076892	0.236486
C11	C	-0.836005	-0.000054	0.120715
C12	C	-0.743055	-0.000046	0.119062
C13	C	-0.572869	-0.000060	0.116061
C14	C	-0.549526	-0.000073	0.023262
C15	C	-0.452849	-0.000428	0.021512
C16	C	-0.405311	-0.000072	0.113105
C17	C	-0.434394	-0.087650	0.159759
C18	C	-0.531186	-0.087718	0.160864
C19	C	-0.531110	0.087053	0.162237
C20	C	-0.434615	0.088198	0.158807
C21	C	-0.310613	-0.000082	0.111439
C22	C	-0.667567	-0.000056	0.117729
N23	N	-0.989077	-0.218773	0.114586
C24	C	-0.989086	-0.407273	0.114597
C25	C	-1.057889	-0.446490	0.045836
C26	C	-1.058138	-0.553578	0.046019
C27	C	-0.989095	-0.592864	0.114606
C28	C	-1.007813	-0.553960	0.202079
C29	C	-1.008301	-0.446838	0.201671
C30	C	-0.901359	-0.446759	0.096672
C31	C	-0.901952	-0.553888	0.094692
C32	C	-0.989098	-0.697752	0.114616
C33	C	-0.989084	-0.302385	0.114592
C34	C	-0.142171	-0.000081	0.108483
C35	C	-0.235125	-0.000085	0.110104
C36	C	-0.995204	-0.000089	-0.038478
C37	C	-0.993555	-0.000096	-0.131429
N38	N	-0.989104	0.218636	0.114616
C39	C	-0.990561	-0.000074	-0.301615
C40	C	-0.897764	-0.000064	-0.324962
C41	C	-0.896019	0.000296	-0.421640
C42	C	-0.987613	-0.000054	-0.469175
C43	C	-1.034279	0.087525	-0.440068
C44	C	-1.035380	0.087588	-0.343276
C45	C	-1.036725	-0.087184	-0.343394
C46	C	-1.033299	-0.088324	-0.439890
C47	C	-0.985951	-0.000040	-0.563874
C48	C	-0.992226	-0.000083	-0.206917
C49	C	-0.982970	-0.000046	0.267688
C50	C	-0.984619	-0.000033	0.360638
H51	H	-0.416064	0.152990	0.124831
H52	H	-1.003449	0.153310	-0.316480
H53	H	-1.101690	0.090530	-0.471913
H54	H	-0.577539	0.062720	-0.012700
Br55	Br	-0.816027	-0.404487	0.180242
Br56	Br	-0.835130	-0.104319	-0.453364
Br57	Br	-0.812659	-0.598446	0.172722
H58	H	-1.071048	-0.580785	0.218202
H59	H	-0.401657	0.093768	0.225639
Br60	Br	-0.578235	0.197732	0.113450
H61	H	-0.999316	-0.153117	-0.458461
Br62	Br	-1.165799	-0.401623	0.064706
Br63	Br	-0.837798	-0.104726	-0.278296
Br64	Br	-0.554418	0.088449	0.276096
H65	H	-1.123248	-0.579202	0.057508
Br66	Br	-0.871231	-0.401762	-0.007405
Br67	Br	-1.148801	0.093764	-0.318977
Br68	Br	-0.597826	-0.104609	-0.035724
Br69	Br	-0.575828	-0.197264	0.107630
Br70	Br	-0.838793	0.104467	-0.276640
H71	H	-0.859673	0.063455	-0.440068
H72	H	-1.002269	0.152958	-0.460149
H73	H	-1.047046	-0.579884	-0.018993
H74	H	-1.007443	-0.153590	-0.315136
H75	H	-0.887741	-0.579317	0.030342
Br76	Br	-1.114916	-0.405183	0.227914
H77	H	-1.100135	-0.093882	-0.472838
Br78	Br	-1.150568	-0.088607	-0.320036
H79	H	-0.433836	0.062339	-0.015009
H80	H	-1.046993	-0.420728	-0.019391
H81	H	-0.434409	-0.063585	-0.014848
H82	H	-0.959938	-0.420893	0.254270
H83	H	-0.545757	-0.091453	0.228915
Br84	Br	-0.400903	-0.196714	0.106392
Br85	Br	-0.926485	-0.596359	0.289448
Br86	Br	-0.381317	-0.092658	0.272114
