data_functionalizedCrystal
_audit_creation_method	'MofGen! by Chris Wilmer'
_symmetry_space_group_name_H-M	'P1'
_symmetry_Int_Tables_number	1
_symmetry_cell_setting	triclinic
loop_
_symmetry_equiv_pos_as_xyz
  x,y,z
_cell_length_a	23.532361
_cell_length_b	23.532407
_cell_length_c	22.010155
_cell_angle_alpha	89.990798
_cell_angle_beta	89.988583
_cell_angle_gamma	82.839173
loop_
_atom_site_label
_atom_site_type_symbol
_atom_site_fract_x
_atom_site_fract_y
_atom_site_fract_z
O1	O	0.755286	0.069007	-0.050470
O2	O	1.088619	0.402341	0.282863
O3	O	1.421953	0.735674	0.616196
O4	O	0.589419	0.079038	-0.050486
O5	O	0.922752	0.412371	0.282848
O6	O	1.256086	0.745705	0.616181
O7	O	0.677354	-0.008910	-0.050466
O8	O	1.010688	0.324423	0.282867
O9	O	1.344021	0.657757	0.616200
O10	O	0.667351	0.156955	-0.050490
O11	O	1.000684	0.490289	0.282844
O12	O	1.334017	0.823622	0.616177
O13	O	0.677328	-0.008910	0.050584
O14	O	1.010661	0.324423	0.383917
O15	O	1.343995	0.657757	0.717251
O16	O	0.589393	0.079038	0.050565
O17	O	0.922726	0.412371	0.383898
O18	O	1.256059	0.745705	0.717231
O19	O	0.755260	0.069007	0.050580
O20	O	1.088593	0.402341	0.383913
O21	O	1.421926	0.735674	0.717247
Cu22	Cu	0.672324	0.074023	0.059799
Cu23	Cu	1.005657	0.407356	0.393132
Cu24	Cu	1.338990	0.740689	0.726466
Cu25	Cu	0.672355	0.074023	-0.059705
Cu26	Cu	1.005688	0.407356	0.273629
Cu27	Cu	1.339022	0.740689	0.606962
O28	O	0.667324	0.156955	0.050561
O29	O	1.000658	0.490289	0.383894
O30	O	1.333991	0.823622	0.717227
C31	C	0.568189	0.078787	0.000038
C32	C	0.901523	0.412120	0.333371
C33	C	1.234856	0.745454	0.666704
C34	C	0.504971	0.078032	0.000032
C35	C	0.838304	0.411365	0.333366
C36	C	1.171637	0.744698	0.666699
C37	C	0.677086	-0.030126	0.000060
C38	C	1.010420	0.303207	0.333394
C39	C	1.343753	0.636541	0.666727
C40	C	0.676320	-0.093343	0.000065
C41	C	1.009654	0.239991	0.333398
C42	C	1.342987	0.573324	0.666732
C43	C	0.231741	0.074728	-0.055046
C44	C	0.565075	0.408062	0.278287
C45	C	0.898408	0.741395	0.611620
C46	C	0.291141	0.075443	-0.055048
C47	C	0.624475	0.408776	0.278285
C48	C	0.957808	0.742110	0.611619
O49	O	0.321879	0.075793	-0.101892
O50	O	0.655213	0.409127	0.231441
O51	O	0.988546	0.742460	0.564774
N52	N	0.320832	0.075804	0.000035
N53	N	0.654166	0.409138	0.333368
N54	N	0.987499	0.742471	0.666702
C55	C	0.291122	0.075445	0.055123
C56	C	0.624455	0.408778	0.388456
C57	C	0.957788	0.742111	0.721789
O58	O	0.321831	0.075817	0.101975
O59	O	0.655164	0.409150	0.435308
O60	O	0.988498	0.742484	0.768641
C61	C	0.231724	0.074726	0.055124
C62	C	0.565057	0.408059	0.388457
C63	C	0.898390	0.741392	0.721790
C64	C	0.202035	0.074370	0.000037
C65	C	0.535368	0.407704	0.333371
C66	C	0.868701	0.741037	0.666704
C67	C	0.202052	0.074372	-0.110128
C68	C	0.535386	0.407706	0.223205
C69	C	0.868719	0.741039	0.556539
C70	C	0.142657	0.073658	-0.110126
C71	C	0.475990	0.406992	0.223207
C72	C	0.809323	0.740325	0.556540
C73	C	0.112950	0.073301	-0.055043
C74	C	0.446283	0.406634	0.278291
C75	C	0.779616	0.739967	0.611624
C76	C	0.142639	0.073657	0.000039
C77	C	0.475972	0.406990	0.333373
C78	C	0.809305	0.740323	0.666706
C79	C	0.202015	0.074362	0.110211
C80	C	0.535348	0.407695	0.443544
C81	C	0.868681	0.741029	0.776878
C82	C	0.142612	0.073642	0.110207
C83	C	0.475946	0.406976	0.443541
C84	C	0.809279	0.740309	0.776874
C85	C	0.112923	0.073287	0.055121
C86	C	0.446257	0.406620	0.388454
C87	C	0.779590	0.739954	0.721788
C88	C	0.053536	0.072585	0.055125
C89	C	0.386870	0.405918	0.388458
C90	C	0.720203	0.739252	0.721791
N91	N	0.023845	0.072224	0.000042
N92	N	0.357178	0.405557	0.333375
N93	N	0.690512	0.738890	0.666709
C94	C	0.053552	0.072582	-0.055042
C95	C	0.386885	0.405915	0.278292
C96	C	0.720218	0.739248	0.611625
C97	C	0.415862	0.076954	0.055117
C98	C	0.749195	0.410287	0.388450
C99	C	1.082529	0.743620	0.721783
C100	C	0.475258	0.077677	0.055116
C101	C	0.808592	0.411010	0.388450
C102	C	1.141925	0.744343	0.721783
C103	C	0.475274	0.077674	-0.055055
C104	C	0.808607	0.411007	0.278279
C105	C	1.141941	0.744341	0.611612
C106	C	0.415876	0.076955	-0.055054
C107	C	0.749209	0.410288	0.278280
C108	C	1.082542	0.743622	0.611613
C109	C	0.386171	0.076593	0.000034
C110	C	0.719504	0.409926	0.333367
C111	C	1.052837	0.743259	0.666701
C112	C	-0.071184	0.071083	-0.055034
C113	C	0.262149	0.404416	0.278300
C114	C	0.595483	0.737750	0.611633
C115	C	-0.130585	0.070372	-0.055027
C116	C	0.202748	0.403705	0.278306
C117	C	0.536081	0.737038	0.611640
C118	C	-0.130595	0.070371	0.055144
C119	C	0.202738	0.403705	0.388477
C120	C	0.536072	0.737038	0.721810
C121	C	-0.071199	0.071086	0.055137
C122	C	0.262134	0.404419	0.388471
C123	C	0.595467	0.737752	0.721804
C124	C	-0.041495	0.071440	0.000044
C125	C	0.291838	0.404773	0.333377
C126	C	0.625172	0.738106	0.666710
O127	O	0.022761	0.072232	0.101945
O128	O	0.356094	0.405565	0.435279
O129	O	0.689427	0.738899	0.768612
O130	O	0.022836	0.072202	-0.101886
O131	O	0.356170	0.405535	0.231448
O132	O	0.689503	0.738868	0.564781
C133	C	0.723555	-0.492454	0.000036
C134	C	1.056888	-0.159120	0.333369
C135	C	1.390222	0.174213	0.666703
C136	C	0.722844	-0.551854	0.000031
C137	C	1.056177	-0.218521	0.333365
C138	C	1.389510	0.114813	0.666698
O139	O	0.766630	-0.588606	0.000013
O140	O	1.099964	-0.255272	0.333346
O141	O	1.433297	0.078061	0.666680
N142	N	0.670566	-0.574471	0.000027
N143	N	1.003899	-0.241138	0.333360
N144	N	1.337233	0.092195	0.666694
C145	C	0.618997	-0.537685	0.000021
C146	C	0.952330	-0.204352	0.333354
C147	C	1.285663	0.128982	0.666688
O148	O	0.574465	-0.562377	0.000016
O149	O	0.907799	-0.229044	0.333349
O150	O	1.241132	0.104289	0.666683
C151	C	0.619709	-0.478286	0.000021
C152	C	0.953042	-0.144953	0.333355
C153	C	1.286375	0.188381	0.666688
C154	C	0.671990	-0.455672	0.000032
C155	C	1.005323	-0.122339	0.333365
C156	C	1.338656	0.210994	0.666699
C157	C	0.775832	-0.469839	0.000046
C158	C	1.109165	-0.136506	0.333379
C159	C	1.442498	0.196827	0.666713
C160	C	0.776543	-0.410443	0.000052
C161	C	1.109876	-0.077110	0.333385
C162	C	1.443210	0.256223	0.666718
C163	C	0.724977	-0.373662	0.000048
C164	C	1.058311	-0.040328	0.333381
C165	C	1.391644	0.293005	0.666714
C166	C	0.672701	-0.396276	0.000038
C167	C	1.006034	-0.062943	0.333371
C168	C	1.339367	0.270390	0.666704
C169	C	0.568140	-0.441501	0.000011
C170	C	0.901473	-0.108168	0.333344
C171	C	1.234807	0.225166	0.666678
C172	C	0.568857	-0.382099	0.000011
C173	C	0.902190	-0.048765	0.333344
C174	C	1.235523	0.284568	0.666678
C175	C	0.621137	-0.359485	0.000021
C176	C	0.954471	-0.026151	0.333355
C177	C	1.287804	0.307182	0.666688
C178	C	0.621847	-0.300099	0.000039
C179	C	0.955180	0.033235	0.333373
C180	C	1.288513	0.366568	0.666706
N181	N	0.674124	-0.277481	0.000044
N182	N	1.007457	0.055852	0.333377
N183	N	1.340791	0.389185	0.666710
C184	C	0.725690	-0.314263	0.000048
C185	C	1.059023	0.019071	0.333381
C186	C	1.392356	0.352404	0.666715
C187	C	0.617505	-0.662427	0.000019
C188	C	0.950839	-0.329094	0.333352
C189	C	1.284172	0.004239	0.666686
C190	C	0.616793	-0.721825	0.000023
C191	C	0.950126	-0.388492	0.333357
C192	C	1.283459	-0.055158	0.666690
C193	C	0.720640	-0.735990	0.000032
C194	C	1.053973	-0.402657	0.333366
C195	C	1.387306	-0.069323	0.666699
C196	C	0.721352	-0.676591	0.000033
C197	C	1.054685	-0.343258	0.333366
C198	C	1.388018	-0.009924	0.666699
C199	C	0.669783	-0.639810	0.000024
C200	C	1.003116	-0.306477	0.333357
C201	C	1.336449	0.026857	0.666690
C202	C	0.727179	-0.189526	0.000061
C203	C	1.060513	0.143807	0.333394
C204	C	1.393846	0.477140	0.666727
C205	C	0.727886	-0.130124	0.000069
C206	C	1.061219	0.203209	0.333402
C207	C	1.394553	0.536542	0.666736
C208	C	0.624039	-0.115965	0.000057
C209	C	0.957372	0.217369	0.333390
C210	C	1.290706	0.550702	0.666723
C211	C	0.623332	-0.175361	0.000051
C212	C	0.956665	0.157972	0.333385
C213	C	1.289999	0.491305	0.666718
C214	C	0.674907	-0.212141	0.000051
C215	C	1.008240	0.121192	0.333385
C216	C	1.341573	0.454525	0.666718
O217	O	0.578083	-0.263312	0.000055
O218	O	0.911416	0.070021	0.333389
O219	O	1.244749	0.403355	0.666722
O220	O	0.770214	-0.289562	0.000045
O221	O	1.103547	0.043771	0.333378
O222	O	1.436880	0.377104	0.666711
C223	C	0.776489	0.069258	0.000055
C224	C	1.109823	0.402592	0.333389
C225	C	1.443156	0.735925	0.666722
C226	C	0.839708	0.070014	0.000057
C227	C	1.173041	0.403347	0.333390
C228	C	1.506375	0.736680	0.666723
C229	C	0.667592	0.178171	0.000033
C230	C	1.000926	0.511505	0.333366
C231	C	1.334259	0.844838	0.666699
C232	C	0.668358	0.241388	0.000024
C233	C	1.001692	0.574721	0.333357
C234	C	1.335025	0.908055	0.666691
N235	N	0.672306	0.074022	0.143851
N236	N	1.005639	0.407356	0.477185
N237	N	1.338973	0.740689	0.810518
N238	N	0.672377	0.074018	-0.143757
N239	N	1.005711	0.407352	0.189576
N240	N	1.339044	0.740685	0.522909
C241	C	0.706701	0.108377	0.563629
C242	C	1.040035	0.441711	0.896963
C243	C	1.373368	0.775044	1.230296
C244	C	0.706708	0.108376	0.627237
C245	C	1.040041	0.441709	0.960570
C246	C	1.373375	0.775043	1.293904
O247	O	0.735932	0.137582	0.660127
O248	O	1.069265	0.470915	0.993460
O249	O	1.402598	0.804249	1.326794
N250	N	0.672366	0.074016	0.659059
N251	N	1.005699	0.407349	0.992392
N252	N	1.339033	0.740683	1.325725
C253	C	0.638020	0.039651	0.627269
C254	C	0.971353	0.372984	0.960603
C255	C	1.304686	0.706318	1.293936
O256	O	0.608810	0.010425	0.660177
O257	O	0.942144	0.343758	0.993510
O258	O	1.275477	0.677091	1.326844
C259	C	0.638016	0.039650	0.563663
C260	C	0.971350	0.372983	0.896996
C261	C	1.304683	0.706317	1.230330
C262	C	0.672356	0.074016	0.531845
C263	C	1.005689	0.407350	0.865178
C264	C	1.339023	0.740683	1.198511
C265	C	0.741039	0.142741	0.531811
C266	C	1.074372	0.476074	0.865144
C267	C	1.407705	0.809407	1.198477
C268	C	0.741031	0.142743	0.468208
C269	C	1.074364	0.476076	0.801541
C270	C	1.407698	0.809409	1.134874
C271	C	0.706686	0.108382	0.436423
C272	C	1.040019	0.441715	0.769756
C273	C	1.373353	0.775048	1.103089
C274	C	0.672348	0.074018	0.468241
C275	C	1.005682	0.407352	0.801575
C276	C	1.339015	0.740685	1.134908
C277	C	0.603673	0.005282	0.531875
C278	C	0.937007	0.338615	0.865208
C279	C	1.270340	0.671949	1.198542
C280	C	0.603673	0.005284	0.468264
C281	C	0.937007	0.338617	0.801598
C282	C	1.270340	0.671950	1.134931
C283	C	0.638013	0.039650	0.436446
C284	C	0.971347	0.372983	0.769779
C285	C	1.304680	0.706317	1.103112
C286	C	0.637996	0.039659	0.372853
C287	C	0.971329	0.372993	0.706187
C288	C	1.304662	0.706326	1.039520
N289	N	0.672338	0.074019	0.341032
N290	N	1.005671	0.407353	0.674365
N291	N	1.339004	0.740686	1.007698
C292	C	0.706683	0.108380	0.372816
C293	C	1.040016	0.441714	0.706150
C294	C	1.373349	0.775047	1.039483
C295	C	0.638030	0.039656	0.760847
C296	C	0.971363	0.372989	1.094181
C297	C	1.304697	0.706322	1.427514
C298	C	0.638030	0.039659	0.824452
C299	C	0.971363	0.372993	1.157786
C300	C	1.304696	0.706326	1.491119
C301	C	0.706719	0.108384	0.824416
C302	C	1.040052	0.441717	1.157749
C303	C	1.373386	0.775050	1.491082
C304	C	0.706716	0.108382	0.760809
C305	C	1.040049	0.441716	1.094142
C306	C	1.373382	0.775049	1.427476
C307	C	0.672372	0.074015	0.729025
C308	C	1.005705	0.407349	1.062359
C309	C	1.339038	0.740682	1.395692
C310	C	0.706664	0.108383	0.239245
C311	C	1.039997	0.441716	0.572578
C312	C	1.373330	0.775049	0.905912
C313	C	0.706651	0.108383	0.175636
C314	C	1.039984	0.441717	0.508970
C315	C	1.373318	0.775050	0.842303
C316	C	0.637964	0.039657	0.175679
C317	C	0.971298	0.372990	0.509012
C318	C	1.304631	0.706324	0.842345
C319	C	0.637974	0.039658	0.239282
C320	C	0.971308	0.372992	0.572615
C321	C	1.304641	0.706325	0.905949
C322	C	0.672329	0.074023	0.271064
C323	C	1.005662	0.407356	0.604397
C324	C	1.338995	0.740689	0.937730
O325	O	0.608789	0.010466	0.339923
O326	O	0.942122	0.343800	0.673256
O327	O	1.275455	0.677133	1.006590
O328	O	0.735893	0.137596	0.339901
O329	O	1.069226	0.470929	0.673234
O330	O	1.402560	0.804263	1.006568
H331	H	-0.047006	0.071372	-0.099896
H332	H	0.286328	0.404705	0.233437
H333	H	0.619661	0.738039	0.566771
H334	H	-0.154793	0.070082	0.099991
H335	H	0.178540	0.403415	0.433325
H336	H	0.511873	0.736749	0.766658
H337	H	0.499472	0.077965	-0.099907
H338	H	0.832805	0.411298	0.233427
H339	H	1.166139	0.744632	0.566760
H340	H	0.575706	-0.022703	0.442389
H341	H	0.909040	0.310630	0.775723
H342	H	1.242373	0.643963	1.109056
H343	H	0.610057	0.011672	0.734973
H344	H	0.943391	0.345005	1.068306
H345	H	1.276724	0.678338	1.401640
O346	O	0.743772	0.145437	0.858706
O347	O	1.077106	0.478770	1.192040
O348	O	1.410439	0.812103	1.525373
H349	H	0.716300	0.176184	0.887696
H350	H	1.049633	0.509518	1.221029
H351	H	1.382967	0.842851	1.554362
H352	H	0.391707	0.076666	-0.099910
H353	H	0.725040	0.409999	0.233423
H354	H	1.058374	0.743332	0.566757
H355	H	0.526862	-0.352154	0.000003
H356	H	0.860195	-0.018820	0.333336
H357	H	1.193528	0.314513	0.666669
H358	H	0.580761	-0.193774	0.000060
H359	H	0.914094	0.139559	0.333393
H360	H	1.247427	0.472892	0.666726
O361	O	0.507272	0.078070	0.114533
O362	O	0.840606	0.411403	0.447866
O363	O	1.173939	0.744736	0.781200
H364	H	0.553568	0.078632	0.105285
H365	H	0.886901	0.411965	0.438618
H366	H	1.220234	0.745299	0.771952
H367	H	0.770461	-0.111716	0.000079
H368	H	1.103794	0.221618	0.333412
H369	H	1.437128	0.554951	0.666746
H370	H	0.762627	-0.765949	0.000033
H371	H	1.095960	-0.432615	0.333367
H372	H	1.429294	-0.099282	0.666700
H373	H	0.734615	0.136371	0.149732
H374	H	1.067948	0.469705	0.483066
H375	H	1.401281	0.803038	0.816399
O376	O	0.743718	0.145443	0.273520
O377	O	1.077052	0.478776	0.606853
O378	O	1.410385	0.812110	0.940187
H379	H	0.716248	0.176193	0.302508
H380	H	1.049581	0.509526	0.635841
H381	H	1.382914	0.842860	0.969175
H382	H	0.610000	0.011683	0.149788
H383	H	0.943333	0.345016	0.483121
H384	H	1.276667	0.678350	0.816455
O385	O	0.600937	0.002595	0.273607
O386	O	0.934270	0.335928	0.606940
O387	O	1.267603	0.669262	0.940273
H388	H	0.577055	-0.021300	0.240816
H389	H	0.910389	0.312034	0.574149
H390	H	1.243722	0.645367	0.907483
O391	O	0.600997	0.002581	0.858759
O392	O	0.934330	0.335915	1.192092
O393	O	1.267663	0.669248	1.525425
H394	H	0.555406	0.015200	0.846558
H395	H	0.888739	0.348534	1.179892
H396	H	1.222073	0.681867	1.513225
O397	O	-0.162606	0.069970	-0.114443
O398	O	0.170727	0.403303	0.218890
O399	O	0.504061	0.736636	0.552223
H400	H	-0.131964	0.070326	-0.152745
H401	H	0.201369	0.403660	0.180588
H402	H	0.534702	0.736993	0.513922
H403	H	0.226177	0.074649	0.155068
H404	H	0.559511	0.407983	0.488402
H405	H	0.892844	0.741316	0.821735
H406	H	0.575509	-0.632483	0.000017
H407	H	0.908842	-0.299149	0.333350
H408	H	1.242175	0.034184	0.666684
H409	H	0.118429	0.073352	0.155067
H410	H	0.451762	0.406686	0.488401
H411	H	0.785096	0.740019	0.821734
H412	H	0.817825	-0.499782	0.000047
H413	H	1.151158	-0.166448	0.333380
H414	H	1.484492	0.166885	0.666714
O415	O	0.511751	-0.465884	-0.000003
O416	O	0.845084	-0.132550	0.333331
O417	O	1.178418	0.200783	0.666664
H418	H	0.476020	-0.430320	-0.000013
H419	H	0.809353	-0.096986	0.333320
H420	H	1.142687	0.236347	0.666654
O421	O	0.560405	-0.746214	0.000020
O422	O	0.893738	-0.412881	0.333353
O423	O	1.227071	-0.079548	0.666686
H424	H	0.524671	-0.710653	0.000014
H425	H	0.858004	-0.377320	0.333348
H426	H	1.191338	-0.043986	0.666681
O427	O	0.110652	0.073248	-0.169547
O428	O	0.443986	0.406581	0.163786
O429	O	0.777319	0.739914	0.497119
H430	H	0.116763	0.112197	-0.195983
H431	H	0.450097	0.445530	0.137350
H432	H	0.783430	0.778864	0.470684
H433	H	0.582056	-0.086007	0.000055
H434	H	0.915389	0.247327	0.333389
H435	H	1.248723	0.580660	0.666722
O436	O	0.778071	0.179807	0.433892
O437	O	1.111405	0.513140	0.767225
O438	O	1.444738	0.846473	1.100558
H439	H	0.801955	0.203693	0.466688
H440	H	1.135288	0.537026	0.800022
H441	H	1.468622	0.870360	1.133355
O442	O	0.383821	0.076575	0.114536
O443	O	0.717155	0.409909	0.447869
O444	O	1.050488	0.743242	0.781202
H445	H	0.414450	0.076954	0.152833
H446	H	0.747783	0.410287	0.486167
H447	H	1.081117	0.743620	0.819500
O448	O	0.778082	0.179807	0.566088
O449	O	1.111415	0.513141	0.899422
O450	O	1.444749	0.846474	1.232755
H451	H	0.801951	0.203701	0.533267
H452	H	1.135285	0.537035	0.866600
H453	H	1.468618	0.870368	1.199934
O454	O	0.777739	-0.652201	0.000033
O455	O	1.111072	-0.318867	0.333366
O456	O	1.444406	0.014466	0.666699
H457	H	0.813473	-0.687762	0.000031
H458	H	1.146806	-0.354428	0.333364
H459	H	1.480140	-0.021095	0.666697
H460	H	-0.047027	0.071386	0.099993
H461	H	0.286306	0.404720	0.433326
H462	H	0.619640	0.738053	0.766660
O463	O	0.782804	-0.229192	0.000070
O464	O	1.116138	0.104141	0.333403
O465	O	1.449471	0.437474	0.666736
H466	H	0.819270	-0.203479	0.000085
H467	H	1.152604	0.129854	0.333418
H468	H	1.485937	0.463187	0.666751
H469	H	0.734678	0.136367	0.734907
H470	H	1.068011	0.469700	1.068240
H471	H	1.401344	0.803034	1.401573
O472	O	0.566663	-0.031813	0.566185
O473	O	0.899996	0.301521	0.899518
O474	O	1.233330	0.634854	1.232852
H475	H	0.542799	-0.055717	0.533387
H476	H	0.876133	0.277616	0.866720
H477	H	1.209466	0.610950	1.200054
H478	H	0.819115	-0.392037	0.000058
H479	H	1.152449	-0.058704	0.333391
H480	H	1.485782	0.274630	0.666724
H481	H	0.226234	0.074662	-0.154986
H482	H	0.559567	0.407995	0.178347
H483	H	0.892900	0.741328	0.511680
