data_functionalizedCrystal
_audit_creation_method	'MofGen! by Chris Wilmer'
_symmetry_space_group_name_H-M	'P1'
_symmetry_Int_Tables_number	1
_symmetry_cell_setting	triclinic
loop_
_symmetry_equiv_pos_as_xyz
  x,y,z
_cell_length_a	29.839134
_cell_length_b	17.077402
_cell_length_c	17.077396
_cell_angle_alpha	89.969358
_cell_angle_beta	89.973116
_cell_angle_gamma	90.020089
loop_
_atom_site_label
_atom_site_type_symbol
_atom_site_fract_x
_atom_site_fract_y
_atom_site_fract_z
Zn1	Zn	0.686792	-0.312603	-0.444045
Zn2	Zn	1.186792	0.187397	0.055955
Zn3	Zn	0.686739	-0.443882	-0.312778
Zn4	Zn	1.186739	0.056118	0.187222
Zn5	Zn	0.611668	-0.312622	-0.312771
Zn6	Zn	1.111668	0.187378	0.187229
Zn7	Zn	0.611644	-0.443819	-0.443979
Zn8	Zn	1.111644	0.056181	0.056021
O9	O	0.649211	-0.378232	-0.378393
O10	O	1.149211	0.121768	0.121607
O11	O	0.749652	-0.330036	-0.426663
O12	O	1.249652	0.169964	0.073337
O13	O	0.676769	-0.426504	-0.202930
O14	O	1.176769	0.073496	0.297070
O15	O	0.621666	-0.202773	-0.330209
O16	O	1.121666	0.297227	0.169791
O17	O	0.749613	-0.426486	-0.330222
O18	O	1.249613	0.073514	0.169778
O19	O	0.676859	-0.202759	-0.426656
O20	O	1.176859	0.297241	0.073344
O21	O	0.621615	-0.330068	-0.202925
O22	O	1.121615	0.169932	0.297075
O23	O	0.548798	-0.330008	-0.330145
O24	O	1.048798	0.169992	0.169855
O25	O	0.621624	-0.426379	-0.553835
O26	O	1.121624	0.073621	-0.053835
O27	O	0.548780	-0.426397	-0.426543
O28	O	1.048780	0.073603	0.073457
O29	O	0.676835	-0.329975	-0.553884
O30	O	1.176835	0.170025	-0.053884
O31	O	0.676745	-0.553720	-0.330158
O32	O	1.176745	-0.053720	0.169842
O33	O	0.621573	-0.553674	-0.426550
O34	O	1.121573	-0.053674	0.073450
C35	C	0.649163	-0.582180	-0.378365
C36	C	1.149163	-0.082180	0.121635
C37	C	0.649183	-0.669429	-0.378379
C38	C	1.149183	-0.169429	0.121621
C39	C	0.532488	-0.378198	-0.378337
C40	C	1.032488	0.121802	0.121663
C41	C	0.482554	-0.378203	-0.378331
C42	C	0.982554	0.121797	0.121669
C43	C	0.677999	-1.045173	-0.428705
C44	C	1.177999	-0.545173	0.071295
C45	C	0.677979	-0.963192	-0.428686
C46	C	1.177979	-0.463192	0.071314
C47	C	0.649254	-0.922278	-0.378425
C48	C	1.149254	-0.422278	0.121575
C49	C	0.620551	-0.963349	-0.328174
C50	C	1.120551	-0.463349	0.171826
C51	C	0.620574	-1.045328	-0.328189
C52	C	1.120574	-0.545328	0.171811
C53	C	0.620505	-0.792479	-0.328147
C54	C	1.120505	-0.292479	0.171853
C55	C	0.620481	-0.710494	-0.328133
C56	C	1.120481	-0.210494	0.171867
C57	C	0.677910	-0.710343	-0.428644
C58	C	1.177910	-0.210343	0.071356
C59	C	0.677933	-0.792322	-0.428660
C60	C	1.177933	-0.292322	0.071340
C61	C	0.649229	-0.833387	-0.378409
C62	C	1.149229	-0.333387	0.121591
C63	C	0.172910	-0.428496	-0.428526
C64	C	0.672910	0.071504	0.071474
C65	C	-0.014763	-0.428518	-0.428561
C66	C	0.485237	0.071482	0.071439
O67	O	-0.039027	-0.471242	-0.471206
O68	O	0.460973	0.028758	0.028794
N69	N	-0.038231	-0.378260	-0.378452
N70	N	0.461769	0.121740	0.121548
C71	C	-0.014779	-0.327990	-0.328335
C72	C	0.485221	0.172010	0.171665
O73	O	-0.039047	-0.285237	-0.285721
O74	O	0.460953	0.214763	0.214279
C75	C	0.172893	-0.327964	-0.328305
C76	C	0.672893	0.172036	0.171695
C77	C	0.196360	-0.378231	-0.378411
C78	C	0.696360	0.121769	0.121589
C79	C	0.196377	-0.478758	-0.478629
C80	C	0.696377	0.021242	0.021371
C81	C	0.243292	-0.478755	-0.478617
C82	C	0.743292	0.021245	0.021383
C83	C	0.266741	-0.428490	-0.428502
C84	C	0.766741	0.071510	0.071498
C85	C	0.243275	-0.378228	-0.378399
C86	C	0.743275	0.121772	0.121601
C87	C	0.196345	-0.277690	-0.278192
C88	C	0.696345	0.222310	0.221808
C89	C	0.243266	-0.277687	-0.278190
C90	C	0.743266	0.222313	0.221810
C91	C	0.266732	-0.327954	-0.328296
C92	C	0.766732	0.172046	0.171704
C93	C	0.313640	-0.327960	-0.328271
C94	C	0.813640	0.172040	0.171729
N95	N	0.337108	-0.378218	-0.378380
N96	N	0.837108	0.121782	0.121620
C97	C	0.313659	-0.428483	-0.428495
C98	C	0.813659	0.071517	0.071505
C99	C	-0.113310	-0.328008	-0.328353
C100	C	0.386690	0.171992	0.171647
C101	C	-0.160227	-0.328015	-0.328360
C102	C	0.339773	0.171985	0.171640
C103	C	-0.160208	-0.428543	-0.428587
C104	C	0.339792	0.071457	0.071413
C105	C	-0.113289	-0.428539	-0.428576
C106	C	0.386711	0.071461	0.071424
C107	C	-0.089841	-0.378266	-0.378462
C108	C	0.410159	0.121734	0.121538
C109	C	0.412185	-0.428473	-0.428465
C110	C	0.912185	0.071527	0.071535
C111	C	0.459105	-0.428468	-0.428446
C112	C	0.959105	0.071532	0.071554
C113	C	0.459081	-0.327938	-0.328222
C114	C	0.959081	0.172062	0.171778
C115	C	0.412165	-0.327946	-0.328238
C116	C	0.912165	0.172054	0.171762
C117	C	0.388719	-0.378216	-0.378366
C118	C	0.888719	0.121784	0.121634
O119	O	0.337933	-0.285252	-0.285656
O120	O	0.837933	0.214748	0.214344
O121	O	0.337935	-0.471217	-0.471115
O122	O	0.837935	0.028783	0.028885
C123	C	0.125995	-0.428499	-0.428539
C124	C	0.625995	0.071501	0.071461
C125	C	0.102529	-0.378237	-0.378436
C126	C	0.602529	0.121763	0.121564
C127	C	0.125978	-0.327972	-0.328320
C128	C	0.625978	0.172028	0.171680
C129	C	0.055611	-0.378244	-0.378442
C130	C	0.555611	0.121756	0.121558
C131	C	0.032162	-0.428509	-0.428557
C132	C	0.532162	0.071491	0.071443
C133	C	0.055630	-0.478767	-0.478666
C134	C	0.555630	0.021233	0.021334
C135	C	0.102546	-0.478764	-0.478654
C136	C	0.602546	0.021236	0.021346
C137	C	0.102509	-0.277714	-0.278212
C138	C	0.602509	0.222286	0.221788
C139	C	0.055594	-0.277722	-0.278227
C140	C	0.555594	0.222278	0.221773
C141	C	0.032144	-0.327987	-0.328343
C142	C	0.532144	0.172013	0.171657
C143	C	0.766389	-0.378266	-0.378451
C144	C	1.266389	0.121734	0.121549
C145	C	0.816323	-0.378280	-0.378475
C146	C	1.316323	0.121720	0.121525
C147	C	0.649233	-0.378168	-0.583138
C148	C	1.149233	0.121832	-0.083138
C149	C	0.649242	-0.378141	-0.670388
C150	C	1.149242	0.121859	-0.170388
C151	C	0.649271	-0.173487	-0.378439
C152	C	1.149271	0.326513	0.121561
C153	C	0.649297	-0.086238	-0.378459
C154	C	1.149297	0.413762	0.121541
C155	C	0.678002	-0.428264	-1.046207
C156	C	1.178002	0.071736	-0.546207
C157	C	0.677991	-0.428287	-0.964227
C158	C	1.177991	0.071713	-0.464227
C159	C	0.649271	-0.378086	-0.923237
C160	C	1.149271	0.121914	-0.423237
C161	C	0.620558	-0.327864	-0.964231
C162	C	1.120558	0.172136	-0.464231
C163	C	0.620568	-0.327846	-1.046210
C164	C	1.120568	0.172154	-0.546210
C165	C	0.620541	-0.327904	-0.793361
C166	C	1.120541	0.172096	-0.293361
C167	C	0.620533	-0.327922	-0.711376
C168	C	1.120533	0.172078	-0.211376
C169	C	0.677964	-0.428345	-0.711378
C170	C	1.177964	0.071655	-0.211378
C171	C	0.677974	-0.428327	-0.793357
C172	C	1.177974	0.071673	-0.293357
C173	C	0.649261	-0.378104	-0.834346
C174	C	1.149261	0.121896	-0.334346
C175	C	0.649214	-0.378238	-0.174446
C176	C	1.149214	0.121762	0.325554
C177	C	0.649292	-0.378044	-0.087196
C178	C	1.149292	0.121956	0.412804
H179	H	0.701350	-0.929758	-0.469600
H180	H	1.201350	-0.429758	0.030400
O181	O	0.484375	-0.273724	-0.274169
O182	O	0.984375	0.226276	0.225831
H183	H	0.505766	-0.233828	-0.309376
H184	H	1.005766	0.266172	0.190624
O185	O	0.708883	-0.666063	-0.482827
O186	O	1.208883	-0.166063	0.017173
H187	H	0.701166	-0.681754	-0.544428
H188	H	1.201166	-0.181754	-0.044428
H189	H	0.701386	-1.078479	-0.469641
H190	H	1.201386	-0.578479	0.030359
H191	H	0.597161	-0.287008	-0.826732
H192	H	1.097161	0.212992	-0.326732
O193	O	0.589505	-0.666360	-0.273918
O194	O	1.089505	-0.166360	0.226082
H195	H	0.569554	-0.708686	-0.238968
H196	H	1.069554	-0.208686	0.261032
H197	H	-0.179308	-0.469470	-0.469393
H198	H	0.320692	0.030530	0.030607
O199	O	0.589572	-0.919219	-0.273960
O200	O	1.089572	-0.419219	0.226040
H201	H	0.569621	-0.961549	-0.239016
H202	H	1.069621	-0.461549	0.260984
H203	H	0.701364	-0.469190	-0.930857
H204	H	1.201364	0.030810	-0.430857
O205	O	0.030285	-0.223500	-0.224183
O206	O	0.530285	0.276500	0.275817
H207	H	0.054478	-0.188544	-0.189342
H208	H	0.554478	0.311456	0.310658
H209	H	0.121597	-0.236781	-0.237401
H210	H	0.621597	0.263219	0.262599
O211	O	0.589585	-0.273712	-0.920023
O212	O	1.089585	0.226288	-0.420023
H213	H	0.566715	-0.308840	-0.882643
H214	H	1.066715	0.191160	-0.382643
H215	H	0.701362	-0.469201	-0.826729
H216	H	1.201362	0.030799	-0.326729
H217	H	-0.094222	-0.287069	-0.287541
H218	H	0.405778	0.212931	0.212459
H219	H	0.597190	-0.286951	-1.079582
H220	H	1.097190	0.213049	-0.579582
O221	O	0.127854	-0.532972	-0.532705
O222	O	0.627854	-0.032972	-0.032705
H223	H	0.103660	-0.567914	-0.567557
H224	H	0.603660	-0.067914	-0.067557
O225	O	0.268558	-0.223464	-0.224137
O226	O	0.768558	0.276536	0.275863
H227	H	0.289916	-0.258545	-0.184135
H228	H	0.789916	0.241455	0.315865
O229	O	0.708931	-0.482523	-0.667176
O230	O	1.208931	0.017477	-0.167176
H231	H	0.704096	-0.474112	-0.603284
H232	H	1.204096	0.025888	-0.103284
H233	H	0.701322	-0.825632	-0.469589
H234	H	1.201322	-0.325632	0.030411
O235	O	0.589544	-0.836775	-0.273953
O236	O	1.089544	-0.336775	0.226047
H237	H	0.569562	-0.794554	-0.239008
H238	H	1.069562	-0.294554	0.260992
H239	H	0.597202	-1.078761	-0.287273
H240	H	1.097202	-0.578761	0.212727
H241	H	0.478209	-0.469404	-0.469250
H242	H	0.978209	0.030596	0.030750
O243	O	0.589551	-0.273790	-0.667160
O244	O	1.089551	0.226210	-0.167160
H245	H	0.569581	-0.238875	-0.709433
H246	H	1.069581	0.261125	-0.209433
H247	H	0.701391	-0.469140	-1.079576
H248	H	1.201391	0.030860	-0.579576
O249	O	0.386917	-0.482751	-0.482497
O250	O	0.886917	0.017249	0.017503
H251	H	0.395948	-0.469410	-0.544135
H252	H	0.895948	0.030590	-0.044135
O253	O	0.268598	-0.532960	-0.532675
O254	O	0.768598	-0.032960	-0.032675
H255	H	0.259574	-0.594553	-0.519114
H256	H	0.759574	-0.094553	-0.019114
O257	O	0.171088	-0.533067	-0.532596
O258	O	0.671088	-0.033067	-0.032596
H259	H	0.195296	-0.568046	-0.567392
H260	H	0.695296	-0.068046	-0.067392
H261	H	-0.094186	-0.469469	-0.469379
H262	H	0.405814	0.030531	0.030621
H263	H	0.177247	-0.236760	-0.237387
H264	H	0.677247	0.263240	0.262613
H265	H	-0.179330	-0.287091	-0.287550
H266	H	0.320670	0.212909	0.212450
O267	O	0.386862	-0.273744	-0.274169
O268	O	0.886862	0.226256	0.225831
H269	H	0.365473	-0.308838	-0.234170
H270	H	0.865473	0.191162	0.265830
H271	H	0.036530	-0.519697	-0.519470
H272	H	0.536530	-0.019697	-0.019470
