data_functionalizedCrystal
_audit_creation_method	'MofGen! by Chris Wilmer'
_symmetry_space_group_name_H-M	'P1'
_symmetry_Int_Tables_number	1
_symmetry_cell_setting	triclinic
loop_
_symmetry_equiv_pos_as_xyz
  x,y,z
_cell_length_a	18.101395
_cell_length_b	18.101398
_cell_length_c	12.759393
_cell_angle_alpha	90.027282
_cell_angle_beta	90.032328
_cell_angle_gamma	90.028835
loop_
_atom_site_label
_atom_site_type_symbol
_atom_site_fract_x
_atom_site_fract_y
_atom_site_fract_z
Zn1	Zn	-0.294839	1.132139	0.594220
Zn2	Zn	0.205161	1.632139	1.094220
Zn3	Zn	-0.418698	1.132030	0.418534
Zn4	Zn	0.081302	1.632030	0.918534
Zn5	Zn	-0.294870	1.008293	0.418531
Zn6	Zn	0.205130	1.508293	0.918531
Zn7	Zn	-0.418638	1.008249	0.594148
Zn8	Zn	0.081362	1.508249	1.094148
O9	O	-0.356761	1.070178	0.506358
O10	O	0.143239	1.570178	1.006358
O11	O	-0.311281	1.235758	0.570946
O12	O	0.188719	1.735758	1.070946
O13	O	-0.402310	1.115588	0.271512
O14	O	0.097690	1.615588	0.771512
O15	O	-0.191233	1.024785	0.441866
O16	O	0.308767	1.524785	0.941866
O17	O	-0.402280	1.235677	0.441870
O18	O	0.097720	1.735677	0.941870
O19	O	-0.191210	1.115775	0.570943
O20	O	0.308790	1.615775	1.070943
O21	O	-0.311334	1.024679	0.271511
O22	O	0.188666	1.524679	0.771511
O23	O	-0.311276	0.904654	0.441796
O24	O	0.188724	1.404654	0.941796
O25	O	-0.402178	1.024711	0.741178
O26	O	0.097822	1.524711	1.241178
O27	O	-0.402208	0.904622	0.570821
O28	O	0.097792	1.404622	1.070821
O29	O	-0.311223	1.115732	0.741231
O30	O	0.188777	1.615732	1.241231
O31	O	-0.522323	1.115546	0.441800
O32	O	-0.022323	1.615546	0.941800
O33	O	-0.522279	1.024604	0.570823
O34	O	-0.022279	1.524604	1.070823
C35	C	-0.356739	0.877767	0.506301
C36	C	0.143261	1.377767	1.006301
C37	C	-0.356748	0.795453	0.506302
C38	C	0.143252	1.295453	1.006302
C39	C	-0.356763	0.644745	0.506349
C40	C	0.143237	1.144745	1.006349
C41	C	-0.299469	0.613386	0.425305
C42	C	0.200531	1.113386	0.925305
C43	C	-0.299254	0.527768	0.425571
C44	C	0.200746	1.027768	0.925571
C45	C	-0.356778	0.496362	0.506394
C46	C	0.143222	0.996362	1.006394
C47	C	-0.335938	0.527505	0.617241
C48	C	0.164062	1.027505	1.117241
C49	C	-0.335513	0.613150	0.616746
C50	C	0.164487	1.113150	1.116746
C51	C	-0.435046	0.613140	0.477522
C52	C	0.064954	1.113140	0.977522
C53	C	-0.434633	0.527488	0.475107
C54	C	0.065367	1.027488	0.975107
C55	C	-0.356788	0.412503	0.506426
C56	C	0.143212	0.912503	1.006426
C57	C	-0.356752	0.728604	0.506324
C58	C	0.143248	1.228604	1.006324
C59	C	-0.549172	1.070079	0.506327
C60	C	-0.049172	1.570079	1.006327
C61	C	-0.631486	1.070104	0.506349
C62	C	-0.131486	1.570104	1.006349
C63	C	-0.930577	1.070266	0.506406
C64	C	-0.430577	1.570266	1.006406
C65	C	-0.899255	1.013181	0.587785
C66	C	-0.399255	1.513181	1.087785
C67	C	-0.813637	1.012910	0.587530
C68	C	-0.313637	1.512910	1.087530
C69	C	-0.782194	1.070186	0.506379
C70	C	-0.282194	1.570186	1.006379
C71	C	-0.813352	1.049053	0.395649
C72	C	-0.313352	1.549053	0.895649
C73	C	-0.898997	1.048685	0.396136
C74	C	-0.398997	1.548685	0.896136
C75	C	-0.898922	1.148609	0.534782
C76	C	-0.398922	1.648609	1.034782
C77	C	-0.813271	1.148148	0.537210
C78	C	-0.313271	1.648148	1.037210
C79	C	-0.698335	1.070141	0.506356
C80	C	-0.198335	1.570141	1.006356
C81	C	-1.014436	1.070309	0.506421
C82	C	-0.514436	1.570309	1.006421
C83	C	-0.163599	1.070297	0.506412
C84	C	0.336401	1.570297	1.006412
C85	C	-0.081285	1.070348	0.506435
C86	C	0.418715	1.570348	1.006435
C87	C	-0.356690	1.070229	0.780392
C88	C	0.143310	1.570229	1.280392
C89	C	-0.356660	1.070251	0.897168
C90	C	0.143340	1.570251	1.397168
C91	C	-0.356784	1.263340	0.506416
C92	C	0.143216	1.763340	1.006416
C93	C	-0.356793	1.345654	0.506441
C94	C	0.143207	1.845654	1.006441
C95	C	-0.356778	1.070169	0.233391
C96	C	0.143222	1.570169	0.733391
C97	C	-0.356600	1.070291	0.116615
C98	C	0.143400	1.570291	0.616615
C99	C	-0.404013	1.117589	0.952029
C100	C	0.095987	1.617589	1.452029
C101	C	-0.403982	1.117612	1.061753
C102	C	0.096018	1.617612	1.561753
C103	C	-0.309242	1.022950	1.061747
C104	C	0.190758	1.522950	1.561747
C105	C	-0.309270	1.022932	0.952024
C106	C	0.190730	1.522932	1.452024
C107	C	-0.451403	1.164908	0.897173
C108	C	0.048597	1.664908	1.397173
C109	C	-0.498761	1.212250	0.952033
C110	C	0.001239	1.712250	1.452033
C111	C	-0.498729	1.212272	1.061757
C112	C	0.001271	1.712272	1.561757
C113	C	-0.451340	1.164952	1.116621
C114	C	0.048660	1.664952	1.616621
H115	H	-0.375446	0.633898	0.679221
H116	H	0.124554	1.133898	1.179221
H117	H	-0.451312	1.164980	1.205966
H118	H	0.048688	1.664980	1.705966
H119	H	-0.537285	1.250825	1.106422
H120	H	-0.037285	1.750825	1.606422
F121	F	-0.490840	0.639662	0.554655
F122	F	0.009160	1.139662	1.054655
F123	F	-0.260733	0.639301	0.648595
F124	F	0.239267	1.139301	1.148595
H125	H	-0.376397	0.507166	0.679297
H126	H	0.123603	1.007166	1.179297
H127	H	-0.919720	1.088460	0.333434
H128	H	-0.419720	1.588460	0.833434
H129	H	-0.270660	0.984424	1.106425
H130	H	0.229340	1.484424	1.606425
F131	F	-0.223440	0.501020	0.450588
F132	F	0.276560	1.001020	0.950588
F133	F	-0.785285	1.206684	0.465391
F134	F	-0.285285	1.706684	0.965391
H135	H	-0.919798	1.026272	0.670155
H136	H	-0.419798	1.526272	1.170155
H137	H	-0.454075	0.634698	0.398042
H138	H	0.045925	1.134698	0.898042
F139	F	-0.549186	1.262614	0.893642
F140	F	-0.049186	1.762614	1.393642
H141	H	-0.279358	0.506086	0.642036
H142	H	0.220642	1.006086	1.142036
H143	H	-0.792987	1.089323	0.333361
H144	H	-0.292987	1.589323	0.833361
F145	F	-0.258870	0.972551	0.893635
F146	F	0.241130	1.472551	1.393635
F147	F	-0.786937	0.937008	0.562966
F148	F	-0.286937	1.437008	1.062966
F149	F	-0.316242	0.500239	0.318156
F150	F	0.183758	1.000239	0.818156
H151	H	-0.450353	0.507130	0.393528
H152	H	0.049647	1.007130	0.893528
F153	F	-0.316252	0.640254	0.317538
F154	F	0.183748	1.140254	0.817538
H155	H	-0.479585	0.506102	0.529792
H156	H	0.020415	1.006102	1.029792
H157	H	-0.241792	0.634935	0.444198
H158	H	0.258208	1.134935	0.944198
H159	H	-0.791966	0.992392	0.371183
H160	H	-0.291966	1.492392	0.871183
H161	H	-0.792568	1.026132	0.669635
H162	H	-0.292568	1.526132	1.169635
H163	H	-0.920840	0.955465	0.569225
H164	H	-0.420840	1.455465	1.069225
F165	F	-0.927080	1.173792	0.638522
F166	F	-0.427080	1.673792	1.138522
F167	F	-0.786650	1.168980	0.643725
F168	F	-0.286650	1.668980	1.143725
F169	F	-0.925196	0.973832	0.364720
F170	F	-0.425196	1.473832	0.864720
H171	H	-0.919177	1.191139	0.475510
H172	H	-0.419177	1.691139	0.975510
H173	H	-0.451436	1.164893	0.807830
H174	H	0.048564	1.664893	1.307830
