data_functionalizedCrystal
_audit_creation_method	'MofGen! by Chris Wilmer'
_symmetry_space_group_name_H-M	'P1'
_symmetry_Int_Tables_number	1
_symmetry_cell_setting	triclinic
loop_
_symmetry_equiv_pos_as_xyz
  x,y,z
_cell_length_a	19.288840
_cell_length_b	16.992695
_cell_length_c	17.766277
_cell_angle_alpha	89.993690
_cell_angle_beta	89.983415
_cell_angle_gamma	86.897119
loop_
_atom_site_label
_atom_site_type_symbol
_atom_site_fract_x
_atom_site_fract_y
_atom_site_fract_z
O1	O	0.927058	0.097701	-0.062722
O2	O	1.427058	0.597701	0.437278
O3	O	0.725565	0.110914	-0.062696
O4	O	1.225565	0.610914	0.437304
O5	O	0.825504	-0.009832	-0.062703
O6	O	1.325504	0.490168	0.437297
O7	O	0.827120	0.218447	-0.062715
O8	O	1.327120	0.718447	0.437285
O9	O	0.825485	-0.009838	0.062486
O10	O	1.325485	0.490162	0.562486
O11	O	0.725546	0.110908	0.062493
O12	O	1.225546	0.610908	0.562493
O13	O	0.927039	0.097695	0.062467
O14	O	1.427039	0.597695	0.562467
Cu15	Cu	0.826291	0.104301	0.073911
Cu16	Cu	1.326291	0.604301	0.573911
Cu17	Cu	0.826314	0.104308	-0.074139
Cu18	Cu	1.326314	0.604308	0.425861
O19	O	0.827100	0.218441	0.062474
O20	O	1.327100	0.718441	0.562474
C21	C	0.699654	0.110489	-0.000098
C22	C	1.199654	0.610489	0.499902
C23	C	0.622476	0.109223	-0.000088
C24	C	1.122476	0.609223	0.499912
C25	C	0.586247	0.108618	-0.068330
C26	C	1.086247	0.608618	0.431670
C27	C	0.513731	0.107419	-0.068339
C28	C	1.013731	0.607419	0.431661
C29	C	0.477446	0.106810	-0.000102
C30	C	0.977446	0.606810	0.499898
C31	C	0.513683	0.107419	0.068149
C32	C	1.013683	0.607419	0.568149
C33	C	0.586198	0.108626	0.068156
C34	C	1.086198	0.608626	0.568156
C35	C	0.365323	0.058978	0.052169
C36	C	0.865323	0.558978	0.552169
C37	C	0.292810	0.057767	0.052159
C38	C	0.792810	0.557767	0.552159
C39	C	0.253786	0.103092	-0.000122
C40	C	0.753786	0.603092	0.499878
C41	C	0.287285	0.149618	-0.052405
C42	C	0.787285	0.649618	0.447595
C43	C	0.359800	0.150825	-0.052398
C44	C	0.859800	0.650825	0.447602
C45	C	0.398816	0.105502	-0.000103
C46	C	0.898816	0.605502	0.499897
C47	C	0.138926	0.101188	-0.068379
C48	C	0.638926	0.601188	0.431621
C49	C	0.066408	0.099994	-0.068385
C50	C	0.566408	0.599994	0.431615
C51	C	0.066362	0.099987	0.068105
C52	C	0.566362	0.599987	0.568105
C53	C	0.138879	0.101188	0.068109
C54	C	0.638879	0.601188	0.568109
C55	C	0.175157	0.101785	-0.000135
C56	C	0.675157	0.601785	0.499865
C57	C	0.823416	-0.039040	-0.000108
C58	C	1.323416	0.460960	0.499892
C59	C	0.817216	-0.126062	-0.000108
C60	C	1.317216	0.373938	0.499892
C61	C	0.877044	-0.176520	-0.000114
C62	C	1.377044	0.323480	0.499886
C63	C	0.871214	-0.258285	-0.000121
C64	C	1.371214	0.241715	0.499879
C65	C	0.805554	-0.289591	-0.000115
C66	C	1.305554	0.210409	0.499885
C67	C	0.745721	-0.239127	-0.000110
C68	C	1.245721	0.260873	0.499890
C69	C	0.751552	-0.157363	-0.000109
C70	C	1.251552	0.342637	0.499891
C71	C	0.781387	-0.533101	-0.000122
C72	C	1.281387	-0.033101	0.499878
C73	C	0.775560	-0.614871	-0.000121
C74	C	1.275560	-0.114871	0.499879
C75	C	0.901054	-0.634024	-0.000133
C76	C	1.401054	-0.134024	0.499867
C77	C	0.906879	-0.552258	-0.000127
C78	C	1.406879	-0.052258	0.499873
C79	C	0.847046	-0.501801	-0.000127
C80	C	1.347046	-0.001801	0.499873
N81	N	0.799593	-0.373168	-0.000119
N82	N	1.299593	0.126832	0.499881
N83	N	0.853008	-0.418225	-0.000128
N84	N	1.353008	0.081775	0.499872
C85	C	0.952950	0.098120	-0.000132
C86	C	1.452950	0.598120	0.499868
C87	C	1.030128	0.099386	-0.000147
C88	C	1.530128	0.599386	0.499853
C89	C	0.829188	0.247649	-0.000122
C90	C	1.329188	0.747649	0.499878
C91	C	0.835389	0.334671	-0.000128
C92	C	1.335389	0.834671	0.499872
N93	N	0.826280	0.104295	0.178041
N94	N	1.326280	0.604295	0.678041
N95	N	0.826330	0.104308	-0.178270
N96	N	1.326330	0.604308	0.321730
C97	C	0.870550	0.050855	0.217425
C98	C	1.370550	0.550855	0.717425
C99	C	0.870554	0.050851	0.296227
C100	C	1.370554	0.550851	0.796227
C101	C	0.826295	0.104302	0.335642
C102	C	1.326295	0.604302	0.835642
C103	C	0.782017	0.157746	0.296248
C104	C	1.282017	0.657746	0.796248
C105	C	0.782009	0.157743	0.217448
C106	C	1.282009	0.657743	0.717448
C107	C	0.821159	0.175731	0.460476
C108	C	1.321159	0.675731	0.960476
C109	C	0.821172	0.175735	0.539275
C110	C	1.321172	0.675735	1.039275
C111	C	0.826314	0.104311	0.578688
C112	C	1.326314	0.604311	1.078688
C113	C	0.831459	0.032880	0.539292
C114	C	1.331459	0.532880	1.039292
C115	C	0.831451	0.032876	0.460492
C116	C	1.331451	0.532876	0.960492
C117	C	0.826298	0.104311	0.421087
C118	C	1.326298	0.604311	0.921087
C119	C	0.870590	0.050862	0.703518
C120	C	1.370590	0.550862	1.203518
C121	C	0.870589	0.050858	0.782321
C122	C	1.370589	0.550858	1.282321
C123	C	0.782056	0.157759	0.782341
C124	C	1.282056	0.657759	1.282341
C125	C	0.782054	0.157757	0.703539
C126	C	1.282054	0.657757	1.203539
C127	C	0.826324	0.104309	0.664132
C128	C	1.326324	0.604309	1.164132
H129	H	0.387071	0.188710	-0.094967
H130	H	0.887071	0.688710	0.405033
F131	F	0.946929	-0.143209	-0.000113
F132	F	1.446929	0.356791	0.499887
H133	H	0.919933	-0.299365	-0.000125
H134	H	1.419933	0.200635	0.499875
H135	H	0.168377	0.101676	0.123680
H136	H	0.668377	0.601676	0.623680
F137	F	0.027851	0.099357	-0.141022
F138	F	0.527851	0.599357	0.358978
F139	F	0.705673	-0.648187	-0.000111
F140	F	1.205673	-0.148187	0.499889
H141	H	0.835639	-0.025285	0.428419
H142	H	1.335639	0.474715	0.928419
H143	H	0.906637	0.007336	0.814388
H144	H	1.406637	0.507336	1.314388
F145	F	0.717706	-0.479411	-0.000123
F146	F	1.217706	0.020589	0.499877
F147	F	0.675841	-0.272447	-0.000113
F148	F	1.175841	0.227553	0.499887
H149	H	0.960346	-0.526775	-0.000132
H150	H	1.460346	-0.026775	0.499868
H151	H	0.949766	-0.675114	-0.000135
H152	H	1.449766	-0.175114	0.499865
F153	F	0.475066	0.106775	0.140771
F154	F	0.975066	0.606775	0.640771
H155	H	0.036820	0.099495	0.123665
H156	H	0.536820	0.599495	0.623665
H157	H	0.702833	-0.116280	-0.000104
H158	H	1.202833	0.383720	0.499896
F159	F	0.917663	-0.006030	0.175487
F160	F	1.417663	0.493970	0.675487
H161	H	0.906604	0.007332	0.328299
H162	H	1.406604	0.507332	0.828299
H163	H	0.835646	-0.025281	0.571380
H164	H	1.335646	0.474719	1.071380
F165	F	0.245759	0.197863	-0.108048
F166	F	0.745759	0.697863	0.391952
F167	F	0.406848	0.010735	0.107818
F168	F	0.906848	0.510735	0.607818
F169	F	0.734911	0.214629	0.338197
F170	F	1.234911	0.714629	0.838197
F171	F	0.624756	0.109270	0.140792
F172	F	1.124756	0.609270	0.640792
H173	H	0.906636	0.007340	0.671431
H174	H	1.406636	0.507340	1.171431
H175	H	0.265541	0.019878	0.094727
H176	H	0.765541	0.519878	0.594727
H177	H	0.746017	0.201276	0.814432
H178	H	1.246017	0.701276	1.314432
H179	H	0.615780	0.109104	-0.123900
H180	H	1.115780	0.609104	0.376100
H181	H	0.746008	0.201276	0.671471
H182	H	1.246008	0.701276	1.171471
F183	F	0.815701	0.251758	0.581196
F184	F	1.315701	0.751758	1.081196
H185	H	0.816960	0.233897	0.428393
H186	H	1.316960	0.733897	0.928393
F187	F	0.734890	0.214624	0.175531
F188	F	1.234890	0.714624	0.675531
H189	H	0.484228	0.106928	-0.123912
H190	H	0.984228	0.606928	0.376088
F191	F	0.177538	0.101829	-0.141009
F192	F	0.677538	0.601829	0.358991
