data_functionalizedCrystal
_audit_creation_method	'MofGen! by Chris Wilmer'
_symmetry_space_group_name_H-M	'P1'
_symmetry_Int_Tables_number	1
_symmetry_cell_setting	triclinic
loop_
_symmetry_equiv_pos_as_xyz
  x,y,z
_cell_length_a	10.654550
_cell_length_b	14.044220
_cell_length_c	9.130313
_cell_angle_alpha	89.997493
_cell_angle_beta	89.996220
_cell_angle_gamma	88.836890
loop_
_atom_site_label
_atom_site_type_symbol
_atom_site_fract_x
_atom_site_fract_y
_atom_site_fract_z
O1	O	1.681222	0.133227	-0.121925
O2	O	1.317019	0.145921	-0.121902
O3	O	1.493654	0.001554	-0.121899
O4	O	1.504587	0.277595	-0.121929
O5	O	1.493652	0.001557	0.121700
O6	O	1.317017	0.145925	0.121696
O7	O	1.681220	0.133231	0.121673
Cu8	Cu	1.499119	0.139578	0.143927
Cu9	Cu	1.499121	0.139574	-0.144156
O10	O	1.504585	0.277598	0.121670
C11	C	1.270127	0.144991	-0.000100
C12	C	1.130403	0.142202	-0.000091
C13	C	1.059459	0.227203	-0.000121
C14	C	0.928175	0.224578	-0.000146
C15	C	0.938790	0.051942	-0.000116
C16	C	1.070072	0.054569	-0.000081
C17	C	1.053329	0.326873	-0.000145
C18	C	0.922045	0.324247	-0.000170
C19	C	1.488867	-0.033790	-0.000099
C20	C	1.474592	-0.139110	-0.000096
C21	C	1.448493	-0.331943	-0.000116
C22	C	1.549741	-0.388911	-0.000126
C23	C	1.535219	-0.496210	-0.000137
C24	C	1.463013	-0.224634	-0.000105
C25	C	1.728113	0.134161	-0.000132
C26	C	1.867836	0.136950	-0.000151
C27	C	1.509372	0.312942	-0.000133
C28	C	1.523648	0.418262	-0.000146
N29	N	1.499126	0.139581	0.346550
N30	N	1.499122	0.139564	-0.346779
C31	C	1.577364	0.075677	0.423203
C32	C	1.577359	0.075666	0.576540
C33	C	1.420876	0.203470	0.576557
C34	C	1.420875	0.203477	0.423223
C35	C	1.667713	0.001893	0.423195
C36	C	1.667708	0.001881	0.576532
H37	H	1.086577	0.365856	0.101803
C38	C	1.794027	0.033098	0.358913
C39	C	1.799185	0.121397	0.259257
C40	C	1.925497	0.152605	0.194970
C41	C	2.046649	0.095515	0.230338
C42	C	2.041495	0.007211	0.329999
C43	C	1.915183	-0.023998	0.394286
H44	H	1.709497	0.163663	0.233071
H45	H	1.929311	0.217974	0.121194
H46	H	2.140152	0.118617	0.182749
H47	H	2.131183	-0.035056	0.356185
H48	H	1.911369	-0.089367	0.468061
C49	C	1.681579	-0.345942	-0.000120
C50	C	1.798876	-0.411838	-0.000126
C51	C	1.930708	-0.368865	-0.000115
C52	C	1.945244	-0.259996	-0.000098
C53	C	1.827943	-0.194093	-0.000091
C54	C	1.696110	-0.237067	-0.000102
H55	H	1.788120	-0.492436	-0.000139
H56	H	2.017542	-0.417651	-0.000120
H57	H	2.042834	-0.228185	-0.000090
H58	H	1.838699	-0.113496	-0.000079
H59	H	1.609277	-0.188280	-0.000098
H60	H	1.350913	-0.363754	-0.000113
C61	C	1.334804	0.273764	0.338897
C62	C	1.248801	0.344095	0.423231
C63	C	1.162726	0.414383	0.338903
C64	C	1.162654	0.414341	0.170242
C65	C	1.248659	0.344007	0.085899
C66	C	1.334734	0.273719	0.170226
H67	H	1.248852	0.344128	0.548092
H68	H	1.099059	0.466449	0.401340
H69	H	1.098936	0.466373	0.107817
H70	H	1.248608	0.343973	-0.038963
H71	H	1.398401	0.221653	0.107789
C72	C	1.105814	0.369750	-0.142223
C73	C	1.078409	0.322565	-0.290750
C74	C	1.130892	0.365438	-0.432831
C75	C	1.210780	0.455496	-0.426386
C76	C	1.238190	0.502686	-0.277853
C77	C	1.185707	0.459813	-0.135771
H78	H	1.019267	0.255894	-0.295526
H79	H	1.110601	0.330505	-0.542785
H80	H	1.249631	0.487234	-0.531563
H81	H	1.297332	0.569357	-0.273076
H82	H	1.205998	0.494746	-0.025817
C83	C	1.628839	-0.096597	0.366967
C84	C	1.707364	-0.185977	0.407702
C85	C	1.668489	-0.284463	0.351474
C86	C	1.551089	-0.293569	0.254510
C87	C	1.472557	-0.204186	0.213769
C88	C	1.511432	-0.105700	0.269997
H89	H	1.794277	-0.179239	0.479486
H90	H	1.726624	-0.350630	0.381633
H91	H	1.522312	-0.366474	0.212886
H92	H	1.385644	-0.210924	0.141985
H93	H	1.453297	-0.039533	0.239838
C94	C	1.617165	-0.091207	0.640775
C95	C	1.701289	-0.153792	0.740403
C96	C	1.650755	-0.246882	0.804640
C97	C	1.516098	-0.277388	0.769250
C98	C	1.431966	-0.214802	0.669618
C99	C	1.482500	-0.121712	0.605380
H100	H	1.800978	-0.131210	0.766605
H101	H	1.713036	-0.293212	0.878395
H102	H	1.478690	-0.346299	0.816802
H103	H	1.332278	-0.237384	0.643415
H104	H	1.420219	-0.075382	0.531626
H105	H	1.127830	-0.014647	-0.000035
H106	H	0.889652	-0.019406	-0.000131
H107	H	0.879400	0.354371	0.104995
H108	H	0.884087	0.361800	-0.102127
H109	H	1.765853	0.018134	0.618140
H110	H	1.357165	0.255492	0.639000
