data_functionalizedCrystal
_audit_creation_method	'MofGen! by Chris Wilmer'
_symmetry_space_group_name_H-M	'P1'
_symmetry_Int_Tables_number	1
_symmetry_cell_setting	triclinic
loop_
_symmetry_equiv_pos_as_xyz
  x,y,z
_cell_length_a	12.837943
_cell_length_b	12.503572
_cell_length_c	12.811415
_cell_angle_alpha	91.877684
_cell_angle_beta	89.411917
_cell_angle_gamma	93.890817
loop_
_atom_site_label
_atom_site_type_symbol
_atom_site_fract_x
_atom_site_fract_y
_atom_site_fract_z
O1	O	1.384311	0.115199	0.265915
O2	O	1.884311	0.615199	0.765915
O3	O	1.082361	0.113900	0.252510
O4	O	1.582361	0.613900	0.752510
O5	O	1.239948	0.099824	0.108082
O6	O	1.739948	0.599824	0.608082
O7	O	1.226724	0.129275	0.410342
O8	O	1.726724	0.629275	0.910342
O9	O	1.228097	-0.077758	0.118964
O10	O	1.728097	0.422242	0.618964
O11	O	1.070510	-0.063681	0.263391
O12	O	1.570510	0.436319	0.763391
O13	O	1.372460	-0.062382	0.276796
O14	O	1.872460	0.437618	0.776796
Cu15	Cu	1.220403	-0.079246	0.271087
Cu16	Cu	1.720403	0.420754	0.771087
Cu17	Cu	1.234418	0.130764	0.258218
Cu18	Cu	1.734418	0.630764	0.758218
O19	O	1.214873	-0.048306	0.421224
O20	O	1.714873	0.451694	0.921224
C21	C	1.037766	0.024669	0.253422
C22	C	1.537766	0.524669	0.753422
C23	C	0.922542	0.023356	0.239916
C24	C	1.422542	0.523356	0.739916
N25	N	1.210552	-0.226957	0.280139
N26	N	1.710552	0.273043	0.780139
C27	C	0.683343	0.039161	0.402278
C28	C	1.183343	0.539161	0.902278
C29	C	0.575079	0.037927	0.389593
C30	C	1.075079	0.537927	0.889593
C31	C	0.597750	0.019646	0.201863
C32	C	1.097750	0.519646	0.701863
C33	C	0.706013	0.020880	0.214548
C34	C	1.206013	0.520880	0.714548
C35	C	0.748805	0.030639	0.314758
C36	C	1.248805	0.530639	0.814758
C37	C	0.857071	0.031881	0.327442
C38	C	1.357071	0.531881	0.827442
C39	C	0.879739	0.013593	0.139714
C40	C	1.379739	0.513593	0.639714
C41	C	0.771476	0.012359	0.127029
C42	C	1.271476	0.512359	0.627029
C43	C	1.196062	-0.444773	0.293463
C44	C	1.696062	0.055227	0.793463
C45	C	1.258763	-0.503716	0.235839
C46	C	1.758763	-0.003716	0.735839
C47	C	1.250701	-0.624917	0.243252
C48	C	1.750701	-0.124917	0.743252
C49	C	1.204124	-0.323561	0.286050
C50	C	1.704124	0.176439	0.786050
C51	C	1.417055	0.026851	0.275884
C52	C	1.917055	0.526851	0.775884
C53	C	1.532279	0.028171	0.289389
C54	C	2.032279	0.528171	0.789389
C55	C	1.232918	0.007240	0.074566
C56	C	1.732918	0.507240	0.574566
C57	C	1.229616	-0.004064	-0.041514
C58	C	1.729616	0.495936	0.458486
N59	N	1.244277	0.278474	0.249160
N60	N	1.744277	0.778474	0.749160
C61	C	1.236313	0.168317	-0.271496
C62	C	1.736313	0.668317	0.228504
C63	C	1.233210	0.157701	-0.380564
C64	C	1.733210	0.657701	0.119436
C65	C	1.220300	-0.035910	-0.368720
C66	C	1.720300	0.464090	0.131280
C67	C	1.223403	-0.025294	-0.259652
C68	C	1.723403	0.474706	0.240348
C69	C	1.231411	0.076822	-0.211044
C70	C	1.731411	0.576822	0.288956
C71	C	1.234521	0.087437	-0.101975
C72	C	1.734521	0.587437	0.398025
C73	C	1.221604	-0.106173	-0.090132
C74	C	1.721604	0.393827	0.409868
C75	C	1.218501	-0.116789	-0.199200
C76	C	1.718501	0.383211	0.300800
C77	C	1.221903	0.044281	0.454740
C78	C	1.721903	0.544281	0.954740
C79	C	1.225206	0.055591	0.570820
C80	C	1.725206	0.555591	1.070820
H81	H	0.718184	0.047109	0.483873
H82	H	1.218184	0.547109	0.983873
O83	O	1.243144	0.197573	-0.049544
O84	O	1.743144	0.697573	0.450456
H85	H	1.316220	0.241747	-0.075604
H86	H	1.816220	0.741747	0.424396
O87	O	1.116958	-0.498496	0.366199
O88	O	1.616958	0.001504	0.866199
H89	H	1.072267	-0.436623	0.407275
H90	H	1.572267	0.063377	0.907275
H91	H	0.933052	0.006661	0.068449
H92	H	1.433052	0.506661	0.568449
H93	H	1.318499	-0.463154	0.180939
H94	H	1.818499	0.036846	0.680939
O95	O	0.903226	0.042391	0.435523
O96	O	1.403226	0.542391	0.935523
H97	H	0.881832	0.118908	0.473679
H98	H	1.381832	0.618908	0.973679
H99	H	1.242843	0.251464	-0.231920
H100	H	1.742843	0.751464	0.268080
H101	H	0.736619	0.004401	0.045441
H102	H	1.236619	0.504401	0.545441
O103	O	1.238479	0.256382	-0.445771
O104	O	1.738479	0.756382	0.054229
H105	H	1.244567	0.329169	-0.393643
H106	H	1.744567	0.829169	0.106357
H107	H	1.213772	-0.119048	-0.408316
H108	H	1.713772	0.380952	0.091684
O109	O	1.209887	-0.226926	-0.251628
O110	O	1.709887	0.273074	0.248372
H111	H	1.208566	-0.218939	-0.337627
H112	H	1.708566	0.281061	0.162373
H113	H	1.217616	-0.180675	-0.040900
H114	H	1.717616	0.319325	0.459100
H115	H	0.521782	0.044863	0.460861
H116	H	1.021782	0.544863	0.960861
O117	O	0.551588	0.009104	0.093786
O118	O	1.051588	0.509104	0.593786
H119	H	0.465307	0.009676	0.099675
H120	H	0.965307	0.509676	0.599675
