data_functionalizedCrystal
_audit_creation_method	'MofGen! by Chris Wilmer'
_symmetry_space_group_name_H-M	'P1'
_symmetry_Int_Tables_number	1
_symmetry_cell_setting	triclinic
loop_
_symmetry_equiv_pos_as_xyz
  x,y,z
_cell_length_a	12.837943
_cell_length_b	12.837942
_cell_length_c	11.892095
_cell_angle_alpha	85.697431
_cell_angle_beta	94.310562
_cell_angle_gamma	94.828940
loop_
_atom_site_label
_atom_site_type_symbol
_atom_site_fract_x
_atom_site_fract_y
_atom_site_fract_z
O1	O	-1.408367	-0.266110	-0.093982
O2	O	-1.105234	-0.252667	-0.093989
O3	O	-1.250078	-0.107822	-0.093979
O4	O	-1.263522	-0.410955	-0.093992
O5	O	-1.237999	-0.119879	0.094028
O6	O	-1.093155	-0.264723	0.094018
O7	O	-1.396288	-0.278167	0.094025
Zn8	Zn	-1.242803	-0.273359	0.123871
Zn9	Zn	-1.258718	-0.257474	-0.123836
O10	O	-1.251443	-0.423011	0.094014
C11	C	-1.060125	-0.254153	0.000014
C12	C	-0.943710	-0.240609	0.000011
C13	C	-1.239497	-0.074781	0.000024
C14	C	-1.225953	0.041634	0.000022
C15	C	-1.441397	-0.276680	0.000020
C16	C	-1.557812	-0.290224	0.000015
C17	C	-0.718835	-0.403439	0.000020
C18	C	-0.609453	-0.390717	0.000019
C19	C	-0.615561	-0.202446	0.000015
C20	C	-0.724943	-0.215167	0.000017
C21	C	-0.776577	-0.315667	0.000017
C22	C	-0.885961	-0.328387	0.000011
C23	C	-0.892066	-0.140117	0.000015
C24	C	-0.782684	-0.127395	0.000014
C25	C	-1.262024	-0.456052	0.000009
C26	C	-1.275569	-0.572467	0.000004
N27	N	-1.231950	-0.284200	0.292925
C28	C	-1.388784	0.266509	0.000002
C29	C	-1.376062	0.375892	-0.000000
C30	C	-1.187791	0.369784	0.000007
C31	C	-1.200512	0.260402	0.000009
C32	C	-1.301011	0.208768	0.000008
C33	C	-1.313731	0.099383	0.000019
C34	C	-1.125461	0.093278	0.000018
C35	C	-1.112740	0.202660	0.000016
N36	N	-1.269579	-0.246626	-0.292889
C37	C	-1.345098	-0.171130	0.529580
C38	C	-1.337519	-0.178716	0.647922
C39	C	-1.209210	-0.306952	0.647951
C40	C	-1.216788	-0.299366	0.529610
C41	C	-1.284736	-0.231454	0.470428
C42	C	-1.292319	-0.223874	0.352085
C43	C	-1.164005	-0.352104	0.352116
C44	C	-1.156426	-0.359690	0.470458
H45	H	-0.928000	-0.410219	0.000013
O46	O	-1.015049	0.252660	-0.000034
C47	C	-0.940305	0.178234	0.000005
H48	H	-0.979254	0.103436	-0.035585
H49	H	-0.874296	0.211197	-0.054576
H50	H	-0.906925	0.159887	0.090204
O51	O	-0.553201	-0.475869	0.000064
C52	C	-0.445587	-0.443094	0.000032
H53	H	-0.430983	-0.362738	0.035626
H54	H	-0.398558	-0.501877	0.054612
H55	H	-0.420198	-0.438164	-0.090166
H56	H	-1.053990	0.046252	0.000033
O57	O	-0.948122	-0.054802	-0.000186
C58	C	-0.929478	0.011823	-0.097543
H59	H	-0.901993	-0.035401	-0.165596
H60	H	-1.004894	0.048254	-0.130232
H61	H	-0.866474	0.076490	-0.075529
O62	O	-0.768831	-0.501134	0.000063
C63	C	-0.694413	-0.575876	0.000027
H64	H	-0.615049	-0.541498	0.035623
H65	H	-0.720378	-0.648890	0.054604
H66	H	-0.687636	-0.597680	-0.090172
O67	O	-1.358192	-0.157735	0.294669
C68	C	-1.329067	-0.054291	0.323652
H69	H	-1.243114	-0.047574	0.356185
H70	H	-1.340903	0.002069	0.245848
H71	H	-1.379633	-0.033719	0.392357
H72	H	-1.470613	0.224468	0.000012
O73	O	-1.090489	-0.425795	0.527823
C74	C	-1.119614	-0.529264	0.498923
H75	H	-1.165462	-0.527634	0.412994
H76	H	-1.046277	-0.572745	0.494885
H77	H	-1.170651	-0.571079	0.565520
O78	O	-1.396105	-0.119963	0.705260
C79	C	-1.370680	-0.012791	0.676369
H80	H	-1.335844	-0.003407	0.590454
H81	H	-1.444534	0.031213	0.672306
H82	H	-1.311106	0.020484	0.742985
O83	O	-1.411386	0.049283	-0.000188
C84	C	-1.471795	0.084129	-0.097552
H85	H	-1.417583	0.116772	-0.165601
H86	H	-1.524957	0.015675	-0.130241
H87	H	-1.521695	0.148115	-0.075546
O88	O	-1.090245	0.420113	0.000055
C89	C	-1.097847	0.529040	0.000016
H90	H	-1.174727	0.544318	0.035605
H91	H	-1.029392	0.565172	0.054598
H92	H	-1.095569	0.565710	-0.090183
O93	O	-1.411244	-0.105334	0.472048
C94	C	-1.485726	-0.163446	0.403576
H95	H	-1.493324	-0.248466	0.439239
H96	H	-1.564816	-0.128944	0.402237
H97	H	-1.459267	-0.159917	0.313886
O98	O	-1.143143	-0.372769	0.705580
C99	C	-1.068629	-0.314662	0.774020
H100	H	-1.101102	-0.238019	0.791721
H101	H	-1.051056	-0.362031	0.857251
H102	H	-0.993475	-0.296949	0.728432
O103	O	-1.105522	-0.410763	0.294534
C104	C	-1.172358	-0.476546	0.226099
H105	H	-1.251288	-0.441842	0.208350
H106	H	-1.135632	-0.483448	0.142892
H107	H	-1.184199	-0.557539	0.271715
O108	O	-0.565433	-0.104818	0.000217
C109	C	-0.587790	-0.056888	0.097570
H110	H	-0.611705	-0.119824	0.165627
H111	H	-0.515142	-0.007918	0.130257
H112	H	-0.654598	-0.004165	0.075551
O113	O	-0.732487	-0.029785	-0.000190
C114	C	-0.675630	-0.010571	-0.097546
H115	H	-0.711232	-0.063466	-0.165598
H116	H	-0.679187	0.074923	-0.130237
H117	H	-0.590497	-0.027631	-0.075528
H118	H	-1.447536	0.422901	-0.000009
