data_functionalizedCrystal
_audit_creation_method	'MofGen! by Chris Wilmer'
_symmetry_space_group_name_H-M	'P1'
_symmetry_Int_Tables_number	1
_symmetry_cell_setting	triclinic
loop_
_symmetry_equiv_pos_as_xyz
  x,y,z
_cell_length_a	18.101398
_cell_length_b	17.077402
_cell_length_c	17.077404
_cell_angle_alpha	90.012249
_cell_angle_beta	90.013737
_cell_angle_gamma	90.018149
loop_
_atom_site_label
_atom_site_type_symbol
_atom_site_fract_x
_atom_site_fract_y
_atom_site_fract_z
Zn1	Zn	1.132086	-0.312743	0.443949
Zn2	Zn	1.132022	-0.443978	0.312680
Zn3	Zn	1.008268	-0.312719	0.312684
Zn4	Zn	1.008213	-0.443960	0.443891
O5	O	1.070147	-0.378350	0.378301
O6	O	1.235710	-0.330169	0.426558
O7	O	1.115602	-0.426563	0.202834
O8	O	1.024742	-0.202875	0.330123
O9	O	1.235664	-0.426587	0.330115
O10	O	1.115710	-0.202893	0.426562
O11	O	1.024680	-0.330128	0.202837
O12	O	0.904628	-0.330111	0.330067
O13	O	1.024649	-0.426556	0.553746
O14	O	0.904588	-0.426533	0.426464
O15	O	1.115658	-0.330152	0.553788
O16	O	1.115550	-0.553822	0.330059
O17	O	1.024588	-0.553809	0.426459
C18	C	0.877737	-0.378318	0.378260
C19	C	0.795423	-0.378323	0.378261
C20	C	1.070076	-0.582298	0.378270
C21	C	1.070113	-0.669548	0.378283
C22	C	1.117525	-0.710519	0.328141
C23	C	1.117562	-0.792499	0.328161
C24	C	1.070181	-0.833507	0.378319
C25	C	1.022767	-0.792530	0.428466
C26	C	1.022735	-0.710551	0.428450
C27	C	1.022835	-0.963400	0.428496
C28	C	1.022866	-1.045385	0.428512
C29	C	1.117662	-1.045348	0.328207
C30	C	1.117630	-0.963369	0.328191
C31	C	1.070215	-0.922398	0.378337
C32	C	0.496332	-0.378372	0.378327
C33	C	0.527657	-0.317403	0.317973
C34	C	0.613275	-0.317567	0.317715
C35	C	0.644714	-0.378347	0.378294
C36	C	0.613611	-0.461030	0.355690
C37	C	0.527966	-0.460691	0.355271
C38	C	0.527929	-0.357378	0.461428
C39	C	0.613580	-0.355536	0.460974
C40	C	0.728574	-0.378338	0.378277
C41	C	0.412472	-0.378387	0.378342
C42	C	1.263309	-0.378383	0.378343
C43	C	1.345623	-0.378396	0.378360
C44	C	1.070154	-0.378355	0.583045
C45	C	1.070157	-0.378357	0.670295
C46	C	1.070239	-0.173606	0.378350
C47	C	1.070278	-0.086356	0.378370
C48	C	1.117540	-0.328167	0.711309
C49	C	1.117534	-0.328166	0.793289
C50	C	1.070148	-0.378359	0.834254
C51	C	1.022761	-0.428551	0.793235
C52	C	1.022764	-0.428548	0.711256
C53	C	1.022759	-0.428556	0.964105
C54	C	1.022757	-0.428561	1.046090
C55	C	1.117529	-0.328175	1.046138
C56	C	1.117532	-0.328172	0.964159
C57	C	1.070145	-0.378364	0.923145
C58	C	1.070137	-0.378365	1.174353
C59	C	1.070139	-0.378371	1.087103
H60	H	1.156105	-0.677135	0.287293
H61	H	0.507076	-0.255902	0.331986
H62	H	0.984170	-0.469431	1.079442
H63	H	0.984227	-0.930045	0.469334
H64	H	0.984192	-0.825926	0.469310
H65	H	1.156112	-0.287305	1.079535
O66	O	1.168694	-0.836692	0.274075
H67	H	1.201627	-0.794404	0.239186
H68	H	0.984160	-0.469416	0.930714
O69	O	0.971647	-0.482672	0.667020
H70	H	0.984312	-0.544287	0.682733
O71	O	0.499352	-0.278902	0.488653
H72	H	0.438145	-0.280795	0.492058
H73	H	0.506120	-0.331123	0.256754
H74	H	0.984128	-0.677194	0.469281
O75	O	0.640511	-0.274942	0.483563
H76	H	0.675928	-0.251225	0.436110
H77	H	0.634305	-0.256253	0.331884
H78	H	1.156207	-0.929980	0.287344
H79	H	0.634982	-0.396709	0.508353
H80	H	0.984176	-0.469416	0.826596
O81	O	1.168812	-1.089531	0.274125
H82	H	1.160885	-1.153425	0.282570
H83	H	0.633742	-0.331444	0.256138
O84	O	0.501466	-0.484267	0.274799
H85	H	0.549822	-0.495799	0.236549
O86	O	0.501088	-0.416189	0.521003
H87	H	0.520133	-0.475600	0.504072
O88	O	0.971773	-1.089620	0.482618
H89	H	0.938806	-1.047360	0.517496
H90	H	0.507243	-0.507655	0.397313
H91	H	1.156129	-0.287297	0.677960
O92	O	0.640582	-0.522823	0.412089
H93	H	0.676530	-0.495192	0.456933
H94	H	0.635039	-0.479147	0.295596
H95	H	1.156121	-0.287304	0.930807
H96	H	1.156119	-0.287299	0.826679
