data_functionalizedCrystal
_audit_creation_method	'MofGen! by Chris Wilmer'
_symmetry_space_group_name_H-M	'P1'
_symmetry_Int_Tables_number	1
_symmetry_cell_setting	triclinic
loop_
_symmetry_equiv_pos_as_xyz
  x,y,z
_cell_length_a	16.625545
_cell_length_b	16.625548
_cell_length_c	16.625539
_cell_angle_alpha	89.979432
_cell_angle_beta	90.028107
_cell_angle_gamma	89.973374
loop_
_atom_site_label
_atom_site_type_symbol
_atom_site_fract_x
_atom_site_fract_y
_atom_site_fract_z
Zn1	Zn	-0.320977	-1.232663	0.455910
Zn2	Zn	-0.070977	-0.982663	0.705910
Zn3	Zn	0.179023	-0.732663	0.955910
Zn4	Zn	0.429023	-0.482663	1.205910
Zn5	Zn	-0.455820	-1.232559	0.321078
Zn6	Zn	-0.205820	-0.982559	0.571078
Zn7	Zn	0.044180	-0.732559	0.821078
Zn8	Zn	0.294180	-0.482559	1.071078
Zn9	Zn	-0.321008	-1.097825	0.321091
Zn10	Zn	-0.071008	-0.847825	0.571091
Zn11	Zn	0.178992	-0.597825	0.821091
Zn12	Zn	0.428992	-0.347825	1.071091
Zn13	Zn	-0.455774	-1.097788	0.455868
Zn14	Zn	-0.205774	-0.847788	0.705868
Zn15	Zn	0.044226	-0.597788	0.955868
Zn16	Zn	0.294226	-0.347788	1.205868
O17	O	-0.388395	-1.165209	0.388487
O18	O	-0.138395	-0.915209	0.638487
O19	O	0.111605	-0.665209	0.888487
O20	O	0.361605	-0.415209	1.138487
O21	O	-0.338871	-1.345482	0.438037
O22	O	-0.088871	-1.095482	0.688037
O23	O	0.161129	-0.845482	0.938037
O24	O	0.411129	-0.595482	1.188037
O25	O	-0.437969	-1.214658	0.208247
O26	O	-0.187969	-0.964658	0.458247
O27	O	0.062031	-0.714658	0.708247
O28	O	0.312031	-0.464658	0.958247
O29	O	-0.208171	-1.115771	0.338998
O30	O	0.041829	-0.865771	0.588998
O31	O	0.291829	-0.615771	0.838998
O32	O	0.541829	-0.365771	1.088998
O33	O	-0.437940	-1.345405	0.338976
O34	O	-0.187940	-1.095405	0.588976
O35	O	0.062060	-0.845405	0.838976
O36	O	0.312060	-0.595405	1.088976
O37	O	-0.208149	-1.214836	0.438050
O38	O	0.041851	-0.964836	0.688050
O39	O	0.291851	-0.714836	0.938050
O40	O	0.541851	-0.464836	1.188050
O41	O	-0.338923	-1.115670	0.208257
O42	O	-0.088923	-0.865670	0.458257
O43	O	0.161077	-0.615670	0.708257
O44	O	0.411077	-0.365670	0.958257
O45	O	-0.338878	-0.984988	0.338957
O46	O	-0.088878	-0.734988	0.588957
O47	O	0.161122	-0.484988	0.838957
O48	O	0.411122	-0.234988	1.088957
O49	O	-0.437861	-1.115708	0.568706
O50	O	-0.187861	-0.865708	0.818706
O51	O	0.062139	-0.615708	1.068706
O52	O	0.312139	-0.365708	1.318706
O53	O	-0.437891	-0.984961	0.437977
O54	O	-0.187891	-0.734961	0.687977
O55	O	0.062109	-0.484961	0.937977
O56	O	0.312109	-0.234961	1.187977
O57	O	-0.338826	-1.214800	0.568737
O58	O	-0.088826	-0.964800	0.818737
O59	O	0.161174	-0.714800	1.068737
O60	O	0.411174	-0.464800	1.318737
O61	O	-0.568647	-1.214622	0.338935
O62	O	-0.318647	-0.964622	0.588935
O63	O	-0.068647	-0.714622	0.838935
O64	O	0.181353	-0.464622	1.088935
O65	O	-0.568613	-1.115607	0.437965
O66	O	-0.318613	-0.865607	0.687965
O67	O	-0.068613	-0.615607	0.937965
O68	O	0.181387	-0.365607	1.187965
C69	C	-0.597886	-1.165121	0.388462
C70	C	-0.347886	-0.915121	0.638462
C71	C	-0.097886	-0.665121	0.888462
C72	C	0.152114	-0.415121	1.138462
C73	C	-0.687507	-1.165158	0.388478
C74	C	-0.437507	-0.915158	0.638478
C75	C	-0.187507	-0.665158	0.888478
C76	C	0.062493	-0.415158	1.138478
C77	C	-0.388383	-0.955718	0.388464
C78	C	-0.138383	-0.705718	0.638464
C79	C	0.111617	-0.455718	0.888464
C80	C	0.361617	-0.205718	1.138464
C81	C	-0.388398	-0.866097	0.388474
C82	C	-0.138398	-0.616097	0.638474
C83	C	0.111602	-0.366097	0.888474
C84	C	0.361602	-0.116097	1.138474
C85	C	-0.388335	-1.165261	0.598796
C86	C	-0.138335	-0.915261	0.848796
C87	C	0.111665	-0.665261	1.098796
C88	C	0.361665	-0.415261	1.348796
C89	C	-0.388309	-1.165284	0.688417
C90	C	-0.138309	-0.915284	0.938417
C91	C	0.111691	-0.665284	1.188417
C92	C	0.361691	-0.415284	1.438417
C93	C	-0.760289	-1.165189	0.388494
C94	C	-0.510289	-0.915189	0.638494
C95	C	-0.260289	-0.665189	0.888494
C96	C	-0.010289	-0.415189	1.138494
C97	C	-0.851598	-1.165236	0.388511
C98	C	-0.601598	-0.915236	0.638511
C99	C	-0.351598	-0.665236	0.888511
C100	C	-0.101598	-0.415236	1.138511
C101	C	-0.924374	-1.165278	0.388522
C102	C	-0.674374	-0.915278	0.638522
C103	C	-0.424374	-0.665278	0.888522
C104	C	-0.174374	-0.415278	1.138522
C105	C	-1.015688	-1.165324	0.388538
C106	C	-0.765688	-0.915324	0.638538
C107	C	-0.515688	-0.665324	0.888538
C108	C	-0.265688	-0.415324	1.138538
C109	C	-0.178086	-1.165319	0.388530
C110	C	0.071914	-0.915319	0.638530
C111	C	0.321914	-0.665319	0.888530
C112	C	0.571914	-0.415319	1.138530
C113	C	-0.088465	-1.165366	0.388548
C114	C	0.161535	-0.915366	0.638548
C115	C	0.411535	-0.665366	0.888548
C116	C	0.661535	-0.415366	1.138548
C117	C	-0.388407	-1.375518	0.388510
C118	C	-0.138407	-1.125518	0.638510
C119	C	0.111593	-0.875518	0.888510
C120	C	0.361593	-0.625518	1.138510
C121	C	-0.388412	-1.465139	0.388520
C122	C	-0.138412	-1.215139	0.638520
C123	C	0.111588	-0.965139	0.888520
C124	C	0.361588	-0.715139	1.138520
C125	C	-0.388403	-0.537921	0.388508
C126	C	-0.138403	-0.287921	0.638508
C127	C	0.111597	-0.037921	0.888508
C128	C	0.361597	0.212079	1.138508
C129	C	-0.388399	-0.629230	0.388496
C130	C	-0.138399	-0.379230	0.638496
C131	C	0.111601	-0.129230	0.888496
C132	C	0.361601	0.120770	1.138496
C133	C	-0.388401	-0.702006	0.388490
C134	C	-0.138401	-0.452006	0.638490
C135	C	0.111599	-0.202006	0.888490
C136	C	0.361599	0.047994	1.138490
C137	C	-0.388396	-0.793320	0.388480
C138	C	-0.138396	-0.543320	0.638480
C139	C	0.111604	-0.293320	0.888480
C140	C	0.361604	-0.043320	1.138480
C141	C	-0.388397	-1.165203	0.178996
C142	C	-0.138397	-0.915203	0.428996
C143	C	0.111603	-0.665203	0.678996
C144	C	0.361603	-0.415203	0.928996
C145	C	-0.388195	-1.165337	0.089375
C146	C	-0.138195	-0.915337	0.339375
C147	C	0.111805	-0.665337	0.589375
C148	C	0.361805	-0.415337	0.839375
C149	C	-0.388219	-1.165321	1.016593
C150	C	-0.138219	-0.915321	1.266593
C151	C	0.111781	-0.665321	1.516593
C152	C	0.361781	-0.415321	1.766593
C153	C	-0.388247	-1.165308	0.925284
C154	C	-0.138247	-0.915308	1.175284
C155	C	0.111753	-0.665308	1.425284
C156	C	0.361753	-0.415308	1.675284
C157	C	-0.388265	-1.165303	0.852508
C158	C	-0.138265	-0.915303	1.102508
C159	C	0.111735	-0.665303	1.352508
C160	C	0.361735	-0.415303	1.602508
C161	C	-0.388291	-1.165289	0.761194
C162	C	-0.138291	-0.915289	1.011194
C163	C	0.111709	-0.665289	1.261194
C164	C	0.361709	-0.415289	1.511194
