data_functionalizedCrystal
_audit_creation_method	'MofGen! by Chris Wilmer'
_symmetry_space_group_name_H-M	'P1'
_symmetry_Int_Tables_number	1
_symmetry_cell_setting	triclinic
loop_
_symmetry_equiv_pos_as_xyz
  x,y,z
_cell_length_a	10.967926
_cell_length_b	12.837942
_cell_length_c	9.482900
_cell_angle_alpha	100.328050
_cell_angle_beta	92.549900
_cell_angle_gamma	89.656601
loop_
_atom_site_label
_atom_site_type_symbol
_atom_site_fract_x
_atom_site_fract_y
_atom_site_fract_z
O1	O	1.631220	0.183842	0.287779
O2	O	1.282268	0.186126	0.200353
O3	O	1.449005	0.033767	0.242136
O4	O	1.464483	0.336201	0.245996
O5	O	1.415152	0.064845	0.475445
O6	O	1.248415	0.217204	0.433662
O7	O	1.597367	0.214920	0.521088
Cu8	Cu	1.419800	0.218899	0.498678
Cu9	Cu	1.459835	0.182146	0.222763
O10	O	1.430630	0.367279	0.479305
C11	C	1.220367	0.199150	0.305739
C12	C	1.086355	0.191646	0.272164
C13	C	1.009072	0.204399	0.378056
C14	C	0.870564	0.196643	0.343357
C15	C	1.426851	0.010472	0.357480
C16	C	1.411259	-0.105240	0.353571
C17	C	1.598705	-0.338566	0.400504
C18	C	1.584061	-0.447289	0.396832
C19	C	1.367330	-0.431412	0.342548
C20	C	1.381974	-0.322689	0.346219
C21	C	1.497665	-0.276270	0.375200
C22	C	1.512306	-0.167544	0.378881
C23	C	1.295578	-0.151670	0.324587
C24	C	1.280934	-0.260393	0.320915
C25	C	1.659269	0.201895	0.415699
C26	C	1.793281	0.209398	0.449265
C27	C	1.452784	0.390573	0.363958
C28	C	1.468377	0.506284	0.367857
N29	N	1.391650	0.244749	0.692744
N30	N	1.487994	0.156289	0.028699
C31	C	1.451523	0.189765	0.779947
C32	C	1.428111	0.211281	0.941498
H33	H	1.045448	0.221054	0.494403
Cl34	Cl	1.657742	-0.109188	0.415323
Cl35	Cl	1.744134	-0.280202	0.436971
H36	H	0.829650	0.226057	0.565620
H37	H	1.556585	0.093277	0.983764
H38	H	0.834194	0.179979	0.227003
H39	H	1.049979	0.174982	0.155818
H40	H	1.323053	0.307748	0.737684
H41	H	1.666339	-0.498008	0.417433
H42	H	1.273142	-0.469228	0.318937
Cl43	Cl	1.135504	-0.318761	0.284472
Cl44	Cl	1.168546	-0.073346	0.292792
Cl45	Cl	1.557128	0.092246	0.710498
H46	H	1.359510	0.274284	0.986431
