data_functionalizedCrystal
_audit_creation_method	'MofGen! by Chris Wilmer'
_symmetry_space_group_name_H-M	'P1'
_symmetry_Int_Tables_number	1
_symmetry_cell_setting	triclinic
loop_
_symmetry_equiv_pos_as_xyz
  x,y,z
_cell_length_a	19.902436
_cell_length_b	14.446369
_cell_length_c	14.446369
_cell_angle_alpha	90.000001
_cell_angle_beta	60.003597
_cell_angle_gamma	120.002478
loop_
_atom_site_label
_atom_site_type_symbol
_atom_site_fract_x
_atom_site_fract_y
_atom_site_fract_z
Zr1	Zr	0.735516	0.121619	0.891743
O2	O	0.875684	0.269431	0.743946
O3	O	0.595339	0.076294	0.937048
O4	O	0.735512	0.269423	0.937052
O5	O	0.735518	-0.076026	0.743942
O6	O	0.735518	0.269431	1.089381
O7	O	0.735512	0.076302	0.743942
O8	O	0.484775	-0.076041	1.089374
O9	O	0.986261	0.269446	0.743949
O10	O	0.653004	0.056985	1.070055
O11	O	0.653004	-0.056702	0.956373
O12	O	0.818039	0.170682	0.956378
O13	O	0.818039	0.056995	0.842697
Zr14	Zr	0.735535	-0.121315	1.134690
Zr15	Zr	0.735526	0.121632	1.134690
Zr16	Zr	0.735526	-0.121328	0.891743
Zr17	Zr	0.911873	0.121643	0.891748
Zr18	Zr	0.559179	-0.121338	1.134685
O19	O	0.875712	-0.075989	1.089385
O20	O	0.875698	0.269450	1.089385
O21	O	0.875698	-0.076008	0.743946
O22	O	0.595367	-0.269127	1.282487
O23	O	0.595353	0.076312	1.282487
O24	O	0.595353	-0.269145	0.937048
O25	O	0.735533	0.076331	1.282491
O26	O	0.735539	-0.269118	1.089380
O27	O	0.735533	-0.269126	0.937052
O28	O	0.735539	-0.075998	1.282491
O29	O	0.986268	0.269456	0.937060
O30	O	0.484783	-0.269152	1.089373
O31	O	0.484791	-0.269141	1.282484
O32	O	0.484783	-0.076031	1.282484
O33	O	0.986268	0.076336	0.743949
O34	O	0.986276	0.076346	0.937059
O35	O	0.653013	-0.170378	1.070054
O36	O	0.653013	-0.056690	1.183736
O37	O	0.818048	0.057007	1.070060
O38	O	0.818048	-0.056680	0.956378
C39	C	0.514930	0.000123	1.013210
C40	C	0.440062	0.000113	1.013208
C41	C	0.735514	0.304042	1.013217
C42	C	0.735509	0.407179	1.013217
C43	C	0.735538	-0.303737	1.013216
C44	C	0.735542	-0.406874	1.013216
C45	C	0.168052	0.000166	1.013219
C46	C	0.196291	-0.071897	0.941854
C47	C	0.274409	-0.071600	0.941467
C48	C	0.302999	0.000139	1.013214
C49	C	0.338556	0.123674	0.960914
C50	C	0.260718	0.123294	0.960377
C51	C	0.133544	-0.050315	1.136920
C52	C	0.210596	-0.052830	1.136739
C53	C	0.379268	0.000130	1.013211
C54	C	0.091788	0.000183	1.013218
C55	C	0.956121	0.000182	1.013223
C56	C	1.030989	0.000192	1.013225
C57	C	0.735514	0.000136	0.709327
C58	C	0.735509	0.000131	0.606190
C59	C	0.631433	0.482151	1.085270
C60	C	0.631363	0.374823	1.084958
C61	C	0.787207	0.481739	0.889695
C62	C	0.786546	0.588598	0.890090
C63	C	0.788697	0.590181	1.063688
C64	C	0.786735	0.481509	1.066188
C65	C	0.631433	-0.071206	0.531204
C66	C	0.631363	-0.071615	0.638533
C67	C	0.787214	-0.052161	0.531631
C68	C	0.786553	-0.052677	0.424773
C69	C	0.788690	0.123874	0.423199
C70	C	0.786728	0.123671	0.531871
C71	C	0.735538	0.000169	1.317106
C72	C	0.735542	0.000174	1.420243
C73	C	0.514942	0.000139	1.317100
C74	C	0.440078	0.000135	1.420235
C75	C	0.514942	-0.303767	1.013210
C76	C	0.440078	-0.406914	1.013207
C77	C	0.514954	-0.303750	1.317099
C78	C	0.440095	-0.406892	1.420234
C79	C	0.956097	0.304055	0.709334
C80	C	1.030957	0.407197	0.606199
C81	C	0.956109	0.000165	0.709333
C82	C	1.030973	0.000170	0.606198
C83	C	0.956109	0.304071	1.013223
C84	C	1.030973	0.407218	1.013226
C85	C	0.404917	0.059480	1.409328
C86	C	0.334584	0.059498	1.506225
C87	C	0.299409	0.000164	1.614028
C88	C	0.334578	-0.059183	1.624933
C89	C	0.404914	-0.059194	1.528037
C90	C	0.404926	-0.514700	1.072547
C91	C	0.334594	-0.611627	1.072540
C92	C	0.299409	-0.600766	1.013200
C93	C	0.334568	-0.492968	0.953854
C94	C	0.404905	-0.396043	0.953854
C95	C	0.404940	-0.395985	1.528018
C96	C	0.334611	-0.492888	1.624934
C97	C	0.299433	-0.600698	1.614063
C98	C	0.334595	-0.611603	1.506267
C99	C	0.404928	-0.514700	1.409354
C100	C	1.066120	0.396289	0.498415
C101	C	1.136471	0.493193	0.401499
C102	C	1.171652	0.601002	0.412370
C103	C	1.136486	0.611907	0.520166
C104	C	1.066141	0.515005	0.617079
C105	C	1.066142	-0.059165	0.617105
C106	C	1.136494	-0.059157	0.520208
C107	C	1.171671	0.000181	0.412405
C108	C	1.136499	0.059523	0.401500
C109	C	1.066153	0.059521	0.498396
C110	C	1.066135	0.396320	1.072577
C111	C	1.136468	0.493229	1.072601
C112	C	1.171643	0.601034	1.013267
C113	C	1.136474	0.611930	0.953914
C114	C	1.066137	0.515023	0.953897
H115	H	0.247768	-0.162567	0.976548
H116	H	0.305928	-0.107490	1.712719
H117	H	1.228931	0.679897	0.333448
H118	H	0.131790	-0.163093	0.976749
N119	N	0.223535	-0.705308	1.013218
H120	H	0.248004	-0.705370	0.932855
H121	H	0.206634	-0.775179	1.059873
H122	H	1.037506	0.308548	1.120894
N123	N	0.888648	0.517850	0.815496
H124	H	0.920510	0.565692	0.736506
H125	H	0.923952	0.563521	0.848179
H126	H	0.433534	-0.107527	1.536933
N127	N	0.577297	-0.192494	0.709764
H128	H	0.620682	-0.202674	0.718564
H129	H	0.521562	-0.210016	0.786931
H130	H	1.165139	0.699697	0.529004
N131	N	0.442864	-0.526432	1.136556
H132	H	0.409917	-0.609429	1.174138
H133	H	0.513477	-0.488798	1.082070
H134	H	0.749033	0.430092	1.157194
H135	H	1.228916	0.679933	1.013290
N136	N	0.223541	0.000180	1.718526
H137	H	0.165166	-0.080190	1.765169
H138	H	0.248097	0.034013	1.765087
N139	N	1.174417	0.728209	0.889920
H140	H	1.224313	0.787937	0.898940
H141	H	1.203558	0.737193	0.806931
N142	N	0.296666	0.123513	1.494437
H143	H	0.267478	0.092365	1.451632
H144	H	0.246811	0.114514	1.572207
H145	H	0.305975	-0.699391	1.120871
N146	N	0.359794	-0.025236	0.820608
H147	H	0.346776	-0.004903	0.767376
H148	H	0.416919	0.044674	0.810535
N149	N	0.442843	0.123477	1.293063
H150	H	0.472032	0.206496	1.283982
H151	H	0.492698	0.114381	1.233397
N152	N	0.736810	0.175433	0.599992
H153	H	0.668671	0.127940	0.624986
H154	H	0.738315	0.178145	0.668831
N155	N	0.890288	0.693787	0.994506
H156	H	0.901866	0.742421	0.930786
H157	H	0.902248	0.738702	1.044635
H158	H	0.749814	-0.143703	0.425041
N159	N	0.744551	0.181738	0.417758
H160	H	0.720743	0.203514	0.487937
H161	H	0.793720	0.252068	0.348340
H162	H	0.305911	-0.484141	0.905541
H163	H	1.228952	0.000173	0.333515
H164	H	0.433516	-0.308282	0.905537
N165	N	1.028196	0.280023	0.486659
H166	H	1.040436	0.237173	0.524228
H167	H	0.957598	0.237251	0.524190
N168	N	1.174381	0.481424	0.285241
H169	H	1.244989	0.518971	0.242383
H170	H	1.141341	0.398403	0.293159
H171	H	0.305989	-0.483989	1.712696
N172	N	0.442864	-0.279713	1.539760
H173	H	0.409914	-0.287524	1.622753
H174	H	0.513479	-0.236905	1.502135
N175	N	1.028214	0.526777	0.733330
H176	H	1.061178	0.609780	0.725500
H177	H	0.957604	0.489162	0.776114
H178	H	1.037516	0.523912	0.905561
H179	H	0.862709	0.181325	0.506353
H180	H	0.862715	0.507032	1.019163
N181	N	0.299819	0.176776	0.839801
H182	H	0.367358	0.200380	0.787498
H183	H	0.259517	0.120126	0.817442
N184	N	0.223574	-0.705209	1.718595
H185	H	0.206645	-0.681930	1.788522
H186	H	0.165249	-0.751818	1.718547
H187	H	1.165095	0.484335	1.120932
H188	H	0.305943	-0.699394	1.497433
N189	N	0.442837	-0.526473	1.293103
H190	H	0.409873	-0.609476	1.300933
H191	H	0.430581	-0.488867	1.250315
N192	N	0.366182	0.197839	1.026509
H193	H	0.418908	0.201122	1.024223
H194	H	0.388757	0.276804	0.991402
H195	H	1.037506	-0.107493	0.704875
N196	N	1.174419	-0.123166	0.531984
H197	H	1.141449	-0.160763	0.614982
H198	H	1.162184	-0.182826	0.494359
H199	H	1.165152	0.107834	0.313714
H200	H	1.037521	0.107836	0.489500
N201	N	0.737863	0.588228	0.836583
H202	H	0.680478	0.587062	0.893158
H203	H	0.783522	0.658584	0.767776
N204	N	0.427290	0.177584	0.841482
H205	H	0.481223	0.248039	0.836247
H206	H	0.444521	0.122122	0.821126
N207	N	0.043442	-0.168981	1.194788
H208	H	0.024078	-0.191219	1.141396
H209	H	0.054814	-0.223494	1.216581
H210	H	0.222245	-0.037193	0.851147
H211	H	0.244770	0.179903	1.009000
H212	H	0.590532	0.321029	1.049953
N213	N	0.172572	-0.173357	1.188502
H214	H	0.157055	-0.219758	1.141017
H215	H	0.222091	-0.173961	1.191210
N216	N	0.231258	0.009461	1.213116
H217	H	0.301122	0.073187	1.168526
H218	H	0.192617	0.041614	1.243757
H219	H	0.590801	0.320549	1.175915
N220	N	0.108570	0.018878	1.207687
H221	H	0.056116	0.017111	1.210716
H222	H	0.086499	-0.013988	1.287024
N223	N	0.577301	0.479042	1.206069
H224	H	0.619735	0.549539	1.215264
H225	H	0.519816	0.475611	1.224614
H226	H	0.862929	0.667185	0.833482
N227	N	0.577560	0.480769	1.039344
H228	H	0.620300	0.551714	0.972067
H229	H	0.555959	0.411960	1.015024
N230	N	0.739644	0.413388	0.835783
H231	H	0.684620	0.334143	0.891164
H232	H	0.715517	0.450771	0.814736
H233	H	0.755384	0.594298	1.153273
H234	H	0.590811	-0.036525	0.692796
H235	H	0.590777	-0.161908	0.532235
N236	N	0.577297	-0.024984	0.534317
H237	H	0.619728	0.042673	0.463828
H238	H	0.519811	-0.085632	0.537741
H239	H	0.862937	-0.004045	0.346195
N240	N	0.890281	0.194658	0.319606
H241	H	0.901863	0.146892	0.270970
H242	H	0.902237	0.261262	0.274696
H243	H	0.863790	-0.002678	0.504403
H244	H	0.751306	-0.142328	0.583233
