data_functionalizedCrystal
_audit_creation_method	'MofGen! by Chris Wilmer'
_symmetry_space_group_name_H-M	'P1'
_symmetry_Int_Tables_number	1
_symmetry_cell_setting	triclinic
loop_
_symmetry_equiv_pos_as_xyz
  x,y,z
_cell_length_a	11.792254
_cell_length_b	11.295501
_cell_length_c	12.837942
_cell_angle_alpha	94.169788
_cell_angle_beta	90.486231
_cell_angle_gamma	85.425416
loop_
_atom_site_label
_atom_site_type_symbol
_atom_site_fract_x
_atom_site_fract_y
_atom_site_fract_z
O1	O	-1.528825	0.099059	0.148504
O2	O	-1.199970	0.099054	0.163142
O3	O	-1.357105	0.099049	0.004879
O4	O	-1.371690	0.099064	0.306768
O5	O	-1.342094	-0.099002	-0.007668
O6	O	-1.184959	-0.098997	0.150596
O7	O	-1.513814	-0.098992	0.135958
Cu8	Cu	-1.348016	-0.117079	0.142131
Cu9	Cu	-1.365769	0.117140	0.156969
O10	O	-1.356679	-0.098988	0.294221
C11	C	-1.150080	0.000028	0.155947
C12	C	-1.023787	0.000026	0.153187
N13	N	-1.335538	-0.281816	0.131695
C14	C	-0.921224	0.000028	0.150944
C15	C	-0.792552	0.000026	0.148140
C16	C	-0.563704	0.000031	0.143153
C17	C	-0.689996	0.000024	0.145913
C18	C	-1.468073	-0.531099	0.242574
C19	C	-1.458651	-0.655763	0.234679
C20	C	-1.307278	-0.655810	0.108004
C21	C	-1.316700	-0.531146	0.115899
C22	C	-1.397099	-0.468795	0.183188
C23	C	-1.406515	-0.344128	0.191088
C24	C	-1.255147	-0.344178	0.064408
C25	C	-1.245725	-0.468842	0.056513
N26	N	-1.378255	0.281877	0.167397
C27	C	-1.344673	0.000024	-0.040043
C28	C	-1.329979	0.000026	-0.155203
C29	C	-1.506627	0.000053	-0.395160
C30	C	-1.492826	0.000055	-0.503364
C31	C	-1.288579	0.000040	-0.479816
C32	C	-1.302380	0.000038	-0.371612
C33	C	-1.411407	0.000043	-0.329289
C34	C	-1.425206	0.000032	-0.221083
C35	C	-1.220960	0.000026	-0.197537
C36	C	-1.207160	0.000027	-0.305741
C37	C	-1.369112	0.000040	0.339143
C38	C	-1.383806	0.000046	0.454304
H39	H	-1.533528	-0.480331	0.297373
O40	O	-1.101180	0.000076	-0.346684
C41	C	-1.020094	0.000032	-0.265340
H42	H	-1.062709	0.037525	-0.189281
H43	H	-0.949037	0.057527	-0.284720
H44	H	-0.982966	-0.094987	-0.256241
O45	O	-1.182608	-0.000111	-0.520823
C46	C	-1.116081	-0.102701	-0.493756
H47	H	-1.152542	-0.136912	-0.420713
H48	H	-1.024881	-0.079628	-0.477819
H49	H	-1.117023	-0.174517	-0.560848
H50	H	-1.595400	0.000046	-0.360700
H51	H	-1.241831	-0.706598	0.053209
H52	H	-1.143425	0.000008	-0.143893
H53	H	-1.471975	-0.293363	0.245882
H54	H	-1.570365	0.000067	-0.556993
H55	H	-1.516447	-0.706486	0.283037
H56	H	-1.180270	-0.519626	0.001725
H57	H	-1.197350	-0.293437	0.016057
O58	O	-1.531149	0.000254	-0.180001
C59	C	-1.597672	0.102822	-0.207122
H60	H	-1.539550	0.174505	-0.225433
H61	H	-1.655677	0.137260	-0.139121
H62	H	-1.651583	0.079642	-0.278741
