data_functionalizedCrystal
_audit_creation_method	'MofGen! by Chris Wilmer'
_symmetry_space_group_name_H-M	'P1'
_symmetry_Int_Tables_number	1
_symmetry_cell_setting	triclinic
loop_
_symmetry_equiv_pos_as_xyz
  x,y,z
_cell_length_a	15.944499
_cell_length_b	23.532407
_cell_length_c	22.610064
_cell_angle_alpha	89.991285
_cell_angle_beta	89.981678
_cell_angle_gamma	83.163143
loop_
_atom_site_label
_atom_site_type_symbol
_atom_site_fract_x
_atom_site_fract_y
_atom_site_fract_z
O1	O	1.113947	0.073308	-0.049226
O2	O	0.869315	0.082394	-0.049220
O3	O	0.999008	-0.005053	-0.049213
O4	O	0.984254	0.160755	-0.049234
O5	O	0.998969	-0.005052	0.049157
O6	O	0.869276	0.082395	0.049149
O7	O	1.113908	0.073309	0.049143
Zn8	Zn	0.991586	0.077852	0.064764
Zn9	Zn	0.991638	0.077851	-0.064841
O10	O	0.984215	0.160756	0.049135
C11	C	0.838004	0.082023	-0.000035
C12	C	0.744765	0.080907	-0.000032
C13	C	0.452801	0.131712	-0.000047
C14	C	0.514072	0.105302	-0.048546
C15	C	0.409163	0.076856	-0.000045
C16	C	0.514020	0.105288	0.048438
C17	C	0.574055	0.078849	-0.000038
C18	C	0.469206	0.050430	-0.048584
C19	C	0.469147	0.050424	0.048444
C20	C	0.530401	0.023974	-0.000067
C21	C	0.314172	0.075709	-0.000050
C22	C	0.669044	0.079992	-0.000037
C23	C	0.998613	-0.026270	-0.000026
C24	C	0.997483	-0.089491	-0.000022
C25	C	1.067148	-0.488333	-0.000056
C26	C	1.066099	-0.547737	-0.000060
O27	O	1.130679	-0.584240	-0.000084
N28	N	0.988996	-0.570653	-0.000058
C29	C	0.912938	-0.534160	-0.000057
O30	O	0.847260	-0.559106	-0.000056
C31	C	0.913989	-0.474757	-0.000057
C32	C	0.991096	-0.451845	-0.000053
C33	C	1.144249	-0.465421	-0.000053
C34	C	1.145298	-0.406021	-0.000047
C35	C	1.069246	-0.369533	-0.000045
C36	C	0.992145	-0.392445	-0.000048
C37	C	0.837931	-0.438266	-0.000061
C38	C	0.838988	-0.378859	-0.000061
C39	C	0.916096	-0.355948	-0.000057
C40	C	0.917142	-0.296557	-0.000040
N41	N	0.994244	-0.273642	-0.000042
C42	C	1.070296	-0.310130	-0.000045
C43	C	0.910739	-0.658911	-0.000059
C44	C	0.909688	-0.718313	-0.000055
C45	C	1.062848	-0.731886	-0.000059
C46	C	1.063899	-0.672483	-0.000059
C47	C	0.987841	-0.635996	-0.000061
C48	C	1.072493	-0.185385	-0.000032
C49	C	1.073536	-0.125979	-0.000024
C50	C	0.920375	-0.112411	-0.000023
C51	C	0.919333	-0.171812	-0.000028
C52	C	0.995398	-0.208298	-0.000035
O53	O	0.852596	-0.260020	-0.000019
O54	O	1.135963	-0.285176	-0.000053
C55	C	1.145219	0.073680	-0.000044
C56	C	1.238458	0.074796	-0.000050
C57	C	0.984611	0.181973	-0.000052
C58	C	0.985740	0.245194	-0.000061
N59	N	0.991557	0.077852	0.153217
C60	C	1.042285	0.112407	0.561852
C61	C	1.042294	0.112406	0.623772
O62	O	1.085395	0.141779	0.655786
N63	N	0.991645	0.077851	0.654754
C64	C	0.940988	0.043290	0.623812
O65	O	0.897908	0.013897	0.655850
C66	C	0.940984	0.043288	0.561894
C67	C	0.991630	0.077850	0.530915
C68	C	1.092928	0.146965	0.530874
C69	C	1.092917	0.146967	0.468958
C70	C	1.042262	0.112410	0.438021
C71	C	0.991619	0.077851	0.468999
C72	C	0.890332	0.008724	0.530953
C73	C	0.890332	0.008725	0.469030
C74	C	0.940979	0.043287	0.438052
C75	C	0.940953	0.043296	0.376147
N76	N	0.991603	0.077851	0.345165
C77	C	1.042258	0.112408	0.376102
C78	C	0.941003	0.043295	0.753846
C79	C	0.941003	0.043300	0.815764
C80	C	1.042310	0.112415	0.815719
C81	C	1.042306	0.112413	0.753800
C82	C	0.991653	0.077850	0.722864
C83	C	1.042230	0.112409	0.246075
C84	C	1.042212	0.112409	0.184154
C85	C	0.940908	0.043292	0.184204
C86	C	0.940922	0.043294	0.246119
C87	C	0.991590	0.077854	0.277053
O88	O	0.897877	0.013936	0.344094
O89	O	1.085339	0.141790	0.344056
N90	N	0.991661	0.077855	0.846706
H91	H	0.449439	0.027250	-0.089632
Br92	Br	1.168547	-0.641395	-0.000053
Br93	Br	1.161639	0.193886	0.426925
H94	H	0.533991	0.128506	-0.089552
H95	H	0.777051	-0.349153	-0.000064
H96	H	0.419087	0.177237	-0.000100
Br97	Br	1.111059	0.159313	0.857717
H98	H	0.563962	-0.021592	-0.000087
Br99	Br	1.161683	0.193870	0.572848
H100	H	1.206184	-0.495124	-0.000057
H101	H	0.449209	0.027241	0.089453
H102	H	0.533883	0.128500	0.089438
Br103	Br	1.178188	-0.094889	-0.000019
H104	H	1.208087	-0.387372	-0.000047
H105	H	1.134434	-0.215086	-0.000040
H106	H	1.124774	-0.761606	-0.000063
Br107	Br	0.872249	-0.003597	0.857798
Br108	Br	0.821591	-0.038183	0.572980
H109	H	0.846899	-0.736962	-0.000048
H110	H	0.848799	-0.629205	-0.000056
Br111	Br	0.872177	-0.003605	0.288163
Br112	Br	0.872244	-0.003610	0.711868
H113	H	0.849084	-0.019421	0.443845
Br114	Br	0.814686	-0.202907	-0.000020
Br115	Br	0.733279	-0.469344	-0.000068
H116	H	0.858456	-0.082692	-0.000019
Br117	Br	1.110942	0.159323	0.142115
Br118	Br	1.110994	0.159312	0.288047
H119	H	1.083546	0.140557	0.728582
H120	H	0.899664	0.015158	0.159004
