data_functionalizedCrystal
_audit_creation_method	'MofGen! by Chris Wilmer'
_symmetry_space_group_name_H-M	'P1'
_symmetry_Int_Tables_number	1
_symmetry_cell_setting	triclinic
loop_
_symmetry_equiv_pos_as_xyz
  x,y,z
_cell_length_a	10.967926
_cell_length_b	10.268362
_cell_length_c	11.026607
_cell_angle_alpha	90.004351
_cell_angle_beta	83.619246
_cell_angle_gamma	102.128526
loop_
_atom_site_label
_atom_site_type_symbol
_atom_site_fract_x
_atom_site_fract_y
_atom_site_fract_z
O1	O	1.693971	0.271885	-0.170499
O2	O	2.027304	0.605218	0.162834
O3	O	2.360638	0.938552	0.496167
O4	O	1.334345	0.191171	-0.186826
O5	O	1.667678	0.524505	0.146507
O6	O	2.001012	0.857838	0.479840
O7	O	1.484353	0.224843	-0.001762
O8	O	1.817686	0.558177	0.331571
O9	O	2.151019	0.891510	0.664904
O10	O	1.543963	0.238213	-0.355564
O11	O	1.877297	0.571546	-0.022230
O12	O	2.210630	0.904880	0.311103
O13	O	1.484348	0.441443	-0.001751
O14	O	1.817681	0.774776	0.331582
O15	O	2.151014	1.108110	0.664915
O16	O	1.334340	0.407771	-0.186816
O17	O	1.667674	0.741104	0.146518
O18	O	2.001007	1.074437	0.479851
O19	O	1.693966	0.488485	-0.170489
O20	O	2.027300	0.821818	0.162845
O21	O	2.360633	1.155151	0.496178
Cu22	Cu	1.514153	0.467905	-0.178651
Cu23	Cu	1.847486	0.801238	0.154682
Cu24	Cu	2.180819	1.134572	0.488016
Cu25	Cu	1.514158	0.211751	-0.178664
Cu26	Cu	1.847492	0.545084	0.154669
Cu27	Cu	2.180825	0.878418	0.488003
O28	O	1.543959	0.454812	-0.355553
O29	O	1.877292	0.788146	-0.022220
O30	O	2.210625	1.121479	0.311114
C31	C	1.287587	0.288977	-0.185634
C32	C	1.620920	0.622311	0.147699
C33	C	1.954254	0.955644	0.481033
C34	C	1.148267	0.257709	-0.182082
C35	C	1.481600	0.591042	0.151251
C36	C	1.814934	0.924375	0.484585
C37	C	1.086151	0.355973	-0.180493
C38	C	1.419485	0.689306	0.152840
C39	C	1.752818	1.022640	0.486174
C40	C	0.942157	0.323658	-0.176822
C41	C	1.275490	0.656991	0.156511
C42	C	1.608823	0.990324	0.489845
N43	N	1.514161	0.031586	-0.178664
N44	N	1.847495	0.364919	0.154669
N45	N	2.180828	0.698252	0.488003
C46	C	1.514156	-0.234086	-0.178657
C47	C	1.847490	0.099247	0.154676
C48	C	2.180823	0.432581	0.488010
C49	C	1.514156	-0.086248	-0.178665
C50	C	1.847490	0.247085	0.154668
C51	C	2.180823	0.580419	0.488002
C52	C	1.740724	0.390676	-0.171681
C53	C	2.074058	0.724009	0.161652
C54	C	2.407391	1.057342	0.494986
C55	C	1.880044	0.421936	-0.175233
C56	C	2.213377	0.755269	0.158100
C57	C	2.546711	1.088603	0.491434
C58	C	1.473353	0.330673	0.043545
C59	C	1.806686	0.664007	0.376879
C60	C	2.140020	0.997340	0.710212
C61	C	1.440570	0.323311	0.178532
C62	C	1.773903	0.656644	0.511865
C63	C	2.107237	0.989978	0.845199
N64	N	1.514158	0.648072	-0.178641
N65	N	1.847491	0.981405	0.154692
N66	N	2.180824	1.314739	0.488025
C67	C	1.554958	0.348980	-0.400861
C68	C	1.888292	0.682313	-0.067527
C69	C	2.221625	1.015646	0.265806
C70	C	1.587741	0.356333	-0.535847
C71	C	1.921075	0.689667	-0.202514
C72	C	2.254408	1.023000	0.130820
C73	C	1.531089	0.343625	0.251585
C74	C	1.864423	0.676959	0.584919
C75	C	2.197756	1.010292	0.918252
C76	C	1.497209	0.336016	0.391101
C77	C	1.830542	0.669350	0.724435
C78	C	2.163875	1.002683	1.057768
H79	H	0.888738	0.215599	-0.175462
H80	H	1.222071	0.548932	0.157872
H81	H	1.555404	0.882265	0.491205
H82	H	0.933461	0.529995	-0.176586
H83	H	1.266794	0.863329	0.156747
H84	H	1.600128	1.196662	0.490081
H85	H	1.094843	0.149657	-0.180722
H86	H	1.428177	0.482990	0.152612
H87	H	1.761510	0.816324	0.485945
Br88	Br	1.326223	0.297622	0.458991
Br89	Br	1.659556	0.630955	0.792324
Br90	Br	1.992890	0.964288	1.125657
H91	H	1.633669	0.366656	0.210841
H92	H	1.967002	0.699989	0.544175
H93	H	2.300335	1.033323	0.877508
H94	H	1.690328	0.379260	0.423416
H95	H	2.023661	0.712593	0.756750
H96	H	2.356994	1.045927	1.090083
H97	H	1.337991	0.300280	0.219276
H98	H	1.671324	0.633613	0.552609
H99	H	2.004657	0.966946	0.885943
H100	H	1.139574	0.464024	-0.181843
H101	H	1.472908	0.797358	0.151490
H102	H	1.806241	1.130691	0.484823
