data_functionalizedCrystal
_audit_creation_method	'MofGen! by Chris Wilmer'
_symmetry_space_group_name_H-M	'P1'
_symmetry_Int_Tables_number	1
_symmetry_cell_setting	triclinic
loop_
_symmetry_equiv_pos_as_xyz
  x,y,z
_cell_length_a	14.044220
_cell_length_b	14.044220
_cell_length_c	7.088929
_cell_angle_alpha	83.206932
_cell_angle_beta	96.777923
_cell_angle_gamma	93.188878
loop_
_atom_site_label
_atom_site_type_symbol
_atom_site_fract_x
_atom_site_fract_y
_atom_site_fract_z
O1	O	1.268208	0.239142	-0.158795
O2	O	1.768208	0.739142	0.341205
O3	O	0.991534	0.230839	-0.158843
O4	O	1.491534	0.730839	0.341157
O5	O	1.125719	0.096654	-0.158800
O6	O	1.625719	0.596654	0.341200
O7	O	1.134023	0.373327	-0.158837
O8	O	1.634023	0.873327	0.341163
O9	O	1.143648	0.078677	0.159180
O10	O	1.643648	0.578677	0.659180
O11	O	1.009463	0.212862	0.159138
O12	O	1.509463	0.712862	0.659138
O13	O	1.286137	0.221165	0.159186
O14	O	1.786137	0.721165	0.659186
Cu15	Cu	1.149437	0.215372	0.188196
Cu16	Cu	1.649437	0.715372	0.688196
Cu17	Cu	1.128234	0.236632	-0.187853
Cu18	Cu	1.628234	0.736632	0.312147
O19	O	1.151952	0.355351	0.159144
O20	O	1.651952	0.855351	0.659144
C21	C	0.964876	0.218215	0.000142
C22	C	1.464876	0.718215	0.500142
C23	C	0.858732	0.207372	0.000124
C24	C	1.358732	0.707372	0.500124
C25	C	1.131048	0.052044	0.000190
C26	C	1.631048	0.552044	0.500190
C27	C	1.120203	-0.054099	0.000191
C28	C	1.620203	0.445901	0.500191
C29	C	0.664397	0.187543	0.000164
C30	C	1.164397	0.687543	0.500164
C31	C	0.613267	0.264458	0.000162
C32	C	1.113267	0.764458	0.500162
C33	C	0.505132	0.253425	0.000185
C34	C	1.005132	0.753425	0.500185
C35	C	0.772542	0.198575	0.000142
C36	C	1.272542	0.698575	0.500142
C37	C	1.100375	-0.248435	0.000160
C38	C	1.600375	0.251565	0.500160
C39	C	1.177290	-0.299565	0.000167
C40	C	1.677290	0.200435	0.500167
C41	C	1.166258	-0.407701	0.000150
C42	C	1.666258	0.092299	0.500150
C43	C	1.111407	-0.140290	0.000177
C44	C	1.611407	0.359710	0.500177
C45	C	1.312794	0.233789	0.000198
C46	C	1.812794	0.733789	0.500198
C47	C	1.418937	0.244633	0.000203
C48	C	1.918937	0.744633	0.500203
C49	C	1.146623	0.399961	0.000149
C50	C	1.646623	0.899961	0.500149
C51	C	1.157466	0.506104	0.000136
C52	C	1.657466	1.006104	0.500136
N53	N	1.164357	0.200419	0.452689
N54	N	1.664357	0.700419	0.952689
N55	N	1.113321	0.251578	-0.452345
N56	N	1.613321	0.751578	0.047655
H57	H	0.626961	0.113415	0.000185
H58	H	1.126961	0.613415	0.500185
C59	C	1.042645	0.322193	0.439021
C60	C	1.542645	0.822193	0.939021
C61	C	0.950221	0.296144	0.487626
C62	C	1.450221	0.796144	0.987626
C63	C	0.885091	0.361180	0.387597
C64	C	1.385091	0.861180	0.887597
H65	H	1.043534	0.321222	0.305486
H66	H	1.543534	0.821222	0.805486
H67	H	1.060265	0.384954	0.471764
H68	H	1.560265	0.884954	0.971764
H69	H	0.932606	0.233399	0.454870
H70	H	1.432606	0.733399	0.954870
H71	H	0.949301	0.297120	0.621144
H72	H	1.449301	0.797120	1.121144
H73	H	0.902711	0.423942	0.420340
H74	H	1.402711	0.923942	0.920340
H75	H	0.885988	0.360205	0.254067
H76	H	1.385988	0.860205	0.754067
H77	H	0.822376	0.343521	0.420575
H78	H	1.322376	0.843521	0.920575
H79	H	1.217261	0.147409	0.534362
H80	H	1.717261	0.647409	1.034362
H81	H	1.026247	-0.285871	0.000142
H82	H	1.526247	0.214129	0.500142
C83	C	0.663346	0.363238	-0.000018
C84	C	1.163346	0.863238	0.499982
C85	C	0.762194	0.354695	-0.000108
C86	C	1.262194	0.854695	0.499892
C87	C	0.808358	0.445669	-0.000327
C88	C	1.308358	0.945669	0.499673
H89	H	0.651783	0.390778	0.110817
H90	H	1.151783	0.890778	0.610817
H91	H	0.639181	0.403203	-0.110972
H92	H	1.139181	0.903203	0.389028
H93	H	0.786351	0.314744	0.110834
H94	H	1.286351	0.814744	0.610834
H95	H	0.773785	0.327171	-0.110935
H96	H	1.273785	0.827171	0.389065
H97	H	0.784193	0.485634	-0.111281
H98	H	1.284193	0.985634	0.388719
H99	H	0.796788	0.473202	0.110509
H100	H	1.296788	0.973202	0.610509
H101	H	0.875429	0.439885	-0.000406
H102	H	1.375429	0.939885	0.499594
H103	H	1.251417	-0.262120	0.000052
H104	H	1.751417	0.237880	0.500052
