data_functionalizedCrystal
_audit_creation_method	'MofGen! by Chris Wilmer'
_symmetry_space_group_name_H-M	'P1'
_symmetry_Int_Tables_number	1
_symmetry_cell_setting	triclinic
loop_
_symmetry_equiv_pos_as_xyz
  x,y,z
_cell_length_a	18.627384
_cell_length_b	18.627297
_cell_length_c	18.627226
_cell_angle_alpha	90.002030
_cell_angle_beta	120.002517
_cell_angle_gamma	59.999718
loop_
_atom_site_label
_atom_site_type_symbol
_atom_site_fract_x
_atom_site_fract_y
_atom_site_fract_z
O1	O	-0.513845	0.492484	-1.125729
O2	O	-0.366836	0.388087	-0.874324
O3	O	-0.513842	0.388087	-1.021327
O4	O	-0.366839	0.492484	-0.978726
O5	O	-0.633243	0.507491	-1.021327
O6	O	-0.486236	0.507491	-0.874324
O7	O	-0.633246	0.611888	-1.125729
Cu8	Cu	-0.570643	0.570592	-1.000026
Cu9	Cu	-0.429438	0.429383	-1.000027
O10	O	-0.486239	0.611887	-0.978726
C11	C	-0.644053	0.612982	-1.387035
C12	C	-0.593658	0.568680	-1.431336
C13	C	-0.731060	0.699381	-1.430441
C14	C	-0.644048	0.612986	-1.257031
C15	C	-0.593647	0.568687	-1.162332
C16	C	-0.731055	0.699385	-1.300634
C17	C	-0.774052	0.742985	-1.387035
C18	C	-0.862654	0.837682	-1.431337
C19	C	-0.601253	0.569579	-1.300634
C20	C	-0.356044	0.742990	-0.969031
C21	C	-0.406442	0.837687	-0.975127
C22	C	-0.269038	0.699388	-0.968423
C23	C	-0.356043	0.612988	-0.969031
C24	C	-0.406439	0.568688	-0.975127
C25	C	-0.269037	0.569584	-0.968423
C26	C	-0.226043	0.612989	-0.969031
C27	C	-0.137443	0.568689	-0.975127
C28	C	-0.398840	0.699387	-0.968423
C29	C	-0.774040	0.386988	-1.031022
C30	C	-0.862640	0.431289	-1.024925
C31	C	-0.731046	0.300589	-1.031630
C32	C	-0.644040	0.386987	-1.031022
C33	C	-0.593643	0.431287	-1.024926
C34	C	-0.601243	0.300588	-1.031630
C35	C	-0.644040	0.256987	-1.031022
C36	C	-0.593643	0.162290	-1.024926
C37	C	-0.731046	0.430392	-1.031630
O38	O	0.104359	0.388089	-1.021327
O39	O	-0.104439	0.492486	-0.978726
O40	O	-0.104445	0.492486	-1.125729
O41	O	0.104365	0.388089	-0.874324
O42	O	-0.104448	0.611889	-1.125729
O43	O	-0.104442	0.611889	-0.978726
O44	O	0.104356	0.507492	-1.021327
Cu45	Cu	-0.000043	0.570593	-1.000026
Cu46	Cu	-0.000040	0.429385	-1.000026
O47	O	0.104362	0.507492	-0.874324
O48	O	-1.104434	1.125689	-1.492529
O49	O	-0.895654	0.874285	-1.388137
O50	O	-0.895630	1.021272	-1.388126
O51	O	-1.104458	0.978702	-1.492539
O52	O	-0.895635	1.021269	-1.507531
O53	O	-0.895660	0.874282	-1.507542
O54	O	-1.104439	1.125686	-1.611934
Cu55	Cu	-1.000050	0.999984	-1.570640
Cu56	Cu	-1.000044	0.999988	-1.429430
O57	O	-1.104464	0.978699	-1.611944
O58	O	-0.513841	1.125687	-1.021327
O59	O	-0.366841	0.874288	-0.978726
O60	O	-0.513846	1.021286	-1.125729
O61	O	-0.366837	0.978689	-0.874324
O62	O	-0.633248	1.021287	-1.125729
O63	O	-0.486243	0.874289	-0.978726
O64	O	-0.633244	1.125689	-1.021327
Cu65	Cu	-0.570646	0.999989	-1.000027
Cu66	Cu	-0.429439	0.999987	-1.000026
O67	O	-0.486239	0.978690	-0.874324
O68	O	-0.486243	0.507486	-1.611926
O69	O	-0.633256	0.611882	-1.507537
O70	O	-0.486240	0.611875	-1.507511
O71	O	-0.633258	0.507493	-1.611952
O72	O	-0.366847	0.492467	-1.388113
O73	O	-0.513862	0.492474	-1.388139
O74	O	-0.366849	0.388078	-1.492528
Cu75	Cu	-0.429454	0.429373	-1.429431
Cu76	Cu	-0.570651	0.570587	-1.570633
O77	O	-0.513864	0.388085	-1.492554
C78	C	-0.226047	0.256979	-0.613027
C79	C	-0.137449	0.162280	-0.568728
C80	C	-0.269043	0.300580	-0.569623
C81	C	-0.356043	0.386983	-0.743025
C82	C	-0.406437	0.431286	-0.837722
C83	C	-0.398841	0.430387	-0.699424
C84	C	-0.356047	0.386981	-0.613027
C85	C	-0.406445	0.431281	-0.568728
C86	C	-0.269038	0.300583	-0.699424
C87	C	-0.356059	0.742990	-1.387034
C88	C	-0.406435	0.837679	-1.431342
C89	C	-0.398884	0.699403	-1.430430
C90	C	-0.226066	0.612994	-1.257027
C91	C	-0.137454	0.568690	-1.162331
C92	C	-0.269089	0.569604	-1.300621
C93	C	-0.356105	0.613013	-1.387018
C94	C	-0.406531	0.568730	-1.431309
C95	C	-0.269043	0.699384	-1.300637
C96	C	0.355975	0.386999	-0.613019
C97	C	0.406370	0.431302	-0.568720
C98	C	0.398777	0.300600	-0.569612
C99	C	0.225972	0.386993	-0.743022
C100	C	0.137368	0.431290	-0.837721
C101	C	0.268972	0.300594	-0.699417
C102	C	0.355982	0.256995	-0.613016
C103	C	0.406384	0.162298	-0.568713
C104	C	0.268965	0.430400	-0.699420
C105	C	-0.643986	1.030906	-1.387008
C106	C	-0.593588	1.024800	-1.431309
C107	C	-0.601176	1.031502	-1.300603
C108	C	-0.774004	1.030936	-1.387016
C109	C	-0.862623	1.024861	-1.431324
C110	C	-0.730996	1.031531	-1.300610
C111	C	-0.643975	1.030903	-1.257002
C112	C	-0.593565	1.024794	-1.162299
C113	C	-0.731007	1.031534	-1.430419
O114	O	-0.633187	1.125675	-1.611954
O115	O	-0.486247	0.874289	-1.507543
O116	O	-0.633207	1.021319	-1.507533
O117	O	-0.486228	0.978645	-1.611964
O118	O	-0.513768	1.021298	-1.388139
O119	O	-0.366808	0.874268	-1.388148
O120	O	-0.513749	1.125654	-1.492559
Cu121	Cu	-0.429373	0.999959	-1.429452
Cu122	Cu	-0.570623	0.999984	-1.570650
O123	O	-0.366789	0.978624	-1.492569
C124	C	-1.356114	0.969063	-1.743067
C125	C	-1.406519	0.975166	-1.837769
C126	C	-1.398918	0.968470	-1.699468
C127	C	-1.226089	0.969036	-1.613055
C128	C	-1.137471	0.975110	-1.568746
C129	C	-1.269090	0.968443	-1.569653
C130	C	-1.356112	0.969071	-1.613065
C131	C	-1.406514	0.975183	-1.568767
C132	C	-1.269093	0.968435	-1.699458
H133	H	-0.767041	0.734383	-1.501431
H134	H	0.232973	0.501394	-0.734421
H135	H	-0.531156	1.032469	-1.265597
H136	H	-0.766983	1.032513	-1.265607
H137	H	-0.531236	0.498592	-1.265628
O138	O	-0.221366	0.745744	-1.254267
H139	H	-0.153521	0.700881	-1.186735
H140	H	-0.233057	0.498595	-0.967448
H141	H	-0.766983	1.032499	-1.501407
H142	H	-0.468850	0.734395	-0.967443
H143	H	-0.233054	0.265571	-0.498632
H144	H	-0.233048	0.734392	-0.967429
O145	O	-0.508511	0.254214	-1.032932
H146	H	-0.485835	0.299069	-1.033248
H147	H	0.468779	0.265606	-0.498615
O148	O	0.221315	0.254216	-0.745776
H149	H	0.153465	0.299069	-0.813309
O150	O	-0.778698	0.254212	-1.032920
H151	H	-0.846536	0.299062	-1.033222
H152	H	-1.233102	0.967468	-1.498663
O153	O	-0.221444	0.475582	-1.254239
H154	H	-0.277266	0.471757	-1.250761
H155	H	-0.468897	0.734412	-1.501422
O156	O	-0.221395	0.254230	-0.745811
H157	H	-0.142276	0.235023	-0.708820
O158	O	-0.778704	0.524425	-1.032928
H159	H	-0.846551	0.547418	-1.033243
H160	H	-0.767030	0.734390	-1.265623
H161	H	-1.468936	0.967500	-1.734481
H162	H	-0.468852	0.501377	-0.734433
H163	H	-1.233111	0.967450	-1.734467
