data_functionalizedCrystal
_audit_creation_method	'MofGen! by Chris Wilmer'
_symmetry_space_group_name_H-M	'P1'
_symmetry_Int_Tables_number	1
_symmetry_cell_setting	triclinic
loop_
_symmetry_equiv_pos_as_xyz
  x,y,z
_cell_length_a	19.288840
_cell_length_b	15.995292
_cell_length_c	17.766277
_cell_angle_alpha	89.996830
_cell_angle_beta	89.983415
_cell_angle_gamma	83.297316
loop_
_atom_site_label
_atom_site_type_symbol
_atom_site_fract_x
_atom_site_fract_y
_atom_site_fract_z
O1	O	0.921617	0.104355	-0.062715
O2	O	0.719388	0.118467	-0.062688
O3	O	0.826052	-0.010502	-0.062703
O4	O	0.814953	0.233323	-0.062699
O5	O	0.826033	-0.010508	0.062485
O6	O	0.719369	0.118461	0.062501
O7	O	0.921598	0.104348	0.062474
Cu8	Cu	0.820482	0.111404	0.073918
Cu9	Cu	0.820504	0.111411	-0.074132
O10	O	0.814935	0.233317	0.062489
C11	C	0.693501	0.118013	-0.000090
C12	C	0.616393	0.116661	-0.000080
C13	C	0.580198	0.116014	-0.068323
C14	C	0.507748	0.114734	-0.068332
C15	C	0.471498	0.114083	-0.000095
C16	C	0.507701	0.114734	0.068156
C17	C	0.580148	0.116023	0.068164
C18	C	0.362038	0.062994	0.052173
C19	C	0.289593	0.061701	0.052163
C20	C	0.248044	0.110112	-0.000115
C21	C	0.278952	0.159807	-0.052394
C22	C	0.351400	0.161096	-0.052387
C23	C	0.392940	0.112686	-0.000095
C24	C	0.133291	0.108079	-0.068372
C25	C	0.060839	0.106804	-0.068378
C26	C	0.060794	0.106796	0.068112
C27	C	0.133243	0.108079	0.068116
C28	C	0.169488	0.108717	-0.000127
C29	C	0.825591	-0.041699	-0.000111
C30	C	0.824236	-0.134646	-0.000116
C31	C	0.819258	-0.472366	-0.000109
C32	C	0.896245	-0.449352	0.000161
C33	C	0.897708	-0.352682	-0.000124
C34	C	0.821728	-0.304819	-0.000112
C35	C	0.783249	-0.333767	-0.071593
C36	C	0.782322	-0.430554	-0.071650
C37	C	0.780729	-0.430413	0.070713
C38	C	0.783582	-0.333931	0.071654
C39	C	0.823120	-0.210129	-0.000116
C40	C	0.817864	-0.567056	-0.000109
C41	C	0.947485	0.104802	-0.000125
C42	C	1.024593	0.106155	-0.000140
C43	C	0.815396	0.264514	-0.000105
C44	C	0.816750	0.357462	-0.000105
N45	N	0.820472	0.111398	0.178048
N46	N	0.820520	0.111411	-0.178262
C47	C	0.867717	0.054318	0.217428
C48	C	0.867721	0.054314	0.296230
C49	C	0.820486	0.111404	0.335649
C50	C	0.773231	0.168488	0.296259
C51	C	0.773224	0.168485	0.217459
C52	C	0.811372	0.187698	0.460489
C53	C	0.811384	0.187703	0.539287
C54	C	0.820505	0.111415	0.578695
C55	C	0.829628	0.035119	0.539294
C56	C	0.829620	0.035115	0.460494
C57	C	0.820489	0.111414	0.421094
C58	C	0.867758	0.054326	0.703521
C59	C	0.867757	0.054321	0.782324
C60	C	0.773270	0.168502	0.782352
C61	C	0.773268	0.168500	0.703550
C62	C	0.820515	0.111413	0.664140
H63	H	0.395862	0.023570	0.094747
H64	H	0.925762	-0.478482	-0.050822
H65	H	0.264434	0.021232	0.094728
O66	O	0.619193	0.116731	0.141770
H67	H	0.581817	0.116067	0.189220
H68	H	0.724061	-0.444183	0.071203
O69	O	0.812662	-0.467965	0.142484
H70	H	0.832623	-0.417748	0.176544
O71	O	0.817699	-0.466413	-0.142339
H72	H	0.863390	-0.511884	-0.126845
H73	H	0.837054	-0.027003	0.571378
O74	O	0.801549	0.269988	0.581783
H75	H	0.847948	0.275217	0.617655
H76	H	0.928038	-0.334392	-0.051462
H77	H	0.925911	-0.477467	0.051423
O78	O	0.918705	-0.007252	0.661005
H79	H	0.951551	-0.046956	0.701631
O80	O	0.709188	-0.291273	-0.075116
H81	H	0.709716	-0.222014	-0.077627
O82	O	0.707557	-0.449550	-0.075939
H83	H	0.700343	-0.486831	-0.127450
O84	O	0.818834	-0.307644	-0.142074
H85	H	0.863896	-0.274014	-0.126374
H86	H	0.478272	0.114209	-0.123905
O87	O	0.839447	-0.047167	0.417994
H88	H	0.845785	-0.100219	0.458628
O89	O	0.918724	-0.007237	0.824805
H90	H	0.951582	-0.046922	0.784158
O91	O	0.468469	0.114137	0.141676
H92	H	0.488452	0.057366	0.174518
H93	H	0.811600	-0.315477	0.124536
H94	H	0.734808	0.214983	0.814446
H95	H	0.376562	0.201561	-0.094954
H96	H	0.609704	0.116534	-0.123892
O97	O	0.710127	-0.289960	0.077407
H98	H	0.699610	-0.246484	0.028983
H99	H	0.906187	0.007833	0.185343
O100	O	0.918688	-0.007243	0.338720
H101	H	0.951544	-0.046934	0.298076
O102	O	0.722317	0.230074	0.661068
H103	H	0.689475	0.269778	0.701714
H104	H	0.927845	-0.333777	0.051115
O105	O	0.801540	0.269985	0.417986
H106	H	0.795210	0.323037	0.458620
H107	H	0.734771	0.214971	0.328358
H108	H	0.245124	0.199232	-0.094961
O109	O	0.172390	0.108782	-0.141972
H110	H	0.135045	0.108133	-0.189429
H111	H	0.734750	0.214967	0.185395
H112	H	0.031279	0.106271	0.123672
O113	O	0.021797	0.106077	-0.141985
H114	H	0.059177	0.106718	-0.189434
H115	H	0.162714	0.108600	0.123687
