data_functionalizedCrystal
_audit_creation_method	'MofGen! by Chris Wilmer'
_symmetry_space_group_name_H-M	'P1'
_symmetry_Int_Tables_number	1
_symmetry_cell_setting	triclinic
loop_
_symmetry_equiv_pos_as_xyz
  x,y,z
_cell_length_a	14.971486
_cell_length_b	13.930277
_cell_length_c	14.971487
_cell_angle_alpha	90.005378
_cell_angle_beta	96.385734
_cell_angle_gamma	90.001649
loop_
_atom_site_label
_atom_site_type_symbol
_atom_site_fract_x
_atom_site_fract_y
_atom_site_fract_z
O1	O	1.186949	0.079719	-0.116550
O2	O	0.926549	0.079745	-0.130509
O3	O	1.063728	0.079727	0.006671
O4	O	1.049770	0.079737	-0.253729
O5	O	1.063708	-0.079935	0.006650
O6	O	0.926529	-0.079917	-0.130530
O7	O	1.186929	-0.079943	-0.116571
Zn8	Zn	1.056726	-0.105280	-0.123554
Zn9	Zn	1.056752	0.105082	-0.123526
O10	O	1.049750	-0.079925	-0.253750
C11	C	0.893214	-0.000083	-0.129895
C12	C	0.793917	-0.000073	-0.128024
N13	N	1.056714	-0.248846	-0.123572
C14	C	0.736692	-0.000071	-0.208614
C15	C	0.643393	-0.000085	-0.206850
C16	C	0.607320	-0.000095	-0.124497
C17	C	0.664552	-0.000100	-0.043902
C18	C	0.757850	-0.000092	-0.045666
C19	C	0.470090	-0.000113	-0.040231
C20	C	0.376786	-0.000119	-0.038466
C21	C	0.355632	-0.000106	-0.201415
C22	C	0.448930	-0.000099	-0.203179
C23	C	0.506156	-0.000102	-0.122584
C24	C	1.111068	-0.701108	-0.177849
C25	C	1.002464	-0.701091	-0.069167
C26	C	1.002450	-0.600595	-0.069181
C27	C	1.056747	-0.550352	-0.123529
C28	C	1.111058	-0.600603	-0.177863
C29	C	0.948148	-0.550336	-0.014842
C30	C	0.948133	-0.449834	-0.014853
C31	C	1.002426	-0.399589	-0.069207
C32	C	1.056738	-0.449847	-0.123543
C33	C	1.111035	-0.399603	-0.177892
C34	C	1.165343	-0.449859	-0.232234
C35	C	1.165351	-0.550358	-0.232217
C36	C	1.002417	-0.299090	-0.069224
C37	C	1.111025	-0.299098	-0.177906
C38	C	1.220264	-0.000113	-0.117185
C39	C	1.319561	-0.000117	-0.119056
C40	C	1.063094	-0.000103	0.039985
C41	C	1.061223	-0.000101	0.139282
N42	N	1.056771	0.248648	-0.123501
C43	C	1.141812	-0.000108	0.196507
C44	C	1.140049	-0.000097	0.289807
C45	C	1.057695	-0.000084	0.325879
C46	C	0.977100	-0.000074	0.268646
C47	C	0.978864	-0.000078	0.175349
C48	C	0.973428	-0.000066	0.463109
C49	C	0.971664	-0.000064	0.556413
C50	C	1.134613	-0.000085	0.577567
C51	C	1.136377	-0.000090	0.484269
C52	C	1.055781	-0.000081	0.427043
C53	C	1.050384	-0.000088	0.712935
C54	C	1.052253	-0.000071	0.613638
H55	H	0.766054	-0.000063	-0.275675
H56	H	1.209555	-0.408937	-0.276480
H57	H	1.208873	-0.000124	0.167145
H58	H	0.903950	-0.591252	0.029413
O59	O	0.943901	-0.244857	-0.010588
H60	H	0.895871	-0.199057	-0.053366
H61	H	1.203436	-0.000107	0.454902
O62	O	0.337881	-0.000147	0.050359
H63	H	0.263391	-0.000144	0.038041
H64	H	1.205672	-0.000105	0.336396
H65	H	0.804443	-0.000093	0.019958
H66	H	0.516682	-0.000117	0.025399
H67	H	0.958264	-0.742006	-0.024913
H68	H	1.209568	-0.591285	-0.276457
O69	O	1.221545	-0.000085	0.639281
H70	H	1.206487	-0.000066	0.710217
O71	O	0.625652	-0.000118	0.044925
H72	H	0.583657	0.064958	0.049644
O73	O	0.581668	-0.000084	-0.293771
H74	H	0.622425	-0.000065	-0.351332
H75	H	0.904604	-0.000069	0.585779
H76	H	1.155236	-0.258196	-0.222168
O77	O	0.886503	-0.000066	0.401381
H78	H	0.828940	-0.000070	0.442136
O79	O	0.891942	-0.000083	0.113624
H80	H	0.852538	0.064992	0.126466
H81	H	1.155281	-0.742031	-0.222095
H82	H	0.309034	-0.000108	-0.267039
O83	O	0.888275	-0.000071	0.307552
H84	H	0.883582	0.064999	0.349567
O85	O	0.487843	-0.000101	-0.292000
H86	H	0.432378	-0.000114	-0.347747
O87	O	0.889552	-0.395630	0.043744
H88	H	0.851793	-0.447453	0.081532
