data_functionalizedCrystal
_audit_creation_method	'MofGen! by Chris Wilmer'
_symmetry_space_group_name_H-M	'P1'
_symmetry_Int_Tables_number	1
_symmetry_cell_setting	triclinic
loop_
_symmetry_equiv_pos_as_xyz
  x,y,z
_cell_length_a	18.101398
_cell_length_b	14.908520
_cell_length_c	14.908308
_cell_angle_alpha	96.360765
_cell_angle_beta	93.270575
_cell_angle_gamma	93.313158
loop_
_atom_site_label
_atom_site_type_symbol
_atom_site_fract_x
_atom_site_fract_y
_atom_site_fract_z
Zn1	Zn	-1.088443	0.390073	0.532768
Zn2	Zn	-1.088358	0.532718	0.390138
Zn3	Zn	-0.972187	0.381354	0.381404
Zn4	Zn	-0.956994	0.541367	0.541423
O5	O	-1.026495	0.461378	0.461433
O6	O	-1.192061	0.409024	0.513881
O7	O	-1.079271	0.505371	0.262320
O8	O	-0.994002	0.255847	0.394206
O9	O	-1.192000	0.513825	0.409091
O10	O	-1.079414	0.262253	0.505412
O11	O	-0.993920	0.394165	0.255904
O12	O	-0.866541	0.402551	0.402598
O13	O	-0.968108	0.528566	0.666934
O14	O	-0.855379	0.520112	0.520163
O15	O	-1.064682	0.417411	0.660576
O16	O	-1.064539	0.660529	0.417484
O17	O	-0.968026	0.666883	0.528632
C18	C	-0.834090	0.461325	0.461373
C19	C	-0.751776	0.461325	0.461370
C20	C	-1.014644	0.696550	0.474965
C21	C	-1.009640	0.797159	0.480784
C22	C	-1.014710	0.474926	0.697515
C23	C	-1.009687	0.480699	0.798118
C24	C	-0.452681	0.461364	0.461431
C25	C	-0.491004	0.387070	0.387785
C26	C	-0.576627	0.387248	0.387504
C27	C	-0.601066	0.461344	0.461400
C28	C	-0.566488	0.555188	0.440835
C29	C	-0.480887	0.554763	0.440324
C30	C	-0.480704	0.442653	0.555856
C31	C	-0.566487	0.440506	0.555215
C32	C	-0.684926	0.461338	0.461385
C33	C	-0.368820	0.461375	0.461445
C34	C	-0.219653	0.461414	0.461480
C35	C	-0.301970	0.461382	0.461462
C36	C	-1.038412	0.225289	0.447869
C37	C	-1.043490	0.124682	0.442089
C38	C	-1.100829	0.979542	0.376073
C39	C	-1.096130	1.074073	0.381538
C40	C	-0.995548	1.080754	0.497181
C41	C	-1.000246	0.986223	0.491717
C42	C	-1.052888	0.935620	0.431160
C43	C	-1.057583	0.841087	0.425691
C44	C	-0.957004	0.847770	0.541339
C45	C	-0.952306	0.942301	0.546804
C46	C	-1.038281	0.447818	0.226267
C47	C	-1.043460	0.441790	0.125649
C48	C	-1.100812	0.375781	0.980542
C49	C	-1.096096	0.381202	1.075068
C50	C	-0.995535	0.496958	1.081698
C51	C	-1.000252	0.491537	0.987172
C52	C	-1.052893	0.430947	0.936597
C53	C	-1.057612	0.425531	0.842070
C54	C	-0.957048	0.541282	0.848701
C55	C	-0.952332	0.546703	0.943227
H56	H	-0.600383	0.317485	0.399764
Br57	Br	-1.172256	0.910861	0.293874
Br58	Br	-0.880892	0.628925	1.011871
H59	H	-0.581704	0.611790	0.493040
H60	H	-0.590330	0.572105	0.372750
Br61	Br	-1.161129	0.306327	1.134706
H62	H	-0.473169	0.317078	0.399850
H63	H	-0.918030	0.586205	0.812911
Br64	Br	-0.924123	1.149446	0.579374
Br65	Br	-0.459649	0.406665	0.271654
H66	H	-0.455291	0.496833	0.610661
Br67	Br	-0.880871	1.010985	0.628989
Br68	Br	-0.615321	0.407125	0.270702
H69	H	-0.463359	0.571278	0.371458
Br70	Br	-0.437786	0.649657	0.526320
Br71	Br	-0.891926	0.788157	0.616089
H72	H	-0.582782	0.491118	0.612585
Br73	Br	-0.448465	0.331057	0.588781
Br74	Br	-0.604609	0.325457	0.581242
H75	H	-1.100445	0.799887	0.376380
Br76	Br	-0.924093	0.579171	1.150349
H77	H	-1.100476	0.376197	0.800893
H78	H	-1.135170	1.109830	0.336682
H79	H	-1.143678	0.326451	0.939364
