data_functionalizedCrystal
_audit_creation_method	'MofGen! by Chris Wilmer'
_symmetry_space_group_name_H-M	'P1'
_symmetry_Int_Tables_number	1
_symmetry_cell_setting	triclinic
loop_
_symmetry_equiv_pos_as_xyz
  x,y,z
_cell_length_a	16.992694
_cell_length_b	16.053942
_cell_length_c	16.109301
_cell_angle_alpha	87.425153
_cell_angle_beta	92.935148
_cell_angle_gamma	87.253706
loop_
_atom_site_label
_atom_site_type_symbol
_atom_site_fract_x
_atom_site_fract_y
_atom_site_fract_z
O1	O	1.037050	0.069329	-0.179564
O2	O	1.537050	0.569329	0.320436
O3	O	0.808764	0.069353	-0.177631
O4	O	1.308764	0.569353	0.322369
O5	O	0.929179	0.069332	-0.057984
O6	O	1.429179	0.569332	0.442016
O7	O	0.916636	0.069350	-0.299210
O8	O	1.416636	0.569350	0.200790
O9	O	0.935770	-0.069526	-0.051421
O10	O	1.435770	0.430474	0.448579
O11	O	0.815355	-0.069504	-0.171068
O12	O	1.315355	0.430496	0.328932
O13	O	1.043641	-0.069529	-0.173001
O14	O	1.543641	0.430471	0.326999
Zn15	Zn	0.930545	-0.091563	-0.170992
Zn16	Zn	1.430545	0.408437	0.329008
Zn17	Zn	0.921861	0.091387	-0.179639
Zn18	Zn	1.421861	0.591387	0.320361
O19	O	0.923227	-0.069507	-0.292647
O20	O	1.423227	0.430493	0.207353
C21	C	0.782848	-0.000072	-0.171861
C22	C	1.282848	0.499928	0.328139
C23	C	0.695805	-0.000063	-0.164438
C24	C	1.195805	0.499937	0.335562
N25	N	0.936477	-0.216422	-0.165091
N26	N	1.436477	0.283578	0.334909
C27	C	0.967181	-0.740047	-0.134646
C28	C	1.467181	-0.240047	0.365354
C29	C	0.963013	-0.652641	-0.138783
C30	C	1.463013	-0.152641	0.361217
C31	C	0.907595	-0.608944	-0.193806
C32	C	1.407595	-0.108944	0.306194
C33	C	0.856346	-0.652657	-0.244700
C34	C	1.356346	-0.152657	0.255300
C35	C	0.860518	-0.740061	-0.240566
C36	C	1.360518	-0.240061	0.259434
C37	C	0.889401	-0.347539	-0.211851
C38	C	1.389401	0.152461	0.288149
C39	C	0.885230	-0.260128	-0.215979
C40	C	1.385230	0.239872	0.284021
C41	C	0.991899	-0.260119	-0.110063
C42	C	1.491899	0.239881	0.389937
C43	C	0.996064	-0.347525	-0.105931
C44	C	1.496064	0.152475	0.394069
C45	C	0.944818	-0.391230	-0.156828
C46	C	1.444818	0.108770	0.343172
N47	N	0.903331	-0.519601	-0.198034
N48	N	1.403331	-0.019601	0.301966
N49	N	0.949085	-0.480571	-0.152603
N50	N	1.449085	0.019429	0.347397
C51	C	0.645546	-0.000059	-0.236065
C52	C	1.145546	0.499941	0.263935
C53	C	0.563762	-0.000071	-0.229084
C54	C	1.063762	0.499929	0.270916
C55	C	0.532238	-0.000082	-0.150477
C56	C	1.032238	0.499918	0.349523
C57	C	0.582503	-0.000089	-0.078845
C58	C	1.082503	0.499911	0.421155
C59	C	0.664286	-0.000083	-0.085826
C60	C	1.164286	0.499917	0.414174
C61	C	0.288649	-0.000106	-0.121543
C62	C	0.788649	0.499894	0.378457
C63	C	0.206859	-0.000110	-0.114567
C64	C	0.706859	0.499890	0.385433
C65	C	0.188123	-0.000093	-0.264807
C66	C	0.688123	0.499907	0.235193
C67	C	0.269908	-0.000082	-0.271781
C68	C	0.769908	0.499918	0.228219
C69	C	0.320167	-0.000094	-0.200149
C70	C	0.820167	0.499906	0.299851
N71	N	0.448641	-0.000091	-0.143340
N72	N	0.948641	0.499909	0.356660
N73	N	0.403762	-0.000090	-0.207287
N74	N	0.903762	0.499910	0.292713
C75	C	1.069558	-0.000101	-0.178770
C76	C	1.569558	0.499899	0.321230
C77	C	1.156600	-0.000105	-0.186193
C78	C	1.656600	0.499895	0.313807
C79	C	0.931966	-0.000097	-0.023694
C80	C	1.431966	0.499903	0.476306
C81	C	0.930443	-0.000098	0.068703
C82	C	1.430443	0.499902	0.568703
N83	N	0.915935	0.216246	-0.185534
N84	N	1.415935	0.716246	0.314466
C85	C	0.920439	-0.000076	-0.326938
C86	C	1.420439	0.499924	0.173062
C87	C	0.921962	-0.000070	-0.419335
C88	C	1.421962	0.499930	0.080665
C89	C	0.998352	-0.000092	0.286444
C90	C	1.498352	0.499908	0.786444
C91	C	0.996915	-0.000085	0.373260
C92	C	1.496915	0.499915	0.873260
C93	C	0.854047	-0.000073	0.362918
C94	C	1.354047	0.499927	0.862918
C95	C	0.855486	-0.000074	0.276103
C96	C	1.355486	0.499926	0.776103
C97	C	0.927641	-0.000088	0.237869
C98	C	1.427641	0.499912	0.737869
C99	C	0.924765	-0.000080	0.411499
C100	C	1.424765	0.499920	0.911499
C101	C	0.923205	-0.000072	0.505629
C102	C	1.423205	0.499928	1.005629
C103	C	0.929200	-0.000094	0.143733
C104	C	1.429200	0.499906	0.643733
H105	H	1.004743	-0.617056	-0.097346
H106	H	1.504743	-0.117056	0.402654
C107	C	0.304580	-0.000082	-0.358249
C108	C	0.804580	0.499918	0.141751
H109	H	0.262933	-0.000090	-0.399908
H110	H	0.762933	0.499910	0.100092
H111	H	0.333791	0.048340	-0.366388
H112	H	0.833791	0.548340	0.133612
H113	H	0.338397	-0.048511	-0.361800
H114	H	0.838397	0.451489	0.138200
H115	H	0.811225	-0.617073	-0.289505
H116	H	1.311225	-0.117073	0.210495
C117	C	1.028140	-0.788111	-0.074120
C118	C	1.528140	-0.288111	0.425880
H119	H	1.023282	-0.846426	-0.078939
H120	H	1.523282	-0.346426	0.421061
H121	H	1.079779	-0.773776	-0.087339
H122	H	1.579779	-0.273776	0.412661
H123	H	1.018955	-0.773789	-0.018736
H124	H	1.518955	-0.273789	0.481264
H125	H	0.329560	-0.000116	-0.063214
H126	H	0.829560	0.499884	0.436786
C127	C	0.804149	-0.788142	-0.296541
C128	C	1.304149	-0.288142	0.203459
H129	H	0.814576	-0.846455	-0.286206
H130	H	1.314576	-0.346455	0.213794
H131	H	0.751141	-0.773831	-0.284680
H132	H	1.251141	-0.273831	0.215320
H133	H	0.811967	-0.773811	-0.353281
H134	H	1.311967	-0.273811	0.146719
H135	H	0.181196	-0.000118	-0.050552
H136	H	0.681196	0.499882	0.449448
C137	C	1.074698	-0.000095	0.426689
C138	C	1.574698	0.499905	0.926689
H139	H	1.117874	-0.000110	0.391481
H140	H	1.617874	0.499890	0.891481
H141	H	1.074811	0.048327	0.458477
H142	H	1.574811	0.548327	0.958477
H143	H	1.079404	-0.048524	0.463062
H144	H	1.579404	0.451476	0.963062
C145	C	0.774682	-0.000061	0.404975
C146	C	1.274682	0.499939	0.904975
H147	H	0.732774	-0.000049	0.363609
H148	H	1.232774	0.499951	0.863609
H149	H	0.773447	-0.048481	0.440921
H150	H	1.273447	0.451519	0.940921
H151	H	0.768854	0.048370	0.436332
H152	H	1.268854	0.548370	0.936332
H153	H	0.556831	-0.000110	-0.014840
H154	H	1.056831	0.499890	0.485160
C155	C	0.777699	-0.000072	0.222668
C156	C	1.277699	0.499928	0.722668
H157	H	0.734521	-0.000076	0.257872
H158	H	1.234521	0.499924	0.757872
H159	H	0.772991	0.048350	0.186293
H160	H	1.272991	0.548350	0.686293
H161	H	0.777594	-0.048501	0.190881
H162	H	1.277594	0.451499	0.690881
H163	H	1.041190	-0.383102	-0.061127
H164	H	1.541190	0.116898	0.438873
C165	C	0.719571	-0.000080	-0.007038
C166	C	1.219571	0.499920	0.492962
H167	H	0.689084	-0.000078	0.040778
H168	H	1.189084	0.499922	0.540778
H169	H	0.754172	-0.048499	-0.004347
H170	H	1.254172	0.451501	0.495653
H171	H	0.749555	0.048353	-0.008930
H172	H	1.249555	0.548353	0.491070
C173	C	0.680215	-0.000046	-0.322533
C174	C	1.180215	0.499954	0.177467
H175	H	0.638567	-0.000053	-0.364190
H176	H	1.138567	0.499947	0.135810
H177	H	0.709424	0.048379	-0.330670
H178	H	1.209424	0.548379	0.169330
H179	H	0.714034	-0.048473	-0.326090
H180	H	1.214034	0.451527	0.173910
H181	H	1.033622	-0.224527	-0.068626
H182	H	1.533622	0.275473	0.431374
H183	H	0.840099	-0.224554	-0.260787
H184	H	1.340099	0.275446	0.239213
C185	C	0.132839	-0.000091	-0.343594
C186	C	0.632839	0.499909	0.156406
H187	H	0.079617	-0.000103	-0.328181
H188	H	0.579617	0.499897	0.171819
H189	H	0.140086	0.048333	-0.377894
H190	H	0.640086	0.548333	0.122106
H191	H	0.144701	-0.048518	-0.373309
H192	H	0.644701	0.451482	0.126691
C193	C	0.833048	-0.395603	-0.267853
C194	C	1.333048	0.104397	0.232147
H195	H	0.799447	-0.357058	-0.301213
H196	H	1.299447	0.142942	0.198787
H197	H	0.862884	-0.429679	-0.302739
H198	H	1.362884	0.070321	0.197261
H199	H	0.802038	-0.429720	-0.234159
H200	H	1.302038	0.070280	0.265841
C201	C	0.508480	-0.000063	-0.307873
C202	C	1.008480	0.499937	0.192127
H203	H	0.538967	-0.000045	-0.355689
H204	H	1.038967	0.499955	0.144311
H205	H	0.478494	-0.048488	-0.305990
H206	H	0.978494	0.451512	0.194010
H207	H	0.473881	0.048363	-0.310558
H208	H	0.973881	0.548363	0.189442
C209	C	1.077718	-0.000098	0.244387
C210	C	1.577718	0.499902	0.744387
H211	H	1.119625	-0.000092	0.285753
H212	H	1.619625	0.499908	0.785753
H213	H	1.083553	-0.048521	0.213028
H214	H	1.583553	0.451479	0.713028
H215	H	1.078946	0.048331	0.208444
H216	H	1.578946	0.548331	0.708444
