data_functionalizedCrystal
_audit_creation_method	'MofGen! by Chris Wilmer'
_symmetry_space_group_name_H-M	'P1'
_symmetry_Int_Tables_number	1
_symmetry_cell_setting	triclinic
loop_
_symmetry_equiv_pos_as_xyz
  x,y,z
_cell_length_a	20.919287
_cell_length_b	20.919319
_cell_length_c	20.919309
_cell_angle_alpha	60.112213
_cell_angle_beta	86.850628
_cell_angle_gamma	60.718890
loop_
_atom_site_label
_atom_site_type_symbol
_atom_site_fract_x
_atom_site_fract_y
_atom_site_fract_z
Zr1	Zr	0.649328	0.689569	-0.140978
O2	O	0.555868	0.815445	-0.239093
O3	O	0.674211	0.558674	-0.107266
O4	O	0.684253	0.681781	-0.240933
O5	O	0.542191	0.700233	-0.004122
O6	O	0.789810	0.681346	-0.246518
O7	O	0.545826	0.692339	-0.105427
O8	O	0.771848	0.461131	-0.007413
O9	O	0.560153	0.920448	-0.243228
O10	O	0.768152	0.614047	-0.101447
O11	O	0.686662	0.620263	-0.021677
O12	O	0.698484	0.765205	-0.179052
O13	O	0.616995	0.771420	-0.099282
Zr14	Zr	0.811882	0.701465	0.011683
Zr15	Zr	0.817680	0.688876	-0.149886
Zr16	Zr	0.643530	0.702159	0.020591
Zr17	Zr	0.656162	0.857036	-0.147572
Zr18	Zr	0.805047	0.533999	0.018277
O19	O	0.786998	0.832360	-0.022029
O20	O	0.795243	0.814459	-0.251759
O21	O	0.547623	0.833346	-0.009363
O22	O	0.905342	0.575589	0.109798
O23	O	0.913586	0.557688	-0.119932
O24	O	0.665967	0.576575	0.122464
O25	O	0.919019	0.690802	-0.125173
O26	O	0.776957	0.709254	0.111638
O27	O	0.671399	0.709688	0.117223
O28	O	0.915383	0.698695	-0.023868
O29	O	0.693970	0.919896	-0.250308
O30	O	0.767239	0.471138	0.121013
O31	O	0.901057	0.470587	0.113932
O32	O	0.905666	0.460580	-0.014493
O33	O	0.555544	0.930455	-0.114802
O34	O	0.689362	0.929904	-0.121882
O35	O	0.762725	0.625829	0.049757
O36	O	0.844215	0.619614	-0.030013
O37	O	0.774548	0.770771	-0.107618
O38	O	0.693058	0.776987	-0.027848
C39	C	0.722056	0.486042	-0.056400
C40	C	0.719155	0.414948	-0.053601
C41	C	0.700863	0.012753	-0.035392
C42	C	0.703551	0.079594	-0.038068
C43	C	0.747429	0.109771	-0.081051
C44	C	0.788626	0.073098	-0.121354
C45	C	0.785941	0.006254	-0.118673
C46	C	0.757667	0.311431	-0.091223
C47	C	0.760347	0.378282	-0.093903
C48	C	0.675273	0.384772	-0.010616
C49	C	0.672589	0.317930	-0.007943
C50	C	0.713789	0.281259	-0.048242
C51	C	0.750176	0.178095	-0.083789
C52	C	0.711045	0.212932	-0.045500
C53	C	0.520022	0.696385	-0.053505
C54	C	0.448552	0.696679	-0.049724
C55	C	0.416978	0.692471	-0.103758
C56	C	0.349827	0.692743	-0.100201
C57	C	0.314247	0.697230	-0.042613
C58	C	0.345827	0.701435	0.011427
C59	C	0.412980	0.701157	0.007873
C60	C	0.111391	0.698283	-0.029086
C61	C	0.044232	0.698563	-0.025537
C62	C	0.048236	0.689870	-0.137165
C63	C	0.115388	0.689597	-0.140717
C64	C	0.146964	0.693798	-0.086675
C65	C	0.245606	0.697511	-0.038977
C66	C	0.215607	0.693510	-0.090308
C67	C	0.941188	0.694650	-0.075790
C68	C	1.012658	0.694355	-0.079571
C69	C	0.737858	0.679770	-0.266745
C70	C	0.740319	0.674425	-0.335335
C71	C	0.739154	0.904992	-0.072895
C72	C	0.742055	0.976086	-0.075694
C73	C	0.705111	0.750815	-0.408068
C74	C	0.707434	0.745788	-0.472514
C75	C	0.744960	0.664370	-0.464224
C76	C	0.780173	0.587975	-0.391484
C77	C	0.777854	0.593003	-0.327041
C78	C	0.753785	0.645242	-0.656776
C79	C	0.756098	0.640220	-0.721227
C80	C	0.683360	0.798033	-0.802252
C81	C	0.681041	0.803054	-0.737803
C82	C	0.716257	0.726659	-0.665069
C83	C	0.747334	0.659230	-0.530097
C84	C	0.713888	0.731800	-0.599199
C85	C	0.723352	0.711265	0.137450
C86	C	0.720891	0.716609	0.206040
C87	C	0.932639	0.485175	-0.067542
C88	C	1.001207	0.413787	-0.068524
C89	C	0.714803	0.501790	0.145698
C90	C	0.709440	0.436040	0.217087
C91	C	0.925386	0.500922	0.134556
C92	C	0.991493	0.434879	0.202163
C93	C	0.535824	0.890112	-0.263851
C94	C	0.469717	0.956156	-0.331459
C95	C	0.528571	0.905860	-0.061753
C96	C	0.460002	0.977248	-0.060771
C97	C	0.746406	0.889245	-0.274993
C98	C	0.751769	0.954994	-0.346382
C99	C	0.993704	0.377356	-0.106280
C100	C	1.058126	0.310287	-0.107219
C101	C	1.130050	0.279646	-0.070396
C102	C	1.137552	0.316084	-0.032639
C103	C	1.073131	0.383155	-0.031706
C104	C	0.746626	0.408070	0.287907
C105	C	0.741584	0.346302	0.354991
C106	C	0.699361	0.312500	0.351253
C107	C	0.662171	0.340476	0.280426
C108	C	0.667209	0.402248	0.213344
C109	C	1.065081	0.400619	0.192273
C110	C	1.127203	0.338573	0.255791
C111	C	1.115734	0.310783	0.329199
C112	C	1.042138	0.345049	0.339088
C113	C	0.980019	0.407098	0.275570
C114	C	0.396129	0.990423	-0.321569
C115	C	0.334008	1.052490	-0.385087
C116	C	0.345477	1.080284	-0.458495
C117	C	0.419072	1.046014	-0.468384
C118	C	0.481192	0.983953	-0.404866
C119	C	0.467506	1.013685	-0.023022
C120	C	0.403086	1.080771	-0.022102
C121	C	0.331162	1.111414	-0.058927
C122	C	0.323659	1.074974	-0.096681
C123	C	0.388079	1.007893	-0.097605
C124	C	0.793999	0.988776	-0.342620
C125	C	0.799053	1.050546	-0.409692
C126	C	0.761872	1.078537	-0.480526
C127	C	0.719641	1.044748	-0.484286
C128	C	0.714592	0.982975	-0.417215
H129	H	0.791213	0.281580	-0.124039
H130	H	0.833440	1.078051	-0.406615
H131	H	0.824356	0.097668	-0.156348
H132	H	0.636860	0.293363	0.027059
H133	H	0.796079	0.402849	-0.128907
H134	H	0.428402	1.068652	-0.528160
H135	H	0.824277	0.965996	-0.284950
H136	H	0.665129	-0.011808	-0.000396
H137	H	0.689370	1.067548	-0.541968
H138	H	0.265090	1.099934	-0.126663
H139	H	0.654690	0.860230	-0.861477
H140	H	0.785900	0.202673	-0.118787
H141	H	0.409209	1.110430	0.008644
H142	H	1.079251	0.412809	-0.000956
H143	H	0.316857	0.705083	0.058321
H144	H	0.819485	-0.023601	-0.151490
H145	H	0.683338	0.798090	-0.605945
H146	H	0.777887	0.592939	-0.523355
H147	H	0.541109	0.956052	-0.412928
H148	H	0.294889	1.130818	-0.510209
H149	H	0.381959	0.978228	-0.128342
H150	H	0.920102	0.434984	0.283634
H151	H	0.765989	1.128838	-0.535134
H152	H	0.445940	0.688823	-0.150656
H153	H	0.526065	0.988742	0.006971
H154	H	0.324120	0.689316	-0.144200
H155	H	1.166323	0.260257	0.380912
H156	H	0.144356	0.685943	-0.187610
H157	H	0.680201	0.955476	-0.420289
H158	H	0.670013	0.109441	-0.005245
H159	H	0.781008	0.435585	0.290965
H160	H	0.641731	0.414635	0.022195
H161	H	1.074434	0.423237	0.132506
H162	H	0.786656	0.573916	-0.714469
H163	H	0.386776	0.967797	-0.261801
H164	H	0.675323	0.188357	-0.010501
H165	H	0.015265	0.702218	0.021361
H166	H	0.022522	0.686448	-0.181163
H167	H	0.771872	0.323531	0.412654
H168	H	0.438688	0.704582	0.051874
H169	H	0.137093	0.701706	0.014916
H170	H	0.244580	0.689853	-0.137194
H171	H	0.806524	0.530798	-0.267818
H172	H	0.278713	1.166036	-0.058169
H173	H	0.274089	1.080383	-0.377020
H174	H	0.636929	0.425013	0.155682
H175	H	0.674548	0.817114	-0.414826
H176	H	0.216631	0.701166	0.007912
H177	H	1.032812	0.322412	0.398865
H178	H	0.695265	0.262201	0.405881
H179	H	1.182499	0.225031	-0.071161
H180	H	1.052003	0.280627	-0.137964
H181	H	0.810732	0.521683	-0.384740
H182	H	0.678766	0.807992	-0.531734
H183	H	0.782460	0.583035	-0.597561
H184	H	0.650486	0.869353	-0.744562
H185	H	1.187123	0.310680	0.247726
H186	H	0.627793	0.312946	0.277394
H187	H	0.935146	0.402302	-0.136276
H188	H	1.196122	0.291126	-0.002659
