data_functionalizedCrystal
_audit_creation_method	'MofGen! by Chris Wilmer'
_symmetry_space_group_name_H-M	'P1'
_symmetry_Int_Tables_number	1
_symmetry_cell_setting	triclinic
loop_
_symmetry_equiv_pos_as_xyz
  x,y,z
_cell_length_a	17.639115
_cell_length_b	17.640280
_cell_length_c	17.640618
_cell_angle_alpha	114.318309
_cell_angle_beta	92.168398
_cell_angle_gamma	70.389850
loop_
_atom_site_label
_atom_site_type_symbol
_atom_site_fract_x
_atom_site_fract_y
_atom_site_fract_z
Zn1	Zn	-1.336329	0.572363	-0.060673
Zn2	Zn	-1.336251	0.738012	0.104952
Zn3	Zn	-1.181944	0.561142	0.037962
Zn4	Zn	-1.226379	0.682276	-0.060708
O5	O	-1.270226	0.638448	0.005383
O6	O	-1.446912	0.622358	-0.010652
O7	O	-1.297153	0.733180	0.206674
O8	O	-1.183860	0.442611	-0.003143
O9	O	-1.446854	0.744060	0.111032
O10	O	-1.297286	0.450854	-0.075610
O11	O	-1.183784	0.603234	0.157457
O12	O	-1.077245	0.549189	-0.003177
O13	O	-1.259593	0.649066	-0.171312
O14	O	-1.109891	0.638186	-0.075670
O15	O	-1.340373	0.568313	-0.171286
O16	O	-1.340240	0.850639	0.110998
O17	O	-1.259517	0.809690	-0.010712
C18	C	-1.064893	0.586423	-0.046697
C19	C	-0.977057	0.564183	-0.068991
C20	C	-0.853311	0.469551	-0.163820
C21	C	-0.935846	0.490456	-0.142864
C22	C	-0.935741	0.617032	-0.016042
C23	C	-0.853203	0.596136	-0.036985
C24	C	-0.811995	0.522395	-0.110876
C25	C	-0.811887	0.648979	0.015959
C26	C	-0.729357	0.628086	-0.004985
C27	C	-0.688144	0.554350	-0.078873
C28	C	-0.729465	0.501502	-0.131820
C29	C	-0.853098	0.722723	0.089846
C30	C	-0.811782	0.775567	0.142791
C31	C	-0.729249	0.754671	0.121850
C32	C	-0.688036	0.680935	0.047962
C33	C	-0.687928	0.807519	0.174796
C34	C	-0.605398	0.786627	0.153852
C35	C	-0.605506	0.660042	0.027018
C36	C	-1.304716	0.861286	0.057397
C37	C	-1.319548	0.956632	0.079640
C38	C	-1.304948	0.603724	-0.200780
C39	C	-1.319745	0.588926	-0.288635
C40	C	-0.476357	0.690665	0.057670
C41	C	-0.564190	0.712886	0.079962
C42	C	-1.235625	0.414742	-0.046845
C43	C	-1.220881	0.319412	-0.069102
C44	C	-1.157923	1.163742	-0.163803
C45	C	-1.171857	1.253337	-0.142877
C46	C	-1.255993	1.295911	-0.016226
C47	C	-1.242070	1.206317	-0.037144
C48	C	-1.193033	1.140239	-0.110933
C49	C	-1.277180	1.182814	0.015725
C50	C	-1.263253	1.093228	-0.005189
C51	C	-1.214217	1.027145	-0.078974
C52	C	-1.179107	1.050653	-0.131848
C53	C	-1.326212	1.248894	0.089517
C54	C	-1.361322	1.225391	0.142387
C55	C	-1.347400	1.135804	0.121469
C56	C	-1.298364	1.069721	0.047685
C57	C	-1.382511	1.112296	0.174344
C58	C	-1.368584	1.022710	0.153429
C59	C	-1.284438	0.980134	0.026771
C60	C	-1.382654	0.526029	-0.412450
C61	C	-1.368746	0.539939	-0.329897
C62	C	-1.284630	0.624020	-0.329917
C63	C	-1.298528	0.610113	-0.412473
C64	C	-1.347542	0.561118	-0.453733
C65	C	-1.263416	0.645202	-0.453756
C66	C	-1.277317	0.631301	-0.536304
C67	C	-1.326330	0.582310	-0.577568
C68	C	-1.361442	0.547216	-0.536280
C69	C	-1.214408	0.694203	-0.412493
C70	C	-1.179296	0.729292	-0.453776
C71	C	-1.193191	0.715385	-0.536327
C72	C	-1.242204	0.666394	-0.577591
C73	C	-1.158079	0.750479	-0.577615
C74	C	-1.171980	0.736577	-0.660162
C75	C	-1.256105	0.652493	-0.660139
C76	C	-1.235674	0.672987	0.210742
C77	C	-1.220993	0.687582	0.298579
H78	H	-0.571949	0.599987	-0.033145
C79	C	-1.407375	0.501332	-0.284489
N80	N	-1.436471	0.472255	-0.250288
H81	H	-1.139183	0.996848	-0.191939
C82	C	-1.133352	0.775174	-0.705577
N83	N	-1.104258	0.804248	-0.739782
C84	C	-0.943884	0.745705	0.112883
N85	N	-1.012264	0.763013	0.130233
H86	H	-1.397174	1.003576	0.196482
H87	H	-0.845345	0.835608	0.202951
H88	H	-0.620943	0.537343	-0.095926
H89	H	-1.337551	1.321840	0.106541
C90	C	-1.103968	1.091048	-0.244967
N91	N	-1.063323	1.036296	-0.306093
H92	H	-1.244726	0.663914	-0.296312
H93	H	-1.143273	1.272467	-0.185942
C94	C	-1.415257	1.298086	0.223555
N95	N	-1.455882	1.352839	0.284691
H96	H	-0.695908	0.441446	-0.191982
C97	C	-1.436439	1.184992	0.255515
N98	N	-1.477058	1.239747	0.316656
C99	C	-1.104169	0.804375	-0.532217
N100	N	-1.063562	0.844969	-0.498024
C101	C	-0.733268	0.888632	0.256073
N102	N	-0.767418	0.949726	0.317293
H103	H	-1.295916	1.349723	0.043854
C104	C	-1.230482	0.907441	-0.054394
N105	N	-1.189837	0.852689	-0.115519
H106	H	-1.422555	0.486120	-0.446051
H107	H	-0.819754	0.409496	-0.223982
H108	H	-1.296006	0.612584	-0.693739
H109	H	-1.337649	0.570995	-0.644782
H110	H	-1.203096	0.705524	-0.345276
H111	H	-0.571758	0.829659	0.196964
H112	H	-1.401343	0.507307	-0.569881
C113	C	-1.125379	0.783181	-0.408383
N114	N	-1.084764	0.823767	-0.374195
H115	H	-0.969482	0.447417	-0.185982
H116	H	-0.969305	0.677074	0.044118
H117	H	-1.202873	0.954199	-0.095997
