data_functionalizedCrystal
_audit_creation_method	'MofGen! by Chris Wilmer'
_symmetry_space_group_name_H-M	'P1'
_symmetry_Int_Tables_number	1
_symmetry_cell_setting	triclinic
loop_
_symmetry_equiv_pos_as_xyz
  x,y,z
_cell_length_a	15.538191
_cell_length_b	14.044220
_cell_length_c	14.750779
_cell_angle_alpha	76.182253
_cell_angle_beta	97.572172
_cell_angle_gamma	70.230486
loop_
_atom_site_label
_atom_site_type_symbol
_atom_site_fract_x
_atom_site_fract_y
_atom_site_fract_z
O1	O	1.206574	-0.272382	-0.079830
O2	O	0.941253	-0.166009	-0.079832
O3	O	1.069934	-0.355813	-0.079822
O4	O	1.077894	-0.082578	-0.079840
O5	O	1.106310	-0.409464	0.079832
O6	O	0.977630	-0.219660	0.079821
O7	O	1.242951	-0.326033	0.079823
Zn8	Zn	1.116066	-0.281365	0.105171
Zn9	Zn	1.068138	-0.210677	-0.105179
O10	O	1.114271	-0.136229	0.079813
C11	C	0.925281	-0.181705	-0.000006
C12	C	0.823493	-0.148554	-0.000006
C13	C	0.508030	-0.477901	0.000002
C14	C	0.412383	-0.446726	-0.000001
C15	C	0.404671	-0.271379	-0.000013
C16	C	0.500321	-0.302541	-0.000005
C17	C	0.551992	-0.405802	0.000001
C18	C	0.544283	-0.230442	-0.000006
C19	C	0.639923	-0.261599	-0.000004
C20	C	0.691600	-0.364855	-0.000000
C21	C	0.647632	-0.436960	0.000003
C22	C	0.492608	-0.127179	-0.000020
C23	C	0.536570	-0.055080	-0.000020
C24	C	0.632213	-0.086239	-0.000011
C25	C	0.683891	-0.189495	-0.000008
C26	C	0.676182	-0.014135	-0.000015
C27	C	0.771821	-0.045293	-0.000012
C28	C	0.779531	-0.220653	-0.000005
C29	C	1.084636	-0.416754	0.000005
C30	C	1.074236	-0.518402	0.000007
C31	C	1.055220	-0.704517	-0.000007
C32	C	1.128978	-0.787527	-0.000010
C33	C	1.118398	-0.891088	-0.000018
C34	C	1.065800	-0.600946	0.000000
C35	C	1.258923	-0.310337	-0.000005
C36	C	1.360709	-0.343485	-0.000011
C37	C	1.099569	-0.075288	-0.000016
C38	C	1.109967	0.026362	-0.000024
N39	N	1.148782	-0.329610	0.248729
N40	N	1.035429	-0.162442	-0.248738
C41	C	0.944054	-0.027741	0.600530
C42	C	0.966986	-0.061544	0.701031
C43	C	1.080962	-0.229579	0.701003
C44	C	1.058036	-0.195791	0.600500
C45	C	0.989582	-0.094871	0.550272
C46	C	1.103564	-0.262921	0.550242
C47	C	1.080643	-0.229134	0.449748
C48	C	1.012193	-0.128217	0.399512
C49	C	0.966661	-0.061084	0.449778
C50	C	1.172023	-0.363838	0.600472
C51	C	1.217551	-0.430968	0.550214
C52	C	1.194625	-0.397185	0.449718
C53	C	1.126176	-0.296267	0.399482
C54	C	1.240158	-0.464318	0.399452
C55	C	1.217236	-0.430530	0.298958
C56	C	1.103254	-0.262480	0.298988
H57	H	0.769474	-0.390218	-0.000011
H58	H	0.494485	0.028997	-0.000030
H59	H	0.634094	0.069943	-0.000030
N60	N	0.870211	0.081105	0.546349
H61	H	0.890227	0.136998	0.563830
H62	H	0.862633	0.092221	0.475078
H63	H	0.929907	-0.006869	0.741947
N64	N	0.961059	-0.713407	0.000007
H65	H	0.913305	-0.643582	0.000014
H66	H	0.939983	-0.731446	-0.059178
N67	N	0.819240	0.032471	-0.000016
H68	H	0.814399	0.056335	0.059166
H69	H	0.887646	-0.002998	-0.000053
H70	H	0.550106	-0.561988	0.000013
H71	H	1.047505	-0.180305	0.258090
N72	N	0.835269	-0.332032	0.000009
H73	H	0.861640	-0.328982	-0.059172
H74	H	0.888558	-0.368687	0.059235
H75	H	1.200056	-0.780794	-0.000074
H76	H	0.910911	0.021091	0.408880
N77	N	0.987458	-0.091758	0.291121
H78	H	1.045259	-0.091571	0.266892
H79	H	0.963336	-0.141659	0.266992
N80	N	1.154797	-0.338421	0.755181
H81	H	1.162411	-0.349640	0.826470
H82	H	1.134723	-0.394239	0.737620
N83	N	1.196744	-0.400278	0.708863
H84	H	1.183698	-0.466443	0.733074
H85	H	1.265587	-0.416305	0.732974
H86	H	1.273289	-0.513137	0.591121
N87	N	1.313998	-0.573156	0.453631
H88	H	1.321614	-0.584371	0.524920
H89	H	1.293932	-0.628981	0.436077
N90	N	1.266322	-0.502918	0.244724
H91	H	1.336178	-0.520508	0.262185
H92	H	1.254198	-0.570511	0.262228
N93	N	0.703373	-0.548340	0.000023
H94	H	0.674936	-0.561371	-0.059156
H95	H	0.770619	-0.557060	0.000061
N96	N	0.364963	-0.524493	-0.000006
H97	H	0.412212	-0.594633	-0.000004
H98	H	0.338932	-0.535278	0.059177
H99	H	0.414731	-0.101813	-0.000025
N100	N	0.348937	-0.160007	-0.000025
H101	H	0.281677	-0.151207	-0.000028
H102	H	0.377454	-0.147058	0.059161
