data_functionalizedCrystal
_audit_creation_method	'MofGen! by Chris Wilmer'
_symmetry_space_group_name_H-M	'P1'
_symmetry_Int_Tables_number	1
_symmetry_cell_setting	triclinic
loop_
_symmetry_equiv_pos_as_xyz
  x,y,z
_cell_length_a	11.792254
_cell_length_b	10.654550
_cell_length_c	9.730223
_cell_angle_alpha	90.004253
_cell_angle_beta	90.003236
_cell_angle_gamma	84.341764
loop_
_atom_site_label
_atom_site_type_symbol
_atom_site_fract_x
_atom_site_fract_y
_atom_site_fract_z
O1	O	-1.507296	-0.172211	-0.114288
O2	O	-1.176998	-0.189935	-0.114291
O3	O	-1.349741	0.001688	-0.114281
O4	O	-1.334553	-0.363833	-0.114299
O5	O	-1.349730	0.001693	0.114299
O6	O	-1.176987	-0.189929	0.114289
O7	O	-1.507285	-0.172206	0.114292
Zn8	Zn	-1.342134	-0.181067	0.150582
Zn9	Zn	-1.342149	-0.181073	-0.150582
O10	O	-1.334542	-0.363828	0.114281
C11	C	-1.348620	0.048485	0.000008
C12	C	-1.345284	0.187919	0.000006
C13	C	-1.134699	-0.188815	-0.000002
C14	C	-1.008678	-0.185474	-0.000003
C15	C	-1.549584	-0.173325	-0.000001
C16	C	-1.675605	-0.176666	-0.000009
C17	C	-0.906335	-0.182758	-0.000008
C18	C	-0.777941	-0.179363	-0.000009
C19	C	-1.335662	-0.410625	-0.000011
C20	C	-1.338999	-0.550059	-0.000018
N21	N	-1.342132	-0.181061	0.356118
C22	C	-1.446992	0.267687	0.000006
C23	C	-1.443850	0.398699	-0.000010
C24	C	-1.237283	0.370162	-0.000022
C25	C	-1.240426	0.239153	-0.000015
N26	N	-1.342159	-0.181069	-0.356118
C27	C	-1.418649	-0.096247	0.428049
C28	C	-1.418661	-0.096247	0.571932
C29	C	-1.265634	-0.265887	0.571941
C30	C	-1.265618	-0.265880	0.428061
H31	H	-1.526672	0.463642	-0.000013
O32	O	-1.135526	0.420142	0.000031
C33	C	-1.039134	0.609321	-0.000056
C34	C	-1.154453	0.552891	-0.000090
H35	H	-1.054396	0.716656	-0.000183
H36	H	-0.988797	0.576624	0.095626
H37	H	-0.988827	0.576444	-0.095694
H38	H	-1.204852	0.585743	0.095483
H39	H	-1.204703	0.585582	-0.095836
H40	H	-1.203340	-0.334947	0.630531
H41	H	-1.157597	0.174202	-0.000020
H42	H	-1.480950	-0.027180	0.369477
H43	H	-1.532374	0.225978	0.000021
H44	H	-1.480966	-0.027182	0.630494
O45	O	-1.191244	-0.348396	0.358392
C46	C	-1.039417	-0.516605	0.373572
C47	C	-1.123600	-0.423254	0.452643
H48	H	-0.984688	-0.577134	0.449740
H49	H	-1.088842	-0.579796	0.306224
H50	H	-0.982342	-0.461921	0.306197
H51	H	-1.180695	-0.477835	0.520093
H52	H	-1.074104	-0.360064	0.519904
