data_functionalizedCrystal
_audit_creation_method	'MofGen! by Chris Wilmer'
_symmetry_space_group_name_H-M	'P1'
_symmetry_Int_Tables_number	1
_symmetry_cell_setting	triclinic
loop_
_symmetry_equiv_pos_as_xyz
  x,y,z
_cell_length_a	16.109318
_cell_length_b	17.699083
_cell_length_c	14.586319
_cell_angle_alpha	89.995556
_cell_angle_beta	89.999897
_cell_angle_gamma	83.375789
loop_
_atom_site_label
_atom_site_type_symbol
_atom_site_fract_x
_atom_site_fract_y
_atom_site_fract_z
O1	O	1.102954	0.097347	-0.076166
O2	O	1.602954	0.597347	0.423834
O3	O	0.860874	0.109440	-0.076185
O4	O	1.360874	0.609440	0.423815
O5	O	0.988753	-0.006786	-0.076167
O6	O	1.488753	0.493214	0.423833
O7	O	0.975075	0.213572	-0.076184
O8	O	1.475075	0.713572	0.423816
O9	O	0.988744	-0.006787	0.076314
O10	O	1.488744	0.493213	0.576314
O11	O	0.860864	0.109439	0.076296
O12	O	1.360864	0.609439	0.576296
O13	O	1.102945	0.097346	0.076315
O14	O	1.602945	0.597346	0.576315
Cu15	Cu	0.981904	0.103392	0.090228
Cu16	Cu	1.481904	0.603392	0.590228
Cu17	Cu	0.981915	0.103393	-0.090098
Cu18	Cu	1.481915	0.603393	0.409902
O19	O	0.975065	0.213571	0.076297
O20	O	1.475065	0.713571	0.576297
C21	C	0.829895	0.108947	0.000053
C22	C	1.329895	0.608947	0.500053
C23	C	0.737603	0.107472	0.000046
C24	C	1.237603	0.607472	0.500046
C25	C	0.438543	0.102707	-0.083054
C26	C	0.938543	0.602707	0.416946
C27	C	0.525262	0.104088	-0.083060
C28	C	1.025262	0.604088	0.416940
C29	C	0.525270	0.104076	0.083183
C30	C	1.025270	0.604076	0.583183
C31	C	0.438554	0.102690	0.083188
C32	C	0.938554	0.602690	0.583188
C33	C	0.395192	0.102009	0.000066
C34	C	0.895192	0.602009	0.500066
C35	C	0.568627	0.104777	0.000056
C36	C	1.068627	0.604777	0.500056
C37	C	0.662651	0.106275	0.000050
C38	C	1.162651	0.606275	0.500050
C39	C	0.301161	0.100509	0.000072
C40	C	0.801161	0.600509	0.500072
C41	C	0.988259	-0.034984	0.000074
C42	C	1.488259	0.465016	0.500074
C43	C	0.986788	-0.119004	0.000074
C44	C	1.486788	0.380996	0.500074
C45	C	1.061851	-0.167514	0.000081
C46	C	1.561851	0.332486	0.500081
C47	C	1.060464	-0.246459	0.000073
C48	C	1.560464	0.253541	0.500073
C49	C	0.984014	-0.276893	0.000064
C50	C	1.484014	0.223107	0.500064
C51	C	0.908946	-0.228378	0.000054
C52	C	1.408946	0.271622	0.500054
C53	C	0.910333	-0.149434	0.000056
C54	C	1.410333	0.350566	0.500056
C55	C	0.903349	-0.546749	0.000046
C56	C	1.403349	-0.046749	0.500046
C57	C	0.901967	-0.625699	0.000048
C58	C	1.401967	-0.125699	0.500048
C59	C	1.053480	-0.643774	0.000063
C60	C	1.553480	-0.143774	0.500063
C61	C	1.054867	-0.564831	0.000065
C62	C	1.554867	-0.064831	0.500065
C63	C	0.979799	-0.516322	0.000050
C64	C	1.479799	-0.016322	0.500050
C65	C	0.981304	-0.430720	0.000058
C66	C	1.481304	0.069280	0.500058
C67	C	0.982509	-0.362493	0.000064
C68	C	1.482509	0.137507	0.500064
C69	C	1.133923	0.097838	0.000075
C70	C	1.633923	0.597838	0.500075
C71	C	1.226215	0.099314	0.000076
C72	C	1.726215	0.599314	0.500076
C73	C	0.975560	0.241770	0.000054
C74	C	1.475560	0.741770	0.500054
C75	C	0.977030	0.325790	0.000048
C76	C	1.477030	0.825790	0.500048
N77	N	0.981902	0.103391	0.217060
N78	N	1.481902	0.603391	0.717060
C79	C	1.038545	0.051944	0.452074
C80	C	1.538545	0.551944	0.952074
C81	C	1.038547	0.051943	0.548056
C82	C	1.538547	0.551943	1.048056
C83	C	0.925271	0.154842	0.548049
C84	C	1.425271	0.654842	1.048049
C85	C	0.925265	0.154839	0.452070
C86	C	1.425265	0.654839	0.952070
C87	C	0.981907	0.103391	0.404085
C88	C	1.481907	0.603391	0.904085
C89	C	0.981915	0.103392	0.596045
C90	C	1.481915	0.603392	1.096045
C91	C	0.981917	0.103391	0.700113
C92	C	1.481917	0.603391	1.200113
C93	C	0.981905	0.103391	0.300011
C94	C	1.481905	0.603391	0.800011
N95	N	0.981920	0.103393	0.783070
N96	N	1.481920	0.603393	1.283070
H97	H	0.560554	0.104655	-0.150745
H98	H	1.060554	0.604655	0.349255
Br99	Br	0.848388	0.224659	0.386933
Br100	Br	1.348388	0.724659	0.886933
H101	H	0.403240	0.102151	-0.150737
H102	H	0.903240	0.602151	0.349263
Br103	Br	1.155360	-0.709612	0.000083
Br104	Br	1.655360	-0.209612	0.500083
Br105	Br	0.584123	0.105007	0.195985
Br106	Br	1.084123	0.605007	0.695985
Br107	Br	0.798206	-0.667002	0.000037
Br108	Br	1.298206	-0.167002	0.500037
Br109	Br	0.379715	0.101737	0.196003
Br110	Br	0.879715	0.601737	0.696003
Br111	Br	1.115412	-0.017884	0.613183
Br112	Br	1.615412	0.482116	1.113183
Br113	Br	1.165610	-0.126219	0.000106
Br114	Br	1.665610	0.373781	0.500106
Br115	Br	0.848404	0.224663	0.613174
Br116	Br	1.348404	0.724663	1.113174
H117	H	1.084665	0.010051	0.413007
H118	H	1.584665	0.510051	0.913007
Br119	Br	1.162340	-0.312292	0.000082
Br120	Br	1.662340	0.187708	0.500082
Br121	Br	1.158624	-0.523531	0.000076
Br122	Br	1.658624	-0.023531	0.500076
H123	H	0.842223	-0.507262	0.000035
H124	H	1.342223	-0.007262	0.500035
Br125	Br	0.805190	-0.269680	0.000027
Br126	Br	1.305190	0.230320	0.500027
H127	H	0.849209	-0.109937	0.000050
H128	H	1.349209	0.390063	0.500050
