data_functionalizedCrystal
_audit_creation_method	'MofGen! by Chris Wilmer'
_symmetry_space_group_name_H-M	'P1'
_symmetry_Int_Tables_number	1
_symmetry_cell_setting	triclinic
loop_
_symmetry_equiv_pos_as_xyz
  x,y,z
_cell_length_a	17.699103
_cell_length_b	9.065215
_cell_length_c	7.540329
_cell_angle_alpha	89.997574
_cell_angle_beta	89.991453
_cell_angle_gamma	84.152879
loop_
_atom_site_label
_atom_site_type_symbol
_atom_site_fract_x
_atom_site_fract_y
_atom_site_fract_z
O1	O	0.110961	1.957128	-0.147485
O2	O	0.610961	2.457128	0.352515
O3	O	0.120066	1.527574	-0.147494
O4	O	0.620066	2.027574	0.352506
O5	O	0.005420	1.754472	-0.147455
O6	O	0.505420	2.254472	0.352545
O7	O	0.225608	1.730230	-0.147524
O8	O	0.725608	2.230230	0.352476
O9	O	0.005419	1.754458	0.147510
O10	O	0.505419	2.254458	0.647510
O11	O	0.120065	1.527560	0.147471
O12	O	0.620065	2.027560	0.647471
O13	O	0.110960	1.957114	0.147480
O14	O	0.610960	2.457114	0.647480
Cu15	Cu	0.115512	1.742336	0.174408
Cu16	Cu	0.615512	2.242336	0.674408
Cu17	Cu	0.115514	1.742352	-0.174422
Cu18	Cu	0.615514	2.242352	0.325578
O19	O	0.225606	1.730216	0.147441
O20	O	0.725606	2.230216	0.647441
C21	C	0.119191	1.472606	-0.000013
C22	C	0.619191	1.972606	0.499987
C23	C	0.116576	1.308840	-0.000015
C24	C	0.616576	1.808840	0.499985
C25	C	-0.022784	1.753591	0.000032
C26	C	0.477216	2.253591	0.500032
C27	C	-0.106822	1.750970	0.000047
C28	C	0.393178	2.250970	0.500047
C29	C	-0.622657	1.734947	-0.160855
C30	C	-0.122657	2.234947	0.339145
C31	C	-0.543695	1.737408	-0.160839
C32	C	-0.043695	2.237408	0.339161
C33	C	-0.504228	1.738628	-0.000043
C34	C	-0.004228	2.238628	0.499957
C35	C	-0.543728	1.737402	0.160748
C36	C	-0.043728	2.237402	0.660748
C37	C	-0.622690	1.734952	0.160730
C38	C	-0.122690	2.234952	0.660730
C39	C	-0.225285	1.747284	0.160822
C40	C	0.274715	2.247284	0.660822
C41	C	-0.146317	1.749730	0.160827
C42	C	0.353683	2.249730	0.660827
C43	C	-0.146290	1.749740	-0.160747
C44	C	0.353710	2.249740	0.339253
C45	C	-0.225252	1.747290	-0.160765
C46	C	0.274748	2.247290	0.339235
C47	C	-0.264745	1.746072	0.000025
C48	C	0.235255	2.246072	0.500025
C49	C	-0.350366	1.743407	0.000006
C50	C	0.149634	2.243407	0.500006
C51	C	-0.418608	1.741282	-0.000022
C52	C	0.081392	2.241282	0.499978
C53	C	0.253810	1.731097	-0.000050
C54	C	0.753810	2.231097	0.499950
C55	C	0.337848	1.733718	-0.000076
C56	C	0.837848	2.233718	0.499924
C57	C	0.111835	2.012082	-0.000005
C58	C	0.611835	2.512082	0.499995
C59	C	0.114450	2.175848	-0.000015
C60	C	0.614450	2.675848	0.499985
N61	N	0.115511	1.742336	0.419757
N62	N	0.615511	2.242336	0.919757
N63	N	0.115510	1.742364	-0.419771
N64	N	0.615510	2.242364	0.080229
H65	H	-0.654785	1.733940	-0.291794
H66	H	-0.154785	2.233940	0.208206
C67	C	-0.268665	1.746008	-0.337653
C68	C	0.231335	2.246008	0.162347
N69	N	-0.301364	1.745070	-0.470889
N70	N	0.198636	2.245070	0.029111
H71	H	-0.114125	1.750736	-0.291670
H72	H	0.385875	2.250736	0.208330
H73	H	-0.257431	1.746295	0.291747
H74	H	0.242569	2.246295	0.791747
H75	H	-0.654845	1.733950	0.291653
H76	H	-0.154845	2.233950	0.791653
H77	H	-0.114185	1.750716	0.291775
H78	H	0.385815	2.250716	0.791775
H79	H	-0.511542	1.738412	-0.291761
H80	H	-0.011542	2.238412	0.208239
H81	H	-0.511588	1.738405	0.291671
H82	H	-0.011588	2.238405	0.791671
