data_functionalizedCrystal
_audit_creation_method	'MofGen! by Chris Wilmer'
_symmetry_space_group_name_H-M	'P1'
_symmetry_Int_Tables_number	1
_symmetry_cell_setting	triclinic
loop_
_symmetry_equiv_pos_as_xyz
  x,y,z
_cell_length_a	16.992694
_cell_length_b	14.853567
_cell_length_c	16.053802
_cell_angle_alpha	92.572962
_cell_angle_beta	87.249047
_cell_angle_gamma	87.151577
loop_
_atom_site_label
_atom_site_type_symbol
_atom_site_fract_x
_atom_site_fract_y
_atom_site_fract_z
O1	O	1.043898	0.187626	-0.069313
O2	O	0.815612	0.185528	-0.069338
O3	O	0.935853	0.055778	-0.069327
O4	O	0.923657	0.317376	-0.069323
O5	O	0.929234	0.062888	0.069531
O6	O	0.808993	0.192638	0.069521
O7	O	1.037280	0.194737	0.069545
Zn8	Zn	0.922086	0.194816	0.091580
Zn9	Zn	0.930806	0.185448	-0.091372
O10	O	0.917038	0.324487	0.069535
C11	C	0.783087	0.186385	0.000088
C12	C	0.696035	0.178334	0.000078
C13	C	0.645879	0.256009	0.000080
C14	C	0.564083	0.248440	0.000092
C15	C	0.532446	0.163195	0.000095
C16	C	0.582608	0.085513	0.000096
C17	C	0.664401	0.093084	0.000091
C18	C	0.288813	0.131819	0.000117
C19	C	0.207013	0.124255	0.000120
C20	C	0.188494	0.287183	0.000117
C21	C	0.270290	0.294745	0.000107
C22	C	0.320445	0.217064	0.000112
N23	N	0.448838	0.155456	0.000104
N24	N	0.404051	0.224804	0.000109
C25	C	0.931991	0.025705	0.000099
C26	C	0.930335	-0.074496	0.000092
C27	C	0.851909	-0.492567	0.000099
C28	C	0.994758	-0.503761	0.000115
C29	C	0.996315	-0.409617	0.000110
C30	C	0.925668	-0.356944	0.000101
C31	C	0.853464	-0.398414	0.000097
C32	C	1.068518	-0.368139	0.000123
C33	C	1.070078	-0.273990	0.000119
C34	C	0.999430	-0.221316	0.000104
C35	C	0.927223	-0.262792	0.000099
C36	C	0.856576	-0.210118	0.000090
C37	C	0.784368	-0.251593	0.000079
C38	C	0.782816	-0.345740	0.000082
C39	C	1.000983	-0.127169	0.000101
C40	C	0.858131	-0.115966	0.000088
C41	C	1.069804	0.193880	0.000118
C42	C	1.156857	0.201930	0.000122
C43	C	0.920900	0.354559	0.000106
C44	C	0.922556	0.454760	0.000108
N45	N	0.916140	0.201210	0.216440
N46	N	0.936757	0.179048	-0.216232
C47	C	0.967322	0.146023	0.260138
C48	C	0.963170	0.150505	0.347544
C49	C	0.907840	0.210178	0.391251
C50	C	0.856653	0.265367	0.347546
C51	C	0.860801	0.260880	0.260141
C52	C	0.889719	0.229750	0.652659
C53	C	0.885576	0.234235	0.740070
C54	C	0.992092	0.119371	0.740062
C55	C	0.996239	0.114894	0.652655
C56	C	0.945049	0.170079	0.608958
N57	N	0.903597	0.214762	0.480594
N58	N	0.949289	0.165490	0.519617
H59	H	0.296043	0.364160	0.000094
H60	H	0.811598	0.313950	0.383137
C61	C	0.708773	-0.047108	-0.071300
C62	C	0.719539	0.007702	0.000082
H63	H	0.742817	-0.099817	-0.071304
H64	H	0.655539	-0.063816	-0.071291
H65	H	0.720674	-0.014865	-0.119718
H66	H	0.707632	-0.024539	0.048500
H67	H	0.772785	0.024409	0.000080
H68	H	1.012380	0.097435	0.224558
H69	H	1.052275	-0.546652	0.000129
H70	H	0.671631	0.325425	0.000077
H71	H	1.126034	-0.411032	0.000138
C72	C	0.457964	0.338111	0.071471
C73	C	0.508949	0.333822	0.000086
H74	H	0.423929	0.390827	0.071467
H75	H	0.427421	0.286264	0.071473
H76	H	0.487965	0.340167	0.119886
H77	H	0.478948	0.331759	-0.048330
H78	H	0.539495	0.385682	0.000076
H79	H	0.800601	-0.073086	0.000077
C80	C	0.666491	-0.216705	-0.071318
C81	C	0.706713	-0.193690	0.000070
H82	H	0.618550	-0.180959	-0.071320
H83	H	0.698403	-0.206053	-0.119727
H84	H	0.655231	-0.278711	-0.071313
H85	H	0.717979	-0.131685	0.000062
H86	H	0.674794	-0.204334	0.048491
H87	H	0.793119	-0.526340	0.000087
H88	H	1.033768	0.074441	0.775648
C89	C	1.068893	0.036545	0.338757
C90	C	1.019443	0.089857	0.395577
H91	H	1.103639	-0.000891	0.368412
H92	H	1.037844	-0.000021	0.304679
H93	H	1.098742	0.074394	0.304654
H94	H	0.989589	0.052007	0.429677
H95	H	1.050495	0.126425	0.429670
H96	H	0.724028	-0.379517	0.000074
H97	H	1.128874	-0.240230	0.000127
H98	H	0.840517	0.282831	0.775651
C99	C	0.787688	0.236528	0.554384
C100	C	0.833465	0.290420	0.604630
H101	H	0.752958	0.273989	0.524733
H102	H	0.821230	0.200352	0.515851
H103	H	0.757820	0.198705	0.588496
H104	H	0.863337	0.328239	0.570517
H105	H	0.799918	0.326612	0.643168
C106	C	1.142025	-0.147695	0.000116
C107	C	1.080345	-0.081580	0.000106
H108	H	1.191023	-0.119549	0.000112
H109	H	1.136141	-0.181694	0.048540
H110	H	1.140749	-0.186671	-0.048306
H111	H	1.081618	-0.042608	0.048532
H112	H	1.086232	-0.047567	-0.048323
C113	C	0.848578	0.377298	0.161831
C114	C	0.804544	0.321543	0.212102
H115	H	0.813843	0.414743	0.132171
H116	H	0.879624	0.413854	0.195921
H117	H	0.882121	0.341106	0.123298
H118	H	0.771005	0.357736	0.250639
H119	H	0.773484	0.284984	0.178009
C120	C	0.298890	-0.029985	0.000114
C121	C	0.343936	0.046433	0.000116
H122	H	0.332926	-0.082701	0.000109
H123	H	0.264302	-0.027066	0.048535
H124	H	0.268903	-0.032021	-0.048311
H125	H	0.373919	0.048472	0.048545
H126	H	0.378538	0.043513	-0.048309
C127	C	1.017286	-0.012017	0.554859
C128	C	1.056852	0.048864	0.604840
H129	H	1.054649	-0.052903	0.525404
H130	H	0.982782	-0.044632	0.589120
H131	H	0.987604	0.020198	0.516147
H132	H	1.086530	0.016650	0.643556
H133	H	1.091369	0.081482	0.570576
C134	C	0.089153	0.369533	-0.071255
C135	C	0.133360	0.372565	0.000121
H136	H	0.055112	0.422245	-0.071247
H137	H	0.123746	0.366625	-0.119672
H138	H	0.058609	0.317677	-0.071245
H139	H	0.163908	0.424417	0.000107
H140	H	0.098762	0.375481	0.048550
H141	H	0.556842	0.016105	0.000111
H142	H	0.181257	0.054834	0.000122
