data_functionalizedCrystal
_audit_creation_method	'MofGen! by Chris Wilmer'
_symmetry_space_group_name_H-M	'P1'
_symmetry_Int_Tables_number	1
_symmetry_cell_setting	triclinic
loop_
_symmetry_equiv_pos_as_xyz
  x,y,z
_cell_length_a	15.944551
_cell_length_b	19.188930
_cell_length_c	15.021413
_cell_angle_alpha	89.998889
_cell_angle_beta	89.997174
_cell_angle_gamma	83.321760
loop_
_atom_site_label
_atom_site_type_symbol
_atom_site_fract_x
_atom_site_fract_y
_atom_site_fract_z
O1	O	1.114192	0.090039	-0.073949
O2	O	0.869601	0.101141	-0.073973
O3	O	0.998955	-0.006048	-0.073943
O4	O	0.984838	0.197227	-0.073979
O5	O	0.998934	-0.006033	0.074121
O6	O	0.869580	0.101156	0.074091
O7	O	1.114171	0.090054	0.074115
Zn8	Zn	0.991873	0.095607	0.097611
Zn9	Zn	0.991900	0.095587	-0.097470
O10	O	0.984817	0.197242	0.074085
C11	C	0.838298	0.100687	0.000056
C12	C	0.745057	0.099306	0.000048
C13	C	0.530462	0.029563	0.000078
C14	C	0.469331	0.061941	-0.072931
C15	C	0.574341	0.096806	0.000059
C16	C	0.469332	0.061972	0.073048
C17	C	0.409437	0.094386	0.000074
C18	C	0.514438	0.129203	-0.073010
C19	C	0.514446	0.129225	0.073035
C20	C	0.453332	0.161652	0.000008
C21	C	0.669338	0.098198	0.000050
C22	C	0.314441	0.093000	0.000076
C23	C	0.998487	-0.032052	0.000091
C24	C	0.997115	-0.109560	0.000099
C25	C	1.073016	-0.154288	0.000111
C26	C	1.071726	-0.227115	0.000096
C27	C	0.994532	-0.255211	0.000088
C28	C	0.918622	-0.210474	0.000072
C29	C	0.919913	-0.137648	0.000077
N30	N	0.935519	-0.363364	0.050472
N31	N	0.934298	-0.432546	0.050468
C32	C	0.990637	-0.474630	0.000070
N33	N	1.048256	-0.444921	-0.050314
N34	N	1.049480	-0.375733	-0.050307
C35	C	0.993123	-0.334178	0.000082
C36	C	1.065145	-0.598326	0.000064
C37	C	1.063852	-0.671154	0.000044
C38	C	0.910745	-0.654511	0.000029
C39	C	0.912040	-0.581685	0.000040
C40	C	0.989242	-0.553597	0.000062
C41	C	1.145474	0.090507	0.000083
C42	C	1.238715	0.091889	0.000086
C43	C	0.985285	0.223247	0.000048
C44	C	0.986657	0.300755	0.000035
N45	N	0.991860	0.095621	0.230749
N46	N	0.991919	0.095568	-0.230607
C47	C	0.932038	0.145161	0.470418
C48	C	1.007887	0.158716	0.529757
C49	C	0.991882	0.095603	0.412356
C50	C	0.916053	0.082064	0.529759
C51	C	0.991896	0.095588	0.587780
C52	C	1.067770	0.109189	0.470388
C53	C	0.975885	0.032510	0.470384
C54	C	1.051789	0.046038	0.529697
C55	C	0.991872	0.095614	0.311299
C56	C	0.991914	0.095577	0.688835
H57	H	0.534328	0.157617	-0.134801
H58	H	0.851919	0.070620	0.555840
H59	H	1.133536	-0.263540	0.000102
H60	H	1.135880	-0.131424	0.000125
C61	C	0.575747	-0.045837	-0.000003
C62	C	0.523871	-0.108698	-0.000860
C63	C	0.569157	-0.184095	-0.000945
C64	C	0.666320	-0.196631	-0.000173
C65	C	0.718202	-0.133768	0.000684
C66	C	0.672915	-0.058371	0.000769
H67	H	0.451940	-0.099420	-0.001431
H68	H	0.530750	-0.230630	-0.001580
H69	H	0.699843	-0.252444	-0.000236
H70	H	0.790132	-0.143046	0.001255
H71	H	0.711322	-0.011836	0.001404
H72	H	0.962318	-0.020823	0.444285
H73	H	0.881481	0.187105	0.444391
H74	H	0.449344	0.033525	0.134770
C75	C	0.833707	-0.241377	0.000062
C76	C	0.811751	-0.289155	0.076944
C77	C	0.726834	-0.320058	0.076929
C78	C	0.663872	-0.303181	0.000032
C79	C	0.685827	-0.255401	-0.076855
C80	C	0.770744	-0.224498	-0.076840
H81	H	0.858360	-0.301650	0.133872
H82	H	0.710582	-0.355428	0.133846
H83	H	0.601011	-0.326057	0.000021
H84	H	0.639217	-0.242906	-0.133783
H85	H	0.786996	-0.189128	-0.133757
C86	C	0.825827	-0.685405	0.000024
C87	C	0.803874	-0.733183	0.076906
C88	C	0.718952	-0.764079	0.076900
C89	C	0.655984	-0.747196	0.000011
C90	C	0.677936	-0.699415	-0.076877
C91	C	0.762858	-0.668520	-0.076871
H92	H	0.850488	-0.745683	0.133829
H93	H	0.702702	-0.799450	0.133818
H94	H	0.593120	-0.770067	0.000006
H95	H	0.631322	-0.686916	-0.133800
H96	H	0.779107	-0.633149	-0.133789
C97	C	0.442216	0.023485	-0.156237
C98	C	0.476633	-0.053848	-0.172215
C99	C	0.449478	-0.092322	-0.255486
C100	C	0.387906	-0.053465	-0.322779
C101	C	0.353486	0.023872	-0.306804
C102	C	0.380641	0.062347	-0.223533
H103	H	0.522215	-0.082616	-0.122398
H104	H	0.474958	-0.149573	-0.267312
H105	H	0.367805	-0.081946	-0.384422
H106	H	0.307904	0.052641	-0.356620
H107	H	0.355161	0.119597	-0.211707
H108	H	1.021431	0.212066	0.555837
H109	H	0.419965	0.217516	-0.000043
C110	C	1.150063	-0.567423	0.000081
C111	C	1.233557	-0.616627	0.000082
C112	C	1.318475	-0.585726	0.000101
C113	C	1.319900	-0.505622	0.000118
C114	C	1.236403	-0.456413	0.000117
C115	C	1.151485	-0.487313	0.000099
H116	H	1.232505	-0.675930	0.000070
H117	H	1.380285	-0.622155	0.000102
H118	H	1.382761	-0.482747	0.000132
H119	H	1.237455	-0.397110	0.000130
H120	H	1.089675	-0.450885	0.000098
H121	H	1.102459	0.004119	0.555561
H122	H	0.534463	0.157649	0.134752
H123	H	0.858103	-0.101230	0.000068
H124	H	1.125662	-0.707571	0.000049
H125	H	1.131917	0.120698	0.444419
H126	H	0.850233	-0.545266	0.000035
