data_functionalizedCrystal
_audit_creation_method	'MofGen! by Chris Wilmer'
_symmetry_space_group_name_H-M	'P1'
_symmetry_Int_Tables_number	1
_symmetry_cell_setting	triclinic
loop_
_symmetry_equiv_pos_as_xyz
  x,y,z
_cell_length_a	12.759401
_cell_length_b	12.645330
_cell_length_c	12.759393
_cell_angle_alpha	90.032183
_cell_angle_beta	90.019465
_cell_angle_gamma	90.012318
loop_
_atom_site_label
_atom_site_type_symbol
_atom_site_fract_x
_atom_site_fract_y
_atom_site_fract_z
Zn1	Zn	1.606270	-0.421986	0.594004
Zn2	Zn	1.606171	-0.599290	0.418322
Zn3	Zn	1.430572	-0.422040	0.418340
Zn4	Zn	1.430567	-0.599207	0.593961
O5	O	1.518395	-0.510631	0.506157
O6	O	1.753278	-0.445518	0.570710
O7	O	1.582838	-0.575835	0.271304
O8	O	1.453923	-0.273686	0.441668
O9	O	1.753205	-0.575782	0.441637
O10	O	1.583007	-0.273646	0.570728
O11	O	1.453826	-0.445610	0.271317
O12	O	1.283551	-0.445529	0.441626
O13	O	1.453914	-0.575641	0.740988
O14	O	1.283547	-0.575693	0.570654
O15	O	1.583002	-0.445437	0.741019
O16	O	1.582833	-0.747626	0.441595
O17	O	1.453818	-0.747565	0.570636
C18	C	1.245428	-0.510609	0.506138
C19	C	1.128651	-0.510625	0.506155
C20	C	1.518343	-0.786061	0.506132
C21	C	1.518416	-0.903891	0.506156
C22	C	0.964028	-0.578372	0.438875
C23	C	1.073752	-0.578350	0.438857
C24	C	1.073821	-0.442909	0.573468
C25	C	0.964099	-0.442926	0.573479
C26	C	0.909134	-0.646109	0.371580
C27	C	0.963957	-0.713824	0.304266
C28	C	1.073681	-0.713803	0.304248
C29	C	1.128582	-0.646066	0.371544
C30	C	1.599449	-1.071449	0.424812
C31	C	1.599713	-0.948888	0.425011
C32	C	1.548444	-0.948263	0.616901
C33	C	1.549087	-1.070861	0.616469
C34	C	1.407324	-1.071220	0.477848
C35	C	1.407856	-0.948616	0.475364
C36	C	1.792429	-0.510654	0.506176
C37	C	1.909205	-0.510663	0.506185
C38	C	1.518469	-0.510524	0.780190
C39	C	1.518500	-0.510478	0.896967
C40	C	1.518477	-0.234126	0.506205
C41	C	1.518511	-0.116295	0.506225
C42	C	1.518382	-0.510661	0.233189
C43	C	1.518555	-0.510408	0.116413
C44	C	1.585726	-0.442675	0.951847
C45	C	1.585751	-0.442637	1.061571
C46	C	1.451322	-0.578214	1.061525
C47	C	1.451292	-0.578246	0.951803
C48	C	1.652934	-0.374907	0.897011
C49	C	1.720166	-0.307099	0.951892
C50	C	1.720191	-0.307060	1.061616
C51	C	1.652984	-0.374830	1.116459
H52	H	0.819792	-0.646136	0.371589
Br53	Br	1.360121	-0.670183	1.135956
Br54	Br	1.568537	-1.120721	0.287541
Br55	Br	1.370109	-0.900294	0.339530
H56	H	1.347018	-1.100222	0.537144
Br57	Br	1.735977	-1.122660	0.455741
H58	H	1.492718	-1.100522	0.679218
Br59	Br	1.652910	-0.374962	0.748100
Br60	Br	0.889452	-0.805733	0.212927
Br61	Br	1.568322	-0.898887	0.288165
Br62	Br	1.682374	-0.896948	0.657640
H63	H	1.118315	-0.768932	0.249430
H64	H	1.682066	-0.919479	0.443781
H65	H	1.217927	-0.646047	0.371517
Br66	Br	1.148329	-0.350990	0.664795
H67	H	0.919461	-0.387787	0.628284
Br68	Br	1.684546	-1.118387	0.656533
Br69	Br	1.360052	-0.670262	0.877316
Br70	Br	1.453171	-0.899695	0.720715
H71	H	1.774876	-0.251917	0.907231
Br72	Br	1.361808	-1.122917	0.345597
H73	H	1.344298	-0.917996	0.530314
Br74	Br	1.811432	-0.215039	1.136095
Br75	Br	1.653001	-0.374758	1.265372
