data_functionalizedCrystal
_audit_creation_method	'MofGen! by Chris Wilmer'
_symmetry_space_group_name_H-M	'P1'
_symmetry_Int_Tables_number	1
_symmetry_cell_setting	triclinic
loop_
_symmetry_equiv_pos_as_xyz
  x,y,z
_cell_length_a	13.339070
_cell_length_b	11.804365
_cell_length_c	19.288865
_cell_angle_alpha	78.216139
_cell_angle_beta	99.382771
_cell_angle_gamma	105.124870
loop_
_atom_site_label
_atom_site_type_symbol
_atom_site_fract_x
_atom_site_fract_y
_atom_site_fract_z
O1	O	1.361200	0.099123	0.337823
O2	O	1.861200	0.599123	0.837823
O3	O	1.066879	0.099109	0.292159
O4	O	1.566879	0.599109	0.792159
O5	O	1.222539	0.099093	0.215520
O6	O	1.722539	0.599093	0.715520
O7	O	1.205540	0.099139	0.414461
O8	O	1.705540	0.599139	0.914461
O9	O	1.181560	-0.098959	0.235668
O10	O	1.681560	0.401041	0.735668
O11	O	1.025899	-0.098943	0.312307
O12	O	1.525899	0.401057	0.812307
O13	O	1.320221	-0.098928	0.357970
O14	O	1.820221	0.401072	0.857970
Cu15	Cu	1.169318	-0.117019	0.336978
Cu16	Cu	1.669318	0.382981	0.836978
Cu17	Cu	1.217781	0.117200	0.313151
Cu18	Cu	1.717781	0.617200	0.813151
O19	O	1.164561	-0.098912	0.434609
O20	O	1.664561	0.401088	0.934609
C21	C	1.008734	0.000081	0.294519
C22	C	1.508734	0.500081	0.794519
C23	C	0.896536	0.000075	0.271527
C24	C	1.396536	0.500075	0.771527
N25	N	1.135240	-0.281756	0.353738
N26	N	1.635240	0.218244	0.853738
C27	C	1.333704	-0.655725	0.256128
C28	C	1.833704	-0.155725	0.756128
C29	C	1.359483	-0.531066	0.243446
C30	C	1.859483	-0.031066	0.743446
C31	C	1.303424	-0.468733	0.271018
C32	C	1.803424	0.031267	0.771018
C33	C	1.221582	-0.531070	0.311274
C34	C	1.721582	-0.031070	0.811274
C35	C	1.195805	-0.655741	0.323962
C36	C	1.695805	-0.155741	0.823962
C37	C	1.165526	-0.468749	0.338851
C38	C	1.665526	0.031251	0.838851
C39	C	1.083684	-0.531086	0.379108
C40	C	1.583684	-0.031086	0.879108
C41	C	1.057911	-0.655745	0.391793
C42	C	1.557911	-0.155745	0.891793
C43	C	1.113970	-0.718079	0.364221
C44	C	1.613970	-0.218079	0.864221
C45	C	1.191302	-0.344078	0.326164
C46	C	1.691302	0.155922	0.826164
C47	C	1.053404	-0.344094	0.393997
C48	C	1.553404	0.155906	0.893997
C49	C	1.027625	-0.468753	0.406679
C50	C	1.527625	0.031247	0.906679
C51	C	0.530941	0.000135	0.450301
C52	C	1.030941	0.500135	0.950301
C53	C	0.636357	0.000145	0.471905
C54	C	1.136357	0.500145	0.971905
C55	C	0.701407	0.000127	0.421812
C56	C	1.201407	0.500127	0.921812
C57	C	0.661030	0.000100	0.350112
C58	C	1.161030	0.500100	0.850112
C59	C	0.555606	0.000100	0.328505
C60	C	1.055606	0.500100	0.828505
C61	C	0.726072	0.000091	0.300016
C62	C	1.226072	0.500091	0.800016
C63	C	0.685695	0.000064	0.228316
C64	C	1.185695	0.500064	0.728316
C65	C	0.580280	0.000063	0.206712
C66	C	1.080280	0.500063	0.706712
C67	C	0.515231	0.000081	0.256805
C68	C	1.015231	0.500081	0.756805
C69	C	0.831496	0.000092	0.321623
C70	C	1.331496	0.500092	0.821623
C71	C	0.856161	0.000056	0.199827
C72	C	1.356161	0.500056	0.699827
C73	C	0.750745	0.000046	0.178223
C74	C	1.250745	0.500046	0.678223
C75	C	1.378366	0.000102	0.355610
C76	C	1.878366	0.500102	0.855610
C77	C	1.490566	0.000117	0.378601
C78	C	1.990566	0.500117	0.878601
C79	C	1.201501	0.000064	0.199611
C80	C	1.701501	0.500064	0.699611
C81	C	1.199856	0.000053	0.122188
C82	C	1.699856	0.500053	0.622188
N83	N	1.251868	0.281937	0.296387
N84	N	1.751868	0.781937	0.796387
C85	C	1.291193	0.000052	0.095291
C86	C	1.791193	0.500052	0.595291
C87	C	1.289653	0.000071	0.022541
C88	C	1.789653	0.500071	0.522541
C89	C	1.196767	0.000067	-0.023306
C90	C	1.696767	0.500067	0.476694
C91	C	1.105420	0.000075	0.003598
C92	C	1.605420	0.500075	0.503598
C93	C	1.106965	0.000068	0.076345
C94	C	1.606965	0.500068	0.576345
C95	C	1.109394	-0.069310	-0.138765
C96	C	1.609394	0.430690	0.361235
C97	C	1.107851	-0.069311	-0.211510
C98	C	1.607851	0.430689	0.288490
C99	C	1.192000	0.000093	-0.247685
C100	C	1.692000	0.500093	0.252315
C101	C	1.277705	0.069482	-0.211102
C102	C	1.777705	0.569482	0.288898
C103	C	1.279250	0.069475	-0.138354
C104	C	1.779250	0.569475	0.361646
C105	C	1.195082	0.000075	-0.102190
C106	C	1.695082	0.500075	0.397810
C107	C	1.281674	0.000114	-0.353465
C108	C	1.781674	0.500114	0.146535
C109	C	1.280132	0.000140	-0.426217
C110	C	1.780132	0.500140	0.073783
C111	C	1.095894	0.000132	-0.445159
C112	C	1.595894	0.500132	0.054841
C113	C	1.097441	0.000118	-0.372409
C114	C	1.597441	0.500118	0.127591
C115	C	1.190332	0.000103	-0.326565
C116	C	1.690332	0.500103	0.173435
C117	C	1.185599	0.000120	0.450518
C118	C	1.685599	0.500120	0.950518
C119	C	1.187245	0.000138	0.527940
C120	C	1.687245	0.500138	1.027940
H121	H	1.257939	-0.293333	0.293387
H122	H	1.757939	0.206667	0.793387
H123	H	1.379345	-0.706485	0.233687
H124	H	1.879345	-0.206485	0.733687
F125	F	1.386870	0.000071	-0.006092
F126	F	1.886870	0.500071	0.493908
F127	F	1.380534	0.000092	-0.304672
F128	F	1.880534	0.500092	0.195328
F129	F	1.009748	0.000070	0.104972
F130	F	1.509748	0.500070	0.604972
H131	H	0.960987	-0.519524	0.439457
H132	H	1.460987	-0.019524	0.939457
F133	F	0.461710	0.000171	0.503603
F134	F	0.961710	0.500171	1.003603
F135	F	1.390062	0.000062	0.144074
F136	F	1.890062	0.500062	0.644074
H137	H	1.023063	0.000113	-0.350509
H138	H	1.523063	0.500113	0.149491
F139	F	0.925388	0.000045	0.146510
F140	F	1.425388	0.500045	0.646510
F141	F	0.537318	0.000068	0.130399
F142	F	1.037318	0.500068	0.630399
H143	H	1.349033	0.125976	-0.108572
H144	H	1.849033	0.625976	0.391428
H145	H	1.354513	0.000145	-0.448115
H146	H	1.854513	0.500145	0.051885
F147	F	0.813600	0.000135	0.444808
F148	F	1.313600	0.500135	0.944808
H149	H	1.007757	-0.293343	0.416451
H150	H	1.507757	0.206657	0.916451
H151	H	1.324417	-0.367230	0.260690
H152	H	1.824417	0.132770	0.760690
F153	F	0.679323	0.000179	0.548210
F154	F	1.179323	0.500179	1.048210
F155	F	1.006566	0.000079	-0.045198
F156	F	1.506566	0.500079	0.454802
F157	F	0.403031	0.000067	0.233815
F158	F	0.903031	0.500067	0.733815
H159	H	1.346228	0.125998	-0.240554
H160	H	1.846228	0.625998	0.259446
H161	H	0.991278	-0.706501	0.424578
H162	H	1.491278	-0.206501	0.924578
H163	H	1.038062	-0.125804	-0.241291
H164	H	1.538062	0.374196	0.258709
F165	F	0.707760	0.000019	0.101916
F166	F	1.207760	0.500019	0.601916
F167	F	0.997038	0.000134	-0.493949
F168	F	1.497038	0.500134	0.006051
H169	H	0.864359	0.000109	0.380003
H170	H	1.364359	0.500109	0.880003
H171	H	1.092978	-0.819587	0.374544
H172	H	1.592978	-0.319587	0.874544
F173	F	1.446582	-0.464726	0.200606
F174	F	1.946582	0.035274	0.700606
F175	F	1.019825	-0.143186	-0.100272
F176	F	1.519825	0.356814	0.399728
