data_functionalizedCrystal
_audit_creation_method	'MofGen! by Chris Wilmer'
_symmetry_space_group_name_H-M	'P1'
_symmetry_Int_Tables_number	1
_symmetry_cell_setting	triclinic
loop_
_symmetry_equiv_pos_as_xyz
  x,y,z
_cell_length_a	10.654547
_cell_length_b	10.654541
_cell_length_c	11.892095
_cell_angle_alpha	93.927124
_cell_angle_beta	86.062459
_cell_angle_gamma	84.484992
loop_
_atom_site_label
_atom_site_type_symbol
_atom_site_fract_x
_atom_site_fract_y
_atom_site_fract_z
O1	O	1.675800	0.168455	-0.094022
O2	O	1.310322	0.185258	-0.094020
O3	O	1.501465	-0.005883	-0.094015
O4	O	1.484657	0.359595	-0.094028
O5	O	1.485528	0.010030	0.093992
O6	O	1.294385	0.201170	0.093987
O7	O	1.659863	0.184367	0.093985
Zn8	Zn	1.474593	0.195295	0.123836
Zn9	Zn	1.495592	0.174330	-0.123872
O10	O	1.468720	0.375507	0.093979
C11	C	1.255555	0.191979	-0.000017
C12	C	1.116112	0.188286	-0.000016
C13	C	0.871469	0.163975	-0.205001
C14	C	0.945675	0.157038	-0.307484
C15	C	1.076692	0.160518	-0.307481
C16	C	1.133506	0.170932	-0.204984
C17	C	1.059300	0.177869	-0.102501
C18	C	0.928281	0.174392	-0.102515
C19	C	1.041907	0.195223	0.102467
C20	C	0.910888	0.191752	0.102467
C21	C	1.098721	0.205637	0.204964
C22	C	1.024514	0.212583	0.307449
C23	C	0.893489	0.209104	0.307442
C24	C	0.836682	0.198689	0.204950
C25	C	1.492263	-0.044725	-0.000012
C26	C	1.488573	-0.184168	-0.000014
C27	C	1.717136	-0.212136	-0.000001
C28	C	1.829678	-0.291628	0.000008
C29	C	1.826203	-0.422646	0.000005
C30	C	1.710173	-0.474174	-0.000011
C31	C	1.597631	-0.394682	-0.000020
C32	C	1.601118	-0.263662	-0.000013
C33	C	1.369071	-0.366715	-0.000041
C34	C	1.372543	-0.235696	-0.000029
C35	C	1.253041	-0.418243	-0.000057
C36	C	1.140496	-0.338750	-0.000057
C37	C	1.143976	-0.207724	-0.000053
C38	C	1.260001	-0.156203	-0.000038
C39	C	1.714630	0.177645	-0.000022
C40	C	1.854074	0.181338	-0.000030
C41	C	1.477922	0.414349	-0.000027
C42	C	1.481613	0.553792	-0.000032
N43	N	1.460272	0.209602	0.292889
N44	N	1.509923	0.160013	-0.292925
C45	C	1.609578	0.060384	0.529542
C46	C	1.599577	0.070394	0.647883
C47	C	1.430262	0.239625	0.647916
C48	C	1.440264	0.229615	0.529575
C49	C	1.529926	0.139993	0.470392
C50	C	1.539933	0.129990	0.352048
C51	C	1.370613	0.299214	0.352083
C52	C	1.360611	0.309224	0.470425
H53	H	1.137111	0.154868	-0.390932
H54	H	1.240190	0.173750	-0.204991
O55	O	1.942319	-0.241435	-0.000125
C56	C	2.087199	-0.118037	-0.097541
C57	C	1.959592	-0.174779	-0.097514
H58	H	2.101216	-0.064156	-0.176283
H59	H	2.087885	-0.050666	-0.018911
H60	H	2.167012	-0.197373	-0.097482
H61	H	1.879707	-0.095529	-0.097613
H62	H	1.959014	-0.242183	-0.176137
H63	H	1.612943	0.057018	0.303862
H64	H	1.707355	-0.580859	-0.000028
H65	H	1.917845	-0.487371	0.000003
H66	H	1.070784	0.221054	0.390894
H67	H	1.250220	-0.524927	-0.000066
O68	O	0.821256	0.215998	0.406924
C69	C	0.650011	0.330791	0.525911
C70	C	0.731694	0.323121	0.413195
H71	H	0.577598	0.417409	0.531029
H72	H	0.598876	0.241919	0.531052
H73	H	0.713161	0.338766	0.599142
H74	H	0.668635	0.315188	0.339901
H75	H	0.782841	0.411995	0.408153
H76	H	1.052330	-0.143007	-0.000065
O77	O	1.027887	-0.388965	-0.000225
C78	C	0.899557	-0.528837	-0.097689
C79	C	1.027153	-0.472081	-0.097627
H80	H	0.898910	-0.596027	-0.176442
H81	H	0.885525	-0.582921	-0.019070
H82	H	0.819729	-0.449495	-0.097631
H83	H	1.107057	-0.551344	-0.097724
H84	H	1.041074	-0.417963	-0.176240
H85	H	1.682593	-0.012582	0.481354
O86	O	1.677086	-0.007000	0.705167
C87	C	1.846018	-0.175971	0.692641
C88	C	1.758339	-0.088375	0.627627
H89	H	1.911715	-0.241803	0.629979
H90	H	1.904639	-0.116554	0.748002
H91	H	1.786536	-0.234466	0.748087
H92	H	1.817723	-0.029863	0.572120
H93	H	1.699712	-0.147864	0.572338
O94	O	1.343050	0.326693	0.705242
C95	C	1.176188	0.493515	0.692801
C96	C	1.274888	0.394954	0.627740
H97	H	1.121071	0.548748	0.630169
H98	H	1.108221	0.443433	0.748175
H99	H	1.226276	0.561391	0.748239
H100	H	1.224908	0.327050	0.572240
H101	H	1.342850	0.445121	0.572438
H102	H	1.287607	0.382190	0.518625
H103	H	1.305758	0.364041	0.303909
H104	H	0.764787	0.161157	-0.205014
H105	H	1.262844	-0.049523	-0.000027
H106	H	0.899402	0.148554	-0.390935
H107	H	1.205404	0.208462	0.204959
H108	H	0.730001	0.195863	0.204934
H109	H	1.719976	-0.105454	0.000018
