data_functionalizedCrystal
_audit_creation_method	'MofGen! by Chris Wilmer'
_symmetry_space_group_name_H-M	'P1'
_symmetry_Int_Tables_number	1
_symmetry_cell_setting	triclinic
loop_
_symmetry_equiv_pos_as_xyz
  x,y,z
_cell_length_a	14.446369
_cell_length_b	19.851628
_cell_length_c	14.446369
_cell_angle_alpha	59.994421
_cell_angle_beta	89.999145
_cell_angle_gamma	60.002753
loop_
_atom_site_label
_atom_site_type_symbol
_atom_site_fract_x
_atom_site_fract_y
_atom_site_fract_z
Zr1	Zr	0.891842	0.737299	-0.121494
O2	O	0.744047	0.877841	-0.269317
O3	O	0.937140	0.596764	-0.076172
O4	O	0.937155	0.737301	-0.269301
O5	O	0.744032	0.737300	0.076147
O6	O	1.089492	0.737295	-0.269295
O7	O	0.744033	0.737304	-0.076189
O8	O	1.089466	0.485900	0.076176
O9	O	0.744058	0.988695	-0.269324
O10	O	1.070158	0.654561	-0.056847
O11	O	0.956470	0.654562	0.056836
O12	O	0.956487	0.820027	-0.170548
O13	O	0.842799	0.820028	-0.056866
Zr14	Zr	1.134801	0.737283	0.121473
Zr15	Zr	1.134802	0.737289	-0.121485
Zr16	Zr	0.891841	0.737292	0.121464
Zr17	Zr	0.891859	0.914099	-0.121506
Zr18	Zr	1.134784	0.560483	0.121484
O19	O	1.089503	0.877818	0.076151
O20	O	1.089505	0.877827	-0.269304
O21	O	0.744045	0.877831	0.076138
O22	O	1.282596	0.596741	0.269295
O23	O	1.282598	0.596750	-0.076160
O24	O	0.937138	0.596755	0.269283
O25	O	1.282612	0.737282	-0.076169
O26	O	1.089489	0.737280	0.269279
O27	O	0.937152	0.737286	0.269274
O28	O	1.282611	0.737278	0.076167
O29	O	0.937179	0.988687	-0.269317
O30	O	1.089465	0.485894	0.269296
O31	O	1.282586	0.485887	0.269303
O32	O	1.282587	0.485892	0.076183
O33	O	0.744057	0.988690	-0.076205
O34	O	0.937178	0.988682	-0.076198
O35	O	1.070157	0.654555	0.170526
O36	O	1.183845	0.654553	0.056844
O37	O	1.070174	0.820019	-0.056857
O38	O	0.956486	0.820021	0.056825
C39	C	1.013300	0.516142	0.000004
C40	C	1.013293	0.441086	0.000009
C41	C	0.951325	0.259728	0.061983
C42	C	0.906402	0.270071	-0.044921
C43	C	1.013312	0.303666	-0.000007
C44	C	1.058200	0.159607	0.106871
C45	C	1.013329	0.170921	-0.000013
C46	C	0.968326	0.315043	-0.106974
C47	C	1.120183	0.204534	0.044895
C48	C	1.075287	0.214911	-0.062074
C49	C	1.013299	0.380137	-0.000002
C50	C	1.013339	0.094456	-0.000030
C51	C	0.709416	0.737303	-0.000022
C52	C	0.606273	0.737307	-0.000026
C53	C	0.387914	0.841656	-0.071376
C54	C	0.495146	0.841726	-0.071777
C55	C	0.602944	0.685474	-0.052323
C56	C	0.495176	0.686136	-0.052846
C57	C	0.496538	0.683982	0.123713
C58	C	0.602507	0.685949	0.123518
C59	C	1.317228	0.737279	0.000000
C60	C	1.420371	0.737275	0.000004
C61	C	1.013323	0.737299	-0.303914
C62	C	1.013324	0.737302	-0.407056
C63	C	1.013343	0.958440	-0.000025
C64	C	1.013350	1.033496	-0.000030
C65	C	0.941620	0.841672	-0.518062
C66	C	0.941235	0.841710	-0.625368
C67	C	0.961392	0.685149	-0.518180
C68	C	0.960852	0.685843	-0.411343
C69	C	1.136994	0.684304	-0.410185
C70	C	1.136805	0.686243	-0.518839
C71	C	1.013320	0.737282	0.303893
C72	C	1.013320	0.737280	0.407035
C73	C	1.317207	0.516130	0.000015
C74	C	1.420342	0.441070	0.000023
C75	C	1.013299	0.516133	0.303907
C76	C	1.013291	0.441075	0.407054
C77	C	1.317205	0.516121	0.303918
C78	C	1.420340	0.441058	0.407069
C79	C	0.709439	0.958461	-0.303940
C80	C	0.606303	1.033524	-0.407091
C81	C	0.709437	0.958452	-0.000036
C82	C	0.606301	1.033512	-0.000045
C83	C	1.013345	0.958448	-0.303929
C84	C	1.013352	1.033507	-0.407076
C85	C	1.409432	0.405825	-0.059328
C86	C	1.506330	0.335307	-0.059343
C87	C	1.614136	0.300032	0.000002
C88	C	1.625044	0.335284	0.059355
C89	C	1.528147	0.405804	0.059362
C90	C	1.072631	0.405822	0.514849
C91	C	1.072619	0.335306	0.611775
C92	C	1.013274	0.300039	0.600905
C93	C	0.953927	0.335299	0.493099
C94	C	0.953933	0.405818	0.396175
C95	C	1.528128	0.405807	0.396169
C96	C	1.625043	0.335287	0.493081
C97	C	1.614169	0.300015	0.600892
C98	C	1.506370	0.335273	0.611790
C99	C	1.409457	0.405797	0.514879
C100	C	0.498516	1.068783	-0.396190
C101	C	0.401600	1.139325	-0.493102
C102	C	0.412474	1.174601	-0.600913
C103	C	0.520273	1.139338	-0.611811
C104	C	0.617187	1.068803	-0.514901
C105	C	0.617211	1.068765	0.059296
C106	C	0.520313	1.139301	0.059284
C107	C	0.412507	1.174579	-0.000064
C108	C	0.401599	1.139324	-0.059412
C109	C	0.498496	1.068794	-0.059406
C110	C	1.072709	1.068752	-0.396169
C111	C	1.072739	1.139268	-0.493077
C112	C	1.013404	1.174544	-0.600891
C113	C	0.954045	1.139292	-0.611795
C114	C	0.954023	1.068772	-0.514888
H115	H	1.210537	0.177578	0.082907
O116	O	0.486773	1.030748	-0.279914
H117	H	0.395533	1.067135	-0.288634
H118	H	0.313835	1.168024	-0.484207
H119	H	0.529217	1.167994	0.107617
O120	O	1.494647	0.297213	0.728074
H121	H	1.580152	0.242242	0.793621
O122	O	0.890081	1.177345	-0.728097
H123	H	0.924386	1.118149	-0.737961
H124	H	0.601993	0.723742	0.162587
H125	H	0.444835	0.722975	-0.143879
O126	O	1.539878	0.443852	0.279896
H127	H	1.586949	0.384653	0.270042
H128	H	0.898837	0.279471	0.114325
H129	H	0.681658	0.609769	0.181175
O130	O	1.027259	0.583430	-0.482056
H131	H	1.116596	0.544734	-0.431979
O132	O	0.486724	1.030764	-0.123401
H133	H	0.395478	1.067143	-0.164655
H134	H	0.529114	1.168069	-0.699603
O135	O	0.917895	0.402999	-0.226763
H136	H	0.918240	0.458437	-0.225815
O137	O	0.307932	1.250683	-0.705427
H138	H	0.307970	1.223636	-0.756615
O139	O	1.136724	1.030702	-0.279890
H140	H	1.178013	1.067055	-0.288606
O141	O	1.208097	0.582460	-0.306550
H142	H	1.211353	0.581591	-0.229171
H143	H	0.976040	0.882586	-0.679802
O144	O	0.889983	1.030772	-0.526657
H145	H	0.848721	1.067162	-0.617910
H146	H	0.313811	1.168058	-0.107731
O147	O	0.532898	0.582124	0.194508
H148	H	0.456739	0.581218	0.197783
H149	H	1.712809	0.306587	0.484187
O150	O	0.733440	1.030801	-0.526674
H151	H	0.799014	0.975839	-0.441181
O152	O	0.840330	0.734344	-0.411502
H153	H	0.787588	0.808515	-0.489046
H154	H	1.321695	0.434489	0.523770
O155	O	1.718703	0.223937	0.705414
H156	H	1.769885	0.251000	0.705339
H157	H	1.712833	0.306552	0.107671
H158	H	0.905615	0.434511	0.308408
H159	H	0.704984	1.040046	0.107632
O160	O	0.987460	0.896251	-0.521406
H161	H	1.061833	0.849579	-0.443984
O162	O	0.821485	0.895397	-0.519289
H163	H	0.812622	0.848086	-0.441182
H164	H	0.850006	0.882411	-0.679014
O165	O	0.307999	1.250625	-0.000030
H166	H	0.333708	1.269191	0.051229
O167	O	1.136760	1.177285	-0.481305
H168	H	1.177995	1.140916	-0.390053
O169	O	1.013415	1.250617	-0.705410
H170	H	1.064649	1.269202	-0.679702
O171	O	0.530454	0.584700	0.011553
H172	H	0.624342	0.535391	0.042924
O173	O	1.539920	0.443803	0.123400
H174	H	1.631165	0.407411	0.164672
H175	H	0.816028	0.297040	-0.082907
H176	H	1.127702	0.195372	-0.114572
H177	H	1.096155	0.093173	0.197258
O178	O	0.491910	0.895941	-0.192656
H179	H	0.568569	0.896189	-0.193366
O180	O	0.493023	0.895593	-0.025317
H181	H	0.415217	0.921833	-0.002365
H182	H	1.175603	0.724256	-0.570429
H183	H	1.194698	0.610079	-0.493306
H184	H	0.333962	0.882620	-0.036474
O185	O	1.013299	0.223963	0.705456
H186	H	0.976185	0.251028	0.756633
H187	H	0.681205	0.608698	-0.002836
O188	O	0.315126	0.895643	-0.191537
H189	H	0.236558	0.898289	-0.190902
O190	O	0.605761	0.733166	-0.171768
H191	H	0.609527	0.793777	-0.194101
H192	H	1.180416	0.717939	-0.406233
O193	O	0.430297	0.728222	0.181587
H194	H	0.342338	0.788695	0.122816
O195	O	1.136638	0.443857	0.526586
H196	H	1.177882	0.407496	0.617834
H197	H	1.009723	0.609255	-0.332724
H198	H	0.871274	0.720915	-0.569639
H199	H	1.321660	0.434545	-0.107667
H200	H	1.497427	0.306614	-0.107675
O201	O	1.718644	0.223962	0.000000
H202	H	1.692935	0.205379	-0.051234
H203	H	0.905609	0.306574	0.484266
O204	O	1.136652	0.297268	0.728044
H205	H	1.177938	0.333627	0.719309
