data_functionalizedCrystal
_audit_creation_method	'MofGen! by Chris Wilmer'
_symmetry_space_group_name_H-M	'P1'
_symmetry_Int_Tables_number	1
_symmetry_cell_setting	triclinic
loop_
_symmetry_equiv_pos_as_xyz
  x,y,z
_cell_length_a	10.654550
_cell_length_b	10.540539
_cell_length_c	9.730223
_cell_angle_alpha	90.000775
_cell_angle_beta	89.996251
_cell_angle_gamma	84.505197
loop_
_atom_site_label
_atom_site_type_symbol
_atom_site_fract_x
_atom_site_fract_y
_atom_site_fract_z
O1	O	1.667897	0.178295	-0.114396
O2	O	1.302424	0.195282	-0.114373
O3	O	1.493499	0.002079	-0.114383
O4	O	1.476822	0.371498	-0.114386
O5	O	1.493496	0.002084	0.114197
O6	O	1.302422	0.195287	0.114207
O7	O	1.667895	0.178300	0.114184
Zn8	Zn	1.485158	0.186794	0.150487
Zn9	Zn	1.485161	0.186788	-0.150677
O10	O	1.476820	0.371503	0.114194
C11	C	1.255625	0.194038	-0.000080
C12	C	1.116180	0.190306	-0.000072
C13	C	1.036734	0.304061	-0.000093
C14	C	0.905712	0.300547	-0.000116
C15	C	0.933595	0.069513	-0.000104
C16	C	1.064614	0.073028	-0.000071
C17	C	1.020636	0.437446	-0.000106
C18	C	0.889614	0.433932	-0.000129
C19	C	1.492247	-0.045221	-0.000096
C20	C	1.488505	-0.186168	-0.000103
C21	C	1.345134	-0.369543	-0.000607
C22	C	1.348927	-0.222926	-0.000093
C23	C	1.555675	-0.247847	0.130423
C24	C	1.550912	-0.394389	0.130533
C25	C	1.553753	-0.394914	-0.129405
C26	C	1.555039	-0.247933	-0.131131
C27	C	1.714694	0.179545	-0.000112
C28	C	1.854139	0.183276	-0.000129
C29	C	1.478072	0.418803	-0.000096
C30	C	1.481813	0.559750	-0.000098
N31	N	1.485165	0.186798	0.356024
N32	N	1.485164	0.186774	-0.356213
C33	C	1.569795	0.101277	0.427945
C34	C	1.569791	0.101261	0.571828
C35	C	1.400525	0.272299	0.571855
C36	C	1.400523	0.272308	0.427975
C37	C	1.667523	0.002533	0.427931
C38	C	1.667520	0.002518	0.571814
H39	H	1.049984	0.489615	0.095560
H40	H	1.758718	0.033451	0.383299
C41	C	1.068834	0.494830	-0.133411
H42	H	0.999632	0.517958	-0.192796
H43	H	1.126433	0.433644	-0.177694
H44	H	1.110155	0.568310	-0.111982
C45	C	1.483833	-0.432463	0.262338
H46	H	1.459740	-0.358400	0.315307
H47	H	1.539423	-0.489536	0.314525
H48	H	1.410929	-0.472919	0.238488
C49	C	1.307440	0.366384	0.348859
H50	H	1.319556	0.354142	0.252864
H51	H	1.321835	0.451233	0.372453
H52	H	1.223495	0.351802	0.372437
C53	C	1.626279	-0.122046	0.632100
H54	H	1.607921	-0.177511	0.559384
H55	H	1.553148	-0.103405	0.687062
H56	H	1.692349	-0.162084	0.687034
H57	H	0.891593	-0.025971	-0.000125
H58	H	0.847900	0.484188	-0.095797
C59	C	1.686512	-0.459246	0.138551
H60	H	1.744263	-0.395999	0.141738
H61	H	1.703371	-0.511429	0.059844
H62	H	1.695560	-0.510304	0.219049
H63	H	0.843956	0.474245	0.098554
H64	H	1.129295	-0.019602	-0.000034
H65	H	1.331611	0.341918	0.630454
C66	C	1.277511	-0.165341	-0.126476
H67	H	1.245910	-0.231549	-0.178594
H68	H	1.333236	-0.121962	-0.181710
H69	H	1.209299	-0.107000	-0.097086
C70	C	1.270637	-0.408146	-0.127050
H71	H	1.188423	-0.364430	-0.125438
H72	H	1.264579	-0.497460	-0.125322
H73	H	1.312945	-0.386341	-0.208408
C74	C	1.270950	-0.410302	0.125146
H75	H	1.322913	-0.470220	0.177961
H76	H	1.198321	-0.448153	0.095142
H77	H	1.245870	-0.337673	0.179938
C78	C	1.277044	-0.166482	0.126535
H79	H	1.245418	-0.233174	0.177870
H80	H	1.208844	-0.108002	0.097440
H81	H	1.332540	-0.123464	0.182440
C82	C	1.694148	-0.217711	0.136984
H83	H	1.732974	-0.255914	0.216667
H84	H	1.697359	-0.128030	0.140894
H85	H	1.737548	-0.250624	0.057436
H86	H	1.646046	-0.095040	0.388879
H87	H	1.509014	-0.205228	0.227563
C88	C	1.492726	-0.437508	-0.263053
H89	H	1.422793	-0.483343	-0.241237
H90	H	1.552840	-0.490760	-0.314025
H91	H	1.464862	-0.364686	-0.316335
H92	H	1.764039	0.024268	0.610858
H93	H	1.505891	-0.207059	-0.227690
C94	C	1.692526	-0.215305	-0.141777
H95	H	1.730360	-0.253841	-0.221814
H96	H	1.738019	-0.246469	-0.062839
H97	H	1.694021	-0.125476	-0.147259
H98	H	1.654570	-0.442176	-0.130289
