data_functionalizedCrystal
_audit_creation_method	'MofGen! by Chris Wilmer'
_symmetry_space_group_name_H-M	'P1'
_symmetry_Int_Tables_number	1
_symmetry_cell_setting	triclinic
loop_
_symmetry_equiv_pos_as_xyz
  x,y,z
_cell_length_a	21.395362
_cell_length_b	12.827892
_cell_length_c	21.395355
_cell_angle_alpha	89.986671
_cell_angle_beta	89.956060
_cell_angle_gamma	90.031271
loop_
_atom_site_label
_atom_site_type_symbol
_atom_site_fract_x
_atom_site_fract_y
_atom_site_fract_z
Zn1	Zn	0.957926	-0.415711	-0.354608
Zn2	Zn	1.457926	0.084289	0.145392
Zn3	Zn	0.957857	-0.590438	-0.249840
Zn4	Zn	1.457857	-0.090438	0.250160
Zn5	Zn	0.853141	-0.415760	-0.249809
Zn6	Zn	1.353141	0.084240	0.250191
Zn7	Zn	0.853138	-0.590459	-0.354545
Zn8	Zn	1.353138	-0.090459	0.145455
O9	O	0.905516	-0.503092	-0.302201
O10	O	1.405516	-0.003092	0.197799
O11	O	1.045595	-0.438860	-0.340750
O12	O	1.545595	0.061140	0.159250
O13	O	0.943938	-0.567278	-0.162158
O14	O	1.443938	-0.067278	0.337842
O15	O	0.867071	-0.269517	-0.263725
O16	O	1.367071	0.230483	0.236275
O17	O	1.045544	-0.567231	-0.263777
O18	O	1.545544	-0.067231	0.236223
O19	O	0.944056	-0.269482	-0.340720
O20	O	1.444056	0.230518	0.159280
O21	O	0.867004	-0.438943	-0.162136
O22	O	1.367004	0.061057	0.337864
O23	O	0.765463	-0.438963	-0.263664
O24	O	1.265463	0.061037	0.236336
O25	O	0.867067	-0.567267	-0.442231
O26	O	1.367067	-0.067267	0.057769
O27	O	0.765461	-0.567314	-0.340612
O28	O	1.265461	-0.067314	0.159388
O29	O	0.944054	-0.438881	-0.442278
O30	O	1.444054	0.061119	0.057722
O31	O	0.943935	-0.736677	-0.263716
O32	O	1.443935	-0.236677	0.236284
O33	O	0.866999	-0.736692	-0.340642
O34	O	1.366999	-0.236692	0.159358
C35	C	0.742728	-0.503147	-0.302128
C36	C	1.242728	-0.003147	0.197872
C37	C	0.673087	-0.503196	-0.302112
C38	C	1.173087	-0.003196	0.197888
C39	C	0.905476	-0.774602	-0.302189
C40	C	1.405476	-0.274602	0.197811
C41	C	0.905517	-0.890755	-0.302205
C42	C	1.405517	-0.390755	0.197795
C43	C	0.640389	-0.570117	-0.342119
C44	C	1.140389	-0.070117	0.157881
C45	C	0.574953	-0.570091	-0.342147
C46	C	1.074953	-0.070091	0.157853
C47	C	0.542218	-0.503156	-0.302156
C48	C	1.042218	-0.003156	0.197844
C49	C	0.574924	-0.436222	-0.262146
C50	C	1.074924	0.063778	0.237854
C51	C	0.640358	-0.436242	-0.262124
C52	C	1.140358	0.063758	0.237876
C53	C	0.438492	-0.494737	-0.245751
C54	C	0.938492	0.005263	0.254249
C55	C	0.373059	-0.494724	-0.245772
C56	C	0.873059	0.005276	0.254228
C57	C	0.340398	-0.503088	-0.302226
C58	C	0.840398	-0.003088	0.197774
C59	C	0.373177	-0.511486	-0.358660
C60	C	0.873177	-0.011486	0.141340
C61	C	0.438611	-0.511506	-0.358637
C62	C	0.938611	-0.011506	0.141363
C63	C	0.471266	-0.503126	-0.302176
C64	C	0.971266	-0.003126	0.197824
C65	C	0.236747	-0.569984	-0.342266
C66	C	0.736747	-0.069984	0.157734
C67	C	0.171311	-0.569951	-0.342295
C68	C	0.671311	-0.069951	0.157705
C69	C	0.171283	-0.436087	-0.262289
C70	C	0.671283	0.063913	0.237711
C71	C	0.236718	-0.436115	-0.262266
C72	C	0.736718	0.063885	0.237734
C73	C	0.269446	-0.503069	-0.302254
C74	C	0.769446	-0.003069	0.197746
C75	C	0.943595	-0.942439	-0.340339
C76	C	1.443595	-0.442439	0.159661
C77	C	0.943637	-1.062489	-0.340356
C78	C	1.443637	-0.562489	0.159644
C79	C	1.068939	-0.503037	-0.302274
C80	C	1.568939	-0.003037	0.197726
C81	C	1.138580	-0.503014	-0.302305
C82	C	1.638580	-0.003014	0.197695
C83	C	0.905568	-0.503071	-0.465624
C84	C	1.405568	-0.003071	0.034376
C85	C	0.905590	-0.503062	-0.535265
C86	C	1.405590	-0.003062	-0.035265
C87	C	0.905572	-0.230522	-0.302226
C88	C	1.405572	0.269478	0.197774
C89	C	0.905596	-0.114369	-0.302237
C90	C	1.405596	0.385631	0.197763
C91	C	0.945675	-0.436208	-0.568004
C92	C	1.445675	0.063792	-0.068004
C93	C	0.945674	-0.436163	-0.633439
C94	C	1.445674	0.063837	-0.133439
C95	C	0.905595	-0.502991	-0.666134
C96	C	1.405595	-0.002991	-0.166134
C97	C	0.865501	-0.569849	-0.633388
C98	C	1.365501	-0.069849	-0.133388
C99	C	0.865499	-0.569885	-0.567953
C100	C	1.365499	-0.069885	-0.067953
C101	C	0.900634	-0.597087	-0.769803
C102	C	1.400634	-0.097087	-0.269803
C103	C	0.900641	-0.597053	-0.835236
C104	C	1.400641	-0.097053	-0.335236
C105	C	0.905598	-0.502880	-0.867955
C106	C	1.405598	-0.002880	-0.367955
C107	C	0.910563	-0.408738	-0.835232
C108	C	1.410563	0.091262	-0.335232
C109	C	0.910560	-0.408774	-0.769798
C110	C	1.410560	0.091226	-0.269798
C111	C	0.905592	-0.502959	-0.737086
C112	C	1.405592	-0.002959	-0.237086
C113	C	0.945685	-0.435972	-0.971646
C114	C	1.445685	0.064028	-0.471646
C115	C	0.945680	-0.435925	-1.037082
C116	C	1.445680	0.064075	-0.537082
C117	C	0.865510	-0.569621	-1.037029
C118	C	1.365510	-0.069621	-0.537029
C119	C	0.865512	-0.569658	-0.971594
C120	C	1.365512	-0.069658	-0.471594
C121	C	0.905603	-0.502835	-0.938906
C122	C	1.405603	-0.002835	-0.438906
C123	C	0.905500	-0.503038	-0.139413
C124	C	1.405500	-0.003038	0.360587
C125	C	0.905599	-0.502752	-0.069772
C126	C	1.405599	-0.002752	0.430228
H127	H	0.667032	-0.624635	-0.374681
H128	H	1.167032	-0.124635	0.125319
F129	F	0.986159	-0.884112	-0.383003
F130	F	1.486159	-0.384112	0.116997
H131	H	0.832854	-0.624324	-0.541298
H132	H	1.332854	-0.124324	-0.041298
F133	F	0.136511	-0.641176	-0.384882
F134	F	0.636511	-0.141176	0.115118
F135	F	0.862943	-0.949082	-0.259550
F136	F	1.362943	-0.449082	0.240450
F137	F	0.986253	-1.120581	-0.383028
F138	F	1.486253	-0.620581	0.116972
F139	F	0.988341	-0.365084	-0.533218
F140	F	1.488341	0.134916	-0.033218
F141	F	0.988330	-0.364988	-0.668289
F142	F	1.488330	0.135012	-0.168289
H143	H	0.872997	-1.069929	-0.269585
H144	H	1.372997	-0.569929	0.230415
F145	F	0.271519	-0.364890	-0.219683
F146	F	0.771519	0.135110	0.280317
H147	H	0.914601	-0.332121	-0.743159
H148	H	1.414601	0.167879	-0.243159
F149	F	0.540147	-0.641320	-0.384730
F150	F	1.040147	-0.141320	0.115270
H151	H	0.465297	-0.518341	-0.404588
H152	H	0.965297	-0.018341	0.095412
H153	H	0.914601	-0.332054	-0.861871
H154	H	1.414601	0.167946	-0.361871
H155	H	0.263396	-0.624497	-0.374830
H156	H	0.763396	-0.124497	0.125170
H157	H	0.346375	-0.487893	-0.199820
H158	H	0.846375	0.012107	0.300180
F159	F	0.473247	-0.485838	-0.185661
F160	F	0.973247	0.014162	0.314339
H161	H	0.144630	-0.381582	-0.229731
H162	H	0.644630	0.118418	0.270269
F163	F	0.540084	-0.364980	-0.219588
F164	F	1.040084	0.135020	0.280412
F165	F	0.988350	-0.364850	-0.936854
F166	F	1.488350	0.135150	-0.436854
H167	H	0.978321	-0.381479	-1.063737
H168	H	1.478321	0.118521	-0.563737
H169	H	0.832870	-0.624022	-1.063649
H170	H	1.332870	-0.124022	-0.563649
H171	H	0.896602	-0.673709	-0.861873
H172	H	1.396602	-0.173709	-0.361873
F173	F	0.675159	-0.365012	-0.219541
F174	F	1.175159	0.134988	0.280459
F175	F	0.822849	-0.640818	-0.936750
F176	F	1.322849	-0.140818	-0.436750
F177	F	0.895371	-0.697327	-0.734987
F178	F	1.395371	-0.197327	-0.234987
F179	F	0.822844	-0.640968	-0.668184
F180	F	1.322844	-0.140968	-0.168184
H181	H	0.346585	-0.518294	-0.404630
H182	H	0.846585	-0.018294	0.095370
