data_functionalizedCrystal
_audit_creation_method	'MofGen! by Chris Wilmer'
_symmetry_space_group_name_H-M	'P1'
_symmetry_Int_Tables_number	1
_symmetry_cell_setting	triclinic
loop_
_symmetry_equiv_pos_as_xyz
  x,y,z
_cell_length_a	14.044220
_cell_length_b	14.519709
_cell_length_c	13.596369
_cell_angle_alpha	90.006934
_cell_angle_beta	89.995243
_cell_angle_gamma	91.565489
loop_
_atom_site_label
_atom_site_type_symbol
_atom_site_fract_x
_atom_site_fract_y
_atom_site_fract_z
O1	O	1.258085	-0.222370	-0.081793
O2	O	1.758085	0.277630	0.418207
O3	O	0.982102	-0.214346	-0.081795
O4	O	1.482102	0.285654	0.418205
O5	O	1.127410	-0.084710	-0.081785
O6	O	1.627410	0.415290	0.418215
O7	O	1.112776	-0.352006	-0.081803
O8	O	1.612776	0.147994	0.418197
O9	O	1.127396	-0.084701	0.081798
O10	O	1.627396	0.415299	0.581798
O11	O	0.982087	-0.214337	0.081787
O12	O	1.482087	0.285663	0.581787
O13	O	1.258070	-0.222361	0.081790
O14	O	1.758070	0.277639	0.581790
Zn15	Zn	1.120076	-0.218348	0.107761
Zn16	Zn	1.620076	0.281652	0.607761
Zn17	Zn	1.120095	-0.218359	-0.107767
Zn18	Zn	1.620095	0.281641	0.392233
O19	O	1.112761	-0.351997	0.081780
O20	O	1.612761	0.148003	0.581780
C21	C	1.126721	-0.050290	0.000006
C22	C	1.626721	0.449710	0.500006
C23	C	1.124677	0.052256	0.000007
C24	C	1.624677	0.552256	0.500007
C25	C	0.946774	-0.210829	-0.000004
C26	C	1.446774	0.289171	0.499996
C27	C	0.841531	-0.200352	-0.000005
C28	C	1.341531	0.299648	0.499995
C29	C	1.293398	-0.225878	-0.000004
C30	C	1.793398	0.274122	0.499996
C31	C	1.398641	-0.236355	-0.000009
C32	C	1.898641	0.263645	0.499991
C33	C	1.591335	-0.255510	-0.000010
C34	C	2.091335	0.244490	0.499990
C35	C	1.648842	-0.181201	-0.000005
C36	C	2.148842	0.318799	0.499995
C37	C	1.756064	-0.191859	-0.000005
C38	C	2.256064	0.308141	0.499995
C39	C	1.484104	-0.244853	-0.000010
C40	C	1.984104	0.255147	0.499990
C41	C	1.113451	-0.386417	-0.000014
C42	C	1.613451	0.113583	0.499986
C43	C	1.115494	-0.488963	-0.000021
C44	C	1.615494	0.011037	0.499979
N45	N	1.120070	-0.218340	0.254853
N46	N	1.620070	0.281660	0.754853
C47	C	1.117153	0.427758	-0.000019
C48	C	1.617153	0.927758	0.499981
C49	C	1.119243	0.323282	-0.000011
C50	C	1.619243	0.823282	0.499989
C51	C	1.120915	0.240010	-0.000005
C52	C	1.620915	0.740010	0.499995
C53	C	1.123005	0.135527	0.000000
C54	C	1.623005	0.635527	0.500000
N55	N	1.120109	-0.218360	-0.254858
N56	N	1.620109	0.281640	0.245142
C57	C	1.120094	-0.218360	0.656144
C58	C	1.620094	0.281640	1.156144
C59	C	1.120085	-0.218357	0.544492
C60	C	1.620085	0.281643	1.044492
C61	C	1.120083	-0.218351	0.455502
C62	C	1.620083	0.281649	0.955502
C63	C	1.120072	-0.218347	0.343843
C64	C	1.620072	0.281653	0.843843
H65	H	1.622626	-0.327125	-0.000015
H66	H	2.122626	0.172875	0.499985
O67	O	1.611676	-0.095687	0.000036
O68	O	2.111676	0.404313	0.500036
C69	C	1.686264	-0.028690	0.000010
C70	C	2.186264	0.471310	0.500010
H71	H	1.753532	-0.059959	0.030984
H72	H	2.253532	0.440041	0.530984
H73	H	1.665391	0.032245	0.047497
H74	H	2.165391	0.532245	0.547497
H75	H	1.700181	-0.004181	-0.078471
H76	H	2.200181	0.495819	0.421529
