data_functionalizedCrystal
_audit_creation_method	'MofGen! by Chris Wilmer'
_symmetry_space_group_name_H-M	'P1'
_symmetry_Int_Tables_number	1
_symmetry_cell_setting	triclinic
loop_
_symmetry_equiv_pos_as_xyz
  x,y,z
_cell_length_a	15.072220
_cell_length_b	15.995350
_cell_length_c	15.995350
_cell_angle_alpha	83.492375
_cell_angle_beta	89.998899
_cell_angle_gamma	90.008851
loop_
_atom_site_label
_atom_site_type_symbol
_atom_site_fract_x
_atom_site_fract_y
_atom_site_fract_z
O1	O	-0.073703	-1.110996	-0.107921
O2	O	0.426297	-0.610996	0.392079
O3	O	-0.073721	-0.867221	-0.121249
O4	O	0.426279	-0.367221	0.378751
O5	O	-0.073710	-0.995772	0.007303
O6	O	0.426290	-0.495772	0.507303
O7	O	-0.073713	-0.982444	-0.236472
O8	O	0.426287	-0.482444	0.263528
O9	O	0.073855	-0.995740	0.007296
O10	O	0.573855	-0.495740	0.507296
O11	O	0.073844	-0.867189	-0.121256
O12	O	0.573844	-0.367189	0.378744
O13	O	0.073862	-1.110964	-0.107928
O14	O	0.573862	-0.610964	0.392072
Zn15	Zn	0.097283	-0.989071	-0.114593
Zn16	Zn	0.597283	-0.489071	0.385407
Zn17	Zn	-0.097141	-0.989113	-0.114584
Zn18	Zn	0.402859	-0.489113	0.385416
O19	O	0.073852	-0.982413	-0.236480
O20	O	0.573852	-0.482413	0.263520
C21	C	0.000060	-0.836010	-0.120701
C22	C	0.500060	-0.336010	0.379299
C23	C	0.000053	-0.743060	-0.119049
C24	C	0.500053	-0.243060	0.380951
N25	N	0.229971	-0.989049	-0.114599
N26	N	0.729971	-0.489049	0.385401
N27	N	-0.229830	-0.989142	-0.114571
N28	N	0.270170	-0.489142	0.385429
C29	C	0.589173	-0.989112	-0.114580
C30	C	1.089173	-0.489112	0.385420
C31	C	0.551560	-0.920095	-0.183135
C32	C	1.051560	-0.420095	0.316865
C33	C	0.448735	-0.920254	-0.183385
C34	C	0.948735	-0.420254	0.316615
C35	C	0.410969	-0.989080	-0.114590
C36	C	0.910969	-0.489080	0.385410
C37	C	0.448266	-1.076445	-0.133671
C38	C	0.948266	-0.576445	0.366329
C39	C	0.551124	-1.076058	-0.134159
C40	C	1.051124	-0.576058	0.365841
C41	C	0.551272	-0.971542	-0.026741
C42	C	1.051272	-0.471542	0.473259
C43	C	0.448409	-0.969537	-0.027327
C44	C	0.948409	-0.469537	0.472673
C45	C	0.310255	-0.989067	-0.114593
C46	C	0.810255	-0.489067	0.385407
C47	C	0.689886	-0.989130	-0.114579
C48	C	1.189886	-0.489130	0.385421
C49	C	0.000070	-0.995205	0.038494
C50	C	0.500070	-0.495205	0.538494
C51	C	0.000065	-0.993553	0.131444
C52	C	0.500065	-0.493553	0.631444
C53	C	0.000080	-1.142175	-0.108476
C54	C	0.500080	-0.642175	0.391524
C55	C	0.000081	-1.235125	-0.110127
C56	C	0.500081	-0.735125	0.389873
C57	C	0.000071	-0.405312	-0.113117
C58	C	0.500071	0.094688	0.386883
C59	C	0.000401	-0.452746	-0.021565
C60	C	0.500401	0.047254	0.478435
C61	C	0.000063	-0.549436	-0.023217
C62	C	0.500063	-0.049436	0.476783
C63	C	0.000063	-0.572873	-0.116060
C64	C	0.500063	-0.072873	0.383940
C65	C	-0.084201	-0.531804	-0.161212
C66	C	0.415799	-0.031804	0.338788
C67	C	-0.084266	-0.435168	-0.158912
C68	C	0.415734	0.064832	0.341088
C69	C	0.083543	-0.434793	-0.160812
C70	C	0.583543	0.065207	0.339188
C71	C	0.084651	-0.531738	-0.160790
C72	C	0.584651	-0.031738	0.339210
C73	C	0.000055	-0.667570	-0.117727
C74	C	0.500055	-0.167570	0.382273
C75	C	0.000073	-0.310614	-0.111452
C76	C	0.500073	0.189386	0.388548
C77	C	0.000069	-0.982980	-0.267671
C78	C	0.500069	-0.482980	0.232329
C79	C	0.000069	-0.984631	-0.360621
C80	C	0.500069	-0.484631	0.139379
C81	C	0.000068	-0.987621	0.469192
C82	C	0.500068	-0.487621	0.969192
C83	C	-0.000270	-0.896069	0.421758
C84	C	0.499730	-0.396069	0.921758
C85	C	0.000063	-0.897721	0.325068
C86	C	0.500063	-0.397721	0.825068
C87	C	0.000066	-0.990564	0.301631
C88	C	0.500066	-0.490564	0.801631
C89	C	0.084335	-1.035702	0.342705
C90	C	0.584335	-0.535702	0.842705
C91	C	0.084405	-1.033402	0.439341
C92	C	0.584405	-0.533402	0.939341
C93	C	-0.083404	-1.035330	0.439707
C94	C	0.416596	-0.535330	0.939707
C95	C	-0.084518	-1.035308	0.342761
C96	C	0.415482	-0.535308	0.842761
C97	C	0.000068	-0.992231	0.206934
C98	C	0.500068	-0.492231	0.706934
C99	C	0.000072	-0.985956	0.563890
C100	C	0.500072	-0.485956	1.063890
H101	H	0.423519	-0.855314	-0.172016
H102	H	0.923519	-0.355314	0.327984
H103	H	0.424032	-0.905271	-0.012846
H104	H	0.924032	-0.405271	0.487154
H105	H	0.088231	-1.100617	0.471588
H106	H	0.588231	-0.600617	0.971588
H107	H	0.060568	-0.861974	0.297200
H108	H	0.560568	-0.361974	0.797200
F109	F	0.416559	-0.934890	-0.268594
F110	F	0.916559	-0.434890	0.231406
H111	H	-0.059694	-0.433165	0.014865
H112	H	0.440306	0.066835	0.514865
F113	F	0.414821	-1.030979	0.042479
F114	F	0.914821	-0.530979	0.542479
H115	H	0.575595	-1.021872	0.024275
H116	H	1.075595	-0.521872	0.524275
H117	H	0.577399	-0.931160	-0.247952
H118	H	1.077399	-0.431160	0.252048
H119	H	0.422498	-1.092297	-0.197002
H120	H	0.922498	-0.592297	0.302998
F121	F	0.166131	-0.567342	-0.117640
F122	F	0.666131	-0.067342	0.382360
H123	H	0.423801	-1.129029	-0.085068
H124	H	0.923801	-0.629029	0.414932
F125	F	0.583902	-0.834935	-0.168510
F126	F	1.083902	-0.334935	0.331490
F127	F	-0.166012	-0.992504	0.306761
F128	F	0.333988	-0.492504	0.806761
H129	H	0.147395	-1.000460	0.457639
H130	H	0.647395	-0.500460	0.957639
H131	H	-0.147255	-0.416873	-0.125979
H132	H	0.352745	0.083127	0.374021
H133	H	0.575106	-1.091540	-0.198219
H134	H	1.075106	-0.591540	0.301781
H135	H	0.576003	-1.129019	-0.086195
H136	H	1.076003	-0.629019	0.413805
F137	F	0.079014	-0.586581	0.023175
F138	F	0.579014	-0.086581	0.523175
F139	F	-0.084143	-1.123557	0.481221
F140	F	0.415857	-0.623557	0.981221
F141	F	0.079387	-0.428516	0.026264
F142	F	0.579387	0.071484	0.526264
F143	F	-0.089265	-0.393015	-0.246766
F144	F	0.410735	0.106985	0.253234
H145	H	0.087471	-1.103910	0.328579
H146	H	0.587471	-0.603910	0.828579
H147	H	0.147042	-1.004325	0.314320
H148	H	0.647042	-0.504325	0.814320
F149	F	0.585212	-0.890067	-0.002771
F150	F	1.085212	-0.390067	0.497229
H151	H	0.089741	-0.547102	-0.228494
H152	H	0.589741	-0.047102	0.271506
F153	F	-0.079152	-0.585844	0.023306
F154	F	0.420848	-0.085844	0.523306
H155	H	-0.089603	-1.103014	0.327400
H156	H	0.410397	-0.603014	0.827400
F157	F	-0.088314	-0.550286	-0.250359
F158	F	0.411686	-0.050286	0.249641
H159	H	-0.146912	-0.560191	-0.129845
H160	H	0.353088	-0.060191	0.370155
F161	F	0.167027	-0.407938	-0.121693
F162	F	0.667027	0.092062	0.378307
F163	F	0.078055	-0.848312	0.447646
F164	F	0.578055	-0.348312	0.947646
F165	F	0.084289	-0.393280	-0.249040
F166	F	0.584289	0.106720	0.250960
H167	H	-0.060344	-0.862238	0.296649
H168	H	0.439656	-0.362238	0.796649
H169	H	-0.060701	-0.859490	0.440293
H170	H	0.439299	-0.359490	0.940293
H171	H	-0.147274	-1.005411	0.460250
H172	H	0.352726	-0.505411	0.960250
