data_functionalizedCrystal
_audit_creation_method	'MofGen! by Chris Wilmer'
_symmetry_space_group_name_H-M	'P1'
_symmetry_Int_Tables_number	1
_symmetry_cell_setting	triclinic
loop_
_symmetry_equiv_pos_as_xyz
  x,y,z
_cell_length_a	20.919309
_cell_length_b	14.628931
_cell_length_c	14.628931
_cell_angle_alpha	90.000000
_cell_angle_beta	62.591806
_cell_angle_gamma	57.441951
loop_
_atom_site_label
_atom_site_type_symbol
_atom_site_fract_x
_atom_site_fract_y
_atom_site_fract_z
Zr1	Zr	0.700763	-0.158947	0.919621
O2	O	0.834326	-0.312340	0.781093
O3	O	0.567200	-0.106772	0.956932
O4	O	0.700763	-0.304908	0.964365
O5	O	0.700763	0.036229	0.773660
O6	O	0.700763	-0.304908	1.114797
O7	O	0.700763	-0.114203	0.773660
O8	O	0.461843	0.049522	1.101500
O9	O	0.939682	-0.318201	0.786957
O10	O	0.622136	-0.090745	1.091338
O11	O	0.622136	0.021521	0.979073
O12	O	0.779389	-0.211760	0.987825
O13	O	0.779389	-0.099494	0.875559
Zr14	Zr	0.700762	0.080975	1.159543
Zr15	Zr	0.700762	-0.158947	1.159542
Zr16	Zr	0.700762	0.080974	0.919621
Zr17	Zr	0.868794	-0.168296	0.928973
Zr18	Zr	0.532731	0.090323	1.150191
O19	O	0.834324	0.028799	1.122231
O20	O	0.834325	-0.312339	1.122231
O21	O	0.834325	0.028798	0.781093
O22	O	0.567199	0.234367	1.298070
O23	O	0.567200	-0.106771	1.298070
O24	O	0.567200	0.234366	0.956932
O25	O	0.700762	-0.114202	1.305503
O26	O	0.700762	0.226936	1.114798
O27	O	0.700762	0.226936	0.964366
O28	O	0.700762	0.036230	1.305504
O29	O	0.939682	-0.318201	0.977663
O30	O	0.461843	0.240228	1.101501
O31	O	0.461842	0.240229	1.292207
O32	O	0.461843	0.049523	1.292206
O33	O	0.939682	-0.127495	0.786957
O34	O	0.939681	-0.127495	0.977663
O35	O	0.622136	0.133787	1.091339
O36	O	0.622136	0.021521	1.203604
O37	O	0.779389	-0.099494	1.100090
O38	O	0.779389	0.012772	0.987825
C39	C	0.490581	-0.027293	1.027884
C40	C	0.419247	-0.023324	1.023914
C41	C	0.700763	-0.038987	0.739476
C42	C	0.700763	-0.038987	0.637623
C43	C	0.700762	0.261119	1.039582
C44	C	0.700762	0.362972	1.039582
C45	C	0.385735	-0.080061	1.080647
C46	C	0.318704	-0.076321	1.076919
C47	C	0.285192	-0.015850	1.016451
C48	C	0.318708	0.040894	0.959716
C49	C	0.385732	0.037160	0.963451
C50	C	0.082817	-0.001638	1.002249
C51	C	0.015790	0.002088	0.998516
C52	C	0.015790	-0.115125	1.115721
C53	C	0.082820	-0.118860	1.119445
C54	C	0.116326	-0.062111	1.062715
C55	C	0.216679	-0.012029	1.012637
C56	C	0.184834	-0.065926	1.066536
C57	C	0.910944	-0.050680	1.051280
C58	C	0.982277	-0.054649	1.055250
C59	C	0.700763	-0.339092	1.039581
C60	C	0.700763	-0.440945	1.039581
C61	C	0.778770	0.348350	0.988232
C62	C	0.778771	0.453619	0.988231
C63	C	0.622755	0.021045	0.643563
C64	C	0.622754	0.021046	0.538294
C65	C	0.700762	-0.038986	1.339687
C66	C	0.700762	-0.038986	1.441540
C67	C	0.490580	-0.027292	1.327989
C68	C	0.419246	-0.023323	1.425872
C69	C	0.490580	0.272813	1.027884
C70	C	0.419246	0.378635	1.023914
C71	C	0.490580	0.272814	1.327990
C72	C	0.419246	0.378636	1.425873
C73	C	0.910945	-0.350786	0.751173
C74	C	0.982279	-0.456608	0.653290
C75	C	0.910944	-0.050681	0.751174
C76	C	0.982278	-0.054649	0.653291
C77	C	0.910944	-0.350786	1.051279
C78	C	0.982278	-0.456608	1.055249
C79	C	0.385747	-0.080071	1.413238
C80	C	0.318731	-0.076365	1.505200
C81	C	0.285210	-0.015903	1.609797
C82	C	0.318716	0.040846	1.622430
C83	C	0.385735	0.037132	1.530468
C84	C	0.385747	0.486942	1.080651
C85	C	0.318731	0.586381	1.076917
C86	C	0.285210	0.577512	1.016452
C87	C	0.318716	0.469193	0.959708
C88	C	0.385736	0.369756	0.963436
C89	C	0.385746	0.369729	1.530451
C90	C	0.318730	0.469151	1.622433
C91	C	0.285209	0.577477	1.609833
C92	C	0.318715	0.586381	1.505243
C93	C	0.385735	0.486961	1.413265
C94	C	1.015786	-0.447702	0.548712
C95	C	1.082824	-0.547125	0.456732
C96	C	1.116348	-0.655452	0.469332
C97	C	1.082838	-0.664355	0.573921
C98	C	1.015806	-0.564934	0.665899
C99	C	1.015784	0.002088	0.665926
C100	C	1.082819	-0.001646	0.573964
C101	C	1.116342	-0.062111	0.469368
C102	C	1.082834	-0.118855	0.456735
C103	C	1.015805	-0.115128	0.548696
C104	C	1.015777	-0.447701	1.115725
C105	C	1.082794	-0.547122	1.119477
C106	C	1.116315	-0.655449	1.062745
C107	C	1.082810	-0.664353	1.002267
C108	C	1.015789	-0.564933	0.998523
H109	H	0.291418	-0.122520	1.123117
H110	H	0.110104	-0.168100	1.168683
N111	N	0.789232	-0.107071	0.435021
H112	H	0.825143	-0.078347	0.394775
H113	H	0.825067	-0.191046	0.394802
N114	N	0.421859	0.098346	1.544110
H115	H	0.489139	0.040864	1.510771
H116	H	0.390382	0.137205	1.624346
H117	H	0.413029	0.281533	1.540731
H118	H	0.413001	0.494229	1.328115
N119	N	0.979630	-0.330877	1.176935
H120	H	0.912348	-0.284820	1.232158
H121	H	0.991357	-0.289291	1.123777
H122	H	1.170929	-0.736398	0.394429
H123	H	-0.011498	-0.161327	1.161910
N124	N	0.421890	0.496525	1.145875
H125	H	0.390494	0.580233	1.181242
H126	H	0.489174	0.455622	1.095810
H127	H	0.291413	0.090072	1.707604
H128	H	0.291412	0.674594	1.495000
N129	N	0.212911	0.684696	1.709052
H130	H	0.157289	0.733848	1.706009
H131	H	0.236299	0.729384	1.710363
H132	H	0.845554	0.257898	0.944266
N133	N	0.979678	-0.574553	0.933271
H134	H	0.932135	-0.495141	0.939496
H135	H	0.951924	-0.615333	0.962492
H136	H	1.170888	-0.736395	1.065803
N137	N	0.282590	0.703204	1.138130
H138	H	0.333730	0.709315	1.110249
H139	H	0.254766	0.713634	1.218547
N140	N	0.421883	-0.145293	1.145858
H141	H	0.390478	-0.180666	1.181233
H142	H	0.410220	-0.090839	1.204126
N143	N	0.867243	0.437252	0.930003
H144	H	0.854703	0.514773	0.938259
H145	H	0.903112	0.392969	0.850031
N146	N	1.118938	-0.537512	1.184692
H147	H	1.107267	-0.573938	1.243031
H148	H	1.087523	-0.453780	1.219978
H149	H	0.988495	-0.359506	0.538432
H150	H	-0.011491	0.051331	0.949271
N151	N	1.118957	-0.537517	0.343931
H152	H	1.146749	-0.496769	0.336521
H153	H	1.067774	-0.492434	0.332197
H154	H	0.230639	0.658489	1.013425
N155	N	1.119000	-0.781197	0.587503
H156	H	1.166544	-0.842819	0.513361
H157	H	1.067816	-0.787223	0.626960
N158	N	0.118948	0.059572	0.941070
H159	H	0.087547	0.098443	0.902198
H160	H	0.186231	0.002028	0.885900
N161	N	0.282552	0.459632	0.894504
H162	H	0.294211	0.496083	0.836184
H163	H	0.215281	0.500468	0.944602
N164	N	0.282560	0.106128	0.894506
H165	H	0.235016	0.099883	0.900745
H166	H	0.333750	0.072512	0.815402
N167	N	0.421877	0.098362	0.902267
H168	H	0.390478	0.137236	0.863393
H169	H	0.489160	0.040812	0.847098
H170	H	0.988525	-0.572199	0.751049
H171	H	0.988495	0.051333	0.751085
N172	N	0.220977	-0.131153	1.131749
H173	H	0.209317	-0.076764	1.190075
H174	H	0.288247	-0.193862	1.081660
N175	N	1.118951	0.059562	0.587604
H176	H	1.087532	0.098439	0.667820
H177	H	1.107292	0.119124	0.549799
N178	N	1.118974	-0.781195	0.941074
H179	H	1.067848	-0.787335	0.968959
H180	H	1.166528	-0.842746	0.952647
H181	H	0.189386	0.037207	0.963404
H182	H	0.555971	0.072444	0.726583
N183	N	1.188638	-0.066126	0.370186
H184	H	1.204770	-0.021001	0.394072
H185	H	1.165263	-0.031496	0.322865
H186	H	0.633974	0.571408	1.083549
N187	N	0.421873	0.252961	0.902177
H188	H	0.370739	0.246839	0.930042
H189	H	0.469446	0.191342	0.913686
N190	N	0.612290	0.482778	1.097823
H191	H	0.608679	0.525270	1.043841
H192	H	0.608738	0.525168	1.156560
N193	N	0.534282	0.089116	0.544815
H194	H	0.546821	0.079464	0.468690
H195	H	0.498411	0.173082	0.585106
H196	H	0.767547	-0.090379	0.554603
H197	H	0.413040	-0.129320	1.328078
H198	H	1.110139	-0.168085	0.371561
H199	H	0.988526	-0.161327	0.538393
N200	N	0.282587	0.459545	1.735234
H201	H	0.333726	0.414408	1.747040
H202	H	0.254762	0.418857	1.742570
N203	N	0.282606	-0.137578	1.491550
H204	H	0.254796	-0.105277	1.447731
H205	H	0.235102	-0.126050	1.565709
N206	N	0.212926	-0.011905	1.708979
H207	H	0.196794	-0.057031	1.685093
H208	H	0.157351	0.070583	1.751909
