data_functionalizedCrystal
_audit_creation_method	'MofGen! by Chris Wilmer'
_symmetry_space_group_name_H-M	'P1'
_symmetry_Int_Tables_number	1
_symmetry_cell_setting	triclinic
loop_
_symmetry_equiv_pos_as_xyz
  x,y,z
_cell_length_a	16.120530
_cell_length_b	25.639239
_cell_length_c	16.120297
_cell_angle_alpha	87.131297
_cell_angle_beta	89.871860
_cell_angle_gamma	87.134054
loop_
_atom_site_label
_atom_site_type_symbol
_atom_site_fract_x
_atom_site_fract_y
_atom_site_fract_z
Zn1	Zn	1.247330	-0.264883	0.534536
Zn2	Zn	1.254246	-0.348114	0.395469
Zn3	Zn	1.115324	-0.256048	0.388455
Zn4	Zn	1.108202	-0.347633	0.527439
O5	O	1.181275	-0.304170	0.461475
O6	O	1.364612	-0.279823	0.521994
O7	O	1.241692	-0.332406	0.278174
O8	O	1.132921	-0.184058	0.407868
O9	O	1.369693	-0.340973	0.419823
O10	O	1.229905	-0.190549	0.515193
O11	O	1.139627	-0.264765	0.273020
O12	O	0.998015	-0.264298	0.400986
O13	O	1.120783	-0.340152	0.644745
O14	O	0.992782	-0.331585	0.503096
O15	O	1.223000	-0.279356	0.649960
O16	O	1.234787	-0.421212	0.412941
O17	O	1.127489	-0.420858	0.509898
C18	C	0.965226	-0.296931	0.450510
C19	C	0.872799	-0.293847	0.445839
C20	C	0.703571	-0.288206	0.437318
C21	C	0.659817	-0.320174	0.485692
C22	C	0.565653	-0.317035	0.480951
C23	C	0.797744	-0.291344	0.442058
C24	C	1.181138	-0.440006	0.461430
C25	C	1.181153	-0.498121	0.461442
C26	C	1.237279	-0.858668	0.411087
C27	C	1.237311	-0.913274	0.411099
O28	O	1.284889	-0.941661	0.368236
N29	N	1.181419	-0.940415	0.461537
C30	C	1.125497	-0.912948	0.511972
O31	O	1.077960	-0.941048	0.554875
C32	C	1.125470	-0.858344	0.511963
C33	C	1.181360	-0.831205	0.461515
C34	C	1.293166	-0.831529	0.360644
C35	C	1.293133	-0.776927	0.360630
C36	C	1.237214	-0.749464	0.411059
C37	C	1.181327	-0.776603	0.461502
C38	C	1.069553	-0.830878	0.562401
C39	C	1.069531	-0.776270	0.562388
C40	C	1.125421	-0.749131	0.511941
C41	C	1.125375	-0.694538	0.511917
N42	N	1.181267	-0.667396	0.461479
C43	C	1.237187	-0.694860	0.411050
C44	C	1.125559	-1.027621	0.511988
C45	C	1.125581	-1.082224	0.511993
C46	C	1.237397	-1.082546	0.411121
C47	C	1.237370	-1.027942	0.411113
C48	C	1.181451	-1.000480	0.461550
C49	C	1.237113	-0.580191	0.411025
C50	C	1.237072	-0.525584	0.411013
C51	C	1.125260	-0.525267	0.511887
C52	C	1.125297	-0.579869	0.511896
C53	C	1.181230	-0.607330	0.461463
O54	O	1.077824	-0.666116	0.554760
O55	O	1.284723	-0.666754	0.368163
C56	C	1.398168	-0.311437	0.472483
C57	C	1.490595	-0.314534	0.477173
C58	C	1.170326	-0.310686	0.678368
C59	C	1.165659	-0.313462	0.770795
C60	C	1.181436	-0.167804	0.461539
C61	C	1.181504	-0.109693	0.461567
C62	C	1.192231	-0.297643	0.245427
C63	C	1.197058	-0.294724	0.153009
C64	C	1.157110	-0.318520	0.940019
C65	C	1.205605	-0.289668	0.983790
C66	C	1.200848	-0.292482	1.077952
C67	C	1.161866	-0.315706	0.845849
H68	H	0.670314	-0.258482	0.392347
O69	O	1.291561	-0.606805	0.362078
C70	C	1.373491	-0.596723	0.384539
H71	H	1.373536	-0.558089	0.416596
H72	H	1.413852	-0.594278	0.326450
H73	H	1.399335	-0.629650	0.428730
O74	O	1.071149	-1.001025	0.561001
C75	C	1.021843	-1.036696	0.605531
H76	H	1.020739	-1.074509	0.571324
H77	H	0.955862	-1.019036	0.611020
H78	H	1.049055	-1.045387	0.670254
O79	O	0.699577	-0.355572	0.539390
C80	C	0.747135	-0.329121	0.595683
H81	H	0.761551	-0.289013	0.567114
H82	H	0.807679	-0.352760	0.609779
H83	H	0.710633	-0.324200	0.655677
H84	H	1.282585	-0.503490	0.369930
O85	O	1.347513	-0.750652	0.311612
C86	C	1.396858	-0.786609	0.267099
H87	H	1.397995	-0.826641	0.301318
H88	H	1.462824	-0.772728	0.261612
H89	H	1.369658	-0.789535	0.202375
H90	H	1.338706	-0.853884	0.319579
H91	H	1.282881	-1.005849	0.370035
H92	H	1.250696	-0.262854	0.950546
O93	O	1.291745	-1.109316	0.362273
C94	C	1.279795	-1.163330	0.373123
H95	H	1.249195	-1.171784	0.435858
H96	H	1.342396	-1.185949	0.370805
H97	H	1.238132	-1.175936	0.321482
H98	H	1.079789	-0.601967	0.552977
H99	H	1.024037	-0.852965	0.603477
H100	H	1.080062	-1.104316	0.553064
H101	H	1.079729	-0.502898	0.552943
O102	O	1.015132	-0.749673	0.611410
C103	C	0.965831	-0.785342	0.655951
H104	H	0.964718	-0.823155	0.621748
H105	H	0.899852	-0.767680	0.661450
H106	H	0.993053	-0.794032	0.720670
H107	H	1.112023	-0.345331	0.973262
