data_functionalizedCrystal
_audit_creation_method	'MofGen! by Chris Wilmer'
_symmetry_space_group_name_H-M	'P1'
_symmetry_Int_Tables_number	1
_symmetry_cell_setting	triclinic
loop_
_symmetry_equiv_pos_as_xyz
  x,y,z
_cell_length_a	18.101398
_cell_length_b	18.101395
_cell_length_c	18.101389
_cell_angle_alpha	90.016841
_cell_angle_beta	90.024802
_cell_angle_gamma	90.028835
loop_
_atom_site_label
_atom_site_type_symbol
_atom_site_fract_x
_atom_site_fract_y
_atom_site_fract_z
Zn1	Zn	1.132121	-0.294952	0.418856
Zn2	Zn	1.132017	-0.418778	0.295018
Zn3	Zn	1.008280	-0.294950	0.295016
Zn4	Zn	1.008231	-0.418751	0.418806
O5	O	1.070162	-0.356858	0.356924
O6	O	1.235740	-0.311390	0.402451
O7	O	1.115580	-0.402362	0.191385
O8	O	1.024772	-0.191317	0.311464
O9	O	1.235664	-0.402364	0.311467
O10	O	1.115757	-0.191319	0.402449
O11	O	1.024671	-0.311386	0.191384
O12	O	0.904641	-0.311360	0.311415
O13	O	1.024688	-0.402319	0.522445
O14	O	0.904604	-0.402317	0.402363
O15	O	1.115710	-0.311364	0.522482
O16	O	1.115532	-0.522407	0.311418
O17	O	1.024587	-0.522388	0.402365
C18	C	0.877752	-0.356836	0.356884
C19	C	0.795437	-0.356844	0.356884
C20	C	0.644729	-0.356860	0.356918
C21	C	0.613373	-0.299550	0.299791
C22	C	0.527755	-0.299335	0.299979
C23	C	0.496347	-0.356875	0.356949
C24	C	0.527486	-0.336055	0.435084
C25	C	0.613131	-0.335631	0.434735
C26	C	0.613125	-0.435137	0.336598
C27	C	0.527474	-0.434724	0.334895
C28	C	0.412487	-0.356884	0.356972
C29	C	0.728589	-0.356848	0.356900
C30	C	1.070063	-0.549268	0.356902
C31	C	1.070088	-0.631582	0.356918
C32	C	1.070251	-0.930673	0.356958
C33	C	1.013163	-0.899367	0.414321
C34	C	1.012892	-0.813749	0.414141
C35	C	1.070170	-0.782291	0.356938
C36	C	1.049041	-0.813427	0.278887
C37	C	1.048673	-0.899072	0.279230
C38	C	1.148593	-0.899024	0.376959
C39	C	1.148132	-0.813373	0.378671
C40	C	1.070126	-0.698431	0.356923
C41	C	1.070293	-1.014533	0.356968
C42	C	1.263324	-0.356880	0.356965
C43	C	1.345638	-0.356890	0.356982
C44	C	1.070205	-0.356839	0.550086
C45	C	1.070223	-0.356831	0.632400
C46	C	1.070282	-0.163696	0.356962
C47	C	1.070333	-0.081382	0.356978
C48	C	1.070162	-0.356823	0.164514
C49	C	1.070287	-0.356622	0.082200
C50	C	1.070266	-0.356692	0.931491
C51	C	1.012801	-0.413737	0.900143
C52	C	1.012956	-0.414001	0.814524
C53	C	1.070244	-0.356761	0.783109
C54	C	1.148270	-0.377948	0.814216
C55	C	1.147949	-0.378323	0.899861
C56	C	1.050385	-0.278334	0.899913
C57	C	1.048649	-0.278787	0.814262
C58	C	1.070237	-0.356799	0.699249
C59	C	1.070279	-0.356656	1.015351
H60	H	0.507118	-0.450428	0.277392
H61	H	1.192915	-0.791955	0.339937
H62	H	0.992380	-0.792037	0.261641
H63	H	0.507146	-0.376526	0.478826
H64	H	0.991229	-0.262809	0.793930
H65	H	1.025796	-0.471464	0.921670
N66	N	0.502081	-0.226582	0.316923
N67	N	0.462683	-0.215982	0.372617
H68	H	0.444552	-0.164597	0.384589
H69	H	0.506086	-0.479685	0.373442
H70	H	1.026252	-0.919926	0.472382
H71	H	1.092240	-0.235833	0.920188
H72	H	1.087450	-0.234029	0.792877
H73	H	0.954768	-0.400614	0.920728
N74	N	0.639184	-0.315649	0.226894
N75	N	0.706925	-0.315717	0.213523
H76	H	0.725165	-0.327091	0.162040
H77	H	0.955448	-0.920949	0.401238
N78	N	1.172755	-0.926077	0.447141
N79	N	1.132522	-0.969018	0.483272
H80	H	1.149579	-0.988127	0.532839
N81	N	0.501345	-0.315634	0.227310
N82	N	0.546167	-0.327246	0.176100
H83	H	0.527519	-0.338756	0.124773
H84	H	0.634921	-0.241876	0.313108
N85	N	1.169073	-0.450185	0.924936
N86	N	1.125816	-0.487241	0.963968
H87	H	1.140733	-0.537996	0.981673
H88	H	1.191125	-0.919268	0.335180
H89	H	0.506066	-0.279480	0.452562
N90	N	0.638221	-0.263864	0.456287
N91	N	0.592478	-0.214439	0.471480
H92	H	0.610194	-0.163751	0.486702
N93	N	0.940371	-0.397365	0.788144
N94	N	0.889243	-0.385478	0.832987
H95	H	0.837976	-0.373732	0.814360
H96	H	0.633877	-0.375576	0.478772
N97	N	1.029531	-0.486849	0.788858
N98	N	1.085180	-0.497708	0.749469
H99	H	1.096913	-0.549159	0.731354
N100	N	1.203482	-0.328462	0.925872
N101	N	1.242355	-0.293502	0.880771
H102	H	1.281576	-0.258288	0.899138
H103	H	1.026111	-0.792696	0.472015
N104	N	0.640173	-0.458981	0.266314
N105	N	0.683077	-0.418567	0.230342
H106	H	0.702180	-0.435398	0.180700
N107	N	0.638569	-0.488691	0.388794
N108	N	0.679796	-0.469395	0.440752
H109	H	0.697769	-0.507212	0.477618
H110	H	0.954823	-0.793321	0.400891
H111	H	0.991406	-0.919110	0.262288
N112	N	1.098556	-0.925048	0.223769
N113	N	1.133526	-0.879921	0.184929
H114	H	1.168747	-0.898263	0.145752
N115	N	1.099567	-0.787865	0.223813
N116	N	1.151835	-0.746314	0.241516
H117	H	1.187521	-0.728260	0.202621
H118	H	1.164066	-0.793021	0.436113
H119	H	1.192236	-0.337705	0.793869
H120	H	1.165415	-0.434620	0.792775
N121	N	0.980240	-0.254126	0.926970
N122	N	0.929016	-0.240436	0.882721
H123	H	0.879472	-0.223347	0.901829
