data_functionalizedCrystal
_audit_creation_method	'MofGen! by Chris Wilmer'
_symmetry_space_group_name_H-M	'P1'
_symmetry_Int_Tables_number	1
_symmetry_cell_setting	triclinic
loop_
_symmetry_equiv_pos_as_xyz
  x,y,z
_cell_length_a	25.639242
_cell_length_b	25.639233
_cell_length_c	25.639239
_cell_angle_alpha	89.980699
_cell_angle_beta	90.034185
_cell_angle_gamma	89.978417
loop_
_atom_site_label
_atom_site_type_symbol
_atom_site_fract_x
_atom_site_fract_y
_atom_site_fract_z
Zn1	Zn	0.799223	-0.295732	-0.208286
Zn2	Zn	1.299223	0.204268	0.291714
Zn3	Zn	0.799145	-0.208296	-0.295704
Zn4	Zn	1.299145	0.291704	0.204296
Zn5	Zn	0.711799	-0.208297	-0.208277
Zn6	Zn	1.211799	0.291703	0.291723
Zn7	Zn	0.711743	-0.295686	-0.295684
Zn8	Zn	1.211743	0.204314	0.204316
O9	O	0.755478	-0.252003	-0.251988
O10	O	1.255478	0.247997	0.248012
O11	O	0.872378	-0.284152	-0.219894
O12	O	1.372378	0.215848	0.280106
O13	O	0.787550	-0.135131	-0.284112
O14	O	1.287550	0.364869	0.215888
O15	O	0.723452	-0.219915	-0.135113
O16	O	1.223452	0.280085	0.364887
O17	O	0.872321	-0.219913	-0.284120
O18	O	1.372321	0.280087	0.215880
O19	O	0.787682	-0.284153	-0.135119
O20	O	1.287682	0.215847	0.364881
O21	O	0.723377	-0.135132	-0.219879
O22	O	1.223377	0.364868	0.280121
O23	O	0.638627	-0.219871	-0.219860
O24	O	1.138627	0.280129	0.280140
O25	O	0.723357	-0.368858	-0.284085
O26	O	1.223357	0.131142	0.215915
O27	O	0.638586	-0.284075	-0.284077
O28	O	1.138586	0.215925	0.215923
O29	O	0.787628	-0.368891	-0.219874
O30	O	1.287628	0.131109	0.280126
O31	O	0.787496	-0.219868	-0.368867
O32	O	1.287496	0.280132	0.131133
O33	O	0.723282	-0.284074	-0.368852
O34	O	1.223282	0.215926	0.131148
C35	C	0.619635	-0.251969	-0.251966
C36	C	1.119635	0.248031	0.248034
C37	C	0.561521	-0.251967	-0.251969
C38	C	1.061521	0.248033	0.248031
C39	C	0.310340	-0.218629	-0.218494
C40	C	0.810340	0.281371	0.281506
C41	C	0.364945	-0.218623	-0.218489
C42	C	0.864945	0.281377	0.281511
O43	O	0.393192	-0.190249	-0.189997
O44	O	0.893192	0.309751	0.310003
N45	N	0.392247	-0.251993	-0.251975
N46	N	0.892247	0.248007	0.248025
C47	C	0.364943	-0.285376	-0.285465
C48	C	0.864943	0.214624	0.214535
O49	O	0.393180	-0.313759	-0.313947
O50	O	0.893180	0.186241	0.186053
C51	C	0.310339	-0.285385	-0.285467
C52	C	0.810339	0.214615	0.214533
C53	C	0.283040	-0.252008	-0.251982
C54	C	0.783040	0.247992	0.248018
C55	C	0.283040	-0.185256	-0.185011
C56	C	0.783040	0.314744	0.314989
C57	C	0.228440	-0.185262	-0.185017
C58	C	0.728440	0.314738	0.314983
C59	C	0.201139	-0.218641	-0.218505
C60	C	0.701139	0.281359	0.281495
C61	C	0.228439	-0.252014	-0.251987
C62	C	0.728439	0.247986	0.248013
C63	C	0.283036	-0.318770	-0.318953
C64	C	0.783036	0.181230	0.181047
C65	C	0.228429	-0.318776	-0.318952
C66	C	0.728429	0.181224	0.181048
C67	C	0.201129	-0.285400	-0.285467
C68	C	0.701129	0.214600	0.214533
C69	C	0.146538	-0.285400	-0.285481
C70	C	0.646538	0.214600	0.214519
N71	N	0.119235	-0.252029	-0.251995
N72	N	0.619235	0.247971	0.248005
C73	C	0.146536	-0.218650	-0.218507
C74	C	0.646536	0.281350	0.281493
C75	C	0.479613	-0.285355	-0.285458
C76	C	0.979613	0.214645	0.214542
C77	C	0.534216	-0.285344	-0.285459
C78	C	1.034216	0.214656	0.214541
C79	C	0.534214	-0.218591	-0.218482
C80	C	1.034214	0.281409	0.281518
C81	C	0.479610	-0.218600	-0.218484
C82	C	0.979610	0.281400	0.281516
C83	C	0.452311	-0.251985	-0.251971
C84	C	0.952311	0.248015	0.248029
C85	C	0.031871	-0.218665	-0.218522
C86	C	0.531871	0.281335	0.281478
C87	C	-0.022735	-0.218673	-0.218532
C88	C	0.477265	0.281327	0.281468
C89	C	-0.022728	-0.285427	-0.285506
C90	C	0.477272	0.214573	0.214494
C91	C	0.031873	-0.285418	-0.285498
C92	C	0.531873	0.214582	0.214502
C93	C	0.059171	-0.252035	-0.252002
C94	C	0.559171	0.247965	0.247998
O95	O	0.118256	-0.313761	-0.313958
O96	O	0.618256	0.186239	0.186042
O97	O	0.118292	-0.190276	-0.190025
O98	O	0.618292	0.309724	0.309975
C99	C	0.755495	-0.388376	-0.251979
C100	C	1.255495	0.111624	0.248021
C101	C	0.755502	-0.446490	-0.251975
C102	C	1.255502	0.053510	0.248025
C103	C	0.789010	-0.806876	-0.218440
C104	C	1.289010	-0.306876	0.281560
C105	C	0.789016	-0.861481	-0.218426
C106	C	1.289016	-0.361481	0.281574
O107	O	0.817464	-0.889737	-0.189976
O108	O	1.317464	-0.389737	0.310024
N109	N	0.755559	-0.888773	-0.251852
N110	N	1.255559	-0.388773	0.248148
C111	C	0.722090	-0.861457	-0.285291
C112	C	1.222090	-0.361457	0.214709
O113	O	0.693632	-0.889685	-0.313721
O114	O	1.193632	-0.389685	0.186279
C115	C	0.722081	-0.806854	-0.285302
C116	C	1.222081	-0.306854	0.214698
C117	C	0.755544	-0.779565	-0.251878
C118	C	1.255544	-0.279565	0.248122
C119	C	0.822470	-0.779587	-0.185018
C120	C	1.322470	-0.279587	0.314982
C121	C	0.822464	-0.724986	-0.185034
C122	C	1.322464	-0.224986	0.314966
C123	C	0.788998	-0.697675	-0.218471
C124	C	1.288998	-0.197675	0.281529
C125	C	0.755538	-0.724964	-0.251893
C126	C	1.255538	-0.224964	0.248107
C127	C	0.688610	-0.779540	-0.318738
C128	C	1.188610	-0.279540	0.181262
C129	C	0.688603	-0.724933	-0.318747
C130	C	1.188603	-0.224933	0.181253
C131	C	0.722066	-0.697644	-0.285322
C132	C	1.222066	-0.197644	0.214678
C133	C	0.722067	-0.643052	-0.285346
C134	C	1.222067	-0.143052	0.214654
N135	N	0.755524	-0.615760	-0.251920
N136	N	1.255524	-0.115760	0.248080
C137	C	0.788989	-0.643072	-0.218482
C138	C	1.288989	-0.143072	0.281518
C139	C	0.722110	-0.976128	-0.285264
C140	C	1.222110	-0.476128	0.214736
C141	C	0.722121	-1.030730	-0.285255
C142	C	1.222121	-0.530730	0.214745
C143	C	0.789047	-1.030750	-0.218390
C144	C	1.289047	-0.530750	0.281610
C145	C	0.789038	-0.976146	-0.218401
C146	C	1.289038	-0.476146	0.281599
C147	C	0.755567	-0.948836	-0.251838
C148	C	1.255567	-0.448836	0.248162
C149	C	0.788975	-0.528407	-0.218517
C150	C	1.288975	-0.028407	0.281483
C151	C	0.788968	-0.473801	-0.218537
C152	C	1.288968	0.026199	0.281463
C153	C	0.722040	-0.473787	-0.285401
C154	C	1.222040	0.026213	0.214599
C155	C	0.722049	-0.528387	-0.285383
C156	C	1.222049	-0.028387	0.214617
C157	C	0.755518	-0.555696	-0.251937
C158	C	1.255518	-0.055696	0.248063
O159	O	0.693632	-0.614761	-0.313780
O160	O	1.193632	-0.114761	0.186220
O161	O	0.817437	-0.614837	-0.190053
O162	O	1.317437	-0.114837	0.309947
C163	C	0.891851	-0.252037	-0.252010
C164	C	1.391851	0.247963	0.247990
C165	C	0.949965	-0.252052	-0.252020
C166	C	1.449965	0.247948	0.247980
C167	C	0.755388	-0.251977	-0.387830
C168	C	1.255388	0.248023	0.112170
C169	C	0.755398	-0.251984	-0.445944
C170	C	1.255398	0.248016	0.054056
C171	C	0.755491	-0.116160	-0.251959
C172	C	1.255491	0.383840	0.248041
C173	C	0.755585	-0.058047	-0.251816
C174	C	1.255585	0.441953	0.248184
C175	C	0.722035	-0.285424	-0.697142
C176	C	1.222035	0.214576	-0.197142
C177	C	0.722016	-0.285418	-0.642538
C178	C	1.222016	0.214582	-0.142538
O179	O	0.693564	-0.313832	-0.614305
O180	O	1.193564	0.186168	-0.114305
N181	N	0.755464	-0.252012	-0.615218
N182	N	1.255464	0.247988	-0.115218
C183	C	0.788937	-0.218613	-0.642505
C184	C	1.288937	0.281387	-0.142505
O185	O	0.817386	-0.190198	-0.614254
O186	O	1.317386	0.309802	-0.114254
C187	C	0.788959	-0.218622	-0.697109
C188	C	1.288959	0.281378	-0.197109
C189	C	0.755505	-0.252027	-0.724426
C190	C	1.255505	0.247973	-0.224426
C191	C	0.688584	-0.318827	-0.724460
C192	C	1.188584	0.181173	-0.224460
C193	C	0.688603	-0.318832	-0.779060
C194	C	1.188603	0.181168	-0.279060
C195	C	0.722073	-0.285435	-0.806343
C196	C	1.222073	0.214565	-0.306343
C197	C	0.755524	-0.252032	-0.779026
C198	C	1.255524	0.247968	-0.279026
C199	C	0.822434	-0.185226	-0.724395
C200	C	1.322434	0.314774	-0.224395
C201	C	0.822453	-0.185238	-0.779002
C202	C	1.322453	0.314762	-0.279002
C203	C	0.788999	-0.218643	-0.806319
C204	C	1.288999	0.281357	-0.306319
C205	C	0.789012	-0.218640	-0.860910
C206	C	1.289012	0.281360	-0.360910
N207	N	0.755564	-0.252046	-0.888230
N208	N	1.255564	0.247954	-0.388230
C209	C	0.722094	-0.285444	-0.860947
C210	C	1.222094	0.214556	-0.360947
C211	C	0.788890	-0.218597	-0.527835
C212	C	1.288890	0.281403	-0.027835
C213	C	0.788866	-0.218585	-0.473232
C214	C	1.288866	0.281415	0.026768
C215	C	0.721945	-0.285391	-0.473269
C216	C	1.221945	0.214609	0.026731
C217	C	0.721967	-0.285400	-0.527872
C218	C	1.221967	0.214600	-0.027872
C219	C	0.755442	-0.252003	-0.555155
C220	C	1.255442	0.247997	-0.055155
C221	C	0.722136	-0.285452	-0.975612
C222	C	1.222136	0.214548	-0.475612
C223	C	0.722156	-0.285453	-1.030217
C224	C	1.222156	0.214547	-0.530217
C225	C	0.789079	-0.218649	-1.030176
C226	C	1.289079	0.281351	-0.530176
C227	C	0.789057	-0.218646	-0.975575
C228	C	1.289057	0.281354	-0.475575
C229	C	0.755584	-0.252052	-0.948295
C230	C	1.255584	0.247948	-0.448295
O231	O	0.817451	-0.190242	-0.889178
O232	O	1.317451	0.309758	-0.389178
O233	O	0.693655	-0.313859	-0.889205
O234	O	1.193655	0.186141	-0.389205
C235	C	0.755582	-0.252040	-0.115615
C236	C	1.255582	0.247960	0.384385
C237	C	0.755626	-0.252055	-0.057501
C238	C	1.255626	0.247945	0.442499
H239	H	0.206204	-0.345964	-0.346220
H240	H	0.706204	0.154036	0.153780
F241	F	0.686361	-0.320954	-0.556940
F242	F	1.186361	0.179046	-0.056940
F243	F	0.199392	-0.149743	-0.149373
F244	F	0.699392	0.350257	0.350627
F245	F	-0.051786	-0.183147	-0.182892
F246	F	0.448214	0.316853	0.317108
H247	H	0.457386	-0.191424	-0.191216
H248	H	0.957386	0.308576	0.308784
F249	F	0.686438	-0.557431	-0.320960
F250	F	1.186438	-0.057431	0.179040
H251	H	0.816327	-0.191456	-1.052400
H252	H	1.316327	0.308544	-0.552400
H253	H	0.661360	-0.801749	-0.345956
H254	H	1.161360	-0.301749	0.154044
H255	H	0.816101	-0.191378	-0.450995
H256	H	1.316101	0.308622	0.049005
H257	H	0.849722	-0.801818	-0.157787
H258	H	1.349722	-0.301818	0.342213
H259	H	0.054090	-0.191484	-0.191243
H260	H	0.554090	0.308516	0.308757
H261	H	0.816148	-0.191397	-0.550045
H262	H	1.316148	0.308603	-0.050045
H263	H	0.694913	-0.312656	-1.052456
H264	H	1.194913	0.187344	-0.552456
F265	F	0.686425	-0.444710	-0.320985
F266	F	1.186425	0.055290	0.179015
F267	F	0.824594	-0.557463	-0.182918
F268	F	1.324594	-0.057463	0.317082
F269	F	0.686323	-0.320935	-0.444222
F270	F	1.186323	0.179065	0.055778
F271	F	0.686510	-0.321006	-0.946585
F272	F	1.186510	0.178994	-0.446585
H273	H	0.054101	-0.312591	-0.312768
H274	H	0.554101	0.187409	0.187232
H275	H	0.694878	-1.052945	-0.312479
H276	H	1.194878	-0.552945	0.187521
F277	F	0.858077	-0.695950	-0.149456
F278	F	1.358077	-0.195950	0.350544
H279	H	0.694853	-0.953895	-0.312495
H280	H	1.194853	-0.453895	0.187505
H281	H	0.556439	-0.312517	-0.312731
H282	H	1.056439	0.187483	0.187269
F283	F	0.858045	-0.149676	-0.695334
F284	F	1.358045	0.350324	-0.195334
H285	H	0.849715	-0.158044	-0.801212
H286	H	1.349715	0.341956	-0.301212
F287	F	0.824652	-0.183083	-0.946502
F288	F	1.324652	0.316917	-0.446502
F289	F	0.652977	-0.695870	-0.354335
F290	F	1.152977	-0.195870	0.145665
F291	F	0.824586	-0.444761	-0.182962
F292	F	1.324586	0.055239	0.317038
H293	H	0.661361	-0.346033	-0.801297
H294	H	1.161361	0.153967	-0.301297
F295	F	0.563279	-0.183066	-0.182841
F296	F	1.063279	0.316934	0.317159
F297	F	0.312088	-0.149728	-0.149364
F298	F	0.812088	0.350272	0.350636
F299	F	0.312079	-0.354294	-0.354592
F300	F	0.812079	0.145706	0.145408
F301	F	0.450564	-0.320886	-0.321106
F302	F	0.950564	0.179114	0.178894
F303	F	-0.051793	-0.320944	-0.321151
F304	F	0.448207	0.179056	0.178849
H305	H	0.816286	-0.953931	-0.191183
H306	H	1.316286	-0.453931	0.308817
F307	F	0.824664	-1.059826	-0.182801
F308	F	1.324664	-0.559826	0.317199
F309	F	0.652959	-0.354377	-0.695431
F310	F	1.152959	0.145623	-0.195431
