data_functionalizedCrystal
_audit_creation_method	'MofGen! by Chris Wilmer'
_symmetry_space_group_name_H-M	'P1'
_symmetry_Int_Tables_number	1
_symmetry_cell_setting	triclinic
loop_
_symmetry_equiv_pos_as_xyz
  x,y,z
_cell_length_a	12.759401
_cell_length_b	12.759400
_cell_length_c	12.759393
_cell_angle_alpha	89.969510
_cell_angle_beta	89.980324
_cell_angle_gamma	90.015111
loop_
_atom_site_label
_atom_site_type_symbol
_atom_site_fract_x
_atom_site_fract_y
_atom_site_fract_z
Zn1	Zn	1.606266	-0.418204	-0.593985
Zn2	Zn	1.606158	-0.593919	-0.418305
Zn3	Zn	1.430565	-0.418256	-0.418324
Zn4	Zn	1.430557	-0.593842	-0.593946
O5	O	1.518387	-0.506055	-0.506140
O6	O	1.753273	-0.441523	-0.570689
O7	O	1.582823	-0.570671	-0.271286
O8	O	1.453921	-0.271228	-0.441650
O9	O	1.753193	-0.570620	-0.441618
O10	O	1.583008	-0.271189	-0.570707
O11	O	1.453816	-0.441612	-0.271300
O12	O	1.283543	-0.441538	-0.441612
O13	O	1.453908	-0.570489	-0.740972
O14	O	1.283537	-0.570540	-0.570641
O15	O	1.583000	-0.441448	-0.741001
O16	O	1.582815	-0.740930	-0.441580
O17	O	1.453802	-0.740874	-0.570623
C18	C	1.245419	-0.506037	-0.506125
C19	C	1.128643	-0.506055	-0.506144
C20	C	1.073823	-0.438955	-0.573455
C21	C	0.964099	-0.438966	-0.573462
C22	C	0.964024	-0.573185	-0.438844
C23	C	1.073746	-0.573168	-0.438832
C24	C	1.518324	-0.779023	-0.506118
C25	C	1.518394	-0.895799	-0.506144
C26	C	1.585645	-0.950656	-0.439025
C27	C	1.585710	-1.060380	-0.439058
C28	C	1.451262	-1.060381	-0.573330
C29	C	1.451204	-0.950659	-0.573302
C30	C	1.663264	-0.950656	-0.361501
C31	C	1.663329	-1.060380	-0.361534
C32	C	1.792420	-0.506074	-0.506155
C33	C	1.909196	-0.506082	-0.506162
C34	C	1.518465	-0.505954	-0.780173
C35	C	1.518499	-0.505911	-0.896950
C36	C	1.518478	-0.232022	-0.506185
C37	C	1.518517	-0.115245	-0.506204
C38	C	1.585722	-0.438709	-0.951829
C39	C	1.585740	-0.438664	-1.061553
C40	C	1.451308	-0.573032	-1.061510
C41	C	1.451285	-0.573072	-0.951788
C42	C	1.518369	-0.506080	-0.233172
C43	C	1.518539	-0.505827	-0.116396
H44	H	0.919470	-0.384325	-0.628271
O45	O	1.386079	-0.638421	-1.114668
C46	C	1.409016	-0.743145	-1.087859
H47	H	1.449383	-0.745353	-1.008197
H48	H	1.463034	-0.778514	-1.149611
C49	C	1.256990	-0.804067	-1.180609
C50	C	1.306562	-0.806780	-1.082763
H51	H	1.193793	-0.843322	-1.177470
H52	H	1.241539	-0.733513	-1.198674
H53	H	1.302015	-0.833539	-1.232059
H54	H	1.261542	-0.777296	-1.031318
H55	H	1.322004	-0.877331	-1.064689
O56	O	1.637577	-1.096062	-0.264422
C57	C	1.720379	-1.157403	-0.224554
H58	H	1.796578	-1.134645	-0.265326
H59	H	1.703274	-1.243827	-0.239414
C60	C	1.637413	-1.166357	-0.055780
C61	C	1.731004	-1.138399	-0.105850
H62	H	1.643965	-1.154639	0.017443
H63	H	1.581625	-1.125034	-0.082640
H64	H	1.623169	-1.238376	-0.068174
H65	H	1.745239	-1.066379	-0.093466
H66	H	1.786794	-1.179710	-0.078985
H67	H	1.640449	-0.384020	-0.907183
O68	O	0.910647	-0.638494	-0.373618
C69	C	0.847181	-0.706415	-0.433325
H70	H	0.880286	-0.712998	-0.516055
H71	H	0.764030	-0.673949	-0.437011
C72	C	0.804800	-0.807488	-0.280198
C73	C	0.845465	-0.815580	-0.381807
H74	H	0.803736	-0.874825	-0.248418
H75	H	0.847554	-0.761726	-0.239971
H76	H	0.735511	-0.780429	-0.283283
H77	H	0.914757	-0.842626	-0.378718
H78	H	0.802722	-0.861349	-0.422032
O79	O	1.386128	-0.638409	-0.898356
C80	C	1.445909	-0.706309	-0.834903
H81	H	1.525539	-0.669268	-0.818488
H82	H	1.457430	-0.784156	-0.877172
C83	C	1.290275	-0.770851	-0.750823
C84	C	1.388076	-0.725352	-0.730655
H85	H	1.254600	-0.782602	-0.686521
H86	H	1.249999	-0.725109	-0.793576
H87	H	1.299890	-0.835718	-0.786051
H88	H	1.378459	-0.660480	-0.695441
H89	H	1.428350	-0.771084	-0.687895
H90	H	1.634138	-0.916707	-0.284175
O91	O	1.386028	-1.113837	-0.638461
C92	C	1.400521	-1.222444	-0.624119
H93	H	1.434978	-1.237469	-0.543072
H94	H	1.456458	-1.253482	-0.686492
C95	C	1.251927	-1.260404	-0.733219
C96	C	1.294239	-1.278858	-0.633672
H97	H	1.186368	-1.295205	-0.739116
H98	H	1.242164	-1.187233	-0.742886
H99	H	1.298550	-1.286269	-0.785186
H100	H	1.247621	-1.252981	-0.581708
H101	H	1.303991	-1.352026	-0.623996
H102	H	1.118517	-0.384304	-0.628261
O103	O	1.755547	-1.100759	-0.396531
C104	C	1.773913	-1.066457	-0.499982
H105	H	1.728323	-0.991092	-0.514921
H106	H	1.747049	-1.129385	-0.557406
C107	C	1.947844	-1.138348	-0.496887
C108	C	1.891857	-1.045779	-0.515232
H109	H	2.020598	-1.125597	-0.506297
H110	H	1.935470	-1.161462	-0.427191
H111	H	1.925446	-1.190780	-0.544743
H112	H	1.914246	-0.993354	-0.467368
H113	H	1.904238	-1.022656	-0.584920
H114	H	1.118381	-0.627810	-0.384014
H115	H	1.396452	-0.905996	-0.627964
H116	H	1.744608	-0.920798	-0.383353
H117	H	1.640479	-0.383939	-1.106230
