data_functionalizedCrystal
_audit_creation_method	'MofGen! by Chris Wilmer'
_symmetry_space_group_name_H-M	'P1'
_symmetry_Int_Tables_number	1
_symmetry_cell_setting	triclinic
loop_
_symmetry_equiv_pos_as_xyz
  x,y,z
_cell_length_a	15.944551
_cell_length_b	22.610064
_cell_length_c	15.944551
_cell_angle_alpha	89.994607
_cell_angle_beta	96.501262
_cell_angle_gamma	90.010792
loop_
_atom_site_label
_atom_site_type_symbol
_atom_site_fract_x
_atom_site_fract_y
_atom_site_fract_z
O1	O	1.114537	0.049124	-0.108330
O2	O	0.869988	0.049139	-0.121686
O3	O	0.998941	0.049126	0.007267
O4	O	0.985585	0.049137	-0.237283
O5	O	0.998903	-0.049243	0.007267
O6	O	0.869950	-0.049230	-0.121686
O7	O	1.114500	-0.049245	-0.108330
Zn8	Zn	0.992219	-0.064856	-0.115008
Zn9	Zn	0.992269	0.064750	-0.115008
O10	O	0.985547	-0.049232	-0.237283
C11	C	0.838675	-0.000044	-0.121132
C12	C	0.745429	-0.000038	-0.119470
N13	N	0.992191	-0.153308	-0.115007
C14	C	0.530572	-0.000054	-0.035565
C15	C	0.469571	0.048449	-0.074528
C16	C	0.574703	-0.000045	-0.116462
C17	C	0.469556	-0.048535	-0.074547
C18	C	0.409790	-0.000055	-0.113551
C19	C	0.514930	0.048498	-0.155447
C20	C	0.514921	-0.048530	-0.155455
C21	C	0.453937	-0.000015	-0.194476
C22	C	0.669705	-0.000039	-0.118137
C23	C	0.314789	-0.000057	-0.111883
C24	C	1.043214	-0.561951	-0.165976
C25	C	1.043224	-0.623870	-0.165974
O26	O	1.086572	-0.655890	-0.209304
N27	N	0.992285	-0.654845	-0.114999
C28	C	0.941338	-0.623897	-0.064015
O29	O	0.898012	-0.655930	-0.020656
C30	C	0.941333	-0.561979	-0.064014
C31	C	0.992269	-0.531007	-0.114999
C32	C	1.094146	-0.530979	-0.216957
C33	C	1.094134	-0.469063	-0.216960
C34	C	1.043190	-0.438119	-0.165982
C35	C	0.992257	-0.469091	-0.115002
C36	C	0.890391	-0.531032	-0.013026
C37	C	0.890390	-0.469109	-0.013028
C38	C	0.941326	-0.438137	-0.064014
C39	C	0.941300	-0.376232	-0.064028
N40	N	0.992239	-0.345257	-0.115003
C41	C	1.043184	-0.376200	-0.165981
C42	C	0.941354	-0.753931	-0.064022
C43	C	0.941355	-0.815849	-0.064028
C44	C	1.043242	-0.815817	-0.165986
C45	C	1.043237	-0.753899	-0.165984
C46	C	0.992294	-0.722956	-0.114998
C47	C	1.043155	-0.246173	-0.165984
C48	C	1.043136	-0.184252	-0.165985
C49	C	0.941252	-0.184289	-0.064024
C50	C	0.941267	-0.246204	-0.064026
C51	C	0.992225	-0.277145	-0.115008
O52	O	0.897977	-0.344173	-0.020717
O53	O	1.086512	-0.344161	-0.209325
C54	C	1.145813	-0.000061	-0.108885
C55	C	1.239059	-0.000063	-0.110547
C56	C	0.998367	-0.000059	0.038561
C57	C	0.996705	-0.000059	0.131807
N58	N	0.992303	0.153202	-0.115002
C59	C	0.986120	-0.000046	-0.268577
C60	C	0.987782	-0.000042	-0.361823
C61	C	0.912801	-0.000046	0.346663
C62	C	0.951744	-0.048550	0.407681
C63	C	0.993698	-0.000054	0.302533
C64	C	0.951801	0.048434	0.407664
C65	C	0.990787	-0.000047	0.467445
C66	C	1.032664	-0.048599	0.362322
C67	C	1.032709	0.048429	0.362299
C68	C	1.071711	-0.000087	0.423298
C69	C	0.995372	-0.000059	0.207530
C70	C	0.989119	-0.000047	0.562446
H71	H	0.563905	0.000003	0.031573
H72	H	0.449454	-0.089539	-0.040315
O73	O	0.832656	-0.000017	0.307022
C74	C	0.698951	0.050613	0.286058
C75	C	0.789682	0.050650	0.331020
H76	H	0.664186	0.091580	0.305430
H77	H	0.664541	0.009242	0.304582
H78	H	0.700978	0.051007	0.214819
H79	H	0.787732	0.050278	0.402267
H80	H	0.824056	0.092018	0.312427
H81	H	0.917512	-0.089553	0.427789
O82	O	0.891846	-0.845840	-0.014430
C83	C	0.790750	-0.839323	0.086659
C84	C	0.846789	-0.805286	0.030540
H85	H	0.754293	-0.806549	0.123019
H86	H	0.832024	-0.868288	0.133084
H87	H	0.744399	-0.868336	0.045368
H88	H	0.893147	-0.776241	0.071763
H89	H	0.805462	-0.776358	-0.015890
O90	O	1.073374	-0.097557	0.338333
C91	C	1.120653	-0.152466	0.222991
C92	C	1.074519	-0.097004	0.250043
H93	H	1.121610	-0.152032	0.151610
H94	H	1.086386	-0.193767	0.242003
H95	H	1.188178	-0.152639	0.255353
H96	H	1.006993	-0.096774	0.217695
H97	H	1.108852	-0.055728	0.231047
H98	H	1.138919	-0.000118	0.456457
O99	O	0.445647	0.097321	-0.033577
C100	C	0.457930	0.152595	0.096444
C101	C	0.485072	0.097221	0.050168
H102	H	0.489807	0.152539	0.164155
H103	H	0.386477	0.152346	0.096840
H104	H	0.477458	0.193921	0.062568
H105	H	0.465602	0.055865	0.084008
H106	H	0.556524	0.097522	0.049765
O107	O	0.840939	-0.561201	0.036428
C108	C	0.795834	-0.656593	0.081686
C109	C	0.851864	-0.622502	0.025618
H110	H	0.804660	-0.706161	0.072979
H111	H	0.726845	-0.644474	0.063009
H112	H	0.814561	-0.644377	0.150632
H113	H	0.833211	-0.634700	-0.043344
H114	H	0.920840	-0.634624	0.044366
H115	H	1.066911	0.089434	0.342168
O116	O	0.538952	-0.097384	-0.196363
C117	C	0.605591	-0.135430	-0.313489
C118	C	0.578400	-0.080048	-0.267263
H119	H	0.637505	-0.121433	-0.370811
H120	H	0.547714	-0.163497	-0.334947
H121	H	0.651739	-0.162365	-0.268886
H122	H	0.532271	-0.053067	-0.311817
H123	H	0.636316	-0.052025	-0.245791
O124	O	0.840822	-0.439143	0.036522
C125	C	0.739810	-0.445715	0.137694
C126	C	0.795891	-0.479722	0.081609
H127	H	0.703482	-0.478508	0.174175
H128	H	0.693358	-0.416750	0.096452
H129	H	0.781126	-0.416703	0.184024
H130	H	0.754643	-0.508765	0.035271
H131	H	0.842349	-0.508649	0.122903
H132	H	0.917590	0.089444	0.427741
H133	H	0.899772	-0.159083	-0.022522
O134	O	0.538935	0.097455	-0.196177
C135	C	0.654294	0.152365	-0.243480
C136	C	0.627224	0.096904	-0.197322
H137	H	0.725675	0.151931	-0.244437
H138	H	0.635296	0.193667	-0.209229
H139	H	0.621931	0.152535	-0.311005
H140	H	0.659573	0.096676	-0.129796
H141	H	0.646206	0.055627	-0.231638
O142	O	0.414410	0.000123	-0.274665
C143	C	0.392749	0.051367	-0.407874
C144	C	0.437553	0.051288	-0.317079
H145	H	0.411457	0.092724	-0.442198
H146	H	0.321476	0.051012	-0.406079
H147	H	0.412191	0.010393	-0.442582
H148	H	0.418180	0.092255	-0.282318
H149	H	0.508817	0.051613	-0.318935
H150	H	1.084614	-0.159038	-0.207507
O151	O	1.092771	-0.276158	-0.215462
C152	C	1.234139	-0.295084	-0.248336
C153	C	1.178052	-0.261079	-0.192254
H154	H	1.303102	-0.282914	-0.229581
H155	H	1.215473	-0.282892	-0.317304
H156	H	1.225362	-0.344658	-0.239603
H157	H	1.186801	-0.211497	-0.200913
H158	H	1.196732	-0.273319	-0.123306
O159	O	1.143701	-0.439073	-0.266502
C160	C	1.244731	-0.445601	-0.367657
C161	C	1.188645	-0.479632	-0.311577
H162	H	1.281070	-0.478377	-0.404128
H163	H	1.291173	-0.416625	-0.326411
H164	H	1.203417	-0.416598	-0.413994
H165	H	1.229892	-0.508666	-0.265232
H166	H	1.142197	-0.508570	-0.352876
H167	H	1.084713	-0.728685	-0.207501
O168	O	1.143735	-0.561057	-0.266356
C169	C	1.257130	-0.630958	-0.271315
C170	C	1.201044	-0.596927	-0.215260
H171	H	1.303466	-0.659976	-0.230028
H172	H	1.293589	-0.598201	-0.307726
H173	H	1.215807	-0.659922	-0.317705
H174	H	1.242305	-0.567963	-0.168823
H175	H	1.164579	-0.629716	-0.178908
O176	O	1.092858	-0.845816	-0.215454
C177	C	1.234229	-0.864767	-0.248300
C178	C	1.178141	-0.830745	-0.192237
H179	H	1.303192	-0.852604	-0.229538
H180	H	1.215576	-0.852584	-0.317274
H181	H	1.225438	-0.914338	-0.239554
H182	H	1.186903	-0.781166	-0.200910
H183	H	1.196807	-0.842977	-0.123285
O184	O	0.891879	-0.276266	-0.014380
C185	C	0.859047	-0.295187	0.127013
C186	C	0.915044	-0.261123	0.070881
H187	H	0.877743	-0.282947	0.195955
H188	H	0.867812	-0.344765	0.118341
H189	H	0.790079	-0.283035	0.108283
H190	H	0.984032	-0.273225	0.089575
H191	H	0.906205	-0.211553	0.079559
H192	H	0.899862	-0.728741	-0.022506
