data_functionalizedCrystal
_audit_creation_method	'MofGen! by Chris Wilmer'
_symmetry_space_group_name_H-M	'P1'
_symmetry_Int_Tables_number	1
_symmetry_cell_setting	triclinic
loop_
_symmetry_equiv_pos_as_xyz
  x,y,z
_cell_length_a	16.109293
_cell_length_b	15.186229
_cell_length_c	16.109298
_cell_angle_alpha	89.994886
_cell_angle_beta	96.540770
_cell_angle_gamma	89.990978
loop_
_atom_site_label
_atom_site_type_symbol
_atom_site_fract_x
_atom_site_fract_y
_atom_site_fract_z
O1	O	-1.103137	0.073287	0.106831
O2	O	-0.861074	0.073273	0.120137
O3	O	-0.988756	0.073287	-0.007548
O4	O	-0.975454	0.073273	0.234515
O5	O	-0.988741	-0.073171	-0.007540
O6	O	-0.861059	-0.073185	0.120144
O7	O	-1.103122	-0.073170	0.106838
Zn8	Zn	-0.982088	-0.096430	0.113492
Zn9	Zn	-0.982108	0.096533	0.113482
O10	O	-0.975439	-0.073184	0.234522
C11	C	-0.830091	0.000042	0.119603
C12	C	-0.737796	0.000037	0.117990
C13	C	-0.525446	-0.079794	0.114265
C14	C	-0.438725	-0.079793	0.112741
C15	C	-0.438752	0.079883	0.112738
C16	C	-0.525472	0.079881	0.114256
C17	C	-0.568816	0.000040	0.115024
C18	C	-0.395376	0.000043	0.111982
C19	C	-0.301350	0.000044	0.110329
C20	C	-0.662848	0.000039	0.116675
N21	N	-0.982080	-0.228123	0.113498
C22	C	-0.134103	0.000056	0.107380
C23	C	-0.226396	0.000046	0.109015
C24	C	-1.032504	-0.453846	0.163925
C25	C	-1.032513	-0.546035	0.163919
C26	C	-0.931696	-0.546045	0.063037
C27	C	-0.931692	-0.453857	0.063039
C28	C	-0.982094	-0.407760	0.113488
C29	C	-0.982108	-0.592137	0.113480
C30	C	-0.982117	-0.692094	0.113473
C31	C	-0.982086	-0.307797	0.113494
C32	C	-0.988210	0.000062	-0.038519
C33	C	-0.986596	0.000072	-0.130814
N34	N	-0.982122	0.228226	0.113470
C35	C	-0.981337	0.079887	-0.429887
C36	C	-0.982865	0.079893	-0.343167
C37	C	-0.982861	-0.079783	-0.343145
C38	C	-0.981339	-0.079788	-0.429864
C39	C	-0.980573	0.000049	-0.473232
C40	C	-0.983623	0.000061	-0.299793
C41	C	-0.985279	0.000067	-0.205768
C42	C	-0.978918	0.000043	-0.567264
C43	C	-0.975985	0.000043	0.265494
C44	C	-0.977599	0.000039	0.357789
H45	H	-0.403417	-0.144802	0.112124
H46	H	-0.980713	0.144896	-0.465195
C47	C	-0.876222	-0.403155	0.007577
H48	H	-0.883440	-0.341650	0.014803
H49	H	-0.819338	-0.418283	0.023023
H50	H	-0.891677	-0.418243	-0.049315
H51	H	-0.560734	-0.144805	0.114891
C52	C	-0.391070	0.167701	0.111904
H53	H	-0.333210	0.156269	0.110900
H54	H	-0.411640	0.200512	0.063699
H55	H	-0.398934	0.200494	0.160615
C56	C	-0.980495	-0.167614	-0.477546
H57	H	-0.981157	-0.215161	-0.439298
H58	H	-1.028355	-0.170927	-0.517733
H59	H	-0.931440	-0.170937	-0.505016
C60	C	-1.087948	-0.403137	0.219408
H61	H	-1.080722	-0.341632	0.212193
H62	H	-1.144836	-0.418231	0.203974
H63	H	-1.072480	-0.418257	0.276294
C64	C	-0.573182	0.167703	0.115093
H65	H	-0.534947	0.215253	0.114431
H66	H	-0.613367	0.171025	0.067231
H67	H	-0.600654	0.171012	0.164147
H68	H	-1.073562	-0.583554	0.204989
H69	H	-0.890659	-0.583589	0.021965
C70	C	-0.983701	0.167714	-0.295490
H71	H	-0.983020	0.215258	-0.333741
H72	H	-1.032749	0.171047	-0.268019
H73	H	-0.935834	0.171026	-0.255304
H74	H	-0.983483	-0.144783	-0.307824
