data_functionalizedCrystal
_audit_creation_method	'MofGen! by Chris Wilmer'
_symmetry_space_group_name_H-M	'P1'
_symmetry_Int_Tables_number	1
_symmetry_cell_setting	triclinic
loop_
_symmetry_equiv_pos_as_xyz
  x,y,z
_cell_length_a	6.817900
_cell_length_b	13.167930
_cell_length_c	27.923559
_cell_angle_alpha	101.292930
_cell_angle_beta	98.965071
_cell_angle_gamma	105.754568
loop_
_atom_site_label
_atom_site_type_symbol
_atom_site_fract_x
_atom_site_fract_y
_atom_site_fract_z
V1	V	-3.994085	-0.150493	-0.158043
O2	O	-3.964574	0.005656	-0.148134
O3	O	-3.962797	-0.296887	-0.163599
O4	O	-3.923690	-0.148870	-0.223944
O5	O	-4.003952	-0.143386	-0.087372
V6	V	-4.478345	-0.131734	-0.148784
O7	O	-4.253725	-0.191643	-0.178354
O8	O	-4.668902	-0.090585	-0.128474
O9	O	-4.286427	0.014660	-0.143228
O10	O	-4.625253	-0.287884	-0.158693
O11	O	-4.585875	-0.138841	-0.219455
O12	O	-4.325534	-0.133358	-0.082884
C13	C	-3.812672	-0.332554	-0.162819
C14	C	-3.868231	-0.452237	-0.167800
C15	C	-3.917900	-0.645486	-0.086869
C16	C	-3.970101	-0.757938	-0.091547
C17	C	-4.024849	-0.789597	-0.181836
C18	C	-3.972648	-0.677145	-0.177157
C19	C	-3.919171	-0.605092	-0.129672
C20	C	-3.866955	-0.492637	-0.124994
C21	C	-3.921718	-0.524298	-0.215282
C22	C	-3.973919	-0.636751	-0.219961
C23	C	-3.762786	-0.143741	-0.239793
C24	C	-3.786627	-0.143382	-0.293710
C25	C	-3.983998	-0.239953	-0.639444
C26	C	-4.073719	-0.238669	-0.842094
O27	O	-4.127307	-0.322416	-0.877970
N28	N	-4.035659	-0.139841	-0.856062
C29	C	-3.975177	-0.041327	-0.819362
O30	O	-3.944884	0.042762	-0.835892
C31	C	-3.885472	-0.042612	-0.616713
C32	C	-3.923516	-0.141447	-0.602748
C33	C	-4.022040	-0.338780	-0.625479
C34	C	-3.999600	-0.339100	-0.574819
C35	C	-3.939118	-0.240593	-0.538124
C36	C	-3.901076	-0.141766	-0.552089
C37	C	-3.825006	0.055900	-0.580014
C38	C	-3.802588	0.055570	-0.529350
C39	C	-3.840632	-0.043264	-0.515386
C40	C	-3.818154	-0.043579	-0.464734
N41	N	-3.856213	-0.142408	-0.450766
C42	C	-3.916696	-0.240915	-0.487461
C43	C	-4.022273	-0.040658	-0.925757
C44	C	-4.044696	-0.040337	-0.976419
C45	C	-4.143239	-0.237680	-0.999148
C46	C	-4.120802	-0.238000	-0.948484
C47	C	-4.060333	-0.139487	-0.911790
C48	C	-3.869564	-0.241578	-0.381071
C49	C	-3.847109	-0.241889	-0.330405
C50	C	-3.748578	-0.044547	-0.307681
C51	C	-3.771020	-0.044235	-0.358342
C52	C	-3.831524	-0.142760	-0.395037
O53	O	-3.764596	0.040123	-0.428832
O54	O	-3.947023	-0.324992	-0.470922
C55	C	-4.006439	-0.239634	-0.690103
C56	C	-3.968396	-0.140807	-0.704068
C57	C	-3.907914	-0.042300	-0.667373
C58	C	-3.990819	-0.140485	-0.754731
C59	C	-4.051301	-0.238992	-0.791426
C60	C	-4.089361	-0.337821	-0.777458
C61	C	-4.066921	-0.338141	-0.726798
C62	C	-3.869854	0.056528	-0.681341
C63	C	-3.892296	0.056840	-0.732001
C64	C	-3.952779	-0.041667	-0.768696
C65	C	-4.099895	0.050320	-0.144008
C66	C	-4.023573	0.170003	-0.139029
C67	C	-4.149781	-0.138490	-0.067032
C68	C	-4.105178	-0.138843	-0.013114
H69	H	-3.922743	-0.491399	-0.250136
C70	C	-4.032721	-0.716019	-0.272191
N71	N	-4.076994	-0.775723	-0.311532
H72	H	-3.874329	-0.586819	-0.048204
H73	H	-3.878087	-0.322375	-0.319040
H74	H	-4.071297	-0.419001	-0.655352
C75	C	-3.936096	-0.349960	-0.421428
N76	N	-3.986190	-0.431593	-0.451825
C77	C	-4.162675	-0.346725	-0.933130
N78	N	-4.194227	-0.428622	-0.921568
H79	H	-3.740052	0.036244	-0.369712
C80	C	-4.083653	-0.868871	-0.234065
N81	N	-4.127928	-0.928582	-0.273404
C82	C	-3.808136	-0.413381	-0.072760
N83	N	-3.763843	-0.353689	-0.033416
H84	H	-3.969063	-0.790821	-0.056692
C85	C	-4.002814	0.068390	-0.991772
N86	N	-3.971279	0.150286	-1.003335
C87	C	-3.682045	0.063805	-0.267308
N88	N	-3.631945	0.145417	-0.236897
C89	C	-4.041491	-0.447827	-0.559466
N90	N	-4.073060	-0.529727	-0.547907
H91	H	-4.192483	-0.317888	-1.029034
H92	H	-3.973032	0.039568	-0.895883
C93	C	-3.783158	0.164628	-0.595363
N94	N	-3.751640	0.246528	-0.606921
H95	H	-4.097903	-0.418622	-0.715435
H96	H	-3.753353	0.135793	-0.499474
H97	H	-4.138600	-0.418028	-0.807345
H98	H	-3.861297	0.137329	-0.743364
H99	H	-3.820609	0.136746	-0.651467
