data_functionalizedCrystal
_audit_creation_method	'MofGen! by Chris Wilmer'
_symmetry_space_group_name_H-M	'P1'
_symmetry_Int_Tables_number	1
_symmetry_cell_setting	triclinic
loop_
_symmetry_equiv_pos_as_xyz
  x,y,z
_cell_length_a	10.654550
_cell_length_b	11.792241
_cell_length_c	9.130313
_cell_angle_alpha	90.005614
_cell_angle_beta	90.004263
_cell_angle_gamma	84.339159
loop_
_atom_site_label
_atom_site_type_symbol
_atom_site_fract_x
_atom_site_fract_y
_atom_site_fract_z
O1	O	1.667383	0.159422	0.121920
O2	O	1.301862	0.174610	0.121897
O3	O	1.493493	0.001866	0.121899
O4	O	1.475752	0.332166	0.121918
O5	O	1.493490	0.001857	-0.121700
O6	O	1.301859	0.174601	-0.121702
O7	O	1.667381	0.159412	-0.121678
Cu8	Cu	1.484620	0.167006	-0.143933
Cu9	Cu	1.484623	0.167017	0.144151
O10	O	1.475750	0.332157	-0.121680
C11	C	1.255066	0.173490	0.000095
C12	C	1.115632	0.170154	0.000085
C13	C	1.492377	-0.040432	0.000100
C14	C	1.489042	-0.166454	0.000101
C15	C	1.035858	0.271863	0.000113
C16	C	0.904847	0.268721	0.000138
C17	C	0.933394	0.062152	0.000114
C18	C	1.064404	0.065295	0.000079
C19	C	1.019376	0.391124	0.000133
C20	C	0.888364	0.387982	0.000158
C21	C	1.482908	-0.397180	0.000125
C22	C	1.486316	-0.268787	0.000112
C23	C	1.714177	0.160532	0.000127
C24	C	1.853611	0.163869	0.000146
C25	C	1.476865	0.374455	0.000122
C26	C	1.480201	0.500476	0.000130
N27	N	1.484626	0.167016	0.346774
N28	N	1.484627	0.166998	-0.346555
C29	C	1.569639	0.090675	0.423427
C30	C	1.569643	0.090668	0.576764
C31	C	1.399610	0.243346	0.576781
C32	C	1.399613	0.243358	0.423447
C33	C	1.667802	0.002525	0.423418
C34	C	1.667806	0.002518	0.576755
H35	H	1.129352	-0.017527	0.000036
H36	H	1.764204	0.022132	0.381824
H37	H	0.842589	0.424020	-0.105008
H38	H	1.054925	0.429102	0.105307
H39	H	0.846505	0.432922	0.102114
Cl40	Cl	1.808350	0.045442	0.650218
H41	H	1.330400	0.305530	0.361038
H42	H	1.330395	0.305503	0.639225
Cl43	Cl	0.868983	-0.069663	0.000106
H44	H	1.637689	-0.079969	0.375834
H45	H	1.646783	-0.084778	0.618346
H46	H	1.048574	0.437763	-0.101816
