data_functionalizedCrystal
_audit_creation_method	'MofGen! by Chris Wilmer'
_symmetry_space_group_name_H-M	'P1'
_symmetry_Int_Tables_number	1
_symmetry_cell_setting	triclinic
loop_
_symmetry_equiv_pos_as_xyz
  x,y,z
_cell_length_a	21.395362
_cell_length_b	11.169416
_cell_length_c	21.395364
_cell_angle_alpha	89.996294
_cell_angle_beta	90.036401
_cell_angle_gamma	90.026221
loop_
_atom_site_label
_atom_site_type_symbol
_atom_site_fract_x
_atom_site_fract_y
_atom_site_fract_z
Zn1	Zn	0.957901	-0.477611	0.354618
Zn2	Zn	0.957855	-0.678230	0.249855
Zn3	Zn	0.853130	-0.477616	0.249820
Zn4	Zn	0.853123	-0.678306	0.354560
O5	O	0.905502	-0.577941	0.302213
O6	O	1.045573	-0.504190	0.340761
O7	O	0.943947	-0.651589	0.162172
O8	O	0.867051	-0.309665	0.263732
O9	O	1.045539	-0.651584	0.263791
O10	O	0.944026	-0.309662	0.340727
O11	O	0.867006	-0.504198	0.162147
O12	O	0.765451	-0.504271	0.263674
O13	O	0.867038	-0.651714	0.442245
O14	O	0.765446	-0.651718	0.340626
O15	O	0.944019	-0.504263	0.442289
O16	O	0.943939	-0.846190	0.263734
O17	O	0.866993	-0.846246	0.340660
C18	C	0.742715	-0.578004	0.302141
C19	C	0.673073	-0.578060	0.302124
C20	C	0.640374	-0.654937	0.342133
C21	C	0.574938	-0.654908	0.342161
C22	C	0.542205	-0.578014	0.302169
C23	C	0.574913	-0.501122	0.262157
C24	C	0.640347	-0.501145	0.262135
C25	C	0.438486	-0.568318	0.245763
C26	C	0.373053	-0.568303	0.245784
C27	C	0.340384	-0.577936	0.302238
C28	C	0.373157	-0.587608	0.358672
C29	C	0.438591	-0.587631	0.358650
C30	C	0.471253	-0.577980	0.302189
C31	C	0.236732	-0.654785	0.342281
C32	C	0.171296	-0.654747	0.342310
C33	C	0.171271	-0.500968	0.262300
C34	C	0.236706	-0.500999	0.262277
C35	C	0.269433	-0.577914	0.302266
C36	C	0.905477	-0.889766	0.302208
C37	C	0.905524	-1.023165	0.302227
C38	C	1.068926	-0.577878	0.302287
C39	C	1.138567	-0.577851	0.302318
C40	C	0.905533	-0.577996	0.465636
C41	C	0.905546	-0.578020	0.535278
C42	C	0.905544	-0.264898	0.302232
C43	C	0.905562	-0.131498	0.302240
C44	C	0.945623	-0.501256	0.568014
C45	C	0.945614	-0.501236	0.633450
C46	C	0.905533	-0.578002	0.666146
C47	C	0.865448	-0.654772	0.633402
C48	C	0.865454	-0.654781	0.567967
C49	C	0.900564	-0.686121	0.769817
C50	C	0.900562	-0.686114	0.835250
C51	C	0.905511	-0.577974	0.867967
C52	C	0.910474	-0.469838	0.835242
C53	C	0.910480	-0.469847	0.769808
C54	C	0.905522	-0.578001	0.737098
C55	C	0.945580	-0.501182	0.971656
C56	C	0.945566	-0.501161	1.037093
C57	C	0.865404	-0.654707	1.037043
C58	C	0.865414	-0.654718	0.971608
C59	C	0.905506	-0.577957	0.938918
C60	C	0.905475	-0.577922	1.139426
C61	C	0.905485	-0.577926	1.069784
H62	H	0.667016	-0.717566	0.374697
C63	C	0.989660	-0.416731	1.073106
H64	H	0.983913	-0.427712	1.116759
H65	H	1.031753	-0.434302	1.062413
H66	H	0.980510	-0.336087	1.062372
C67	C	0.538961	-0.739406	0.386209
H68	H	0.567824	-0.785198	0.410031
H69	H	0.513496	-0.693513	0.413544
H70	H	0.513377	-0.791635	0.362232
H71	H	0.896367	-0.774159	0.743185
C72	C	0.474641	-0.598265	0.420720
H73	H	0.518289	-0.596909	0.412618
H74	H	0.463968	-0.533064	0.447139
H75	H	0.463914	-0.671402	0.440692
H76	H	0.896524	-0.774165	0.861890
H77	H	0.832812	-0.717272	0.660027
H78	H	0.465079	-0.560469	0.199789
C79	C	0.915930	-0.350907	0.733813
H80	H	0.918872	-0.286496	0.762665
H81	H	0.952248	-0.352451	0.708311
H82	H	0.880019	-0.340387	0.708264
C83	C	0.272681	-0.416444	0.218263
H84	H	0.316338	-0.427464	0.223981
H85	H	0.261911	-0.433861	0.176154
H86	H	0.261993	-0.335828	0.227512
C87	C	0.337009	-0.557662	0.183711
H88	H	0.365836	-0.551905	0.150087
H89	H	0.311455	-0.626415	0.178147
H90	H	0.311508	-0.488078	0.184600
H91	H	0.346559	-0.595450	0.404643
C92	C	0.135323	-0.739311	0.386322
H93	H	0.091665	-0.728273	0.380615
H94	H	0.146008	-0.819924	0.377076
H95	H	0.146096	-0.721888	0.428434
C96	C	0.821312	-0.739147	1.072998
H97	H	0.797442	-0.784865	1.044126
H98	H	0.845267	-0.791428	1.098548
H99	H	0.794014	-0.693232	1.098497
C100	C	0.989701	-0.416796	0.669471
H101	H	0.983951	-0.427781	0.713123
H102	H	1.031797	-0.434349	0.658780
H103	H	0.980542	-0.336155	0.658737
H104	H	0.832782	-0.717236	0.944953
C105	C	0.989717	-0.416813	0.532059
H106	H	1.013581	-0.371084	0.560932
H107	H	1.017012	-0.462713	0.506555
H108	H	0.965756	-0.364524	0.506515
H109	H	0.914505	-0.381780	0.861879
C110	C	0.989668	-0.416731	0.935695
H111	H	1.013528	-0.370992	0.964566
H112	H	1.016967	-0.462624	0.910191
H113	H	0.965701	-0.364452	0.910149
C114	C	0.538909	-0.416541	0.218167
H115	H	0.495255	-0.427545	0.223906
H116	H	0.549667	-0.335937	0.227404
H117	H	0.549586	-0.433975	0.176048
C118	C	0.676318	-0.416583	0.218120
H119	H	0.647454	-0.370785	0.194303
H120	H	0.701888	-0.364383	0.242123
H121	H	0.701798	-0.462423	0.190768
C122	C	0.821376	-0.739243	0.531956
H123	H	0.797506	-0.784968	0.560798
H124	H	0.794085	-0.693358	0.506400
H125	H	0.845350	-0.791533	0.506457
H126	H	0.263380	-0.717408	0.374846
H127	H	0.144620	-0.438353	0.229741
