data_functionalizedCrystal
_audit_creation_method	'MofGen! by Chris Wilmer'
_symmetry_space_group_name_H-M	'P1'
_symmetry_Int_Tables_number	1
_symmetry_cell_setting	triclinic
loop_
_symmetry_equiv_pos_as_xyz
  x,y,z
_cell_length_a	16.120490
_cell_length_b	18.050589
_cell_length_c	16.120297
_cell_angle_alpha	92.870540
_cell_angle_beta	90.129683
_cell_angle_gamma	87.112809
loop_
_atom_site_label
_atom_site_type_symbol
_atom_site_fract_x
_atom_site_fract_y
_atom_site_fract_z
Zn1	Zn	1.247470	-0.376309	-0.534519
Zn2	Zn	1.254427	-0.494534	-0.395457
Zn3	Zn	1.115458	-0.363753	-0.388441
Zn4	Zn	1.108383	-0.493844	-0.527430
O5	O	1.181435	-0.432110	-0.461462
O6	O	1.364760	-0.397536	-0.521976
O7	O	1.241866	-0.472221	-0.278161
O8	O	1.133019	-0.261498	-0.407850
O9	O	1.369872	-0.484395	-0.419807
O10	O	1.230007	-0.270723	-0.515173
O11	O	1.139766	-0.376136	-0.273006
O12	O	0.998153	-0.375466	-0.400975
O13	O	1.120960	-0.483218	-0.644735
O14	O	0.992954	-0.471043	-0.503089
O15	O	1.223146	-0.396866	-0.649944
O16	O	1.235005	-0.598364	-0.412932
O17	O	1.127707	-0.597856	-0.509892
C18	C	0.965381	-0.421818	-0.450502
C19	C	0.872951	-0.417433	-0.445833
C20	C	0.659991	-0.454847	-0.485681
C21	C	0.703726	-0.409435	-0.437308
C22	C	0.797891	-0.413887	-0.442053
C23	C	0.565817	-0.450397	-0.480937
C24	C	1.181365	-0.625057	-0.461423
C25	C	1.181410	-0.707606	-0.461439
C26	C	1.239899	-0.956691	-0.408811
C27	C	1.165062	-0.902875	-0.384547
C28	C	1.181511	-1.004734	-0.461508
C29	C	1.256295	-0.911463	-0.485699
C30	C	1.181465	-0.858745	-0.461472
C31	C	1.106637	-0.952002	-0.437202
C32	C	1.197919	-0.960597	-0.538392
C33	C	1.123029	-0.906802	-0.514154
C34	C	1.181539	-1.088834	-0.461527
C35	C	1.181429	-0.774646	-0.461453
C36	C	1.398332	-0.442443	-0.472465
C37	C	1.490761	-0.446847	-0.477153
C38	C	1.181526	-0.238411	-0.461519
C39	C	1.181565	-0.155868	-0.461544
C40	C	1.170488	-0.441365	-0.678356
C41	C	1.165823	-0.445309	-0.770783
C42	C	1.157276	-0.452492	-0.940008
C43	C	1.205757	-0.411513	-0.983776
C44	C	1.201002	-0.415510	-1.077938
C45	C	1.162030	-0.448496	-0.845837
C46	C	1.192387	-0.422840	-0.245414
C47	C	1.197212	-0.418694	-0.152995
H48	H	1.289238	-0.978582	-0.364224
H49	H	1.211846	-0.985831	-0.603411
C50	C	0.704943	-0.511888	-0.546435
C51	C	0.766488	-0.571362	-0.513221
C52	C	0.811452	-0.628403	-0.573971
C53	C	0.794870	-0.625970	-0.667934
C54	C	0.733322	-0.566494	-0.701152
C55	C	0.688358	-0.509452	-0.640403
H56	H	0.778766	-0.573165	-0.443660
H57	H	0.857014	-0.672432	-0.549380
H58	H	0.828155	-0.668196	-0.712905
H59	H	0.721044	-0.564690	-0.770714
H60	H	0.642795	-0.465424	-0.664994
H61	H	1.250834	-0.373428	-0.950529
H62	H	1.151158	-0.877657	-0.319512
C63	C	1.021153	-0.976121	-0.409433
C64	C	1.005393	-1.059202	-0.404285
C65	C	0.919913	-1.083323	-0.376513
C66	C	0.850193	-1.024362	-0.353888
C67	C	0.865951	-0.941276	-0.359035
C68	C	0.951431	-0.917155	-0.386807
H69	H	1.057006	-1.102853	-0.421034
H70	H	0.908249	-1.144830	-0.372703
H71	H	0.786915	-1.042218	-0.333328
H72	H	0.814338	-0.897625	-0.342286
H73	H	0.963096	-0.855648	-0.390617
C74	C	1.056229	-0.877385	-0.574325
C75	C	0.964243	-0.892315	-0.560187
C76	C	0.897441	-0.862891	-0.620350
C77	C	0.922625	-0.818537	-0.694650
C78	C	1.014615	-0.803604	-0.708791
C79	C	1.081418	-0.833029	-0.648629
H80	H	0.945596	-0.925151	-0.505183
H81	H	0.829343	-0.873945	-0.609881
H82	H	0.873174	-0.796755	-0.739186
H83	H	1.033262	-0.770769	-0.763795
H84	H	1.149515	-0.821975	-0.659097
H85	H	1.112202	-0.490574	-0.973253
C86	C	0.658780	-0.352403	-0.376532
C87	C	0.670286	-0.268830	-0.384053
C88	C	0.625338	-0.211804	-0.323274
C89	C	0.568886	-0.238351	-0.254972
C90	C	0.557379	-0.321928	-0.247448
C91	C	0.602326	-0.378954	-0.308227
H92	H	0.712077	-0.249175	-0.434617
H93	H	0.633858	-0.149935	-0.328845
H94	H	0.535614	-0.196138	-0.209980
H95	H	0.515587	-0.341583	-0.196884
H96	H	0.593807	-0.440823	-0.302656
H97	H	1.319557	-0.893507	-0.506173
