data_functionalizedCrystal
_audit_creation_method	'MofGen! by Chris Wilmer'
_symmetry_space_group_name_H-M	'P1'
_symmetry_Int_Tables_number	1
_symmetry_cell_setting	triclinic
loop_
_symmetry_equiv_pos_as_xyz
  x,y,z
_cell_length_a	10.654565
_cell_length_b	19.288859
_cell_length_c	18.366186
_cell_angle_alpha	89.994093
_cell_angle_beta	90.015031
_cell_angle_gamma	96.187478
loop_
_atom_site_label
_atom_site_type_symbol
_atom_site_fract_x
_atom_site_fract_y
_atom_site_fract_z
O1	O	-1.665745	0.097608	-0.060645
O2	O	-1.300070	0.106891	-0.060626
O3	O	-1.493478	0.001188	-0.060632
O4	O	-1.472337	0.203310	-0.060639
O5	O	-1.493444	0.001183	0.060468
O6	O	-1.300036	0.106885	0.060474
O7	O	-1.665711	0.097602	0.060454
Zn8	Zn	-1.482868	0.102243	0.079691
Zn9	Zn	-1.482913	0.102250	-0.079863
O10	O	-1.472303	0.203305	0.060460
C11	C	-1.253270	0.106204	-0.000073
C12	C	-1.113872	0.104158	-0.000066
C13	C	-1.048343	0.103201	0.065942
C14	C	-0.917362	0.101284	0.065933
C15	C	-0.917449	0.101284	-0.066096
C16	C	-1.048429	0.103196	-0.066087
C17	C	-1.113786	0.104163	0.131963
C18	C	-1.048257	0.103206	0.197975
C19	C	-0.917276	0.101289	0.197967
C20	C	-0.851824	0.100329	0.131946
C21	C	-1.492782	-0.024696	-0.000083
C22	C	-1.490744	-0.101813	-0.000084
C23	C	-1.590440	-0.665198	-0.000108
C24	C	-1.592366	-0.592738	-0.000102
C25	C	-1.478883	-0.548778	-0.000096
C26	C	-1.363465	-0.577283	-0.000078
C27	C	-1.361543	-0.649741	-0.000077
C28	C	-1.394260	-0.428060	-0.042517
C29	C	-1.396187	-0.355603	-0.042522
C30	C	-1.484808	-0.325293	-0.000096
C31	C	-1.571523	-0.367450	0.042327
C32	C	-1.569600	-0.439908	0.042328
C33	C	-1.480955	-0.470209	-0.000097
C34	C	-1.602307	-0.218229	-0.000102
C35	C	-1.604228	-0.145768	-0.000091
C36	C	-1.375324	-0.130313	-0.000074
C37	C	-1.373406	-0.202773	-0.000078
C38	C	-1.486901	-0.246727	-0.000095
C39	C	-0.712512	0.098287	-0.000093
C40	C	-0.851911	0.100329	-0.000083
C41	C	-1.472999	0.229189	-0.000091
C42	C	-1.475037	0.306306	-0.000094
N43	N	-1.482847	0.102238	0.188582
C44	C	-1.568515	0.055456	0.226680
C45	C	-1.568523	0.055453	0.302908
C46	C	-1.482873	0.102244	0.341035
C47	C	-1.397189	0.149029	0.302928
C48	C	-1.397176	0.149026	0.226702
C49	C	-1.466059	0.165422	0.461793
C50	C	-1.466081	0.165426	0.538018
C51	C	-1.482907	0.102254	0.576142
C52	C	-1.499737	0.039075	0.538032
C53	C	-1.499724	0.039071	0.461806
C54	C	-1.482878	0.102252	0.423690
C55	C	-1.568588	0.055465	0.696895
C56	C	-1.568586	0.055461	0.773124
C57	C	-1.397258	0.149043	0.773143
C58	C	-1.397254	0.149041	0.696915
C59	C	-1.482925	0.102253	0.658796
N60	N	-1.482934	0.102251	0.811246
H61	H	-0.863927	0.100505	0.251718
H62	H	-1.101558	0.103983	0.251727
H63	H	-0.745171	0.098766	0.131945
H64	H	-1.220436	0.105726	0.131977
H65	H	-1.452385	0.216870	0.569042
C66	C	-1.300802	-0.309238	-0.089189
N67	N	-1.228955	-0.274317	-0.124340
H68	H	-1.698206	-0.122569	-0.000098
C69	C	-1.719322	-0.561385	-0.000124
N70	N	-1.814946	-0.537772	-0.000143
C71	C	-1.669014	-0.334116	0.089000
N72	N	-1.742444	-0.309005	0.124152
H73	H	-1.101783	0.103979	-0.119836
H74	H	-1.279433	-0.225974	-0.000072
C75	C	-1.518243	-0.030421	0.579963
N76	N	-1.532183	-0.082763	0.611548
H77	H	-0.864148	0.100504	-0.119847
H78	H	-1.322077	-0.452730	-0.077060
C79	C	-1.238634	-0.528925	-0.000074
N80	N	-1.144607	-0.492502	-0.000070
H81	H	-1.267565	-0.672941	-0.000064
C82	C	-1.518220	-0.030424	0.419887
N83	N	-1.532145	-0.082770	0.388314
C84	C	-1.715288	-0.713543	-0.000111
N85	N	-1.809325	-0.749957	-0.000108
H86	H	-1.640204	-0.474230	0.076871
C87	C	-1.727152	-0.266580	-0.000112
N88	N	-1.821187	-0.302997	-0.000118
H89	H	-1.282924	-0.094522	-0.000063
H90	H	-1.638343	0.017365	0.665857
H91	H	-1.638271	0.017357	0.195645
H92	H	-1.638344	0.017362	0.804144
H93	H	-1.638286	0.017357	0.333932
C94	C	-1.447549	0.234921	0.419865
N95	N	-1.433607	0.287266	0.388285
H96	H	-1.327516	0.187138	0.804186
H97	H	-1.327499	0.187138	0.665894
C98	C	-1.302969	0.200496	0.344869
N99	N	-1.231995	0.239260	0.376460
C100	C	-1.302984	0.200523	0.184793
N101	N	-1.232057	0.239322	0.153226
