data_functionalizedCrystal
_audit_creation_method	'MofGen! by Chris Wilmer'
_symmetry_space_group_name_H-M	'P1'
_symmetry_Int_Tables_number	1
_symmetry_cell_setting	triclinic
loop_
_symmetry_equiv_pos_as_xyz
  x,y,z
_cell_length_a	16.109301
_cell_length_b	15.944551
_cell_length_c	15.186229
_cell_angle_alpha	89.995303
_cell_angle_beta	89.999362
_cell_angle_gamma	83.480109
loop_
_atom_site_label
_atom_site_type_symbol
_atom_site_fract_x
_atom_site_fract_y
_atom_site_fract_z
O1	O	1.103166	0.107966	-0.073175
O2	O	0.861108	0.121402	-0.073189
O3	O	0.988747	-0.007593	-0.073174
O4	O	0.975527	0.236961	-0.073190
O5	O	0.988738	-0.007594	0.073284
O6	O	0.861099	0.121401	0.073268
O7	O	1.103157	0.107964	0.073282
Zn8	Zn	0.982127	0.114682	0.096529
Zn9	Zn	0.982138	0.114685	-0.096435
O10	O	0.975518	0.236960	0.073267
C11	C	0.830129	0.120857	0.000038
C12	C	0.737833	0.119226	0.000033
C13	C	0.515584	0.191975	0.000038
C14	C	0.428863	0.190435	0.000044
C15	C	0.448688	0.037387	0.000050
C16	C	0.535407	0.038927	0.000051
C17	C	0.568853	0.116224	0.000040
C18	C	0.395412	0.113143	0.000045
C19	C	0.301386	0.111473	0.000052
C20	C	0.662885	0.117894	0.000036
C21	C	0.988194	-0.038887	0.000055
C22	C	0.986548	-0.132133	0.000056
C23	C	0.903499	-0.346962	0.000039
C24	C	0.942060	-0.407993	0.072253
C25	C	0.983572	-0.302858	0.000049
C26	C	0.942087	-0.407975	-0.072142
C27	C	0.980691	-0.467769	0.000038
C28	C	1.022155	-0.362660	0.072323
C29	C	1.022171	-0.362636	-0.072137
C30	C	1.060790	-0.423649	0.000095
C31	C	0.985229	-0.207856	0.000055
C32	C	0.979039	-0.562770	0.000038
C33	C	1.134136	0.108510	0.000054
C34	C	1.226432	0.110141	0.000053
C35	C	0.976071	0.268254	0.000036
C36	C	0.977717	0.361500	0.000030
N37	N	0.982125	0.114680	0.228221
N38	N	0.982146	0.114680	-0.228128
C39	C	1.038663	0.057580	0.453951
C40	C	1.038666	0.057578	0.546141
C41	C	0.925603	0.171783	0.546136
C42	C	0.925597	0.171780	0.453948
C43	C	0.982132	0.114680	0.407858
C44	C	0.982140	0.114680	0.592236
C45	C	0.982143	0.114679	0.692192
C46	C	0.982128	0.114680	0.307895
H47	H	0.421446	-0.025546	0.000064
N48	N	0.592873	-0.042777	0.000048
H49	H	0.629292	-0.045547	0.054342
H50	H	0.558473	-0.091933	0.000015
N51	N	0.371408	0.272137	0.000090
H52	H	0.405758	0.321334	0.000099
H53	H	0.334972	0.274864	-0.054186
N54	N	0.897218	-0.434576	-0.153007
H55	H	0.837813	-0.406391	-0.152942
H56	H	0.926927	-0.417272	-0.207503
N57	N	0.864628	0.233367	0.595848
H58	H	0.873210	0.224707	0.661243
H59	H	0.874232	0.292958	0.579724
N60	N	0.815462	-0.302812	0.000117
H61	H	0.785320	-0.319181	0.054715
H62	H	0.817259	-0.239704	-0.000475
N63	N	0.897206	-0.434610	0.153126
H64	H	0.837800	-0.406427	0.153073
H65	H	0.896965	-0.497923	0.152780
N66	N	1.066952	-0.336201	0.153296
H67	H	1.086154	-0.387627	0.189944
H68	H	1.116953	-0.307480	0.134932
N69	N	1.148903	-0.467606	0.000145
H70	H	1.179028	-0.451143	0.054713
H71	H	1.147249	-0.530734	-0.000406
N72	N	0.864614	0.233362	0.404225
H73	H	0.828803	0.269538	0.447410
H74	H	0.896437	0.270504	0.365964
H75	H	1.084698	0.011082	0.583667
N76	N	1.067006	-0.335983	-0.153001
H77	H	1.036709	-0.352275	-0.207524
H78	H	1.068248	-0.272803	-0.152010
N79	N	0.551653	0.275344	0.000028
H80	H	0.532227	0.308526	0.054320
H81	H	0.614666	0.264761	-0.000008
N82	N	1.099635	-0.004004	0.404237
H83	H	1.135447	-0.040177	0.447430
H84	H	1.067804	-0.041148	0.365994
