data_functionalizedCrystal
_audit_creation_method	'MofGen! by Chris Wilmer'
_symmetry_space_group_name_H-M	'P1'
_symmetry_Int_Tables_number	1
_symmetry_cell_setting	triclinic
loop_
_symmetry_equiv_pos_as_xyz
  x,y,z
_cell_length_a	16.992694
_cell_length_b	11.792241
_cell_length_c	15.455313
_cell_angle_alpha	92.683265
_cell_angle_beta	87.142206
_cell_angle_gamma	87.430819
loop_
_atom_site_label
_atom_site_type_symbol
_atom_site_fract_x
_atom_site_fract_y
_atom_site_fract_z
O1	O	1.044827	0.236106	-0.072022
O2	O	0.816531	0.233463	-0.072048
O3	O	0.936219	0.070068	-0.072029
O4	O	0.925139	0.399501	-0.072042
O5	O	0.929374	0.079370	0.072232
O6	O	0.809687	0.242766	0.072213
O7	O	1.037982	0.245409	0.072239
Cu8	Cu	0.923210	0.244937	0.085398
Cu9	Cu	0.931304	0.233935	-0.085207
O10	O	0.918295	0.408804	0.072219
C11	C	0.783882	0.234716	0.000079
C12	C	0.696795	0.224578	0.000070
C13	C	0.646971	0.322395	0.000066
C14	C	0.565143	0.312864	0.000079
C15	C	0.533142	0.205513	0.000088
C16	C	0.582973	0.107688	0.000094
C17	C	0.664799	0.117221	0.000088
C18	C	0.289375	0.166002	0.000113
C19	C	0.207543	0.156476	0.000117
C20	C	0.189719	0.361652	0.000103
C21	C	0.271548	0.371176	0.000091
C22	C	0.321371	0.273351	0.000102
N23	N	0.449501	0.195767	0.000098
N24	N	0.405010	0.283098	0.000098
C25	C	0.932101	0.032371	0.000102
C26	C	0.930017	-0.093813	0.000101
C27	C	0.926187	-0.324840	0.000086
C28	C	0.928315	-0.196280	0.000094
C29	C	1.070631	0.244155	0.000109
C30	C	1.157718	0.254293	0.000113
C31	C	0.922413	0.446501	0.000087
C32	C	0.924497	0.572684	0.000082
N33	N	0.917522	0.252674	0.205393
N34	N	0.936998	0.226189	-0.205202
C35	C	0.968388	0.183287	0.250795
C36	C	0.964094	0.189150	0.341602
C37	C	0.908938	0.264406	0.387005
C38	C	0.858067	0.333796	0.341597
C39	C	0.862358	0.327927	0.250791
C40	C	0.890417	0.289710	0.658584
C41	C	0.886132	0.295576	0.749396
C42	C	0.992158	0.150928	0.749395
C43	C	0.996447	0.145070	0.658588
C44	C	0.945574	0.214455	0.613187
N45	N	0.904549	0.270403	0.479825
N46	N	0.949959	0.208452	0.520369
H47	H	0.329932	0.086346	0.000122
H48	H	0.556910	0.020282	0.000114
H49	H	0.841215	0.356864	0.786359
C50	C	1.048111	0.074597	0.799336
C51	C	1.043397	0.081041	0.899218
C52	C	1.099350	0.004703	0.949158
C53	C	1.160018	-0.078079	0.899216
C54	C	1.164735	-0.084526	0.799327
C55	C	1.108782	-0.008188	0.749388
H56	H	0.998484	0.142324	0.936194
H57	H	1.095858	0.009476	1.023102
H58	H	1.201438	-0.134589	0.936184
H59	H	1.209647	-0.145808	0.762352
H60	H	1.112274	-0.012960	0.675444
H61	H	0.705366	0.037568	0.000090
C62	C	1.029061	0.100502	0.200856
C63	C	1.000997	0.006828	0.138445
C64	C	1.061670	-0.075963	0.088509
C65	C	1.150408	-0.065079	0.100985
C66	C	1.178476	0.028599	0.163400
C67	C	1.117803	0.111389	0.213335
H68	H	0.935305	-0.001233	0.129206
H69	H	1.040892	-0.145310	0.042306
H70	H	1.195321	-0.126366	0.064020
H71	H	1.244168	0.036659	0.172638
H72	H	1.138581	0.180736	0.259539
C73	C	1.057115	0.062284	0.608641
C74	C	1.029046	-0.031383	0.546227
C75	C	1.089716	-0.114166	0.496277
C76	C	1.178455	-0.103281	0.508742
C77	C	1.206528	-0.009610	0.571159
C78	C	1.145858	0.073172	0.621109
H79	H	0.963353	-0.039444	0.536997
H80	H	1.068934	-0.183507	0.450072
H81	H	1.223366	-0.164561	0.471766
H82	H	1.272222	-0.001549	0.580389
H83	H	1.166641	0.142514	0.667314
H84	H	0.848996	0.346209	0.621625
C85	C	0.797393	0.416582	0.391535
C86	C	0.792707	0.423104	0.491418
C87	C	0.732034	0.505895	0.541353
C88	C	0.676047	0.582163	0.491406
C89	C	0.680731	0.575642	0.391518
C90	C	0.741405	0.492852	0.341583
H91	H	0.834154	0.366644	0.528396
H92	H	0.728566	0.510721	0.615297
H93	H	0.631133	0.643449	0.528372
H94	H	0.639285	0.632103	0.354540
H95	H	0.744872	0.488026	0.267639
H96	H	0.673020	0.409812	0.000058
H97	H	1.005512	0.132648	0.378568
H98	H	0.297597	0.458591	0.000074
H99	H	0.524579	0.392517	0.000075
H100	H	0.820937	0.384428	0.213825
C101	C	0.134912	0.469254	0.000100
C102	C	0.142350	0.550366	-0.074815
C103	C	0.087542	0.657973	-0.074815
C104	C	0.025296	0.684468	0.000101
C105	C	0.017855	0.603353	0.075021
C106	C	0.072663	0.495746	0.075021
H107	H	0.188431	0.530756	-0.130277
H108	H	0.093051	0.718019	-0.130277
H109	H	-0.015276	0.764125	0.000101
H110	H	-0.028226	0.622964	0.130483
H111	H	0.067154	0.435700	0.130483
H112	H	0.181491	0.069054	0.000123
