data_functionalizedCrystal
_audit_creation_method	'MofGen! by Chris Wilmer'
_symmetry_space_group_name_H-M	'P1'
_symmetry_Int_Tables_number	1
_symmetry_cell_setting	triclinic
loop_
_symmetry_equiv_pos_as_xyz
  x,y,z
_cell_length_a	14.853567
_cell_length_b	11.792241
_cell_length_c	13.930277
_cell_angle_alpha	89.995317
_cell_angle_beta	89.995755
_cell_angle_gamma	83.914173
loop_
_atom_site_label
_atom_site_type_symbol
_atom_site_fract_x
_atom_site_fract_y
_atom_site_fract_z
O1	O	1.196945	0.148181	-0.079765
O2	O	0.934554	0.165833	-0.079782
O3	O	1.072117	-0.008203	-0.079766
O4	O	1.059382	0.322217	-0.079780
O5	O	1.072098	-0.008206	0.079896
O6	O	0.934535	0.165829	0.079880
O7	O	1.196926	0.148177	0.079897
Zn8	Zn	1.065728	0.157003	0.105238
Zn9	Zn	1.065753	0.157008	-0.105123
O10	O	1.059363	0.322213	0.079881
C11	C	0.900953	0.165032	0.000047
C12	C	0.800860	0.162635	0.000041
C13	C	0.387884	0.049122	0.000068
C14	C	0.367408	0.255880	0.000058
C15	C	0.461451	0.258134	0.000055
C16	C	0.518715	0.155880	0.000056
C17	C	0.481936	0.051372	0.000062
C18	C	0.498237	0.362640	0.000040
C19	C	0.592285	0.364898	0.000035
C20	C	0.649550	0.262642	0.000044
C21	C	0.612766	0.158131	0.000050
C22	C	0.670030	0.055877	0.000052
C23	C	0.633248	-0.048637	0.000065
C24	C	0.539201	-0.050883	0.000070
C25	C	0.743596	0.264889	0.000039
C26	C	0.764081	0.058127	0.000046
C27	C	1.071308	-0.050491	0.000064
C28	C	1.068913	-0.176489	0.000063
C29	C	1.064511	-0.407174	0.000047
C30	C	1.066957	-0.278804	0.000056
C31	C	1.230527	0.148979	0.000066
C32	C	1.330621	0.151376	0.000066
C33	C	1.060173	0.364501	0.000049
C34	C	1.062567	0.490500	0.000044
N35	N	1.065717	0.156999	0.248804
N36	N	1.065771	0.157003	-0.248689
C37	C	1.004838	0.234041	0.701067
C38	C	1.126693	0.079966	0.701050
C39	C	1.126682	0.079963	0.600554
C40	C	1.065749	0.157000	0.550310
C41	C	1.004827	0.234042	0.600562
C42	C	1.187610	0.002930	0.550295
C43	C	1.187602	0.002925	0.449793
C44	C	1.126664	0.079958	0.399547
C45	C	1.065738	0.157001	0.449805
C46	C	1.004805	0.234039	0.399561
C47	C	0.943875	0.311078	0.449817
C48	C	0.943889	0.311075	0.550316
C49	C	1.126650	0.079961	0.299048
C50	C	1.004794	0.234040	0.299056
H51	H	0.679884	-0.131891	0.000060
O52	O	0.945527	0.308758	0.749838
C53	C	0.789096	0.374935	0.780561
C54	C	0.856165	0.290239	0.725284
H55	H	0.716833	0.360009	0.760714
H56	H	0.799486	0.361702	0.861033
H57	H	0.801325	0.465862	0.760808
H58	H	0.843976	0.199279	0.744956
H59	H	0.845759	0.303572	0.644825
O60	O	0.884721	0.385803	0.400857
C61	C	0.830758	0.454130	0.246028
C62	C	0.897779	0.369428	0.301359
H63	H	0.841305	0.440936	0.165575
H64	H	0.758460	0.439172	0.265719
H65	H	0.842934	0.545054	0.265838
H66	H	0.885686	0.278471	0.281580
H67	H	0.970054	0.384485	0.281663
O68	O	0.311916	0.355309	0.000009
C69	C	0.301524	0.560626	0.000055
C70	C	0.364477	0.448103	0.000088
H71	H	0.343994	0.635679	0.000140
H72	H	0.257005	0.564820	-0.066780
H73	H	0.256958	0.564676	0.066857
H74	H	0.409100	0.443978	-0.066668
H75	H	0.408935	0.443957	0.066967
H76	H	0.894282	0.373798	0.591241
O77	O	1.246745	-0.072061	0.599002
C78	C	1.298545	-0.269301	0.629819
C79	C	1.231544	-0.184489	0.574570
H80	H	1.286266	-0.360217	0.610101
H81	H	1.370848	-0.254457	0.610047
H82	H	1.288081	-0.256007	0.710273
H83	H	1.241926	-0.197732	0.494104
H84	H	1.159266	-0.199354	0.594422
H85	H	0.509244	-0.135972	0.000104
O86	O	0.442648	0.461990	-0.000136
C87	C	0.396387	0.638040	-0.082839
C88	C	0.459386	0.525554	-0.082770
H89	H	0.409911	0.689474	-0.149631
H90	H	0.322837	0.618537	-0.082890
H91	H	0.409819	0.689421	-0.015997
H92	H	0.446036	0.474118	-0.149600
H93	H	0.532916	0.545137	-0.082669
H94	H	1.176263	0.017242	0.258135
H95	H	1.237214	-0.059805	0.408881
O96	O	0.819575	-0.041311	0.000005
C97	C	0.829959	-0.246627	0.000077
C98	C	0.767010	-0.134101	0.000102
H99	H	0.787486	-0.321677	0.000176
H100	H	0.874481	-0.250823	-0.066763
H101	H	0.874523	-0.250680	0.066874
H102	H	0.722390	-0.129973	-0.066649
H103	H	0.722550	-0.129952	0.066986
O104	O	1.186001	0.005239	0.749804
C105	C	1.342429	-0.060990	0.780476
C106	C	1.275364	0.023733	0.725219
H107	H	1.414693	-0.046083	0.760604
H108	H	1.332055	-0.047767	0.860951
H109	H	1.330178	-0.151908	0.760730
H110	H	1.287575	0.114685	0.744884
H111	H	1.285754	0.010411	0.644757
H112	H	0.622224	0.449998	0.000025
O113	O	0.352011	-0.052299	0.000037
C114	C	0.216209	-0.147411	0.000119
C115	C	0.256715	-0.032474	0.000131
H116	H	0.139158	-0.131423	0.000216
H117	H	0.239683	-0.197964	-0.066714
H118	H	0.239808	-0.197945	0.066922
H119	H	0.233134	0.018153	-0.066627
H120	H	0.233245	0.017993	0.067009
H121	H	0.773540	0.349982	0.000030
H122	H	0.955172	0.296770	0.258153
