data_functionalizedCrystal
_audit_creation_method	'MofGen! by Chris Wilmer'
_symmetry_space_group_name_H-M	'P1'
_symmetry_Int_Tables_number	1
_symmetry_cell_setting	triclinic
loop_
_symmetry_equiv_pos_as_xyz
  x,y,z
_cell_length_a	12.827893
_cell_length_b	16.959454
_cell_length_c	12.827885
_cell_angle_alpha	89.970356
_cell_angle_beta	89.980728
_cell_angle_gamma	90.020046
loop_
_atom_site_label
_atom_site_type_symbol
_atom_site_fract_x
_atom_site_fract_y
_atom_site_fract_z
Zn1	Zn	1.597636	-0.314644	-0.590850
Zn2	Zn	2.097636	0.185356	-0.090850
Zn3	Zn	1.597515	-0.446843	-0.416110
Zn4	Zn	2.097515	0.053157	0.083890
Zn5	Zn	1.422877	-0.314682	-0.416123
Zn6	Zn	1.922877	0.185318	0.083877
Zn7	Zn	1.422848	-0.446784	-0.590810
Zn8	Zn	1.922848	0.053216	-0.090810
O9	O	1.510219	-0.380738	-0.503473
O10	O	2.010219	0.119262	-0.003473
O11	O	1.743856	-0.332189	-0.567681
O12	O	2.243856	0.167811	-0.067681
O13	O	1.574311	-0.429352	-0.269876
O14	O	2.074311	0.070648	0.230124
O15	O	1.446122	-0.204066	-0.439323
O16	O	1.946122	0.295934	0.060677
O17	O	1.743767	-0.429315	-0.439301
O18	O	2.243767	0.070685	0.060699
O19	O	1.574516	-0.204038	-0.567694
O20	O	2.074516	0.295962	-0.067694
O21	O	1.446005	-0.332254	-0.269885
O22	O	1.946005	0.167746	0.230115
O23	O	1.276637	-0.332197	-0.439285
O24	O	1.776637	0.167803	0.060715
O25	O	1.446072	-0.429215	-0.737052
O26	O	1.946072	0.070785	-0.237052
O27	O	1.276616	-0.429252	-0.567627
O28	O	1.776616	0.070748	-0.067627
O29	O	1.574488	-0.332132	-0.737081
O30	O	2.074488	0.167868	-0.237081
O31	O	1.574283	-0.557446	-0.439263
O32	O	2.074283	-0.057446	0.060737
O33	O	1.445956	-0.557403	-0.567614
O34	O	1.945956	-0.057403	-0.067614
C35	C	1.238709	-0.380723	-0.503454
C36	C	1.738709	0.119277	-0.003454
C37	C	1.122556	-0.380736	-0.503470
C38	C	1.622556	0.119264	-0.003470
C39	C	1.070788	-0.428836	-0.566880
C40	C	1.570788	0.071164	-0.066880
C41	C	0.950738	-0.428850	-0.566898
C42	C	1.450738	0.071150	-0.066898
C43	C	1.510131	-0.586105	-0.503456
C44	C	2.010131	-0.086105	-0.003456
C45	C	1.510190	-0.673961	-0.503483
C46	C	2.010190	-0.173961	-0.003483
C47	C	1.443496	-1.045444	-0.570299
C48	C	1.943496	-0.545444	-0.070299
C49	C	1.577233	-1.045429	-0.436755
C50	C	2.077233	-0.545429	0.063245
C51	C	1.577197	-0.962883	-0.436745
C52	C	2.077197	-0.462883	0.063255
C53	C	1.510308	-0.921614	-0.503512
C54	C	2.010308	-0.421614	-0.003512
C55	C	1.443455	-0.962891	-0.570289
C56	C	1.943455	-0.462891	-0.070289
C57	C	1.644041	-0.921601	-0.369962
C58	C	2.144041	-0.421601	0.130038
C59	C	1.644006	-0.839050	-0.369949
C60	C	2.144006	-0.339050	0.130051
C61	C	1.577121	-0.797779	-0.436722
C62	C	2.077121	-0.297779	0.063278
C63	C	1.510267	-0.839061	-0.503502
C64	C	2.010267	-0.339061	-0.003502
C65	C	1.443378	-0.797791	-0.570270
C66	C	1.943378	-0.297791	-0.070270
C67	C	1.376528	-0.839071	-0.637056
C68	C	1.876528	-0.339071	-0.137056
C69	C	1.376571	-0.921620	-0.637062
C70	C	1.876571	-0.421620	-0.137062
C71	C	1.577079	-0.715231	-0.436716
C72	C	2.077079	-0.215231	0.063284
C73	C	1.443337	-0.715238	-0.570260
C74	C	1.943337	-0.215238	-0.070260
C75	C	1.782789	-0.380754	-0.503494
C76	C	2.282789	0.119246	-0.003494
C77	C	1.898942	-0.380761	-0.503503
C78	C	2.398942	0.119239	-0.003503
C79	C	1.510290	-0.380662	-0.776044
C80	C	2.010290	0.119338	-0.276044
C81	C	1.510320	-0.380630	-0.892197
C82	C	2.010320	0.119370	-0.392197
C83	C	1.510335	-0.174570	-0.503514
C84	C	2.010335	0.325430	-0.003514
C85	C	1.510385	-0.086714	-0.503532
C86	C	2.010385	0.413286	-0.003532
C87	C	1.573871	-0.332581	-0.943996
C88	C	2.073871	0.167419	-0.443996
C89	C	1.573904	-0.332546	-1.064046
C90	C	2.073904	0.167454	-0.564046
C91	C	1.510208	-0.380757	-0.231964
C92	C	2.010208	0.119243	0.268036
C93	C	1.510380	-0.380567	-0.115811
C94	C	2.010380	0.119433	0.384189
H95	H	0.906219	-0.470034	-0.621182
H96	H	1.406219	0.029966	-0.121182
C97	C	1.650610	-0.669826	-0.363257
C98	C	2.150610	-0.169826	0.136743
N99	N	1.706001	-0.635629	-0.307926
N100	N	2.206001	-0.135629	0.192074
H101	H	0.943455	-0.339581	-0.449209
H102	H	1.443455	0.160419	0.050791
C103	C	1.717535	-0.793649	-0.296477
C104	C	2.217535	-0.293649	0.203523
N105	N	1.772917	-0.759453	-0.241135
N106	N	2.272917	-0.259453	0.258865
C107	C	1.062367	-0.325113	-0.430146
C108	C	1.562367	0.174887	0.069854
N109	N	1.017034	-0.283218	-0.374916
N110	N	1.517034	0.216782	0.125084
C111	C	1.436870	-0.436144	-1.055641
C112	C	1.936870	0.063856	-0.555641
N113	N	1.381501	-0.478004	-1.010314
N114	N	1.881501	0.021996	-0.510314
H115	H	1.628316	-0.291412	-1.108592
H116	H	2.128316	0.208588	-0.608592
C117	C	1.647342	-0.277037	-0.883843
C118	C	2.147342	0.222963	-0.383843
N119	N	1.702682	-0.235200	-0.838538
N120	N	2.202682	0.264800	-0.338538
C121	C	1.369765	-0.669848	-0.643723
C122	C	1.869765	-0.169848	-0.143723
N123	N	1.314353	-0.635661	-0.699060
N124	N	1.814353	-0.135661	-0.199060
H125	H	1.322061	-0.805461	-0.691414
H126	H	1.822061	-0.305461	-0.191414
H127	H	1.115345	-0.470004	-0.621157
H128	H	1.615345	0.029996	-0.121157
H129	H	1.322144	-0.955238	-0.691435
H130	H	1.822144	-0.455238	-0.191435
H131	H	1.389071	-1.079058	-0.624678
H132	H	1.889071	-0.579058	-0.124678
H133	H	1.455930	-0.421736	-0.936727
H134	H	1.955930	0.078264	-0.436727
H135	H	1.698490	-0.955208	-0.315596
H136	H	2.198490	-0.455208	0.184404
C137	C	1.650796	-1.090828	-0.363304
C138	C	2.150796	-0.590828	0.136696
N139	N	1.706206	-1.125026	-0.307978
N140	N	2.206206	-0.625026	0.192022
