data_functionalizedCrystal
_audit_creation_method	'MofGen! by Chris Wilmer'
_symmetry_space_group_name_H-M	'P1'
_symmetry_Int_Tables_number	1
_symmetry_cell_setting	triclinic
loop_
_symmetry_equiv_pos_as_xyz
  x,y,z
_cell_length_a	10.723024
_cell_length_b	17.699083
_cell_length_c	16.176319
_cell_angle_alpha	90.002310
_cell_angle_beta	89.992398
_cell_angle_gamma	96.124558
loop_
_atom_site_label
_atom_site_type_symbol
_atom_site_fract_x
_atom_site_fract_y
_atom_site_fract_z
O1	O	0.157774	-1.005072	0.068628
O2	O	0.178304	-0.784823	0.068655
O3	O	-0.013625	-0.900027	0.068638
O4	O	0.349702	-0.889867	0.068646
O5	O	-0.013590	-0.900017	-0.068855
O6	O	0.178338	-0.784812	-0.068838
O7	O	0.157809	-1.005061	-0.068865
Cu8	Cu	0.168077	-0.894935	-0.081406
Cu9	Cu	0.168036	-0.894948	0.081196
O10	O	0.349737	-0.889856	-0.068848
C11	C	-0.060094	-0.899283	-0.000107
C12	C	-0.198610	-0.897070	-0.000104
C13	C	0.177585	-0.756616	-0.000088
C14	C	0.175378	-0.672584	-0.000078
C15	C	0.158527	-1.033268	-0.000120
C16	C	0.160734	-1.117300	-0.000125
C17	C	-0.389189	-0.828350	-0.000091
C18	C	-0.246025	-0.830635	-0.000095
C19	C	0.396206	-0.890601	-0.000100
C20	C	0.534723	-0.892813	-0.000098
N21	N	0.168105	-0.894932	-0.195771
C22	C	0.288036	-0.624673	-0.000076
C23	C	0.285955	-0.545717	-0.000086
C24	C	0.171215	-0.514672	-0.000093
C25	C	0.058549	-0.562589	-0.000098
C26	C	0.060631	-0.641544	-0.000093
C27	C	0.050148	-0.244173	-0.000118
C28	C	0.048075	-0.165212	-0.000121
C29	C	0.275473	-0.148346	-0.000112
C30	C	0.277555	-0.227301	-0.000107
C31	C	0.164889	-0.275210	-0.000116
C32	C	0.167147	-0.360824	-0.000106
C33	C	0.168956	-0.429060	-0.000097
C34	C	0.092422	-0.848663	-0.761156
C35	C	0.092432	-0.848662	-0.674609
C36	C	0.168025	-0.894951	-0.631346
C37	C	0.243603	-0.941251	-0.674634
C38	C	0.243586	-0.941256	-0.761180
C39	C	0.243674	-0.941233	-0.325606
C40	C	0.243688	-0.941222	-0.239055
C41	C	0.092519	-0.848639	-0.239036
C42	C	0.092502	-0.848644	-0.325581
C43	C	0.168075	-0.894946	-0.368862
C44	C	0.168062	-0.894948	-0.462706
C45	C	0.168046	-0.894946	-0.537504
N46	N	0.167998	-0.894958	0.195561
H47	H	-0.430036	-0.771470	-0.000079
Br48	Br	0.438855	-0.480698	-0.000081
H49	H	-0.263982	-0.952258	-0.000114
H50	H	-0.180646	-0.775450	-0.000094
H51	H	0.305211	-0.978934	-0.360835
Br52	Br	0.428380	-0.083321	-0.000101
H53	H	-0.424430	-0.949693	-0.000076
H54	H	0.381471	-0.649943	-0.000069
H55	H	0.370988	-0.252572	-0.000098
Br56	Br	0.346147	-1.004092	-0.819922
Br57	Br	-0.107655	-0.123080	-0.000128
H58	H	-0.041591	-0.283172	-0.000126
H59	H	-0.034875	-0.537306	-0.000115
H60	H	-0.031107	-0.680552	-0.000094
H61	H	0.030872	-0.810965	-0.796375
Br62	Br	-0.010099	-0.785806	-0.615872
Br63	Br	-0.010083	-0.785815	-0.384291
Br64	Br	-0.010049	-0.785799	-0.180293
Br65	Br	0.346289	-1.004046	-0.180340
Br66	Br	0.346186	-1.004079	-0.615921
