data_functionalizedCrystal
_audit_creation_method	'MofGen! by Chris Wilmer'
_symmetry_space_group_name_H-M	'P1'
_symmetry_Int_Tables_number	1
_symmetry_cell_setting	triclinic
loop_
_symmetry_equiv_pos_as_xyz
  x,y,z
_cell_length_a	15.538191
_cell_length_b	9.016244
_cell_length_c	15.625325
_cell_angle_alpha	71.924537
_cell_angle_beta	66.741091
_cell_angle_gamma	90.004726
loop_
_atom_site_label
_atom_site_type_symbol
_atom_site_fract_x
_atom_site_fract_y
_atom_site_fract_z
O1	O	1.249520	0.280779	-0.292664
O2	O	0.975399	0.224812	-0.188617
O3	O	1.119779	0.324664	-0.374268
O4	O	1.105140	0.180927	-0.107012
O5	O	1.119773	0.077987	-0.374276
O6	O	0.975393	-0.021864	-0.188625
O7	O	1.249514	0.034103	-0.292672
Cu8	Cu	1.112453	-0.016404	-0.240649
Cu9	Cu	1.112460	0.275319	-0.240639
O10	O	1.105134	-0.065749	-0.107021
C11	C	0.940315	0.095618	-0.177735
C12	C	0.835784	0.078176	-0.145309
C13	C	0.547566	0.251456	-0.467452
C14	C	0.449340	0.235057	-0.436960
C15	C	0.427126	0.142815	-0.265451
C16	C	0.525351	0.159198	-0.295928
C17	C	0.585564	0.213521	-0.396930
C18	C	0.563349	0.121263	-0.225406
C19	C	0.661566	0.137653	-0.255882
C20	C	0.721785	0.191978	-0.356879
C21	C	0.683781	0.229911	-0.427406
C22	C	0.503134	0.066952	-0.124405
C23	C	0.541132	0.029017	-0.053883
C24	C	0.639351	0.045396	-0.084358
C25	C	0.699570	0.099721	-0.185355
C26	C	0.677355	0.007463	-0.013831
C27	C	0.775572	0.023853	-0.044307
C28	C	0.797787	0.116111	-0.215831
N29	N	1.112455	-0.221585	-0.240659
C30	C	1.189973	-0.403242	-0.339813
C31	C	1.189767	-0.231238	-0.340022
C32	C	1.014191	-0.290257	-0.229050
C33	C	1.014652	-0.461842	-0.229718
C34	C	1.132336	-0.503465	-0.152569
C35	C	1.134563	-0.330774	-0.153936
C36	C	1.284598	0.163300	-0.303554
C37	C	1.389128	0.180752	-0.335980
C38	C	1.119112	0.219275	-0.407641
C39	C	1.117121	0.272758	-0.507067
N40	N	1.112466	0.480505	-0.240639
C41	C	1.110585	-0.223677	-0.834095
C42	C	1.108719	-0.173395	-0.927522
C43	C	1.108726	0.095516	-0.927503
C44	C	1.110587	0.045256	-0.834072
C45	C	1.111518	-0.114342	-0.787375
C46	C	1.111520	0.154591	-0.787352
C47	C	1.113386	0.104336	-0.693931
C48	C	1.114320	-0.055254	-0.647230
C49	C	1.113384	-0.164597	-0.693954
C50	C	1.110596	0.314190	-0.834053
C51	C	1.111529	0.423524	-0.787334
C52	C	1.113388	0.373268	-0.693908
C53	C	1.114322	0.213678	-0.647207
C54	C	1.114324	0.482611	-0.647184
C55	C	1.116191	0.432356	-0.553763
C56	C	1.116188	0.163423	-0.553786
C57	C	1.105801	0.039643	-0.073647
C58	C	1.107792	-0.013830	0.025778
H59	H	0.846816	0.160337	-0.298077
H60	H	0.418408	0.265955	-0.494396
H61	H	1.075818	-0.583648	-0.079146
Br62	Br	1.249231	-0.572830	-0.157908
Br63	Br	1.312128	-0.461417	-0.359718
Br64	Br	0.984314	-0.162648	-0.332924
Br65	Br	1.107463	-0.321795	-0.990930
H66	H	1.107971	0.225462	-0.965537
Br67	Br	1.311500	-0.150429	-0.359448
Br68	Br	0.827146	-0.027620	0.051402
Br69	Br	0.915728	-0.286385	-0.109619
Br70	Br	0.915626	-0.595007	-0.111122
Br71	Br	1.108079	0.382398	-0.960848
Br72	Br	1.110279	0.640117	-0.850721
Br73	Br	0.629293	0.325155	-0.604528
Br74	Br	0.345401	0.069108	-0.128381
Br75	Br	1.111843	-0.440278	-0.770710
H76	H	1.116915	0.033455	-0.515749
Br77	Br	1.255041	-0.255533	-0.167364
Br78	Br	1.169101	-0.416393	-0.449300
H79	H	1.116950	0.521388	-0.515723
Br80	Br	0.459408	-0.044690	0.083187
Br81	Br	0.595627	-0.066224	0.123238
H82	H	1.114110	-0.294565	-0.655917
Br83	Br	1.046583	-0.326217	-0.029309
H84	H	0.801759	0.205342	-0.381690
Br85	Br	0.765507	0.303610	-0.564482
H86	H	0.423161	0.053614	-0.099595
Br87	Br	1.168570	-0.103508	-0.450064
H88	H	1.113576	0.612558	-0.685222
Br89	Br	1.116863	-0.123462	-0.520447
H90	H	0.997158	-0.467948	-0.292964
