data_functionalizedCrystal
_audit_creation_method	'MofGen! by Chris Wilmer'
_symmetry_space_group_name_H-M	'P1'
_symmetry_Int_Tables_number	1
_symmetry_cell_setting	triclinic
loop_
_symmetry_equiv_pos_as_xyz
  x,y,z
_cell_length_a	10.723023
_cell_length_b	10.654549
_cell_length_c	9.730223
_cell_angle_alpha	89.997731
_cell_angle_beta	90.002492
_cell_angle_gamma	95.523837
loop_
_atom_site_label
_atom_site_type_symbol
_atom_site_fract_x
_atom_site_fract_y
_atom_site_fract_z
O1	O	-0.175273	1.667812	-0.114252
O2	O	-0.191972	1.302331	-0.114261
O3	O	-0.002047	1.493503	-0.114254
O4	O	-0.365197	1.476641	-0.114259
O5	O	-0.002042	1.493490	0.114326
O6	O	-0.191967	1.302319	0.114319
O7	O	-0.175267	1.667800	0.114328
Zn8	Zn	-0.183616	1.485058	0.150615
Zn9	Zn	-0.183623	1.485074	-0.150548
O10	O	-0.365192	1.476629	0.114321
C11	C	-0.190743	1.255527	0.000028
C12	C	-0.187075	1.116085	0.000024
C13	C	-0.295444	0.905553	0.000028
C14	C	-0.298900	1.036573	0.000020
C15	C	-0.071787	1.064570	0.000023
C16	C	-0.068332	0.933552	0.000021
C17	C	-0.411694	1.477862	0.000030
C18	C	-0.550249	1.481532	0.000028
C19	C	-0.612019	1.483162	0.118438
C20	C	-0.755223	1.486956	0.118439
C21	C	0.044455	1.492270	0.000034
C22	C	0.183010	1.488599	0.000027
C23	C	-0.176496	1.714604	0.000036
C24	C	-0.180164	1.854047	0.000031
N25	N	-0.183611	1.485056	0.356152
N26	N	-0.183619	1.485086	-0.356085
C27	C	-0.099548	1.569735	0.428081
C28	C	-0.099548	1.569748	0.571964
C29	C	-0.267686	1.400397	0.571976
C30	C	-0.267678	1.400379	0.428096
H31	H	-0.392772	1.078503	0.000016
H32	H	0.019263	1.129319	0.000018
H33	H	-0.336133	1.331457	0.630567
H34	H	0.025548	0.891616	0.000019
Cl35	Cl	-0.529996	1.480964	0.274962
H36	H	-0.808342	1.488365	0.219814
Cl37	Cl	-0.734990	1.486445	-0.156503
Cl38	Cl	-0.632276	1.483704	-0.156496
Cl39	Cl	0.006142	1.676181	0.337643
Cl40	Cl	-0.373359	1.293910	0.337661
H41	H	-0.386505	0.840823	0.000035
Cl42	Cl	0.006138	1.676204	0.662385
