data_functionalizedCrystal
_audit_creation_method	'MofGen! by Chris Wilmer'
_symmetry_space_group_name_H-M	'P1'
_symmetry_Int_Tables_number	1
_symmetry_cell_setting	triclinic
loop_
_symmetry_equiv_pos_as_xyz
  x,y,z
_cell_length_a	17.699083
_cell_length_b	17.699104
_cell_length_c	16.176319
_cell_angle_alpha	89.992259
_cell_angle_beta	89.994260
_cell_angle_gamma	83.287266
loop_
_atom_site_label
_atom_site_type_symbol
_atom_site_fract_x
_atom_site_fract_y
_atom_site_fract_z
O1	O	1.004086	0.095712	-0.068716
O2	O	1.337419	0.429046	0.264618
O3	O	1.670753	0.762379	0.597951
O4	O	0.783708	0.108164	-0.068725
O5	O	1.117042	0.441498	0.264609
O6	O	1.450375	0.774831	0.597942
O7	O	0.900115	-0.008250	-0.068713
O8	O	1.233449	0.325084	0.264621
O9	O	1.566782	0.658417	0.597954
O10	O	0.887679	0.212126	-0.068728
O11	O	1.221013	0.545460	0.264605
O12	O	1.554346	0.878793	0.597939
O13	O	0.900099	-0.008257	0.068781
O14	O	1.233433	0.325076	0.402114
O15	O	1.566766	0.658410	0.735447
O16	O	0.783692	0.108157	0.068768
O17	O	1.117026	0.441490	0.402102
O18	O	1.450359	0.774824	0.735435
O19	O	1.004070	0.095705	0.068777
O20	O	1.337403	0.429038	0.402111
O21	O	1.670737	0.762371	0.735444
Cu22	Cu	0.893880	0.101930	0.081327
Cu23	Cu	1.227213	0.435264	0.414660
Cu24	Cu	1.560546	0.768597	0.747994
Cu25	Cu	0.893899	0.101939	-0.081275
Cu26	Cu	1.227232	0.435272	0.252059
Cu27	Cu	1.560565	0.768606	0.585392
O28	O	0.887663	0.212119	0.068765
O29	O	1.220997	0.545452	0.402099
O30	O	1.554330	0.878786	0.735432
C31	C	0.899659	-0.036450	0.000034
C32	C	1.232992	0.296883	0.333367
C33	C	1.566326	0.630216	0.666701
C34	C	0.898314	-0.120467	0.000034
C35	C	1.231647	0.212866	0.333368
C36	C	1.564981	0.546199	0.666701
C37	C	0.755503	0.107715	0.000021
C38	C	1.088837	0.441048	0.333354
C39	C	1.422170	0.774381	0.666687
C40	C	0.671485	0.106376	0.000017
C41	C	1.004819	0.439709	0.333351
C42	C	1.338152	0.773043	0.666684
C43	C	1.032275	0.096155	0.000030
C44	C	1.365608	0.429488	0.333363
C45	C	1.698942	0.762821	0.666697
C46	C	1.116293	0.097493	0.000028
C47	C	1.449626	0.430827	0.333361
C48	C	1.782960	0.764160	0.666694
C49	C	0.959058	-0.645338	0.000013
C50	C	1.292391	-0.312005	0.333347
C51	C	1.625725	0.021328	0.666680
C52	C	0.960317	-0.566395	0.000021
C53	C	1.293650	-0.233061	0.333354
C54	C	1.626984	0.100272	0.666687
C55	C	0.891982	-0.517777	0.000020
C56	C	1.225315	-0.184444	0.333353
C57	C	1.558648	0.148890	0.666687
C58	C	0.822383	-0.548107	0.000020
C59	C	1.155716	-0.214774	0.333353
C60	C	1.489050	0.118560	0.666687
C61	C	0.821125	-0.627049	0.000018
C62	C	1.154458	-0.293716	0.333352
C63	C	1.487791	0.039617	0.666685
C64	C	0.827456	-0.229741	0.000027
C65	C	1.160789	0.103592	0.333360
C66	C	1.494123	0.436926	0.666694
C67	C	0.828720	-0.150794	0.000026
C68	C	1.162053	0.182540	0.333359
C69	C	1.495386	0.515873	0.666693
C70	C	0.966648	-0.169086	0.000029
C71	C	1.299982	0.164247	0.333363
C72	C	1.633315	0.497580	0.666696
C73	C	0.965390	-0.248029	0.000028
C74	C	1.298723	0.085305	0.333361
C75	C	1.632057	0.418638	0.666695
C76	C	0.895792	-0.278352	0.000032
C77	C	1.229125	0.054982	0.333366
C78	C	1.562458	0.388315	0.666699
C79	C	0.894427	-0.363951	0.000026
C80	C	1.227761	-0.030618	0.333359
C81	C	1.561094	0.302715	0.666693
C82	C	0.893345	-0.432179	0.000020
C83	C	1.226679	-0.098845	0.333354
C84	C	1.560012	0.234488	0.666687
C85	C	1.164909	0.029161	0.000030
C86	C	1.498242	0.362494	0.333363
C87	C	1.831576	0.695827	0.666696
C88	C	1.243852	0.030423	0.000032
C89	C	1.577186	0.363756	0.333366
C90	C	1.910519	0.697089	0.666699
C91	C	1.274178	0.100019	0.000027
C92	C	1.607512	0.433352	0.333360
C93	C	1.940845	0.766685	0.666694
C94	C	1.225556	0.168357	0.000028
C95	C	1.558890	0.501690	0.333361
C96	C	1.892223	0.835023	0.666694
C97	C	1.146614	0.167093	0.000031
C98	C	1.479948	0.500427	0.333364
C99	C	1.813281	0.833760	0.666698
C100	C	1.543920	0.173452	0.000016
C101	C	1.877253	0.506785	0.333349
C102	C	2.210586	0.840118	0.666682
C103	C	1.622868	0.174710	0.000010
C104	C	1.956201	0.508043	0.333343
C105	C	2.289535	0.841376	0.666676
C106	C	1.641158	0.036781	0.000017
C107	C	1.974491	0.370114	0.333350
C108	C	2.307824	0.703448	0.666683
C109	C	1.562216	0.035518	0.000020
C110	C	1.895549	0.368851	0.333353
C111	C	2.228883	0.702185	0.666687
C112	C	1.513601	0.103856	0.000025
C113	C	1.846934	0.437189	0.333358
C114	C	2.180267	0.770522	0.666692
C115	C	1.428001	0.102486	0.000024
C116	C	1.761335	0.435819	0.333357
C117	C	2.094668	0.769153	0.666690
C118	C	1.359776	0.101389	0.000022
C119	C	1.693109	0.434722	0.333356
C120	C	2.026443	0.768056	0.666689
C121	C	0.888120	0.240319	0.000017
C122	C	1.221453	0.573653	0.333350
C123	C	1.554786	0.906986	0.666683
C124	C	0.889464	0.324337	0.000011
C125	C	1.222798	0.657670	0.333344
C126	C	1.556131	0.991003	0.666678
N127	N	0.893872	0.101924	0.195692
N128	N	1.227205	0.435257	0.529026
N129	N	1.560539	0.768590	0.862359
N130	N	0.893912	0.101940	-0.195640
N131	N	1.227246	0.435273	0.137694
N132	N	1.560579	0.768606	0.471027
C133	C	0.945432	0.050396	0.238962
C134	C	1.278766	0.383730	0.572295
C135	C	1.612099	0.717063	0.905629
C136	C	0.945436	0.050396	0.325509
C137	C	1.278770	0.383729	0.658842
C138	C	1.612103	0.717062	0.992176
C139	C	0.893883	0.101926	0.368785
C140	C	1.227216	0.435260	0.702118
C141	C	1.560549	0.768593	1.035452
C142	C	0.842317	0.153456	0.325509
C143	C	1.175650	0.486789	0.658843
C144	C	1.508983	0.820123	0.992176
C145	C	0.842310	0.153453	0.238964
C146	C	1.175643	0.486786	0.572297
C147	C	1.508977	0.820119	0.905630
C148	C	0.842343	0.153470	0.674538
C149	C	1.175676	0.486803	1.007871
C150	C	1.509009	0.820137	1.341204
C151	C	0.842355	0.153471	0.761089
C152	C	1.175688	0.486804	1.094422
C153	C	1.509022	0.820138	1.427756
C154	C	0.945469	0.050413	0.761083
C155	C	1.278802	0.383747	1.094416
C156	C	1.612136	0.717080	1.427749
C157	C	0.945462	0.050410	0.674537
C158	C	1.278795	0.383743	1.007871
C159	C	1.612129	0.717076	1.341204
C160	C	0.893894	0.101936	0.631269
C161	C	1.227227	0.435270	0.964602
C162	C	1.560561	0.768603	1.297936
C163	C	0.893889	0.101936	0.537425
C164	C	1.227223	0.435269	0.870758
C165	C	1.560556	0.768602	1.204092
C166	C	0.893890	0.101931	0.462627
C167	C	1.227224	0.435264	0.795961
C168	C	1.560557	0.768598	1.129294
H169	H	1.016987	-0.541708	0.000024
H170	H	1.350320	-0.208375	0.333357
H171	H	1.683654	0.124958	0.666690
H172	H	1.504346	0.229097	0.000015
H173	H	1.837680	0.562430	0.333349
H174	H	2.171013	0.895763	0.666682
C175	C	1.002160	-0.006277	0.373102
C176	C	1.335493	0.327056	0.706435
C177	C	1.668826	0.660389	1.039769
H178	H	1.032870	-0.036959	0.334933
H179	H	1.366203	0.296374	0.668267
H180	H	1.699536	0.629708	1.001600
H181	H	0.975003	-0.037754	0.406878
H182	H	1.308337	0.295580	0.740211
H183	H	1.641670	0.628913	1.073544
H184	H	1.033616	0.020922	0.406848
H185	H	1.366949	0.354256	0.740182
H186	H	1.700282	0.687589	1.073515
H187	H	0.987444	0.008451	0.639305
H188	H	1.320777	0.341785	0.972638
H189	H	1.654111	0.675118	1.305971
C190	C	1.002146	-0.006281	0.191362
C191	C	1.335479	0.327052	0.524695
C192	C	1.668813	0.660386	0.858029
H193	H	0.994765	0.001101	0.133621
H194	H	1.328099	0.334434	0.466954
H195	H	1.661432	0.667768	0.800287
H196	H	0.994026	-0.056786	0.205555
H197	H	1.327359	0.276548	0.538888
H198	H	1.660693	0.609881	0.872221
H199	H	1.052642	0.001887	0.205538
H200	H	1.385976	0.335220	0.538871
H201	H	1.719309	0.668553	0.872204
H202	H	1.107032	0.222737	0.000032
H203	H	1.440365	0.556070	0.333366
H204	H	1.773698	0.889404	0.666699
H205	H	0.766743	-0.508516	0.000024
H206	H	1.100077	-0.175183	0.333357
H207	H	1.433410	0.158151	0.666691
H208	H	0.987456	0.008455	0.796321
H209	H	1.320790	0.341788	1.129654
H210	H	1.654123	0.675122	1.462987
H211	H	1.283433	-0.025221	0.000037
H212	H	1.616766	0.308113	0.333370
H213	H	1.950100	0.641446	0.666704
H214	H	0.800371	0.195435	0.796323
H215	H	1.133704	0.528768	1.129656
H216	H	1.467038	0.862102	1.462990
H217	H	0.773070	-0.111210	0.000027
H218	H	1.106403	0.222123	0.333361
H219	H	1.439736	0.555457	0.666694
C220	C	1.694633	-0.038392	0.000016
C221	C	2.027966	0.294941	0.333349
C222	C	2.361300	0.628274	0.666682
H223	H	1.665264	-0.080020	0.000008
H224	H	1.998598	0.253313	0.333342
H225	H	2.331931	0.586646	0.666675
H226	H	1.725808	-0.040777	0.047960
H227	H	2.059142	0.292556	0.381294
H228	H	2.392475	0.625890	0.714627
H229	H	1.725808	-0.040760	-0.047940
H230	H	2.059142	0.292574	0.285394
H231	H	2.392475	0.625907	0.618727
H232	H	0.770785	-0.254420	0.000021
H233	H	1.104118	0.078914	0.333354
H234	H	1.437452	0.412247	0.666687
H235	H	0.800356	0.195426	0.639315
H236	H	1.133689	0.528760	0.972649
H237	H	1.467022	0.862093	1.305982
H238	H	1.647556	0.231386	0.000010
H239	H	1.980889	0.564719	0.333343
H240	H	2.314222	0.898053	0.666676
H241	H	0.800337	0.195411	0.360750
H242	H	1.133671	0.528744	0.694083
H243	H	1.467004	0.862077	1.027416
H244	H	1.014705	-0.684918	0.000007
H245	H	1.348038	-0.351585	0.333341
H246	H	1.681371	-0.018251	0.666674
C247	C	1.040558	-0.301504	0.000033
C248	C	1.373892	0.031829	0.333366
C249	C	1.707225	0.365163	0.666699
H250	H	1.082187	-0.272136	0.000043
H251	H	1.415521	0.061197	0.333377
H252	H	1.748854	0.394530	0.666710
H253	H	1.042943	-0.332676	-0.047913
H254	H	1.376276	0.000657	0.285421
H255	H	1.709609	0.333990	0.618754
H256	H	1.042924	-0.332682	0.047987
H257	H	1.376258	0.000652	0.381320
H258	H	1.709591	0.333985	0.714654
C259	C	1.258913	0.244910	0.000020
C260	C	1.592246	0.578244	0.333354
C261	C	1.925580	0.911577	0.666687
H262	H	1.312891	0.235877	0.000010
H263	H	1.646224	0.569210	0.333343
H264	H	1.979558	0.902544	0.666676
H265	H	1.242216	0.273040	0.047965
H266	H	1.575550	0.606373	0.381298
H267	H	1.908883	0.939706	0.714632
H268	H	1.242217	0.273040	-0.047935
H269	H	1.575551	0.606373	0.285399
H270	H	1.908884	0.939706	0.618732
H271	H	1.023319	-0.144388	0.000015
H272	H	1.356652	0.188945	0.333348
H273	H	1.689985	0.522278	0.666681
C274	C	0.744572	-0.660407	0.000008
C275	C	1.077905	-0.327073	0.333341
C276	C	1.411239	0.006260	0.666675
H277	H	0.704054	-0.620147	-0.000001
H278	H	1.037387	-0.286814	0.333332
H279	H	1.370720	0.046520	0.666666
H280	H	0.741206	-0.690829	0.047953
H281	H	1.074539	-0.357496	0.381286
H282	H	1.407873	-0.024163	0.714620
H283	H	0.741223	-0.690814	-0.047947
H284	H	1.074556	-0.357481	0.285386
H285	H	1.407889	-0.024148	0.618720
H286	H	0.800323	0.195410	0.203734
H287	H	1.133657	0.528744	0.537068
H288	H	1.466990	0.862077	0.870401
H289	H	1.140224	-0.027512	0.000029
H290	H	1.473558	0.305821	0.333362
H291	H	1.806891	0.639154	0.666695
H292	H	1.537529	-0.021154	0.000020
H293	H	1.870863	0.312179	0.333353
H294	H	2.204196	0.645513	0.666687
