data_functionalizedCrystal
_audit_creation_method	'MofGen! by Chris Wilmer'
_symmetry_space_group_name_H-M	'P1'
_symmetry_Int_Tables_number	1
_symmetry_cell_setting	triclinic
loop_
_symmetry_equiv_pos_as_xyz
  x,y,z
_cell_length_a	16.959455
_cell_length_b	12.759399
_cell_length_c	12.759393
_cell_angle_alpha	89.973195
_cell_angle_beta	90.021619
_cell_angle_gamma	89.988803
loop_
_atom_site_label
_atom_site_type_symbol
_atom_site_fract_x
_atom_site_fract_y
_atom_site_fract_z
Zn1	Zn	1.208473	0.418301	0.594066
Zn2	Zn	1.208392	0.594017	0.418398
Zn3	Zn	1.076284	0.418343	0.418399
Zn4	Zn	1.076279	0.593929	0.594033
O5	O	1.142357	0.506147	0.506224
O6	O	1.319073	0.441629	0.570777
O7	O	1.190836	0.570767	0.271377
O8	O	1.093855	0.271316	0.441716
O9	O	1.319013	0.570727	0.441714
O10	O	1.190974	0.271286	0.570778
O11	O	1.093777	0.441700	0.271378
O12	O	0.965673	0.441616	0.441684
O13	O	1.093847	0.570578	0.741058
O14	O	0.965669	0.570618	0.570721
O15	O	1.190969	0.441544	0.741083
O16	O	1.190831	0.741026	0.441681
O17	O	1.093768	0.740962	0.570720
C18	C	0.936991	0.506113	0.506200
C19	C	0.849134	0.506123	0.506214
C20	C	1.142312	0.779115	0.506220
C21	C	1.142365	0.895891	0.506253
C22	C	1.142416	0.506047	0.780257
C23	C	1.142441	0.506004	0.897034
C24	C	0.477636	0.438921	0.439174
C25	C	0.477681	0.573461	0.573333
C26	C	0.560227	0.573445	0.573327
C27	C	0.601481	0.506168	0.506242
C28	C	0.560190	0.438906	0.439164
C29	C	0.601525	0.640714	0.640396
C30	C	0.684076	0.640702	0.640392
C31	C	0.725331	0.573419	0.573312
C32	C	0.684035	0.506153	0.506231
C33	C	0.725289	0.438876	0.439147
C34	C	0.683994	0.371604	0.372071
C35	C	0.601445	0.371622	0.372084
C36	C	0.807880	0.573401	0.573299
C37	C	0.807843	0.438861	0.439136
C38	C	1.348525	0.506183	0.506249
C39	C	1.436382	0.506198	0.506259
C40	C	1.192963	0.950752	0.439143
C41	C	1.193015	1.060476	0.439186
C42	C	1.091863	1.060469	0.573452
C43	C	1.091816	0.950747	0.573413
C44	C	1.142427	1.232114	0.506269
C45	C	1.142464	1.115337	0.506335
C46	C	1.142344	0.506172	0.233256
C47	C	1.142471	0.505919	0.116480
C48	C	1.193017	0.438805	0.951911
C49	C	1.193030	0.438760	1.061635
C50	C	1.091891	0.573120	1.061596
C51	C	1.091874	0.573160	0.951874
H52	H	0.841426	0.384068	0.384513
F53	F	1.246763	0.892374	0.367666
F54	F	1.246864	0.367245	1.120033
F55	F	1.038067	1.118860	0.644923
H56	H	0.567929	0.695495	0.695006
H57	H	0.717691	0.695479	0.695010
F58	F	1.038079	0.644592	1.119970
H59	H	1.050612	0.906077	0.628067
F60	F	1.246872	1.118858	0.367761
H61	H	0.567816	0.316855	0.317473
F62	F	0.727909	0.300011	0.300671
F63	F	0.433688	0.367324	0.367796
F64	F	1.246833	0.367329	0.893549
F65	F	1.038038	0.644680	0.893467
H66	H	0.841499	0.628175	0.627908
H67	H	0.444087	0.628241	0.627944
