data_functionalizedCrystal
_audit_creation_method	'MofGen! by Chris Wilmer'
_symmetry_space_group_name_H-M	'P1'
_symmetry_Int_Tables_number	1
_symmetry_cell_setting	triclinic
loop_
_symmetry_equiv_pos_as_xyz
  x,y,z
_cell_length_a	18.050591
_cell_length_b	18.050589
_cell_length_c	13.897441
_cell_angle_alpha	89.973098
_cell_angle_beta	89.974236
_cell_angle_gamma	90.024227
loop_
_atom_site_label
_atom_site_type_symbol
_atom_site_fract_x
_atom_site_fract_y
_atom_site_fract_z
Zn1	Zn	1.135328	-0.295722	-0.545584
Zn2	Zn	1.635328	0.204278	-0.045584
Zn3	Zn	1.135228	-0.419924	-0.384293
Zn4	Zn	1.635228	0.080076	0.115707
Zn5	Zn	1.011137	-0.295744	-0.384282
Zn6	Zn	1.511137	0.204256	0.115718
Zn7	Zn	1.011095	-0.419866	-0.545525
Zn8	Zn	1.511095	0.080134	-0.045525
O9	O	1.073197	-0.357814	-0.464921
O10	O	1.573197	0.142186	0.035079
O11	O	1.239239	-0.312213	-0.524217
O12	O	1.739239	0.187787	-0.024217
O13	O	1.118743	-0.403485	-0.249310
O14	O	1.618743	0.096515	0.250690
O15	O	1.027670	-0.191816	-0.405699
O16	O	1.527670	0.308184	0.094301
O17	O	1.239166	-0.403464	-0.405717
O18	O	1.739166	0.096536	0.094283
O19	O	1.118913	-0.191800	-0.524207
O20	O	1.618913	0.308200	-0.024207
O21	O	1.027573	-0.312250	-0.249302
O22	O	1.527573	0.187750	0.250698
O23	O	0.907207	-0.312194	-0.405642
O24	O	1.407207	0.187806	0.094358
O25	O	1.027599	-0.403365	-0.680515
O26	O	1.527599	0.096635	-0.180515
O27	O	0.907176	-0.403386	-0.524107
O28	O	1.407176	0.096614	-0.024107
O29	O	1.118873	-0.312156	-0.680558
O30	O	1.618873	0.187844	-0.180558
O31	O	1.118703	-0.523841	-0.405661
O32	O	1.618703	-0.023841	0.094339
O33	O	1.027503	-0.523798	-0.524118
O34	O	1.527503	-0.023798	-0.024118
C35	C	0.880245	-0.357786	-0.464868
C36	C	1.380245	0.142214	0.035132
C37	C	0.797699	-0.357792	-0.464868
C38	C	1.297699	0.142208	0.035132
C39	C	0.598244	-0.308145	-0.400595
C40	C	1.098244	0.191855	0.099405
C41	C	0.548822	-0.375883	-0.376864
C42	C	1.048822	0.124117	0.123136
C43	C	0.646569	-0.357815	-0.464911
C44	C	1.146569	0.142185	0.035089
C45	C	0.548908	-0.290100	-0.488640
C46	C	1.048908	0.209900	0.011360
C47	C	0.500584	-0.357831	-0.464952
C48	C	1.000584	0.142169	0.035048
C49	C	0.598235	-0.425589	-0.441134
C50	C	1.098235	0.074411	0.058866
C51	C	0.598325	-0.339760	-0.552951
C52	C	1.098325	0.160240	-0.052951
C53	C	0.548926	-0.407545	-0.529254
C54	C	1.048926	0.092455	-0.029254
C55	C	0.730667	-0.357805	-0.464886
C56	C	1.230667	0.142195	0.035114
C57	C	0.416487	-0.357848	-0.464977
C58	C	0.916487	0.142152	0.035023
C59	C	1.073107	-0.550766	-0.464905
C60	C	1.573107	-0.050766	0.035095
C61	C	1.073137	-0.633312	-0.464930
C62	C	1.573137	-0.133312	0.035070
C63	C	1.023591	-0.832766	-0.529325
C64	C	1.523591	-0.332766	-0.029325
C65	C	1.005488	-0.882209	-0.441303
C66	C	1.505488	-0.382209	0.058697
C67	C	1.073210	-0.784442	-0.464943
C68	C	1.573210	-0.284442	0.035057
C69	C	1.091350	-0.882081	-0.552975
C70	C	1.591350	-0.382081	-0.052975
C71	C	1.073279	-0.930427	-0.464963
C72	C	1.573279	-0.430427	0.035037
C73	C	1.055071	-0.832798	-0.376875
C74	C	1.555071	-0.332798	0.123125
C75	C	1.140965	-0.832665	-0.488606
C76	C	1.640965	-0.332665	0.011394
C77	C	1.122887	-0.882086	-0.400523
C78	C	1.622887	-0.382086	0.099477
C79	C	1.073168	-0.700344	-0.464933
C80	C	1.573168	-0.200344	0.035067
C81	C	1.073321	-1.014524	-0.464963
C82	C	1.573321	-0.514524	0.035037
C83	C	1.266903	-0.357842	-0.464975
C84	C	1.766903	0.142158	0.035025
C85	C	1.349448	-0.357854	-0.464998
C86	C	1.849448	0.142146	0.035002
C87	C	1.073243	-0.357752	-0.716514
C88	C	1.573243	0.142248	-0.216514
C89	C	1.073262	-0.357725	-0.823728
C90	C	1.573262	0.142275	-0.323728
C91	C	1.073307	-0.164108	-0.464958
C92	C	1.573307	0.335892	0.035042
C93	C	1.073354	-0.081563	-0.464974
C94	C	1.573354	0.418437	0.035026
C95	C	1.073277	-0.357704	-0.910798
C96	C	1.573277	0.142296	-0.410798
C97	C	1.073298	-0.357671	-1.020031
C98	C	1.573298	0.142329	-0.520031
C99	C	1.073195	-0.357822	-0.214307
C100	C	1.573195	0.142178	0.285693
C101	C	1.073319	-0.357640	-0.107093
C102	C	1.573319	0.142360	0.392907
H103	H	0.620086	-0.324456	-0.627365
H104	H	1.120086	0.175544	-0.127365
H105	H	1.106665	-0.903729	-0.627414
H106	H	1.606665	-0.403729	-0.127414
H107	H	1.198217	-0.810889	-0.508644
H108	H	1.698217	-0.310889	-0.008644
H109	H	0.527408	-0.449605	-0.583661
H110	H	1.027408	0.050395	-0.083661
H111	H	0.619898	-0.266185	-0.346146
H112	H	1.119898	0.233815	0.153854
H113	H	0.527202	-0.232835	-0.508659
H114	H	1.027202	0.267165	-0.008659
O115	O	0.973362	-0.806959	-0.594077
O116	O	1.473362	-0.306959	-0.094077
C117	C	0.902039	-0.832223	-0.568785
C118	C	1.402039	-0.332223	-0.068785
H119	H	0.900680	-0.846114	-0.488775
H120	H	1.400680	-0.346114	0.011225
H121	H	0.888118	-0.883900	-0.612316
H122	H	1.388118	-0.383900	-0.112316
C123	C	0.846438	-0.754190	-0.688703
C124	C	1.346438	-0.254190	-0.188703
C125	C	0.844768	-0.771244	-0.590431
C126	C	1.344768	-0.271244	-0.090431
H127	H	0.811109	-0.716577	-0.702059
H128	H	1.311109	-0.216577	-0.202059
H129	H	0.894490	-0.737170	-0.705746
H130	H	1.394490	-0.237170	-0.205746
H131	H	0.834840	-0.797259	-0.724967
H132	H	1.334840	-0.297259	-0.224967
H133	H	0.856375	-0.728178	-0.554170
H134	H	1.356375	-0.228178	-0.054170
H135	H	0.796716	-0.788255	-0.573383
H136	H	1.296716	-0.288255	-0.073383
H137	H	0.527080	-0.391166	-0.302427
H138	H	1.027080	0.108834	0.197573
H139	H	0.948222	-0.903988	-0.421307
H140	H	1.448222	-0.403988	0.078693
O141	O	0.624094	-0.493883	-0.417079
O142	O	1.124094	0.006117	0.082921
C143	C	0.702200	-0.493047	-0.417334
C144	C	1.202200	0.006953	0.082666
H145	H	0.722658	-0.433854	-0.406729
H146	H	1.222658	0.066146	0.093271
H147	H	0.723374	-0.515168	-0.489074
H148	H	1.223374	-0.015168	0.010926
C149	C	0.706153	-0.614913	-0.348055
C150	C	1.206153	-0.114913	0.151945
C151	C	0.731280	-0.542212	-0.335021
C152	C	1.231280	-0.042212	0.164979
H153	H	0.724092	-0.645242	-0.297284
H154	H	1.224092	-0.145242	0.202716
H155	H	0.653531	-0.615478	-0.347887
H156	H	1.153531	-0.115478	0.152113
H157	H	0.723800	-0.633337	-0.407842
H158	H	1.223800	-0.133337	0.092158
H159	H	0.713625	-0.523786	-0.275242
H160	H	1.213625	-0.023786	0.224758
H161	H	0.783899	-0.541645	-0.335178
H162	H	1.283899	-0.041645	0.164822
H163	H	1.039689	-0.811239	-0.302415
H164	H	1.539689	-0.311239	0.197585
H165	H	1.164877	-0.903605	-0.346024
H166	H	1.664877	-0.403605	0.153976
