data_functionalizedCrystal
_audit_creation_method	'MofGen! by Chris Wilmer'
_symmetry_space_group_name_H-M	'P1'
_symmetry_Int_Tables_number	1
_symmetry_cell_setting	triclinic
loop_
_symmetry_equiv_pos_as_xyz
  x,y,z
_cell_length_a	19.188905
_cell_length_b	19.188930
_cell_length_c	8.965430
_cell_angle_alpha	89.995304
_cell_angle_beta	89.989084
_cell_angle_gamma	83.139668
loop_
_atom_site_label
_atom_site_type_symbol
_atom_site_fract_x
_atom_site_fract_y
_atom_site_fract_z
O1	O	0.926156	0.087079	-0.124302
O2	O	1.426156	0.587079	0.375698
O3	O	0.722842	0.098832	-0.124253
O4	O	1.222842	0.598832	0.375747
O5	O	0.830366	-0.008701	-0.124250
O6	O	1.330366	0.491299	0.375750
O7	O	0.818632	0.194612	-0.124305
O8	O	1.318632	0.694612	0.375695
O9	O	0.830357	-0.008694	0.123829
O10	O	1.330357	0.491306	0.623829
O11	O	0.722833	0.098839	0.123826
O12	O	1.222833	0.598839	0.623826
O13	O	0.926147	0.087086	0.123777
O14	O	1.426147	0.587086	0.623777
Cu15	Cu	0.824489	0.092963	0.146453
Cu16	Cu	1.324489	0.592963	0.646453
Cu17	Cu	0.824500	0.092955	-0.146929
Cu18	Cu	1.324500	0.592955	0.353071
O19	O	0.818623	0.194619	0.123774
O20	O	1.318623	0.694619	0.623774
C21	C	0.696826	0.098458	-0.000207
C22	C	1.196826	0.598458	0.499793
C23	C	0.619321	0.097324	-0.000187
C24	C	1.119321	0.597324	0.499813
C25	C	0.829982	-0.034708	-0.000206
C26	C	1.329982	0.465292	0.499794
C27	C	0.828841	-0.112213	-0.000193
C28	C	1.328841	0.387787	0.499807
C29	C	0.582934	0.096775	-0.135419
C30	C	1.082934	0.596775	0.364581
C31	C	0.510110	0.095702	-0.135437
C32	C	1.010110	0.595702	0.364563
C33	C	0.473678	0.095164	-0.000216
C34	C	0.973678	0.595164	0.499784
C35	C	0.510073	0.095716	0.135034
C36	C	1.010073	0.595716	0.635034
C37	C	0.582895	0.096796	0.135048
C38	C	1.082895	0.596796	0.635048
N39	N	0.364654	0.053738	0.100427
N40	N	0.864654	0.553738	0.600427
N41	N	0.295477	0.052711	0.100404
N42	N	0.795477	0.552711	0.600404
C43	C	0.254272	0.091911	-0.000251
C44	C	0.754272	0.591911	0.499749
N45	N	0.284857	0.132169	-0.100905
N46	N	0.784857	0.632169	0.399095
N47	N	0.354041	0.133194	-0.100887
N48	N	0.854041	0.633194	0.399113
C49	C	0.394716	0.093993	-0.000216
C50	C	0.894716	0.593993	0.499784
C51	C	0.138921	0.090200	-0.135512
C52	C	0.638921	0.590200	0.364488
C53	C	0.066095	0.089131	-0.135524
C54	C	0.566095	0.589131	0.364476
C55	C	0.066061	0.089138	0.134950
C56	C	0.566061	0.589138	0.634950
C57	C	0.138884	0.090214	0.134959
C58	C	0.638884	0.590214	0.634959
C59	C	0.175310	0.090742	-0.000276
C60	C	0.675310	0.590742	0.499724
C61	C	0.891933	-0.157142	-0.000201
C62	C	1.391933	0.342858	0.499799
C63	C	0.890861	-0.229966	-0.000224
C64	C	1.390861	0.270034	0.499776
C65	C	0.826694	-0.257857	-0.000210
C66	C	1.326694	0.242143	0.499790
C67	C	0.763594	-0.212917	-0.000210
C68	C	1.263594	0.287083	0.499790
C69	C	0.764668	-0.140095	-0.000202
C70	C	1.264668	0.359905	0.499798
N71	N	0.777643	-0.365855	0.084228
N72	N	1.277643	0.134145	0.584228
N73	N	0.776628	-0.435033	0.084223
N74	N	1.276628	0.064967	0.584223
C75	C	0.823456	-0.477265	-0.000239
C76	C	1.323456	0.022735	0.499761
N77	N	0.871349	-0.447706	-0.084678
N78	N	1.371349	0.052294	0.415322
N79	N	0.872366	-0.378522	-0.084666
N80	N	1.372366	0.121478	0.415334
C81	C	0.825523	-0.336819	-0.000220
C82	C	1.325523	0.163181	0.499780
C83	C	0.885390	-0.601159	-0.000275
C84	C	1.385390	-0.101159	0.499725
C85	C	0.884315	-0.673984	-0.000308
C86	C	1.384315	-0.173984	0.499692
C87	C	0.757047	-0.656933	-0.000279
C88	C	1.257047	-0.156933	0.499721
C89	C	0.758123	-0.584110	-0.000261
C90	C	1.258123	-0.084110	0.499739
C91	C	0.822296	-0.556228	-0.000252
C92	C	1.322296	-0.056228	0.499748
C93	C	0.952163	0.087460	-0.000272
C94	C	1.452163	0.587460	0.499728
C95	C	1.029668	0.088594	-0.000302
C96	C	1.529668	0.588594	0.499698
C97	C	0.819007	0.220626	-0.000273
C98	C	1.319007	0.720626	0.499727
C99	C	0.820148	0.298131	-0.000296
C100	C	1.320148	0.798131	0.499704
N101	N	0.824487	0.092969	0.352802
N102	N	1.324487	0.592969	0.852802
N103	N	0.824508	0.092944	-0.353278
N104	N	1.324508	0.592944	0.146722
C105	C	0.774745	0.142683	0.450106
C106	C	1.274745	0.642683	0.950106
C107	C	0.837798	0.156032	0.549500
C108	C	1.337798	0.656032	1.049500
C109	C	0.761461	0.079625	0.549536
C110	C	1.261461	0.579625	1.049536
C111	C	0.887571	0.106350	0.450007
C112	C	1.387571	0.606350	0.950007
C113	C	0.811193	0.029915	0.450034
C114	C	1.311193	0.529915	0.950034
C115	C	0.874291	0.043238	0.549383
C116	C	1.374291	0.543238	1.049383
H117	H	0.612588	0.097205	-0.245538
H118	H	1.112588	0.597205	0.254462
N119	N	0.958198	0.121378	0.392354
N120	N	1.458198	0.621378	0.892354
H121	H	0.990194	0.128152	0.479252
H122	H	1.490194	0.628152	0.979252
H123	H	0.979522	0.080622	0.329513
H124	H	1.479522	0.580622	0.829513
N125	N	0.690853	0.064675	0.607443
N126	N	1.190853	0.564675	1.107443
H127	H	0.691522	0.064323	0.720087
H128	H	1.191522	0.564323	1.220087
H129	H	0.653348	0.102278	0.571228
H130	H	1.153348	0.602278	1.071228
N131	N	0.852707	0.226646	0.607401
N132	N	1.352707	0.726646	1.107401
H133	H	0.896973	0.220655	0.669357
H134	H	1.396973	0.720655	1.169357
H135	H	0.858980	0.258831	0.520539
H136	H	1.358980	0.758831	1.020539
H137	H	0.944187	-0.134445	-0.000198
H138	H	1.444187	0.365555	0.499802
N139	N	0.026775	0.088553	0.280797
N140	N	0.526775	0.588553	0.780797
H141	H	0.060880	0.089060	0.366471
H142	H	0.560880	0.589060	0.866471
H143	H	-0.009240	0.131379	0.286673
H144	H	0.490760	0.631379	0.786673
N145	N	0.178211	0.090782	-0.281365
N146	N	0.678211	0.590782	0.218635
H147	H	0.229866	0.091544	-0.260837
H148	H	0.729866	0.591544	0.239163
H149	H	0.171288	0.047319	-0.340412
H150	H	0.671288	0.547319	0.159588
H151	H	0.942239	-0.266555	-0.000237
H152	H	1.442239	0.233445	0.499763
N153	N	0.178135	0.090805	0.280817
N154	N	0.678135	0.590805	0.780817
H155	H	0.144008	0.090302	0.366479
H156	H	0.644008	0.590302	0.866479
H157	H	0.214150	0.047981	0.286729
H158	H	0.714150	0.547981	0.786729
N159	N	0.694385	-0.242994	-0.000203
N160	N	1.194385	0.257006	0.499797
H161	H	0.703277	-0.295945	-0.000205
H162	H	1.203277	0.204055	0.499795
H163	H	0.666780	-0.226547	0.091768
H164	H	1.166780	0.273453	0.591768
H165	H	0.480405	0.095279	0.245131
H166	H	0.980405	0.595279	0.745131
H167	H	0.612520	0.097244	0.245173
H168	H	1.112520	0.597244	0.745173
H169	H	0.036470	0.088689	-0.245651
H170	H	0.536470	0.588689	0.254349
N171	N	0.930076	-0.012470	0.606775
N172	N	1.430076	0.487530	1.106775
H173	H	0.977644	-0.002307	0.570374
H174	H	1.477644	0.497693	1.070374
H175	H	0.929447	-0.012421	0.719418
H176	H	1.429447	0.487579	1.219418
H177	H	0.480478	0.095257	-0.245562
H178	H	0.980478	0.595257	0.254438
N179	N	0.696616	-0.091630	-0.000194
N180	N	1.196616	0.408370	0.499806
H181	H	0.655802	-0.120345	-0.000194
H182	H	1.155802	0.379655	0.499806
H183	H	0.694286	-0.061052	0.091779
H184	H	1.194286	0.438948	0.591779
N185	N	0.719070	0.198414	0.392369
N186	N	1.219070	0.698414	0.892369
H187	H	0.729214	0.246017	0.428558
H188	H	1.229214	0.746017	0.928558
H189	H	0.719177	0.197676	0.279730
H190	H	1.219177	0.697676	0.779730
N191	N	0.690076	-0.535641	-0.000235
N192	N	1.190076	-0.035641	0.499765
H193	H	0.662072	-0.544581	-0.092192
H194	H	1.162072	-0.044581	0.407808
H195	H	0.662123	-0.544616	0.091795
H196	H	1.162123	-0.044616	0.591795
N197	N	0.954601	-0.571078	-0.000272
N198	N	1.454601	-0.071078	0.499728
H199	H	0.994408	-0.610595	-0.000293
H200	H	1.494408	-0.110595	0.499707
H201	H	0.957821	-0.541227	-0.092230
H202	H	1.457821	-0.041227	0.407770
H203	H	0.935694	-0.710565	-0.000323
H204	H	1.435694	-0.210565	0.499677
N205	N	0.796260	-0.040683	0.392113
N206	N	1.296260	0.459317	0.892113
H207	H	0.748606	-0.050711	0.428254
H208	H	1.248606	0.449289	0.928254
H209	H	0.796861	-0.040238	0.279474
H210	H	1.296861	0.459762	0.779474
N211	N	0.687836	-0.687005	-0.000281
N212	N	1.187836	-0.187005	0.499719
H213	H	0.696729	-0.739955	-0.000292
H214	H	1.196729	-0.239955	0.499708
H215	H	0.660232	-0.670561	0.091692
H216	H	1.160232	-0.170561	0.591692
