data_functionalizedCrystal
_audit_creation_method	'MofGen! by Chris Wilmer'
_symmetry_space_group_name_H-M	'P1'
_symmetry_Int_Tables_number	1
_symmetry_cell_setting	triclinic
loop_
_symmetry_equiv_pos_as_xyz
  x,y,z
_cell_length_a	16.974800
_cell_length_b	15.712078
_cell_length_c	16.053802
_cell_angle_alpha	93.336257
_cell_angle_beta	91.074188
_cell_angle_gamma	101.448304
loop_
_atom_site_label
_atom_site_type_symbol
_atom_site_fract_x
_atom_site_fract_y
_atom_site_fract_z
O1	O	1.080860	0.110256	0.003631
O2	O	0.855215	0.123497	-0.011623
O3	O	0.938019	-0.009020	-0.006021
O4	O	0.998056	0.242773	-0.001971
O5	O	0.933452	-0.001756	0.132529
O6	O	0.850648	0.130761	0.126927
O7	O	1.076293	0.117520	0.142181
Zn8	Zn	0.962746	0.125294	0.156552
Zn9	Zn	0.968762	0.115723	-0.025994
O10	O	0.993489	0.250037	0.136579
C11	C	0.823385	0.126492	0.055655
C12	C	0.735343	0.124585	0.049703
C13	C	0.691495	0.127646	0.122433
C14	C	0.608767	0.125841	0.116843
C15	C	0.569890	0.120980	0.038523
C16	C	0.613743	0.117915	-0.034212
C17	C	0.696468	0.119715	-0.028622
C18	C	0.322744	0.115167	0.013703
C19	C	0.240013	0.113370	0.008118
C20	C	0.235043	0.121294	0.159174
C21	C	0.317771	0.123099	0.164758
C22	C	0.361616	0.120030	0.092023
N23	N	0.485329	0.119136	0.032807
N24	N	0.446174	0.121866	0.097739
C25	C	0.925927	-0.037614	0.062590
C26	C	0.896693	-0.133636	0.060612
C27	C	1.144899	-0.500163	0.077382
C28	C	1.117411	-0.590388	0.075525
C29	C	0.979675	-0.570088	0.066213
C30	C	1.007151	-0.479859	0.068074
C31	C	1.089764	-0.444905	0.073658
C32	C	0.952016	-0.424601	0.064350
C33	C	0.979491	-0.334380	0.066207
C34	C	1.062101	-0.299419	0.071788
C35	C	1.117239	-0.354684	0.075515
C36	C	0.869404	-0.459558	0.058760
C37	C	0.814269	-0.404299	0.055036
C38	C	0.841744	-0.314077	0.056899
C39	C	0.924353	-0.279115	0.062480
C40	C	0.786606	-0.258811	0.053172
C41	C	0.814081	-0.168591	0.055028
C42	C	0.951828	-0.188895	0.064336
C43	C	1.108123	0.114525	0.074901
C44	C	1.196166	0.116432	0.080848
C45	C	1.005581	0.278630	0.067966
C46	C	1.034815	0.374653	0.069939
N47	N	0.958645	0.131825	0.281135
N48	N	0.972867	0.109185	-0.150576
C49	C	0.993903	0.075459	0.327214
C50	C	0.991044	0.080036	0.414427
C51	C	0.952933	0.140983	0.455560
C52	C	0.917670	0.197352	0.409475
C53	C	0.920524	0.192770	0.322263
C54	C	0.940459	0.160972	0.716126
C55	C	0.937609	0.165551	0.803345
C56	C	1.010983	0.048234	0.808291
C57	C	1.013837	0.043661	0.721077
C58	C	0.978571	0.100026	0.674999
N59	N	0.950012	0.145665	0.544706
N60	N	0.981487	0.095340	0.585854
H61	H	0.208362	0.109414	-0.055663
H62	H	0.747006	-0.432772	0.050487
H63	H	1.184510	-0.326222	0.080070
H64	H	0.349418	0.127053	0.228534
C65	C	0.881745	0.254776	0.271576
H66	H	0.858645	0.291736	0.308563
H67	H	0.841057	0.221779	0.234741
H68	H	0.921616	0.289080	0.240163
H69	H	0.886634	0.246974	0.442970
H70	H	0.723144	0.131612	0.186210
H71	H	0.719342	-0.287286	0.048617
H72	H	0.847037	-0.533022	0.057244
C73	C	1.178061	-0.651174	0.079626
H74	H	1.149869	-0.709914	0.077715
H75	H	1.209272	-0.638027	0.130158
H76	H	1.212453	-0.643091	0.033521
H77	H	0.769184	-0.123597	0.051997
H78	H	0.912411	-0.598561	0.061664
C79	C	1.035825	0.008415	0.281975
H80	H	1.056406	-0.024504	0.321912
H81	H	1.078741	0.037834	0.250765
H82	H	0.998180	-0.029464	0.245348
C83	C	1.235772	-0.461706	0.083533
H84	H	1.264677	-0.507537	0.085484
H85	H	1.247755	-0.424400	0.132765
H86	H	1.250946	-0.429467	0.036129
H87	H	1.019753	0.034138	0.451945
C88	C	1.055754	-0.023387	0.675837
H89	H	1.076337	-0.056307	0.715771
H90	H	1.098669	0.006035	0.644626
H91	H	1.018108	-0.061264	0.639210
C92	C	1.049763	-0.013772	0.858974
H93	H	1.072873	-0.050723	0.821985
H94	H	1.009897	-0.048073	0.890388
H95	H	1.090458	0.019227	0.895808
C96	C	0.560539	0.129215	0.196845
H97	H	0.595544	0.132380	0.244290
H98	H	0.519652	0.078286	0.197238
H99	H	0.536680	0.179077	0.198373
H100	H	0.732168	0.117223	-0.087846
C101	C	0.370965	0.111801	-0.066302
H102	H	0.335962	0.108659	-0.113744
H103	H	0.394827	0.061945	-0.067840
H104	H	0.411852	0.162738	-0.066687
H105	H	0.906573	0.215186	0.836831
H106	H	1.084470	-0.225955	0.073299
H107	H	0.911745	0.206868	0.678616
H108	H	0.582081	0.113951	-0.097982
C109	C	0.186818	0.124700	0.239175
H110	H	0.131982	0.122938	0.224632
H111	H	0.207882	0.177025	0.271676
H112	H	0.190828	0.076234	0.270569
C113	C	1.042701	-0.150434	0.070484
H114	H	1.051163	-0.088787	0.071061
H115	H	1.068095	-0.171920	0.023781
H116	H	1.064901	-0.166854	0.120417
