data_functionalizedCrystal
_audit_creation_method	'MofGen! by Chris Wilmer'
_symmetry_space_group_name_H-M	'P1'
_symmetry_Int_Tables_number	1
_symmetry_cell_setting	triclinic
loop_
_symmetry_equiv_pos_as_xyz
  x,y,z
_cell_length_a	19.805405
_cell_length_b	19.805407
_cell_length_c	19.805399
_cell_angle_alpha	89.982197
_cell_angle_beta	89.970699
_cell_angle_gamma	90.023727
loop_
_atom_site_label
_atom_site_type_symbol
_atom_site_fract_x
_atom_site_fract_y
_atom_site_fract_z
Zn1	Zn	-0.269527	1.034736	-0.382680
Zn2	Zn	0.230473	1.534736	0.117320
Zn3	Zn	-0.382716	1.034650	-0.269488
Zn4	Zn	0.117284	1.534650	0.230512
Zn5	Zn	-0.269541	0.921550	-0.269508
Zn6	Zn	0.230459	1.421550	0.230492
Zn7	Zn	-0.382674	0.921514	-0.382638
Zn8	Zn	0.117326	1.421514	0.117362
O9	O	-0.326115	0.978113	-0.326078
O10	O	0.173885	1.478113	0.173922
O11	O	-0.284554	1.129441	-0.367674
O12	O	0.215446	1.629441	0.132326
O13	O	-0.367726	1.019627	-0.174774
O14	O	0.132274	1.519627	0.325226
O15	O	-0.174822	0.936615	-0.284546
O16	O	0.325178	1.436615	0.215454
O17	O	-0.367713	1.129378	-0.284512
O18	O	0.132287	1.629378	0.215488
O19	O	-0.174813	1.019772	-0.367693
O20	O	0.325187	1.519772	0.132307
O21	O	-0.284576	0.936533	-0.174788
O22	O	0.215424	1.436533	0.325212
O23	O	-0.284536	0.826829	-0.284506
O24	O	0.215464	1.326829	0.215494
O25	O	-0.367642	0.936553	-0.477360
O26	O	0.132358	1.436553	0.022640
O27	O	-0.367655	0.826802	-0.367622
O28	O	0.132345	1.326802	0.132378
O29	O	-0.284514	1.019737	-0.477391
O30	O	0.215486	1.519737	0.022609
O31	O	-0.477427	1.019592	-0.284472
O32	O	0.022573	1.519592	0.215528
O33	O	-0.477397	0.936471	-0.367603
O34	O	0.022603	1.436471	0.132397
C35	C	-0.326093	0.802257	-0.326062
C36	C	0.173907	1.302257	0.173938
C37	C	-0.326101	0.727025	-0.326071
C38	C	0.173899	1.227025	0.173929
C39	C	-0.282876	0.691714	-0.369439
C40	C	0.217124	1.191714	0.130561
C41	C	-0.282880	0.621025	-0.369442
C42	C	0.217120	1.121025	0.130558
C43	C	-0.326112	0.585649	-0.326079
C44	C	0.173888	1.085649	0.173921
C45	C	-0.369338	0.620965	-0.282706
C46	C	0.130662	1.120965	0.217294
C47	C	-0.369330	0.691652	-0.282701
C48	C	0.130670	1.191652	0.217299
C49	C	-0.369368	0.335892	-0.282727
C50	C	0.130632	0.835892	0.217273
C51	C	-0.369374	0.265199	-0.282737
C52	C	0.130626	0.765199	0.217263
C53	C	-0.282918	0.265265	-0.369468
C54	C	0.217082	0.765265	0.130532
C55	C	-0.282910	0.335952	-0.369462
C56	C	0.217090	0.835952	0.130538
C57	C	-0.326134	0.371262	-0.326087
C58	C	0.173866	0.871262	0.173913
C59	C	-0.326128	0.447910	-0.326084
C60	C	0.173872	0.947910	0.173916
C61	C	-0.326121	0.509002	-0.326085
C62	C	0.173879	1.009002	0.173915
C63	C	-0.501971	0.978036	-0.326046
C64	C	-0.001971	1.478036	0.173954
C65	C	-0.577203	0.978066	-0.326054
C66	C	-0.077203	1.478066	0.173946
C67	C	-0.612540	1.021389	-0.282813
C68	C	-0.112540	1.521389	0.217187
C69	C	-0.683228	1.021418	-0.282828
C70	C	-0.183228	1.521418	0.217172
C71	C	-0.718578	0.978119	-0.326081
C72	C	-0.218578	1.478119	0.173919
C73	C	-0.683236	0.934794	-0.369327
C74	C	-0.183236	1.434794	0.130673
C75	C	-0.612549	0.934769	-0.369315
C76	C	-0.112549	1.434769	0.130685
C77	C	-0.968309	0.934894	-0.369377
C78	C	-0.468309	1.434894	0.130623
C79	C	-1.039001	0.934921	-0.369384
C80	C	-0.539001	1.434921	0.130616
C81	C	-1.038989	1.021542	-0.282890
C82	C	-0.538989	1.521542	0.217110
C83	C	-0.968302	1.021517	-0.282878
C84	C	-0.468302	1.521517	0.217122
C85	C	-0.932965	0.978195	-0.326126
C86	C	-0.432965	1.478195	0.173874
C87	C	-0.856317	0.978165	-0.326110
C88	C	-0.356317	1.478165	0.173890
C89	C	-0.795225	0.978145	-0.326094
C90	C	-0.295225	1.478145	0.173906
C91	C	-0.149572	0.978207	-0.326126
C92	C	0.350428	1.478207	0.173874
C93	C	-0.074340	0.978248	-0.326146
C94	C	0.425660	1.478248	0.173854
C95	C	-0.326072	0.978151	-0.502621
C96	C	0.173928	1.478151	-0.002621
C97	C	-0.326054	0.978167	-0.577853
C98	C	0.173946	1.478167	-0.077853
C99	C	-0.326136	1.154655	-0.326095
C100	C	0.173864	1.654655	0.173905
C101	C	-0.326146	1.229887	-0.326102
C102	C	0.173854	1.729887	0.173898
C103	C	-0.282767	1.021481	-0.613214
C104	C	0.217233	1.521481	-0.113214
C105	C	-0.282747	1.021488	-0.683903
C106	C	0.217253	1.521488	-0.183903
C107	C	-0.326018	0.978184	-0.719229
C108	C	0.173982	1.478184	-0.219229
C109	C	-0.369308	0.934864	-0.683863
C110	C	0.130692	1.434864	-0.183863
C111	C	-0.369323	0.934854	-0.613176
C112	C	0.130677	1.434854	-0.113176
C113	C	-0.369244	0.934902	-0.968936
C114	C	0.130756	1.434902	-0.468936
C115	C	-0.369227	0.934917	-1.039628
C116	C	0.130773	1.434917	-0.539628
C117	C	-0.282668	1.021536	-1.039663
C118	C	0.217332	1.521536	-0.539663
C119	C	-0.282684	1.021527	-0.968976
C120	C	0.217316	1.521527	-0.468976
C121	C	-0.325970	0.978205	-0.933616
C122	C	0.174030	1.478205	-0.433616
C123	C	-0.325990	0.978197	-0.856968
C124	C	0.174010	1.478197	-0.356968
C125	C	-0.326002	0.978194	-0.795876
C126	C	0.173998	1.478194	-0.295876
C127	C	-0.326108	0.978114	-0.150222
C128	C	0.173892	1.478114	0.349778
C129	C	-0.325936	0.978229	-0.074991
C130	C	0.174064	1.478229	0.425009
H131	H	-0.404564	0.364632	-0.247409
H132	H	0.095436	0.864632	0.252591
C133	C	-0.250082	0.357770	-0.484133
C134	C	0.249918	0.857770	0.015867
C135	C	-0.235387	0.374835	-0.417127
C136	C	0.264613	0.874835	0.082873
H137	H	-0.220738	0.381772	-0.513557
H138	H	0.279262	0.881772	-0.013557
H139	H	-0.295564	0.369349	-0.493952
H140	H	0.204436	0.869349	0.006048
H141	H	-0.243899	0.310617	-0.490334
H142	H	0.256101	0.810617	0.009666
H143	H	-0.241575	0.421988	-0.410924
H144	H	0.258425	0.921988	0.089076
H145	H	-0.189894	0.363261	-0.407305
H146	H	0.310106	0.863261	0.092695
C147	C	-0.704954	0.901770	-0.483915
C148	C	-0.204954	1.401770	0.016085
C149	C	-0.722092	0.887202	-0.416874
C150	C	-0.222092	1.387202	0.083126
H151	H	-0.728946	0.872389	-0.513267
H152	H	-0.228946	1.372389	-0.013267
H153	H	-0.657804	0.895552	-0.490093
H154	H	-0.157804	1.395552	0.009907
H155	H	-0.716501	0.947247	-0.493853
H156	H	-0.216501	1.447247	0.006147
H157	H	-0.710541	0.841726	-0.406934
H158	H	-0.210541	1.341726	0.093066
H159	H	-0.769253	0.893415	-0.410692
H160	H	-0.269253	1.393415	0.089308
H161	H	-0.247500	1.056761	-0.712691
H162	H	0.252500	1.556761	-0.212691
C163	C	-0.590834	1.054421	-0.168226
C164	C	-0.090834	1.554421	0.331774
C165	C	-0.573687	1.068984	-0.235266
C166	C	-0.073687	1.568984	0.264734
H167	H	-0.566851	1.083810	-0.138874
H168	H	-0.066851	1.583810	0.361126
H169	H	-0.579287	1.008952	-0.158282
H170	H	-0.079287	1.508952	0.341718
H171	H	-0.637991	1.060638	-0.162055
H172	H	-0.137991	1.560638	0.337945
H173	H	-0.526530	1.062762	-0.241438
H174	H	-0.026530	1.562762	0.258562
H175	H	-0.585230	1.114464	-0.245214
H176	H	-0.085230	1.614464	0.254786
H177	H	-0.247721	0.236507	-0.404783
H178	H	0.252279	0.736507	0.095217
H179	H	-0.404580	0.236398	-0.247424
H180	H	0.095420	0.736398	0.252576
H181	H	-0.404565	0.899576	-0.584385
H182	H	0.095435	1.399576	-0.084385
H183	H	-0.404465	0.899650	-1.068389
H184	H	0.095535	1.399650	-0.568389
C185	C	-1.060662	1.136189	-0.250025
C186	C	-0.560662	1.636189	0.249975
C187	C	-1.077824	1.069177	-0.235355
C188	C	-0.577824	1.569177	0.264645
H189	H	-1.084631	1.165594	-0.220675
H190	H	-0.584631	1.665594	0.279325
H191	H	-1.072214	1.146067	-0.295506
H192	H	-0.572214	1.646067	0.204494
H193	H	-1.013501	1.142352	-0.243831
H194	H	-0.513501	1.642352	0.256169
H195	H	-1.124984	1.063013	-0.241554
H196	H	-0.624984	1.563013	0.258446
H197	H	-1.066276	1.059295	-0.189863
H198	H	-0.566276	1.559295	0.310137
H199	H	-0.404535	0.592156	-0.247397
H200	H	0.095465	1.092156	0.252603
C201	C	-0.454800	0.684492	-0.196977
C202	C	0.045200	1.184492	0.303023
C203	C	-0.416849	0.730469	-0.235034
C204	C	0.083151	1.230469	0.264966
H205	H	-0.484138	0.708457	-0.167551
H206	H	0.015862	1.208457	0.332449
H207	H	-0.425280	0.656923	-0.171143
H208	H	0.074720	1.156923	0.328857
H209	H	-0.480729	0.656923	-0.226430
H210	H	0.019271	1.156923	0.273570
H211	H	-0.390915	0.758034	-0.205581
H212	H	0.109085	1.258034	0.294419
H213	H	-0.446372	0.758049	-0.260870
H214	H	0.053628	1.258049	0.239130
H215	H	-0.247420	1.056809	-1.068462
H216	H	0.252580	1.556809	-0.568462
H217	H	-0.583777	0.899492	-0.404527
H218	H	-0.083777	1.399492	0.095473
H219	H	-0.711997	1.056695	-0.247617
H220	H	-0.211997	1.556695	0.252383
H221	H	-0.939522	1.056773	-0.247655
H222	H	-0.439522	1.556773	0.252345
C223	C	-0.859962	0.896393	-0.407776
C224	C	-0.359962	1.396393	0.092224
C225	C	-0.929472	0.887272	-0.416911
C226	C	-0.429472	1.387272	0.083089
H227	H	-0.835986	0.866994	-0.437126
H228	H	-0.335986	1.366994	0.062874
H229	H	-0.848417	0.886508	-0.362294
H230	H	-0.348417	1.386508	0.137706
H231	H	-0.848343	0.941862	-0.417723
H232	H	-0.348343	1.441862	0.082277
H233	H	-0.941092	0.841804	-0.406959
H234	H	-0.441092	1.341804	0.093041
H235	H	-0.941023	0.897153	-0.462403
H236	H	-0.441023	1.397153	0.037597
H237	H	-0.247532	1.056747	-0.584457
H238	H	0.252468	1.556747	-0.084457
H239	H	-0.247684	0.592278	-0.404757
H240	H	0.252316	1.092278	0.095243
C241	C	-1.031917	0.849302	-0.454900
C242	C	-0.531917	1.349302	0.045100
C243	C	-1.077859	0.887330	-0.416938
C244	C	-0.577859	1.387330	0.083062
H245	H	-1.055908	0.819927	-0.484258
H246	H	-0.555908	1.319927	0.015742
H247	H	-1.004387	0.823415	-0.425387
H248	H	-0.504387	1.323415	0.074613
H249	H	-1.004305	0.878777	-0.480808
H250	H	-0.504305	1.378777	0.019192
H251	H	-1.105468	0.857855	-0.391025
H252	H	-0.605468	1.357855	0.108975
H253	H	-1.105400	0.913218	-0.446454
H254	H	-0.605400	1.413218	0.053546
C255	C	-0.197113	1.107145	-0.976113
C256	C	0.302887	1.607145	-0.476113
C257	C	-0.235116	1.069126	-0.930147
C258	C	0.264884	1.569126	-0.430147
H259	H	-0.167742	1.136526	-0.952140
H260	H	0.332258	1.636526	-0.452140
H261	H	-0.226599	1.133025	-1.003676
H262	H	0.273401	1.633025	-0.503676
H263	H	-0.171216	1.077665	-1.003688
H264	H	0.328784	1.577665	-0.503688
H265	H	-0.261017	1.098606	-0.902574
H266	H	0.238983	1.598606	-0.402574
H267	H	-0.205627	1.043244	-0.902571
H268	H	0.294373	1.543244	-0.402571
C269	C	-0.454789	0.849268	-0.976012
C270	C	0.045211	1.349268	-0.476012
C271	C	-0.416816	0.887275	-0.930075
C272	C	0.083184	1.387275	-0.430075
H273	H	-0.484158	0.819863	-0.952017
H274	H	0.015842	1.319863	-0.452017
H275	H	-0.425285	0.823413	-1.003593
H276	H	0.074715	1.323413	-0.503593
H277	H	-0.480687	0.878753	-1.003573
H278	H	0.019313	1.378753	-0.503573
H279	H	-0.390914	0.857790	-0.902517
H280	H	0.109086	1.357790	-0.402517
H281	H	-0.446324	0.913132	-0.902482
H282	H	0.053676	1.413132	-0.402482
H283	H	-0.404538	0.899602	-0.712631
H284	H	0.095462	1.399602	-0.212631
H285	H	-0.247674	0.720512	-0.404752
H286	H	0.252326	1.220512	0.095248
