data_functionalizedCrystal
_audit_creation_method	'MofGen! by Chris Wilmer'
_symmetry_space_group_name_H-M	'P1'
_symmetry_Int_Tables_number	1
_symmetry_cell_setting	triclinic
loop_
_symmetry_equiv_pos_as_xyz
  x,y,z
_cell_length_a	18.050590
_cell_length_b	14.909042
_cell_length_c	14.908308
_cell_angle_alpha	89.837538
_cell_angle_beta	86.705717
_cell_angle_gamma	86.709204
loop_
_atom_site_label
_atom_site_type_symbol
_atom_site_fract_x
_atom_site_fract_y
_atom_site_fract_z
Zn1	Zn	1.130630	-0.387521	0.487383
Zn2	Zn	1.630630	0.112479	0.987383
Zn3	Zn	1.144842	-0.529221	0.328356
Zn4	Zn	1.644842	-0.029221	0.828356
Zn5	Zn	1.013170	-0.378857	0.337080
Zn6	Zn	1.513170	0.121143	0.837080
Zn7	Zn	1.013972	-0.537809	0.478713
Zn8	Zn	1.513972	-0.037809	0.978713
O9	O	1.075653	-0.458352	0.407883
O10	O	1.575653	0.041648	0.907883
O11	O	1.236442	-0.406350	0.466265
O12	O	1.736442	0.093650	0.966265
O13	O	1.132988	-0.502055	0.203687
O14	O	1.632988	-0.002055	0.703687
O15	O	1.022468	-0.254182	0.364297
O16	O	1.522468	0.245818	0.864297
O17	O	1.246884	-0.510457	0.349429
O18	O	1.746884	-0.010457	0.849429
O19	O	1.108765	-0.260548	0.474724
O20	O	1.608765	0.239452	0.974724
O21	O	1.036249	-0.391583	0.210096
O22	O	1.536249	0.108417	0.710096
O23	O	0.909349	-0.399910	0.355890
O24	O	1.409349	0.100090	0.855890
O25	O	1.023834	-0.525093	0.605690
O26	O	1.523834	-0.025093	1.105690
O27	O	0.909938	-0.516691	0.459948
O28	O	1.409938	-0.016691	0.959948
O29	O	1.109542	-0.414677	0.612060
O30	O	1.609542	0.085323	1.112060
O31	O	1.133766	-0.656184	0.341023
O32	O	1.633766	-0.156184	0.841023
O33	O	1.037616	-0.662493	0.451489
O34	O	1.537616	-0.162493	0.951489
C35	C	1.087339	-0.691965	0.394388
C36	C	1.587339	-0.191965	0.894388
C37	C	1.092405	-0.791907	0.388645
C38	C	1.592405	-0.291907	0.888645
C39	C	0.882697	-0.458293	0.407925
C40	C	1.382697	0.041707	0.907925
C41	C	0.800149	-0.458290	0.407963
C42	C	1.300149	0.041710	0.907963
C43	C	1.001716	-0.986337	0.492782
C44	C	1.501716	-0.486337	0.992782
C45	C	1.006473	-1.080242	0.487389
C46	C	1.506473	-0.580242	0.987389
C47	C	1.106673	-1.073623	0.372462
C48	C	1.606673	-0.573623	0.872462
C49	C	1.101915	-0.979718	0.377855
C50	C	1.601915	-0.479718	0.877855
C51	C	1.049436	-0.936079	0.438018
C52	C	1.549436	-0.436079	0.938018
C53	C	1.044683	-0.842172	0.443415
C54	C	1.544683	-0.342172	0.943415
C55	C	1.144878	-0.835554	0.328484
C56	C	1.644878	-0.335554	0.828484
C57	C	1.149635	-0.929459	0.323091
C58	C	1.649635	-0.429459	0.823091
C59	C	0.601055	-0.521960	0.464397
C60	C	1.101055	-0.021960	0.964397
C61	C	0.546540	-0.441248	0.491248
C62	C	1.046540	0.058752	0.991248
C63	C	0.649023	-0.458338	0.407917
C64	C	1.149023	0.041662	0.907917
C65	C	0.556458	-0.539097	0.381062
C66	C	1.056458	-0.039097	0.881062
C67	C	0.503042	-0.458391	0.407873
C68	C	1.003042	0.041609	0.907873
C69	C	0.595592	-0.377585	0.434813
C70	C	1.095592	0.122415	0.934813
C71	C	0.605518	-0.475487	0.324585
C72	C	1.105518	0.024513	0.824585
C73	C	0.551024	-0.394717	0.351409
C74	C	1.051024	0.105283	0.851409
C75	C	0.733119	-0.458309	0.407944
C76	C	1.233119	0.041691	0.907944
C77	C	0.418948	-0.458412	0.407846
C78	C	0.918948	0.041588	0.907846
C79	C	1.269364	-0.458412	0.407841
C80	C	1.769364	0.041588	0.907841
C81	C	1.351912	-0.458438	0.407823
C82	C	1.851912	0.041562	0.907823
C83	C	1.065192	-0.471810	0.642413
C84	C	1.565192	0.028190	1.142413
C85	C	1.060734	-0.477544	0.742355
C86	C	1.560734	0.022456	1.242355
C87	C	1.063942	-0.223828	0.421450
C88	C	1.563942	0.276172	0.921450
C89	C	1.058951	-0.123888	0.427232
C90	C	1.558951	0.376112	0.927232
C91	C	1.086114	-0.444882	0.174269
C92	C	1.586114	0.055118	0.674269
C93	C	1.090703	-0.438894	0.074342
C94	C	1.590703	0.061106	0.574342
C95	C	1.141602	-0.373324	0.936794
C96	C	1.641602	0.126676	1.436794
C97	C	1.137416	-0.378709	1.030699
C98	C	1.637416	0.121291	1.530699
C99	C	1.048171	-0.493695	1.024073
C100	C	1.548171	0.006305	1.524073
C101	C	1.052358	-0.488310	0.930168
C102	C	1.552358	0.011690	1.430168
C103	C	1.099076	-0.428123	0.886531
C104	C	1.599076	0.071877	1.386531
C105	C	1.103266	-0.422743	0.792624
C106	C	1.603266	0.077257	1.292624
C107	C	1.014018	-0.537724	0.786000
C108	C	1.514018	-0.037724	1.286000
C109	C	1.009831	-0.543109	0.879906
C110	C	1.509831	-0.043109	1.379906
H111	H	1.001953	-0.806642	0.492405
H112	H	1.501953	-0.306642	0.992405
H113	H	1.183737	-0.794623	0.283894
H114	H	1.683737	-0.294623	0.783894
H115	H	1.141307	-0.373737	0.757097
H116	H	1.641307	0.126263	1.257097
C117	C	0.533004	-0.631323	0.350395
C118	C	1.033004	-0.131323	0.850395
H119	H	0.506220	-0.624139	0.297578
H120	H	1.006220	-0.124139	0.797578
H121	H	0.576001	-0.670067	0.338110
H122	H	1.076001	-0.170067	0.838110
H123	H	0.502308	-0.656654	0.396583
H124	H	1.002308	-0.156654	0.896583
C125	C	0.630719	-0.594527	0.528996
C126	C	1.130719	-0.094527	1.028996
H127	H	0.663242	-0.636684	0.496388
H128	H	1.163242	-0.136684	0.996388
H129	H	0.656949	-0.567137	0.574050
H130	H	1.156949	-0.067137	1.074050
H131	H	0.590263	-0.624537	0.556395
H132	H	1.090263	-0.124537	1.056395
H133	H	1.149392	-1.109170	0.323472
H134	H	1.649392	-0.609170	0.823472
C135	C	0.953986	-1.135528	0.547631
C136	C	1.453986	-0.635528	1.047631
H137	H	0.964330	-1.197705	0.535800
H138	H	1.464330	-0.697705	1.035800
H139	H	0.961333	-1.123571	0.608940
H140	H	1.461333	-0.623571	1.108940
H141	H	0.903906	-1.119425	0.535304
H142	H	1.403906	-0.619425	1.035304
H143	H	1.179645	-0.324322	0.901264
H144	H	1.679645	0.175678	1.401264
C145	C	1.207362	-0.977467	0.256922
C146	C	1.707362	-0.477467	0.756922
H147	H	1.203365	-1.040592	0.261557
H148	H	1.703365	-0.540592	0.761557
H149	H	1.198461	-0.958644	0.197378
H150	H	1.698461	-0.458644	0.697378
H151	H	1.255880	-0.962792	0.271024
H152	H	1.755880	-0.462792	0.771024
C153	C	0.944000	-0.938332	0.558965
C154	C	1.444000	-0.438332	1.058965
H155	H	0.916260	-0.981714	0.590810
H156	H	1.416260	-0.481714	1.090810
H157	H	0.968781	-0.903912	0.600268
H158	H	1.468781	-0.403912	1.100268
H159	H	0.911342	-0.899763	0.526644
H160	H	1.411342	-0.399763	1.026644
H161	H	0.529203	-0.340878	0.303629
H162	H	1.029203	0.159122	0.803629
C163	C	0.511739	-0.421685	0.586416
C164	C	1.011739	0.078315	1.086416
H165	H	0.528874	-0.466927	0.626490
H166	H	1.028874	0.033073	1.126490
H167	H	0.525729	-0.364772	0.605878
H168	H	1.025729	0.135228	1.105878
H169	H	0.459136	-0.421312	0.585591
H170	H	0.959136	0.078688	1.085591
C171	C	0.640332	-0.495087	0.229437
C172	C	1.140332	0.004913	0.729437
H173	H	0.667889	-0.445739	0.209289
H174	H	1.167889	0.054261	0.709289
H175	H	0.672489	-0.547745	0.230619
H176	H	1.172489	-0.047745	0.730619
H177	H	0.602088	-0.503862	0.189694
H178	H	1.102088	-0.003862	0.689694
C179	C	0.618909	-0.285336	0.465592
C180	C	1.118909	0.214664	0.965592
H181	H	0.671571	-0.285890	0.465452
H182	H	1.171571	0.214110	0.965452
H183	H	0.601363	-0.240141	0.425729
H184	H	1.101363	0.259859	0.925729
H185	H	0.598185	-0.273075	0.524602
H186	H	1.098185	0.226925	1.024602
H187	H	1.172043	-0.334084	1.071619
H188	H	1.672043	0.165916	1.571619
C189	C	0.996780	-0.559884	1.072084
C190	C	1.496780	-0.059884	1.572084
H191	H	1.000380	-0.555240	1.135209
H192	H	1.500380	-0.055240	1.635209
H193	H	0.946911	-0.545827	1.057464
H194	H	1.446911	-0.045827	1.557464
H195	H	1.011355	-0.619424	1.053208
H196	H	1.511355	-0.119424	1.553208
H197	H	0.971794	-0.592109	0.915447
H198	H	1.471794	-0.092109	1.415447
H199	H	0.979392	-0.582348	0.745067
H200	H	1.479392	-0.082348	1.245067
