data_functionalizedCrystal
_audit_creation_method	'MofGen! by Chris Wilmer'
_symmetry_space_group_name_H-M	'P1'
_symmetry_Int_Tables_number	1
_symmetry_cell_setting	triclinic
loop_
_symmetry_equiv_pos_as_xyz
  x,y,z
_cell_length_a	9.065215
_cell_length_b	17.699092
_cell_length_c	7.540329
_cell_angle_alpha	89.998097
_cell_angle_beta	89.997574
_cell_angle_gamma	84.150533
loop_
_atom_site_label
_atom_site_type_symbol
_atom_site_fract_x
_atom_site_fract_y
_atom_site_fract_z
O1	O	1.957119	0.110962	-0.147454
O2	O	1.527564	0.120067	-0.147462
O3	O	1.754471	0.005420	-0.147454
O4	O	1.730212	0.225609	-0.147462
O5	O	1.754458	0.005419	0.147511
O6	O	1.527551	0.120065	0.147503
O7	O	1.957105	0.110960	0.147511
Cu8	Cu	1.742327	0.115513	0.174440
Cu9	Cu	1.742343	0.115515	-0.174391
O10	O	1.730198	0.225607	0.147503
C11	C	1.472597	0.119192	0.000020
C12	C	1.308831	0.116577	0.000017
C13	C	1.753593	-0.022784	0.000026
C14	C	1.750979	-0.106822	0.000018
C15	C	1.749762	-0.146299	-0.160770
C16	C	1.747296	-0.225261	-0.160772
C17	C	1.746059	-0.264746	0.000015
C18	C	1.747272	-0.225264	0.160815
C19	C	1.749727	-0.146303	0.160815
C20	C	1.737369	-0.543706	0.160818
C21	C	1.734918	-0.622673	0.160805
C22	C	1.734939	-0.622664	-0.160770
C23	C	1.737394	-0.543703	-0.160770
C24	C	1.738599	-0.504227	0.000029
C25	C	1.741269	-0.418608	0.000030
C26	C	1.743398	-0.350365	0.000017
C27	C	2.012073	0.111836	0.000025
C28	C	2.175839	0.114451	0.000017
C29	C	1.731076	0.253812	0.000019
C30	C	1.733690	0.337850	0.000016
N31	N	1.742326	0.115511	0.419788
N32	N	1.742355	0.115510	-0.419739
H33	H	1.746311	-0.257399	-0.291701
N34	N	1.751110	-0.103714	-0.334192
H35	H	1.749962	-0.140707	-0.436049
H36	H	1.660712	-0.065443	-0.341201
N37	N	1.738739	-0.501116	-0.334188
H38	H	1.737591	-0.538106	-0.436050
H39	H	1.648339	-0.462845	-0.341191
N40	N	1.733635	-0.665241	-0.334210
H41	H	1.731887	-0.721254	-0.309823
H42	H	1.642655	-0.645927	-0.404434
H43	H	1.738380	-0.511577	0.291750
N44	N	1.733584	-0.665260	0.334238
H45	H	1.642586	-0.646017	0.404526
H46	H	1.731911	-0.721262	0.309684
N47	N	1.751043	-0.103716	0.334228
H48	H	1.659197	-0.111950	0.404522
H49	H	1.842088	-0.122984	0.404388
N50	N	1.745952	-0.267848	0.334240
H51	H	1.744225	-0.323861	0.309845
H52	H	1.837803	-0.259549	0.404436
