data_functionalizedCrystal
_audit_creation_method	'MofGen! by Chris Wilmer'
_symmetry_space_group_name_H-M	'P1'
_symmetry_Int_Tables_number	1
_symmetry_cell_setting	triclinic
loop_
_symmetry_equiv_pos_as_xyz
  x,y,z
_cell_length_a	12.759393
_cell_length_b	12.759401
_cell_length_c	12.759399
_cell_angle_alpha	89.983359
_cell_angle_beta	89.968813
_cell_angle_gamma	90.020089
loop_
_atom_site_label
_atom_site_type_symbol
_atom_site_fract_x
_atom_site_fract_y
_atom_site_fract_z
Zn1	Zn	-0.594017	-1.606255	-0.418170
Zn2	Zn	-0.418336	-1.606147	-0.593886
Zn3	Zn	-0.418352	-1.430556	-0.418227
Zn4	Zn	-0.593973	-1.430544	-0.593812
O5	O	-0.506170	-1.518375	-0.506024
O6	O	-0.570724	-1.753261	-0.441486
O7	O	-0.271317	-1.582814	-0.570639
O8	O	-0.441680	-1.453913	-0.271198
O9	O	-0.441652	-1.753182	-0.570584
O10	O	-0.570740	-1.582998	-0.271156
O11	O	-0.271329	-1.453808	-0.441583
O12	O	-0.441637	-1.283533	-0.441511
O13	O	-0.741000	-1.453892	-0.570458
O14	O	-0.570665	-1.283524	-0.570513
O15	O	-0.741032	-1.582986	-0.441414
O16	O	-0.441609	-1.582803	-0.740897
O17	O	-0.570649	-1.453788	-0.740843
C18	C	-0.506149	-1.245408	-0.506011
C19	C	-0.506165	-1.128631	-0.506031
C20	C	-0.506146	-1.518311	-0.778991
C21	C	-0.506171	-1.518379	-0.895768
C22	C	-0.780203	-1.518450	-0.505921
C23	C	-0.896980	-1.518482	-0.505878
C24	C	-1.061573	-1.451352	-0.438628
C25	C	-0.951848	-1.451329	-0.438665
C26	C	-0.951841	-1.585670	-0.573050
C27	C	-1.061563	-1.585698	-0.573007
C28	C	-1.116435	-1.384188	-0.371418
C29	C	-1.061582	-1.317000	-0.304244
C30	C	-0.951857	-1.316977	-0.304281
C31	C	-0.896987	-1.384141	-0.371492
C32	C	-0.233202	-1.518361	-0.506050
C33	C	-0.116426	-1.518533	-0.505797
C34	C	-0.506191	-1.792409	-0.506037
C35	C	-0.506200	-1.909185	-0.506043
C36	C	-0.573244	-1.073792	-0.573304
C37	C	-0.573265	-0.964068	-0.573308
C38	C	-0.439118	-0.964032	-0.438762
C39	C	-0.439104	-1.073754	-0.438754
C40	C	-0.439056	-1.585634	-0.950623
C41	C	-0.439091	-1.585702	-1.060347
C42	C	-0.573359	-1.451251	-1.060351
C43	C	-0.573328	-1.451189	-0.950629
C44	C	-0.506217	-1.518469	-0.231990
C45	C	-0.506237	-1.518508	-0.115214
H46	H	-1.205778	-1.384198	-0.371381
F47	F	-0.367583	-1.657145	-0.892240
H48	H	-0.627852	-1.118470	-0.628083
H49	H	-0.807642	-1.384123	-0.371511
H50	H	-1.106264	-1.262325	-0.249516
F51	F	-0.367661	-1.657286	-1.118724
F52	F	-0.644769	-1.379608	-0.892244
H53	H	-0.907198	-1.262278	-0.249577
H54	H	-0.907157	-1.640350	-0.627772
F55	F	-1.119946	-1.657206	-0.644491
F56	F	-0.644826	-1.379744	-1.118747
F57	F	-0.367750	-0.905618	-0.367167
F58	F	-0.644662	-0.905709	-0.644908
F59	F	-0.367710	-1.132121	-0.367143
