data_functionalizedCrystal
_audit_creation_method	'MofGen! by Chris Wilmer'
_symmetry_space_group_name_H-M	'P1'
_symmetry_Int_Tables_number	1
_symmetry_cell_setting	triclinic
loop_
_symmetry_equiv_pos_as_xyz
  x,y,z
_cell_length_a	12.759401
_cell_length_b	18.101395
_cell_length_c	12.759393
_cell_angle_alpha	89.963711
_cell_angle_beta	89.980875
_cell_angle_gamma	90.031595
loop_
_atom_site_label
_atom_site_type_symbol
_atom_site_fract_x
_atom_site_fract_y
_atom_site_fract_z
Zn1	Zn	1.606129	-0.294793	-0.593964
Zn2	Zn	2.106129	0.205207	-0.093964
Zn3	Zn	1.605971	-0.418655	-0.418270
Zn4	Zn	2.105971	0.081345	0.081730
Zn5	Zn	1.430431	-0.294831	-0.418302
Zn6	Zn	1.930431	0.205169	0.081698
Zn7	Zn	1.430367	-0.418596	-0.593910
Zn8	Zn	1.930367	0.081404	-0.093910
O9	O	1.518225	-0.356719	-0.506112
O10	O	2.018225	0.143281	-0.006112
O11	O	1.753129	-0.311232	-0.570668
O12	O	2.253129	0.188768	-0.070668
O13	O	1.582646	-0.402269	-0.271253
O14	O	2.082646	0.097731	0.228747
O15	O	1.453831	-0.191193	-0.441640
O16	O	1.953831	0.308807	0.058360
O17	O	1.753013	-0.402233	-0.441586
O18	O	2.253013	0.097767	0.058414
O19	O	1.582916	-0.191165	-0.570699
O20	O	2.082916	0.308835	-0.070699
O21	O	1.453678	-0.311296	-0.271277
O22	O	1.953678	0.188704	0.228723
O23	O	1.283402	-0.311240	-0.441587
O24	O	1.783402	0.188760	0.058413
O25	O	1.453722	-0.402134	-0.740938
O26	O	1.953722	0.097866	-0.240938
O27	O	1.283355	-0.402170	-0.570605
O28	O	1.783355	0.097830	-0.070605
O29	O	1.582854	-0.311176	-0.740978
O30	O	2.082854	0.188824	-0.240978
O31	O	1.582583	-0.522280	-0.441533
O32	O	2.082583	-0.022280	0.058467
O33	O	1.453568	-0.522237	-0.570574
O34	O	1.953568	-0.022237	-0.070574
C35	C	1.245257	-0.356703	-0.506094
C36	C	1.745257	0.143297	-0.006094
C37	C	1.128481	-0.356715	-0.506112
C38	C	1.628481	0.143285	-0.006112
C39	C	0.963888	-0.309321	-0.439061
C40	C	1.463888	0.190679	0.060939
C41	C	1.073612	-0.309305	-0.439050
C42	C	1.573612	0.190695	0.060950
C43	C	1.073620	-0.404137	-0.573196
C44	C	1.573620	0.095863	-0.073196
C45	C	0.963898	-0.404148	-0.573210
C46	C	1.463898	0.095852	-0.073210
C47	C	0.909024	-0.261914	-0.371987
C48	C	1.409024	0.238086	0.128013
C49	C	0.963877	-0.214490	-0.304905
C50	C	1.463877	0.285510	0.195095
C51	C	1.073601	-0.214475	-0.304894
C52	C	1.573601	0.285525	0.195106
C53	C	1.128472	-0.261883	-0.371967
C54	C	1.628472	0.238117	0.128033
C55	C	1.518080	-0.549129	-0.506067
C56	C	2.018080	-0.049129	-0.006067
C57	C	1.518114	-0.631443	-0.506083
C58	C	2.018114	-0.131443	-0.006083
C59	C	1.518235	-0.782152	-0.506125
C60	C	2.018235	-0.282152	-0.006125
C61	C	1.437020	-0.813510	-0.587252
C62	C	1.937020	-0.313510	-0.087252
C63	C	1.437327	-0.899128	-0.587594
C64	C	1.937327	-0.399128	-0.087594
C65	C	1.518352	-0.930534	-0.506166
C66	C	2.018352	-0.430534	-0.006166
C67	C	1.629116	-0.899349	-0.535947
C68	C	2.129116	-0.399349	-0.035947
C69	C	1.628579	-0.813704	-0.536513
C70	C	2.128579	-0.313704	-0.036513
C71	C	1.489679	-0.813798	-0.395022
C72	C	1.989679	-0.313798	0.104978
C73	C	1.487304	-0.899450	-0.395638
C74	C	1.987304	-0.399450	0.104362
C75	C	1.518425	-1.014394	-0.506188
C76	C	2.018425	-0.514394	-0.006188
C77	C	1.518170	-0.698292	-0.506106
C78	C	2.018170	-0.198292	-0.006106
C79	C	1.792258	-0.356735	-0.506129
C80	C	2.292258	0.143265	-0.006129
C81	C	1.909035	-0.356741	-0.506137
C82	C	2.409035	0.143259	-0.006137
C83	C	1.518298	-0.356644	-0.780145
C84	C	2.018298	0.143356	-0.280145
C85	C	1.518330	-0.356612	-0.896922
C86	C	2.018330	0.143388	-0.396922
C87	C	1.518399	-0.163557	-0.506179
C88	C	2.018399	0.336443	-0.006179
C89	C	1.518473	-0.081243	-0.506208
C90	C	2.018473	0.418757	-0.006208
C91	C	1.585578	-0.309246	-0.951806
C92	C	2.085578	0.190754	-0.451806
C93	C	1.585603	-0.309219	-1.061531
C94	C	2.085603	0.190781	-0.561531
C95	C	1.451129	-0.403931	-1.061476
C96	C	1.951129	0.096069	-0.561476
C97	C	1.451099	-0.403954	-0.951753
C98	C	1.951099	0.096046	-0.451753
C99	C	1.652809	-0.261904	-0.896975
C100	C	2.152809	0.238096	-0.396975
C101	C	1.720063	-0.214535	-0.951860
C102	C	2.220063	0.285465	-0.451860
C103	C	1.720088	-0.214508	-1.061584
C104	C	2.220088	0.285492	-0.561584
C105	C	1.652858	-0.261851	-1.116423
C106	C	2.152858	0.238149	-0.616423
C107	C	1.518212	-0.356740	-0.233144
C108	C	2.018212	0.143260	0.266856
C109	C	1.518384	-0.356563	-0.116368
C110	C	2.018384	0.143437	0.383632
H111	H	0.919194	-0.175888	-0.250303
H112	H	1.419194	0.324112	0.249697
H113	H	1.396393	-0.442475	-1.106135
H114	H	1.896393	0.057525	-0.606135
H115	H	1.217817	-0.261859	-0.371963
H116	H	1.717817	0.238141	0.128037
F117	F	1.652876	-0.261811	-1.233203
F118	F	2.152876	0.238189	-0.733203
F119	F	0.905516	-0.454617	-0.644604
F120	F	1.405516	0.045383	-0.144604
H121	H	1.396323	-0.442512	-0.907065
H122	H	1.896323	0.057488	-0.407065
H123	H	1.774792	-0.175985	-0.907202
H124	H	2.274792	0.324015	-0.407202
H125	H	1.118305	-0.442735	-0.627802
H126	H	1.618305	0.057265	-0.127802
H127	H	0.819681	-0.261923	-0.371987
H128	H	1.319681	0.238077	0.128013
H129	H	1.652798	-0.261922	-0.807632
H130	H	2.152798	0.238078	-0.307632
H131	H	1.354604	-0.792991	-0.568847
H132	H	1.854604	-0.292991	-0.068847
F133	F	1.131977	-0.163996	-0.233510
F134	F	1.631977	0.336004	0.266490
H135	H	1.691170	-0.792955	-0.479979
H136	H	2.191170	-0.292955	0.020021
H137	H	1.355203	-0.920217	-0.568980
H138	H	1.855203	-0.420217	-0.068980
H139	H	1.455716	-0.791933	-0.669108
H140	H	1.955716	-0.291933	-0.169108
H141	H	1.456320	-0.919559	-0.669921
H142	H	1.956320	-0.419559	-0.169921
H143	H	1.652749	-0.793668	-0.617720
H144	H	2.152749	-0.293668	-0.117720
F145	F	1.791665	-0.164095	-1.119993
F146	F	2.291665	0.335905	-0.619993
H147	H	1.691313	-0.919687	-0.478687
H148	H	2.191313	-0.419687	0.021313
H149	H	1.410252	-0.792268	-0.367850
H150	H	1.910252	-0.292268	0.132150
F151	F	1.661302	-0.927304	-0.640941
F152	F	2.161302	-0.427304	-0.140941
H153	H	1.405788	-0.919843	-0.373174
H154	H	1.905788	-0.419843	0.126826
H155	H	1.542145	-0.920840	-0.331989
H156	H	2.042145	-0.420840	0.168011
H157	H	1.548824	-0.793511	-0.334579
H158	H	2.048824	-0.293511	0.165421
