data_functionalizedCrystal
_audit_creation_method	'MofGen! by Chris Wilmer'
_symmetry_space_group_name_H-M	'P1'
_symmetry_Int_Tables_number	1
_symmetry_cell_setting	triclinic
loop_
_symmetry_equiv_pos_as_xyz
  x,y,z
_cell_length_a	18.215407
_cell_length_b	19.805404
_cell_length_c	18.215399
_cell_angle_alpha	89.968894
_cell_angle_beta	89.982187
_cell_angle_gamma	90.023864
loop_
_atom_site_label
_atom_site_type_symbol
_atom_site_fract_x
_atom_site_fract_y
_atom_site_fract_z
Zn1	Zn	1.125049	-0.269569	-0.416060
Zn2	Zn	1.625049	0.230431	0.083940
Zn3	Zn	1.124948	-0.382760	-0.292987
Zn4	Zn	1.624948	0.117240	0.207013
Zn5	Zn	1.001982	-0.269580	-0.293012
Zn6	Zn	1.501982	0.230420	0.206988
Zn7	Zn	1.001938	-0.382711	-0.416016
Zn8	Zn	1.501938	0.117289	0.083984
O9	O	1.063479	-0.326155	-0.354519
O10	O	1.563479	0.173845	0.145481
O11	O	1.228020	-0.284601	-0.399742
O12	O	1.728020	0.215399	0.100258
O13	O	1.108612	-0.367772	-0.190006
O14	O	1.608612	0.132228	0.309994
O15	O	1.018367	-0.174862	-0.309363
O16	O	1.518367	0.325138	0.190637
O17	O	1.227946	-0.367761	-0.309321
O18	O	1.727946	0.132239	0.190679
O19	O	1.108785	-0.174854	-0.399766
O20	O	1.608785	0.325146	0.100234
O21	O	1.018269	-0.284618	-0.190024
O22	O	1.518269	0.215382	0.309976
O23	O	0.898992	-0.284570	-0.309321
O24	O	1.398992	0.215430	0.190679
O25	O	1.018293	-0.367677	-0.519006
O26	O	1.518293	0.132323	-0.019006
O27	O	0.898959	-0.367687	-0.399691
O28	O	1.398959	0.132313	0.100309
O29	O	1.108742	-0.284553	-0.519039
O30	O	1.608742	0.215447	-0.019039
O31	O	1.108570	-0.477470	-0.309278
O32	O	1.608570	0.022530	0.190722
O33	O	1.018195	-0.477434	-0.399667
O34	O	1.518195	0.022566	0.100333
C35	C	0.872273	-0.326125	-0.354504
C36	C	1.372273	0.173875	0.145496
C37	C	0.790474	-0.326129	-0.354516
C38	C	1.290474	0.173871	0.145484
C39	C	0.525449	-0.282936	-0.401676
C40	C	1.025449	0.217064	0.098324
C41	C	0.602308	-0.282926	-0.401674
C42	C	1.102308	0.217074	0.098326
C43	C	0.602250	-0.369395	-0.307377
C44	C	1.102250	0.130605	0.192623
C45	C	0.525393	-0.369409	-0.307384
C46	C	1.025393	0.130591	0.192616
C47	C	0.486994	-0.326176	-0.354532
C48	C	0.986994	0.173824	0.145468
C49	C	0.640710	-0.326151	-0.354523
C50	C	1.140710	0.173849	0.145477
C51	C	0.724044	-0.326140	-0.354520
C52	C	1.224044	0.173860	0.145480
C53	C	0.403655	-0.326188	-0.354536
C54	C	0.903655	0.173812	0.145464
C55	C	1.063386	-0.502011	-0.354481
C56	C	1.563386	-0.002011	0.145519
C57	C	1.063414	-0.577243	-0.354490
C58	C	1.563414	-0.077243	0.145510
C59	C	1.110659	-1.038971	-0.401695
C60	C	1.610659	-0.538971	0.098305
C61	C	1.110630	-0.968283	-0.401678
C62	C	1.610630	-0.468283	0.098322
C63	C	1.063578	-0.933005	-0.354564
C64	C	1.563578	-0.433005	0.145436
C65	C	1.016557	-0.968419	-0.307459
C66	C	1.516557	-0.468419	0.192541
C67	C	1.016590	-1.039106	-0.307473
C68	C	1.516590	-0.539106	0.192527
C69	C	1.016422	-0.683346	-0.307402
C70	C	1.516422	-0.183346	0.192598
C71	C	1.016391	-0.612653	-0.307393
C72	C	1.516391	-0.112653	0.192607
C73	C	1.110462	-0.612522	-0.401607
C74	C	1.610462	-0.112522	0.098393
C75	C	1.110495	-0.683209	-0.401621
C76	C	1.610495	-0.183209	0.098379
C77	C	1.063478	-0.718617	-0.354513
C78	C	1.563478	-0.218617	0.145487
C79	C	1.063511	-0.795266	-0.354531
C80	C	1.563511	-0.295266	0.145469
C81	C	1.063541	-0.856358	-0.354550
C82	C	1.563541	-0.356358	0.145450
C83	C	1.255432	-0.326185	-0.354534
C84	C	1.755432	0.173815	0.145466
C85	C	1.337231	-0.326198	-0.354540
C86	C	1.837231	0.173802	0.145460
C87	C	1.063524	-0.326108	-0.546472
C88	C	1.563524	0.173892	-0.046472
C89	C	1.063543	-0.326088	-0.628271
C90	C	1.563543	0.173912	-0.128271
C91	C	1.063592	-0.149612	-0.354572
C92	C	1.563592	0.350388	0.145428
C93	C	1.063640	-0.074380	-0.354595
C94	C	1.563640	0.425620	0.145405
C95	C	1.110657	-0.282765	-0.816483
C96	C	1.610657	0.217235	-0.316483
C97	C	1.110666	-0.282745	-0.893341
C98	C	1.610666	0.217255	-0.393341
C99	C	1.016481	-0.369307	-0.893297
C100	C	1.516481	0.130693	-0.393297
C101	C	1.016469	-0.369323	-0.816439
C102	C	1.516469	0.130677	-0.316439
C103	C	1.063561	-0.326053	-0.778034
C104	C	1.563561	0.173947	-0.278034
C105	C	1.063582	-0.326017	-0.931750
C106	C	1.563582	0.173983	-0.431750
C107	C	1.063591	-0.325996	-1.015084
C108	C	1.563591	0.174004	-0.515084
C109	C	1.063551	-0.326073	-0.694695
C110	C	1.563551	0.173927	-0.194695
C111	C	1.063477	-0.326153	-0.163312
C112	C	1.563477	0.173847	0.336688
C113	C	1.063600	-0.325982	-0.081514
C114	C	1.563600	0.174018	0.418486
H115	H	0.633615	-0.247716	-0.440064
H116	H	1.133615	0.252284	0.059936
O117	O	0.639469	-0.411354	-0.261474
O118	O	1.139469	0.088646	0.238526
C119	C	0.620675	-0.396473	-0.188156
C120	C	1.120675	0.103527	0.311844
H121	H	0.564878	-0.370461	-0.186686
H122	H	1.064878	0.129539	0.313314
H123	H	0.618018	-0.445287	-0.155065
H124	H	1.118018	0.054713	0.344935
H125	H	0.663930	-0.361641	-0.163429
H126	H	1.163930	0.138359	0.336571
H127	H	0.494082	-0.404624	-0.268993
H128	H	0.994082	0.095376	0.231007
H129	H	1.148967	-1.067689	-0.440068
H130	H	1.648967	-0.567689	0.059932
O131	O	1.156133	-0.717582	-0.447363
O132	O	1.656133	-0.217582	0.052637
C133	C	1.146093	-0.787566	-0.437261
C134	C	1.646093	-0.287566	0.062739
H135	H	1.089317	-0.797279	-0.413112
H136	H	1.589317	-0.297279	0.086888
H137	H	1.151067	-0.814392	-0.492394
H138	H	1.651067	-0.314392	0.007606
H139	H	1.189776	-0.807616	-0.398111
H140	H	1.689776	-0.307616	0.101889
O141	O	1.156277	-0.933782	-0.447366
O142	O	1.656277	-0.433782	0.052634
C143	C	1.146149	-0.863827	-0.437265
C144	C	1.646149	-0.363827	0.062735
H145	H	1.122082	-0.854228	-0.380445
H146	H	1.622082	-0.354228	0.119555
H147	H	1.201258	-0.836917	-0.442308
H148	H	1.701258	-0.336917	0.057692
H149	H	1.106918	-0.843769	-0.480874
H150	H	1.606918	-0.343769	0.019126
O151	O	1.156486	-0.240675	-0.930576
O152	O	1.656486	0.259325	-0.430576
C153	C	1.198030	-0.202477	-0.880195
C154	C	1.698030	0.297523	-0.380195
H155	H	1.200553	-0.230215	-0.825400
H156	H	1.700553	0.269785	-0.325400
H157	H	1.256021	-0.195261	-0.902413
H158	H	1.756021	0.304739	-0.402413
H159	H	1.171112	-0.151070	-0.872031
H160	H	1.671112	0.348930	-0.372031
O161	O	0.970780	-0.411436	-0.930525
O162	O	1.470780	0.088564	-0.430525
C163	C	0.986833	-0.478901	-0.911736
C164	C	1.486833	0.021099	-0.411736
H165	H	1.015112	-0.480318	-0.855935
H166	H	1.515112	0.019682	-0.355935
H167	H	0.933702	-0.509246	-0.909089
H168	H	1.433702	-0.009246	-0.409089
H169	H	1.024664	-0.501694	-0.954988
H170	H	1.524664	-0.001694	-0.454988
O171	O	0.970821	-0.411410	-0.779004
O172	O	1.470821	0.088590	-0.279004
C173	C	1.012689	-0.455150	-0.734551
C174	C	1.512689	0.044850	-0.234551
H175	H	1.068474	-0.431287	-0.723057
H176	H	1.568474	0.068713	-0.223057
H177	H	0.982701	-0.464224	-0.680495
H178	H	1.482701	0.035776	-0.180495
H179	H	1.020748	-0.505306	-0.764152
H180	H	1.520748	-0.005306	-0.264152
H181	H	0.494188	-0.247733	-0.440067
H182	H	0.994188	0.252267	0.059933
O183	O	0.970607	-0.578353	-0.261726
O184	O	1.470607	-0.078353	0.238274
C185	C	0.923040	-0.537463	-0.303573
C186	C	1.423040	-0.037463	0.196427
H187	H	0.918464	-0.558735	-0.361532
H188	H	1.418464	-0.058735	0.138468
H189	H	0.866423	-0.536718	-0.276899
H190	H	1.366423	-0.036718	0.223101
H191	H	0.945770	-0.483872	-0.306126
H192	H	1.445770	0.016128	0.193874
H193	H	1.148749	-0.583686	-0.439963
H194	H	1.648749	-0.083686	0.060037
O195	O	1.156291	-0.240694	-0.779096
O196	O	1.656291	0.259306	-0.279096
C197	C	1.114407	-0.196972	-0.734663
C198	C	1.614407	0.303028	-0.234663
H199	H	1.058623	-0.220843	-0.723129
H200	H	1.558623	0.279157	-0.223129
H201	H	1.144381	-0.187910	-0.680626
H202	H	1.644381	0.312090	-0.180626
H203	H	1.106350	-0.146808	-0.764303
H204	H	1.606350	0.353192	-0.264303
O205	O	0.970678	-0.717630	-0.261624
O206	O	1.470678	-0.217630	0.238376
C207	C	0.929154	-0.671333	-0.220029
C208	C	1.429154	-0.171333	0.279971
H209	H	0.926566	-0.620928	-0.250165
H210	H	1.426566	-0.120928	0.249835
H211	H	0.871184	-0.691805	-0.212129
H212	H	1.371184	-0.191805	0.287871
H213	H	0.956133	-0.663828	-0.164159
H214	H	1.456133	-0.163828	0.335841
O215	O	0.970772	-0.934120	-0.261799
O216	O	1.470772	-0.434120	0.238201
C217	C	0.923208	-0.893231	-0.303650
C218	C	1.423208	-0.393231	0.196350
H219	H	0.918640	-0.914501	-0.361611
H220	H	1.418640	-0.414501	0.138389
H221	H	0.866587	-0.892489	-0.276983
H222	H	1.366587	-0.392489	0.223017
H223	H	0.945936	-0.839639	-0.306198
H224	H	1.445936	-0.339639	0.193802
O225	O	0.970845	-1.073400	-0.261698
O226	O	1.470845	-0.573400	0.238302
C227	C	0.929320	-1.027107	-0.220098
C228	C	1.429320	-0.527107	0.279902
H229	H	0.926728	-0.976701	-0.250230
H230	H	1.426728	-0.476701	0.249770
H231	H	0.871351	-1.047582	-0.212198
H232	H	1.371351	-0.547582	0.287802
H233	H	0.956300	-1.019604	-0.164229
H234	H	1.456300	-0.519604	0.335771
