data_functionalizedCrystal
_audit_creation_method	'MofGen! by Chris Wilmer'
_symmetry_space_group_name_H-M	'P1'
_symmetry_Int_Tables_number	1
_symmetry_cell_setting	triclinic
loop_
_symmetry_equiv_pos_as_xyz
  x,y,z
_cell_length_a	17.639762
_cell_length_b	21.295417
_cell_length_c	17.640968
_cell_angle_alpha	101.234808
_cell_angle_beta	87.859627
_cell_angle_gamma	101.260577
loop_
_atom_site_label
_atom_site_type_symbol
_atom_site_fract_x
_atom_site_fract_y
_atom_site_fract_z
Zn1	Zn	1.247818	-0.018010	0.195068
Zn2	Zn	1.747818	0.481990	0.695068
Zn3	Zn	1.222024	-0.147890	0.068077
Zn4	Zn	1.722024	0.352110	0.568077
Zn5	Zn	1.095138	-0.058969	0.093713
Zn6	Zn	1.595138	0.441031	0.593713
Zn7	Zn	1.120763	-0.139610	0.220660
Zn8	Zn	1.620763	0.360390	0.720660
O9	O	1.171436	-0.091119	0.144379
O10	O	1.671436	0.408881	0.644379
O11	O	1.350672	-0.021562	0.156783
O12	O	1.850672	0.478438	0.656783
O13	O	1.183672	-0.156701	-0.034797
O14	O	1.683672	0.343299	0.465203
O15	O	1.115462	0.034568	0.107176
O16	O	1.615462	0.534568	0.607176
O17	O	1.331721	-0.116985	0.063483
O18	O	1.831721	0.383015	0.563483
O19	O	1.227636	0.064661	0.181642
O20	O	1.727636	0.564661	0.681642
O21	O	1.090450	-0.091371	-0.015963
O22	O	1.590450	0.408629	0.484037
O23	O	0.992261	-0.083342	0.131991
O24	O	1.492261	0.416658	0.631991
O25	O	1.159136	-0.102872	0.323540
O26	O	1.659136	0.397128	0.823540
O27	O	1.011088	-0.142589	0.225259
O28	O	1.511088	0.357411	0.725259
O29	O	1.252484	-0.013533	0.304737
O30	O	1.752484	0.486467	0.804737
O31	O	1.208520	-0.234895	0.088299
O32	O	1.708520	0.265105	0.588299
O33	O	1.134124	-0.228812	0.200401
O34	O	1.634124	0.271188	0.700401
C35	C	0.974118	-0.116512	0.184185
C36	C	1.474118	0.383488	0.684185
C37	C	0.889709	-0.127387	0.201231
C38	C	1.389709	0.372613	0.701231
C39	C	0.780543	-0.173631	0.273734
C40	C	1.280543	0.326369	0.773734
C41	C	0.859858	-0.163410	0.257710
C42	C	1.359858	0.336590	0.757710
C43	C	0.840251	-0.101568	0.160757
C44	C	1.340251	0.398432	0.660757
C45	C	0.760934	-0.111782	0.176775
C46	C	1.260934	0.388218	0.676775
C47	C	0.731087	-0.147815	0.233264
C48	C	1.231087	0.352185	0.733264
C49	C	0.711478	-0.085966	0.136305
C50	C	1.211478	0.414034	0.636305
C51	C	0.632167	-0.096182	0.152320
C52	C	1.132167	0.403818	0.652320
C53	C	0.602313	-0.132215	0.208805
C54	C	1.102313	0.367785	0.708805
C55	C	0.651776	-0.158031	0.249279
C56	C	1.151776	0.341969	0.749279
C57	C	0.741326	-0.049937	0.079813
C58	C	1.241326	0.450063	0.579813
C59	C	0.691869	-0.024121	0.039343
C60	C	1.191869	0.475879	0.539343
C61	C	0.612558	-0.034333	0.055361
C62	C	1.112558	0.465667	0.555361
C63	C	0.582704	-0.070366	0.111846
C64	C	1.082704	0.429634	0.611846
C65	C	0.563094	-0.008516	0.014887
C66	C	1.063094	0.491484	0.514887
C67	C	0.483784	-0.018733	0.030901
C68	C	0.983784	0.481267	0.530901
C69	C	0.503393	-0.080582	0.127860
C70	C	1.003393	0.419418	0.627860
C71	C	1.171327	-0.254692	0.144357
C72	C	1.671327	0.245308	0.644357
C73	C	1.171356	-0.324655	0.144359
C74	C	1.671356	0.175345	0.644359
C75	C	1.210147	-0.360653	0.086029
C76	C	1.710147	0.139347	0.586029
C77	C	1.210186	-0.426388	0.086039
C78	C	1.710186	0.073612	0.586039
C79	C	1.171419	-0.456125	0.144374
C80	C	1.671419	0.043875	0.644374
C81	C	1.132626	-0.420118	0.202715
C82	C	1.632626	0.079882	0.702715
C83	C	1.132595	-0.354383	0.202707
C84	C	1.632595	0.145617	0.702707
N85	N	1.106154	-0.566823	0.163566
N86	N	1.606154	-0.066823	0.663566
N87	N	1.106185	-0.629270	0.163568
N88	N	1.606185	-0.129270	0.663568
C89	C	1.171513	-0.654181	0.144400
C90	C	1.671513	-0.154181	0.644400
N91	N	1.236807	-0.614289	0.125215
N92	N	1.736807	-0.114289	0.625215
N93	N	1.236774	-0.551838	0.125209
N94	N	1.736774	-0.051838	0.625209
C95	C	1.171449	-0.527403	0.144389
C96	C	1.671449	-0.027403	0.644389
C97	C	1.210350	-0.761456	0.086077
C98	C	1.710350	-0.261456	0.586077
C99	C	1.210391	-0.827190	0.086092
C100	C	1.710391	-0.327190	0.586092
C101	C	1.132824	-0.820920	0.202765
C102	C	1.632824	-0.320920	0.702765
C103	C	1.132790	-0.755185	0.202753
C104	C	1.632790	-0.255185	0.702753
C105	C	1.171551	-0.725458	0.144405
C106	C	1.671551	-0.225458	0.644405
C107	C	1.369523	-0.065628	0.104419
C108	C	1.869523	0.434372	0.604419
C109	C	1.453936	-0.054765	0.087390
C110	C	1.953936	0.445235	0.587390
C111	C	1.211546	-0.052710	0.342465
C112	C	1.711546	0.447290	0.842465
C113	C	1.228638	-0.036342	0.426877
C114	C	1.728638	0.463658	0.926877
C115	C	1.171568	0.073098	0.144414
C116	C	1.671568	0.573098	0.644414
C117	C	1.171625	0.143077	0.144428
C118	C	1.671625	0.643077	0.644428
C119	C	1.131525	-0.129328	-0.052944
C120	C	1.631525	0.370672	0.447056
C121	C	1.114580	-0.145500	-0.137386
C122	C	1.614580	0.354500	0.362614
C123	C	1.041877	-0.215083	0.753438
C124	C	1.541877	0.284917	1.253438
C125	C	1.057954	-0.199693	0.832753
C126	C	1.557954	0.300307	1.332753
C127	C	1.155149	-0.106672	0.813166
C128	C	1.655149	0.393328	1.313166
C129	C	1.139077	-0.122053	0.733848
C130	C	1.639077	0.377947	1.233848
C131	C	1.082441	-0.176259	0.703991
C132	C	1.582441	0.323741	1.203991
C133	C	1.179641	-0.083229	0.684401
C134	C	1.679641	0.416771	1.184401
C135	C	1.163573	-0.098610	0.605090
C136	C	1.663573	0.401390	1.105090
C137	C	1.106942	-0.152815	0.575226
C138	C	1.606942	0.347185	1.075226
C139	C	1.066373	-0.191641	0.624680
C140	C	1.566373	0.308359	1.124680
C141	C	1.236281	-0.029025	0.714259
C142	C	1.736281	0.470975	1.214259
C143	C	1.276845	0.009799	0.664811
C144	C	1.776845	0.509799	1.164811
C145	C	1.260773	-0.005580	0.585499
C146	C	1.760773	0.494420	1.085499
C147	C	1.204142	-0.059785	0.555636
C148	C	1.704142	0.440215	1.055636
C149	C	1.301342	0.033246	0.536045
C150	C	1.801342	0.533246	1.036045
C151	C	1.285274	0.017864	0.456734
C152	C	1.785274	0.517864	0.956734
C153	C	1.188074	-0.075166	0.476324
C154	C	1.688074	0.424834	0.976324
H155	H	0.627475	-0.187365	0.295285
H156	H	1.127475	0.312635	0.795285
F157	F	0.594870	0.029824	-0.045237
F158	F	1.094870	0.529824	0.454763
H159	H	1.024918	-0.231313	0.873012
H160	H	1.524918	0.268687	1.373012
F161	F	1.091499	-0.716873	0.264835
F162	F	1.591499	-0.216873	0.764835
F163	F	1.089844	-0.169188	0.490814
F164	F	1.589844	0.330812	0.990814
H165	H	0.443515	0.002294	-0.002049
H166	H	0.943515	0.502294	0.497951
H167	H	1.241711	-0.336451	0.038520
H168	H	1.741711	0.163549	0.538520
H169	H	1.201264	-0.062539	0.837486
H170	H	1.701264	0.437461	1.337486
H171	H	0.900124	-0.184434	0.290671
H172	H	1.400124	0.315566	0.790671
F173	F	0.723644	0.014225	-0.020776
F174	F	1.223644	0.514225	0.479224
F175	F	1.253383	-0.012658	0.798670
F176	F	1.753383	0.487342	1.298670
F177	F	0.517901	-0.143093	0.225844
F178	F	1.017901	0.356907	0.725844
F179	F	1.337121	0.067486	0.696596
F180	F	1.837121	0.567486	1.196596
F181	F	1.251474	-0.464708	0.023952
F182	F	1.751474	0.035292	0.523952
H183	H	0.756242	-0.202965	0.319741
H184	H	1.256242	0.297035	0.819741
F185	F	0.872026	-0.063222	0.100638
F186	F	1.372026	0.436778	0.600638
H187	H	1.101006	-0.325072	0.250208
H188	H	1.601006	0.174928	0.750208
F189	F	0.825736	-0.039069	0.062766
F190	F	1.325736	0.460931	0.562766
H191	H	1.101063	-0.444334	0.250213
H192	H	1.601063	0.055666	0.750213
H193	H	1.241915	-0.737250	0.038568
H194	H	1.741915	-0.237250	0.538568
H195	H	1.241985	-0.856498	0.038593
H196	H	1.741985	-0.356498	0.538593
F197	F	1.091569	-0.852563	0.264854
F198	F	1.591569	-0.352563	0.764854
H199	H	1.347460	0.077377	0.560366
H200	H	1.847460	0.577377	1.060366
F201	F	1.127789	-0.132855	0.444545
F202	F	1.627789	0.367145	0.944545
H203	H	1.020237	-0.235768	0.600373
H204	H	1.520237	0.264232	1.100373
F205	F	1.328449	0.059183	0.404105
F206	F	1.828449	0.559183	0.904105
F207	F	0.471625	-0.118924	0.187990
F208	F	0.971625	0.381076	0.687990
F209	F	0.981592	-0.272772	0.721659
F210	F	1.481592	0.227228	1.221659
