data_functionalizedCrystal
_audit_creation_method	'MofGen! by Chris Wilmer'
_symmetry_space_group_name_H-M	'P1'
_symmetry_Int_Tables_number	1
_symmetry_cell_setting	triclinic
loop_
_symmetry_equiv_pos_as_xyz
  x,y,z
_cell_length_a	23.532407
_cell_length_b	15.944551
_cell_length_c	22.610064
_cell_angle_alpha	90.002706
_cell_angle_beta	89.994072
_cell_angle_gamma	96.826292
loop_
_atom_site_label
_atom_site_type_symbol
_atom_site_fract_x
_atom_site_fract_y
_atom_site_fract_z
O1	O	0.073437	-1.113904	0.049129
O2	O	0.573437	-0.613904	0.549129
O3	O	0.082493	-0.869278	0.049145
O4	O	0.582493	-0.369278	0.549145
O5	O	-0.004938	-0.998968	0.049126
O6	O	0.495062	-0.498968	0.549126
O7	O	0.160868	-0.984214	0.049148
O8	O	0.660868	-0.484214	0.549148
O9	O	-0.004916	-0.998959	-0.049244
O10	O	0.495084	-0.498959	0.450756
O11	O	0.082515	-0.869269	-0.049225
O12	O	0.582515	-0.369269	0.450775
O13	O	0.073460	-1.113895	-0.049240
O14	O	0.573460	-0.613895	0.450760
Zn15	Zn	0.077991	-0.991581	-0.064851
Zn16	Zn	0.577991	-0.491581	0.435149
Zn17	Zn	0.077962	-0.991593	0.064755
Zn18	Zn	0.577962	-0.491593	0.564755
O19	O	0.160891	-0.984206	-0.049221
O20	O	0.660891	-0.484206	0.450779
C21	C	0.082128	-0.837983	-0.000038
C22	C	0.582128	-0.337983	0.499962
C23	C	0.081001	-0.744746	-0.000033
C24	C	0.581001	-0.244746	0.499967
C25	C	-0.026144	-0.998588	-0.000061
C26	C	0.473856	-0.498588	0.499939
C27	C	-0.089366	-0.997458	-0.000065
C28	C	0.410634	-0.497458	0.499935
C29	C	0.073824	-1.145190	-0.000056
C30	C	0.573824	-0.645190	0.499944
C31	C	0.074951	-1.238427	-0.000058
C32	C	0.574951	-0.738427	0.499942
C33	C	-0.488199	-1.067121	-0.000037
C34	C	0.011801	-0.567121	0.499963
C35	C	-0.547603	-1.066072	-0.000032
C36	C	-0.047603	-0.566072	0.499968
O37	O	-0.584098	-1.130650	-0.000015
O38	O	-0.084098	-0.630650	0.499985
N39	N	-0.570528	-0.988971	-0.000028
N40	N	-0.070528	-0.488971	0.499972
C41	C	-0.534045	-0.912915	-0.000022
C42	C	-0.034045	-0.412915	0.499978
O43	O	-0.558999	-0.847239	-0.000017
O44	O	-0.058999	-0.347239	0.499983
C45	C	-0.474642	-0.913965	-0.000022
C46	C	0.025358	-0.413965	0.499978
C47	C	-0.451721	-0.991071	-0.000033
C48	C	0.048279	-0.491071	0.499967
C49	C	-0.465277	-1.144220	-0.000047
C50	C	0.034723	-0.644220	0.499953
C51	C	-0.405877	-1.145269	-0.000052
C52	C	0.094123	-0.645269	0.499948
C53	C	-0.369399	-1.069219	-0.000048
C54	C	0.130601	-0.569219	0.499952
C55	C	-0.392320	-0.992120	-0.000039
C56	C	0.107680	-0.492120	0.499961
C57	C	-0.438160	-0.837910	-0.000012
C58	C	0.061840	-0.337910	0.499988
C59	C	-0.378754	-0.838967	-0.000012
C60	C	0.121246	-0.338967	0.499988
C61	C	-0.355832	-0.916072	-0.000023
C62	C	0.144168	-0.416072	0.499977
C63	C	-0.296442	-0.917118	-0.000040
C64	C	0.203558	-0.417118	0.499960
N65	N	-0.273517	-0.994219	-0.000045
N66	N	0.226483	-0.494219	0.499955
C67	C	-0.309995	-1.070269	-0.000049
C68	C	0.190005	-0.570269	0.499951
C69	C	-0.658796	-0.910716	-0.000020
C70	C	-0.158796	-0.410716	0.499980
C71	C	-0.718198	-0.909664	-0.000024
C72	C	-0.218198	-0.409664	0.499976
C73	C	-0.731752	-1.062821	-0.000034
C74	C	-0.231752	-0.562821	0.499966
C75	C	-0.672349	-1.063872	-0.000034
C76	C	-0.172349	-0.563872	0.499966
C77	C	-0.635871	-0.987816	-0.000025
C78	C	-0.135871	-0.487816	0.499975
C79	C	-0.185250	-1.072466	-0.000061
C80	C	0.314750	-0.572466	0.499939
C81	C	-0.125844	-1.073508	-0.000069
C82	C	0.374156	-0.573508	0.499931
C83	C	-0.112295	-0.920352	-0.000057
C84	C	0.387705	-0.420352	0.499943
C85	C	-0.171696	-0.919309	-0.000052
C86	C	0.328304	-0.419309	0.499948
C87	C	-0.208173	-0.995373	-0.000052
C88	C	0.291827	-0.495373	0.499948
O89	O	-0.259913	-0.852574	-0.000055
O90	O	0.240087	-0.352574	0.499945
O91	O	-0.285033	-1.135935	-0.000046
O92	O	0.214967	-0.635935	0.499954
C93	C	0.182097	-0.984586	-0.000034
C94	C	0.682097	-0.484586	0.499966
C95	C	0.245318	-0.985715	-0.000025
C96	C	0.745318	-0.485715	0.499975
N97	N	0.078011	-0.991579	-0.153303
N98	N	0.578011	-0.491579	0.346697
C99	C	0.024113	-0.530369	-0.000052
C100	C	0.524113	-0.030369	0.499948
C101	C	0.050519	-0.469131	0.048453
C102	C	0.550519	0.030869	0.548453
C103	C	0.078962	-0.574038	-0.000040
C104	C	0.578962	-0.074038	0.499960
C105	C	0.050554	-0.469144	-0.048531
C106	C	0.550554	0.030856	0.451469
C107	C	0.076989	-0.409142	-0.000050
C108	C	0.576989	0.090858	0.499950
C109	C	0.105383	-0.514027	0.048505
C110	C	0.605383	-0.014027	0.548505
C111	C	0.105410	-0.514047	-0.048523
C112	C	0.605410	-0.014047	0.451477
C113	C	0.131856	-0.452826	-0.000006
C114	C	0.631856	0.047174	0.499994
C115	C	0.080097	-0.669030	-0.000034
C116	C	0.580097	-0.169030	0.499966
C117	C	0.075858	-0.314150	-0.000051
C118	C	0.575858	0.185850	0.499949
C119	C	0.116678	-0.934134	-0.438143
C120	C	0.616678	-0.434134	0.061857
C121	C	0.116684	-0.934131	-0.376223
C122	C	0.616684	-0.434131	0.123777
O123	O	0.149585	-0.885264	-0.344197
O124	O	0.649585	-0.385264	0.155803
N125	N	0.077988	-0.991573	-0.345255
N126	N	0.577988	-0.491573	0.154745
C127	C	0.039280	-1.049015	-0.376211
C128	C	0.539280	-0.549015	0.123789
O129	O	0.006367	-1.097873	-0.344185
O130	O	0.506367	-0.597873	0.155815
C131	C	0.039273	-1.049013	-0.438130
C132	C	0.539273	-0.549013	0.061870
C133	C	0.077975	-0.991573	-0.469094
C134	C	0.577975	-0.491573	0.030906
C135	C	0.155377	-0.876698	-0.469107
C136	C	0.655377	-0.376698	0.030893
C137	C	0.155372	-0.876702	-0.531023
C138	C	0.655372	-0.376702	-0.031023
C139	C	0.116668	-0.934141	-0.561974
C140	C	0.616668	-0.434141	-0.061974
C141	C	0.077970	-0.991577	-0.531010
C142	C	0.577970	-0.491577	-0.031010
C143	C	0.000563	-1.106450	-0.469084
C144	C	0.500563	-0.606450	0.030916
C145	C	0.000558	-1.106442	-0.531007
C146	C	0.500558	-0.606442	-0.031007
C147	C	0.039260	-1.049002	-0.561972
C148	C	0.539260	-0.549002	-0.061972
C149	C	0.039261	-1.049019	-0.623877
C150	C	0.539261	-0.549019	-0.123877
N151	N	0.077957	-0.991578	-0.654844
N152	N	0.577957	-0.491578	-0.154844
C153	C	0.116660	-0.934139	-0.623893
C154	C	0.616660	-0.434139	-0.123893
C155	C	0.039299	-1.049014	-0.246177
C156	C	0.539299	-0.549014	0.253823
C157	C	0.039309	-1.049022	-0.184260
C158	C	0.539309	-0.549022	0.315740
C159	C	0.116712	-0.934137	-0.184276
C160	C	0.616712	-0.434137	0.315724
C161	C	0.116704	-0.934134	-0.246195
C162	C	0.616704	-0.434134	0.253805
C163	C	0.077995	-0.991573	-0.277145
C164	C	0.577995	-0.491573	0.222855
C165	C	0.116647	-0.934151	-0.753920
C166	C	0.616647	-0.434151	-0.253920
C167	C	0.116641	-0.934162	-0.815841
C168	C	0.616641	-0.434162	-0.315841
C169	C	0.039236	-1.049043	-0.815820
C170	C	0.539236	-0.549043	-0.315820
C171	C	0.039245	-1.049036	-0.753904
C172	C	0.539245	-0.549036	-0.253904
C173	C	0.077953	-0.991582	-0.722956
C174	C	0.577953	-0.491582	-0.222956
O175	O	0.006375	-1.097860	-0.655942
O176	O	0.506375	-0.597860	-0.155942
O177	O	0.149563	-0.885282	-0.655926
O178	O	0.649563	-0.385282	-0.155926
N179	N	0.077937	-0.991601	0.153207
N180	N	0.577937	-0.491601	0.653207
H181	H	-0.214943	-1.134405	-0.000059
H182	H	0.285057	-0.634405	0.499941
H183	H	-0.021407	-0.564086	0.000002
H184	H	0.478593	-0.064086	0.500002
C185	C	-0.771886	-1.146476	-0.000027
C186	C	-0.271886	-0.646476	0.499973
H187	H	-0.810546	-1.134802	-0.000017
H188	H	-0.310546	-0.634802	0.499983
H189	H	-0.764941	-1.178121	-0.034330
H190	H	-0.264941	-0.678121	0.465670
H191	H	-0.764937	-1.178107	0.034282
H192	H	-0.264937	-0.678107	0.534282
H193	H	0.186894	-0.829920	-0.443912
H194	H	0.686894	-0.329920	0.056088
H195	H	-0.107185	-1.136300	-0.000079
H196	H	0.392815	-0.636300	0.499921
H197	H	-0.653691	-1.126658	-0.000042
H198	H	-0.153691	-0.626658	0.499958
H199	H	-0.349056	-0.777032	-0.000004
H200	H	0.150944	-0.277032	0.499996
H201	H	-0.387220	-1.208056	-0.000059
H202	H	0.112780	-0.708056	0.499941
H203	H	0.027355	-0.449250	-0.089537
H204	H	0.527355	0.050750	0.410463
H205	H	0.007800	-1.095803	-0.159053
H206	H	0.507800	-0.595803	0.340947
H207	H	-0.736855	-0.846878	-0.000026
H208	H	-0.236855	-0.346878	0.499974
H209	H	0.007779	-1.095795	-0.271374
H210	H	0.507779	-0.595795	0.228626
H211	H	0.186884	-0.829927	-0.556230
H212	H	0.686884	-0.329927	-0.056230
H213	H	0.027311	-0.449220	0.089454
H214	H	0.527311	0.050780	0.589454
H215	H	0.148218	-0.887362	-0.271402
H216	H	0.648218	-0.387362	0.228598
H217	H	0.148158	-0.887388	-0.841050
H218	H	0.648158	-0.387388	-0.341050
H219	H	0.148166	-0.887366	-0.728729
H220	H	0.648166	-0.387366	-0.228729
C221	C	0.136698	-0.540761	0.103956
C222	C	0.636698	-0.040761	0.603956
H223	H	0.137208	-0.600249	0.103628
H224	H	0.637208	-0.100249	0.603628
H225	H	0.174854	-0.513502	0.104086
H226	H	0.674854	-0.013502	0.604086
H227	H	0.117344	-0.525036	0.138362
H228	H	0.617344	-0.025036	0.638362
C229	C	-0.505395	-1.227883	-0.000056
C230	C	-0.005395	-0.727883	0.499944
H231	H	-0.483227	-1.273943	-0.000067
H232	H	0.016773	-0.773943	0.499933
H233	H	-0.528857	-1.230675	0.034245
H234	H	-0.028857	-0.730675	0.534245
H235	H	-0.528842	-1.230654	-0.034367
H236	H	-0.028842	-0.730654	0.465633
C237	C	0.159286	-0.870955	-0.150221
C238	C	0.659286	-0.370955	0.349779
H239	H	0.153742	-0.879183	-0.108911
H240	H	0.653742	-0.379183	0.391089
H241	H	0.197298	-0.879755	-0.160376
H242	H	0.697298	-0.379755	0.339624
H243	H	0.153074	-0.814946	-0.160361
H244	H	0.653074	-0.314946	0.339639
H245	H	-0.030952	-1.153222	-0.443882
H246	H	0.469048	-0.653222	0.056118
C247	C	-0.042023	-1.169627	-0.565049
C248	C	0.457977	-0.669627	-0.065049
H249	H	-0.065066	-1.203836	-0.537736
H250	H	0.434934	-0.703836	-0.037736
H251	H	-0.065745	-1.139614	-0.589199
H252	H	0.434255	-0.639614	-0.089199
H253	H	-0.021522	-1.204426	-0.589207
H254	H	0.478478	-0.704426	-0.089207
C255	C	0.193409	-0.407505	0.000037
C256	C	0.693409	0.092495	0.500037
H257	H	0.212790	-0.422855	0.034525
H258	H	0.712790	0.077145	0.534525
H259	H	0.213044	-0.423563	-0.034086
H260	H	0.713044	0.076437	0.465914
H261	H	0.192364	-0.348128	-0.000286
H262	H	0.692364	0.151872	0.499714
C263	C	-0.003323	-1.112221	-0.719842
C264	C	0.496677	-0.612221	-0.219842
H265	H	-0.026375	-1.146428	-0.747146
H266	H	0.473625	-0.646428	-0.247146
H267	H	0.017177	-1.147009	-0.695688
H268	H	0.517177	-0.647009	-0.195688
H269	H	-0.027046	-1.082198	-0.695687
H270	H	0.472954	-0.582198	-0.195687
C271	C	-0.003337	-1.112218	-0.849874
C272	C	0.496663	-0.612218	-0.349874
H273	H	0.002202	-1.103981	-0.891184
H274	H	0.502202	-0.603981	-0.391184
H275	H	0.002867	-1.168226	-0.839735
H276	H	0.502867	-0.668226	-0.339735
H277	H	-0.041350	-1.103405	-0.839719
H278	H	0.458650	-0.603405	-0.339719
C279	C	0.136734	-0.540985	-0.103913
C280	C	0.636734	-0.040985	0.396087
H281	H	0.117199	-0.525806	-0.138345
H282	H	0.617199	-0.025806	0.361655
H283	H	0.174794	-0.513369	-0.104256
H284	H	0.674794	-0.013369	0.395744
H285	H	0.137521	-0.600411	-0.103315
H286	H	0.637521	-0.100411	0.396685
H287	H	-0.629098	-0.848778	-0.000018
H288	H	-0.129098	-0.348778	0.499982
H289	H	-0.456812	-0.775123	-0.000000
H290	H	0.043188	-0.275123	0.500000
H291	H	-0.190359	-0.856524	-0.000060
H292	H	0.309641	-0.356524	0.499940
H293	H	-0.082584	-0.858434	-0.000056
H294	H	0.417416	-0.358434	0.499944
