data_functionalizedCrystal
_audit_creation_method	'MofGen! by Chris Wilmer'
_symmetry_space_group_name_H-M	'P1'
_symmetry_Int_Tables_number	1
_symmetry_cell_setting	triclinic
loop_
_symmetry_equiv_pos_as_xyz
  x,y,z
_cell_length_a	14.044220
_cell_length_b	15.944551
_cell_length_c	12.503572
_cell_angle_alpha	93.522593
_cell_angle_beta	86.164750
_cell_angle_gamma	88.343808
loop_
_atom_site_label
_atom_site_type_symbol
_atom_site_fract_x
_atom_site_fract_y
_atom_site_fract_z
O1	O	1.263178	0.198062	-0.089210
O2	O	0.987210	0.190753	-0.089237
O3	O	1.132730	0.072697	-0.089213
O4	O	1.117659	0.316117	-0.089234
O5	O	1.121786	0.081592	0.089427
O6	O	0.976267	0.199647	0.089403
O7	O	1.252235	0.206956	0.089430
Cu8	Cu	1.113251	0.204114	0.105728
Cu9	Cu	1.126194	0.193595	-0.105535
O10	O	1.106715	0.325012	0.089406
C11	C	0.946424	0.192001	0.000079
C12	C	0.841198	0.182459	0.000069
C13	C	0.648534	0.165017	0.000092
C14	C	0.590906	0.232688	0.000091
C15	C	0.483701	0.222983	0.000104
C16	C	0.755749	0.174721	0.000079
C17	C	1.126632	0.045804	0.000107
C18	C	1.124756	-0.047583	0.000107
C19	C	1.030073	-0.269530	0.000083
C20	C	1.068645	-0.322870	0.088168
C21	C	1.121363	-0.218563	0.000099
C22	C	1.079457	-0.331621	-0.087957
C23	C	1.118079	-0.383722	0.000086
C24	C	1.159956	-0.270669	0.088256
C25	C	1.170759	-0.279418	-0.087948
C26	C	1.209396	-0.332734	0.000158
C27	C	1.123252	-0.123419	0.000107
C28	C	1.116197	-0.478865	0.000085
C29	C	1.293021	0.205708	0.000111
C30	C	1.398247	0.215249	0.000114
C31	C	1.112813	0.351905	0.000083
C32	C	1.114689	0.445291	0.000076
N33	N	1.104155	0.211512	0.254318
N34	N	1.135297	0.186191	-0.254126
C35	C	1.090774	0.222403	0.473431
C36	C	1.148675	0.175303	0.526768
C37	C	1.141230	0.181362	0.648690
C38	C	1.098218	0.216344	0.351498
H39	H	0.617360	0.099799	0.000104
O40	O	0.939643	-0.236582	0.000363
C41	C	0.783686	-0.221185	0.093505
C42	C	0.886067	-0.258531	0.093329
H43	H	0.740335	-0.238931	0.168649
H44	H	0.785942	-0.149804	0.092806
H45	H	0.748969	-0.247221	0.019136
H46	H	0.920844	-0.232561	0.167685
H47	H	0.883746	-0.329911	0.093972
O48	O	1.025056	0.275924	0.528350
C49	C	0.957571	0.330777	0.701719
C50	C	1.032049	0.270142	0.639641
H51	H	0.963186	0.326110	0.791709
H52	H	0.971384	0.397908	0.679761
H53	H	0.882952	0.313157	0.679631
H54	H	1.106697	0.287686	0.661696
H55	H	1.018153	0.203027	0.661604
H56	H	0.622081	0.297911	0.000080
H57	H	1.025471	-0.342162	0.162629
O58	O	1.038693	-0.363352	-0.176767
C59	C	0.898063	-0.367105	-0.277079
C60	C	0.944126	-0.331097	-0.176478
H61	H	0.821592	-0.341055	-0.276867
H62	H	0.940768	-0.348400	-0.352173
H63	H	0.897713	-0.438572	-0.276636
H64	H	0.944484	-0.259628	-0.176817
H65	H	0.901407	-0.349868	-0.101429
O66	O	1.214385	0.121581	0.472174
C67	C	1.271655	-0.022114	0.437921
C68	C	1.197173	0.038670	0.499728
H69	H	1.257777	-0.089159	0.460193
H70	H	1.266111	-0.017710	0.347878
H71	H	1.346268	-0.004459	0.459992
H72	H	1.122527	0.021055	0.477747
H73	H	1.202802	0.034256	0.589757
O74	O	1.200471	-0.238812	0.177165
C75	C	1.247740	-0.114508	0.276881
C76	C	1.201824	-0.150475	0.176161
H77	H	1.248868	-0.043085	0.276092
H78	H	1.204493	-0.132679	0.351884
H79	H	1.323921	-0.141149	0.277194
H80	H	1.125648	-0.123853	0.175744
H81	H	1.245143	-0.132312	0.101203
H82	H	1.213901	-0.260107	-0.162413
O83	O	1.299872	-0.365474	0.000411
C84	C	1.444495	-0.371264	0.093477
C85	C	1.342044	-0.334138	0.093330
H86	H	1.478627	-0.345930	0.168582
H87	H	1.442507	-0.442721	0.092834
H88	H	1.488221	-0.352582	0.019068
H89	H	1.298258	-0.352757	0.167726
H90	H	1.344103	-0.262688	0.093917
