data_functionalizedCrystal
_audit_creation_method	'MofGen! by Chris Wilmer'
_symmetry_space_group_name_H-M	'P1'
_symmetry_Int_Tables_number	1
_symmetry_cell_setting	triclinic
loop_
_symmetry_equiv_pos_as_xyz
  x,y,z
_cell_length_a	16.625548
_cell_length_b	14.908932
_cell_length_c	14.908308
_cell_angle_alpha	90.209830
_cell_angle_beta	86.722035
_cell_angle_gamma	93.300782
loop_
_atom_site_label
_atom_site_type_symbol
_atom_site_fract_x
_atom_site_fract_y
_atom_site_fract_z
Zn1	Zn	1.187642	-0.387269	0.487799
Zn2	Zn	1.188485	-0.528970	0.328787
Zn3	Zn	1.061006	-0.378632	0.337455
Zn4	Zn	1.045514	-0.537588	0.479099
O5	O	1.120662	-0.458115	0.408285
O6	O	1.300585	-0.406074	0.466719
O7	O	1.178412	-0.501806	0.204111
O8	O	1.083935	-0.253952	0.364667
O9	O	1.301205	-0.510181	0.349894
O10	O	1.176974	-0.260298	0.475124
O11	O	1.084754	-0.391353	0.210479
O12	O	0.946120	-0.399710	0.356231
O13	O	1.057531	-0.524870	0.606079
O14	O	0.934738	-0.516494	0.460296
O15	O	1.161951	-0.414431	0.612471
O16	O	1.163389	-0.655939	0.341458
O17	O	1.058349	-0.662271	0.451891
C18	C	0.911173	-0.458100	0.408261
C19	C	0.821550	-0.458117	0.408270
C20	C	1.109300	-0.691731	0.394810
C21	C	1.104512	-0.791675	0.389075
C22	C	1.107919	-0.471575	0.642812
C23	C	1.102488	-0.477311	0.742753
C24	C	0.493372	-0.458125	0.408308
C25	C	0.584682	-0.458120	0.408295
C26	C	0.657459	-0.458122	0.408289
C27	C	0.748774	-0.458116	0.408277
C28	C	1.330969	-0.458130	0.408310
C29	C	1.420589	-0.458136	0.408321
C30	C	1.132089	-0.223587	0.421833
C31	C	1.136958	-0.123645	0.427606
C32	C	1.049209	0.070765	0.323438
C33	C	1.053781	0.164670	0.328859
C34	C	1.150671	0.158069	0.443875
C35	C	1.146099	0.064165	0.438453
C36	C	1.095366	0.020516	0.378232
C37	C	1.090799	-0.073389	0.372806
C38	C	1.187684	-0.079989	0.487825
C39	C	1.192256	0.013916	0.493247
C40	C	1.133405	-0.444642	0.174674
C41	C	1.139004	-0.438653	0.074748
C42	C	1.201016	-0.373069	0.937213
C43	C	1.195916	-0.378456	1.031117
C44	C	1.087186	-0.493465	1.024468
C45	C	1.092286	-0.488079	0.930564
C46	C	1.149203	-0.427880	0.886940
C47	C	1.154306	-0.422498	0.793033
C48	C	1.045573	-0.537503	0.786386
C49	C	1.040473	-0.542889	0.880290
H50	H	1.049491	-0.108926	0.323769
Cl51	Cl	1.261054	-0.309547	1.094315
Cl52	Cl	1.015633	-0.569131	1.079326
Cl53	Cl	0.968923	-0.618563	0.935141
Cl54	Cl	1.245721	-0.143164	0.556706
Cl55	Cl	1.225860	-0.346823	0.738192
Cl56	Cl	1.214422	0.212956	0.519596
Cl57	Cl	1.272575	-0.297403	0.882367
H58	H	1.007905	0.035226	0.274398
Cl59	Cl	0.995750	0.227837	0.259975
H60	H	1.233559	0.049465	0.542280
Cl61	Cl	0.980441	-0.606422	0.723180
