data_functionalizedCrystal
_audit_creation_method	'MofGen! by Chris Wilmer'
_symmetry_space_group_name_H-M	'P1'
_symmetry_Int_Tables_number	1
_symmetry_cell_setting	triclinic
loop_
_symmetry_equiv_pos_as_xyz
  x,y,z
_cell_length_a	12.759401
_cell_length_b	12.759394
_cell_length_c	12.759393
_cell_angle_alpha	89.967706
_cell_angle_beta	89.980903
_cell_angle_gamma	90.014820
loop_
_atom_site_label
_atom_site_type_symbol
_atom_site_fract_x
_atom_site_fract_y
_atom_site_fract_z
Zn1	Zn	1.606254	-0.418205	-0.593993
Zn2	Zn	1.606148	-0.593924	-0.418311
Zn3	Zn	1.430556	-0.418259	-0.418330
Zn4	Zn	1.430545	-0.593843	-0.593950
O5	O	1.518376	-0.506058	-0.506146
O6	O	1.753261	-0.441526	-0.570698
O7	O	1.582816	-0.570679	-0.271292
O8	O	1.453912	-0.271231	-0.441658
O9	O	1.753183	-0.570626	-0.441625
O10	O	1.582997	-0.271191	-0.570717
O11	O	1.453810	-0.441619	-0.271307
O12	O	1.283534	-0.441540	-0.441617
O13	O	1.453892	-0.570487	-0.740977
O14	O	1.283525	-0.570540	-0.570644
O15	O	1.582986	-0.441447	-0.741008
O16	O	1.582805	-0.740934	-0.441584
O17	O	1.453789	-0.740874	-0.570625
C18	C	1.245409	-0.506038	-0.506129
C19	C	1.128632	-0.506054	-0.506147
C20	C	1.518313	-0.779025	-0.506121
C21	C	1.518382	-0.895802	-0.506145
C22	C	0.964081	-0.438967	-0.573468
C23	C	1.073805	-0.438952	-0.573458
C24	C	1.073729	-0.573183	-0.438847
C25	C	0.964007	-0.573202	-0.438863
C26	C	0.909259	-0.371853	-0.640776
C27	C	0.964154	-0.304725	-0.708077
C28	C	1.073878	-0.304711	-0.708068
C29	C	1.128707	-0.371824	-0.640757
C30	C	1.652826	-0.895811	-0.371874
C31	C	1.720076	-0.950676	-0.304752
C32	C	1.720138	-1.060398	-0.304780
C33	C	1.652945	-1.115256	-0.371941
C34	C	1.585695	-1.060391	-0.439064
C35	C	1.585638	-0.950667	-0.439026
C36	C	1.451257	-1.060382	-0.573338
C37	C	1.451189	-0.950661	-0.573306
C38	C	1.384064	-1.115241	-0.640499
C39	C	1.316808	-1.060376	-0.707618
C40	C	1.316748	-0.950648	-0.707586
C41	C	1.383939	-0.895796	-0.640429
C42	C	1.792409	-0.506079	-0.506164
C43	C	1.909186	-0.506088	-0.506171
C44	C	1.518449	-0.505952	-0.780180
C45	C	1.518481	-0.505907	-0.896956
C46	C	1.518468	-0.232024	-0.506195
C47	C	1.518507	-0.115248	-0.506215
C48	C	1.585709	-0.438709	-0.951836
C49	C	1.585734	-0.438671	-1.061560
C50	C	1.451300	-0.573037	-1.061515
C51	C	1.451270	-0.573069	-0.951793
C52	C	1.652919	-0.371546	-0.897000
C53	C	1.720154	-0.304344	-0.951880
C54	C	1.720179	-0.304306	-1.061604
C55	C	1.652969	-0.371470	-1.116448
C56	C	1.518363	-0.506088	-0.233179
C57	C	1.518535	-0.505837	-0.116403
H58	H	0.819916	-0.371852	-0.640787
O59	O	1.384122	-1.233584	-0.640521
H60	H	1.463371	-1.262442	-0.661810
H61	H	1.652770	-0.806470	-0.371831
H62	H	1.774867	-0.249655	-0.907219
O63	O	0.905021	-0.232338	-0.780667
H64	H	0.855038	-0.279425	-0.834038
H65	H	1.218052	-0.371799	-0.640748
O66	O	1.244200	-0.891480	-0.779977
H67	H	1.262184	-0.912460	-0.862454
O68	O	1.383856	-0.777453	-0.640401
H69	H	1.463069	-0.748431	-0.661695
O70	O	0.904787	-0.645587	-0.366275
H71	H	0.961339	-0.692239	-0.319455
H72	H	1.774786	-0.906000	-0.250072
O73	O	1.133093	-0.232310	-0.780646
H74	H	1.076534	-0.185641	-0.827441
H75	H	1.118380	-0.627823	-0.384047
H76	H	1.653010	-1.204598	-0.371967
O77	O	1.378815	-0.645479	-1.120661
H78	H	1.390137	-0.634173	-1.206177
O79	O	1.792664	-1.119584	-0.232383
H80	H	1.839373	-1.063010	-0.185673
O81	O	1.792690	-0.231829	-1.120802
H82	H	1.839423	-0.185142	-1.064234
O83	O	1.652886	-0.371586	-0.778655
H84	H	1.710908	-0.313590	-0.749741
H85	H	1.262110	-1.105051	-0.762300
O86	O	1.652991	-0.371433	-1.234795
H87	H	1.711033	-0.313424	-1.263746
H88	H	1.396511	-0.627771	-0.907108
