data_functionalizedCrystal
_audit_creation_method	'MofGen! by Chris Wilmer'
_symmetry_space_group_name_H-M	'P1'
_symmetry_Int_Tables_number	1
_symmetry_cell_setting	triclinic
loop_
_symmetry_equiv_pos_as_xyz
  x,y,z
_cell_length_a	16.992694
_cell_length_b	16.053789
_cell_length_c	16.109301
_cell_angle_alpha	87.109773
_cell_angle_beta	92.935148
_cell_angle_gamma	92.715794
loop_
_atom_site_label
_atom_site_type_symbol
_atom_site_fract_x
_atom_site_fract_y
_atom_site_fract_z
O1	O	1.043290	0.069330	-0.179606
O2	O	1.543290	0.569330	0.320394
O3	O	0.815006	0.069354	-0.177674
O4	O	1.315006	0.569354	0.322326
O5	O	0.935419	0.069333	-0.058027
O6	O	1.435419	0.569333	0.441973
O7	O	0.922877	0.069351	-0.299253
O8	O	1.422877	0.569351	0.200747
O9	O	0.929512	-0.069527	-0.051378
O10	O	1.429512	0.430473	0.448622
O11	O	0.809100	-0.069505	-0.171025
O12	O	1.309100	0.430495	0.328975
O13	O	1.037384	-0.069530	-0.172958
O14	O	1.537384	0.430470	0.327042
Zn15	Zn	0.922304	-0.091564	-0.170936
Zn16	Zn	1.422304	0.408436	0.329064
Zn17	Zn	0.930086	0.091389	-0.179696
Zn18	Zn	1.430086	0.591389	0.320304
O19	O	0.916971	-0.069508	-0.292604
O20	O	1.416971	0.430492	0.207396
C21	C	0.782841	-0.000072	-0.171861
C22	C	1.282841	0.499928	0.328139
C23	C	0.695799	-0.000063	-0.164438
C24	C	1.195799	0.499937	0.335562
C25	C	0.645541	-0.000059	-0.236065
C26	C	1.145541	0.499941	0.263935
C27	C	0.563755	-0.000071	-0.229084
C28	C	1.063755	0.499929	0.270916
C29	C	0.532231	-0.000082	-0.150477
C30	C	1.032231	0.499918	0.349523
C31	C	0.582495	-0.000089	-0.078845
C32	C	1.082495	0.499911	0.421155
C33	C	0.664279	-0.000083	-0.085826
C34	C	1.164279	0.499917	0.414174
C35	C	0.288639	-0.000106	-0.121543
C36	C	0.788639	0.499894	0.378457
C37	C	0.206849	-0.000110	-0.114567
C38	C	0.706849	0.499890	0.385433
C39	C	0.188115	-0.000093	-0.264807
C40	C	0.688115	0.499907	0.235193
C41	C	0.269901	-0.000082	-0.271781
C42	C	0.769901	0.499918	0.228219
C43	C	0.320159	-0.000094	-0.200149
C44	C	0.820159	0.499906	0.299851
N45	N	0.448633	-0.000091	-0.143340
N46	N	0.948633	0.499909	0.356660
N47	N	0.403754	-0.000090	-0.207287
N48	N	0.903754	0.499910	0.292713
N49	N	0.916999	-0.216425	-0.164957
N50	N	1.416999	0.283575	0.335043
C51	C	0.962682	-0.260117	-0.216481
C52	C	1.462682	0.239883	0.283519
C53	C	0.958981	-0.347523	-0.212294
C54	C	1.458981	0.152477	0.287706
C55	C	0.909593	-0.391237	-0.156587
C56	C	1.409593	0.108763	0.343413
C57	C	0.863908	-0.347539	-0.105057
C58	C	1.363908	0.152461	0.394943
C59	C	0.867613	-0.260134	-0.109241
C60	C	1.367613	0.239866	0.390759
C61	C	0.893418	-0.652648	-0.138322
C62	C	1.393418	-0.152648	0.361678
C63	C	0.889714	-0.740059	-0.134144
C64	C	1.389714	-0.240059	0.365856
C65	C	0.984789	-0.740037	-0.241380
C66	C	1.484789	-0.240037	0.258620
C67	C	0.988486	-0.652630	-0.245562
C68	C	1.488486	-0.152630	0.254438
C69	C	0.942805	-0.608940	-0.194030
C70	C	1.442805	-0.108940	0.305970
N71	N	0.905807	-0.480581	-0.152307
N72	N	1.405807	0.019419	0.347693
N73	N	0.946595	-0.519598	-0.198305
N74	N	1.446595	-0.019598	0.301695
C75	C	1.069549	-0.000101	-0.178770
C76	C	1.569549	0.499899	0.321230
C77	C	1.156591	-0.000105	-0.186193
C78	C	1.656591	0.499895	0.313807
C79	C	0.931958	-0.000097	-0.023694
C80	C	1.431958	0.499903	0.476306
C81	C	0.930434	-0.000098	0.068703
C82	C	1.430434	0.499902	0.568703
N83	N	0.935397	0.216249	-0.185668
N84	N	1.435397	0.716249	0.314332
C85	C	0.920432	-0.000076	-0.326937
C86	C	1.420432	0.499924	0.173063
C87	C	0.921956	-0.000070	-0.419335
C88	C	1.421956	0.499930	0.080665
C89	C	0.998344	-0.000092	0.286444
C90	C	1.498344	0.499908	0.786444
C91	C	0.996907	-0.000085	0.373260
C92	C	1.496907	0.499915	0.873260
C93	C	0.854041	-0.000073	0.362918
C94	C	1.354041	0.499927	0.862918
C95	C	0.855479	-0.000074	0.276104
C96	C	1.355479	0.499926	0.776104
C97	C	0.927633	-0.000088	0.237869
C98	C	1.427633	0.499912	0.737869
C99	C	0.924758	-0.000080	0.411499
C100	C	1.424758	0.499920	0.911499
C101	C	0.923199	-0.000072	0.505629
C102	C	1.423199	0.499928	1.005629
C103	C	0.929192	-0.000094	0.143733
C104	C	1.429192	0.499906	0.643733
H105	H	0.705199	-0.000086	-0.027500
H106	H	1.205199	0.499914	0.472500
H107	H	0.181186	-0.000118	-0.050552
H108	H	0.681186	0.499882	0.449448
H109	H	0.147187	-0.000085	-0.323125
H110	H	0.647187	0.499915	0.176875
H111	H	1.028706	-0.617044	-0.290922
H112	H	1.528706	-0.117044	0.209078
C113	C	1.035042	-0.788103	-0.298056
C114	C	1.535042	-0.288103	0.201944
N115	N	1.072898	-0.824307	-0.340743
N116	N	1.572898	-0.324307	0.159257
H117	H	0.329550	-0.000116	-0.063214
H118	H	0.829550	0.499884	0.436786
C119	C	0.774675	-0.000074	0.404985
C120	C	1.274675	0.499926	0.904985
N121	N	0.714895	-0.000082	0.436670
N122	N	1.214895	0.499918	0.936670
H123	H	0.797894	-0.000068	0.236552
H124	H	1.297894	0.499932	0.736552
H125	H	0.849492	-0.775648	-0.088781
H126	H	1.349492	-0.275648	0.411219
H127	H	0.671201	-0.000049	-0.300075
H128	H	1.171201	0.499951	0.199925
H129	H	0.556821	-0.000110	-0.014840
H130	H	1.056821	0.499890	0.485160
H131	H	0.856221	-0.617085	-0.096360
H132	H	1.356221	-0.117085	0.403640
C133	C	1.074695	-0.000097	0.426689
C134	C	1.574695	0.499903	0.926689
N135	N	1.133288	-0.000108	0.466931
N136	N	1.633288	0.499892	0.966931
C137	C	0.508473	-0.000080	-0.307879
C138	C	1.008473	0.499920	0.192121
N139	N	0.466835	-0.000094	-0.367230
N140	N	0.966835	0.499906	0.132770
C141	C	0.304571	-0.000083	-0.358255
C142	C	0.804571	0.499917	0.141745
N143	N	0.330684	-0.000086	-0.423388
N144	N	0.830684	0.499914	0.076612
H145	H	1.002895	-0.224531	-0.261848
H146	H	1.502895	0.275469	0.238152
H147	H	0.996183	-0.383093	-0.254248
H148	H	1.496183	0.116907	0.245752
H149	H	0.823699	-0.383138	-0.059695
H150	H	1.323699	0.116862	0.440305
C151	C	0.817356	-0.212073	-0.052562
C152	C	1.317356	0.287927	0.447438
N153	N	0.779502	-0.175875	-0.009869
N154	N	1.279502	0.324125	0.490131
H155	H	1.057096	-0.000102	0.255316
H156	H	1.557096	0.499898	0.755316
