data_functionalizedCrystal
_audit_creation_method	'MofGen! by Chris Wilmer'
_symmetry_space_group_name_H-M	'P1'
_symmetry_Int_Tables_number	1
_symmetry_cell_setting	triclinic
loop_
_symmetry_equiv_pos_as_xyz
  x,y,z
_cell_length_a	14.908782
_cell_length_b	14.908520
_cell_length_c	12.827885
_cell_angle_alpha	93.263516
_cell_angle_beta	93.280552
_cell_angle_gamma	89.837842
loop_
_atom_site_label
_atom_site_type_symbol
_atom_site_fract_x
_atom_site_fract_y
_atom_site_fract_z
Zn1	Zn	1.353917	-0.437190	-0.529406
Zn2	Zn	1.853917	0.062810	-0.029406
Zn3	Zn	1.345131	-0.587567	-0.365291
Zn4	Zn	1.845131	-0.087567	0.134709
Zn5	Zn	1.203555	-0.428563	-0.364168
Zn6	Zn	1.703555	0.071437	0.135832
Zn7	Zn	1.194853	-0.578834	-0.549467
Zn8	Zn	1.694853	-0.078834	-0.049467
O9	O	1.274364	-0.508039	-0.452083
O10	O	1.774364	-0.008039	0.047917
O11	O	1.478571	-0.464403	-0.499711
O12	O	1.978571	0.035597	0.000289
O13	O	1.326315	-0.566519	-0.218912
O14	O	1.826315	-0.066519	0.281088
O15	O	1.230820	-0.303885	-0.377222
O16	O	1.730820	0.196115	0.122778
O17	O	1.472115	-0.574884	-0.379136
O18	O	1.972115	-0.074884	0.120864
O19	O	1.341291	-0.310223	-0.498622
O20	O	1.841291	0.189777	0.001378
O21	O	1.222300	-0.449700	-0.218087
O22	O	1.722300	0.050300	0.281913
O23	O	1.076582	-0.441232	-0.396674
O24	O	1.576582	0.058768	0.103326
O25	O	1.215989	-0.560000	-0.693037
O26	O	1.715989	-0.060000	-0.193037
O27	O	1.070188	-0.551635	-0.532812
O28	O	1.570188	-0.051635	-0.032812
O29	O	1.332853	-0.455935	-0.678298
O30	O	1.832853	0.044065	-0.178298
O31	O	1.317877	-0.712231	-0.398588
O32	O	1.817877	-0.212231	0.101412
O33	O	1.207468	-0.705815	-0.533901
O34	O	1.707468	-0.205815	-0.033901
C35	C	1.040761	-0.494550	-0.466799
C36	C	1.540761	0.005450	0.033201
C37	C	0.940824	-0.488801	-0.473120
C38	C	1.440824	0.011199	0.026880
C39	C	0.746316	-0.592886	-0.359230
C40	C	1.246316	-0.092886	0.140770
C41	C	0.652416	-0.587487	-0.365167
C42	C	1.152416	-0.087487	0.134833
C43	C	0.659121	-0.472611	-0.490935
C44	C	1.159121	0.027389	0.009065
C45	C	0.753021	-0.478010	-0.484999
C46	C	1.253021	0.021990	0.015001
C47	C	0.796615	-0.538148	-0.419143
C48	C	1.296615	-0.038148	0.080857
C49	C	0.890518	-0.543541	-0.413201
C50	C	1.390518	-0.043541	0.086799
C51	C	0.897221	-0.428670	-0.538975
C52	C	1.397221	0.071330	-0.038975
C53	C	0.803321	-0.423272	-0.544911
C54	C	1.303321	0.076728	-0.044911
C55	C	1.260799	-0.741648	-0.468564
C56	C	1.760799	-0.241648	0.031436
C57	C	1.255078	-0.841592	-0.475645
C58	C	1.755078	-0.341592	0.024355
C59	C	1.359415	-1.036025	-0.348148
C60	C	1.859415	-0.536025	0.151852
C61	C	1.354043	-1.129931	-0.354797
C62	C	1.854043	-0.629931	0.145203
C63	C	1.238967	-1.123314	-0.495596
C64	C	1.738967	-0.623314	0.004404
C65	C	1.244339	-1.029407	-0.488947
C66	C	1.744339	-0.529407	0.011053
C67	C	1.304564	-0.985766	-0.415220
C68	C	1.804564	-0.485766	0.084780
C69	C	1.309931	-0.891858	-0.408566
C70	C	1.809931	-0.391858	0.091434
C71	C	1.194861	-0.885242	-0.549369
C72	C	1.694861	-0.385242	-0.049369
C73	C	1.189488	-0.979149	-0.556018
C74	C	1.689488	-0.479149	-0.056018
C75	C	1.508879	-0.521580	-0.437311
C76	C	2.008879	-0.021580	0.062689
C77	C	1.608815	-0.527351	-0.431016
C78	C	2.108815	-0.027351	0.068984
C79	C	1.274430	-0.507956	-0.724644
C80	C	1.774430	-0.007956	-0.224644
C81	C	1.274458	-0.507920	-0.840793
C82	C	1.774458	-0.007920	-0.340793
C83	C	1.288006	-0.273518	-0.435559
C84	C	1.788006	0.226482	0.064441
C85	C	1.293820	-0.173579	-0.428518
C86	C	1.793820	0.326421	0.071482
C87	C	1.332293	-0.456415	-0.885283
C88	C	1.832293	0.043585	-0.385283
C89	C	1.332323	-0.456378	-1.005329
C90	C	1.832323	0.043622	-0.505329
C91	C	1.274353	-0.508059	-0.180575
C92	C	1.774353	-0.008059	0.319425
C93	C	1.274514	-0.507851	-0.064398
C94	C	1.774514	-0.007851	0.435602
H95	H	0.926011	-0.592507	-0.359575
H96	H	1.426011	-0.092507	0.140425
O97	O	1.391309	-0.403791	-1.051167
O98	O	1.891309	0.096209	-0.551167
C99	C	1.378217	-0.415470	-1.160821
C100	C	1.878217	0.084530	-0.660821
H101	H	1.307109	-0.440921	-1.182071
H102	H	1.807109	0.059079	-0.682071
H103	H	1.388205	-0.348490	-1.197248
H104	H	1.888205	0.151510	-0.697248
H105	H	1.428748	-0.466441	-1.191814
H106	H	1.928748	0.033559	-0.691814
O107	O	1.407314	-1.178892	-0.289784
O108	O	1.907314	-0.678892	0.210216
C109	C	1.389661	-1.271135	-0.311458
C110	C	1.889661	-0.771135	0.188542
H111	H	1.359399	-1.282225	-0.394823
H112	H	1.859399	-0.782225	0.105177
H113	H	1.454987	-1.310638	-0.302776
H114	H	1.954987	-0.810638	0.197224
H115	H	1.340323	-1.295132	-0.254303
H116	H	1.840323	-0.795132	0.245697
O117	O	1.417983	-0.993770	-0.276498
O118	O	1.917983	-0.493770	0.223502
C119	C	1.465223	-1.058266	-0.218698
C120	C	1.965223	-0.558266	0.281302
H121	H	1.464495	-1.125355	-0.266046
H122	H	1.964495	-0.625355	0.233954
H123	H	1.537622	-1.035160	-0.201220
H124	H	2.037622	-0.535160	0.298780
H125	H	1.431753	-1.066437	-0.142089
H126	H	1.931753	-0.566437	0.357911
O127	O	1.215563	-0.560514	-1.018613
O128	O	1.715563	-0.060514	-0.518613
C129	C	1.263414	-0.621530	-0.956364
C130	C	1.763414	-0.121530	-0.456364
H131	H	1.333407	-0.593745	-0.933596
H132	H	1.833407	-0.093745	-0.433596
H133	H	1.226139	-0.631433	-0.882716
H134	H	1.726139	-0.131433	-0.382716
H135	H	1.269392	-0.688750	-1.002440
H136	H	1.769392	-0.188750	-0.502440
O137	O	0.788525	-0.651375	-0.295242
O138	O	1.288525	-0.151375	0.204758
C139	C	0.723994	-0.698513	-0.243608
C140	C	1.223994	-0.198513	0.256392
H141	H	0.656890	-0.697821	-0.290855
H142	H	1.156890	-0.197821	0.209145
H143	H	0.747018	-0.770904	-0.235610
H144	H	1.247018	-0.270904	0.264390
H145	H	0.715891	-0.664931	-0.162607
H146	H	1.215891	-0.164931	0.337393
H147	H	0.938185	-0.384095	-0.587755
H148	H	1.438185	0.115905	-0.087755
H149	H	1.189941	-1.158863	-0.555628
H150	H	1.689941	-0.658863	-0.055628
H151	H	0.623610	-0.423657	-0.544561
H152	H	1.123610	0.076343	-0.044561
O153	O	0.603509	-0.640751	-0.307124
O154	O	1.103509	-0.140751	0.192876
C155	C	0.545833	-0.695745	-0.374046
C156	C	1.045833	-0.195745	0.125954
H157	H	0.573835	-0.703006	-0.454947
H158	H	1.073835	-0.203006	0.045053
H159	H	0.540749	-0.764843	-0.341071
H160	H	1.040749	-0.264843	0.158929
H161	H	0.476279	-0.663857	-0.380233
H162	H	0.976279	-0.163857	0.119767
H163	H	0.767813	-0.374312	-0.598533
H164	H	1.267813	0.125688	-0.098533
O165	O	1.215325	-0.560520	-0.901213
O166	O	1.715325	-0.060520	-0.401213
C167	C	1.161561	-0.608436	-0.836538
C168	C	1.661561	-0.108436	-0.336538
H169	H	1.160506	-0.571510	-0.756318
H170	H	1.660506	-0.071510	-0.256318
H171	H	1.090197	-0.613905	-0.873290
H172	H	1.590197	-0.113905	-0.373290
H173	H	1.190504	-0.678636	-0.827709
H174	H	1.690504	-0.178636	-0.327709
H175	H	1.358967	-0.856326	-0.348531
H176	H	1.858967	-0.356326	0.151469
O177	O	1.141704	-0.836389	-0.614630
O178	O	1.641704	-0.336389	-0.114630
C179	C	1.195964	-0.784910	-0.675085
C180	C	1.695964	-0.284910	-0.175085
H181	H	1.265162	-0.817221	-0.679154
H182	H	1.765162	-0.317221	-0.179154
H183	H	1.163461	-0.781948	-0.757447
H184	H	1.663461	-0.281948	-0.257447
H185	H	1.203144	-0.713937	-0.637543
H186	H	1.703144	-0.213937	-0.137543
H187	H	1.140457	-1.014695	-0.616047
H188	H	1.640457	-0.514695	-0.116047
O189	O	1.391219	-0.403792	-0.824597
O190	O	1.891219	0.096208	-0.324597
C191	C	1.343342	-0.342813	-0.760619
C192	C	1.843342	0.157187	-0.260619
H193	H	1.273340	-0.370603	-0.750908
H194	H	1.773340	0.129397	-0.250908
H195	H	1.380582	-0.332963	-0.680677
H196	H	1.880582	0.167037	-0.180677
H197	H	1.337390	-0.275565	-0.798538
H198	H	1.837390	0.224435	-0.298538
