data_functionalizedCrystal
_audit_creation_method	'MofGen! by Chris Wilmer'
_symmetry_space_group_name_H-M	'P1'
_symmetry_Int_Tables_number	1
_symmetry_cell_setting	triclinic
loop_
_symmetry_equiv_pos_as_xyz
  x,y,z
_cell_length_a	25.639239
_cell_length_b	19.805407
_cell_length_c	19.805399
_cell_angle_alpha	90.016510
_cell_angle_beta	89.969866
_cell_angle_gamma	89.965164
loop_
_atom_site_label
_atom_site_type_symbol
_atom_site_fract_x
_atom_site_fract_y
_atom_site_fract_z
Zn1	Zn	-0.208209	-1.034660	-0.382707
Zn2	Zn	0.291791	-0.534660	0.117293
Zn3	Zn	-0.295646	-1.034556	-0.269517
Zn4	Zn	0.204354	-0.534556	0.230483
Zn5	Zn	-0.208220	-0.921480	-0.269533
Zn6	Zn	0.291780	-0.421480	0.230467
Zn7	Zn	-0.295610	-0.921414	-0.382664
Zn8	Zn	0.204390	-0.421414	0.117336
O9	O	-0.251921	-0.978027	-0.326105
O10	O	0.248079	-0.478027	0.173895
O11	O	-0.219818	-1.129363	-0.367704
O12	O	0.280182	-0.629363	0.132296
O13	O	-0.284068	-1.019540	-0.174802
O14	O	0.215932	-0.519540	0.325198
O15	O	-0.135053	-0.936565	-0.284570
O16	O	0.364947	-0.436565	0.215430
O17	O	-0.284057	-1.129286	-0.284543
O18	O	0.215943	-0.629286	0.215457
O19	O	-0.135046	-1.019718	-0.367719
O20	O	0.364954	-0.519718	0.132281
O21	O	-0.219837	-0.936464	-0.174814
O22	O	0.280163	-0.436464	0.325186
O23	O	-0.219802	-0.826755	-0.284529
O24	O	0.280198	-0.326755	0.215471
O25	O	-0.283996	-0.936452	-0.477387
O26	O	0.216004	-0.436452	0.022613
O27	O	-0.284007	-0.826706	-0.367646
O28	O	0.215993	-0.326706	0.132354
O29	O	-0.219784	-1.019654	-0.477418
O30	O	0.280216	-0.519654	0.022582
O31	O	-0.368806	-1.019476	-0.284502
O32	O	0.131194	-0.519476	0.215498
O33	O	-0.368780	-0.936351	-0.367630
O34	O	0.131220	-0.436351	0.132370
C35	C	-0.251902	-0.802171	-0.326085
C36	C	0.248098	-0.302171	0.173915
C37	C	-0.251906	-0.726939	-0.326092
C38	C	0.248094	-0.226939	0.173908
C39	C	-0.218516	-0.691636	-0.369459
C40	C	0.281484	-0.191636	0.130541
C41	C	-0.218517	-0.620947	-0.369459
C42	C	0.281483	-0.120947	0.130541
C43	C	-0.251913	-0.585564	-0.326097
C44	C	0.248087	-0.085564	0.173903
C45	C	-0.285305	-0.620872	-0.282725
C46	C	0.214695	-0.120872	0.217275
C47	C	-0.285300	-0.691560	-0.282721
C48	C	0.214700	-0.191560	0.217279
C49	C	-0.285324	-0.335799	-0.282739
C50	C	0.214676	0.164201	0.217261
C51	C	-0.285327	-0.265107	-0.282747
C52	C	0.214673	0.234893	0.217253
C53	C	-0.218541	-0.265187	-0.369477
C54	C	0.281459	0.234813	0.130523
C55	C	-0.218536	-0.335874	-0.369473
C56	C	0.281464	0.164126	0.130527
C57	C	-0.251926	-0.371176	-0.326100
C58	C	0.248074	0.128824	0.173900
C59	C	-0.251924	-0.447825	-0.326098
C60	C	0.248076	0.052175	0.173902
C61	C	-0.251919	-0.508917	-0.326101
C62	C	0.248081	-0.008917	0.173899
C63	C	-0.387764	-0.977914	-0.326074
C64	C	0.112236	-0.477914	0.173926
C65	C	-0.445878	-0.977927	-0.326084
C66	C	0.054122	-0.477927	0.173916
C67	C	-0.806242	-1.021423	-0.282894
C68	C	-0.306242	-0.521423	0.217106
C69	C	-0.860846	-1.021450	-0.282903
C70	C	-0.360846	-0.521450	0.217097
O71	O	-0.889084	-1.058314	-0.246147
O72	O	-0.389084	-0.558314	0.253853
N73	N	-0.888160	-0.978146	-0.326150
N74	N	-0.388160	-0.478146	0.173850
C75	C	-0.860867	-0.934819	-0.369396
C76	C	-0.360867	-0.434819	0.130604
O77	O	-0.889114	-0.897989	-0.406183
O78	O	-0.389114	-0.397989	0.093817
C79	C	-0.806264	-0.934796	-0.369390
C80	C	-0.306264	-0.434796	0.130610
C81	C	-0.778953	-0.978098	-0.326135
C82	C	-0.278953	-0.478098	0.173865
C83	C	-0.778931	-1.064722	-0.239643
C84	C	-0.278931	-0.564722	0.260357
C85	C	-0.724330	-1.064695	-0.239633
C86	C	-0.224330	-0.564695	0.260367
C87	C	-0.697041	-1.021369	-0.282874
C88	C	-0.197041	-0.521369	0.217126
C89	C	-0.724352	-0.978071	-0.326125
C90	C	-0.224352	-0.478071	0.173875
C91	C	-0.778972	-0.891473	-0.412639
C92	C	-0.278972	-0.391473	0.087361
C93	C	-0.724365	-0.891455	-0.412629
C94	C	-0.224365	-0.391455	0.087371
C95	C	-0.697053	-0.934756	-0.369374
C96	C	-0.197053	-0.434756	0.130626
C97	C	-0.642462	-0.934718	-0.369357
C98	C	-0.142462	-0.434718	0.130643
N99	N	-0.615148	-0.978021	-0.326109
N100	N	-0.115148	-0.478021	0.173891
C101	C	-0.642438	-1.021347	-0.282868
C102	C	-0.142438	-0.521347	0.217132
C103	C	-0.975538	-0.934870	-0.369407
C104	C	-0.475538	-0.434870	0.130593
C105	C	-1.030140	-0.934888	-0.369410
C106	C	-0.530140	-0.434888	0.130590
C107	C	-1.030115	-1.021520	-0.282917
C108	C	-0.530115	-0.521520	0.217083
C109	C	-0.975512	-1.021498	-0.282911
C110	C	-0.475512	-0.521498	0.217089
C111	C	-0.948224	-0.978173	-0.326159
C112	C	-0.448224	-0.478173	0.173841
C113	C	-0.527772	-1.021286	-0.282851
C114	C	-0.027772	-0.521286	0.217149
C115	C	-0.473167	-1.021252	-0.282843
C116	C	0.026833	-0.521252	0.217157
C117	C	-0.473196	-0.934623	-0.369337
C118	C	0.026804	-0.434623	0.130663
C119	C	-0.527797	-0.934654	-0.369343
C120	C	-0.027797	-0.434654	0.130657
C121	C	-0.555084	-0.977990	-0.326097
C122	C	-0.055084	-0.477990	0.173903
O123	O	-0.614190	-0.897874	-0.406095
O124	O	-0.114190	-0.397874	0.093905
O125	O	-0.614184	-1.058177	-0.246094
O126	O	-0.114184	-0.558177	0.253906
C127	C	-0.115548	-0.978160	-0.326151
C128	C	0.384452	-0.478160	0.173849
C129	C	-0.057434	-0.978217	-0.326171
C130	C	0.442566	-0.478217	0.173829
C131	C	-0.251885	-0.978057	-0.502648
C132	C	0.248115	-0.478057	-0.002648
C133	C	-0.251869	-0.978070	-0.577880
C134	C	0.248131	-0.478070	-0.077880
C135	C	-0.251937	-0.154570	-0.326120
C136	C	0.248063	0.345430	0.173880
C137	C	-0.251933	-0.229802	-0.326111
C138	C	0.248067	0.270198	0.173889
C139	C	-0.218421	-0.934824	-0.613230
C140	C	0.281579	-0.434824	-0.113230
C141	C	-0.218411	-0.934834	-0.683918
C142	C	0.281589	-0.434834	-0.183918
C143	C	-0.251847	-0.978092	-0.719256
C144	C	0.248153	-0.478092	-0.219256
C145	C	-0.285299	-1.021340	-0.683901
C146	C	0.214701	-0.521340	-0.183901
C147	C	-0.285311	-1.021327	-0.613214
C148	C	0.214689	-0.521327	-0.113214
C149	C	-0.285250	-1.021393	-0.968975
C150	C	0.214750	-0.521393	-0.468975
C151	C	-0.285234	-1.021405	-1.039667
C152	C	0.214766	-0.521405	-0.539667
C153	C	-0.218350	-0.934900	-1.039679
C154	C	0.281650	-0.434900	-0.539679
C155	C	-0.218362	-0.934887	-0.968992
C156	C	0.281638	-0.434887	-0.468992
C157	C	-0.251816	-0.978132	-0.933643
C158	C	0.248184	-0.478132	-0.433643
C159	C	-0.251827	-0.978120	-0.856995
C160	C	0.248173	-0.478120	-0.356995
C161	C	-0.251833	-0.978108	-0.795903
C162	C	0.248167	-0.478108	-0.295903
C163	C	-0.251920	-0.978037	-0.150249
C164	C	0.248080	-0.478037	0.349751
C165	C	-0.251788	-0.978155	-0.075018
C166	C	0.248212	-0.478155	0.424982
H167	H	-0.312493	-0.592058	-0.247415
H168	H	0.187507	-0.092058	0.252585
O169	O	-0.317828	-1.063384	-0.718121
O170	O	0.182172	-0.563384	-0.218121
C171	C	-0.347344	-1.101563	-0.671760
C172	C	0.152656	-0.601563	-0.171760
H173	H	-0.349161	-1.073826	-0.621369
H174	H	0.150839	-0.573826	-0.121369
H175	H	-0.388535	-1.108748	-0.692170
H176	H	0.111465	-0.608748	-0.192170
H177	H	-0.328204	-1.152985	-0.664252
H178	H	0.171796	-0.652985	-0.164252
H179	H	-0.312544	-1.056547	-0.584433
H180	H	0.187456	-0.556547	-0.084433
O181	O	-0.949089	-0.892808	-0.411508
O182	O	-0.449089	-0.392808	0.088492
C183	C	-0.962382	-0.907572	-0.478983
C184	C	-0.462382	-0.407572	0.021017
H185	H	-1.002006	-0.933612	-0.480412
H186	H	-0.502006	-0.433612	0.019588
H187	H	-0.964277	-0.858703	-0.509285
H188	H	-0.464277	-0.358703	-0.009285
H189	H	-0.931613	-0.942337	-0.501814
H190	H	-0.431613	-0.442337	-0.001814
O191	O	-1.056710	-1.063636	-0.241024
O192	O	-0.556710	-0.563636	0.258976
C193	C	-1.110760	-1.054380	-0.250324
C194	C	-0.610760	-0.554380	0.249676
H195	H	-1.118190	-1.032116	-0.302516
H196	H	-0.618190	-0.532116	0.197484
H197	H	-1.131462	-1.105109	-0.245869
H198	H	-0.631462	-0.605109	0.254131
H199	H	-1.126334	-1.018431	-0.210110
H200	H	-0.626334	-0.518431	0.289890
O201	O	-0.185900	-0.892915	-0.718337
O202	O	0.314100	-0.392915	-0.218337
C203	C	-0.152121	-0.931485	-0.759240
C204	C	0.347879	-0.431485	-0.259240
H205	H	-0.170561	-0.982766	-0.769824
H206	H	0.329439	-0.482766	-0.269824
H207	H	-0.145114	-0.903929	-0.808949
H208	H	0.354886	-0.403929	-0.308949
H209	H	-0.113375	-0.938947	-0.732024
H210	H	0.386625	-0.438947	-0.232024
H211	H	-0.312496	-1.056599	-0.940202
H212	H	0.187504	-0.556599	-0.440202
H213	H	-0.191344	-0.364680	-0.404786
H214	H	0.308656	0.135320	0.095214
H215	H	-0.312490	-0.720303	-0.247407
H216	H	0.187510	-0.220303	0.252593
O217	O	-0.446719	-1.063382	-0.240802
O218	O	0.053281	-0.563382	0.259198
C219	C	-0.482518	-1.101616	-0.202630
C220	C	0.017482	-0.601616	0.297370
H221	H	-0.521424	-1.103959	-0.230365
H222	H	-0.021424	-0.603959	0.269635
H223	H	-0.466707	-1.154943	-0.195455
H224	H	0.033293	-0.654943	0.304545
H225	H	-0.488372	-1.076866	-0.151202
H226	H	0.011628	-0.576866	0.348798
O227	O	-1.056724	-0.892915	-0.411457
O228	O	-0.556724	-0.392915	0.088543
C229	C	-1.088246	-0.931435	-0.455230
C230	C	-0.588246	-0.431435	0.044770
H231	H	-1.096405	-0.982747	-0.431408
H232	H	-0.596405	-0.482747	0.068592
H233	H	-1.126657	-0.903874	-0.464288
H234	H	-0.626657	-0.403874	0.035712
H235	H	-1.067167	-0.938832	-0.505389
H236	H	-0.567167	-0.438832	-0.005389
H237	H	-0.191112	-0.899687	-1.068468
H238	H	0.308888	-0.399687	-0.568468
H239	H	-0.191133	-0.899664	-0.940224
H240	H	0.308867	-0.399664	-0.440224
O241	O	-0.446708	-0.892446	-0.411274
O242	O	0.053292	-0.392446	0.088726
C243	C	-0.460111	-0.824998	-0.396448
C244	C	0.039889	-0.324998	0.103552
H245	H	-0.475150	-0.821607	-0.342375
H246	H	0.024850	-0.321607	0.157625
H247	H	-0.424221	-0.791545	-0.402251
H248	H	0.075779	-0.291545	0.097749
H249	H	-0.491801	-0.807300	-0.432728
H250	H	0.008199	-0.307300	0.067272
O251	O	-0.805360	-1.106923	-0.197668
O252	O	-0.305360	-0.606923	0.302332
C253	C	-0.791943	-1.174354	-0.212553
C254	C	-0.291943	-0.674354	0.287447
H255	H	-0.752294	-1.175686	-0.238595
H256	H	-0.252294	-0.675686	0.261405
H257	H	-0.790043	-1.204743	-0.163739
H258	H	-0.290043	-0.704743	0.336261
H259	H	-0.822644	-1.197161	-0.247361
H260	H	-0.322644	-0.697161	0.252639
O261	O	-0.186085	-0.230997	-0.411671
O262	O	0.313915	0.269003	0.088329
C263	C	-0.156602	-0.277387	-0.449933
C264	C	0.343398	0.222613	0.050067
H265	H	-0.178019	-0.327760	-0.452220
H266	H	0.321981	0.172240	0.047780
H267	H	-0.151081	-0.256987	-0.503276
H268	H	0.348919	0.243013	-0.003276
H269	H	-0.116867	-0.284925	-0.425243
H270	H	0.383133	0.215075	0.074757
O271	O	-0.697745	-1.106795	-0.197715
O272	O	-0.197745	-0.606795	0.302285
C273	C	-0.666121	-1.150486	-0.236288
C274	C	-0.166121	-0.650486	0.263712
H275	H	-0.657929	-1.126575	-0.287556
H276	H	-0.157929	-0.626575	0.212444
H277	H	-0.627733	-1.159566	-0.208718
H278	H	-0.127733	-0.659566	0.291282
H279	H	-0.687129	-1.200646	-0.243780
H280	H	-0.187129	-0.700646	0.256220
H281	H	-0.550035	-0.899396	-0.404567
H282	H	-0.050035	-0.399396	0.095433
O283	O	-0.949041	-1.063530	-0.240803
O284	O	-0.449041	-0.563530	0.259197
C285	C	-0.962418	-1.048772	-0.173331
C286	C	-0.462418	-0.548772	0.326669
H287	H	-1.002081	-1.022765	-0.171912
H288	H	-0.502081	-0.522765	0.328088
H289	H	-0.964271	-1.097641	-0.143026
H290	H	-0.464271	-0.597641	0.356974
H291	H	-0.931721	-1.013979	-0.150497
H292	H	-0.431721	-0.513979	0.349503
O293	O	-0.186027	-0.725900	-0.411606
O294	O	0.313973	-0.225900	0.088394
C295	C	-0.156566	-0.679578	-0.449894
C296	C	0.343434	-0.179578	0.050106
H297	H	-0.154731	-0.629182	-0.422175
H298	H	0.345269	-0.129182	0.077825
H299	H	-0.115378	-0.700032	-0.457212
H300	H	0.384622	-0.200032	0.042788
H301	H	-0.175765	-0.672063	-0.501254
H302	H	0.324235	-0.172063	-0.001254
O303	O	-0.186157	-0.586582	-0.411624
O304	O	0.313843	-0.086582	0.088376
C305	C	-0.215973	-0.545701	-0.455281
C306	C	0.284027	-0.045701	0.044719
H307	H	-0.255569	-0.535071	-0.431311
H308	H	0.244431	-0.035071	0.068689
H309	H	-0.194686	-0.496013	-0.464411
H310	H	0.305314	0.003987	0.035589
H311	H	-0.221772	-0.572959	-0.505423
H312	H	0.278228	-0.072959	-0.005423
H313	H	-0.312463	-1.056633	-1.068437
H314	H	0.187537	-0.556633	-0.568437
H315	H	-0.801199	-0.856209	-0.447859
H316	H	-0.301199	-0.356209	0.052141
O317	O	-0.185925	-0.892737	-0.579011
O318	O	0.314075	-0.392737	-0.079011
C319	C	-0.156393	-0.854580	-0.625373
C320	C	0.343607	-0.354580	-0.125373
H321	H	-0.177799	-0.852228	-0.675753
H322	H	0.322201	-0.352228	-0.175753
H323	H	-0.150815	-0.801252	-0.604948
H324	H	0.349185	-0.301252	-0.104948
H325	H	-0.116684	-0.879404	-0.632908
H326	H	0.383316	-0.379404	-0.132908
O327	O	-0.317783	-0.230839	-0.240555
O328	O	0.182217	0.269161	0.259445
C329	C	-0.347262	-0.277155	-0.202282
C330	C	0.152738	0.222845	0.297718
H331	H	-0.325842	-0.327557	-0.199984
H332	H	0.174158	0.172443	0.300016
H333	H	-0.352784	-0.256704	-0.148943
H334	H	0.147216	0.243296	0.351057
H335	H	-0.386997	-0.284655	-0.226969
H336	H	0.113003	0.215345	0.273031
O337	O	-0.317788	-0.370158	-0.240706
O338	O	0.182212	0.129842	0.259294
C339	C	-0.351603	-0.411023	-0.279159
C340	C	0.148397	0.088977	0.220841
H341	H	-0.333212	-0.421651	-0.330493
H342	H	0.166788	0.078349	0.169507
H343	H	-0.358585	-0.460713	-0.251565
H344	H	0.141415	0.039287	0.248435
H345	H	-0.390356	-0.383753	-0.286512
H346	H	0.109644	0.116247	0.213488
H347	H	-0.702149	-0.856175	-0.447849
H348	H	-0.202149	-0.356175	0.052151
O349	O	-0.554336	-1.063291	-0.240817
O350	O	-0.054336	-0.563291	0.259183
C351	C	-0.585967	-1.024809	-0.197055
C352	C	-0.085967	-0.524809	0.302945
H353	H	-0.594176	-0.973501	-0.220873
H354	H	-0.094176	-0.473501	0.279127
H355	H	-0.624346	-1.052409	-0.188024
H356	H	-0.124346	-0.552409	0.311976
H357	H	-0.564957	-1.017400	-0.146883
H358	H	-0.064957	-0.517400	0.353117
