data_functionalizedCrystal
_audit_creation_method	'MofGen! by Chris Wilmer'
_symmetry_space_group_name_H-M	'P1'
_symmetry_Int_Tables_number	1
_symmetry_cell_setting	triclinic
loop_
_symmetry_equiv_pos_as_xyz
  x,y,z
_cell_length_a	17.038272
_cell_length_b	8.559649
_cell_length_c	7.681481
_cell_angle_alpha	94.930900
_cell_angle_beta	96.145203
_cell_angle_gamma	99.554890
loop_
_atom_site_label
_atom_site_type_symbol
_atom_site_fract_x
_atom_site_fract_y
_atom_site_fract_z
O1	O	1.008525	-0.358157	-0.146201
O2	O	0.781219	-0.352697	-0.146253
O3	O	0.914898	-0.125546	-0.146221
O4	O	0.874846	-0.585307	-0.146234
O5	O	0.931355	-0.097520	0.146641
O6	O	0.797676	-0.324671	0.146609
O7	O	1.024983	-0.330131	0.146661
Zn8	Zn	0.913942	-0.322951	0.193133
Zn9	Zn	0.892259	-0.359876	-0.192725
O10	O	0.891303	-0.557281	0.146628
C11	C	0.760617	-0.333714	0.000171
C12	C	0.674711	-0.318886	0.000151
N13	N	0.928747	-0.297750	0.456471
C14	C	0.926162	-0.052416	0.000208
C15	C	0.935196	0.123735	0.000200
C16	C	0.616439	-0.455039	0.000149
C17	C	0.535725	-0.441093	0.000173
C18	C	0.513285	-0.290994	0.000188
C19	C	0.571564	-0.154831	0.000196
C20	C	0.652277	-0.168777	0.000184
C21	C	0.270481	-0.241725	0.000236
C22	C	0.189761	-0.227790	0.000243
C23	C	0.153928	-0.514053	0.000224
C24	C	0.234644	-0.527987	0.000202
C25	C	0.292916	-0.391823	0.000219
C26	C	0.430782	-0.276737	0.000208
C27	C	0.375418	-0.406081	0.000212
C28	C	1.045584	-0.349114	0.000232
C29	C	1.131489	-0.363943	0.000241
C30	C	0.880039	-0.630411	0.000196
C31	C	0.871004	-0.806564	0.000192
N32	N	0.877461	-0.385066	-0.456063
H33	H	0.634703	-0.577265	0.000136
C34	C	0.806731	-0.505462	0.442345
C35	C	0.744167	-0.447676	0.315104
C36	C	0.673436	-0.568074	0.213499
C37	C	0.665269	-0.746258	0.239134
C38	C	0.727836	-0.804052	0.366381
C39	C	0.798567	-0.683654	0.467986
H40	H	0.750210	-0.315766	0.296122
H41	H	0.627120	-0.525289	0.119302
H42	H	0.612910	-0.835383	0.163920
H43	H	0.721792	-0.935962	0.385363
H44	H	0.844883	-0.726439	0.562182
C45	C	0.999480	-0.177348	0.558070
C46	C	1.010802	-0.158101	0.760840
C47	C	1.081534	-0.037701	0.862439
C48	C	1.140944	0.063452	0.761269
C49	C	1.129625	0.044208	0.558488
C50	C	1.058893	-0.076192	0.456889
H51	H	0.966821	-0.232983	0.835742
H52	H	1.089913	-0.023456	1.012552
H53	H	1.193305	0.152579	0.836479
H54	H	1.173606	0.119090	0.483586
H55	H	1.050513	-0.090437	0.306776
H56	H	0.809136	0.118349	0.000184
C57	C	0.471629	-0.590869	0.000172
C58	C	0.459387	-0.725411	-0.151916
C59	C	0.395292	-0.875196	-0.151910
C60	C	0.343439	-0.890439	0.000182
C61	C	0.355680	-0.755892	0.152281
C62	C	0.419775	-0.606107	0.152276
H63	H	0.497772	-0.714132	-0.264514
H64	H	0.386231	-0.974797	-0.264505
H65	H	0.295992	-1.001319	0.000186
H66	H	0.317294	-0.767171	0.264879
H67	H	0.428836	-0.506506	0.264870
H68	H	0.997070	0.198833	0.000228
H69	H	0.252906	-0.650214	0.000169
H70	H	0.106475	-0.624909	0.000214
H71	H	0.171495	-0.105556	0.000253
H72	H	0.317918	-0.130850	0.000252
H73	H	0.553288	-0.032615	0.000233
H74	H	0.699722	-0.057907	0.000185
H75	H	0.412505	-0.154521	0.000269
H76	H	0.393693	-0.528289	0.000209
