data_functionalizedCrystal
_audit_creation_method	'MofGen! by Chris Wilmer'
_symmetry_space_group_name_H-M	'P1'
_symmetry_Int_Tables_number	1
_symmetry_cell_setting	triclinic
loop_
_symmetry_equiv_pos_as_xyz
  x,y,z
_cell_length_a	14.908558
_cell_length_b	14.908579
_cell_length_c	14.908308
_cell_angle_alpha	96.363296
_cell_angle_beta	89.824401
_cell_angle_gamma	89.793522
loop_
_atom_site_label
_atom_site_type_symbol
_atom_site_fract_x
_atom_site_fract_y
_atom_site_fract_z
Zn1	Zn	1.316639	0.470634	0.613076
Zn2	Zn	1.816639	0.970634	1.113076
Zn3	Zn	1.316534	0.613274	0.470447
Zn4	Zn	1.816534	1.113274	0.970447
Zn5	Zn	1.176009	0.453311	0.453136
Zn6	Zn	1.676009	0.953311	0.953136
Zn7	Zn	1.157627	0.612200	0.612041
Zn8	Zn	1.657627	1.112200	1.112041
O9	O	1.241702	0.537355	0.537175
O10	O	1.741702	1.037355	1.037175
O11	O	1.441983	0.497255	0.601833
O12	O	1.941983	0.997255	1.101833
O13	O	1.305542	0.585254	0.341957
O14	O	1.805542	1.085254	0.841957
O15	O	1.202401	0.329419	0.467541
O16	O	1.702401	0.829419	0.967541
O17	O	1.441905	0.602052	0.497044
O18	O	1.941905	1.102052	0.997044
O19	O	1.305722	0.342146	0.585048
O20	O	1.805722	0.842146	1.085048
O21	O	1.202299	0.467730	0.329239
O22	O	1.702299	0.967730	0.829239
O23	O	1.048213	0.466689	0.466538
O24	O	1.548213	0.966689	0.966538
O25	O	1.171071	0.600221	0.738372
O26	O	1.671071	1.100221	1.238372
O27	O	1.034708	0.583423	0.583285
O28	O	1.534708	1.083423	1.083285
O29	O	1.287897	0.496214	0.739132
O30	O	1.787897	0.996214	1.239132
O31	O	1.287717	0.739322	0.496041
O32	O	1.787717	1.239322	0.996041
O33	O	1.170969	0.738533	0.600070
O34	O	1.670969	1.238533	1.100070
C35	C	1.008957	0.523060	0.522921
C36	C	1.508957	1.023060	1.022921
C37	C	0.909385	0.516968	0.516846
C38	C	1.409385	1.016968	1.016846
C39	C	0.776047	0.447524	0.447590
C40	C	1.276047	0.947524	0.947590
C41	C	0.869604	0.453244	0.453294
C42	C	1.369604	0.953244	0.953294
C43	C	0.855600	0.574975	0.574700
C44	C	1.355600	1.074975	1.074700
C45	C	0.762043	0.569255	0.568996
C46	C	1.262043	1.069255	1.068996
C47	C	0.722270	0.505529	0.505437
C48	C	1.222270	1.005529	1.005437
C49	C	0.628710	0.499814	0.499729
C50	C	1.128710	0.999814	0.999729
C51	C	0.614708	0.621540	0.621139
C52	C	1.114708	1.121540	1.121139
C53	C	0.708266	0.627260	0.626843
C54	C	1.208266	1.127260	1.126843
C55	C	1.227360	0.771649	0.549843
C56	C	1.727360	1.271649	1.049843
C57	C	1.221304	0.871888	0.555297
C58	C	1.721304	1.371888	1.055297
C59	C	1.331608	1.061021	0.457321
C60	C	1.831608	1.561021	0.957321
C61	C	1.325921	1.155204	0.462443
C62	C	1.825921	1.655204	0.962443
C63	C	1.204250	1.154441	0.570668
C64	C	1.704250	1.654441	1.070668
C65	C	1.209936	1.060257	0.565546
C66	C	1.709936	1.560257	1.065546
C67	C	1.273616	1.013551	0.508869
C68	C	1.773616	1.513551	1.008869
C69	C	1.279298	0.919365	0.503743
C70	C	1.779298	1.419365	1.003743
C71	C	1.157631	0.918604	0.611972
C72	C	1.657631	1.418604	1.111972
C73	C	1.151945	1.012787	0.617094
C74	C	1.651945	1.512787	1.117094
C75	C	1.475357	0.551706	0.551485
C76	C	1.975357	1.051706	1.051485
C77	C	1.574926	0.557821	0.557583
C78	C	2.074926	1.057821	1.057583
C79	C	1.256117	1.302148	0.524491
C80	C	1.756117	1.802148	1.024491
C81	C	1.262243	1.201917	0.519114
C82	C	1.762243	1.701917	1.019114
C83	C	1.227445	0.550030	0.772387
C84	C	1.727445	1.050030	1.272387
C85	C	1.221370	0.555432	0.872621
C86	C	1.721370	1.055432	1.372621
C87	C	1.255959	0.524667	0.302878
C88	C	1.755959	1.024667	0.802878
C89	C	1.262224	0.519022	0.202641
C90	C	1.762224	1.019022	0.702641
C91	C	1.331603	0.457258	1.061762
C92	C	1.831603	0.957258	1.561762
C93	C	1.325897	0.462330	1.155941
C94	C	1.825897	0.962330	1.655941
C95	C	1.204250	0.570643	1.155157
C96	C	1.704250	1.070643	1.655157
C97	C	1.209955	0.565571	1.060979
C98	C	1.709955	1.065571	1.560979
C99	C	1.273635	0.508877	1.014285
C100	C	1.773635	1.008877	1.514285
C101	C	1.279344	0.503810	0.920105
C102	C	1.779344	1.003810	1.420105
C103	C	1.157693	0.612118	0.919323
C104	C	1.657693	1.112118	1.419323
C105	C	1.151987	0.617190	1.013501
C106	C	1.651987	1.117190	1.513501
H107	H	0.743663	0.395637	0.395836
H108	H	1.243663	0.895637	0.895836
H109	H	1.331196	0.457649	0.882089
H110	H	1.831196	0.957649	1.382089
O111	O	1.388421	0.406643	1.207137
O112	O	1.888421	0.906643	1.707137
H113	H	1.348532	0.360607	1.245099
H114	H	1.848532	0.860607	1.745099
H115	H	0.913387	0.406007	0.406191
H116	H	1.413387	0.906007	0.906191
H117	H	1.110493	0.654153	0.880657
H118	H	1.610493	1.154153	1.380657
O119	O	1.135557	0.631772	1.205524
O120	O	1.635557	1.131772	1.705524
H121	H	1.141329	0.626621	1.278987
H122	H	1.641329	1.126621	1.778987
H123	H	0.888000	0.626854	0.626450
H124	H	1.388000	1.126854	1.126450
H125	H	0.570912	0.668772	0.668243
H126	H	1.070912	1.168772	1.168243
H127	H	1.383453	1.022991	0.411166
H128	H	1.883453	1.522991	0.911166
O129	O	1.083263	1.063163	0.678222
O130	O	1.583263	1.563163	1.178222
H131	H	1.015001	1.039997	0.657407
H132	H	1.515001	1.539997	1.157407
O133	O	1.095079	0.867407	0.667580
O134	O	1.595079	1.367407	1.167580
H135	H	1.109733	0.794068	0.654502
H136	H	1.609733	1.294068	1.154502
O137	O	0.751164	0.695973	0.695412
O138	O	1.251164	1.195973	1.195412
H139	H	0.825256	0.690203	0.689666
H140	H	1.325256	1.190203	1.189666
H141	H	1.383457	0.411100	1.023744
H142	H	1.883457	0.911100	1.523744
O143	O	1.388483	1.206403	0.406856
O144	O	1.888483	1.706403	0.906856
H145	H	1.373842	1.279743	0.419948
H146	H	1.873842	1.779743	0.919948
O147	O	1.083302	0.678330	1.063866
O148	O	1.583302	1.178330	1.563866
H149	H	1.117983	0.728984	1.111705
H150	H	1.617983	1.228984	1.611705
H151	H	0.596329	0.447924	0.447978
H152	H	1.096329	0.947924	0.947978
O153	O	1.347991	0.868994	0.442625
O154	O	1.847991	1.368994	0.942625
H155	H	1.393669	0.831001	0.483489
H156	H	1.893669	1.331001	0.983489
H157	H	1.152410	1.192487	0.616817
H158	H	1.652410	1.692487	1.116817
