data_functionalizedCrystal
_audit_creation_method	'MofGen! by Chris Wilmer'
_symmetry_space_group_name_H-M	'P1'
_symmetry_Int_Tables_number	1
_symmetry_cell_setting	triclinic
loop_
_symmetry_equiv_pos_as_xyz
  x,y,z
_cell_length_a	6.817900
_cell_length_b	11.102188
_cell_length_c	12.200875
_cell_angle_alpha	92.493457
_cell_angle_beta	107.143593
_cell_angle_gamma	108.603875
loop_
_atom_site_label
_atom_site_type_symbol
_atom_site_fract_x
_atom_site_fract_y
_atom_site_fract_z
V1	V	-4.094460	-0.176128	-0.357661
O2	O	-4.053827	0.008167	-0.350853
O3	O	-4.071344	-0.348946	-0.355215
O4	O	-4.063800	-0.173549	-0.513649
O5	O	-4.061423	-0.168445	-0.191321
V6	V	-4.572513	-0.154068	-0.337765
O7	O	-4.367717	-0.224516	-0.401304
O8	O	-4.749453	-0.105680	-0.294123
O9	O	-4.372422	0.018750	-0.340211
O10	O	-4.730542	-0.338362	-0.344574
O11	O	-4.722946	-0.161751	-0.504105
O12	O	-4.379966	-0.156647	-0.181777
C13	C	-3.921922	-0.391071	-0.349573
C14	C	-3.984427	-0.532353	-0.348613
C15	C	-3.958635	-0.580493	-0.243113
C16	C	-4.017389	-0.713244	-0.242215
C17	C	-4.127719	-0.749703	-0.452326
C18	C	-4.068980	-0.616955	-0.453223
C19	C	-3.912297	-0.167333	-0.551670
C20	C	-3.968681	-0.166368	-0.679191
C21	C	-4.071870	-0.164603	-0.912666
C22	C	-4.014440	-0.165585	-0.782744
C23	C	-4.185187	0.060868	-0.345851
C24	C	-4.101921	0.202149	-0.346818
C25	C	-4.194811	-0.162867	-0.143750
C26	C	-4.117665	-0.163826	-0.016228
H27	H	-4.089999	-0.577761	-0.539139
H28	H	-4.196565	-0.818602	-0.537496
N29	N	-3.867431	-0.489256	-0.130280
H30	H	-3.978484	-0.508788	-0.088085
H31	H	-3.834096	-0.397886	-0.146935
N32	N	-3.989581	-0.765169	-0.128427
H33	H	-3.927107	-0.691427	-0.062299
H34	H	-3.886602	-0.815056	-0.119587
