data_functionalizedCrystal
_audit_creation_method	'MofGen! by Chris Wilmer'
_symmetry_space_group_name_H-M	'P1'
_symmetry_Int_Tables_number	1
_symmetry_cell_setting	triclinic
loop_
_symmetry_equiv_pos_as_xyz
  x,y,z
_cell_length_a	21.395364
_cell_length_b	13.897447
_cell_length_c	21.395355
_cell_angle_alpha	90.014356
_cell_angle_beta	90.024552
_cell_angle_gamma	90.034481
loop_
_atom_site_label
_atom_site_type_symbol
_atom_site_fract_x
_atom_site_fract_y
_atom_site_fract_z
Zn1	Zn	0.957908	-0.383742	0.354280
Zn2	Zn	0.957831	-0.545021	0.249510
Zn3	Zn	0.853123	-0.383784	0.249516
Zn4	Zn	0.853112	-0.545039	0.354250
O5	O	0.905493	-0.464396	0.301889
O6	O	1.045576	-0.405111	0.340391
O7	O	0.943913	-0.523643	0.161833
O8	O	0.867059	-0.248797	0.263429
O9	O	1.045519	-0.523602	0.263417
O10	O	0.944044	-0.248766	0.340398
O11	O	0.866985	-0.405183	0.161838
O12	O	0.765444	-0.405200	0.263400
O13	O	0.867042	-0.523632	0.441932
O14	O	0.765436	-0.523673	0.340347
O15	O	0.944034	-0.405128	0.441954
O16	O	0.943903	-0.680005	0.263389
O17	O	0.866967	-0.680018	0.340341
C18	C	0.742706	-0.464443	0.301871
C19	C	0.673065	-0.464487	0.301879
C20	C	0.640403	-0.402889	0.342021
C21	C	0.574968	-0.402864	0.342023
C22	C	0.542196	-0.464453	0.301890
C23	C	0.574865	-0.526054	0.261740
C24	C	0.640300	-0.526071	0.261734
C25	C	0.438483	-0.551319	0.296857
C26	C	0.373050	-0.551304	0.296867
C27	C	0.340376	-0.464400	0.301904
C28	C	0.373142	-0.377508	0.306944
C29	C	0.438576	-0.377525	0.306939
C30	C	0.471244	-0.464441	0.301891
C31	C	0.236762	-0.402769	0.342051
C32	C	0.171325	-0.402742	0.342049
C33	C	0.171224	-0.525941	0.261769
C34	C	0.236659	-0.525960	0.261768
C35	C	0.269424	-0.464375	0.301912
C36	C	0.905443	-0.715011	0.301874
C37	C	0.905478	-0.822225	0.301889
C38	C	0.905508	-0.909294	0.301903
C39	C	0.905552	-1.018527	0.301919
C40	C	1.068917	-0.464350	0.301907
C41	C	1.138558	-0.464330	0.301915
C42	C	0.905545	-0.464377	0.465312
C43	C	0.905568	-0.464369	0.534954
C44	C	0.905562	-0.212803	0.301917
C45	C	0.905591	-0.105590	0.301929
C46	C	0.905478	-0.464346	0.139101
C47	C	0.905577	-0.464083	0.069460
C48	C	0.945656	-0.402661	0.567679
C49	C	0.945655	-0.402619	0.633114
C50	C	0.905573	-0.464303	0.665822
C51	C	0.865476	-0.526015	0.633089
C52	C	0.865474	-0.526048	0.567654
C53	C	0.900608	-0.551157	0.769492
C54	C	0.900614	-0.551126	0.834925
C55	C	0.905576	-0.464201	0.867643
C56	C	0.910545	-0.377304	0.834920
C57	C	0.910542	-0.377337	0.769486
C58	C	0.905570	-0.464274	0.736774
C59	C	0.945666	-0.402443	0.971321
C60	C	0.945661	-0.402400	1.036757
C61	C	0.865485	-0.525804	1.036730
C62	C	0.865487	-0.525838	0.971295
C63	C	0.905581	-0.464159	0.938594
H64	H	0.548370	-0.352699	0.374711
H65	H	0.346540	-0.306742	0.311046
N66	N	0.895261	-0.644919	0.734206
H67	H	0.933429	-0.653957	0.707074
H68	H	0.856630	-0.643591	0.707077
H69	H	0.978305	-0.352145	1.063401
N70	N	0.822234	-0.592530	0.668361
H71	H	0.828317	-0.583145	0.714780
H72	H	0.831957	-0.661428	0.656934
N73	N	0.539524	-0.592476	0.218448
H74	H	0.493115	-0.583120	0.224543
H75	H	0.550932	-0.661393	0.228117
H76	H	0.666892	-0.576233	0.229045
N77	N	0.473722	-0.645057	0.291420
H78	H	0.443037	-0.700098	0.288233
H79	H	0.500886	-0.654107	0.329583
H80	H	0.263440	-0.352617	0.374735
N81	N	0.915903	-0.283541	0.870198
H82	H	0.915149	-0.296701	0.916615
H83	H	0.879684	-0.240430	0.858742
H84	H	0.832843	-0.576018	1.063360
N85	N	0.822239	-0.592380	0.935993
H86	H	0.796841	-0.631445	0.966640
H87	H	0.847717	-0.637032	0.908849
N88	N	0.988905	-0.335920	0.936045
H89	H	1.014298	-0.296814	0.966708
H90	H	0.963413	-0.291304	0.908881
N91	N	0.136094	-0.336284	0.385336
H92	H	0.166782	-0.297273	0.410763
H93	H	0.108933	-0.375597	0.414289
H94	H	0.978299	-0.352364	0.659765
H95	H	0.144542	-0.576088	0.229091
N96	N	0.822225	-0.592593	0.532353
H97	H	0.796827	-0.631658	0.562999
H98	H	0.847708	-0.637245	0.505213
H99	H	0.896573	-0.621882	0.861562
N100	N	0.915890	-0.283625	0.734187
H101	H	0.954497	-0.284927	0.707052
H102	H	0.919007	-0.228597	0.764874
N103	N	0.473916	-0.283812	0.312359
H104	H	0.520325	-0.297014	0.311589
H105	H	0.462521	-0.251112	0.352943
N106	N	0.675743	-0.336467	0.385316
H107	H	0.645118	-0.297440	0.410747
H108	H	0.702900	-0.291774	0.359861
N109	N	0.271892	-0.592399	0.218472
H110	H	0.241204	-0.631412	0.193046
H111	H	0.299033	-0.637103	0.243922
H112	H	0.978303	-0.352436	0.541058
N113	N	0.337710	-0.645015	0.291428
H114	H	0.349096	-0.688277	0.327603
H115	H	0.349075	-0.677657	0.250817
