data_functionalizedCrystal
_audit_creation_method	'MofGen! by Chris Wilmer'
_symmetry_space_group_name_H-M	'P1'
_symmetry_Int_Tables_number	1
_symmetry_cell_setting	triclinic
loop_
_symmetry_equiv_pos_as_xyz
  x,y,z
_cell_length_a	21.295420
_cell_length_b	21.295417
_cell_length_c	21.295411
_cell_angle_alpha	89.979403
_cell_angle_beta	89.975307
_cell_angle_gamma	90.027953
loop_
_atom_site_label
_atom_site_type_symbol
_atom_site_fract_x
_atom_site_fract_y
_atom_site_fract_z
Zn1	Zn	0.962359	-0.250710	-0.355918
Zn2	Zn	0.962263	-0.355962	-0.250646
Zn3	Zn	0.857082	-0.250708	-0.250663
Zn4	Zn	0.857053	-0.355942	-0.355877
O5	O	0.909689	-0.303331	-0.303276
O6	O	1.050435	-0.264682	-0.341964
O7	O	0.948282	-0.342007	-0.162558
O8	O	0.871100	-0.162619	-0.264650
O9	O	1.050365	-0.342010	-0.264620
O10	O	0.948446	-0.162621	-0.341980
O11	O	0.871006	-0.264677	-0.162571
O12	O	0.768989	-0.264658	-0.264610
O13	O	0.871050	-0.341976	-0.443972
O14	O	0.768967	-0.341973	-0.341910
O15	O	0.948418	-0.264662	-0.444002
O16	O	0.948254	-0.444049	-0.264580
O17	O	0.870957	-0.444034	-0.341893
C18	C	0.746138	-0.303314	-0.303258
C19	C	0.676169	-0.303321	-0.303265
C20	C	0.176717	-0.343663	-0.343487
C21	C	0.242459	-0.343663	-0.343480
C22	C	0.275330	-0.303345	-0.303296
C23	C	0.242453	-0.263035	-0.263103
C24	C	0.176711	-0.263040	-0.263106
N25	N	0.378570	-0.248227	-0.298562
N26	N	0.441021	-0.248224	-0.298563
C27	C	0.473405	-0.303327	-0.303282
N28	N	0.440977	-0.358435	-0.308014
N29	N	0.378520	-0.358438	-0.308017
C30	C	0.346615	-0.303335	-0.303287
C31	C	0.577560	-0.343638	-0.343462
C32	C	0.643303	-0.343639	-0.343451
C33	C	0.643295	-0.263005	-0.263077
C34	C	0.577553	-0.263010	-0.263085
C35	C	0.544689	-0.303325	-0.303281
C36	C	0.909609	-0.466882	-0.303244
C37	C	0.909632	-0.536850	-0.303251
C38	C	0.949883	-0.569661	-0.343546
C39	C	0.949906	-0.635403	-0.343562
C40	C	0.909683	-0.668333	-0.303271
C41	C	0.869424	-0.635514	-0.262974
C42	C	0.869399	-0.569773	-0.262964
N43	N	0.904924	-0.771585	-0.248180
N44	N	0.904952	-0.834036	-0.248191
C45	C	0.909757	-0.866407	-0.303300
N46	N	0.914545	-0.833968	-0.358398
N47	N	0.914520	-0.771511	-0.358386
C48	C	0.909706	-0.739618	-0.303278
C49	C	0.950034	-0.970504	-0.343615
C50	C	0.950052	-1.036247	-0.343631
C51	C	0.869574	-1.036357	-0.263038
C52	C	0.869553	-0.970615	-0.263027
C53	C	0.909786	-0.937692	-0.303314
C54	C	1.073879	-0.303348	-0.303294
C55	C	1.143847	-0.303356	-0.303302
C56	C	0.909741	-0.303317	-0.467466
C57	C	0.909764	-0.303312	-0.537434
C58	C	0.909787	-0.139140	-0.303322
C59	C	0.909828	-0.069172	-0.303341
C60	C	0.950047	-0.263053	-0.570318
C61	C	0.950046	-0.263025	-0.636060
C62	C	0.909769	-0.303268	-0.668917
C63	C	0.869477	-0.343530	-0.636026
C64	C	0.869475	-0.343552	-0.570284
N65	N	0.904913	-0.358336	-0.772133
N66	N	0.904919	-0.358314	-0.834585
C67	C	0.909773	-0.303204	-0.866992
N68	N	0.914632	-0.248117	-0.834588
N69	N	0.914630	-0.248141	-0.772131
C70	C	0.909766	-0.303249	-0.740202
C71	C	0.950057	-0.262913	-0.971161
C72	C	0.950052	-0.262884	-1.036905
C73	C	0.869486	-0.343394	-1.036869
C74	C	0.869488	-0.343417	-0.971126
C75	C	0.909777	-0.303177	-0.938276
C76	C	0.909673	-0.303298	-0.139724
C77	C	0.909773	-0.303127	-0.069757
H78	H	0.550800	-0.376466	-0.376191
O79	O	0.830387	-0.537829	-0.223786
C80	C	0.866233	-0.499805	-0.183144
H81	H	0.913924	-0.489906	-0.205387
H82	H	0.873180	-0.525161	-0.136505
C83	C	0.773008	-0.449551	-0.144385
C84	C	0.831581	-0.437388	-0.171707
H85	H	0.751632	-0.411050	-0.137327
H86	H	0.748857	-0.475169	-0.171765
H87	H	0.778805	-0.470682	-0.105522
H88	H	0.825783	-0.416264	-0.210572
H89	H	0.855731	-0.411764	-0.144333
H90	H	0.982860	-0.230143	-0.944413
O91	O	0.830466	-1.068404	-0.223989
C92	C	0.789794	-1.106432	-0.259801
H93	H	0.811979	-1.116239	-0.307526
H94	H	0.743135	-1.081128	-0.266674
C95	C	0.751181	-1.156862	-0.166549
C96	C	0.778431	-1.168911	-0.225164
H97	H	0.744168	-1.195401	-0.145184
H98	H	0.778580	-1.131240	-0.142422
H99	H	0.712300	-1.135774	-0.172285
H100	H	0.817313	-1.189991	-0.219428
H101	H	0.751038	-1.194538	-0.249291
O102	O	0.989039	-0.938544	-0.382845
C103	C	0.975260	-0.954597	-0.445573
H104	H	0.924977	-0.972714	-0.448702
H105	H	1.009016	-0.992717	-0.462070
C106	C	1.044293	-0.873916	-0.483736
C107	C	0.982533	-0.896162	-0.487581
H108	H	1.048782	-0.837872	-0.509650
H109	H	1.053579	-0.863102	-0.441476
H110	H	1.072416	-0.905689	-0.497483
H111	H	0.954412	-0.864393	-0.473827
H112	H	0.973243	-0.906970	-0.529840
H113	H	0.982829	-1.062960	-0.376447
H114	H	0.982642	-0.542857	-0.376352
O115	O	0.274425	-0.382884	-0.382431
C116	C	0.312433	-0.423479	-0.346524
H117	H	0.292597	-0.427307	-0.296940
H118	H	0.362263	-0.404006	-0.344386
C119	C	0.337799	-0.484257	-0.438071
C120	C	0.313432	-0.488963	-0.377172
H121	H	0.338418	-0.524649	-0.456976
H122	H	0.312194	-0.456906	-0.462263
H123	H	0.379321	-0.468027	-0.436280
H124	H	0.271908	-0.505185	-0.378964
H125	H	0.339031	-0.516318	-0.352981
O126	O	0.989198	-0.223901	-0.538506
C127	C	1.024765	-0.188372	-0.581633
H128	H	0.998984	-0.186176	-0.628486
H129	H	1.072560	-0.211427	-0.588641
C130	C	1.065541	-0.124080	-0.498439
C131	C	1.033875	-0.121379	-0.555983
H132	H	1.071164	-0.082756	-0.482617
H133	H	1.041582	-0.148018	-0.469383
H134	H	1.105367	-0.143296	-0.504287
H135	H	0.994047	-0.102171	-0.550133
H136	H	1.057828	-0.097436	-0.585038
H137	H	0.670064	-0.376467	-0.376173
O138	O	0.830438	-0.938836	-0.223818
C139	C	0.794930	-0.981995	-0.188270
H140	H	0.820731	-1.028837	-0.186123
H141	H	0.747111	-0.989015	-0.211277
C142	C	0.754193	-0.898848	-0.123897
C143	C	0.785886	-0.956379	-0.121256
H144	H	0.748611	-0.883047	-0.082561
H145	H	0.778114	-0.869771	-0.147848
H146	H	0.714348	-0.904706	-0.143073
H147	H	0.825733	-0.950519	-0.102088
H148	H	0.761971	-0.985455	-0.097300
H149	H	0.670058	-0.230180	-0.230355
H150	H	0.269220	-0.230208	-0.230383
O151	O	0.545717	-0.223790	-0.224034
C152	C	0.588824	-0.188214	-0.188552
H153	H	0.635701	-0.186068	-0.214336
H154	H	0.595783	-0.211196	-0.140701
C155	C	0.505616	-0.123842	-0.147933
C156	C	0.563189	-0.121202	-0.179604
H157	H	0.489802	-0.082506	-0.142411
H158	H	0.476573	-0.147811	-0.171836
H159	H	0.511422	-0.142997	-0.108061
H160	H	0.557380	-0.102055	-0.219479
H161	H	0.592230	-0.097227	-0.155708
H162	H	0.982849	-0.230238	-0.662839
H163	H	0.836688	-0.376204	-0.944352
H164	H	0.836681	-0.376294	-0.662782
O165	O	0.830326	-0.382725	-0.538436
C166	C	0.794760	-0.418228	-0.581529
H167	H	0.820540	-0.420392	-0.628404
H168	H	0.746964	-0.395170	-0.588497
C169	C	0.753988	-0.482576	-0.498295
C170	C	0.785654	-0.485238	-0.555867
H171	H	0.748368	-0.523910	-0.482465
H172	H	0.777947	-0.458656	-0.469262
H173	H	0.714161	-0.463358	-0.504110
H174	H	0.825483	-0.504448	-0.550050
H175	H	0.761702	-0.509163	-0.584899
H176	H	0.982678	-0.662123	-0.376382
H177	H	0.836673	-0.662330	-0.230170
H178	H	0.982855	-0.230097	-1.063677
H179	H	0.149963	-0.376493	-0.376216
H180	H	0.149950	-0.230215	-0.230383
H181	H	0.836685	-0.376155	-1.063620
