data_functionalizedCrystal
_audit_creation_method	'MofGen! by Chris Wilmer'
_symmetry_space_group_name_H-M	'P1'
_symmetry_Int_Tables_number	1
_symmetry_cell_setting	triclinic
loop_
_symmetry_equiv_pos_as_xyz
  x,y,z
_cell_length_a	29.839131
_cell_length_b	29.839134
_cell_length_c	29.839125
_cell_angle_alpha	90.023632
_cell_angle_beta	89.988394
_cell_angle_gamma	89.963719
loop_
_atom_site_label
_atom_site_type_symbol
_atom_site_fract_x
_atom_site_fract_y
_atom_site_fract_z
Zn1	Zn	-0.179005	-0.686727	-0.254125
Zn2	Zn	-0.254109	-0.686657	-0.178995
Zn3	Zn	-0.178987	-0.611608	-0.178995
Zn4	Zn	-0.254102	-0.611557	-0.254083
O5	O	-0.216551	-0.649137	-0.216549
O6	O	-0.188978	-0.749585	-0.244176
O7	O	-0.244139	-0.676693	-0.116128
O8	O	-0.116122	-0.621623	-0.188978
O9	O	-0.244157	-0.749533	-0.188979
O10	O	-0.116135	-0.676812	-0.244176
O11	O	-0.188948	-0.621555	-0.116127
O12	O	-0.188941	-0.548734	-0.188938
O13	O	-0.244145	-0.621537	-0.316956
O14	O	-0.244127	-0.548697	-0.244105
O15	O	-0.188971	-0.676764	-0.316987
O16	O	-0.316975	-0.676645	-0.188938
O17	O	-0.316970	-0.621469	-0.244105
C18	C	-0.216532	-0.532415	-0.216517
C19	C	-0.216534	-0.482480	-0.216514
C20	C	-0.333273	-0.649056	-0.216527
C21	C	-0.383208	-0.649062	-0.216533
C22	C	-0.216559	-0.649153	-0.333728
C23	C	-0.216563	-0.649159	-0.383662
C24	C	-0.692841	-0.677919	-0.187866
C25	C	-0.880514	-0.677975	-0.187883
O26	O	-0.904771	-0.702445	-0.163493
N27	N	-0.903993	-0.649230	-0.216583
C28	C	-0.880550	-0.620472	-0.245283
O29	O	-0.904826	-0.596028	-0.269698
C30	C	-0.692878	-0.620419	-0.245268
C31	C	-0.669402	-0.649162	-0.216563
C32	C	-0.669365	-0.706660	-0.159164
C33	C	-0.622450	-0.706644	-0.159158
C34	C	-0.599010	-0.677887	-0.187854
C35	C	-0.622486	-0.649146	-0.216557
C36	C	-0.669436	-0.591664	-0.273969
C37	C	-0.622515	-0.591654	-0.273964
C38	C	-0.599039	-0.620397	-0.245259
C39	C	-0.552132	-0.620374	-0.245248
N40	N	-0.528653	-0.649118	-0.216548
C41	C	-0.552092	-0.677875	-0.187851
C42	C	-0.979081	-0.620501	-0.245289
C43	C	-1.025999	-0.620514	-0.245292
C44	C	-1.025959	-0.678017	-0.187893
C45	C	-0.979041	-0.678002	-0.187887
C46	C	-0.955602	-0.649246	-0.216589
C47	C	-0.453567	-0.677839	-0.187841
C48	C	-0.406647	-0.677819	-0.187836
C49	C	-0.406690	-0.620318	-0.245237
C50	C	-0.453606	-0.620336	-0.245240
C51	C	-0.477043	-0.649100	-0.216540
O52	O	-0.527846	-0.595919	-0.269629
O53	O	-0.527808	-0.702322	-0.163447
C54	C	-0.739757	-0.677935	-0.187872
C55	C	-0.763233	-0.649194	-0.216574
C56	C	-0.739794	-0.620437	-0.245271
C57	C	-0.810151	-0.649207	-0.216578
C58	C	-0.833590	-0.677963	-0.187881
C59	C	-0.810111	-0.706708	-0.159181
C60	C	-0.763196	-0.706692	-0.159175
C61	C	-0.763272	-0.591693	-0.273971
C62	C	-0.810188	-0.591711	-0.273974
C63	C	-0.833627	-0.620468	-0.245277
C64	C	-0.099372	-0.649231	-0.216582
C65	C	-0.049438	-0.649271	-0.216595
C66	C	-0.216570	-0.766316	-0.216582
C67	C	-0.216578	-0.816250	-0.216596
C68	C	-0.245329	-0.172827	-0.245240
C69	C	-0.245342	0.014846	-0.245260
O70	O	-0.269802	0.039119	-0.269665
N71	N	-0.216567	0.038305	-0.216583
C72	C	-0.187786	0.014843	-0.187902
O73	O	-0.163308	0.039102	-0.163514
C74	C	-0.187771	-0.172830	-0.187884
C75	C	-0.216550	-0.196286	-0.216560
C76	C	-0.274106	-0.196284	-0.273913
C77	C	-0.274104	-0.243199	-0.273906
C78	C	-0.245325	-0.266658	-0.245226
C79	C	-0.216549	-0.243201	-0.216553
C80	C	-0.158988	-0.196291	-0.159205
C81	C	-0.158986	-0.243212	-0.159204
C82	C	-0.187765	-0.266668	-0.187880
C83	C	-0.187769	-0.313576	-0.187865
N84	N	-0.216543	-0.337035	-0.216542
C85	C	-0.245321	-0.313576	-0.245222
C86	C	-0.187796	0.113373	-0.187912
C87	C	-0.187800	0.160291	-0.187916
C88	C	-0.245355	0.160291	-0.245275
C89	C	-0.245353	0.113372	-0.245269
C90	C	-0.216570	0.089914	-0.216589
C91	C	-0.245316	-0.412102	-0.245205
C92	C	-0.245313	-0.459021	-0.245194
C93	C	-0.187756	-0.459017	-0.187837
C94	C	-0.187760	-0.412102	-0.187846
C95	C	-0.216542	-0.388645	-0.216534
O96	O	-0.163317	-0.337878	-0.163477
O97	O	-0.269788	-0.337843	-0.269613
C98	C	-0.245331	-0.125912	-0.245247
C99	C	-0.216554	-0.102455	-0.216574
C100	C	-0.187775	-0.125914	-0.187893
C101	C	-0.216558	-0.055537	-0.216577
C102	C	-0.245336	-0.032078	-0.245258
C103	C	-0.274111	-0.055537	-0.273934
C104	C	-0.274109	-0.102453	-0.273927
C105	C	-0.159001	-0.102455	-0.159217
C106	C	-0.159006	-0.055540	-0.159226
C107	C	-0.187784	-0.032081	-0.187906
C108	C	-0.245189	-0.620434	-0.740234
C109	C	-0.245240	-0.620418	-0.552561
O110	O	-0.269664	-0.595950	-0.528282
N111	N	-0.216521	-0.649169	-0.529108
C112	C	-0.187785	-0.677925	-0.552576
O113	O	-0.163356	-0.702376	-0.528321
C114	C	-0.187731	-0.677938	-0.740248
C115	C	-0.216455	-0.649188	-0.763699
C116	C	-0.273910	-0.591686	-0.763684
C117	C	-0.273899	-0.591692	-0.810600
C118	C	-0.245166	-0.620446	-0.834065
C119	C	-0.216444	-0.649194	-0.810614
C120	C	-0.158993	-0.706691	-0.763715
C121	C	-0.158981	-0.706691	-0.810636
C122	C	-0.187706	-0.677941	-0.834087
C123	C	-0.187699	-0.677954	-0.880994
N124	N	-0.216419	-0.649203	-0.904447
C125	C	-0.245152	-0.620449	-0.880983
C126	C	-0.187816	-0.677916	-0.454045
C127	C	-0.187830	-0.677914	-0.407127
C128	C	-0.245285	-0.620406	-0.407115
C129	C	-0.245273	-0.620411	-0.454034
C130	C	-0.216535	-0.649165	-0.477498
C131	C	-0.245126	-0.620464	-0.979508
C132	C	-0.245113	-0.620474	-1.026428
C133	C	-0.187656	-0.677980	-1.026436
C134	C	-0.187671	-0.677972	-0.979520
C135	C	-0.216407	-0.649210	-0.956058
O136	O	-0.163285	-0.702406	-0.905301
O137	O	-0.269570	-0.595994	-0.905245
C138	C	-0.245200	-0.620428	-0.693318
C139	C	-0.216478	-0.649176	-0.669868
C140	C	-0.187745	-0.677930	-0.693332
C141	C	-0.216492	-0.649173	-0.622950
C142	C	-0.245225	-0.620419	-0.599485
C143	C	-0.273945	-0.591668	-0.622938
C144	C	-0.273933	-0.591674	-0.669853
C145	C	-0.159026	-0.706682	-0.669879
C146	C	-0.159041	-0.706674	-0.622964
C147	C	-0.187774	-0.677919	-0.599499
C148	C	-0.216510	-0.649148	-0.099827
C149	C	-0.216380	-0.649228	-0.049893
H150	H	-0.387534	-0.701225	-0.164459
H151	H	-0.297288	-0.568279	-0.829689
F152	F	-0.304506	-0.561074	-0.694806
H153	H	-0.297308	-0.568268	-0.744584
H154	H	-0.268662	-0.597000	-0.473124
H155	H	-0.268681	-0.596994	-0.388002
F156	F	-0.954060	-0.708594	-0.157336
F157	F	-0.275946	-0.483983	-0.275715
F158	F	-0.128374	-0.030581	-0.128702
F159	F	-0.157175	0.185250	-0.157390
F160	F	-0.738332	-0.561085	-0.304516
H161	H	-0.829204	-0.730121	-0.135814
H162	H	-0.297541	-0.177188	-0.297271
F163	F	-0.157263	-0.708519	-0.382174
H164	H	-0.387599	-0.596903	-0.268600
F165	F	-0.275948	-0.387144	-0.275738
H166	H	-0.603434	-0.568238	-0.297337
H167	H	-0.297538	-0.262293	-0.297258
F168	F	-0.738217	-0.737286	-0.128624
H169	H	-0.829298	-0.568301	-0.297349
F170	F	-0.157236	-0.708531	-0.479011
H171	H	-0.135553	-0.177201	-0.135854
F172	F	-0.275983	0.088412	-0.275789
H173	H	-0.268788	0.179399	-0.268628
H174	H	-0.164357	0.094278	-0.164556
F175	F	-1.050913	-0.708621	-0.157350
F176	F	-0.157079	-0.708581	-1.051417
H177	H	-0.135544	-0.262309	-0.135852
F178	F	-0.128390	-0.737292	-0.835606
H179	H	-0.164284	-0.701385	-0.960426
H180	H	-0.135650	-0.730090	-0.603874
F181	F	-0.157137	-0.387137	-0.157320
H182	H	-0.164327	-0.478126	-0.164485
F183	F	-0.304741	-0.030562	-0.304456
F184	F	-0.304526	-0.561067	-0.597957
H185	H	-0.135628	-0.730097	-0.688980
F186	F	-0.275710	-0.589853	-0.954544
H187	H	-0.135603	-0.730103	-0.744630
H188	H	-0.472721	-0.596933	-0.268615
H189	H	-0.297544	-0.121547	-0.297278
H190	H	-0.135566	-0.121551	-0.135861
H191	H	-0.472643	-0.701263	-0.164472
H192	H	-0.268505	-0.597062	-1.045519
H193	H	-0.603338	-0.730050	-0.135785
H194	H	-0.688444	-0.730080	-0.135795
F195	F	-1.050979	-0.589917	-0.275839
H196	H	-0.960000	-0.597083	-0.268661
F197	F	-0.694411	-0.561075	-0.304526
