data_functionalizedCrystal
_audit_creation_method	'MofGen! by Chris Wilmer'
_symmetry_space_group_name_H-M	'P1'
_symmetry_Int_Tables_number	1
_symmetry_cell_setting	triclinic
loop_
_symmetry_equiv_pos_as_xyz
  x,y,z
_cell_length_a	21.295417
_cell_length_b	17.077404
_cell_length_c	17.077396
_cell_angle_alpha	89.982756
_cell_angle_beta	89.965973
_cell_angle_gamma	90.030732
loop_
_atom_site_label
_atom_site_type_symbol
_atom_site_fract_x
_atom_site_fract_y
_atom_site_fract_z
Zn1	Zn	-0.250600	1.199996	-0.443817
Zn2	Zn	0.082733	1.533329	-0.110484
Zn3	Zn	0.416066	1.866662	0.222850
Zn4	Zn	-0.355875	1.199890	-0.312540
Zn5	Zn	-0.022542	1.533224	0.020793
Zn6	Zn	0.310792	1.866557	0.354126
Zn7	Zn	-0.250624	1.068733	-0.312565
Zn8	Zn	0.082709	1.402066	0.020768
Zn9	Zn	0.416043	1.735399	0.354102
Zn10	Zn	-0.355836	1.068678	-0.443764
Zn11	Zn	-0.022503	1.402011	-0.110430
Zn12	Zn	0.310831	1.735345	0.222903
O13	O	-0.303234	1.134324	-0.378171
O14	O	0.030100	1.467657	-0.044838
O15	O	0.363433	1.800991	0.288495
O16	O	-0.264572	1.309829	-0.426415
O17	O	0.068762	1.643162	-0.093081
O18	O	0.402095	1.976495	0.240252
O19	O	-0.341939	1.182471	-0.202697
O20	O	-0.008606	1.515804	0.130637
O21	O	0.324727	1.849138	0.463970
O22	O	-0.162531	1.086212	-0.330008
O23	O	0.170802	1.419545	0.003325
O24	O	0.504135	1.752878	0.336658
O25	O	-0.341916	1.309751	-0.329966
O26	O	-0.008583	1.643085	0.003367
O27	O	0.324750	1.976418	0.336700
O28	O	-0.162514	1.182650	-0.426439
O29	O	0.170819	1.515983	-0.093105
O30	O	0.504153	1.849317	0.240228
O31	O	-0.264612	1.086110	-0.202715
O32	O	0.068722	1.419443	0.130619
O33	O	0.402055	1.752776	0.463952
O34	O	-0.264574	0.958878	-0.329957
O35	O	0.068759	1.292212	0.003376
O36	O	0.402093	1.625545	0.336710
O37	O	-0.341850	1.086119	-0.553618
O38	O	-0.008517	1.419452	-0.220285
O39	O	0.324817	1.752785	0.113049
O40	O	-0.341873	0.958838	-0.426348
O41	O	-0.008540	1.292172	-0.093015
O42	O	0.324794	1.625505	0.240319
O43	O	-0.264534	1.182597	-0.553657
O44	O	0.068800	1.515930	-0.220324
O45	O	0.402133	1.849264	0.113010
O46	O	-0.443959	1.182418	-0.329915
O47	O	-0.110626	1.515751	0.003419
O48	O	0.222708	1.849085	0.336752
O49	O	-0.443931	1.086017	-0.426324
O50	O	-0.110597	1.419350	-0.092991
O51	O	0.222736	1.752683	0.240343
C52	C	-0.303222	0.930376	-0.378150
C53	C	0.030111	1.263710	-0.044816
C54	C	0.363444	1.597043	0.288517
C55	C	-0.303233	0.843126	-0.378159
C56	C	0.030101	1.176460	-0.044826
C57	C	0.363434	1.509793	0.288507
C58	C	-0.343543	0.802136	-0.428270
C59	C	-0.010210	1.135469	-0.094936
C60	C	0.323124	1.468803	0.238397
C61	C	-0.343544	0.720155	-0.428282
C62	C	-0.010211	1.053489	-0.094949
C63	C	0.323122	1.386822	0.238385
C64	C	-0.303238	0.679167	-0.378180
C65	C	0.030095	1.012500	-0.044846
C66	C	0.363429	1.345834	0.288487
C67	C	-0.262923	0.720163	-0.328067
C68	C	0.070410	1.053497	0.005266
C69	C	0.403743	1.386830	0.338600
C70	C	-0.262919	0.802142	-0.328059
C71	C	0.070414	1.135476	0.005274
C72	C	0.403747	1.468809	0.338608
C73	C	-0.262936	0.549293	-0.328086
C74	C	0.070398	0.882627	0.005247
C75	C	0.403731	1.215960	0.338581
C76	C	-0.262940	0.467309	-0.328093
C77	C	0.070393	0.800642	0.005241
C78	C	0.403726	1.133975	0.338574
C79	C	-0.343561	0.467306	-0.428309
C80	C	-0.010227	0.800640	-0.094976
C81	C	0.323106	1.133973	0.238358
C82	C	-0.343557	0.549285	-0.428301
C83	C	-0.010223	0.882619	-0.094968
C84	C	0.323110	1.215952	0.238366
C85	C	-0.303243	0.590276	-0.378187
C86	C	0.030091	0.923609	-0.044854
C87	C	0.363424	1.256943	0.288480
C88	C	-0.466785	1.134221	-0.378128
C89	C	-0.133452	1.467555	-0.044795
C90	C	0.199881	1.800888	0.288539
C91	C	-0.536753	1.134249	-0.378136
C92	C	-0.203420	1.467582	-0.044802
C93	C	0.129913	1.800916	0.288531
C94	C	-0.569614	1.184490	-0.327987
C95	C	-0.236281	1.517823	0.005347
C96	C	0.097053	1.851156	0.338680
C97	C	-0.635357	1.184526	-0.328004
C98	C	-0.302023	1.517860	0.005329
C99	C	0.031310	1.851193	0.338662
C100	C	-0.668236	1.134309	-0.378163
C101	C	-0.334903	1.467642	-0.044829
C102	C	-0.001569	1.800975	0.288504
C103	C	-0.635367	1.084064	-0.428321
C104	C	-0.302034	1.417398	-0.094988
C105	C	0.031299	1.750731	0.238345
C106	C	-0.569626	1.084035	-0.428308
C107	C	-0.236293	1.417368	-0.094975
C108	C	0.097041	1.750701	0.238359
N109	N	-0.771502	1.065640	-0.384140
N110	N	-0.438168	1.398973	-0.050806
N111	N	-0.104835	1.732306	0.282527
N112	N	-0.833953	1.065670	-0.384148
N113	N	-0.500620	1.399003	-0.050815
N114	N	-0.167287	1.732337	0.282519
C115	C	-0.866311	1.134396	-0.378208
C116	C	-0.532977	1.467730	-0.044874
C117	C	-0.199644	1.801063	0.288459
N118	N	-0.833857	1.203093	-0.372244
N119	N	-0.500524	1.536426	-0.038910
N120	N	-0.167191	1.869759	0.294423
N121	N	-0.771400	1.203061	-0.372231
N122	N	-0.438067	1.536395	-0.038898
N123	N	-0.104734	1.869728	0.294435
C124	C	-0.739521	1.134336	-0.378183
C125	C	-0.406188	1.467669	-0.044850
C126	C	-0.072855	1.801002	0.288483
C127	C	-0.970457	1.184681	-0.328075
C128	C	-0.637123	1.518015	0.005258
C129	C	-0.303790	1.851348	0.338591
C130	C	-1.036200	1.184719	-0.328098
C131	C	-0.702867	1.518053	0.005235
C132	C	-0.369534	1.851386	0.338568
C133	C	-1.036210	1.084250	-0.428411
C134	C	-0.702877	1.417584	-0.095078
C135	C	-0.369543	1.750917	0.238255
C136	C	-0.970468	1.084219	-0.428392
C137	C	-0.637134	1.417552	-0.095059
C138	C	-0.303801	1.750886	0.238274
C139	C	-0.937595	1.134434	-0.378220
C140	C	-0.604262	1.467767	-0.044887
C141	C	-0.270928	1.801100	0.288447
C142	C	-0.139043	1.134449	-0.378232
C143	C	0.194290	1.467782	-0.044899
C144	C	0.527623	1.801115	0.288434
C145	C	-0.069075	1.134502	-0.378258
C146	C	0.264258	1.467835	-0.044925
C147	C	0.597591	1.801169	0.288408
C148	C	-0.303185	1.134364	-0.582916
C149	C	0.030148	1.467697	-0.249583
C150	C	0.363482	1.801030	0.083751
C151	C	-0.303164	1.134380	-0.670166
C152	C	0.030169	1.467714	-0.336832
C153	C	0.363502	1.801047	-0.003499
C154	C	-0.303246	1.339068	-0.378194
C155	C	0.030088	1.672402	-0.044860
C156	C	0.363421	2.005735	0.288473
C157	C	-0.303251	1.426318	-0.378203
C158	C	0.030083	1.759651	-0.044870
C159	C	0.363416	2.092985	0.288464
C160	C	-0.262895	1.084220	-0.711165
C161	C	0.070438	1.417554	-0.377831
C162	C	0.403772	1.750887	-0.044498
C163	C	-0.262881	1.084233	-0.793145
C164	C	0.070453	1.417567	-0.459812
C165	C	0.403786	1.750900	-0.126479
C166	C	-0.303133	1.134411	-0.834125
C167	C	0.030200	1.467744	-0.500792
C168	C	0.363534	1.801077	-0.167459
C169	C	-0.343407	1.184573	-0.793120
C170	C	-0.010073	1.517906	-0.459787
C171	C	0.323260	1.851239	-0.126454
C172	C	-0.343424	1.184555	-0.711141
C173	C	-0.010090	1.517889	-0.377808
C174	C	0.323243	1.851222	-0.044475
C175	C	-0.343367	1.184607	-0.963991
C176	C	-0.010034	1.517940	-0.630657
C177	C	0.323299	1.851273	-0.297324
C178	C	-0.343350	1.184625	-1.045975
C179	C	-0.010016	1.517959	-0.712642
C180	C	0.323317	1.851292	-0.379309
C181	C	-0.262824	1.084285	-1.045994
C182	C	0.070509	1.417618	-0.712661
C183	C	0.403842	1.750951	-0.379328
C184	C	-0.262841	1.084267	-0.964015
C185	C	0.070492	1.417601	-0.630682
C186	C	0.403825	1.750934	-0.297349
C187	C	-0.303114	1.134431	-0.923016
C188	C	0.030219	1.467764	-0.589683
C189	C	0.363552	1.801097	-0.256350
C190	C	-0.303237	1.134330	-0.174224
C191	C	0.030096	1.467663	0.159110
C192	C	0.363430	1.800997	0.492443
C193	C	-0.303080	1.134465	-0.086974
C194	C	0.030253	1.467799	0.246359
C195	C	0.363586	1.801132	0.579692
H196	H	-0.376369	0.686785	-0.469086
H197	H	-0.043036	1.020118	-0.135753
H198	H	0.290297	1.353451	0.197580
H199	H	-0.230062	1.043412	-0.930652
H200	H	0.103272	1.376745	-0.597318
H201	H	0.436605	1.710079	-0.263985
Cl202	Cl	-0.528313	1.020869	-0.491357
Cl203	Cl	-0.194980	1.354202	-0.158024
Cl204	Cl	0.138353	1.687535	0.175310
H205	H	-0.943691	1.225572	-0.287224
H206	H	-0.610357	1.558905	0.046109
H207	H	-0.277024	1.892238	0.379442
Cl208	Cl	-0.212194	1.021224	-1.097535
Cl209	Cl	0.121139	1.354557	-0.764202
Cl210	Cl	0.454472	1.687890	-0.430869
H211	H	-0.376126	1.225484	-1.079339
H212	H	-0.042793	1.558817	-0.746006
H213	H	0.290540	1.892151	-0.412672
Cl214	Cl	-0.528292	1.247628	-0.264925
Cl215	Cl	-0.194958	1.580961	0.068409
Cl216	Cl	0.138375	1.914295	0.401742
Cl217	Cl	-0.393999	1.247667	-0.912450
Cl218	Cl	-0.060666	1.581001	-0.579117
Cl219	Cl	0.272667	1.914334	-0.245783
Cl220	Cl	-0.212254	0.600823	-0.265085
Cl221	Cl	0.121079	0.934156	0.068249
Cl222	Cl	0.454412	1.267490	0.401582
Cl223	Cl	-0.394014	1.247648	-0.844638
Cl224	Cl	-0.060680	1.580982	-0.511305
Cl225	Cl	0.272653	1.914315	-0.177972
H226	H	-0.943711	1.043305	-0.469225
H227	H	-0.610377	1.376638	-0.135892
H228	H	-0.277044	1.709972	0.197442
H229	H	-0.230092	1.043385	-0.826523
H230	H	0.103242	1.376718	-0.493190
H231	H	0.436575	1.710052	-0.159856
H232	H	-0.662117	1.225441	-0.287167
H233	H	-0.328784	1.558775	0.046166
H234	H	0.004550	1.892108	0.379499
Cl235	Cl	-0.676700	1.020937	-0.491381
Cl236	Cl	-0.343367	1.354270	-0.158048
Cl237	Cl	-0.010034	1.687603	0.175285
H238	H	-0.376367	0.835503	-0.469066
H239	H	-0.043034	1.168836	-0.135733
H240	H	0.290300	1.502169	0.197600
Cl241	Cl	-0.394232	0.600813	-0.491282
Cl242	Cl	-0.060899	0.934146	-0.157949
Cl243	Cl	0.272434	1.267480	0.175384
H244	H	-0.376210	1.225407	-0.677761
H245	H	-0.042877	1.558740	-0.344428
H246	H	0.290456	1.892073	-0.011094
H247	H	-1.062980	1.043365	-0.469255
H248	H	-0.729646	1.376699	-0.135921
H249	H	-0.396313	1.710032	0.197412
H250	H	-0.230113	1.043365	-0.677805
H251	H	0.103220	1.376698	-0.344471
H252	H	0.436553	1.710031	-0.011138
Cl253	Cl	-0.394232	0.415776	-0.491320
Cl254	Cl	-0.060899	0.749109	-0.157987
Cl255	Cl	0.272434	1.082443	0.175346
Cl256	Cl	-1.077512	1.247891	-0.265054
Cl257	Cl	-0.744178	1.581224	0.068280
Cl258	Cl	-0.410845	1.914558	0.401613
H259	H	-0.230103	0.686784	-0.287276
H260	H	0.103231	1.020117	0.046057
H261	H	0.436564	1.353451	0.379390
Cl262	Cl	-0.212240	0.853673	-0.265062
Cl263	Cl	0.121094	1.187007	0.068271
Cl264	Cl	0.454427	1.520340	0.401604
Cl265	Cl	-0.212272	0.415781	-0.265102
Cl266	Cl	0.121061	0.749114	0.068231
Cl267	Cl	0.454395	1.082448	0.401564
