data_functionalizedCrystal
_audit_creation_method	'MofGen! by Chris Wilmer'
_symmetry_space_group_name_H-M	'P1'
_symmetry_Int_Tables_number	1
_symmetry_cell_setting	triclinic
loop_
_symmetry_equiv_pos_as_xyz
  x,y,z
_cell_length_a	14.908571
_cell_length_b	18.050589
_cell_length_c	14.908308
_cell_angle_alpha	93.269302
_cell_angle_beta	90.175053
_cell_angle_gamma	86.724558
loop_
_atom_site_label
_atom_site_type_symbol
_atom_site_fract_x
_atom_site_fract_y
_atom_site_fract_z
Zn1	Zn	1.345230	-0.387558	-0.587600
Zn2	Zn	1.678564	-0.054225	-0.254266
Zn3	Zn	2.011897	0.279108	0.079067
Zn4	Zn	1.353791	-0.505024	-0.437245
Zn5	Zn	1.687124	-0.171691	-0.103912
Zn6	Zn	2.020458	0.161643	0.229421
Zn7	Zn	1.203548	-0.373294	-0.428597
Zn8	Zn	1.536881	-0.039961	-0.095263
Zn9	Zn	1.870215	0.293373	0.238070
Zn10	Zn	1.194819	-0.504142	-0.578897
Zn11	Zn	1.528152	-0.170808	-0.245563
Zn12	Zn	1.861486	0.162525	0.087770
O13	O	1.274347	-0.442504	-0.508085
O14	O	1.607680	-0.109171	-0.174751
O15	O	1.941014	0.224162	0.158582
O16	O	1.472191	-0.409479	-0.574916
O17	O	1.805524	-0.076146	-0.241583
O18	O	2.138858	0.257187	0.091750
O19	O	1.341097	-0.481949	-0.310273
O20	O	1.674430	-0.148616	0.023060
O21	O	2.007763	0.184717	0.356394
O22	O	1.222413	-0.271266	-0.449712
O23	O	1.555746	0.062067	-0.116378
O24	O	1.889080	0.395401	0.216955
O25	O	1.478480	-0.495781	-0.464452
O26	O	1.811814	-0.162448	-0.131118
O27	O	2.145147	0.170886	0.202215
O28	O	1.326506	-0.281746	-0.566530
O29	O	1.659840	0.051587	-0.233197
O30	O	1.993173	0.384921	0.100136
O31	O	1.230714	-0.385168	-0.303919
O32	O	1.564047	-0.051834	0.029414
O33	O	1.897381	0.281499	0.362748
O34	O	1.076565	-0.384312	-0.441273
O35	O	1.409899	-0.050979	-0.107939
O36	O	1.743232	0.282354	0.225394
O37	O	1.207536	-0.494277	-0.705876
O38	O	1.540869	-0.160944	-0.372543
O39	O	1.874202	0.172390	-0.039209
O40	O	1.070152	-0.480446	-0.551698
O41	O	1.403485	-0.147112	-0.218364
O42	O	1.736819	0.186221	0.114969
O43	O	1.318042	-0.408624	-0.712270
O44	O	1.651376	-0.075290	-0.378937
O45	O	1.984709	0.258043	-0.045603
O46	O	1.332633	-0.608827	-0.456013
O47	O	1.665966	-0.275494	-0.122680
O48	O	1.999299	0.057839	0.210654
O49	O	1.215836	-0.608179	-0.560084
O50	O	1.549170	-0.274846	-0.226750
O51	O	1.882503	0.058488	0.106583
C52	C	1.040734	-0.430736	-0.494603
C53	C	1.374067	-0.097403	-0.161270
C54	C	1.707400	0.235931	0.172064
C55	C	0.940791	-0.425720	-0.488857
C56	C	1.274125	-0.092387	-0.155523
C57	C	1.607458	0.240947	0.177810
C58	C	1.274239	-0.635451	-0.508063
C59	C	1.607573	-0.302117	-0.174730
C60	C	1.940906	0.031216	0.158603
C61	C	1.274274	-0.717999	-0.508089
C62	C	1.607607	-0.384666	-0.174756
C63	C	1.940941	-0.051332	0.158578
C64	C	0.746369	-0.516539	-0.592890
C65	C	1.079702	-0.183206	-0.259556
C66	C	1.413035	0.150128	0.073777
C67	C	0.652464	-0.511829	-0.587494
C68	C	0.985797	-0.178495	-0.254161
C69	C	1.319131	0.154838	0.079173
C70	C	0.659075	-0.411586	-0.472674
C71	C	0.992409	-0.078253	-0.139341
C72	C	1.325742	0.255081	0.193993
C73	C	0.752980	-0.416296	-0.478070
C74	C	1.086313	-0.082963	-0.144737
C75	C	1.419647	0.250370	0.188597
C76	C	0.796623	-0.468775	-0.538179
C77	C	1.129957	-0.135442	-0.204846
C78	C	1.463290	0.197891	0.128488
C79	C	0.890530	-0.473489	-0.543570
C80	C	1.223863	-0.140155	-0.210236
C81	C	1.557197	0.193178	0.123097
C82	C	0.897139	-0.373243	-0.428755
C83	C	1.230473	-0.039910	-0.095422
C84	C	1.563806	0.293424	0.237912
C85	C	0.803235	-0.368533	-0.423359
C86	C	1.136568	-0.035199	-0.090026
C87	C	1.469901	0.298134	0.243308
C88	C	1.210820	-0.917126	-0.564665
C89	C	1.544154	-0.583793	-0.231332
C90	C	1.877487	-0.250460	0.102001
C91	C	1.193639	-0.961795	-0.481356
C92	C	1.526973	-0.628462	-0.148022
C93	C	1.860306	-0.295128	0.185311
C94	C	1.274362	-0.869134	-0.508106
C95	C	1.607695	-0.535801	-0.174773
C96	C	1.941028	-0.202468	0.158561
C97	C	1.291586	-0.971550	-0.591427
C98	C	1.624920	-0.638217	-0.258094
C99	C	1.958253	-0.304883	0.075239
C100	C	1.274444	-1.015125	-0.508129
C101	C	1.607777	-0.681791	-0.174796
C102	C	1.941111	-0.348458	0.158537
C103	C	1.257140	-0.912712	-0.424750
C104	C	1.590473	-0.579379	-0.091417
C105	C	1.923806	-0.246045	0.241916
C106	C	1.355122	-0.922467	-0.534880
C107	C	1.688455	-0.589134	-0.201546
C108	C	2.021788	-0.255800	0.131787
C109	C	1.337975	-0.967112	-0.451515
C110	C	1.671308	-0.633779	-0.118182
C111	C	2.004642	-0.300446	0.215151
C112	C	1.274312	-0.785033	-0.508094
C113	C	1.607645	-0.451700	-0.174760
C114	C	1.940978	-0.118367	0.158573
C115	C	1.274495	-1.099224	-0.508132
C116	C	1.607828	-0.765890	-0.174799
C117	C	1.941161	-0.432557	0.158534
C118	C	1.508873	-0.454320	-0.521619
C119	C	1.842206	-0.120986	-0.188286
C120	C	2.175540	0.212347	0.145047
C121	C	1.608814	-0.459355	-0.527387
C122	C	1.942147	-0.126021	-0.194054
C123	C	2.275480	0.207312	0.139280
C124	C	1.260860	-0.452943	-0.742610
C125	C	1.594194	-0.119610	-0.409277
C126	C	1.927527	0.213724	-0.075944
C127	C	1.255113	-0.457391	-0.842551
C128	C	1.588446	-0.124058	-0.509218
C129	C	1.921780	0.209275	-0.175885
C130	C	1.274479	-0.248807	-0.508127
C131	C	1.607812	0.084526	-0.174794
C132	C	1.941145	0.417860	0.158540
C133	C	1.274535	-0.166265	-0.508145
C134	C	1.607868	0.167068	-0.174812
C135	C	1.941201	0.500402	0.158522
C136	C	1.359381	-0.376542	-1.037010
C137	C	1.692714	-0.043209	-0.703677
C138	C	2.026048	0.290125	-0.370344
C139	C	1.353984	-0.380719	-1.130914
C140	C	1.687317	-0.047386	-0.797581
C141	C	2.020651	0.285947	-0.464247
C142	C	1.238917	-0.469919	-1.124263
C143	C	1.572250	-0.136585	-0.790930
C144	C	1.905584	0.196748	-0.457597
C145	C	1.244314	-0.465741	-1.030360
C146	C	1.577648	-0.132408	-0.697026
C147	C	1.910981	0.200925	-0.363693
C148	C	1.304549	-0.419052	-0.986737
C149	C	1.637883	-0.085719	-0.653403
C150	C	1.971216	0.247614	-0.320070
C151	C	1.309951	-0.414880	-0.892832
C152	C	1.643284	-0.081546	-0.559498
C153	C	1.976617	0.251787	-0.226165
C154	C	1.194880	-0.504075	-0.886183
C155	C	1.528213	-0.170741	-0.552849
C156	C	1.861547	0.162592	-0.219516
C157	C	1.189483	-0.508252	-0.980086
C158	C	1.522816	-0.174918	-0.646753
C159	C	1.856149	0.158415	-0.313420
C160	C	1.287833	-0.432055	-0.274474
C161	C	1.621167	-0.098722	0.058859
C162	C	1.954500	0.234611	0.392192
C163	C	1.293755	-0.427407	-0.174544
C164	C	1.627088	-0.094073	0.158789
C165	C	1.960422	0.239260	0.492123
H166	H	0.926063	-0.516221	-0.592512
H167	H	1.259396	-0.182888	-0.259179
H168	H	1.592730	0.150446	0.074155
H169	H	1.306123	-0.997236	-0.661882
H170	H	1.639456	-0.663903	-0.328549
H171	H	1.972789	-0.330570	0.004784
H172	H	1.358998	-0.376864	-0.857315
H173	H	1.692332	-0.043531	-0.523982
H174	H	2.025665	0.289803	-0.190649
H175	H	1.398631	-0.346101	-1.171843
H176	H	1.731965	-0.012767	-0.838510
H177	H	2.065298	0.320566	-0.505177
N178	N	1.424365	-0.326202	-0.989962
N179	N	1.757698	0.007132	-0.656629
N180	N	2.091031	0.340465	-0.323296
H181	H	1.468248	-0.356760	-0.953411
H182	H	1.801582	-0.023426	-0.620077
H183	H	2.134915	0.309907	-0.286744
H184	H	1.458222	-0.299926	-1.036122
H185	H	1.791555	0.033408	-0.702789
H186	H	2.124888	0.366741	-0.369455
N187	N	1.139564	-0.888048	-0.627927
N188	N	1.472897	-0.554715	-0.294593
N189	N	1.806230	-0.221381	0.038740
H190	H	1.106879	-0.930969	-0.656208
H191	H	1.440212	-0.597636	-0.322875
H192	H	1.773545	-0.264303	0.010458
H193	H	1.095440	-0.852782	-0.593382
H194	H	1.428773	-0.519448	-0.260049
H195	H	1.762106	-0.186115	0.073284
N196	N	0.793449	-0.573145	-0.657707
N197	N	1.126783	-0.239811	-0.324373
N198	N	1.460116	0.093522	0.008960
H199	H	0.747363	-0.602692	-0.691545
H200	H	1.080696	-0.269359	-0.358211
H201	H	1.414030	0.063975	-0.024878
H202	H	0.830038	-0.546780	-0.701620
H203	H	1.163371	-0.213447	-0.368287
H204	H	1.496705	0.119887	-0.034954
H205	H	1.189877	-0.507930	-1.159798
H206	H	1.523210	-0.174597	-0.826464
H207	H	1.856543	0.158737	-0.493131
H208	H	1.125381	-0.979255	-0.458730
H209	H	1.458715	-0.645922	-0.125397
H210	H	1.792048	-0.312589	0.207937
H211	H	1.140439	-0.546263	-1.015617
H212	H	1.473773	-0.212930	-0.682284
H213	H	1.807106	0.120404	-0.348950
H214	H	1.150234	-0.538692	-0.845240
H215	H	1.483567	-0.205359	-0.511907
H216	H	1.816901	0.127975	-0.178573
H217	H	1.242524	-0.887110	-0.354272
H218	H	1.575858	-0.553777	-0.020939
H219	H	1.909191	-0.220444	0.312395
N220	N	1.409209	-0.995992	-0.388104
N221	N	1.742542	-0.662659	-0.054771
N222	N	2.075875	-0.329326	0.278563
H223	H	1.396112	-0.974358	-0.325223
H224	H	1.729445	-0.641025	0.008111
H225	H	2.062778	-0.307692	0.341444
H226	H	1.409171	-1.051977	-0.388922
H227	H	1.742504	-0.718643	-0.055589
H228	H	2.075838	-0.385310	0.277744
N229	N	1.445515	-0.899340	-0.564893
N230	N	1.778848	-0.566006	-0.231559
N231	N	2.112182	-0.232673	0.101774
H232	H	1.458440	-0.920839	-0.627865
H233	H	1.791773	-0.587505	-0.294531
H234	H	2.125107	-0.254172	0.038802
H235	H	1.444923	-0.843326	-0.564032
H236	H	1.778257	-0.509993	-0.230699
H237	H	2.111590	-0.176659	0.102635
H238	H	0.611550	-0.550721	-0.632047
H239	H	0.944883	-0.217388	-0.298714
H240	H	1.278216	0.115945	0.034620
H241	H	0.767687	-0.325804	-0.374423
H242	H	1.101020	0.007529	-0.041089
H243	H	1.434354	0.340863	0.292244
N244	N	0.611997	-0.355013	-0.407816
N245	N	0.945330	-0.021679	-0.074482
N246	N	1.278664	0.311654	0.258851
H247	H	0.544884	-0.359287	-0.412692
H248	H	0.878217	-0.025954	-0.079359
H249	H	1.211551	0.307380	0.253974
H250	H	0.632099	-0.364489	-0.344532
H251	H	0.965433	-0.031155	-0.011198
H252	H	1.298766	0.302178	0.322135
H253	H	0.938067	-0.334352	-0.384203
H254	H	1.271400	-0.001018	-0.050870
H255	H	1.604734	0.332315	0.282463
