data_functionalizedCrystal
_audit_creation_method	'MofGen! by Chris Wilmer'
_symmetry_space_group_name_H-M	'P1'
_symmetry_Int_Tables_number	1
_symmetry_cell_setting	triclinic
loop_
_symmetry_equiv_pos_as_xyz
  x,y,z
_cell_length_a	10.685661
_cell_length_b	17.640280
_cell_length_c	10.685880
_cell_angle_alpha	82.229567
_cell_angle_beta	81.602173
_cell_angle_gamma	73.663843
loop_
_atom_site_label
_atom_site_type_symbol
_atom_site_fract_x
_atom_site_fract_y
_atom_site_fract_z
Zn1	Zn	2.131245	-0.452158	-0.730736
Zn2	Zn	2.151184	-0.573381	-0.482180
Zn3	Zn	1.896123	-0.430243	-0.508832
Zn4	Zn	1.955281	-0.573310	-0.678156
O5	O	2.033458	-0.507273	-0.599976
O6	O	2.314276	-0.477439	-0.708616
O7	O	2.100935	-0.545252	-0.310831
O8	O	1.894210	-0.322544	-0.571427
O9	O	2.328924	-0.566502	-0.526003
O10	O	2.066954	-0.338644	-0.734459
O11	O	1.913543	-0.440089	-0.330412
O12	O	1.723585	-0.440020	-0.520442
O13	O	1.995037	-0.566380	-0.860015
O14	O	1.767048	-0.545131	-0.644844
O15	O	2.124317	-0.477370	-0.898646
O16	O	2.158299	-0.683978	-0.475018
O17	O	2.014371	-0.683926	-0.619000
C18	C	1.698545	-0.490190	-0.579830
C19	C	1.555276	-0.482903	-0.571235
C20	C	2.094955	-0.712635	-0.538441
C21	C	2.121386	-0.800497	-0.512164
C22	C	1.833239	-1.089426	-0.800080
C23	C	1.858074	-1.171984	-0.775350
C24	C	2.008064	-1.171987	-0.625588
C25	C	1.983247	-1.089427	-0.650310
C26	C	1.895832	-1.048153	-0.737556
C27	C	2.045840	-1.048155	-0.587787
C28	C	2.021019	-0.965602	-0.612503
C29	C	1.933606	-0.924321	-0.699742
C30	C	1.871012	-0.965600	-0.762272
C31	C	2.133247	-1.089430	-0.500535
C32	C	2.195840	-1.048157	-0.438011
C33	C	2.171027	-0.965603	-0.462733
C34	C	2.083614	-0.924323	-0.549972
C35	C	2.233621	-0.924324	-0.400203
C36	C	2.208801	-0.841771	-0.424918
C37	C	2.058793	-0.841770	-0.574688
C38	C	2.369680	-0.524423	-0.620202
C39	C	2.512957	-0.531731	-0.628821
C40	C	2.064052	-0.524312	-0.925944
C41	C	2.077090	-0.531573	-1.064853
C42	C	1.971759	-0.301113	-0.661781
C43	C	1.945466	-0.213260	-0.688119
C44	C	2.003040	-0.490247	-0.275297
C45	C	1.990186	-0.482777	-0.136472
H46	H	1.987621	-0.808164	-0.645742
O47	O	2.177814	-0.588112	-1.118263
C48	C	2.256012	-0.632006	-1.023793
H49	H	2.195392	-0.627240	-0.926710
H50	H	2.291913	-0.696937	-1.043760
H51	H	2.343964	-0.607339	-1.024517
H52	H	1.905800	-0.435447	-1.091518
O53	O	1.467578	-0.426450	-0.504567
C54	C	1.339256	-0.431490	-0.510550
H55	H	1.343130	-0.493739	-0.531972
H56	H	1.277581	-0.418580	-0.415540
H57	H	1.293292	-0.386227	-0.588972
O58	O	1.600425	-0.588184	-0.695685
C59	C	1.574190	-0.575908	-0.823476
H60	H	1.518801	-0.511242	-0.846668
H61	H	1.670627	-0.590460	-0.888396
H62	H	1.511931	-0.616094	-0.838699
H63	H	1.913389	-0.857100	-0.719854
H64	H	1.799840	-0.931994	-0.833327
H65	H	1.807113	-1.205587	-0.826287
O66	O	1.748262	-1.049445	-0.884846
C67	C	1.698373	-1.103577	-0.934776
H68	H	1.706818	-1.159529	-0.865697
H69	H	1.590895	-1.075281	-0.949070
H70	H	1.757061	-1.119692	-1.029934
H71	H	2.079233	-1.205603	-0.554549
O72	O	2.157604	-1.169634	-0.476541
C73	C	2.292411	-1.205125	-0.507948
H74	H	2.350356	-1.160186	-0.505375
H75	H	2.326688	-1.258571	-0.436440
H76	H	2.309199	-1.225317	-0.607422
O77	O	2.280905	-1.088185	-0.353362
C78	C	2.405859	-1.075953	-0.394579
H79	H	2.394987	-1.018652	-0.460725
H80	H	2.454425	-1.071357	-0.308762
H81	H	2.469205	-1.127959	-0.447576
O82	O	2.318680	-0.964351	-0.315548
C83	C	2.443638	-0.952123	-0.356756
H84	H	2.432774	-0.894824	-0.422907
H85	H	2.492196	-0.947524	-0.270935
H86	H	2.506986	-1.004131	-0.409745
O87	O	2.269545	-0.801747	-0.363984
C88	C	2.235834	-0.813987	-0.231669
H89	H	2.204077	-0.871290	-0.208102
H90	H	2.324494	-0.818584	-0.180472
H91	H	2.151676	-0.761986	-0.199441
