data_functionalizedCrystal
_audit_creation_method	'MofGen! by Chris Wilmer'
_symmetry_space_group_name_H-M	'P1'
_symmetry_Int_Tables_number	1
_symmetry_cell_setting	triclinic
loop_
_symmetry_equiv_pos_as_xyz
  x,y,z
_cell_length_a	15.995350
_cell_length_b	15.995350
_cell_length_c	15.072220
_cell_angle_alpha	90.001101
_cell_angle_beta	89.991149
_cell_angle_gamma	83.492375
loop_
_atom_site_label
_atom_site_type_symbol
_atom_site_fract_x
_atom_site_fract_y
_atom_site_fract_z
O1	O	1.110996	0.107921	-0.073703
O2	O	1.610996	0.607921	0.426297
O3	O	0.867221	0.121249	-0.073721
O4	O	1.367221	0.621249	0.426279
O5	O	0.995772	-0.007303	-0.073710
O6	O	1.495772	0.492697	0.426290
O7	O	0.982444	0.236472	-0.073713
O8	O	1.482444	0.736472	0.426287
O9	O	0.995740	-0.007296	0.073855
O10	O	1.495740	0.492704	0.573855
O11	O	0.867189	0.121256	0.073844
O12	O	1.367189	0.621256	0.573844
O13	O	1.110964	0.107928	0.073862
O14	O	1.610964	0.607928	0.573862
Zn15	Zn	0.989071	0.114593	0.097283
Zn16	Zn	1.489071	0.614593	0.597283
Zn17	Zn	0.989113	0.114584	-0.097141
Zn18	Zn	1.489113	0.614584	0.402859
O19	O	0.982413	0.236480	0.073852
O20	O	1.482413	0.736480	0.573852
C21	C	0.836010	0.120701	0.000060
C22	C	1.336010	0.620701	0.500060
C23	C	0.743060	0.119049	0.000053
C24	C	1.243060	0.619049	0.500053
C25	C	0.405312	0.113117	0.000071
C26	C	0.905312	0.613117	0.500071
C27	C	0.452746	0.021565	0.000401
C28	C	0.952746	0.521565	0.500401
C29	C	0.549436	0.023217	0.000063
C30	C	1.049436	0.523217	0.500063
C31	C	0.572873	0.116060	0.000063
C32	C	1.072873	0.616060	0.500063
C33	C	0.531804	0.161212	-0.084201
C34	C	1.031804	0.661212	0.415799
C35	C	0.435168	0.158912	-0.084266
C36	C	0.935168	0.658912	0.415734
C37	C	0.434793	0.160812	0.083543
C38	C	0.934793	0.660812	0.583543
C39	C	0.531738	0.160790	0.084651
C40	C	1.031738	0.660790	0.584651
C41	C	0.667570	0.117727	0.000055
C42	C	1.167570	0.617727	0.500055
C43	C	0.310614	0.111452	0.000073
C44	C	0.810614	0.611452	0.500073
C45	C	0.995205	-0.038494	0.000070
C46	C	1.495205	0.461506	0.500070
C47	C	0.993553	-0.131444	0.000065
C48	C	1.493553	0.368556	0.500065
C49	C	0.987621	-0.469192	0.000068
C50	C	1.487621	0.030808	0.500068
C51	C	0.896069	-0.421758	-0.000270
C52	C	1.396069	0.078242	0.499730
C53	C	0.897721	-0.325068	0.000063
C54	C	1.397721	0.174932	0.500063
C55	C	0.990564	-0.301631	0.000066
C56	C	1.490564	0.198369	0.500066
C57	C	1.035702	-0.342705	0.084335
C58	C	1.535702	0.157295	0.584335
C59	C	1.033402	-0.439341	0.084405
C60	C	1.533402	0.060659	0.584405
C61	C	1.035330	-0.439707	-0.083404
C62	C	1.535330	0.060293	0.416596
C63	C	1.035308	-0.342761	-0.084518
C64	C	1.535308	0.157239	0.415482
C65	C	0.992231	-0.206934	0.000068
C66	C	1.492231	0.293066	0.500068
C67	C	0.985956	-0.563890	0.000072
C68	C	1.485956	-0.063890	0.500072
C69	C	1.142175	0.108476	0.000080
C70	C	1.642175	0.608476	0.500080
C71	C	1.235125	0.110127	0.000081
C72	C	1.735125	0.610127	0.500081
C73	C	0.982980	0.267671	0.000069
C74	C	1.482980	0.767671	0.500069
C75	C	0.984631	0.360621	0.000069
C76	C	1.484631	0.860621	0.500069
N77	N	0.989049	0.114599	0.229971
N78	N	1.489049	0.614599	0.729971
N79	N	0.989142	0.114571	-0.229830
N80	N	1.489142	0.614571	0.270170
C81	C	0.989112	0.114580	0.589173
C82	C	1.489112	0.614580	1.089173
C83	C	0.920095	0.183135	0.551560
C84	C	1.420095	0.683135	1.051560
C85	C	0.920254	0.183385	0.448735
C86	C	1.420254	0.683385	0.948735
C87	C	0.989080	0.114590	0.410969
C88	C	1.489080	0.614590	0.910969
C89	C	1.076445	0.133671	0.448266
C90	C	1.576445	0.633671	0.948266
C91	C	1.076058	0.134159	0.551124
C92	C	1.576058	0.634159	1.051124
C93	C	0.971542	0.026741	0.551272
C94	C	1.471542	0.526741	1.051272
C95	C	0.969537	0.027327	0.448409
C96	C	1.469537	0.527327	0.948409
C97	C	0.989067	0.114593	0.310255
C98	C	1.489067	0.614593	0.810255
C99	C	0.989130	0.114579	0.689886
C100	C	1.489130	0.614579	1.189886
H101	H	0.416873	0.125979	-0.147255
H102	H	0.916873	0.625979	0.352745
N103	N	0.989766	-0.463580	0.167840
N104	N	1.489766	0.036420	0.667840
H105	H	0.930528	-0.434036	0.169260
H106	H	1.430528	0.065964	0.669260
H107	H	0.987897	-0.526477	0.168673
H108	H	1.487897	-0.026477	0.668673
N109	N	1.038202	-0.040834	0.583506
N110	N	1.538202	0.459166	1.083506
H111	H	1.010855	-0.084082	0.618718
H112	H	1.510855	0.415918	1.118718
H113	H	1.068808	-0.068903	0.530898
H114	H	1.568808	0.431097	1.030898
N115	N	0.833794	0.168331	0.584354
N116	N	1.333794	0.668331	1.084354
H117	H	0.790446	0.213004	0.559446
H118	H	1.290446	0.713004	1.059446
H119	H	0.820624	0.111020	0.564285
H120	H	1.320624	0.611020	1.064285
H121	H	0.577852	-0.012275	0.060467
H122	H	1.077852	0.487725	0.560467
H123	H	1.005411	-0.460250	-0.147274
H124	H	1.505411	0.039750	0.352726
H125	H	0.931160	0.247952	0.577399
H126	H	1.431160	0.747952	1.077399
H127	H	1.102831	-0.471468	-0.083968
H128	H	1.602831	0.028532	0.416032
H129	H	0.861974	-0.297200	0.060568
H130	H	1.361974	0.202800	0.560568
H131	H	1.103014	-0.327400	-0.089603
H132	H	1.603014	0.172600	0.410397
N133	N	0.550522	0.251558	-0.088369
N134	N	1.050522	0.751558	0.411631
H135	H	0.527195	0.282572	-0.033784
H136	H	1.027195	0.782572	0.466216
H137	H	0.613403	0.253207	-0.091092
H138	H	1.113403	0.753207	0.408908
H139	H	0.855314	0.172016	0.423519
H140	H	1.355314	0.672016	0.923519
H141	H	0.547102	0.228494	0.089741
H142	H	1.047102	0.728494	0.589741
H143	H	1.016540	-0.026078	0.422704
H144	H	1.516540	0.473922	0.922704
H145	H	0.559041	0.127829	0.146989
H146	H	1.059041	0.627829	0.646989
H147	H	0.414244	0.130885	0.147414
H148	H	0.914244	0.630885	0.647414
N149	N	0.428202	-0.026908	0.080449
N150	N	0.928202	0.473092	0.580449
H151	H	0.386093	0.010004	0.117277
H152	H	0.886093	0.510004	0.617277
H153	H	0.402266	-0.078387	0.060277
H154	H	0.902266	0.421613	0.560277
H155	H	0.403031	0.228312	0.084113
H156	H	0.903031	0.728312	0.584113
N157	N	1.122427	-0.482072	0.089499
N158	N	1.622427	0.017928	0.589499
H159	H	1.134750	-0.518786	0.035489
H160	H	1.634750	-0.018786	0.535489
H161	H	1.162938	-0.438060	0.091719
H162	H	1.662938	0.061940	0.591719
H163	H	0.433165	-0.014865	-0.059694
H164	H	0.933165	0.485135	0.440306
N165	N	0.850720	-0.287415	-0.079949
N166	N	1.350720	0.212585	0.420051
H167	H	0.828738	-0.333623	-0.115753
H168	H	1.328738	0.166377	0.384247
H169	H	0.802027	-0.246057	-0.059755
H170	H	1.302027	0.253943	0.440245
N171	N	1.126062	-0.324028	0.088479
N172	N	1.626062	0.175972	0.588479
H173	H	1.138635	-0.288672	0.035648
H174	H	1.638635	0.211328	0.535648
H175	H	1.135370	-0.292376	0.144949
H176	H	1.635370	0.207624	0.644949
N177	N	0.586365	-0.024123	-0.080083
N178	N	1.086365	0.475877	0.419917
H179	H	0.539823	-0.046142	-0.115333
H180	H	1.039823	0.453858	0.384667
H181	H	0.616221	0.014946	-0.118418
H182	H	1.116221	0.514946	0.381582
H183	H	0.859490	-0.440293	-0.060701
H184	H	1.359490	0.059707	0.439299
N185	N	0.847789	-0.447700	0.079323
N186	N	1.347789	0.052300	0.579323
H187	H	0.884964	-0.490045	0.115597
H188	H	1.384964	0.009955	0.615597
H189	H	0.829524	-0.396588	0.116882
H190	H	1.329524	0.103412	0.616882
H191	H	0.560191	0.129845	-0.146912
H192	H	1.060191	0.629845	0.353088
H193	H	1.004325	-0.314320	0.147042
H194	H	1.504325	0.185680	0.647042
H195	H	1.129019	0.086195	0.576003
H196	H	1.629019	0.586195	1.076003
N197	N	1.146098	0.069290	0.415863
N198	N	1.646098	0.569290	0.915863
H199	H	1.148250	0.070522	0.348909
H200	H	1.648250	0.570522	0.848909
H201	H	1.201638	0.082823	0.440711
H202	H	1.701638	0.582823	0.940711
H203	H	1.002306	-0.315516	-0.146857
H204	H	1.502306	0.184484	0.353143
N205	N	0.934890	0.269789	0.416120
N206	N	1.434890	0.769789	0.916120
H207	H	0.941293	0.307854	0.468561
H208	H	1.441293	0.807854	0.968561
H209	H	0.987743	0.265496	0.378949
H210	H	1.487743	0.765496	0.878949
N211	N	1.096566	0.219011	0.582901
N212	N	1.596566	0.719011	1.082901
H213	H	1.105770	0.255747	0.530092
H214	H	1.605770	0.755747	1.030092
H215	H	1.048313	0.246532	0.619702
H216	H	1.548313	0.746532	1.119702
N217	N	1.097446	0.217558	0.414134
N218	N	1.597446	0.717558	0.914134
H219	H	1.052645	0.263390	0.433849
H220	H	1.552645	0.763390	0.933849
H221	H	1.153789	0.229198	0.438512
H222	H	1.653789	0.729198	0.938512
H223	H	0.905271	0.012846	0.424032
H224	H	1.405271	0.512846	0.924032
N225	N	0.392444	0.247943	-0.089296
N226	N	0.892444	0.747943	0.410704
H227	H	0.436411	0.288508	-0.091471
H228	H	0.936411	0.788508	0.408529
H229	H	0.356552	0.254668	-0.144516
H230	H	0.856552	0.754668	0.355484
N231	N	0.888976	0.002443	0.585664
N232	N	1.388976	0.502443	1.085664
H233	H	0.862122	0.048136	0.626167
H234	H	1.362122	0.548136	1.126167
H235	H	0.850194	-0.004971	0.534086
H236	H	1.350194	0.495029	1.034086
