data_functionalizedCrystal
_audit_creation_method	'MofGen! by Chris Wilmer'
_symmetry_space_group_name_H-M	'P1'
_symmetry_Int_Tables_number	1
_symmetry_cell_setting	triclinic
loop_
_symmetry_equiv_pos_as_xyz
  x,y,z
_cell_length_a	10.489741
_cell_length_b	10.723024
_cell_length_c	9.798715
_cell_angle_alpha	89.996846
_cell_angle_beta	89.996897
_cell_angle_gamma	84.503522
loop_
_atom_site_label
_atom_site_type_symbol
_atom_site_fract_x
_atom_site_fract_y
_atom_site_fract_z
O1	O	0.178907	1.657296	-0.113481
O2	O	0.678907	2.157296	0.386519
O3	O	0.196031	1.294154	-0.113486
O4	O	0.696031	1.794154	0.386514
O5	O	0.001866	1.483988	-0.113475
O6	O	0.501866	1.983988	0.386525
O7	O	0.373072	1.467462	-0.113492
O8	O	0.873072	1.967462	0.386508
O9	O	0.001864	1.483975	0.113507
O10	O	0.501864	1.983975	0.613507
O11	O	0.196030	1.294141	0.113496
O12	O	0.696030	1.794141	0.613496
O13	O	0.178905	1.657283	0.113501
O14	O	0.678905	2.157283	0.613501
Zn15	Zn	0.187467	1.475710	0.149537
Zn16	Zn	0.687467	1.975710	0.649537
Zn17	Zn	0.187469	1.475727	-0.149522
Zn18	Zn	0.687469	1.975727	0.350478
O19	O	0.373071	1.467449	0.113490
O20	O	0.873071	1.967449	0.613490
C21	C	0.194785	1.247647	0.000005
C22	C	0.694785	1.747647	0.500005
C23	C	0.191056	1.109091	0.000003
C24	C	0.691056	1.609091	0.500003
C25	C	-0.045666	1.482734	0.000015
C26	C	0.454334	1.982734	0.500015
C27	C	-0.187293	1.478999	0.000012
C28	C	0.312707	1.978999	0.500012
C29	C	0.299701	1.034175	-0.000003
C30	C	0.799701	1.534175	0.499997
C31	C	0.295850	0.890969	-0.000004
C32	C	0.795850	1.390969	0.499996
C33	C	-0.255356	1.358213	0.000001
C34	C	0.244644	1.858213	0.500001
C35	C	-0.347515	1.415265	0.111915
C36	C	0.152485	1.915265	0.611915
C37	C	-0.347489	1.415307	-0.111871
C38	C	0.152511	1.915307	0.388129
C39	C	-0.277587	1.536101	0.112019
C40	C	0.222413	2.036101	0.612019
C41	C	-0.277551	1.536125	-0.111868
C42	C	0.222449	2.036125	0.388132
C43	C	-0.369683	1.593265	0.000074
C44	C	0.130317	2.093265	0.500074
C45	C	0.420602	1.468704	-0.000003
C46	C	0.920602	1.968704	0.499997
C47	C	0.562229	1.472438	-0.000009
C48	C	1.062229	1.972438	0.499991
C49	C	0.180152	1.703790	0.000007
C50	C	0.680152	2.203790	0.500007
C51	C	0.183881	1.842347	-0.000000
C52	C	0.683881	2.342347	0.500000
N53	N	0.187465	1.475707	0.353637
N54	N	0.687465	1.975707	0.853637
N55	N	0.187461	1.475740	-0.353622
N56	N	0.687461	1.975740	0.146378
C57	C	0.105764	1.555611	0.578573
C58	C	0.605764	2.055611	1.078573
C59	C	0.105765	1.555594	0.421410
C60	C	0.605765	2.055594	0.921410
H61	H	0.395567	1.076055	0.000001
H62	H	0.895567	1.576055	0.500001
H63	H	0.257409	1.407318	0.411938
H64	H	0.757409	1.907318	0.911938
H65	H	-0.246538	1.587195	-0.206487
H66	H	0.253462	2.087195	0.293513
F67	F	0.278894	1.386349	0.570182
F68	F	0.778894	1.886349	1.070182
F69	F	0.417423	0.806829	-0.000021
F70	F	0.917423	1.306829	0.499979
F71	F	0.062302	0.926479	-0.000004
F72	F	0.562302	1.426479	0.499996
F73	F	0.065748	1.054357	0.000018
F74	F	0.565748	1.554357	0.500018
H75	H	-0.205641	1.258904	0.000112
H76	H	0.294359	1.758904	0.500112
H77	H	-0.378419	1.364190	-0.206495
H78	H	0.121581	1.864190	0.293505
F79	F	-0.237337	1.602840	0.235826
F80	F	0.262663	2.102840	0.735826
F81	F	-0.434370	1.723184	0.000153
F82	F	0.065630	2.223184	0.500153
F83	F	-0.388008	1.348460	0.235585
F84	F	0.111992	1.848460	0.735585
H85	H	0.035816	1.623970	0.363100
H86	H	0.535816	2.123970	0.863100
F87	F	0.014342	1.645015	0.654767
F88	F	0.514342	2.145015	1.154767
