data_functionalizedCrystal
_audit_creation_method	'MofGen! by Chris Wilmer'
_symmetry_space_group_name_H-M	'P1'
_symmetry_Int_Tables_number	1
_symmetry_cell_setting	triclinic
loop_
_symmetry_equiv_pos_as_xyz
  x,y,z
_cell_length_a	19.077105
_cell_length_b	29.839125
_cell_length_c	19.077068
_cell_angle_alpha	92.281020
_cell_angle_beta	90.115316
_cell_angle_gamma	87.691159
loop_
_atom_site_label
_atom_site_type_symbol
_atom_site_fract_x
_atom_site_fract_y
_atom_site_fract_z
Zn1	Zn	1.062930	-0.289515	-0.323086
Zn2	Zn	1.562930	0.210485	0.176914
Zn3	Zn	1.058132	-0.217274	-0.440568
Zn4	Zn	1.558132	0.282726	0.059432
Zn5	Zn	0.945438	-0.211267	-0.318352
Zn6	Zn	1.445438	0.288733	0.181648
Zn7	Zn	0.940665	-0.289245	-0.435827
Zn8	Zn	1.440665	0.210755	0.064173
O9	O	1.001791	-0.251825	-0.379458
O10	O	1.501791	0.248175	0.120542
O11	O	1.160624	-0.282559	-0.342635
O12	O	1.660624	0.217441	0.157365
O13	O	1.043172	-0.153610	-0.424359
O14	O	1.543172	0.346390	0.075641
O15	O	0.965030	-0.219246	-0.220649
O16	O	1.465030	0.280754	0.279351
O17	O	1.157099	-0.229484	-0.428949
O18	O	1.657099	0.270516	0.071051
O19	O	1.051350	-0.276734	-0.224127
O20	O	1.551350	0.223266	0.275873
O21	O	0.960377	-0.149196	-0.334567
O22	O	1.460377	0.350804	0.165433
O23	O	0.846474	-0.218984	-0.329970
O24	O	1.346474	0.281016	0.170030
O25	O	0.956894	-0.352148	-0.420869
O26	O	1.456894	0.147852	0.079131
O27	O	0.842967	-0.276274	-0.416279
O28	O	1.342967	0.223726	0.083721
O29	O	1.046721	-0.352347	-0.338038
O30	O	1.546721	0.147653	0.161962
O31	O	1.038544	-0.229222	-0.538270
O32	O	1.538544	0.270778	-0.038270
O33	O	0.952241	-0.282099	-0.534787
O34	O	1.452241	0.217901	-0.034787
C35	C	0.819225	-0.246948	-0.372097
C36	C	1.319225	0.253052	0.127903
C37	C	0.741121	-0.244873	-0.368964
C38	C	1.241121	0.255127	0.131036
C39	C	1.001810	-0.369004	-0.379453
C40	C	1.501810	0.130996	0.120547
C41	C	1.001819	-0.418939	-0.379450
C42	C	1.501819	0.081061	0.120550
C43	C	0.702618	-0.273682	-0.412496
C44	C	1.202618	0.226318	0.087504
C45	C	0.629232	-0.271734	-0.409544
C46	C	1.129232	0.228266	0.090456
C47	C	0.594350	-0.240974	-0.363062
C48	C	1.094350	0.259026	0.136938
C49	C	0.632859	-0.212163	-0.319525
C50	C	1.132859	0.287837	0.180475
C51	C	0.706244	-0.214114	-0.322474
C52	C	1.206244	0.285886	0.177526
C53	C	0.375067	-0.231948	-0.349411
C54	C	0.875067	0.268052	0.150589
C55	C	0.301677	-0.229999	-0.346467
C56	C	0.801677	0.270001	0.153533
C57	C	0.298055	-0.289571	-0.436485
C58	C	0.798055	0.210429	0.063515
C59	C	0.371441	-0.291517	-0.439434
C60	C	0.871441	0.208483	0.060566
C61	C	0.409943	-0.262708	-0.395894
C62	C	0.909943	0.237292	0.104106
N63	N	0.519338	-0.238981	-0.360044
N64	N	1.019338	0.261019	0.139956
N65	N	0.484955	-0.264703	-0.398908
N66	N	0.984955	0.235297	0.101092
C67	C	1.048644	-0.728687	-0.336205
C68	C	1.548644	-0.228687	0.163795
C69	C	1.048681	-0.916359	-0.336146
C70	C	1.548681	-0.416359	0.163854
O71	O	1.088439	-0.940713	-0.299442
O72	O	1.588439	-0.440713	0.200558
N73	N	1.001919	-0.939722	-0.379266
N74	N	1.501919	-0.439722	0.120734
C75	C	0.955142	-0.916163	-0.422400
C76	C	1.455142	-0.416163	0.077600
O77	O	0.915364	-0.940340	-0.459069
O78	O	1.415364	-0.440340	0.040931
C79	C	0.955102	-0.728491	-0.422454
C80	C	1.455102	-0.228491	0.077546
C81	C	1.001871	-0.705131	-0.379337
C82	C	1.501871	-0.205131	0.120663
C83	C	1.095409	-0.705327	-0.293090
C84	C	1.595409	-0.205327	0.206910
C85	C	1.095402	-0.658412	-0.293108
C86	C	1.595402	-0.158412	0.206892
C87	C	1.048629	-0.634856	-0.336240
C88	C	1.548629	-0.134856	0.163760
C89	C	1.001864	-0.658216	-0.379355
C90	C	1.501864	-0.158216	0.120645
C91	C	0.908321	-0.704933	-0.465584
C92	C	1.408321	-0.204933	0.034416
C93	C	0.908314	-0.658012	-0.465593
C94	C	1.408314	-0.158012	0.034407
C95	C	0.955084	-0.634652	-0.422475
C96	C	1.455084	-0.134652	0.077525
C97	C	0.955084	-0.587746	-0.422505
C98	C	1.455084	-0.087746	0.077495
N99	N	1.001846	-0.564383	-0.379385
N100	N	1.501846	-0.064383	0.120615
C101	C	1.048619	-0.587939	-0.336253
C102	C	1.548619	-0.087939	0.163747
C103	C	0.955167	-1.014694	-0.422370
C104	C	1.455167	-0.514694	0.077630
C105	C	0.955178	-1.061611	-0.422357
C106	C	1.455178	-0.561611	0.077643
C107	C	1.048716	-1.061804	-0.336102
C108	C	1.548716	-0.561804	0.163898
C109	C	1.048709	-1.014886	-0.336119
C110	C	1.548709	-0.514886	0.163881
C111	C	1.001929	-0.991331	-0.379250
C112	C	1.501929	-0.491331	0.120750
C113	C	1.048600	-0.489413	-0.336294
C114	C	1.548600	0.010587	0.163706
C115	C	1.048591	-0.442494	-0.336318
C116	C	1.548591	0.057506	0.163682
C117	C	0.955050	-0.442305	-0.422570
C118	C	1.455050	0.057695	0.077430
C119	C	0.955062	-0.489220	-0.422549
C120	C	1.455062	0.010780	0.077451
C121	C	1.001840	-0.512773	-0.379406
C122	C	1.501840	-0.012773	0.120594
O123	O	0.915342	-0.563362	-0.459185
O124	O	1.415342	-0.063362	0.040815
O125	O	1.088380	-0.563753	-0.299578
O126	O	1.588380	-0.063753	0.200422
C127	C	1.048651	-0.775602	-0.336187
C128	C	1.548651	-0.275602	0.163813
C129	C	1.001886	-0.798962	-0.379301
C130	C	1.501886	-0.298962	0.120699
C131	C	0.955113	-0.775406	-0.422434
C132	C	1.455113	-0.275406	0.077566
C133	C	1.001896	-0.845880	-0.379289
C134	C	1.501896	-0.345880	0.120711
C135	C	1.048669	-0.869435	-0.336156
C136	C	1.548669	-0.369435	0.163844
C137	C	1.095431	-0.846073	-0.293037
C138	C	1.595431	-0.346073	0.206963
C139	C	1.095423	-0.799157	-0.293055
C140	C	1.595423	-0.299157	0.206945
C141	C	0.908352	-0.798769	-0.465553
C142	C	1.408352	-0.298769	0.034447
C143	C	0.908363	-0.845684	-0.465533
C144	C	1.408363	-0.345684	0.034467
C145	C	0.955136	-0.869239	-0.422400
C146	C	1.455136	-0.369239	0.077600
C147	C	1.185071	-0.256722	-0.386849
C148	C	1.685071	0.243278	0.113151
C149	C	1.263173	-0.258808	-0.389999
C150	C	1.763173	0.241192	0.110001
C151	C	0.994373	-0.256294	-0.562025
C152	C	1.494373	0.243706	-0.062025
C153	C	0.991264	-0.258222	-0.640131
C154	C	1.491264	0.241778	-0.140131
C155	C	1.001814	-0.135102	-0.379415
C156	C	1.501814	0.364898	0.120585
C157	C	1.001950	-0.085167	-0.379225
C158	C	1.501950	0.414833	0.120775
C159	C	1.034771	-0.231622	-0.678617
C160	C	1.534771	0.268378	-0.178617
C161	C	1.031851	-0.233439	-0.752005
C162	C	1.531851	0.266561	-0.252005
C163	C	0.985419	-0.261853	-0.786907
C164	C	1.485419	0.238147	-0.286907
C165	C	0.941910	-0.288455	-0.748416
C166	C	1.441910	0.211545	-0.248416
C167	C	0.944834	-0.286641	-0.675029
C168	C	1.444834	0.213359	-0.175029
C169	C	0.971854	-0.270231	-1.006198
C170	C	1.471854	0.229769	-0.506198
C171	C	0.968932	-0.272042	-1.079591
C172	C	1.468932	0.227958	-0.579591
C173	C	1.058874	-0.217026	-1.083175
C174	C	1.558874	0.282974	-0.583175
C175	C	1.061791	-0.215212	-1.009787
C176	C	1.561791	0.284788	-0.509787
C177	C	1.018285	-0.241817	-0.971302
C178	C	1.518285	0.258183	-0.471302
N179	N	0.982431	-0.263709	-0.861921
N180	N	1.482431	0.236291	-0.361921
N181	N	1.021276	-0.239962	-0.896289
N182	N	1.521276	0.260038	-0.396289
C183	C	1.009257	-0.247350	-0.196179
C184	C	1.509257	0.252650	0.303821
C185	C	1.012439	-0.245443	-0.118076
C186	C	1.512439	0.254557	0.381924
H187	H	0.731013	-0.298729	-0.450349
H188	H	1.231013	0.201271	0.049651
Cl189	Cl	1.120174	-0.179497	-0.965917
Cl190	Cl	1.620174	0.320503	-0.465917
Cl191	Cl	0.849501	-0.628403	-0.519817
Cl192	Cl	1.349501	-0.128403	-0.019817
H193	H	1.067278	-0.211778	-0.783337
H194	H	1.567278	0.288222	-0.283337
Cl195	Cl	1.113568	-0.183586	-1.131560
Cl196	Cl	1.613568	0.316414	-0.631560
H197	H	0.266698	-0.313026	-0.471932
H198	H	0.766698	0.186974	0.028068
H199	H	0.273279	-0.204953	-0.308607
H200	H	0.773279	0.295047	0.191393
H201	H	1.086679	-0.423477	-0.301206
H202	H	1.586679	0.076523	0.198794
H203	H	0.931130	-0.295188	-1.108005
H204	H	1.431130	0.204812	-0.608005
Cl205	Cl	0.890140	-0.320083	-0.626646
Cl206	Cl	1.390140	0.179917	-0.126646
H207	H	0.870264	-0.779595	-0.500679
H208	H	1.370264	-0.279595	-0.000679
Cl209	Cl	0.917159	-0.303675	-0.957827
Cl210	Cl	1.417159	0.196325	-0.457827
H211	H	1.086689	-0.508584	-0.301160
H212	H	1.586689	-0.008584	0.198840
Cl213	Cl	0.883543	-0.324178	-0.792292
Cl214	Cl	1.383543	0.175822	-0.292292
H215	H	0.597885	-0.295193	-0.444993
H216	H	1.097885	0.204807	0.055007
H217	H	0.399836	-0.316564	-0.477286
H218	H	0.899836	0.183436	0.022714
Cl219	Cl	0.589008	-0.173496	-0.261085
Cl220	Cl	1.089008	0.326504	0.238915
Cl221	Cl	0.423461	-0.195732	-0.294673
Cl222	Cl	0.923461	0.304268	0.205327
H223	H	1.072577	-0.208483	-0.650205
H224	H	1.572577	0.291517	-0.150205
H225	H	0.737593	-0.190656	-0.287022
H226	H	1.237593	0.309344	0.212978
H227	H	1.086801	-1.080991	-0.300982
H228	H	1.586801	-0.580991	0.199018
H229	H	1.133485	-0.639396	-0.257996
H230	H	1.633485	-0.139396	0.242004
Cl231	Cl	1.154226	-0.734931	-0.238868
Cl232	Cl	1.654226	-0.234931	0.261132
H233	H	1.086791	-0.995869	-0.301007
H234	H	1.586791	-0.495869	0.198993
Cl235	Cl	0.896390	-1.090973	-0.476575
Cl236	Cl	1.396390	-0.590973	0.023425
H237	H	0.917074	-0.995520	-0.457497
H238	H	1.417074	-0.495520	0.042503
H239	H	0.870236	-0.723944	-0.500695
H240	H	1.370236	-0.223944	-0.000695
H241	H	0.916985	-0.508241	-0.457666
H242	H	1.416985	-0.008241	0.042334
H243	H	0.916971	-0.423118	-0.457690
H244	H	1.416971	0.076882	0.042310
Cl245	Cl	1.154222	-0.769798	-0.238845
Cl246	Cl	1.654222	-0.269798	0.261155
Cl247	Cl	1.154232	-0.875694	-0.238816
Cl248	Cl	1.654232	-0.375694	0.261184
Cl249	Cl	0.849565	-0.875045	-0.519748
Cl250	Cl	1.349565	-0.375045	-0.019748
