data_functionalizedCrystal
_audit_creation_method	'MofGen! by Chris Wilmer'
_symmetry_space_group_name_H-M	'P1'
_symmetry_Int_Tables_number	1
_symmetry_cell_setting	triclinic
loop_
_symmetry_equiv_pos_as_xyz
  x,y,z
_cell_length_a	14.853568
_cell_length_b	13.448316
_cell_length_c	14.971486
_cell_angle_alpha	90.003864
_cell_angle_beta	96.375215
_cell_angle_gamma	89.998206
loop_
_atom_site_label
_atom_site_type_symbol
_atom_site_fract_x
_atom_site_fract_y
_atom_site_fract_z
O1	O	-1.196343	0.082617	0.116783
O2	O	-0.933882	0.082635	0.130693
O3	O	-1.072147	0.082618	-0.006460
O4	O	-1.058078	0.082634	0.253937
O5	O	-1.072133	-0.082765	-0.006462
O6	O	-0.933868	-0.082749	0.130692
O7	O	-1.196330	-0.082767	0.116782
Cu8	Cu	-1.065097	-0.097859	0.123737
Cu9	Cu	-1.065114	0.097727	0.123738
O10	O	-1.058064	-0.082750	0.253936
C11	C	-0.900286	-0.000054	0.130062
C12	C	-0.800203	-0.000047	0.128173
N13	N	-1.065093	-0.235423	0.123735
C14	C	-0.377027	0.090089	0.120182
C15	C	-0.377034	-0.090219	0.120182
C16	C	-0.471067	-0.090216	0.121956
C17	C	-0.518085	-0.000060	0.122845
C18	C	-0.471069	0.090094	0.121959
C19	C	-0.518089	-0.180369	0.122850
C20	C	-0.612128	-0.180370	0.124626
C21	C	-0.659149	-0.090213	0.125508
C22	C	-0.612127	-0.000055	0.124622
C23	C	-0.659145	0.090102	0.125511
C24	C	-0.612126	0.180260	0.124618
C25	C	-0.518090	0.180252	0.122842
C26	C	-0.753185	-0.090204	0.127284
C27	C	-0.753187	0.090107	0.127288
C28	C	-1.119825	-0.287460	0.178087
C29	C	-1.119836	-0.391563	0.178083
C30	C	-1.065110	-0.443628	0.123732
C31	C	-1.010375	-0.391584	0.069374
C32	C	-1.010369	-0.287482	0.069374
C33	C	-1.010389	-0.608564	0.069380
C34	C	-1.010394	-0.712672	0.069382
C35	C	-1.119856	-0.712644	0.178089
C36	C	-1.119850	-0.608543	0.178089
C37	C	-1.065114	-0.556506	0.123732
C38	C	-0.229925	-0.000073	0.117411
C39	C	-0.330010	-0.000067	0.119294
C40	C	-1.071511	-0.000073	-0.039786
C41	C	-1.069626	-0.000072	-0.139083
N42	N	-1.065126	0.235291	0.123733
C43	C	-1.150853	-0.000079	-0.196294
C44	C	-1.149076	-0.000069	-0.289593
C45	C	-1.066070	-0.000059	-0.325681
C46	C	-0.984837	-0.000050	-0.268463
C47	C	-0.986615	-0.000053	-0.175166
C48	C	-0.981137	-0.000046	-0.462927
C49	C	-0.979358	-0.000045	-0.556231
C50	C	-1.143598	-0.000062	-0.577354
C51	C	-1.145376	-0.000065	-0.484057
C52	C	-1.064142	-0.000057	-0.426845
C53	C	-1.058700	-0.000057	0.287261
C54	C	-1.060586	-0.000051	0.386559
H55	H	-0.791463	0.163524	0.128009
H56	H	-0.911768	-0.000053	-0.585610
C57	C	-1.241067	-0.000035	-0.157290
C58	C	-1.311821	-0.000009	-0.227367
C59	C	-1.394941	0.000050	-0.191475
H60	H	-1.245303	-0.057692	-0.121351
H61	H	-1.245226	0.057661	-0.121356
H62	H	-1.307665	-0.057699	-0.263286
H63	H	-1.307615	0.057644	-0.263312
H64	H	-1.399099	0.057746	-0.155541
H65	H	-1.399168	-0.057608	-0.155536
H66	H	-1.442957	0.000077	-0.239016
H67	H	-0.965820	-0.433983	0.025116
C68	C	-1.237241	0.000130	-0.351747
C69	C	-1.241043	0.085236	-0.405898
C70	C	-1.322257	0.085463	-0.463154
H71	H	-1.240047	-0.057471	-0.388675
H72	H	-1.286953	0.000174	-0.316919
H73	H	-1.191345	0.085183	-0.440722
H74	H	-1.238253	0.142850	-0.368994
H75	H	-1.371969	0.085507	-0.428327
H76	H	-1.325056	0.027859	-0.500076
H77	H	-1.324852	0.143210	-0.499897
H78	H	-0.479799	0.253654	0.122114
C79	C	-0.663348	0.278039	0.125543
C80	C	-0.755765	0.258737	0.127274
C81	C	-0.802982	0.348783	0.128115
H82	H	-0.641227	0.315162	0.177356
H83	H	-0.654819	0.315086	0.073111
H84	H	-0.764288	0.221706	0.179700
H85	H	-0.777911	0.221629	0.075465
H86	H	-0.794454	0.385830	0.075683
H87	H	-0.780855	0.385899	0.179929
H88	H	-0.865693	0.335699	0.129281
H89	H	-0.650403	-0.253783	0.125351
H90	H	-0.791462	-0.163610	0.128020
H91	H	-0.917252	-0.000036	-0.297853
H92	H	-1.209741	-0.000065	-0.623941
H93	H	-0.914987	-0.000037	-0.416347
H94	H	-0.920471	-0.000047	-0.128585
H95	H	-1.212966	-0.000080	-0.454677
C96	C	-0.326079	0.188045	0.119361
C97	C	-0.338909	0.242448	0.196677
C98	C	-0.291998	0.332695	0.195947
H99	H	-0.263320	0.175273	0.118220
H100	H	-0.348326	0.225141	0.067563
H101	H	-0.316657	0.205360	0.248461
H102	H	-0.401658	0.255246	0.197834
H103	H	-0.314245	0.369791	0.144149
H104	H	-0.229242	0.319914	0.194804
H105	H	-0.300703	0.369623	0.248400
C106	C	-0.325963	-0.188067	0.119035
C107	C	-0.282050	-0.193350	0.041116
C108	C	-0.235000	-0.283482	0.040024
H109	H	-0.282397	-0.191907	0.170401
H110	H	-0.367410	-0.241789	0.119768
H111	H	-0.240607	-0.139643	0.040392
H112	H	-0.325594	-0.189528	-0.010262
H113	H	-0.276447	-0.337204	0.040756
H114	H	-0.191439	-0.287314	0.091393
H115	H	-0.205206	-0.287083	-0.012847
C116	C	-0.950863	-0.552244	0.010338
C117	C	-0.902915	-0.620118	-0.037240
C118	C	-0.848060	-0.568273	-0.091623
H119	H	-0.987661	-0.511628	-0.030835
H120	H	-0.909362	-0.511658	0.046903
H121	H	-0.944410	-0.660687	-0.073802
H122	H	-0.866099	-0.660736	0.003910
H123	H	-0.806559	-0.527687	-0.055059
H124	H	-0.884865	-0.527659	-0.132791
H125	H	-0.815515	-0.614318	-0.123905
H126	H	-1.164384	-0.245076	0.222351
C127	C	-0.467199	-0.278351	0.121933
C128	C	-0.528496	-0.357304	0.123119
C129	C	-0.481644	-0.447583	0.122283
H130	H	-0.437333	-0.282243	0.069132
H131	H	-0.423709	-0.282149	0.173377
H132	H	-0.571970	-0.353509	0.071680
H133	H	-0.558365	-0.353445	0.175915
H134	H	-0.438154	-0.451381	0.173727
H135	H	-0.451780	-0.451465	0.069482
H136	H	-0.523226	-0.501164	0.123097
C137	C	-1.179284	-0.447880	0.237196
C138	C	-1.227185	-0.380003	0.284817
C139	C	-1.281950	-0.431846	0.339292
H140	H	-1.220817	-0.488492	0.200718
H141	H	-1.142399	-0.488470	0.278338
H142	H	-1.264067	-0.339431	0.243680
H143	H	-1.185675	-0.339389	0.321312
H144	H	-1.245065	-0.472435	0.380435
H145	H	-1.323478	-0.472456	0.302808
H146	H	-1.314451	-0.385799	0.371616
H147	H	-1.164420	-0.755018	0.222352
C148	C	-0.950846	-0.231161	0.010337
C149	C	-0.902900	-0.299035	-0.037244
C150	C	-0.848051	-0.247190	-0.091634
H151	H	-0.987649	-0.190548	-0.030836
H152	H	-0.909344	-0.190572	0.046897
H153	H	-0.944397	-0.339607	-0.073802
H154	H	-0.866080	-0.339650	0.003905
H155	H	-0.806550	-0.206601	-0.055073
H156	H	-0.884861	-0.206579	-0.132800
H157	H	-0.815508	-0.293234	-0.123917
H158	H	-0.965829	-0.755060	0.025125
H159	H	-1.164409	-0.566155	0.222350
