data_functionalizedCrystal
_audit_creation_method	'MofGen! by Chris Wilmer'
_symmetry_space_group_name_H-M	'P1'
_symmetry_Int_Tables_number	1
_symmetry_cell_setting	triclinic
loop_
_symmetry_equiv_pos_as_xyz
  x,y,z
_cell_length_a	19.288840
_cell_length_b	19.288865
_cell_length_c	17.766277
_cell_angle_alpha	89.988481
_cell_angle_beta	89.983087
_cell_angle_gamma	83.131131
loop_
_atom_site_label
_atom_site_type_symbol
_atom_site_fract_x
_atom_site_fract_y
_atom_site_fract_z
O1	O	0.921364	0.086566	-0.062729
O2	O	0.719101	0.098273	-0.062704
O3	O	0.826077	-0.008712	-0.062702
O4	O	0.814389	0.193550	-0.062730
O5	O	0.826058	-0.008717	0.062487
O6	O	0.719082	0.098268	0.062485
O7	O	0.921345	0.086561	0.062460
Cu8	Cu	0.820212	0.092414	0.073903
Cu9	Cu	0.820235	0.092420	-0.074147
O10	O	0.814369	0.193545	0.062458
C11	C	0.693215	0.097896	-0.000106
C12	C	0.616110	0.096774	-0.000096
C13	C	0.579917	0.096238	-0.068338
C14	C	0.507471	0.095176	-0.068347
C15	C	0.471221	0.094636	-0.000110
C16	C	0.507422	0.095176	0.068141
C17	C	0.579867	0.096246	0.068148
C18	C	0.361885	0.052256	0.052164
C19	C	0.289443	0.051183	0.052155
C20	C	0.247778	0.091342	-0.000129
C21	C	0.278565	0.132566	-0.052416
C22	C	0.351010	0.133635	-0.052408
C23	C	0.392667	0.093477	-0.000110
C24	C	0.133029	0.089655	-0.068386
C25	C	0.060581	0.088598	-0.068392
C26	C	0.060535	0.088591	0.068098
C27	C	0.132981	0.089656	0.068102
C28	C	0.169225	0.090185	-0.000142
C29	C	0.825692	-0.034591	-0.000105
C30	C	0.824563	-0.111694	-0.000099
C31	C	0.947232	0.086937	-0.000139
C32	C	1.024336	0.088059	-0.000154
C33	C	0.887331	-0.156396	-0.000103
C34	C	0.886270	-0.228843	-0.000114
C35	C	0.822438	-0.256585	-0.000107
C36	C	0.759661	-0.211873	-0.000107
C37	C	0.760723	-0.139428	-0.000103
C38	C	0.772251	-0.364869	0.043750
C39	C	0.771191	-0.437314	0.043750
C40	C	0.819158	-0.480030	-0.000123
C41	C	0.868197	-0.450295	-0.043988
C42	C	0.869259	-0.377849	-0.043984
C43	C	0.821278	-0.335139	-0.000112
C44	C	0.880781	-0.603288	-0.000141
C45	C	0.879717	-0.675736	-0.000158
C46	C	0.753106	-0.658764	-0.000143
C47	C	0.754171	-0.586318	-0.000134
C48	C	0.818010	-0.558584	-0.000130
C49	C	0.814755	0.219424	-0.000140
C50	C	0.815884	0.296527	-0.000152
N51	N	0.820201	0.092409	0.178034
C52	C	0.867585	0.045059	0.217421
C53	C	0.867588	0.045056	0.296223
C54	C	0.820214	0.092415	0.335634
C55	C	0.772822	0.139768	0.296237
C56	C	0.772815	0.139765	0.217437
C57	C	0.810915	0.155703	0.460464
C58	C	0.810927	0.155707	0.539263
C59	C	0.820232	0.092424	0.578680
C60	C	0.829540	0.029133	0.539290
C61	C	0.829533	0.029130	0.460489
C62	C	0.820216	0.092423	0.421080
C63	C	0.867622	0.045067	0.703514
C64	C	0.867621	0.045063	0.782317
C65	C	0.772857	0.139780	0.782330
C66	C	0.772855	0.139778	0.703528
C67	C	0.820241	0.092422	0.664125
N68	N	0.820246	0.092421	0.821723
H69	H	0.477903	0.094739	0.123700
O70	O	0.690814	-0.241795	-0.000093
H71	H	0.660672	-0.223820	-0.051117
H72	H	0.031113	0.088165	-0.123965
O73	O	0.686467	-0.538101	-0.000121
H74	H	0.697929	-0.483066	-0.000125
H75	H	0.937386	-0.265246	-0.000121
H76	H	0.803352	0.207242	0.571329
H77	H	0.477996	0.094740	-0.123920
H78	H	0.837110	-0.022403	0.428420
O79	O	0.693017	-0.091211	-0.000094
H80	H	0.704480	-0.036176	-0.000094
O81	O	0.721701	0.190840	0.174957
H82	H	0.688032	0.161685	0.139084
O83	O	0.721737	0.190858	0.338744
H84	H	0.688786	0.223785	0.298113
O85	O	0.922141	-0.345780	-0.091303
H86	H	0.955368	-0.317173	-0.054319
H87	H	0.907256	-0.485073	-0.079715
O88	O	0.956186	-0.126487	-0.000104
H89	H	0.946383	-0.068601	-0.000094
H90	H	0.837116	-0.022399	0.571382
H91	H	0.803325	0.207240	0.428377
O92	O	0.721782	0.190881	0.824831
H93	H	0.688838	0.223813	0.784199
O94	O	0.021387	0.088111	0.141670
H95	H	-0.005320	0.040325	0.144987
H96	H	0.731258	-0.461518	0.079463
O97	O	0.949631	-0.573366	-0.000152
H98	H	0.993102	-0.616625	-0.000171
O99	O	0.947421	-0.723956	-0.000156
H100	H	0.991987	-0.692497	-0.000143
O101	O	0.720515	-0.318798	0.091078
H102	H	0.686247	-0.351645	0.121588
H103	H	0.162450	0.090088	0.123672
O104	O	0.256236	0.006727	0.108549
H105	H	0.297376	-0.021006	0.144917
O106	O	0.618902	0.096828	0.141760
H107	H	0.658258	0.049986	0.145040
H108	H	0.906205	0.006505	0.671431
H109	H	0.906205	0.006502	0.814387
O110	O	0.918682	-0.006024	0.174920
H111	H	0.951627	-0.038955	0.215553
O112	O	0.684254	-0.688673	-0.000132
H113	H	0.694059	-0.746560	-0.000130
O114	O	0.918704	-0.006008	0.338721
H115	H	0.951656	-0.038933	0.298082
H116	H	0.376074	0.167202	-0.094980
H117	H	0.395804	0.019552	0.094744
O118	O	0.721756	0.190856	0.661037
H119	H	0.688818	0.223792	0.701678
H120	H	0.609422	0.096669	-0.123907
H121	H	0.162539	0.090093	-0.123954
O122	O	0.233638	0.175890	-0.108810
H123	H	0.178090	0.168232	-0.100026
