data_functionalizedCrystal
_audit_creation_method	'MofGen! by Chris Wilmer'
_symmetry_space_group_name_H-M	'P1'
_symmetry_Int_Tables_number	1
_symmetry_cell_setting	triclinic
loop_
_symmetry_equiv_pos_as_xyz
  x,y,z
_cell_length_a	12.759401
_cell_length_b	25.639239
_cell_length_c	12.759393
_cell_angle_alpha	89.962897
_cell_angle_beta	89.980163
_cell_angle_gamma	90.040211
loop_
_atom_site_label
_atom_site_type_symbol
_atom_site_fract_x
_atom_site_fract_y
_atom_site_fract_z
Zn1	Zn	1.606080	-0.208098	-0.593980
Zn2	Zn	1.605901	-0.295545	-0.418283
Zn3	Zn	1.430382	-0.208128	-0.418315
Zn4	Zn	1.430297	-0.295507	-0.593921
O5	O	1.518165	-0.251820	-0.506125
O6	O	1.753077	-0.219702	-0.570685
O7	O	1.582578	-0.283978	-0.271266
O8	O	1.453799	-0.134959	-0.441656
O9	O	1.752946	-0.283949	-0.441601
O10	O	1.582884	-0.134937	-0.570716
O11	O	1.453626	-0.219752	-0.271290
O12	O	1.283350	-0.219715	-0.441598
O13	O	1.453654	-0.283884	-0.740950
O14	O	1.283287	-0.283912	-0.570615
O15	O	1.582801	-0.219665	-0.740993
O16	O	1.582496	-0.368705	-0.441544
O17	O	1.453481	-0.368677	-0.570584
C18	C	1.245198	-0.251813	-0.506104
C19	C	1.128421	-0.251823	-0.506120
C20	C	1.073554	-0.285301	-0.573193
C21	C	0.963830	-0.285303	-0.573214
C22	C	0.963849	-0.218347	-0.439079
C23	C	1.073572	-0.218343	-0.439065
C24	C	1.517988	-0.387662	-0.506077
C25	C	1.518009	-0.445776	-0.506091
C26	C	1.585519	-0.806141	-0.439048
C27	C	1.585559	-0.860746	-0.439062
O28	O	1.642775	-0.888984	-0.382007
N29	N	1.518350	-0.888059	-0.506194
C30	C	1.451102	-0.860765	-0.573324
O31	O	1.393940	-0.889010	-0.630428
C32	C	1.451068	-0.806161	-0.573315
C33	C	1.518274	-0.778851	-0.506171
C34	C	1.652720	-0.778831	-0.371910
C35	C	1.652678	-0.724231	-0.371895
C36	C	1.585434	-0.696940	-0.439018
C37	C	1.518232	-0.724251	-0.506156
C38	C	1.383827	-0.778868	-0.640449
C39	C	1.383798	-0.724261	-0.640435
C40	C	1.451005	-0.696951	-0.573291
C41	C	1.450945	-0.642360	-0.573263
N42	N	1.518155	-0.615047	-0.506131
C43	C	1.585399	-0.642337	-0.439008
C44	C	1.451181	-0.975435	-0.573341
C45	C	1.451210	-1.030037	-0.573346
C46	C	1.585669	-1.030015	-0.439085
C47	C	1.585634	-0.975411	-0.439075
C48	C	1.518391	-0.948122	-0.506208
C49	C	1.585304	-0.527672	-0.438981
C50	C	1.585253	-0.473067	-0.438969
C51	C	1.450799	-0.473094	-0.573233
C52	C	1.450846	-0.527695	-0.573242
C53	C	1.518107	-0.554982	-0.506112
O54	O	1.393761	-0.614087	-0.630292
O55	O	1.642562	-0.614084	-0.381925
C56	C	1.792198	-0.251826	-0.506146
C57	C	1.908975	-0.251829	-0.506156
C58	C	1.518238	-0.251767	-0.780158
C59	C	1.518270	-0.251744	-0.896935
C60	C	1.518371	-0.115447	-0.506196
C61	C	1.518459	-0.057333	-0.506226
C62	C	1.451148	-0.218296	-0.951809
C63	C	1.451172	-0.218280	-1.061533
C64	C	1.585449	-0.285162	-1.061500
C65	C	1.585419	-0.285180	-0.951778
C66	C	1.518152	-0.251835	-0.233157
C67	C	1.518325	-0.251710	-0.116381
H68	H	1.639980	-0.450832	-0.384288
O69	O	1.650716	-0.317685	-1.114614
C70	C	1.709971	-0.347202	-1.042648
H71	H	1.666911	-0.349026	-0.964432
H72	H	1.789789	-0.328059	-1.030993
C73	C	1.777933	-0.400600	-1.181506
C74	C	1.725041	-0.402844	-1.085442
H75	H	1.787233	-0.434923	-1.207903
H76	H	1.738015	-0.380713	-1.229992
H77	H	1.844441	-0.384645	-1.171780
H78	H	1.658529	-0.418793	-1.095171
H79	H	1.764949	-0.422736	-1.036958
H80	H	0.919178	-0.191090	-0.384484
O81	O	1.318626	-0.697729	-0.705760
C82	C	1.378382	-0.666076	-0.773643
H83	H	1.461139	-0.682484	-0.780206
H84	H	1.381984	-0.624703	-0.741154
C85	C	1.225357	-0.645072	-0.874760
C86	C	1.326998	-0.665227	-0.882827
H87	H	1.193660	-0.644546	-0.942108
H88	H	1.185097	-0.666395	-0.829024
H89	H	1.228373	-0.610597	-0.847681
H90	H	1.323980	-0.699704	-0.909892
H91	H	1.367257	-0.643909	-0.928570
O92	O	1.650475	-0.317729	-0.898420
C93	C	1.590585	-0.351497	-0.834909
H94	H	1.507844	-0.354717	-0.867972
H95	H	1.586964	-0.335344	-0.751764
C96	C	1.743449	-0.401897	-0.792579
C97	C	1.641827	-0.405856	-0.833192
H98	H	1.775058	-0.435428	-0.791515
H99	H	1.783799	-0.379146	-0.835364
H100	H	1.740417	-0.388434	-0.723294
H101	H	1.644861	-0.419312	-0.902479
H102	H	1.601478	-0.428610	-0.790419
H103	H	1.707485	-0.801045	-0.317251
H104	H	1.396124	-0.549932	-0.627919
H105	H	1.396514	-0.191044	-1.106206
H106	H	1.118245	-0.191078	-0.384446
O107	O	1.126673	-0.317835	-0.638434
C108	C	1.054712	-0.347392	-0.697622
H109	H	0.976527	-0.325981	-0.701345
H110	H	1.042974	-0.387080	-0.659008
C111	C	1.193603	-0.381287	-0.804835
C112	C	1.097577	-0.354987	-0.809415
H113	H	1.220045	-0.385974	-0.873793
H114	H	1.242086	-0.361375	-0.764957
H115	H	1.183808	-0.414357	-0.772652
H116	H	1.107375	-0.321915	-0.841585
H117	H	1.049097	-0.374893	-0.849301
O118	O	1.385794	-0.948871	-0.638402
C119	C	1.317927	-0.917354	-0.578522
H120	H	1.355021	-0.909178	-0.498938
H121	H	1.240095	-0.938447	-0.566905
C122	C	1.253262	-0.875522	-0.734058
C123	C	1.298826	-0.865476	-0.636314
H124	H	1.241474	-0.843521	-0.769707
H125	H	1.298982	-0.896756	-0.774401
H126	H	1.188406	-0.893100	-0.724363
H127	H	1.363685	-0.847904	-0.646011
H128	H	1.253115	-0.844237	-0.595973
O129	O	1.650671	-0.554093	-0.373669
C130	C	1.709985	-0.518271	-0.314434
H131	H	1.666917	-0.479374	-0.310762
H132	H	1.789754	-0.512404	-0.352973
C133	C	1.778099	-0.587381	-0.207138
C134	C	1.725197	-0.539608	-0.202621
H135	H	1.787487	-0.600544	-0.138167
H136	H	1.738141	-0.611516	-0.247048
H137	H	1.844567	-0.582486	-0.239258
H138	H	1.658725	-0.544505	-0.170513
H139	H	1.765144	-0.515475	-0.162702
O140	O	1.385814	-0.185806	-0.898696
C141	C	1.326593	-0.156273	-0.970663
H142	H	1.322950	-0.177675	-1.048864
H143	H	1.365126	-0.116562	-0.982359
C144	C	1.219248	-0.122457	-0.831795
C145	C	1.214766	-0.148746	-0.927840
H146	H	1.150269	-0.117812	-0.805379
H147	H	1.259149	-0.142353	-0.783308
H148	H	1.251364	-0.089368	-0.841555
H149	H	1.182663	-0.181838	-0.918077
H150	H	1.174857	-0.128856	-0.976324
H151	H	0.919162	-0.312564	-0.627833
H152	H	1.707406	-0.701998	-0.317224
H153	H	1.640360	-0.953179	-0.384401
H154	H	1.640426	-1.052244	-0.384433
H155	H	1.396474	-1.052269	-0.628011
H156	H	1.329095	-0.801095	-0.695120
H157	H	1.396046	-0.450866	-0.627881
