data_functionalizedCrystal
_audit_creation_method	'MofGen! by Chris Wilmer'
_symmetry_space_group_name_H-M	'P1'
_symmetry_Int_Tables_number	1
_symmetry_cell_setting	triclinic
loop_
_symmetry_equiv_pos_as_xyz
  x,y,z
_cell_length_a	10.686220
_cell_length_b	13.033855
_cell_length_c	13.034059
_cell_angle_alpha	88.988717
_cell_angle_beta	86.540308
_cell_angle_gamma	87.740064
loop_
_atom_site_label
_atom_site_type_symbol
_atom_site_fract_x
_atom_site_fract_y
_atom_site_fract_z
Zn1	Zn	2.045803	-0.338331	-0.418095
Zn2	Zn	2.038873	-0.489262	-0.224660
Zn3	Zn	1.809395	-0.333447	-0.259002
Zn4	Zn	1.861327	-0.523280	-0.406285
O5	O	1.938849	-0.421080	-0.327010
O6	O	2.218125	-0.346160	-0.383006
O7	O	1.983798	-0.452312	-0.086624
O8	O	1.821921	-0.191484	-0.299420
O9	O	2.213033	-0.457048	-0.240890
O10	O	1.995609	-0.195072	-0.416306
O11	O	1.815202	-0.337835	-0.111854
O12	O	1.643042	-0.370821	-0.287968
O13	O	1.910432	-0.515027	-0.550443
O14	O	1.681197	-0.510291	-0.396177
O15	O	2.045965	-0.379146	-0.559120
O16	O	2.034154	-0.636385	-0.229438
O17	O	1.903712	-0.661378	-0.362877
C18	C	1.617200	-0.443718	-0.344518
C19	C	1.479605	-0.453430	-0.352029
C20	C	1.973854	-0.685859	-0.291170
C21	C	1.988948	-0.799129	-0.275865
C22	C	1.931072	-0.862026	-0.335013
C23	C	1.946671	-0.979097	-0.319197
C24	C	2.261754	-0.398354	-0.309435
C25	C	2.399357	-0.388670	-0.301945
C26	C	1.984764	-0.451426	-0.592788
C27	C	2.004331	-0.464357	-0.706047
C28	C	1.903745	-0.155267	-0.363011
C29	C	1.888786	-0.041993	-0.378353
C30	C	1.893174	-0.390774	-0.062273
C31	C	1.873810	-0.377538	0.050959
C32	C	1.949071	-0.427783	0.113941
C33	C	1.929059	-0.414105	0.230973
H34	H	1.869967	-0.829207	-0.397358
H35	H	1.794557	-0.324399	0.083681
H36	H	2.028316	-0.480931	0.081220
Br37	Br	2.136424	-0.552948	0.239437
H38	H	2.050043	-0.831951	-0.213515
Br39	Br	1.796950	-0.325532	0.285494
Br40	Br	1.460289	-0.283875	-0.220893
Br41	Br	2.048503	-1.033785	-0.215262
H42	H	1.443038	-0.516313	-0.400650
Br43	Br	1.786922	-0.987307	-0.482267
