data_functionalizedCrystal
_audit_creation_method	'MofGen! by Chris Wilmer'
_symmetry_space_group_name_H-M	'P1'
_symmetry_Int_Tables_number	1
_symmetry_cell_setting	triclinic
loop_
_symmetry_equiv_pos_as_xyz
  x,y,z
_cell_length_a	27.732064
_cell_length_b	27.731996
_cell_length_c	26.809956
_cell_angle_alpha	89.998344
_cell_angle_beta	89.998878
_cell_angle_gamma	82.635407
loop_
_atom_site_label
_atom_site_type_symbol
_atom_site_fract_x
_atom_site_fract_y
_atom_site_fract_z
O1	O	0.640915	0.057550	-0.041397
O2	O	1.140915	0.557550	0.458603
O3	O	0.500121	0.066287	-0.041418
O4	O	1.000121	0.566287	0.458582
O5	O	0.574904	-0.008480	-0.041396
O6	O	1.074904	0.491520	0.458604
O7	O	0.566132	0.132317	-0.041419
O8	O	1.066132	0.632317	0.458581
O9	O	0.574890	-0.008468	0.041563
O10	O	1.074890	0.491532	0.541563
O11	O	0.500107	0.066299	0.041541
O12	O	1.000107	0.566299	0.541541
O13	O	0.640901	0.057561	0.041562
O14	O	1.140901	0.557561	0.541562
Zn15	Zn	0.570502	0.061932	0.054723
Zn16	Zn	1.070502	0.561932	0.554723
Zn17	Zn	0.570520	0.061917	-0.054579
Zn18	Zn	1.070520	0.561917	0.445421
O19	O	0.566118	0.132328	0.041540
O20	O	1.066118	0.632328	0.541540
C21	C	0.482107	0.066108	0.000059
C22	C	0.982107	0.566108	0.500059
C23	C	0.428453	0.065552	0.000051
C24	C	0.928453	0.565552	0.500051
C25	C	0.574717	-0.026481	0.000085
C26	C	1.074717	0.473519	0.500085
C27	C	0.574174	-0.080138	0.000090
C28	C	1.074174	0.419862	0.500090
C29	C	0.051389	0.017584	0.000087
C30	C	0.551389	0.517584	0.500087
C31	C	0.253049	0.019630	0.000074
C32	C	0.753049	0.519630	0.500074
O33	O	0.284309	-0.017592	0.000099
O34	O	0.784309	0.482408	0.500099
N35	N	0.272168	0.063966	0.000064
N36	N	0.772168	0.563966	0.500064
C37	C	0.240869	0.107793	0.000062
C38	C	0.740869	0.607793	0.500062
O39	O	0.261758	0.145549	0.000058
O40	O	0.761758	0.645549	0.500058
C41	C	0.039210	0.105746	0.000078
C42	C	0.539210	0.605746	0.500078
C43	C	0.020094	0.061407	0.000083
C44	C	0.520094	0.561407	0.500083
C45	C	0.032272	-0.026751	0.000092
C46	C	0.532272	0.473249	0.500092
C47	C	-0.018140	-0.027262	0.000093
C48	C	0.481860	0.472738	0.500093
C49	C	-0.049435	0.016562	0.000088
C50	C	0.450565	0.516562	0.500088
C51	C	-0.030318	0.060896	0.000083
C52	C	0.469682	0.560896	0.500083
C53	C	0.007912	0.149572	0.000079
C54	C	0.507912	0.649572	0.500079
C55	C	-0.042506	0.149057	0.000085
C56	C	0.457494	0.649057	0.500085
C57	C	-0.061622	0.104718	0.000089
C58	C	0.438378	0.604718	0.500089
C59	C	-0.112026	0.104209	0.000080
C60	C	0.387974	0.604209	0.500080
N61	N	-0.131145	0.059873	0.000089
N62	N	0.368855	0.559873	0.500089
C63	C	-0.099849	0.016050	0.000093
C64	C	0.400151	0.516050	0.500093
C65	C	0.346743	0.108864	0.000052
C66	C	0.846743	0.608864	0.500052
C67	C	0.397158	0.109376	0.000047
C68	C	0.897158	0.609376	0.500047
C69	C	0.409334	0.021213	0.000060
C70	C	0.909334	0.521213	0.500060
C71	C	0.358919	0.020702	0.000061
C72	C	0.858919	0.520702	0.500061
C73	C	0.327624	0.064529	0.000061
C74	C	0.827624	0.564529	0.500061
C75	C	-0.205719	0.014980	0.000094
C76	C	0.294281	0.514980	0.500094
C77	C	-0.256136	0.014473	0.000093
C78	C	0.243864	0.514473	0.500093
C79	C	-0.268308	0.102635	0.000082
C80	C	0.231692	0.602635	0.500082
C81	C	-0.217895	0.103142	0.000081
C82	C	0.282105	0.603142	0.500081
C83	C	-0.186601	0.059311	0.000089
C84	C	0.313399	0.559311	0.500089
O85	O	-0.143313	0.141411	0.000061
O86	O	0.356687	0.641411	0.500061
O87	O	-0.120748	-0.021702	0.000108
O88	O	0.379252	0.478298	0.500108
C89	C	0.101801	0.018095	0.000087
C90	C	0.601801	0.518095	0.500087
C91	C	0.120918	0.062430	0.000082
C92	C	0.620918	0.562430	0.500082
C93	C	0.089623	0.106253	0.000077
C94	C	0.589623	0.606253	0.500077
C95	C	0.171332	0.062941	0.000077
C96	C	0.671332	0.562941	0.500077
C97	C	0.202628	0.019118	0.000081
C98	C	0.702628	0.519118	0.500081
C99	C	0.183508	-0.025218	0.000090
C100	C	0.683508	0.474782	0.500090
C101	C	0.133096	-0.025729	0.000091
C102	C	0.633096	0.474271	0.500091
C103	C	0.108742	0.150589	0.000068
C104	C	0.608742	0.650589	0.500068
C105	C	0.159154	0.151096	0.000067
C106	C	0.659154	0.651096	0.500067
C107	C	0.190450	0.107273	0.000071
C108	C	0.690450	0.607273	0.500071
C109	C	0.570767	-0.412860	-0.045156
C110	C	1.070767	0.087140	0.454844
C111	C	0.568706	-0.614519	-0.045165
C112	C	1.068706	-0.114519	0.454835
O113	O	0.568425	-0.640595	-0.083624
O114	O	1.068425	-0.140595	0.416376
N115	N	0.568442	-0.639730	0.000056
N116	N	1.068442	-0.139730	0.500056
C117	C	0.568691	-0.614523	0.045282
C118	C	1.068691	-0.114523	0.545282
O119	O	0.568414	-0.640592	0.083744
O120	O	1.068414	-0.140592	0.583744
C121	C	0.570748	-0.412865	0.045290
C122	C	1.070748	0.087135	0.545290
C123	C	0.571017	-0.387657	0.000067
C124	C	1.071017	0.112343	0.500067
C125	C	0.571035	-0.387653	-0.090376
C126	C	1.071035	0.112347	0.409624
C127	C	0.571553	-0.337242	-0.090373
C128	C	1.071553	0.162758	0.409627
C129	C	0.571803	-0.312038	-0.045150
C130	C	1.071803	0.187962	0.454850
C131	C	0.571535	-0.337246	0.000069
C132	C	1.071535	0.162754	0.500069
C133	C	0.570993	-0.387658	0.090516
C134	C	1.070993	0.112342	0.590516
C135	C	0.571506	-0.337240	0.090514
C136	C	1.071506	0.162760	0.590514
C137	C	0.571775	-0.312032	0.045290
C138	C	1.071775	0.187968	0.545290
C139	C	0.572302	-0.261631	0.045295
C140	C	1.072302	0.238369	0.545295
N141	N	0.572566	-0.236420	0.000074
N142	N	1.072566	0.263580	0.500074
C143	C	0.572316	-0.261624	-0.045148
C144	C	1.072316	0.238376	0.454852
C145	C	0.567611	-0.720396	0.045274
C146	C	1.067611	-0.220396	0.545274
C147	C	0.567098	-0.770810	0.045272
C148	C	1.067098	-0.270810	0.545272
C149	C	0.567112	-0.770803	-0.045175
C150	C	1.067112	-0.270803	0.454825
C151	C	0.567629	-0.720388	-0.045172
C152	C	1.067629	-0.220388	0.454828
C153	C	0.567875	-0.695185	0.000053
C154	C	1.067875	-0.195185	0.500053
C155	C	0.573404	-0.155757	-0.045139
C156	C	1.073404	0.344243	0.454861
C157	C	0.573924	-0.105341	-0.045133
C158	C	1.073924	0.394659	0.454867
C159	C	0.573907	-0.105353	0.045314
C160	C	1.073907	0.394647	0.545314
C161	C	0.573390	-0.155764	0.045308
C162	C	1.073390	0.344236	0.545308
C163	C	0.573137	-0.180964	0.000077
C164	C	1.073137	0.319036	0.500077
O165	O	0.572578	-0.235523	0.083734
O166	O	1.072578	0.264477	0.583734
O167	O	0.572582	-0.235544	-0.083605
O168	O	1.072582	0.264456	0.416395
C169	C	0.570249	-0.463272	-0.045159
C170	C	1.070249	0.036728	0.454841
C171	C	0.569981	-0.488479	0.000061
C172	C	1.069981	0.011521	0.500061
C173	C	0.570231	-0.463276	0.045284
C174	C	1.070231	0.036724	0.545284
C175	C	0.569467	-0.538894	0.000059
C176	C	1.069467	-0.038894	0.500059
C177	C	0.569218	-0.564097	-0.045163
C178	C	1.069218	-0.064097	0.454837
C179	C	0.569481	-0.538886	-0.090384
C180	C	1.069481	-0.038886	0.409616
C181	C	0.569999	-0.488475	-0.090381
C182	C	1.069999	0.011525	0.409619
C183	C	0.569967	-0.488487	0.090504
C184	C	1.069967	0.011513	0.590504
C185	C	0.569450	-0.538898	0.090498
C186	C	1.069450	-0.038898	0.590498
C187	C	0.569200	-0.564102	0.045275
C188	C	1.069200	-0.064102	0.545275
C189	C	0.658915	0.057740	0.000084
C190	C	1.158915	0.557740	0.500084
C191	C	0.712569	0.058296	0.000089
C192	C	1.212569	0.558296	0.500089
C193	C	0.566305	0.150330	0.000058
C194	C	1.066305	0.650330	0.500058
C195	C	0.566848	0.203986	0.000049
C196	C	1.066848	0.703986	0.500049
N197	N	0.570492	0.061942	0.129319
N198	N	1.070492	0.561942	0.629319
N199	N	0.570533	0.061903	-0.129175
N200	N	1.070533	0.561903	0.370825
C201	C	0.603630	0.028818	0.473955
C202	C	1.103630	0.528818	0.973955
C203	C	0.603641	0.028811	0.682833
C204	C	1.103641	0.528811	1.182833
O205	O	0.631796	0.000651	0.709845
O206	O	1.131796	0.500651	1.209845
N207	N	0.570523	0.061906	0.708946
N208	N	1.070523	0.561906	1.208946
C209	C	0.537397	0.095004	0.682837
C210	C	1.037397	0.595004	1.182837
O211	O	0.509225	0.123150	0.709841
O212	O	1.009225	0.623150	1.209841
C213	C	0.537384	0.095008	0.473960
C214	C	1.037384	0.595008	0.973960
C215	C	0.570508	0.061914	0.447850
C216	C	1.070508	0.561914	0.947850
C217	C	0.636751	-0.004274	0.447844
C218	C	1.136751	0.495726	0.947844
C219	C	0.636749	-0.004270	0.395628
C220	C	1.136749	0.495730	0.895628
C221	C	0.603627	0.028826	0.369522
C222	C	1.103627	0.528826	0.869522
C223	C	0.570506	0.061918	0.395633
C224	C	1.070506	0.561918	0.895633
C225	C	0.504256	0.128103	0.447852
C226	C	1.004256	0.628103	0.947852
C227	C	0.504255	0.128101	0.395630
C228	C	1.004255	0.628101	0.895630
C229	C	0.537379	0.095006	0.369519
C230	C	1.037379	0.595006	0.869519
C231	C	0.537382	0.095018	0.317312
C232	C	1.037382	0.595018	0.817312
N233	N	0.570501	0.061922	0.291198
N234	N	1.070501	0.561922	0.791198
C235	C	0.603623	0.028826	0.317303
C236	C	1.103623	0.528826	0.817303
C237	C	0.537407	0.094999	0.792500
C238	C	1.037407	0.594999	1.292500
C239	C	0.537411	0.094999	0.844719
C240	C	1.037411	0.594999	1.344719
C241	C	0.603655	0.028805	0.844711
C242	C	1.103655	0.528805	1.344711
C243	C	0.603653	0.028808	0.792491
C244	C	1.103653	0.528808	1.292491
C245	C	0.570526	0.061904	0.766387
C246	C	1.070526	0.561904	1.266387
C247	C	0.603618	0.028837	0.207645
C248	C	1.103618	0.528837	0.707645
C249	C	0.603615	0.028846	0.155425
C250	C	1.103615	0.528846	0.655425
C251	C	0.537370	0.095037	0.155437
C252	C	1.037370	0.595037	0.655437
C253	C	0.537374	0.095031	0.207653
C254	C	1.037374	0.595031	0.707653
C255	C	0.570500	0.061927	0.233756
C256	C	1.070500	0.561927	0.733756
O257	O	0.509239	0.123159	0.290267
O258	O	1.009239	0.623159	0.790267
O259	O	0.631784	0.000677	0.290290
O260	O	1.131784	0.500677	0.790290
C261	C	0.603631	0.028814	0.526171
C262	C	1.103631	0.528814	1.026171
C263	C	0.570510	0.061906	0.552282
C264	C	1.070510	0.561906	1.052282
C265	C	0.537388	0.095002	0.526177
C266	C	1.037388	0.595002	1.026177
C267	C	0.570514	0.061906	0.604501
C268	C	1.070514	0.561906	1.104501
C269	C	0.603637	0.028810	0.630606
C270	C	1.103637	0.528810	1.130606
C271	C	0.636755	-0.004286	0.604493
C272	C	1.136755	0.495714	1.104493
C273	C	0.636753	-0.004282	0.552277
C274	C	1.136753	0.495718	1.052277
C275	C	0.504270	0.128097	0.552290
C276	C	1.004270	0.628097	1.052290
C277	C	0.504274	0.128091	0.604507
C278	C	1.004274	0.628091	1.104507
C279	C	0.537397	0.094995	0.630612
C280	C	1.037397	0.594995	1.130612
H281	H	-0.271697	-0.021635	0.000095
H282	H	0.228303	0.478365	0.500095
H283	H	0.630625	0.001860	0.771235
H284	H	1.130625	0.501860	1.271235
O285	O	0.567797	-0.695917	-0.089118
O286	O	1.067797	-0.195917	0.410882
C287	C	0.525801	-0.702470	-0.116634
C288	C	1.025801	-0.202470	0.383366
H289	H	0.496387	-0.712280	-0.090172
H290	H	0.996387	-0.212280	0.409828
H291	H	0.534976	-0.733048	-0.144823
H292	H	1.034976	-0.233048	0.355177
C293	C	0.543391	-0.643020	-0.176860
C294	C	1.043391	-0.143020	0.323140
C295	C	0.507263	-0.655065	-0.144358
C296	C	1.007263	-0.155065	0.355642
H297	H	0.531957	-0.613779	-0.193963
H298	H	1.031957	-0.113779	0.306037
H299	H	0.571686	-0.638606	-0.158323
H300	H	1.071686	-0.138606	0.341677
H301	H	0.551034	-0.668505	-0.200346
H302	H	1.051034	-0.168505	0.299654
H303	H	0.499625	-0.629583	-0.120869
H304	H	0.999625	-0.129583	0.379131
H305	H	0.478967	-0.659473	-0.162892
H306	H	0.978967	-0.159473	0.337108
O307	O	0.472031	0.160269	0.473131
O308	O	0.972031	0.660269	0.973131
C309	C	0.442807	0.189482	0.438882
C310	C	0.942807	0.689482	0.938882
H311	H	0.442420	0.169662	0.401660
H312	H	0.942420	0.669662	0.901660
H313	H	0.458222	0.225287	0.433325
H314	H	0.958222	0.725287	0.933325
C315	C	0.391059	0.224141	0.504971
C316	C	0.891059	0.724141	1.004971
C317	C	0.390581	0.199796	0.459256
C318	C	0.890581	0.699796	0.959256
H319	H	0.358844	0.230506	0.517539
H320	H	0.858844	0.730506	1.017539
H321	H	0.410749	0.204462	0.528046
H322	H	0.910749	0.704462	1.028046
H323	H	0.403907	0.253976	0.500334
H324	H	0.903907	0.753976	1.000334
H325	H	0.377739	0.169959	0.463895
H326	H	0.877739	0.669959	0.963895
H327	H	0.370888	0.219471	0.436183
H328	H	0.870888	0.719471	0.936183
H329	H	0.117537	-0.061833	0.000095
H330	H	0.617537	0.438167	0.500095
H331	H	0.566886	-0.791331	0.082098
H332	H	1.066886	-0.291331	0.582098
H333	H	0.571699	-0.316721	0.127343
H334	H	1.071699	0.183279	0.627343
H335	H	-0.202330	0.139246	0.000077
H336	H	0.297670	0.639246	0.500077
O337	O	0.472049	0.160261	0.629790
O338	O	0.972049	0.660261	1.129790
C339	C	0.442824	0.189477	0.595545
C340	C	0.942824	0.689477	1.095545
H341	H	0.442437	0.169662	0.558321
H342	H	0.942437	0.669662	1.058321
H343	H	0.458238	0.225284	0.589993
H344	H	0.958238	0.725284	1.089993
C345	C	0.391076	0.224128	0.661638
C346	C	0.891076	0.724128	1.161638
C347	C	0.390598	0.199789	0.615921
C348	C	0.890598	0.699789	1.115921
H349	H	0.358861	0.230491	0.674207
H350	H	0.858861	0.730491	1.174207
H351	H	0.410766	0.204446	0.684711
H352	H	0.910766	0.704446	1.184711
H353	H	0.403923	0.253964	0.657006
H354	H	0.903923	0.753964	1.157006
H355	H	0.377756	0.169951	0.620555
H356	H	0.877756	0.669951	1.120555
H357	H	0.370904	0.219466	0.592849
H358	H	0.870904	0.719466	1.092849
H359	H	0.571770	-0.316722	-0.127199
H360	H	1.071770	0.183278	0.372801
O361	O	0.573112	-0.180177	0.089281
O362	O	1.073112	0.319823	0.589281
C363	C	0.573459	-0.147120	0.129196
C364	C	1.073459	0.352880	0.629196
H365	H	0.558525	-0.109065	0.115936
H366	H	1.058525	0.390935	0.615936
H367	H	0.612307	-0.147127	0.143108
H368	H	1.112307	0.352873	0.643108
C369	C	0.559878	-0.209148	0.188201
C370	C	1.059878	0.290852	0.688201
C371	C	0.541532	-0.162409	0.171916
C372	C	1.041532	0.337591	0.671916
H373	H	0.540186	-0.218579	0.214554
H374	H	1.040186	0.281421	0.714554
H375	H	0.559646	-0.231419	0.161310
H376	H	1.059646	0.268581	0.661310
H377	H	0.592251	-0.209147	0.199791
H378	H	1.092251	0.290853	0.699791
H379	H	0.509162	-0.162411	0.160321
H380	H	1.009162	0.337589	0.660321
H381	H	0.541758	-0.140137	0.198806
H382	H	1.041758	0.359863	0.698806
H383	H	0.573196	-0.176269	-0.081970
H384	H	1.073196	0.323731	0.418030
H385	H	-0.180245	-0.020712	0.000100
H386	H	0.319755	0.479288	0.500100
H387	H	0.566909	-0.791332	-0.081997
H388	H	1.066909	-0.291332	0.418003
O389	O	-0.036727	-0.070321	0.000013
O390	O	0.463273	0.429679	0.500013
C391	C	-0.065535	-0.073263	-0.042943
C392	C	0.434465	0.426737	0.457057
H393	H	-0.053805	-0.048096	-0.072979
H394	H	0.446195	0.451904	0.427021
H395	H	-0.105380	-0.061815	-0.033228
H396	H	0.394620	0.438185	0.466772
C397	C	-0.073429	-0.156849	-0.025523
C398	C	0.426571	0.343151	0.474477
C399	C	-0.059020	-0.125941	-0.062416
C400	C	0.440980	0.374059	0.437584
H401	H	-0.069413	-0.189343	-0.037534
H402	H	0.430587	0.310657	0.462466
H403	H	-0.054023	-0.154866	0.003418
H404	H	0.445977	0.345134	0.503418
H405	H	-0.106633	-0.147303	-0.017430
H406	H	0.393367	0.352697	0.482570
H407	H	-0.025816	-0.135483	-0.070504
H408	H	0.474184	0.364517	0.429496
H409	H	-0.078421	-0.127926	-0.091359
H410	H	0.421579	0.372074	0.408641
O411	O	0.026536	0.192610	0.000136
O412	O	0.526536	0.692610	0.500136
C413	C	0.055327	0.195559	0.043102
C414	C	0.555327	0.695559	0.543102
H415	H	0.068170	0.157367	0.057434
H416	H	0.568170	0.657367	0.557434
H417	H	0.032895	0.217120	0.073186
H418	H	0.532895	0.717120	0.573186
C419	C	0.083958	0.268154	0.012434
C420	C	0.583958	0.768154	0.512434
C421	C	0.099735	0.221245	0.030034
C422	C	0.599735	0.721245	0.530034
H423	H	0.111350	0.284001	0.004374
H424	H	0.611350	0.784001	0.504374
H425	H	0.064559	0.266169	-0.016513
H426	H	0.564559	0.766169	0.483487
H427	H	0.065264	0.286116	0.037507
H428	H	0.565264	0.786116	0.537507
H429	H	0.118423	0.203283	0.004960
H430	H	0.618423	0.703283	0.504960
H431	H	0.119138	0.223228	0.058976
H432	H	0.619138	0.723228	0.558976
O433	O	-0.072925	0.191619	0.000171
O434	O	0.427075	0.691619	0.500171
C435	C	-0.102460	0.193961	0.043130
C436	C	0.397540	0.693961	0.543130
H437	H	-0.083814	0.169102	0.073163
H438	H	0.416186	0.669102	0.573163
H439	H	-0.139034	0.181734	0.033417
H440	H	0.360966	0.681734	0.533417
C441	C	-0.133407	0.277151	0.025719
C442	C	0.366593	0.777151	0.525719
C443	C	-0.110504	0.246622	0.062607
C444	C	0.389496	0.746622	0.562607
H445	H	-0.138371	0.309635	0.037733
H446	H	0.361629	0.809635	0.537733
H447	H	-0.113510	0.275573	-0.003225
H448	H	0.386490	0.775573	0.496775
H449	H	-0.163882	0.266956	0.017628
H450	H	0.336118	0.766956	0.517628
H451	H	-0.080027	0.256814	0.070692
H452	H	0.419973	0.756814	0.570692
H453	H	-0.130396	0.248203	0.091553
H454	H	0.369604	0.748203	0.591553
O455	O	0.439671	-0.021402	0.000045
O456	O	0.939671	0.478598	0.500045
C457	C	0.411993	-0.060649	0.000071
C458	C	0.911993	0.439351	0.500071
H459	H	0.374269	-0.048101	-0.015637
H460	H	0.874269	0.451899	0.484363
H461	H	0.408505	-0.074247	0.039875
H462	H	0.908505	0.425753	0.539875
C463	C	0.483761	-0.117513	-0.013158
C464	C	0.983761	0.382487	0.486842
C465	C	0.437429	-0.102102	-0.032455
C466	C	0.937429	0.397898	0.467545
H467	H	0.499452	-0.143084	-0.033220
H468	H	0.999452	0.356916	0.466780
H469	H	0.502409	-0.091072	-0.013174
H470	H	1.002409	0.408928	0.486826
H471	H	0.480848	-0.128842	0.020011
H472	H	0.980848	0.371158	0.520011
H473	H	0.440343	-0.090768	-0.065622
H474	H	0.940343	0.409232	0.434378
H475	H	0.418782	-0.128542	-0.032446
H476	H	0.918782	0.371458	0.467554
O477	O	0.062600	-0.069369	0.000072
O478	O	0.562600	0.430631	0.500072
C479	C	0.034905	-0.108603	0.000091
C480	C	0.534905	0.391397	0.500091
H481	H	-0.002817	-0.096037	-0.015610
H482	H	0.497183	0.403963	0.484390
H483	H	0.031418	-0.122210	0.039892
H484	H	0.531418	0.377790	0.539892
C485	C	0.106654	-0.165489	-0.013160
C486	C	0.606654	0.334511	0.486840
C487	C	0.060323	-0.150056	-0.032448
C488	C	0.560323	0.349944	0.467552
H489	H	0.122333	-0.191060	-0.033230
H490	H	0.622333	0.308940	0.466770
H491	H	0.125312	-0.139056	-0.013171
H492	H	0.625312	0.360944	0.486829
H493	H	0.103741	-0.176824	0.020007
H494	H	0.603741	0.323176	0.520007
H495	H	0.063237	-0.138715	-0.065612
H496	H	0.563237	0.361285	0.434388
H497	H	0.041665	-0.176487	-0.032443
H498	H	0.541665	0.323513	0.467557
O499	O	0.570650	-0.412172	0.134419
O500	O	1.070650	0.087828	0.634419
C501	C	0.528456	-0.435521	0.137114
C502	C	1.028456	0.064479	0.637114
H503	H	0.514441	-0.441158	0.097843
H504	H	1.014441	0.058842	0.597843
H505	H	0.499319	-0.412020	0.159401
H506	H	0.999319	0.087980	0.659401
C507	C	0.557870	-0.478233	0.211231
C508	C	1.057870	0.021767	0.711231
C509	C	0.540659	-0.485160	0.162998
C510	C	1.040659	0.014840	0.662998
H511	H	0.565396	-0.508852	0.227200
H512	H	1.065396	-0.008852	0.727200
H513	H	0.586296	-0.462501	0.209417
H514	H	1.086296	0.037499	0.709417
H515	H	0.533586	-0.458648	0.229798
H516	H	1.033586	0.041352	0.729798
H517	H	0.564945	-0.504740	0.144431
H518	H	1.064945	-0.004740	0.644431
H519	H	0.512237	-0.500897	0.164810
H520	H	1.012237	-0.000897	0.664810
O521	O	0.177741	0.194159	-0.000031
O522	O	0.677741	0.694159	0.499969
C523	C	0.206547	0.197089	-0.042991
C524	C	0.706547	0.697089	0.457009
H525	H	0.194816	0.171914	-0.073018
H526	H	0.694816	0.671914	0.426982
H527	H	0.246393	0.185643	-0.033277
H528	H	0.746393	0.685643	0.466723
C529	C	0.214443	0.280679	-0.025602
C530	C	0.714443	0.780679	0.474398
C531	C	0.200032	0.249761	-0.062483
C532	C	0.700032	0.749761	0.437517
H533	H	0.210427	0.313170	-0.037625
H534	H	0.710427	0.813170	0.462375
H535	H	0.195038	0.278705	0.003342
H536	H	0.695038	0.778705	0.503342
H537	H	0.247647	0.271135	-0.017510
H538	H	0.747647	0.771135	0.482490
H539	H	0.166828	0.259302	-0.070570
H540	H	0.666828	0.759302	0.429430
H541	H	0.219432	0.251738	-0.091429
H542	H	0.719432	0.751738	0.408571
O543	O	0.635817	-0.003252	0.233051
O544	O	1.135817	0.496748	0.733051
C545	C	0.665450	0.022428	0.263245
C546	C	1.165450	0.522428	0.763245
H547	H	0.645906	0.060384	0.271079
H548	H	1.145906	0.560384	0.771079
H549	H	0.701143	0.025475	0.243113
H550	H	1.201143	0.525475	0.743113
C551	C	0.700006	-0.051526	0.303219
C552	C	1.200006	0.448474	0.803219
C553	C	0.676001	-0.004909	0.312844
C554	C	1.176001	0.495091	0.812844
H555	H	0.706517	-0.068390	0.333813
H556	H	1.206517	0.431610	0.833813
H557	H	0.680043	-0.068828	0.282875
H558	H	1.180043	0.431172	0.782875
H559	H	0.729748	-0.048980	0.286441
H560	H	1.229748	0.451020	0.786441
H561	H	0.646257	-0.007456	0.329616
H562	H	1.146257	0.492544	0.829616
H563	H	0.695959	0.012392	0.333192
H564	H	1.195959	0.512392	0.833192
O565	O	0.213845	-0.067833	0.000072
O566	O	0.713845	0.432167	0.500072
C567	C	0.186168	-0.107080	0.000093
C568	C	0.686168	0.392920	0.500093
H569	H	0.148444	-0.094530	-0.015615
H570	H	0.648444	0.405470	0.484385
H571	H	0.182680	-0.120683	0.039895
H572	H	0.682680	0.379317	0.539895
C573	C	0.257937	-0.163942	-0.013142
C574	C	0.757937	0.336058	0.486858
C575	C	0.211605	-0.148529	-0.032438
C576	C	0.711605	0.351471	0.467562
H577	H	0.273628	-0.189510	-0.033206
H578	H	0.773628	0.310490	0.466794
H579	H	0.276584	-0.137500	-0.013154
H580	H	0.776584	0.362500	0.486846
H581	H	0.255024	-0.175274	0.020026
H582	H	0.755024	0.324726	0.520026
H583	H	0.214518	-0.137191	-0.065603
H584	H	0.714518	0.362809	0.434397
H585	H	0.192959	-0.174969	-0.032433
H586	H	0.692959	0.325031	0.467567
H587	H	0.510406	0.121984	0.228913
H588	H	1.010406	0.621984	0.728913
H589	H	0.477277	0.155051	0.374378
H590	H	0.977277	0.655051	0.874378
O591	O	0.078366	0.193175	-0.000028
O592	O	0.578366	0.693175	0.499972
C593	C	0.086998	0.220111	-0.042992
C594	C	0.586998	0.720111	0.457008
H595	H	0.104417	0.194451	-0.073017
H596	H	0.604417	0.694451	0.426983
H597	H	0.112470	0.247889	-0.033284
H598	H	0.612470	0.747889	0.466716
C599	C	0.017092	0.278189	-0.025606
C600	C	0.517092	0.778189	0.474394
C601	C	0.038483	0.246672	-0.062484
C602	C	0.538483	0.746672	0.437516
H603	H	-0.012833	0.294575	-0.037628
H604	H	0.487167	0.794575	0.462372
H605	H	0.011277	0.260042	0.003341
H606	H	0.511277	0.760042	0.503341
H607	H	0.038323	0.301333	-0.017519
H608	H	0.538323	0.801333	0.482481
H609	H	0.017255	0.223525	-0.070565
H610	H	0.517255	0.723525	0.429435
H611	H	0.044293	0.264815	-0.091433
H612	H	0.544293	0.764815	0.408567
O613	O	0.505177	0.127232	0.130150
O614	O	1.005177	0.627232	0.630150
C615	C	0.475931	0.156434	0.164390
C616	C	0.975931	0.656434	0.664390
H617	H	0.495743	0.156850	0.201614
H618	H	0.995743	0.656850	0.701614
H619	H	0.440147	0.140979	0.169945
H620	H	0.940147	0.640979	0.669945
C621	C	0.441229	0.208139	0.098286
C622	C	0.941229	0.708139	0.598286
C623	C	0.465564	0.208653	0.144003
C624	C	0.965564	0.708653	0.644003
H625	H	0.434832	0.240350	0.085710
H626	H	0.934832	0.740350	0.585710
H627	H	0.460931	0.188464	0.075217
H628	H	0.960931	0.688464	0.575217
H629	H	0.411412	0.195257	0.102921
H630	H	0.911412	0.695257	0.602921
H631	H	0.495383	0.221529	0.139367
H632	H	0.995383	0.721529	0.639367
H633	H	0.445866	0.228332	0.167071
H634	H	0.945866	0.728332	0.667071
O635	O	0.570730	-0.412069	-0.134341
O636	O	1.070730	0.087931	0.365659
C637	C	0.528976	-0.393966	-0.161855
C638	C	1.028976	0.106034	0.338145
H639	H	0.515381	-0.355436	-0.148990
H640	H	1.015381	0.144564	0.351010
H641	H	0.499361	-0.418291	-0.155602
H642	H	0.999361	0.081709	0.344398
C643	C	0.558435	-0.440703	-0.233536
C644	C	1.058435	0.059297	0.266464
C645	C	0.541740	-0.393378	-0.217738
C646	C	1.041740	0.106622	0.282262
H647	H	0.566307	-0.440343	-0.268008
H648	H	1.066307	0.059657	0.231992
H649	H	0.586565	-0.452901	-0.214999
H650	H	1.086565	0.047099	0.285001
H651	H	0.533753	-0.460969	-0.228321
H652	H	1.033753	0.039031	0.271679
H653	H	0.566424	-0.373115	-0.222947
H654	H	1.066424	0.126885	0.277053
H655	H	0.513614	-0.381177	-0.236277
H656	H	1.013614	0.118823	0.263723
H657	H	0.574144	-0.084820	-0.081961
H658	H	1.074144	0.415180	0.418039
H659	H	0.412717	0.145480	0.000036
H660	H	0.912717	0.645480	0.500036
H661	H	0.663726	-0.031230	0.531021
H662	H	1.163726	0.468770	1.031021
H663	H	0.567814	-0.699881	0.082104
H664	H	1.067814	-0.199881	0.582104
H665	H	0.574113	-0.084823	0.082133
H666	H	1.074113	0.415177	0.582133
H667	H	0.663720	-0.031220	0.374371
H668	H	1.163720	0.468780	0.874371
H669	H	0.570218	-0.467956	-0.127207
H670	H	1.070218	0.032044	0.372793
H671	H	0.663723	-0.031227	0.469095
H672	H	1.163723	0.468773	0.969095
H673	H	0.343358	-0.015402	0.000065
H674	H	0.843358	0.484598	0.500065
O675	O	0.635781	-0.003328	0.870152
O676	O	1.135781	0.496672	1.370152
C677	C	0.628686	0.003780	0.921840
C678	C	1.128686	0.503780	1.421840
H679	H	0.590119	0.022116	0.928968
H680	H	1.090119	0.522116	1.428968
H681	H	0.655861	0.027835	0.936657
H682	H	1.155861	0.527835	1.436657
C683	C	0.683690	-0.068240	0.939899
C684	C	1.183690	0.431760	1.439899
C685	C	0.636320	-0.045723	0.948655
C686	C	1.136320	0.454277	1.448655
H687	H	0.688402	-0.098774	0.956441
H688	H	1.188402	0.401226	1.456441
H689	H	0.688472	-0.073028	0.905076
H690	H	1.188472	0.426972	1.405076
H691	H	0.706331	-0.048189	0.952247
H692	H	1.206331	0.451811	1.452247
H693	H	0.613681	-0.065770	0.936301
H694	H	1.113681	0.434230	1.436301
H695	H	0.631534	-0.040939	0.983476
H696	H	1.131534	0.459061	1.483476
H697	H	0.663726	-0.031232	0.625757
H698	H	1.163726	0.468768	1.125757
O699	O	0.569251	-0.563301	-0.134359
O700	O	1.069251	-0.063301	0.365641
C701	C	0.569578	-0.530244	-0.174277
C702	C	1.069578	-0.030244	0.325723
H703	H	0.585263	-0.496426	-0.161027
H704	H	1.085263	0.003574	0.338973
H705	H	0.530837	-0.519513	-0.188176
H706	H	1.030837	-0.019513	0.311824
C707	C	0.581813	-0.595847	-0.233279
C708	C	1.081813	-0.095847	0.266721
C709	C	0.601082	-0.554313	-0.217006
C710	C	1.101082	-0.054313	0.282994
H711	H	0.601245	-0.610694	-0.259638
H712	H	1.101245	-0.110694	0.240362
H713	H	0.581591	-0.618119	-0.206386
H714	H	1.081591	-0.118119	0.293614
H715	H	0.549530	-0.586899	-0.244859
H716	H	1.049530	-0.086899	0.255141
H717	H	0.633363	-0.563262	-0.205421
H718	H	1.133363	-0.063262	0.294579
H719	H	0.601310	-0.532043	-0.243899
H720	H	1.101310	-0.032043	0.256101
H721	H	-0.293798	0.138315	0.000076
H722	H	0.206202	0.638315	0.500076
O723	O	0.569101	-0.563345	0.134447
O724	O	1.069101	-0.063345	0.634447
C725	C	0.527346	-0.545217	0.161947
C726	C	1.027346	-0.045217	0.661947
H727	H	0.498227	-0.527313	0.135473
H728	H	0.998227	-0.027313	0.635473
H729	H	0.537109	-0.517258	0.190141
H730	H	1.037109	-0.017258	0.690141
C731	C	0.543647	-0.609355	0.222175
C732	C	1.043647	-0.109355	0.722175
C733	C	0.507881	-0.587370	0.189660
C734	C	1.007881	-0.087370	0.689660
H735	H	0.531641	-0.635356	0.239272
H736	H	1.031641	-0.135356	0.739272
H737	H	0.571779	-0.621568	0.203650
H738	H	1.071779	-0.121568	0.703650
H739	H	0.551779	-0.586051	0.245666
H740	H	1.051779	-0.086051	0.745666
H741	H	0.499754	-0.610672	0.166166
H742	H	0.999754	-0.110672	0.666166
H743	H	0.479746	-0.575162	0.208183
H744	H	0.979746	-0.075162	0.708183
O745	O	0.570278	-0.463964	0.134404
O746	O	1.070278	0.036036	0.634404
C747	C	0.612465	-0.440606	0.137123
C748	C	1.112465	0.059394	0.637123
H749	H	0.626508	-0.434977	0.097862
H750	H	1.126508	0.065023	0.597862
H751	H	0.641589	-0.464095	0.159438
H752	H	1.141589	0.035905	0.659438
C753	C	0.582987	-0.397876	0.211208
C754	C	1.082987	0.102124	0.711208
C755	C	0.600233	-0.390959	0.162985
C756	C	1.100233	0.109041	0.662985
H757	H	0.575443	-0.367253	0.227163
H758	H	1.075443	0.132747	0.727163
H759	H	0.554566	-0.413614	0.209377
H760	H	1.054566	0.086386	0.709377
H761	H	0.607260	-0.417452	0.229797
H762	H	1.107260	0.082548	0.729797
H763	H	0.575958	-0.371389	0.144395
H764	H	1.075958	0.128611	0.644395
H765	H	0.628650	-0.375217	0.164814
H766	H	1.128650	0.124783	0.664814
H767	H	0.321266	0.144555	0.000051
H768	H	0.821266	0.644555	0.500051
O769	O	0.505172	0.127103	0.870058
O770	O	1.005172	0.627103	1.370058
C771	C	0.457385	0.119576	0.857289
C772	C	0.957385	0.619576	1.357289
H773	H	0.457449	0.080873	0.842937
H774	H	0.957449	0.580873	1.342937
H775	H	0.442981	0.146465	0.826975
H776	H	0.942981	0.646465	1.326975
C777	C	0.424477	0.174848	0.921302
C778	C	0.924477	0.674848	1.421302
C779	C	0.424555	0.127311	0.903679
C780	C	0.924555	0.627311	1.403679
H781	H	0.404225	0.179622	0.949917
H782	H	0.904225	0.679622	1.449917
H783	H	0.456671	0.179921	0.929904
H784	H	0.956671	0.679921	1.429904
H785	H	0.412475	0.197250	0.896037
H786	H	0.912475	0.697250	1.396037
H787	H	0.436562	0.104910	0.928942
H788	H	0.936562	0.604910	1.428942
H789	H	0.392361	0.122235	0.895083
H790	H	0.892361	0.622235	1.395083
O791	O	0.635810	-0.003352	0.130138
O792	O	1.135810	0.496648	0.630138
C793	C	0.665051	-0.032556	0.164382
C794	C	1.165051	0.467444	0.664382
H795	H	0.645237	-0.032967	0.201605
H796	H	1.145237	0.467033	0.701605
H797	H	0.700837	-0.017105	0.169935
H798	H	1.200837	0.482895	0.669935
C799	C	0.699751	-0.084267	0.098284
C800	C	1.199751	0.415733	0.598284
C801	C	0.675414	-0.084776	0.144001
C802	C	1.175414	0.415224	0.644001
H803	H	0.706146	-0.116479	0.085712
H804	H	1.206146	0.383521	0.585712
H805	H	0.680053	-0.064591	0.075213
H806	H	1.180053	0.435409	0.575213
H807	H	0.729570	-0.071389	0.102918
H808	H	1.229570	0.428611	0.602918
H809	H	0.645593	-0.097648	0.139365
H810	H	1.145593	0.402352	0.639365
H811	H	0.695107	-0.104455	0.167071
H812	H	1.195107	0.395545	0.667071
H813	H	0.477297	0.155048	0.531039
H814	H	0.977297	0.655048	1.031039
H815	H	0.510430	0.121951	0.771250
H816	H	1.010430	0.621951	1.271250
