data_functionalizedCrystal
_audit_creation_method	'MofGen! by Chris Wilmer'
_symmetry_space_group_name_H-M	'P1'
_symmetry_Int_Tables_number	1
_symmetry_cell_setting	triclinic
loop_
_symmetry_equiv_pos_as_xyz
  x,y,z
_cell_length_a	8.559649
_cell_length_b	8.597304
_cell_length_c	7.681481
_cell_angle_alpha	76.508647
_cell_angle_beta	94.913240
_cell_angle_gamma	77.624695
loop_
_atom_site_label
_atom_site_type_symbol
_atom_site_fract_x
_atom_site_fract_y
_atom_site_fract_z
O1	O	2.105024	-0.037138	-0.140767
O2	O	2.605024	0.462862	0.359233
O3	O	1.639817	0.045183	-0.153263
O4	O	2.139817	0.545183	0.346737
O5	O	1.885144	-0.229575	-0.111572
O6	O	2.385144	0.270425	0.388428
O7	O	1.859697	0.237620	-0.182458
O8	O	2.359697	0.737620	0.317542
O9	O	1.915339	-0.263461	0.186427
O10	O	2.415339	0.236539	0.686427
O11	O	1.670013	0.011297	0.144736
O12	O	2.170013	0.511297	0.644736
O13	O	2.135220	-0.071024	0.157232
O14	O	2.635220	0.428976	0.657232
Zn15	Zn	1.907410	-0.035244	0.198298
Zn16	Zn	2.407410	0.464756	0.698298
Zn17	Zn	1.867626	0.009403	-0.194329
Zn18	Zn	2.367626	0.509403	0.305671
O19	O	1.889893	0.203734	0.115541
O20	O	2.389893	0.703734	0.615541
C21	C	1.595385	0.034479	-0.005211
C22	C	2.095385	0.534479	0.494789
C23	C	1.418004	0.053049	-0.008031
C24	C	1.918004	0.553049	0.491969
C25	C	1.899191	-0.305775	0.046415
C26	C	2.399191	0.194225	0.546415
C27	C	1.896043	-0.482340	0.073193
C28	C	2.396043	0.017660	0.573193
C29	C	2.179651	-0.060319	0.009176
C30	C	2.679651	0.439681	0.509176
C31	C	2.357031	-0.078888	0.011985
C32	C	2.857031	0.421112	0.511985
C33	C	1.875845	0.279934	-0.042449
C34	C	2.375845	0.779934	0.457551
C35	C	1.878992	0.456501	-0.069239
C36	C	2.378992	0.956501	0.430761
N37	N	1.934574	-0.065716	0.466256
N38	N	2.434574	0.434284	0.966256
N39	N	1.840476	0.039861	-0.462285
N40	N	2.340476	0.539861	0.037715
H41	H	1.334494	0.180221	-0.027336
H42	H	1.834494	0.680221	0.472664
H43	H	2.030646	-0.173478	0.557813
H44	H	2.530646	0.326522	1.057813
Br45	Br	1.496197	-0.290842	0.044127
Br46	Br	1.996197	0.209158	0.544127
H47	H	1.908215	-0.565062	0.215641
H48	H	2.408215	-0.065062	0.715641
H49	H	1.866798	-0.460781	-0.211679
H50	H	2.366798	0.039219	0.288321
Br51	Br	1.680375	0.219485	0.385130
Br52	Br	2.180375	0.719485	0.885130
