data_functionalizedCrystal
_audit_creation_method	'MofGen! by Chris Wilmer'
_symmetry_space_group_name_H-M	'P1'
_symmetry_Int_Tables_number	1
_symmetry_cell_setting	triclinic
loop_
_symmetry_equiv_pos_as_xyz
  x,y,z
_cell_length_a	18.050590
_cell_length_b	18.050583
_cell_length_c	16.625546
_cell_angle_alpha	90.037482
_cell_angle_beta	89.988365
_cell_angle_gamma	89.999666
loop_
_atom_site_label
_atom_site_type_symbol
_atom_site_fract_x
_atom_site_fract_y
_atom_site_fract_z
Zn1	Zn	1.135330	-0.419595	0.321177
Zn2	Zn	1.385330	-0.169595	0.571177
Zn3	Zn	1.635330	0.080405	0.821177
Zn4	Zn	1.885330	0.330405	1.071177
Zn5	Zn	1.135251	-0.295403	0.456037
Zn6	Zn	1.385251	-0.045403	0.706037
Zn7	Zn	1.635251	0.204597	0.956037
Zn8	Zn	1.885251	0.454597	1.206037
Zn9	Zn	1.011147	-0.295453	0.321196
Zn10	Zn	1.261147	-0.045453	0.571196
Zn11	Zn	1.511147	0.204547	0.821196
Zn12	Zn	1.761147	0.454547	1.071196
Zn13	Zn	1.011110	-0.419585	0.455946
Zn14	Zn	1.261110	-0.169585	0.705946
Zn15	Zn	1.511110	0.080415	0.955946
Zn16	Zn	1.761110	0.330415	1.205946
O17	O	1.073210	-0.357509	0.388589
O18	O	1.323210	-0.107509	0.638589
O19	O	1.573210	0.142491	0.888589
O20	O	1.823210	0.392491	1.138589
O21	O	1.239244	-0.403104	0.339097
O22	O	1.489244	-0.153104	0.589097
O23	O	1.739244	0.096896	0.839097
O24	O	1.989244	0.346896	1.089097
O25	O	1.118771	-0.191485	0.438196
O26	O	1.368771	0.058515	0.688196
O27	O	1.618771	0.308515	0.938196
O28	O	1.868771	0.558515	1.188196
O29	O	1.027669	-0.311947	0.208361
O30	O	1.277669	-0.061947	0.458361
O31	O	1.527669	0.188053	0.708361
O32	O	1.777669	0.438053	0.958361
O33	O	1.239186	-0.311860	0.438177
O34	O	1.489186	-0.061860	0.688177
O35	O	1.739186	0.188140	0.938177
O36	O	1.989186	0.438140	1.188177
O37	O	1.118906	-0.403153	0.208347
O38	O	1.368906	-0.153153	0.458347
O39	O	1.618906	0.096847	0.708347
O40	O	1.868906	0.346847	0.958347
O41	O	1.027592	-0.191522	0.339129
O42	O	1.277592	0.058478	0.589129
O43	O	1.527592	0.308478	0.839129
O44	O	1.777592	0.558478	1.089129
O45	O	0.907218	-0.311937	0.339041
O46	O	1.157218	-0.061937	0.589041
O47	O	1.407218	0.188063	0.839041
O48	O	1.657218	0.438063	1.089041
O49	O	1.027606	-0.523511	0.438022
O50	O	1.277606	-0.273511	0.688022
O51	O	1.527606	-0.023511	0.938022
O52	O	1.777606	0.226489	1.188022
O53	O	0.907190	-0.403136	0.438041
O54	O	1.157190	-0.153136	0.688041
O55	O	1.407190	0.096864	0.938041
O56	O	1.657190	0.346864	1.188041
O57	O	1.118870	-0.523519	0.339008
O58	O	1.368870	-0.273519	0.589008
O59	O	1.618870	-0.023519	0.839008
O60	O	1.868870	0.226481	1.089008
O61	O	1.118735	-0.311850	0.568857
O62	O	1.368735	-0.061850	0.818857
O63	O	1.618735	0.188150	1.068857
O64	O	1.868735	0.438150	1.318857
O65	O	1.027529	-0.403087	0.568790
O66	O	1.277529	-0.153087	0.818790
O67	O	1.527529	0.096913	1.068790
O68	O	1.777529	0.346913	1.318790
C69	C	0.880257	-0.357541	0.388534
C70	C	1.130257	-0.107541	0.638534
C71	C	1.380257	0.142459	0.888534
C72	C	1.630257	0.392459	1.138534
C73	C	0.797712	-0.357573	0.388530
C74	C	1.047712	-0.107573	0.638530
C75	C	1.297712	0.142427	0.888530
C76	C	1.547712	0.392427	1.138530
C77	C	0.598268	-0.407049	0.442520
C78	C	0.848268	-0.157049	0.692520
C79	C	1.098268	0.092951	0.942520
C80	C	1.348268	0.342951	1.192520
C81	C	0.548868	-0.425325	0.368996
C82	C	0.798868	-0.175325	0.618996
C83	C	1.048868	0.074675	0.868996
C84	C	1.298868	0.324675	1.118996
C85	C	0.646581	-0.357536	0.388575
C86	C	0.896581	-0.107536	0.638575
C87	C	1.146581	0.142464	0.888575
C88	C	1.396581	0.392464	1.138575
C89	C	0.548899	-0.339259	0.462141
C90	C	0.798899	-0.089259	0.712141
C91	C	1.048899	0.160741	0.962141
C92	C	1.298899	0.410741	1.212141
C93	C	0.500596	-0.357503	0.388625
C94	C	0.750596	-0.107503	0.638625
C95	C	1.000596	0.142497	0.888625
C96	C	1.250596	0.392497	1.138625
C97	C	0.598269	-0.375848	0.315012
C98	C	0.848269	-0.125848	0.565012
C99	C	1.098269	0.124152	0.815012
C100	C	1.348269	0.374152	1.065012
C101	C	0.598304	-0.289750	0.408206
C102	C	0.848304	-0.039750	0.658206
C103	C	1.098304	0.210250	0.908206
C104	C	1.348304	0.460250	1.158206
C105	C	0.548927	-0.308001	0.334631
C106	C	0.798927	-0.058001	0.584631
C107	C	1.048927	0.191999	0.834631
C108	C	1.298927	0.441999	1.084631
C109	C	0.730680	-0.357558	0.388547
C110	C	0.980680	-0.107558	0.638547
C111	C	1.230680	0.142442	0.888547
C112	C	1.480680	0.392442	1.138547
C113	C	0.416500	-0.357481	0.388644
C114	C	0.666500	-0.107481	0.638644
C115	C	0.916500	0.142519	0.888644
C116	C	1.166500	0.392519	1.138644
C117	C	1.073242	-0.551215	0.388503
C118	C	1.323242	-0.301215	0.638503
C119	C	1.573242	-0.051215	0.888503
C120	C	1.823242	0.198785	1.138503
C121	C	1.073256	-0.633761	0.388466
C122	C	1.323256	-0.383761	0.638466
C123	C	1.573256	-0.133761	0.888466
C124	C	1.823256	0.116239	1.138466
C125	C	1.122935	-0.833216	0.334597
C126	C	1.372935	-0.583216	0.584597
C127	C	1.622935	-0.333216	0.834597
C128	C	1.872935	-0.083216	1.084597
C129	C	1.055200	-0.882629	0.314848
C130	C	1.305200	-0.632629	0.564848
C131	C	1.555200	-0.382629	0.814848
C132	C	1.805200	-0.132629	1.064848
C133	C	1.073286	-0.784891	0.388452
C134	C	1.323286	-0.534891	0.638452
C135	C	1.573286	-0.284891	0.888452
C136	C	1.823286	-0.034891	1.138452
C137	C	1.141049	-0.882559	0.408150
C138	C	1.391049	-0.632559	0.658150
C139	C	1.641049	-0.382559	0.908150
C140	C	1.891049	-0.132559	1.158150
C141	C	1.073321	-0.930876	0.388438
C142	C	1.323321	-0.680876	0.638438
C143	C	1.573321	-0.430876	0.888438
C144	C	1.823321	-0.180876	1.138438
C145	C	1.005515	-0.833218	0.368666
C146	C	1.255515	-0.583218	0.618666
C147	C	1.505515	-0.333218	0.868666
C148	C	1.755515	-0.083218	1.118666
C149	C	1.091409	-0.833143	0.462002
C150	C	1.341409	-0.583143	0.712002
C151	C	1.591409	-0.333143	0.962002
C152	C	1.841409	-0.083143	1.212002
C153	C	1.023627	-0.882535	0.442282
C154	C	1.273627	-0.632535	0.692282
C155	C	1.523627	-0.382535	0.942282
C156	C	1.773627	-0.132535	1.192282
C157	C	1.073267	-0.700793	0.388459
C158	C	1.323267	-0.450793	0.638459
C159	C	1.573267	-0.200793	0.888459
C160	C	1.823267	0.049207	1.138459
C161	C	1.073332	-1.014973	0.388431
C162	C	1.323332	-0.764973	0.638431
C163	C	1.573332	-0.514973	0.888431
C164	C	1.823332	-0.264973	1.138431
C165	C	1.266915	-0.357478	0.388645
C166	C	1.516915	-0.107478	0.638645
C167	C	1.766915	0.142522	0.888645
C168	C	2.016915	0.392522	1.138645
C169	C	1.349461	-0.357464	0.388669
C170	C	1.599461	-0.107464	0.638669
C171	C	1.849461	0.142536	0.888669
C172	C	2.099461	0.392536	1.138669
C173	C	1.073139	-0.357478	0.598080
C174	C	1.323139	-0.107478	0.848080
C175	C	1.573139	0.142522	1.098080
C176	C	1.823139	0.392522	1.348080
C177	C	1.073177	-0.357490	0.687701
C178	C	1.323177	-0.107490	0.937701
C179	C	1.573177	0.142510	1.187701
C180	C	1.823177	0.392510	1.437701
C181	C	1.073220	-0.164557	0.388617
C182	C	1.323220	0.085443	0.638617
C183	C	1.573220	0.335443	0.888617
C184	C	1.823220	0.585443	1.138617
C185	C	1.073349	-0.082012	0.388426
C186	C	1.323349	0.167988	0.638426
C187	C	1.573349	0.417988	0.888426
C188	C	1.823349	0.667988	1.138426
C189	C	1.073300	-0.357557	0.178280
C190	C	1.323300	-0.107557	0.428280
C191	C	1.573300	0.142443	0.678280
C192	C	1.823300	0.392443	0.928280
C193	C	1.073339	-0.357577	0.088659
C194	C	1.323339	-0.107577	0.338659
C195	C	1.573339	0.142423	0.588659
C196	C	1.823339	0.392423	0.838659
C197	C	1.073307	-0.357567	1.015877
C198	C	1.323307	-0.107567	1.265877
C199	C	1.573307	0.142433	1.515877
C200	C	1.823307	0.392433	1.765877
C201	C	1.073268	-0.357548	0.924568
C202	C	1.323268	-0.107548	1.174568
C203	C	1.573268	0.142452	1.424568
C204	C	1.823268	0.392452	1.674568
C205	C	1.073241	-0.357528	0.851792
C206	C	1.323241	-0.107528	1.101792
C207	C	1.573241	0.142472	1.351792
C208	C	1.823241	0.392472	1.601792
C209	C	1.073204	-0.357509	0.760477
C210	C	1.323204	-0.107509	1.010477
C211	C	1.573204	0.142491	1.260477
C212	C	1.823204	0.392491	1.510477
H213	H	0.527399	-0.266116	0.288980
H214	H	0.777399	-0.016116	0.538980
H215	H	1.027399	0.233884	0.788980
H216	H	1.277399	0.483884	1.038980
Br217	Br	0.512676	-0.520846	0.341345
Br218	Br	0.762676	-0.270846	0.591345
Br219	Br	1.012676	-0.020846	0.841345
Br220	Br	1.262676	0.229154	1.091345
H221	H	1.198340	-0.904236	0.424814
H222	H	1.448340	-0.654236	0.674814
H223	H	1.698340	-0.404236	0.924814
H224	H	1.948340	-0.154236	1.174814
Br225	Br	0.634496	-0.194238	0.435873
Br226	Br	0.884496	0.055762	0.685873
Br227	Br	1.134496	0.305762	0.935873
Br228	Br	1.384496	0.555762	1.185873
Br229	Br	0.512750	-0.313516	0.565798
Br230	Br	0.762750	-0.063516	0.815798
Br231	Br	1.012750	0.186484	1.065798
Br232	Br	1.262750	0.436484	1.315798
H233	H	1.164854	-0.811558	0.289024
H234	H	1.414854	-0.561558	0.539024
H235	H	1.664854	-0.311558	0.789024
H236	H	1.914854	-0.061558	1.039024
H237	H	1.039882	-0.904366	0.252643
H238	H	1.289882	-0.654366	0.502643
H239	H	1.539882	-0.404366	0.752643
H240	H	1.789882	-0.154366	1.002643
Br241	Br	0.634380	-0.476909	0.518428
Br242	Br	0.884380	-0.226909	0.768428
Br243	Br	1.134380	0.023091	1.018428
Br244	Br	1.384380	0.273091	1.268428
Br245	Br	0.634257	-0.401699	0.211321
Br246	Br	0.884257	-0.151699	0.461321
Br247	Br	1.134257	0.098301	0.711321
Br248	Br	1.384257	0.348301	0.961321
Br249	Br	0.909993	-0.797250	0.340782
Br250	Br	1.159993	-0.547250	0.590782
Br251	Br	1.409993	-0.297250	0.840782
Br252	Br	1.659993	-0.047250	1.090782
H253	H	0.981607	-0.904053	0.487820
H254	H	1.231607	-0.654053	0.737820
H255	H	1.481607	-0.404053	0.987820
H256	H	1.731607	-0.154053	1.237820
Br257	Br	1.116974	-0.796885	0.565654
Br258	Br	1.366974	-0.546885	0.815654
Br259	Br	1.616974	-0.296885	1.065654
Br260	Br	1.866974	-0.046885	1.315654
