data_functionalizedCrystal
_audit_creation_method	'MofGen! by Chris Wilmer'
_symmetry_space_group_name_H-M	'P1'
_symmetry_Int_Tables_number	1
_symmetry_cell_setting	triclinic
loop_
_symmetry_equiv_pos_as_xyz
  x,y,z
_cell_length_a	18.050589
_cell_length_b	11.169417
_cell_length_c	11.169409
_cell_angle_alpha	89.978351
_cell_angle_beta	90.032850
_cell_angle_gamma	89.973557
loop_
_atom_site_label
_atom_site_type_symbol
_atom_site_fract_x
_atom_site_fract_y
_atom_site_fract_z
Zn1	Zn	-0.295635	-1.834813	0.678597
Zn2	Zn	0.037699	-1.501480	1.011930
Zn3	Zn	0.371032	-1.168147	1.345263
Zn4	Zn	-0.419850	-1.834640	0.477912
Zn5	Zn	-0.086516	-1.501307	0.811245
Zn6	Zn	0.246817	-1.167973	1.144579
Zn7	Zn	-0.295674	-1.634099	0.477925
Zn8	Zn	0.037659	-1.300766	0.811258
Zn9	Zn	0.370993	-0.967432	1.144591
Zn10	Zn	-0.419783	-1.634044	0.678550
Zn11	Zn	-0.086450	-1.300711	1.011884
Zn12	Zn	0.246883	-0.967377	1.345217
O13	O	-0.357735	-1.734399	0.578246
O14	O	-0.024402	-1.401066	0.911579
O15	O	0.308931	-1.067732	1.244913
O16	O	-0.312123	-2.002740	0.651990
O17	O	0.021210	-1.669407	0.985323
O18	O	0.354544	-1.336073	1.318656
O19	O	-0.403422	-1.807988	0.309964
O20	O	-0.070088	-1.474655	0.643297
O21	O	0.263245	-1.141322	0.976630
O22	O	-0.191744	-1.660820	0.504569
O23	O	0.141589	-1.327486	0.837903
O24	O	0.474922	-0.994153	1.171236
O25	O	-0.403383	-2.002613	0.504547
O26	O	-0.070050	-1.669279	0.837881
O27	O	0.263283	-1.335946	1.171214
O28	O	-0.191715	-1.808284	0.652002
O29	O	0.141618	-1.474950	0.985335
O30	O	0.474952	-1.141617	1.318669
O31	O	-0.312190	-1.660652	0.309973
O32	O	0.021143	-1.327318	0.643307
O33	O	0.354476	-0.993985	0.976640
O34	O	-0.312126	-1.466142	0.504524
O35	O	0.021207	-1.132809	0.837857
O36	O	0.354540	-0.799475	1.171191
O37	O	-0.403271	-1.660726	0.846506
O38	O	-0.069937	-1.327393	1.179840
O39	O	0.263396	-0.994059	1.513173
O40	O	-0.403309	-1.466102	0.651923
O41	O	-0.069975	-1.132768	0.985256
O42	O	0.263358	-0.799435	1.318590
O43	O	-0.312059	-1.808230	0.846540
O44	O	0.021274	-1.474897	1.179874
O45	O	0.354608	-1.141564	1.513207
O46	O	-0.523765	-1.807935	0.504502
O47	O	-0.190432	-1.474602	0.837836
O48	O	0.142901	-1.141268	1.171169
O49	O	-0.523717	-1.660558	0.651910
O50	O	-0.190383	-1.327225	0.985244
O51	O	0.142950	-0.993891	1.318577
C52	C	-0.357715	-1.422574	0.578221
C53	C	-0.024382	-1.089241	0.911554
C54	C	0.308951	-0.755908	1.244887
C55	C	-0.357724	-1.289174	0.578238
C56	C	-0.024391	-0.955841	0.911572
C57	C	0.308942	-0.622508	1.244905
C58	C	-0.550688	-1.734254	0.578226
C59	C	-0.217354	-1.400921	0.911559
C60	C	0.115979	-1.067588	1.244893
C61	C	-0.633233	-1.734302	0.578258
C62	C	-0.299900	-1.400969	0.911591
C63	C	0.033433	-1.067635	1.244924
C64	C	-0.832684	-1.654237	0.658390
C65	C	-0.499351	-1.320904	0.991724
C66	C	-0.166018	-0.987571	1.325057
C67	C	-0.882135	-1.624974	0.548874
C68	C	-0.548802	-1.291641	0.882207
C69	C	-0.215469	-0.958307	1.215541
C70	C	-0.784364	-1.734420	0.578273
C71	C	-0.451030	-1.401087	0.911607
C72	C	-0.117697	-1.067753	1.244940
C73	C	-0.881995	-1.763742	0.687802
C74	C	-0.548661	-1.430409	1.021135
C75	C	-0.215328	-1.097075	1.354469
C76	C	-0.930349	-1.734532	0.578298
C77	C	-0.597015	-1.401198	0.911631
C78	C	-0.263682	-1.067865	1.244965
C79	C	-0.832727	-1.705099	0.468699
C80	C	-0.499394	-1.371766	0.802032
C81	C	-0.166060	-1.038432	1.135366
C82	C	-0.832582	-1.843918	0.607701
C83	C	-0.499249	-1.510585	0.941034
C84	C	-0.165916	-1.177252	1.274368
C85	C	-0.882011	-1.814697	0.498109
C86	C	-0.548677	-1.481363	0.831443
C87	C	-0.215344	-1.148030	1.164776
C88	C	-0.700265	-1.734353	0.578261
C89	C	-0.366932	-1.401019	0.911594
C90	C	-0.033599	-1.067686	1.244927
C91	C	-1.014445	-1.734599	0.578298
C92	C	-0.681112	-1.401266	0.911632
C93	C	-0.347779	-1.067932	1.244965
C94	C	-0.164030	-1.734577	0.578292
C95	C	0.169304	-1.401244	0.911626
C96	C	0.502637	-1.067911	1.244959
C97	C	-0.081484	-1.734653	0.578312
C98	C	0.251849	-1.401320	0.911645
C99	C	0.585183	-1.067986	1.244979
C100	C	-0.357653	-1.734491	0.891289
C101	C	-0.024320	-1.401158	1.224622
C102	C	0.309014	-1.067825	1.557955
C103	C	-0.357618	-1.734531	1.024689
C104	C	-0.024284	-1.401197	1.358022
C105	C	0.309049	-1.067864	1.691355
C106	C	-0.357749	-1.047441	0.578264
C107	C	-0.024416	-0.714108	0.911597
C108	C	0.308918	-0.380775	1.244931
C109	C	-0.357736	-1.180841	0.578251
C110	C	-0.024403	-0.847508	0.911585
C111	C	0.308930	-0.514175	1.244918
C112	C	-0.357764	-1.734376	0.266421
C113	C	-0.024431	-1.401043	0.599755
C114	C	0.308903	-1.067710	0.933088
C115	C	-0.357590	-1.734570	0.133022
C116	C	-0.024257	-1.401236	0.466355
C117	C	0.309077	-1.067903	0.799688
H118	H	-0.811026	-1.586330	0.726047
H119	H	-0.477692	-1.252996	1.059380
H120	H	-0.144359	-0.919663	1.392713
F121	F	-0.910583	-1.504002	0.516342
F122	F	-0.577250	-1.170669	0.849675
F123	F	-0.243916	-0.837336	1.183009
H124	H	-0.903532	-1.882552	0.430289
H125	H	-0.570199	-1.549219	0.763623
H126	H	-0.236866	-1.215886	1.096956
H127	H	-0.810802	-1.936444	0.632621
H128	H	-0.477469	-1.603111	0.965954
H129	H	-0.144135	-1.269777	1.299288
H130	H	-0.811175	-1.680236	0.376056
H131	H	-0.477842	-1.346902	0.709390
H132	H	-0.144508	-1.013569	1.042723
F133	F	-0.910285	-1.796100	0.808857
F134	F	-0.576952	-1.462766	1.142191
F135	F	-0.243618	-1.129433	1.475524
