data_functionalizedCrystal
_audit_creation_method	'MofGen! by Chris Wilmer'
_symmetry_space_group_name_H-M	'P1'
_symmetry_Int_Tables_number	1
_symmetry_cell_setting	triclinic
loop_
_symmetry_equiv_pos_as_xyz
  x,y,z
_cell_length_a	13.897449
_cell_length_b	18.101396
_cell_length_c	18.101398
_cell_angle_alpha	89.997269
_cell_angle_beta	90.005916
_cell_angle_gamma	89.962150
loop_
_atom_site_label
_atom_site_type_symbol
_atom_site_fract_x
_atom_site_fract_y
_atom_site_fract_z
Zn1	Zn	1.474407	0.294990	0.418774
Zn2	Zn	1.474295	0.418786	0.294938
Zn3	Zn	1.313145	0.294965	0.294944
Zn4	Zn	1.313023	0.418796	0.418734
O5	O	1.393717	0.356884	0.356848
O6	O	1.609373	0.311418	0.402361
O7	O	1.452923	0.402347	0.191306
O8	O	1.334634	0.191335	0.311390
O9	O	1.609292	0.402371	0.311379
O10	O	1.453112	0.191353	0.402367
O11	O	1.334526	0.311376	0.191310
O12	O	1.178147	0.311385	0.311351
O13	O	1.334426	0.402387	0.522373
O14	O	1.178058	0.402363	0.402299
O15	O	1.452994	0.311427	0.522402
O16	O	1.452805	0.522420	0.311340
O17	O	1.334319	0.522427	0.402293
C18	C	1.143103	0.356873	0.356822
C19	C	1.035889	0.356886	0.356828
C20	C	0.948819	0.356888	0.356841
C21	C	0.839587	0.356893	0.356863
C22	C	1.393563	0.549295	0.356828
C23	C	1.393584	0.631609	0.356844
C24	C	1.393756	0.930700	0.356887
C25	C	1.319385	0.899410	0.414254
C26	C	1.319043	0.813792	0.414074
C27	C	1.393671	0.782317	0.356867
C28	C	1.366172	0.813436	0.278817
C29	C	1.365681	0.899081	0.279161
C30	C	1.495793	0.899050	0.376883
C31	C	1.495204	0.813400	0.378594
C32	C	1.393624	0.698458	0.356850
C33	C	1.393800	1.014559	0.356899
C34	C	1.645310	0.356896	0.356874
C35	C	1.752524	0.356901	0.356885
C36	C	1.393709	0.356911	0.550009
C37	C	1.393706	0.356922	0.632324
C38	C	1.393865	1.163722	0.356886
C39	C	1.393842	1.081408	0.356910
C40	C	1.393698	0.356910	0.783032
C41	C	1.319102	0.414138	0.814367
C42	C	1.318806	0.413963	0.899986
C43	C	1.393691	0.356900	0.931415
C44	C	1.366506	0.278796	0.900329
C45	C	1.365968	0.279133	0.814684
C46	C	1.495668	0.377102	0.814602
C47	C	1.495116	0.378818	0.900253
C48	C	1.393689	0.356889	1.015274
C49	C	1.393698	0.356916	0.699173
C50	C	1.393709	0.356880	1.164437
C51	C	1.393684	0.356888	1.082123
H52	H	1.336245	0.792752	0.471947
Cl53	Cl	1.534499	0.932352	0.463258
Cl54	Cl	1.526782	0.467562	0.931620
H55	H	1.419173	0.234989	0.920686
H56	H	1.243973	0.400916	0.792841
H57	H	1.553638	0.340196	0.921650
Cl58	Cl	1.585292	0.780311	0.318790
Cl59	Cl	1.581346	0.930302	0.312387
H60	H	1.243245	0.400576	0.920471
H61	H	1.243416	0.793364	0.400828
Cl62	Cl	1.446236	0.211038	0.782676
Cl63	Cl	1.581472	0.312757	0.783312
Cl64	Cl	1.252240	0.780416	0.252196
H65	H	1.292797	0.261416	0.921776
H66	H	1.335774	0.471870	0.921003
H67	H	1.291443	0.262051	0.794705
H68	H	1.244211	0.920991	0.401176
Cl69	Cl	1.527226	0.781999	0.467277
H70	H	1.336410	0.919981	0.472315
Cl71	Cl	1.250523	0.930020	0.253012
H72	H	1.417501	0.919780	0.234961
Cl73	Cl	1.533988	0.463550	0.781262
H74	H	1.335871	0.472229	0.793773
Cl75	Cl	1.447180	0.781959	0.211022
