data_functionalizedCrystal
_audit_creation_method	'MofGen! by Chris Wilmer'
_symmetry_space_group_name_H-M	'P1'
_symmetry_Int_Tables_number	1
_symmetry_cell_setting	triclinic
loop_
_symmetry_equiv_pos_as_xyz
  x,y,z
_cell_length_a	6.817900
_cell_length_b	9.582860
_cell_length_c	17.078481
_cell_angle_alpha	94.514419
_cell_angle_beta	99.306161
_cell_angle_gamma	111.206767
loop_
_atom_site_label
_atom_site_type_symbol
_atom_site_fract_x
_atom_site_fract_y
_atom_site_fract_z
V1	V	-4.019535	-0.206706	-0.247216
O2	O	-3.966058	0.010293	-0.242660
O3	O	-4.010657	-0.410210	-0.245382
O4	O	-3.949937	-0.203369	-0.355102
O5	O	-4.027199	-0.197980	-0.132181
V6	V	-4.500789	-0.180770	-0.233475
O7	O	-4.285772	-0.263601	-0.277360
O8	O	-4.684750	-0.123875	-0.203331
O9	O	-4.286461	0.022734	-0.235309
O10	O	-4.671663	-0.397769	-0.238031
O11	O	-4.610522	-0.189496	-0.348511
O12	O	-4.347181	-0.184107	-0.125589
C13	C	-3.865958	-0.459825	-0.241445
C14	C	-3.939845	-0.626190	-0.240664
C15	C	-3.788503	-0.195977	-0.381402
C16	C	-3.813143	-0.194595	-0.469598
C17	C	-4.007502	-0.201416	-0.515069
C18	C	-4.030643	-0.200116	-0.597938
C19	C	-3.859426	-0.192006	-0.635336
C20	C	-3.665049	-0.185180	-0.589858
C21	C	-3.641907	-0.186469	-0.506990
C22	C	-3.909036	-0.187341	-0.882742
C23	C	-3.932197	-0.186057	-0.965617
C24	C	-4.297788	-0.200991	-0.973691
C25	C	-4.274632	-0.202288	-0.890822
C26	C	-4.080254	-0.195454	-0.845351
N27	N	-3.883077	-0.190682	-0.720041
N28	N	-4.056601	-0.196767	-0.760646
C29	C	-4.094504	0.072341	-0.239244
C30	C	-3.999855	0.238705	-0.240030
C31	C	-4.171959	-0.191504	-0.099285
C32	C	-4.126556	-0.192879	-0.011088
H33	H	-4.188903	-0.205662	-0.634957
H34	H	-4.456043	-0.206553	-1.010722
O35	O	-3.765677	-0.177894	-1.001890
C36	C	-3.587540	-0.043479	-0.968506
H37	H	-3.645314	0.042789	-0.940626
H38	H	-3.473955	-0.068994	-0.920303
C39	C	-3.397386	-0.084673	-1.069057
C40	C	-3.468347	0.021288	-1.034820
H41	H	-3.323854	-0.044724	-1.109961
H42	H	-3.517395	-0.175234	-1.091546
H43	H	-3.302743	-0.105926	-1.028880
H44	H	-3.563008	0.042525	-1.074994
H45	H	-3.348349	0.111855	-1.012339
O46	O	-4.440774	-0.210235	-0.854376
C47	C	-4.378656	-0.209882	-0.771481
H48	H	-4.240785	-0.251222	-0.760594
H49	H	-4.324013	-0.090003	-0.738268
C50	C	-4.740191	-0.264816	-0.753875
C51	C	-4.570867	-0.315603	-0.740504
H52	H	-4.858756	-0.330023	-0.734765
H53	H	-4.782041	-0.265048	-0.809722
H54	H	-4.694627	-0.164917	-0.726197
H55	H	-4.616424	-0.415492	-0.768191
H56	H	-4.529028	-0.315389	-0.684661
O57	O	-3.498539	-0.177027	-0.626126
C58	C	-3.320394	-0.042621	-0.592737
H59	H	-3.378160	0.043656	-0.564862
H60	H	-3.206831	-0.068146	-0.544530
C61	C	-3.130218	-0.083832	-0.693276
C62	C	-3.201170	0.022139	-0.659046
H63	H	-3.056668	-0.043887	-0.734177
H64	H	-3.250234	-0.174387	-0.715770
H65	H	-3.035595	-0.105094	-0.653096
H66	H	-3.295812	0.043385	-0.699223
H67	H	-3.081167	0.112700	-0.636560
O68	O	-3.453031	-0.179592	-0.462759
C69	C	-3.367454	-0.049718	-0.403898
H70	H	-3.435315	0.037442	-0.423707
H71	H	-3.412889	-0.082136	-0.344594
C72	C	-3.037580	-0.088846	-0.368627
C73	C	-3.120915	0.018210	-0.392959
H74	H	-2.885503	-0.046947	-0.361876
H75	H	-3.095236	-0.176348	-0.408281
H76	H	-3.075463	-0.115852	-0.319209
H77	H	-3.083054	0.045201	-0.442381
H78	H	-3.063246	0.105719	-0.353314
H79	H	-4.146935	-0.208030	-0.484627
H80	H	-3.750791	-0.181829	-0.845734
