data_functionalizedCrystal
_audit_creation_method	'MofGen! by Chris Wilmer'
_symmetry_space_group_name_H-M	'P1'
_symmetry_Int_Tables_number	1
_symmetry_cell_setting	triclinic
loop_
_symmetry_equiv_pos_as_xyz
  x,y,z
_cell_length_a	13.339070
_cell_length_b	11.026607
_cell_length_c	10.065875
_cell_angle_alpha	100.697662
_cell_angle_beta	101.189098
_cell_angle_gamma	67.892344
loop_
_atom_site_label
_atom_site_type_symbol
_atom_site_fract_x
_atom_site_fract_y
_atom_site_fract_z
O1	O	0.438892	-1.775693	-0.113488
O2	O	0.387504	-1.405085	-0.113490
O3	O	0.258189	-1.547855	-0.113485
O4	O	0.568207	-1.632923	-0.113493
O5	O	0.282974	-1.520673	0.113503
O6	O	0.412289	-1.377903	0.113498
O7	O	0.463677	-1.748512	0.113500
Zn8	Zn	0.441918	-1.558892	0.149538
Zn9	Zn	0.409263	-1.594705	-0.149528
O10	O	0.592992	-1.605742	0.113495
C11	C	0.390416	-1.343091	0.000003
C12	C	0.362155	-1.198862	0.000002
C13	C	0.230276	-1.519895	0.000007
C14	C	0.110173	-1.477063	0.000001
C15	C	0.460765	-1.810506	0.000004
C16	C	0.489025	-1.954736	-0.000004
C17	C	-0.193970	-1.810105	0.000004
C18	C	-0.081127	-1.850350	0.000017
C19	C	-0.033296	-1.757032	0.000013
C20	C	-0.098320	-1.623461	-0.000004
C21	C	-0.211174	-1.583210	-0.000006
C22	C	-0.050500	-1.530137	0.000002
C23	C	-0.115524	-1.396566	-0.000014
C24	C	-0.228366	-1.356322	-0.000018
C25	C	-0.276197	-1.449641	-0.000013
C26	C	0.062354	-1.570388	0.000005
C27	C	0.045150	-1.343493	-0.000006
C28	C	-0.067693	-1.303248	-0.000019
C29	C	0.620905	-1.633702	0.000000
C30	C	0.741007	-1.676535	-0.000003
N31	N	0.464206	-1.534460	0.353643
C32	C	0.440188	-1.151330	-0.000000
C33	C	0.410981	-1.002262	-0.000001
N34	N	0.386969	-1.619144	-0.353633
C35	C	0.417009	-1.586194	0.421424
C36	C	0.434172	-1.567403	0.578590
H37	H	0.115286	-1.679142	0.000019
H38	H	0.058586	-1.789808	0.000024
H39	H	-0.120651	-1.194492	-0.000032
H40	H	0.517315	-1.476251	0.411967
N41	N	0.557327	-1.243594	0.000006
H42	H	0.561588	-1.337005	0.000008
H43	H	0.585182	-1.237762	-0.084144
N44	N	0.504533	-1.490300	0.655824
H45	H	0.472880	-1.397308	0.631045
H46	H	0.506798	-1.487905	0.757125
N47	N	0.293840	-0.909989	-0.000000
H48	H	0.247538	-0.935860	-0.084143
H49	H	0.266010	-0.915746	0.084201
H50	H	-0.028192	-1.959103	0.000033
H51	H	0.363890	-1.644391	0.363101
N52	N	0.096725	-1.242828	0.000006
H53	H	0.178079	-1.288593	0.000009
H54	H	0.064063	-1.196324	-0.084139
N55	N	-0.298510	-1.212262	-0.000031
H56	H	-0.336527	-1.180433	0.084114
H57	H	-0.251031	-1.159343	-0.000087
H58	H	0.273722	-1.129200	-0.000030
N59	N	0.606170	-1.046988	-0.000023
H60	H	0.652473	-1.021113	0.084116
H61	H	0.610343	-1.140370	-0.000077
N62	N	-0.245554	-1.910741	0.000033
H63	H	-0.326907	-1.864971	0.000036
H64	H	-0.231268	-1.977403	-0.084107
N65	N	0.316600	-1.696238	0.569135
H66	H	0.314309	-1.698733	0.467808
H67	H	0.348292	-1.789188	0.594019
H68	H	-0.368083	-1.416879	-0.000029
