data_functionalizedCrystal
_audit_creation_method	'MofGen! by Chris Wilmer'
_symmetry_space_group_name_H-M	'P1'
_symmetry_Int_Tables_number	1
_symmetry_cell_setting	triclinic
loop_
_symmetry_equiv_pos_as_xyz
  x,y,z
_cell_length_a	17.639181
_cell_length_b	17.640280
_cell_length_c	17.640968
_cell_angle_alpha	65.682561
_cell_angle_beta	87.836484
_cell_angle_gamma	70.392638
loop_
_atom_site_label
_atom_site_type_symbol
_atom_site_fract_x
_atom_site_fract_y
_atom_site_fract_z
Zn1	Zn	1.336294	-0.572283	-0.060694
Zn2	Zn	1.836294	-0.072283	0.439306
Zn3	Zn	1.336229	-0.737935	0.104928
Zn4	Zn	1.836229	-0.237935	0.604928
Zn5	Zn	1.181920	-0.561073	0.037942
Zn6	Zn	1.681920	-0.061073	0.537942
Zn7	Zn	1.226345	-0.682203	-0.060727
Zn8	Zn	1.726345	-0.182203	0.439273
O9	O	1.270197	-0.638373	0.005362
O10	O	1.770197	-0.138373	0.505362
O11	O	1.446878	-0.622272	-0.010676
O12	O	1.946878	-0.122272	0.489324
O13	O	1.297140	-0.733107	0.206649
O14	O	1.797140	-0.233107	0.706649
O15	O	1.183832	-0.442541	-0.003163
O16	O	1.683832	0.057459	0.496837
O17	O	1.446830	-0.743976	0.111006
O18	O	1.946830	-0.243976	0.611006
O19	O	1.297250	-0.450776	-0.075630
O20	O	1.797250	0.049224	0.424370
O21	O	1.183770	-0.603167	0.157435
O22	O	1.683770	-0.103167	0.657435
O23	O	1.077220	-0.549126	-0.003195
O24	O	1.577220	-0.049126	0.496805
O25	O	1.259550	-0.648989	-0.171330
O26	O	1.759550	-0.148989	0.328670
O27	O	1.109860	-0.638119	-0.075687
O28	O	1.609860	-0.138119	0.424313
O29	O	1.340328	-0.568231	-0.171305
O30	O	1.840328	-0.068231	0.328695
O31	O	1.340218	-0.850561	0.110974
O32	O	1.840218	-0.350561	0.610974
O33	O	1.259487	-0.809615	-0.010733
O34	O	1.759487	-0.309615	0.489267
C35	C	1.064865	-0.586359	-0.046714
C36	C	1.564865	-0.086359	0.453286
C37	C	0.977029	-0.564124	-0.069006
C38	C	1.477029	-0.064124	0.430994
C39	C	1.304691	-0.861210	0.057374
C40	C	1.804691	-0.361210	0.557374
C41	C	1.319524	-0.956555	0.079617
C42	C	1.819524	-0.456555	0.579617
C43	C	0.687921	-0.807475	0.174749
C44	C	1.187921	-0.307475	0.674749
C45	C	0.605386	-0.786570	0.153792
C46	C	1.105386	-0.286570	0.653792
C47	C	0.605487	-0.659991	0.026976
C48	C	1.105487	-0.159991	0.526976
C49	C	0.688023	-0.680883	0.047924
C50	C	1.188023	-0.180883	0.547924
C51	C	0.729234	-0.754627	0.121811
C52	C	1.229234	-0.254627	0.621811
C53	C	0.729336	-0.628035	-0.005014
C54	C	1.229336	-0.128035	0.494986
C55	C	0.811866	-0.648929	0.015930
C56	C	1.311866	-0.148929	0.515930
C57	C	0.853084	-0.722671	0.089813
C58	C	1.353084	-0.222671	0.589813
C59	C	0.811764	-0.775521	0.142755
C60	C	1.311764	-0.275521	0.642755
C61	C	0.688125	-0.554295	-0.078904
C62	C	1.188125	-0.054295	0.421096
C63	C	0.729438	-0.501447	-0.131842
C64	C	1.229438	-0.001447	0.368158
C65	C	0.811968	-0.522337	-0.110895
C66	C	1.311968	-0.022337	0.389105
C67	C	0.853186	-0.596079	-0.037012
C68	C	1.353186	-0.096079	0.462988
C69	C	0.853288	-0.469487	-0.163837
C70	C	1.353288	0.030513	0.336163
C71	C	0.935818	-0.490381	-0.142893
C72	C	1.435818	0.009619	0.357107
C73	C	0.935716	-0.616973	-0.016068
C74	C	1.435716	-0.116973	0.483932
C75	C	1.157883	-1.163671	-0.163820
C76	C	1.657883	-0.663671	0.336180
C77	C	1.171818	-1.253266	-0.142894
C78	C	1.671818	-0.753266	0.357106
C79	C	1.255963	-1.295837	-0.016247
C80	C	1.755963	-0.795837	0.483753
C81	C	1.242038	-1.206243	-0.037164
C82	C	1.742038	-0.706243	0.462836
C83	C	1.192996	-1.140167	-0.110951
C84	C	1.692996	-0.640167	0.389049
C85	C	1.277152	-1.182739	0.015704
C86	C	1.777152	-0.682739	0.515704
C87	C	1.263224	-1.093154	-0.005210
C88	C	1.763224	-0.593154	0.494790
C89	C	1.214183	-1.027072	-0.078992
C90	C	1.714183	-0.527072	0.421008
C91	C	1.179069	-1.050581	-0.131865
C92	C	1.679069	-0.550581	0.368135
C93	C	1.326189	-1.248817	0.089493
C94	C	1.826189	-0.748817	0.589493
C95	C	1.361302	-1.225313	0.142362
C96	C	1.861302	-0.725313	0.642362
C97	C	1.347379	-1.135726	0.121445
C98	C	1.847379	-0.635726	0.621445
C99	C	1.298338	-1.069645	0.047663
C100	C	1.798338	-0.569645	0.547663
C101	C	1.382493	-1.112217	0.174318
C102	C	1.882493	-0.612217	0.674318
C103	C	1.368566	-1.022632	0.153404
C104	C	1.868566	-0.522632	0.653404
C105	C	1.284410	-0.980059	0.026749
C106	C	1.784410	-0.480059	0.526749
C107	C	1.476331	-0.690591	0.057641
C108	C	1.976331	-0.190591	0.557641
C109	C	1.564174	-0.712844	0.079919
C110	C	2.064174	-0.212844	0.579919
C111	C	1.304902	-0.603644	-0.200798
C112	C	1.804902	-0.103644	0.299202
C113	C	1.319691	-0.588844	-0.288652
C114	C	1.819691	-0.088844	0.211348
C115	C	1.235593	-0.414669	-0.046865
C116	C	1.735593	0.085331	0.453135
C117	C	1.220847	-0.319339	-0.069121
C118	C	1.720847	0.180661	0.430879
C119	C	1.158076	-0.750416	-0.577645
C120	C	1.658076	-0.250416	-0.077645
C121	C	1.171988	-0.736502	-0.660195
C122	C	1.671988	-0.236502	-0.160195
C123	C	1.256096	-0.652416	-0.660159
C124	C	1.756096	-0.152416	-0.160159
C125	C	1.242188	-0.666319	-0.577609
C126	C	1.742188	-0.166319	-0.077609
C127	C	1.193178	-0.715320	-0.536358
C128	C	1.693178	-0.215320	-0.036358
C129	C	1.277290	-0.631223	-0.536322
C130	C	1.777290	-0.131223	-0.036322
C131	C	1.263386	-0.645129	-0.453777
C132	C	1.763386	-0.145129	0.046223
C133	C	1.214381	-0.694130	-0.412520
C134	C	1.714381	-0.194130	0.087480
C135	C	1.179275	-0.729226	-0.453813
C136	C	1.679275	-0.229226	0.046187
C137	C	1.326304	-0.582228	-0.577572
C138	C	1.826304	-0.082228	-0.077572
C139	C	1.361406	-0.547132	-0.536285
C140	C	1.861406	-0.047132	-0.036285
C141	C	1.347498	-0.561032	-0.453741
C142	C	1.847498	-0.061032	0.046259
C143	C	1.298492	-0.610034	-0.412484
C144	C	1.798492	-0.110034	0.087516
C145	C	1.382604	-0.525937	-0.412447
C146	C	1.882604	-0.025937	0.087553
C147	C	1.368700	-0.539843	-0.329903
C148	C	1.868700	-0.039843	0.170097
C149	C	1.284589	-0.623939	-0.329939
C150	C	1.784589	-0.123939	0.170061
C151	C	1.235663	-0.672918	0.210718
C152	C	1.735663	-0.172918	0.710718
C153	C	1.220990	-0.687514	0.298553
C154	C	1.720990	-0.187514	0.798553
H155	H	0.969271	-0.677017	0.044102
H156	H	1.469271	-0.177017	0.544102
Br157	Br	0.965092	-0.751034	0.118237
Br158	Br	1.465092	-0.251034	0.618237
H159	H	1.397283	-0.511263	-0.296287
H160	H	1.897283	-0.011263	0.203713
H161	H	1.422514	-0.486048	-0.446043
H162	H	1.922514	0.013952	0.053957
Br163	Br	0.673504	-0.401376	-0.232118
Br164	Br	1.173504	0.098624	0.267882
H165	H	0.845319	-0.835566	0.202925
H166	H	1.345319	-0.335566	0.702925
H167	H	1.139141	-0.996778	-0.191955
H168	H	1.639141	-0.496778	0.308045
Br169	Br	0.743859	-0.907559	0.275024
Br170	Br	1.243859	-0.407559	0.775024
Br171	Br	1.195517	-0.713013	-0.300490
Br172	Br	1.695517	-0.213013	0.199510
Br173	Br	1.124343	-0.784137	-0.716226
Br174	Br	1.624343	-0.284137	-0.216226
Br175	Br	0.549326	-0.858319	0.225631
Br176	Br	1.049326	-0.358319	0.725631
Br177	Br	0.549553	-0.559919	-0.073300
Br178	Br	1.049553	-0.059919	0.426700
H179	H	1.337529	-1.321762	0.106518
H180	H	1.837529	-0.821762	0.606518
Br181	Br	1.427857	-1.314994	0.242497
Br182	Br	1.927857	-0.814994	0.742497
H183	H	0.819723	-0.409450	-0.224000
H184	H	1.319723	0.090550	0.276000
H185	H	0.620924	-0.537289	-0.095956
H186	H	1.120924	-0.037289	0.404044
H187	H	1.139344	-0.769102	-0.420234
H188	H	1.639344	-0.269102	0.079766
H189	H	1.422416	-1.166029	0.234399
H190	H	1.922416	-0.666029	0.734399
H191	H	0.969455	-0.447345	-0.185999
H192	H	1.469455	0.052655	0.314001
Br193	Br	1.322518	-1.385518	0.083889
Br194	Br	1.822518	-0.885518	0.583889
Br195	Br	1.217864	-0.890376	-0.073399
Br196	Br	1.717864	-0.390376	0.426601
H197	H	1.202837	-0.954126	-0.096015
H198	H	1.702837	-0.454126	0.403985
H199	H	1.117955	-1.109867	-0.223909
H200	H	1.617955	-0.609867	0.276091
H201	H	1.143232	-1.272397	-0.185958
H202	H	1.643232	-0.772397	0.314042
H203	H	1.244658	-0.663816	-0.296360
H204	H	1.744658	-0.163816	0.203640
Br205	Br	1.416208	-0.990727	0.225162
Br206	Br	1.916208	-0.490727	0.725162
Br207	Br	1.345179	-0.563362	-0.689596
Br208	Br	1.845179	-0.063362	-0.189596
Br209	Br	1.091552	-0.816906	-0.521659
Br210	Br	1.591552	-0.316906	-0.021659
Br211	Br	1.427921	-0.480638	-0.592273
Br212	Br	1.927921	0.019362	-0.092273
H213	H	1.296002	-0.612523	-0.693756
H214	H	1.796002	-0.112523	-0.193756
