data_functionalizedCrystal
_audit_creation_method	'MofGen! by Chris Wilmer'
_symmetry_space_group_name_H-M	'P1'
_symmetry_Int_Tables_number	1
_symmetry_cell_setting	triclinic
loop_
_symmetry_equiv_pos_as_xyz
  x,y,z
_cell_length_a	19.377625
_cell_length_b	19.377369
_cell_length_c	17.052862
_cell_angle_alpha	81.153800
_cell_angle_beta	75.850219
_cell_angle_gamma	44.223055
loop_
_atom_site_label
_atom_site_type_symbol
_atom_site_fract_x
_atom_site_fract_y
_atom_site_fract_z
Zr1	Zr	0.562936	0.752810	-0.098609
O2	O	0.432147	0.886619	-0.152749
O3	O	0.626616	0.601695	-0.107634
O4	O	0.622625	0.716478	-0.231172
O5	O	0.412457	0.806531	0.097385
O6	O	0.746047	0.707505	-0.263888
O7	O	0.436138	0.771836	-0.029211
O8	O	0.753187	0.502180	-0.042900
O9	O	0.405318	1.011856	-0.123604
O10	O	0.717388	0.663565	-0.104942
O11	O	0.607606	0.696153	0.013950
O12	O	0.602907	0.831295	-0.131501
O13	O	0.493125	0.863884	-0.012609
Zr14	Zr	0.722012	0.793835	0.051118
Zr15	Zr	0.759781	0.738500	-0.150787
Zr16	Zr	0.525167	0.808145	0.103296
Zr17	Zr	0.520146	0.952550	-0.052125
Zr18	Zr	0.764802	0.594095	0.004634
O19	O	0.658332	0.944950	0.060143
O20	O	0.712035	0.866272	-0.226939
O21	O	0.378444	0.965297	0.134333
O22	O	0.852801	0.660026	0.105259
O23	O	0.906504	0.581348	-0.181824
O24	O	0.572913	0.680374	0.179449
O25	O	0.872491	0.740114	-0.144875
O26	O	0.662323	0.830167	0.183682
O27	O	0.538901	0.839140	0.216397
O28	O	0.848810	0.774809	-0.018280
O29	O	0.561783	1.000482	-0.165078
O30	O	0.723166	0.546163	0.117587
O31	O	0.879631	0.534789	0.076113
O32	O	0.909652	0.490805	-0.084374
O33	O	0.375296	1.055840	0.036884
O34	O	0.531761	1.044465	-0.004591
O35	O	0.682041	0.715350	0.084011
O36	O	0.791823	0.682761	-0.034881
O37	O	0.677342	0.850492	-0.061440
O38	O	0.567560	0.883080	0.057452
C39	C	0.695998	0.523479	-0.081890
C40	C	0.714164	0.438684	-0.101624
C41	C	0.487724	0.244595	0.143940
C42	C	0.504906	0.164836	0.125431
C43	C	0.619510	0.130826	0.001317
C44	C	0.602341	0.210580	0.019818
C45	C	0.536446	0.267460	0.091130
C46	C	0.651063	0.233446	-0.032993
C47	C	0.633891	0.313197	-0.014495
C48	C	0.567997	0.370083	0.056812
C49	C	0.519274	0.347212	0.109627
C50	C	0.716952	0.176569	-0.104307
C51	C	0.765675	0.199434	-0.157118
C52	C	0.748508	0.279182	-0.138618
C53	C	0.682614	0.336068	-0.067310
C54	C	0.797231	0.302053	-0.191433
C55	C	0.780059	0.381804	-0.172936
C56	C	0.665442	0.415819	-0.048813
C57	C	0.396252	0.791222	0.041521
C58	C	0.312686	0.797297	0.063672
C59	C	0.103072	0.721680	-0.212146
C60	C	0.024550	0.727388	-0.191305
C61	C	-0.001521	0.765613	-0.051830
C62	C	0.076998	0.759913	-0.072659
C63	C	0.129289	0.737945	-0.152818
C64	C	0.103215	0.776178	-0.013332
C65	C	0.181730	0.770474	-0.034159
C66	C	0.234028	0.748504	-0.114314
C67	C	0.207804	0.732241	-0.173646
C68	C	0.050927	0.798139	0.066828
C69	C	0.077144	0.814404	0.126155
C70	C	0.155656	0.808707	0.105327
C71	C	0.207954	0.786737	0.025172
C72	C	0.181879	0.824970	0.164659
C73	C	0.260394	0.819265	0.143831
C74	C	0.286469	0.781032	0.004345
C75	C	0.888697	0.755423	-0.089012
C76	C	0.972262	0.749348	-0.111163
C77	C	0.689718	0.704107	-0.276297
C78	C	0.705752	0.680616	-0.362011
C79	C	0.588950	1.023166	0.034399
C80	C	0.570784	1.107961	0.054133
C81	C	0.511901	0.964623	-0.659077
C82	C	0.496831	0.986697	-0.578544
C83	C	0.549060	0.910179	-0.524407
C84	C	0.616362	0.811583	-0.550811
C85	C	0.631428	0.789506	-0.631350
C86	C	0.668586	0.735063	-0.496680
C87	C	0.735888	0.636466	-0.523083
C88	C	0.750952	0.614394	-0.603615
C89	C	0.698723	0.690912	-0.657752
C90	C	0.653520	0.757139	-0.416141
C91	C	0.773047	0.582022	-0.388413
C92	C	0.788117	0.559948	-0.468946
C93	C	0.595231	0.842538	0.228807
C94	C	0.579197	0.866029	0.314521
C95	C	0.942221	0.505579	-0.147156
C96	C	1.043952	0.414709	-0.189041
C97	C	0.648755	0.592694	0.170662
C98	C	0.650886	0.531390	0.236642
C99	C	0.894977	0.574794	0.105396
C100	C	0.980675	0.507415	0.149225
C101	C	0.389971	0.971851	-0.152886
C102	C	0.304274	1.039230	-0.196716
C103	C	0.342727	1.041066	0.099666
C104	C	0.240996	1.131936	0.141550
C105	C	0.636193	0.953951	-0.218153
C106	C	0.634062	1.015255	-0.284133
C107	C	1.052873	0.362013	-0.245290
C108	C	1.148454	0.276638	-0.284659
C109	C	1.235113	0.243956	-0.267774
C110	C	1.226188	0.296661	-0.211521
C111	C	1.130608	0.382038	-0.172157
C112	C	0.690740	0.512624	0.304207
C113	C	0.692736	0.455036	0.366214
C114	C	0.654884	0.416210	0.360651
C115	C	0.615024	0.434982	0.293081
C116	C	0.613022	0.492574	0.231078
C117	C	1.078232	0.458762	0.107745
C118	C	1.158761	0.395461	0.148920
C119	C	1.141730	0.380809	0.231574
C120	C	1.044162	0.429470	0.273056
C121	C	0.963635	0.492776	0.231882
C122	C	0.206714	1.087893	-0.155234
C123	C	0.126180	1.151219	-0.196403
C124	C	0.143210	1.165875	-0.279056
C125	C	0.240779	1.117208	-0.320539
C126	C	0.321309	1.053889	-0.279368
C127	C	0.232075	1.184638	0.197793
C128	C	0.136493	1.270029	0.237145
C129	C	0.049834	1.302713	0.220258
C130	C	0.058759	1.250006	0.164008
C131	C	0.154339	1.164620	0.124652
C132	C	0.671923	1.054064	-0.278549
C133	C	0.669939	1.111655	-0.340544
C134	C	0.630087	1.130443	-0.408119
C135	C	0.592225	1.091627	-0.413703
C136	C	0.594216	1.034030	-0.351712
H137	H	0.434066	0.290911	0.202010
C138	C	0.265325	0.708081	-0.261827
N139	N	0.308651	0.689883	-0.328241
H140	H	0.139301	0.842847	0.229926
H141	H	0.400746	1.014265	-0.313155
H142	H	1.238199	0.355845	0.115131
H143	H	0.584206	0.403361	0.288562
H144	H	0.819733	0.400420	-0.215940
C145	C	0.548436	1.112261	-0.488062
N146	N	0.515466	1.127793	-0.544077
C147	C	1.321525	0.260692	-0.192950
N148	N	1.393336	0.233593	-0.178959
H149	H	0.805746	0.534111	-0.625107
C150	C	0.957560	0.397949	-0.263882
N151	N	0.885774	0.425015	-0.277894
C152	C	0.343990	0.756873	-0.083836
N153	N	0.387316	0.738675	-0.150250
C154	C	1.120812	0.439989	-0.110274
N155	N	1.113440	0.483632	-0.063662
C156	C	0.732378	0.555331	0.310346
N157	N	0.763734	0.587500	0.314979
C158	C	0.164137	1.106647	0.062794
N159	N	0.171509	1.062984	0.016203
H160	H	0.046743	1.190834	-0.162613
H161	H	0.563380	1.002438	-0.356267
C162	C	1.158249	0.218671	-0.346527
N163	N	1.165623	0.175010	-0.393123
H164	H	1.092118	0.470679	0.040444
H165	H	0.297962	0.743855	-0.131270
C166	C	0.592945	0.478399	0.029630
N167	N	0.538337	0.525538	0.088708
H168	H	0.628471	1.177343	-0.458591
C169	C	0.160593	0.697521	-0.300326
N170	N	0.203919	0.679323	-0.366741
C171	C	1.230326	0.311160	0.276853
N172	N	1.297061	0.258695	0.310953
H173	H	0.003211	0.714140	-0.239623
H174	H	-0.013001	0.802778	0.083783
C175	C	0.446777	0.409791	0.188070
N176	N	0.392169	0.456930	0.247148
H177	H	0.192830	1.075965	-0.087935
H178	H	0.884202	0.532383	0.265667
C179	C	1.025447	0.413334	0.363976
N180	N	1.011354	0.401172	0.432456
C181	C	0.735842	0.088838	-0.124652
N182	N	0.750071	0.022759	-0.139974
H183	H	0.704375	1.038778	-0.223530
C184	C	0.451276	0.139711	0.183519
N185	N	0.410870	0.120796	0.227264
H186	H	0.302626	1.158037	0.211557
H187	H	-0.044103	0.783496	0.013437
H188	H	1.312934	0.174434	-0.299832
C189	C	0.736599	0.434388	0.440529
N190	N	0.769640	0.418834	0.496500
H191	H	0.656519	0.369316	0.411143
H192	H	0.580573	0.507843	0.176064
C193	C	0.579495	0.865593	-0.387108
N194	N	0.523738	0.947287	-0.365243
H195	H	0.442034	1.066975	-0.557053
C196	C	0.054614	1.235522	-0.324335
N197	N	-0.012119	1.287978	-0.358437
C198	C	0.289225	0.837172	0.209092
N199	N	0.310939	0.850662	0.258248
C200	C	0.259497	1.133330	-0.411462
N201	N	0.273595	1.145469	-0.479948
H202	H	0.129246	1.312931	0.282945
C203	C	-0.055300	1.396639	0.263561
N204	N	-0.134485	1.467382	0.296182
H205	H	0.034562	0.832287	0.191422
H206	H	-0.011812	1.276630	0.150265
H207	H	0.554012	0.435024	0.071869
C208	C	0.838159	0.136856	-0.235558
N209	N	0.892759	0.089721	-0.294638
H210	H	0.700769	1.143256	-0.335982
H211	H	0.850875	0.255738	-0.249499
C212	C	0.715289	0.666636	-0.746343
N213	N	0.727760	0.648355	-0.813070
H214	H	0.536785	0.928158	-0.458834
H215	H	0.673159	0.084508	-0.056747
H216	H	0.842915	0.479670	-0.490456
H217	H	0.469379	1.026914	-0.703160
H218	H	0.815573	0.519715	-0.344334
