data_functionalizedCrystal
_audit_creation_method	'MofGen! by Chris Wilmer'
_symmetry_space_group_name_H-M	'P1'
_symmetry_Int_Tables_number	1
_symmetry_cell_setting	triclinic
loop_
_symmetry_equiv_pos_as_xyz
  x,y,z
_cell_length_a	21.395362
_cell_length_b	29.839131
_cell_length_c	21.395355
_cell_angle_alpha	89.979828
_cell_angle_beta	89.956060
_cell_angle_gamma	90.057297
loop_
_atom_site_label
_atom_site_type_symbol
_atom_site_fract_x
_atom_site_fract_y
_atom_site_fract_z
Zn1	Zn	0.957813	-0.178715	-0.354578
Zn2	Zn	0.957696	-0.253830	-0.249798
Zn3	Zn	0.853028	-0.178736	-0.249780
Zn4	Zn	0.852977	-0.253840	-0.354503
O5	O	0.905378	-0.216280	-0.302165
O6	O	1.045475	-0.188667	-0.340718
O7	O	0.943783	-0.243874	-0.162117
O8	O	0.866998	-0.115866	-0.263706
O9	O	1.045389	-0.243853	-0.263737
O10	O	0.943983	-0.115851	-0.340701
O11	O	0.866884	-0.188702	-0.162104
O12	O	0.765343	-0.188711	-0.263632
O13	O	0.866912	-0.243869	-0.442191
O14	O	0.765306	-0.243889	-0.340571
O15	O	0.943934	-0.188676	-0.442246
O16	O	0.943735	-0.316699	-0.263663
O17	O	0.866798	-0.316705	-0.340589
C18	C	0.742591	-0.216304	-0.302092
C19	C	0.672950	-0.216325	-0.302076
C20	C	0.640233	-0.245094	-0.342078
C21	C	0.574798	-0.245083	-0.342106
C22	C	0.542081	-0.216308	-0.302120
C23	C	0.574805	-0.187533	-0.262115
C24	C	0.640239	-0.187541	-0.262093
C25	C	0.438357	-0.212688	-0.245715
C26	C	0.372925	-0.212683	-0.245736
C27	C	0.340261	-0.216278	-0.302189
C28	C	0.373038	-0.219889	-0.358623
C29	C	0.438472	-0.219897	-0.358601
C30	C	0.471129	-0.216295	-0.302140
C31	C	0.236592	-0.245037	-0.342226
C32	C	0.171155	-0.245023	-0.342254
C33	C	0.171164	-0.187475	-0.262258
C34	C	0.236599	-0.187487	-0.262235
C35	C	0.269309	-0.216270	-0.302218
C36	C	0.905265	-0.333003	-0.302133
C37	C	0.905274	-0.382937	-0.302141
C38	C	0.945512	-0.692564	-0.262168
C39	C	0.945589	-0.880237	-0.262192
O40	O	0.979711	-0.904488	-0.228181
N41	N	0.905508	-0.903722	-0.302212
C42	C	0.865408	-0.880286	-0.342231
O43	O	0.831323	-0.904567	-0.376276
C44	C	0.865334	-0.692614	-0.342210
C45	C	0.905414	-0.669131	-0.302183
C46	C	0.985588	-0.669082	-0.222145
C47	C	0.985566	-0.622166	-0.222136
C48	C	0.945468	-0.598733	-0.262152
C49	C	0.905391	-0.622216	-0.302175
C50	C	0.825238	-0.669178	-0.382232
C51	C	0.825224	-0.622257	-0.382224
C52	C	0.865303	-0.598775	-0.342197
C53	C	0.865271	-0.551867	-0.342182
N54	N	0.905352	-0.528383	-0.302162
C55	C	0.945450	-0.551816	-0.262147
C56	C	0.865449	-0.978816	-0.342239
C57	C	0.865466	-1.025734	-0.342244
C58	C	0.945649	-1.025683	-0.262205
C59	C	0.945627	-0.978764	-0.262198
C60	C	0.905530	-0.955332	-0.302219
C61	C	0.945400	-0.453290	-0.262132
C62	C	0.945373	-0.406370	-0.262126
C63	C	0.865193	-0.406426	-0.342167
C64	C	0.865218	-0.453342	-0.342171
C65	C	0.905327	-0.476772	-0.302152
O66	O	0.831172	-0.527587	-0.376180
O67	O	0.979540	-0.527526	-0.228117
C68	C	0.945534	-0.739480	-0.262176
C69	C	0.905458	-0.762962	-0.302199
C70	C	0.865359	-0.739529	-0.342214
C71	C	0.905475	-0.809880	-0.302204
C72	C	0.945574	-0.833313	-0.262189
C73	C	0.985655	-0.809828	-0.222169
C74	C	0.985633	-0.762913	-0.222161
C75	C	0.825278	-0.763014	-0.382234
C76	C	0.825303	-0.809929	-0.382238
C77	C	0.865402	-0.833362	-0.342223
C78	C	1.068802	-0.216257	-0.302238
C79	C	1.138443	-0.216247	-0.302269
C80	C	0.905431	-0.216271	-0.465588
C81	C	0.905453	-0.216267	-0.535229
C82	C	0.905509	-0.099102	-0.302210
C83	C	0.905565	-0.049167	-0.302229
C84	C	0.945556	-0.187527	-0.567972
C85	C	0.945556	-0.187507	-0.633408
C86	C	0.905458	-0.216237	-0.666098
C87	C	0.865346	-0.244979	-0.633347
C88	C	0.865344	-0.244994	-0.567912
C89	C	0.900471	-0.256689	-0.769760
C90	C	0.900478	-0.256674	-0.835193
C91	C	0.905461	-0.216189	-0.867918
C92	C	0.910451	-0.175717	-0.835203
C93	C	0.910449	-0.175733	-0.769769
C94	C	0.905455	-0.216223	-0.737050
C95	C	0.945566	-0.187425	-0.971614
C96	C	0.945561	-0.187405	-1.037051
C97	C	0.865355	-0.244881	-1.036988
C98	C	0.865357	-0.244897	-0.971553
C99	C	0.905466	-0.216170	-0.938870
C100	C	0.905363	-0.216257	-0.139377
C101	C	0.905462	-0.216134	-0.069736
H102	H	0.464947	-0.209759	-0.199741
N103	N	0.824387	-0.274320	-0.666745
N104	N	0.824394	-0.274303	-0.725168
H105	H	0.795463	-0.295024	-0.748756
N106	N	0.824479	-0.954883	-0.383113
N107	N	0.784551	-0.928746	-0.361019
H108	H	0.755615	-0.911844	-0.389885
H109	H	0.896245	-0.289648	-0.743120
N110	N	0.339459	-0.208991	-0.188088
N111	N	0.346788	-0.175282	-0.154199
H112	H	0.323156	-0.172674	-0.113482
H113	H	0.832683	-0.268398	-0.541253
H114	H	0.832544	-0.387340	-0.374745
N115	N	0.541389	-0.158146	-0.221261
N116	N	0.548629	-0.161066	-0.163436
H117	H	0.525029	-0.140309	-0.134583
H118	H	1.018269	-0.743797	-0.189567
H119	H	1.018245	-0.688156	-0.189559
H120	H	0.144519	-0.268450	-0.374833
N121	N	0.986516	-0.158151	-0.666875
N122	N	0.964507	-0.129519	-0.703377
H123	H	0.993435	-0.108786	-0.727014
H124	H	0.263237	-0.164062	-0.229657
N125	N	0.824393	-0.274252	-0.938095
N126	N	0.784484	-0.258457	-0.901555
H127	H	0.755549	-0.279188	-0.877925
N128	N	0.895358	-0.298019	-0.868590
N129	N	0.935640	-0.327876	-0.861309
H130	H	0.932011	-0.357079	-0.884888
H131	H	0.914510	-0.142779	-0.743135
N132	N	0.673652	-0.158148	-0.221228
N133	N	0.644437	-0.132453	-0.185533
H134	H	0.668034	-0.111694	-0.156670
H135	H	0.792598	-0.688290	-0.414823
N136	N	0.471933	-0.223571	-0.416254
N137	N	0.464705	-0.194681	-0.457939
H138	H	0.488333	-0.197272	-0.498661
H139	H	0.978263	-0.959647	-0.229605
N140	N	0.986520	-0.158078	-0.938215
N141	N	0.986514	-0.158096	-0.879792
H142	H	1.015437	-0.137370	-0.856204
N143	N	0.673635	-0.274497	-0.382923
N144	N	0.644411	-0.300182	-0.418638
H145	H	0.668002	-0.320948	-0.447486
H146	H	0.978010	-0.387252	-0.229529
H147	H	1.018303	-0.828916	-0.189585
H148	H	0.978216	-0.164134	-0.541366
H149	H	0.978217	-0.163998	-1.063709
H150	H	0.792573	-0.603181	-0.414816
N151	N	0.986602	-1.049623	-0.221323
N152	N	0.964589	-1.075837	-0.181373
H153	H	0.993513	-1.092747	-0.152503
N154	N	0.541380	-0.274474	-0.382974
N155	N	0.570593	-0.300169	-0.418670
H156	H	0.546993	-0.320927	-0.447534
N157	N	0.824265	-0.477324	-0.383050
N158	N	0.788461	-0.456394	-0.418769
H159	H	0.759539	-0.473328	-0.447643
N160	N	0.824512	-1.049718	-0.383116
N161	N	0.766698	-1.044529	-0.378884
H162	H	0.737773	-1.061466	-0.407752
N163	N	0.339672	-0.223575	-0.416286
N164	N	0.281249	-0.223572	-0.416300
H165	H	0.257681	-0.226180	-0.457023
H166	H	0.144526	-0.164043	-0.229704
N167	N	0.986372	-0.477212	-0.221249
N168	N	1.022147	-0.456233	-0.185518
H169	H	1.051080	-0.473127	-0.156641
H170	H	0.263226	-0.268472	-0.374785
N171	N	0.784351	-0.833906	-0.423127
N172	N	0.748554	-0.812973	-0.458850
H173	H	0.719635	-0.829904	-0.487730
N174	N	0.824393	-0.274221	-1.070382
N175	N	0.824397	-0.274201	-1.128804
H176	H	0.795464	-0.294922	-1.152392
N177	N	1.026502	-0.598189	-0.181239
N178	N	1.022372	-0.603463	-0.123422
H179	H	1.051286	-0.586534	-0.094533
N180	N	0.784315	-0.739089	-0.423117
N181	N	0.748536	-0.760068	-0.458844
H182	H	0.719600	-0.743173	-0.487719
H183	H	0.914510	-0.142751	-0.861847
