data_functionalizedCrystal
_audit_creation_method	'MofGen! by Chris Wilmer'
_symmetry_space_group_name_H-M	'P1'
_symmetry_Int_Tables_number	1
_symmetry_cell_setting	triclinic
loop_
_symmetry_equiv_pos_as_xyz
  x,y,z
_cell_length_a	27.731994
_cell_length_b	27.732048
_cell_length_c	14.586319
_cell_angle_alpha	89.991275
_cell_angle_beta	90.002590
_cell_angle_gamma	82.631595
loop_
_atom_site_label
_atom_site_type_symbol
_atom_site_fract_x
_atom_site_fract_y
_atom_site_fract_z
O1	O	0.640944	0.057392	-0.076119
O2	O	1.140944	0.557392	0.423881
O3	O	0.500146	0.066165	-0.076151
O4	O	1.000146	0.566165	0.423849
O5	O	0.574918	-0.008620	-0.076117
O6	O	1.074918	0.491380	0.423883
O7	O	0.566172	0.132176	-0.076154
O8	O	1.066172	0.632176	0.423846
O9	O	0.574913	-0.008621	0.076364
O10	O	1.074913	0.491379	0.576364
O11	O	0.500141	0.066163	0.076330
O12	O	1.000141	0.566163	0.576330
O13	O	0.640939	0.057391	0.076361
O14	O	1.140939	0.557391	0.576361
Cu15	Cu	0.570540	0.061777	0.090268
Cu16	Cu	1.070540	0.561777	0.590268
Cu17	Cu	0.570546	0.061778	-0.090058
Cu18	Cu	1.070546	0.561778	0.409942
O19	O	0.566167	0.132175	0.076327
O20	O	1.066167	0.632175	0.576327
C21	C	0.482137	0.065984	0.000085
C22	C	0.982137	0.565984	0.500085
C23	C	0.428480	0.065442	0.000074
C24	C	0.928480	0.565442	0.500074
C25	C	0.574732	-0.026627	0.000126
C26	C	1.074732	0.473373	0.500126
C27	C	0.574179	-0.080282	0.000133
C28	C	1.074179	0.419718	0.500133
C29	C	0.095759	0.062025	0.083227
C30	C	0.595759	0.562025	0.583227
C31	C	-0.105899	0.059964	0.083238
C32	C	0.394101	0.559964	0.583238
O33	O	-0.131974	0.059676	0.153926
O34	O	0.368026	0.559676	0.653926
N35	N	-0.131111	0.059708	0.000121
N36	N	0.368889	0.559708	0.500121
C37	C	-0.105905	0.059965	-0.083005
C38	C	0.394095	0.559965	0.416995
O39	O	-0.131976	0.059695	-0.153701
O40	O	0.368024	0.559695	0.346299
C41	C	0.095753	0.062023	-0.083015
C42	C	0.595753	0.562023	0.416985
C43	C	0.120961	0.062283	0.000108
C44	C	0.620961	0.562283	0.500108
C45	C	0.120968	0.062285	0.166343
C46	C	0.620968	0.562285	0.666343
C47	C	0.171379	0.062803	0.166340
C48	C	0.671379	0.562803	0.666340
C49	C	0.196581	0.063061	0.083220
C50	C	0.696581	0.563061	0.583220
C51	C	0.171372	0.062801	0.000104
C52	C	0.671372	0.562801	0.500104
C53	C	0.120958	0.062276	-0.166139
C54	C	0.620958	0.562276	0.333861
C55	C	0.171376	0.062790	-0.166134
C56	C	0.671376	0.562790	0.333866
C57	C	0.196585	0.063050	-0.083012
C58	C	0.696585	0.563050	0.416988
C59	C	0.246986	0.063578	-0.083018
C60	C	0.746986	0.563578	0.416982
N61	N	0.272198	0.063833	0.000099
N62	N	0.772198	0.563833	0.500099
C63	C	0.246996	0.063575	0.083218
C64	C	0.746996	0.563575	0.583218
C65	C	-0.211779	0.058885	-0.082993
C66	C	0.288221	0.558885	0.417007
C67	C	-0.262193	0.058372	-0.082991
C68	C	0.237807	0.558372	0.417009
C69	C	-0.262183	0.058370	0.083252
C70	C	0.237817	0.558370	0.583252
C71	C	-0.211768	0.058887	0.083249
C72	C	0.288232	0.558887	0.583249
C73	C	-0.186566	0.059141	0.000124
C74	C	0.313434	0.559141	0.500124
C75	C	0.352863	0.064663	0.083204
C76	C	0.852863	0.564663	0.583204
C77	C	0.403278	0.065183	0.083193
C78	C	0.903278	0.565183	0.583193
C79	C	0.403264	0.065183	-0.083049
C80	C	0.903264	0.565183	0.416951
C81	C	0.352853	0.064665	-0.083039
C82	C	0.852853	0.564665	0.416961
C83	C	0.327654	0.064404	0.000095
C84	C	0.827654	0.564404	0.500095
O85	O	0.273093	0.063860	-0.153669
O86	O	0.773093	0.563860	0.346331
O87	O	0.273077	0.063834	0.153903
O88	O	0.773077	0.563834	0.653903
C89	C	0.045348	0.061507	0.083231
C90	C	0.545348	0.561507	0.583231
C91	C	0.020139	0.061247	0.000115
C92	C	0.520139	0.561247	0.500115
C93	C	0.045341	0.061506	-0.083004
C94	C	0.545341	0.561506	0.416996
C95	C	-0.030275	0.060734	0.000117
C96	C	0.469725	0.560734	0.500117
C97	C	-0.055478	0.060476	0.083237
C98	C	0.444522	0.560476	0.583237
C99	C	-0.030266	0.060731	0.166354
C100	C	0.469734	0.560731	0.666354
C101	C	0.020146	0.061249	0.166350
C102	C	0.520146	0.561249	0.666350
C103	C	0.020129	0.061250	-0.166121
C104	C	0.520129	0.561250	0.333879
C105	C	-0.030282	0.060733	-0.166111
C106	C	0.469718	0.560733	0.333889
C107	C	-0.055484	0.060474	-0.082992
C108	C	0.444516	0.560474	0.417008
C109	C	0.614884	-0.419105	0.000096
C110	C	1.114884	0.080895	0.500096
C111	C	0.612833	-0.620764	0.000082
C112	C	1.112833	-0.120764	0.500082
O113	O	0.650055	-0.652027	0.000051
O114	O	1.150055	-0.152027	0.500051
N115	N	0.568496	-0.639879	0.000073
N116	N	1.068496	-0.139879	0.500073
C117	C	0.524670	-0.608576	0.000061
C118	C	1.024670	-0.108576	0.500061
O119	O	0.486912	-0.629462	0.000044
O120	O	0.986912	-0.129462	0.500044
C121	C	0.526721	-0.406918	0.000068
C122	C	1.026721	0.093082	0.500068
C123	C	0.571061	-0.387805	0.000086
C124	C	1.071061	0.112195	0.500086
C125	C	0.659220	-0.399992	0.000113
C126	C	1.159220	0.100008	0.500113
C127	C	0.659732	-0.349580	0.000121
C128	C	1.159732	0.150420	0.500121
C129	C	0.615908	-0.318281	0.000112
C130	C	1.115908	0.181719	0.500112
C131	C	0.571573	-0.337394	0.000095
C132	C	1.071573	0.162606	0.500095
C133	C	0.482895	-0.375615	0.000049
C134	C	0.982895	0.124385	0.500049
C135	C	0.483412	-0.325198	0.000049
C136	C	0.983412	0.174802	0.500049
C137	C	0.527751	-0.306086	0.000067
C138	C	1.027751	0.193914	0.500067
C139	C	0.528262	-0.255683	0.000094
C140	C	1.028262	0.244317	0.500094
N141	N	0.572598	-0.236567	0.000103
N142	N	1.072598	0.263433	0.500103
C143	C	0.616421	-0.267867	0.000112
C144	C	1.116421	0.232133	0.500112
C145	C	0.523596	-0.714450	0.000060
C146	C	1.023596	-0.214450	0.500060
C147	C	0.523083	-0.764864	0.000060
C148	C	1.023083	-0.264864	0.500060
C149	C	0.611246	-0.777049	0.000079
C150	C	1.111246	-0.277049	0.500079
C151	C	0.611759	-0.726633	0.000085
C152	C	1.111759	-0.226633	0.500085
C153	C	0.567932	-0.695335	0.000069
C154	C	1.067932	-0.195335	0.500069
C155	C	0.617494	-0.161998	0.000130
C156	C	1.117494	0.338002	0.500130
C157	C	0.618002	-0.111581	0.000143
C158	C	1.118002	0.388419	0.500143
C159	C	0.529839	-0.099401	0.000118
C160	C	1.029839	0.400599	0.500118
C161	C	0.529331	-0.149813	0.000111
C162	C	1.029331	0.350187	0.500111
C163	C	0.573162	-0.181111	0.000114
C164	C	1.073162	0.318889	0.500114
O165	O	0.491060	-0.224391	0.000115
O166	O	0.991060	0.275609	0.500115
O167	O	0.654174	-0.246971	0.000109
O168	O	1.154174	0.253029	0.500109
C169	C	0.614372	-0.469517	0.000087
C170	C	1.114372	0.030483	0.500087
C171	C	0.570036	-0.488629	0.000070
C172	C	1.070036	0.011371	0.500070
C173	C	0.526213	-0.457330	0.000061
C174	C	1.026213	0.042670	0.500061
C175	C	0.569523	-0.539043	0.000070
C176	C	1.069523	-0.039043	0.500070
C177	C	0.613346	-0.570343	0.000079
C178	C	1.113346	-0.070343	0.500079
C179	C	0.657683	-0.551228	0.000088
C180	C	1.157683	-0.051228	0.500088
C181	C	0.658195	-0.500816	0.000096
C182	C	1.158195	-0.000816	0.500096
C183	C	0.481876	-0.476445	0.000051
C184	C	0.981876	0.023555	0.500051
C185	C	0.481367	-0.526857	0.000044
C186	C	0.981367	-0.026857	0.500044
C187	C	0.525191	-0.558157	0.000053
C188	C	1.025191	-0.058157	0.500053
C189	C	0.658949	0.057571	0.000123
C190	C	1.158949	0.557571	0.500123
C191	C	0.712605	0.058114	0.000128
C192	C	1.212605	0.558114	0.500128
C193	C	0.566353	0.150182	0.000082
C194	C	1.066353	0.650182	0.500082
C195	C	0.566906	0.203837	0.000069
C196	C	1.066906	0.703837	0.500069
N197	N	0.570539	0.061776	0.217100
N198	N	1.070539	0.561776	0.717100
N199	N	0.570550	0.061776	-0.216890
N200	N	1.070550	0.561776	0.283110
C201	C	0.603658	0.028672	0.452122
C202	C	1.103658	0.528672	0.952122
C203	C	0.603660	0.028671	0.548103
C204	C	1.103660	0.528671	1.048103
C205	C	0.537427	0.094881	0.548082
C206	C	1.037427	0.594881	1.048082
C207	C	0.537424	0.094879	0.452102
C208	C	1.037424	0.594879	0.952102
C209	C	0.570542	0.061775	0.404125
C210	C	1.070542	0.561775	0.904125
C211	C	0.570547	0.061776	0.596085
C212	C	1.070547	0.561776	1.096085
C213	C	0.570548	0.061775	0.700153
C214	C	1.070548	0.561775	1.200153
C215	C	0.570540	0.061776	0.300051
C216	C	1.070540	0.561776	0.800051
H217	H	0.423800	0.065397	0.150885
H218	H	0.923800	0.565397	0.650885
Br219	Br	0.422716	-0.401540	0.000021
Br220	Br	0.922716	0.098460	0.500021
Br221	Br	0.492474	0.139804	0.386956
Br222	Br	0.992474	0.639804	0.886956
H223	H	0.494160	-0.073908	0.000114
H224	H	0.994160	0.426092	0.500114
H225	H	0.630625	0.001715	0.587179
H226	H	1.130625	0.501715	1.087179
Br227	Br	0.318671	0.064307	0.196030
Br228	Br	0.818671	0.564307	0.696030
H229	H	0.487905	-0.688970	0.000046
H230	H	0.987905	-0.188970	0.500046
H231	H	0.630625	0.001717	0.413060
H232	H	1.130625	0.501717	0.913060
Br233	Br	-0.177562	0.059240	0.196062
Br234	Br	0.322438	0.559240	0.696062
Br235	Br	0.718373	-0.474886	0.000116
Br236	Br	1.218373	0.025114	0.500116
Br237	Br	0.054325	0.061599	-0.278938
Br238	Br	0.554325	0.561599	0.221062
H239	H	0.191900	0.063012	0.234027
H240	H	0.691900	0.563012	0.734027
H241	H	0.446189	-0.450966	0.000042
H242	H	0.946189	0.049034	0.500042
H243	H	0.100454	0.062074	0.234033
H244	H	0.600454	0.562074	0.734033
Br245	Br	0.462906	-0.790795	0.000056
Br246	Br	0.962906	-0.290795	0.500056
H247	H	-0.282715	0.058167	-0.150678
H248	H	0.217285	0.558167	0.349322
Br249	Br	-0.296396	0.058019	0.196057
Br250	Br	0.203604	0.558019	0.696057
Br251	Br	-0.177583	0.059230	-0.195818
Br252	Br	0.322417	0.559230	0.304182
Br253	Br	0.492483	0.139806	0.613197
Br254	Br	0.992483	0.639806	1.113197
H255	H	0.447722	-0.299716	0.000034
H256	H	0.947722	0.200284	0.500034
Br257	Br	0.671935	-0.700701	0.000112
Br258	Br	1.171935	-0.200701	0.500112
H259	H	0.493226	-0.165375	0.000122
H260	H	0.993226	0.334625	0.500122
Br261	Br	0.205576	0.063132	-0.278954
Br262	Br	0.705576	0.563132	0.221046
H263	H	0.100442	0.062064	-0.233827
H264	H	0.600442	0.562064	0.266173
Br265	Br	0.670720	-0.819536	0.000089
Br266	Br	1.170720	-0.319536	0.500089
H267	H	0.332326	0.064461	-0.150724
H268	H	0.832326	0.564461	0.349276
Br269	Br	0.437477	0.065531	-0.195849
Br270	Br	0.937477	0.565531	0.304151
H271	H	0.040666	0.061461	0.234037
H272	H	0.540666	0.561461	0.734037
H273	H	-0.050794	0.060523	0.234033
H274	H	0.449206	0.560523	0.734033
H275	H	0.445258	-0.542413	0.000037
H276	H	0.945258	-0.042413	0.500037
H277	H	-0.050803	0.060525	-0.233805
H278	H	0.449197	0.560525	0.266195
H279	H	0.694908	-0.425472	0.000117
H280	H	1.194908	0.074528	0.500117
H281	H	0.653186	-0.187475	0.000129
H282	H	1.153186	0.312525	0.500129
Br283	Br	0.719910	-0.323651	0.000121
Br284	Br	1.219910	0.176349	0.500121
Br285	Br	0.678181	-0.085647	0.000169
Br286	Br	1.178181	0.414353	0.500169
H287	H	0.693365	-0.576720	0.000100
H288	H	1.193365	-0.076720	0.500100
