data_functionalizedCrystal
_audit_creation_method	'MofGen! by Chris Wilmer'
_symmetry_space_group_name_H-M	'P1'
_symmetry_Int_Tables_number	1
_symmetry_cell_setting	triclinic
loop_
_symmetry_equiv_pos_as_xyz
  x,y,z
_cell_length_a	8.597314
_cell_length_b	8.559649
_cell_length_c	7.681481
_cell_angle_alpha	85.096042
_cell_angle_beta	91.809579
_cell_angle_gamma	102.374678
loop_
_atom_site_label
_atom_site_type_symbol
_atom_site_fract_x
_atom_site_fract_y
_atom_site_fract_z
O1	O	-2.035248	0.254480	-0.162307
O2	O	-1.583909	0.265808	-0.093840
O3	O	-1.849341	0.028785	-0.134109
O4	O	-1.769815	0.491503	-0.122039
O5	O	-1.816579	0.057925	-0.421996
O6	O	-1.551147	0.294948	-0.381728
O7	O	-2.002486	0.283620	-0.450195
Zn8	Zn	-1.771615	0.293911	-0.461670
Zn9	Zn	-1.814780	0.255517	-0.082365
O10	O	-1.737053	0.520643	-0.409926
C11	C	-1.510281	0.277537	-0.229100
C12	C	-1.339707	0.269054	-0.203224
C13	C	-1.838987	-0.015987	-0.278964
C14	C	-1.856928	-0.192807	-0.281676
C15	C	-1.076113	0.271890	-0.314938
C16	C	-1.246687	0.280370	-0.340822
N17	N	-1.844241	0.229303	0.176499
C18	C	-1.747408	0.565414	-0.265068
C19	C	-1.729468	0.742234	-0.262344
N20	N	-1.742167	0.320113	-0.720536
H21	H	-1.288846	0.252874	-0.065610
O22	O	-1.968309	0.118493	0.247503
C23	C	-1.909445	0.006931	0.362909
H24	H	-1.784467	0.063659	0.409392
H25	H	-1.991128	-0.029093	0.480199
H26	H	-1.905144	-0.103983	0.292461
O27	O	-1.307341	0.299384	-0.505036
C28	C	-1.291160	0.169892	-0.599777
H29	H	-1.281060	0.062486	-0.504900
H30	H	-1.399895	0.136255	-0.688538
H31	H	-1.179446	0.206222	-0.682502
O32	O	-1.617746	0.430738	0.208914
C33	C	-1.527271	0.511272	0.343358
H34	H	-1.547993	0.432946	0.471667
H35	H	-1.395510	0.536679	0.309947
H36	H	-1.565148	0.629311	0.357175
H37	H	-1.606612	0.821901	-0.243716
O38	O	-2.003383	0.711935	-0.303816
C39	C	-1.989291	0.550679	-0.301730
H40	H	-1.875251	0.535170	-0.228992
H41	H	-2.096169	0.469649	-0.232919
H42	H	-1.985058	0.516822	-0.441588
