data_functionalizedCrystal
_audit_creation_method	'MofGen! by Chris Wilmer'
_symmetry_space_group_name_H-M	'P1'
_symmetry_Int_Tables_number	1
_symmetry_cell_setting	triclinic
loop_
_symmetry_equiv_pos_as_xyz
  x,y,z
_cell_length_a	16.992694
_cell_length_b	16.053810
_cell_length_c	16.992695
_cell_angle_alpha	92.752725
_cell_angle_beta	90.668223
_cell_angle_gamma	87.261482
loop_
_atom_site_label
_atom_site_type_symbol
_atom_site_fract_x
_atom_site_fract_y
_atom_site_fract_z
O1	O	1.053945	-0.069325	0.163802
O2	O	1.387278	0.264008	0.497135
O3	O	1.720611	0.597342	0.830468
O4	O	0.825546	-0.069350	0.161969
O5	O	1.158879	0.263984	0.495303
O6	O	1.492213	0.597317	0.828636
O7	O	0.938829	-0.069331	0.048686
O8	O	1.272163	0.264003	0.382019
O9	O	1.605496	0.597336	0.715352
O10	O	0.940661	-0.069344	0.277085
O11	O	1.273995	0.263990	0.610418
O12	O	1.607328	0.597323	0.943752
O13	O	0.932621	0.069527	0.054921
O14	O	1.265954	0.402860	0.388254
O15	O	1.599288	0.736194	0.721587
O16	O	0.819337	0.069508	0.168204
O17	O	1.152671	0.402842	0.501538
O18	O	1.486004	0.736175	0.834871
O19	O	1.047736	0.069533	0.170037
O20	O	1.381070	0.402866	0.503370
O21	O	1.714403	0.736199	0.836703
Zn22	Zn	0.932551	0.091567	0.170110
Zn23	Zn	1.265885	0.424900	0.503444
Zn24	Zn	1.599218	0.758234	0.836777
Zn25	Zn	0.940731	-0.091384	0.161895
Zn26	Zn	1.274064	0.241949	0.495229
Zn27	Zn	1.607398	0.575283	0.828562
O28	O	0.934453	0.069514	0.283320
O29	O	1.267786	0.402847	0.616653
O30	O	1.601120	0.736181	0.949987
C31	C	0.793082	0.000076	0.162731
C32	C	1.126415	0.333410	0.496064
C33	C	1.459748	0.666743	0.829398
C34	C	0.705597	0.000067	0.155702
C35	C	1.038931	0.333400	0.489035
C36	C	1.372264	0.666734	0.822368
N37	N	0.926974	0.216426	0.175717
N38	N	1.260308	0.549760	0.509050
N39	N	1.593641	0.883093	0.842383
C40	C	0.659607	0.000064	0.223520
C41	C	0.992940	0.333397	0.556853
C42	C	1.326273	0.666730	0.890186
C43	C	0.577405	0.000076	0.216911
C44	C	0.910739	0.333409	0.550244
C45	C	1.244072	0.666742	0.883578
C46	C	0.541197	0.000085	0.142484
C47	C	0.874530	0.333418	0.475817
C48	C	1.207863	0.666751	0.809151
C49	C	0.587193	0.000091	0.074661
C50	C	0.920527	0.333424	0.407994
C51	C	1.253860	0.666757	0.741328
C52	C	0.669393	0.000085	0.081271
C53	C	1.002726	0.333418	0.414604
C54	C	1.336060	0.666751	0.747937
C55	C	0.295881	0.000109	0.115090
C56	C	0.629215	0.333442	0.448424
C57	C	0.962548	0.666775	0.781757
C58	C	0.213676	0.000112	0.108486
C59	C	0.547009	0.333445	0.441819
C60	C	0.880343	0.666779	0.775153
C61	C	0.203893	0.000099	0.250737
C62	C	0.537227	0.333432	0.584070
C63	C	0.870560	0.666766	0.917403
C64	C	0.286095	0.000088	0.257339
C65	C	0.619428	0.333421	0.590673
C66	C	0.952762	0.666755	0.924006
C67	C	0.332084	0.000098	0.189517
C68	C	0.665418	0.333431	0.522850
C69	C	0.998751	0.666765	0.856184
N70	N	0.457174	0.000094	0.135727
N71	N	0.790507	0.333428	0.469060
N72	N	1.123841	0.666761	0.802394
N73	N	0.416105	0.000094	0.196275
N74	N	0.749439	0.333428	0.529608
N75	N	1.082772	0.666761	0.862941
N76	N	0.946314	-0.216243	0.156283
N77	N	1.279647	0.117090	0.489617
N78	N	1.612980	0.450424	0.822950
C79	C	1.080201	0.000105	0.169275
C80	C	1.413534	0.333439	0.502608
C81	C	1.746867	0.666772	0.835942
C82	C	1.167685	0.000109	0.176304
C83	C	1.501018	0.333442	0.509637
C84	C	1.834352	0.666776	0.842970
C85	C	0.898098	0.740054	0.204472
C86	C	1.231432	1.073387	0.537806
C87	C	1.564765	1.406720	0.871139
C88	C	0.902017	0.652648	0.200567
C89	C	1.235351	0.985981	0.533900
C90	C	1.568684	1.319314	0.867233
C91	C	0.954157	0.608946	0.148475
C92	C	1.287490	0.942280	0.481809
C93	C	1.620823	1.275613	0.815142
C94	C	1.002374	0.652656	0.100281
C95	C	1.335707	0.985989	0.433614
C96	C	1.669041	1.319322	0.766948
C97	C	0.998450	0.740060	0.104183
C98	C	1.331784	1.073393	0.437517
C99	C	1.665117	1.406727	0.770850
C100	C	0.971268	0.347540	0.131425
C101	C	1.304601	0.680873	0.464758
C102	C	1.637935	1.014207	0.798091
C103	C	0.975190	0.260130	0.127528
C104	C	1.308523	0.593463	0.460861
C105	C	1.641857	0.926796	0.794194
C106	C	0.874832	0.260128	0.227813
C107	C	1.208165	0.593461	0.561146
C108	C	1.541499	0.926794	0.894479
C109	C	0.870916	0.347534	0.231714
C110	C	1.204249	0.680867	0.565047
C111	C	1.537583	1.014200	0.898380
C112	C	0.919131	0.391235	0.183516
C113	C	1.252464	0.724569	0.516850
C114	C	1.585797	1.057902	0.850183
N115	N	0.958166	0.519603	0.144484
N116	N	1.291499	0.852937	0.477817
N117	N	1.624832	1.186270	0.811150
N118	N	0.915117	0.480577	0.187505
N119	N	1.248450	0.813910	0.520838
N120	N	1.581784	1.147243	0.854171
C121	C	0.933370	0.000098	0.022443
C122	C	1.266703	0.333431	0.355776
C123	C	1.600036	0.666764	0.689110
C124	C	0.926341	0.000097	-0.065042
C125	C	1.259674	0.333430	0.268292
C126	C	1.593007	0.666763	0.601625
C127	C	0.994158	0.000105	-0.111032
C128	C	1.327492	0.333438	0.222301
C129	C	1.660825	0.666772	0.555635
C130	C	0.987550	0.000096	-0.193233
C131	C	1.320883	0.333430	0.140100
C132	C	1.654217	0.666763	0.473433
C133	C	0.913123	0.000086	-0.229442
C134	C	1.246456	0.333419	0.103891
C135	C	1.579789	0.666752	0.437225
C136	C	0.845300	0.000075	-0.183446
C137	C	1.178633	0.333408	0.149888
C138	C	1.511967	0.666742	0.483221
C139	C	0.851910	0.000078	-0.101246
C140	C	1.185243	0.333411	0.232087
C141	C	1.518576	0.666744	0.565420
C142	C	0.885729	0.000071	-0.474757
C143	C	1.219062	0.333404	-0.141424
C144	C	1.552395	0.666738	0.191910
C145	C	0.879124	0.000071	-0.556962
C146	C	1.212458	0.333404	-0.223629
C147	C	1.545791	0.666738	0.109704
C148	C	1.021375	0.000091	-0.566745
C149	C	1.354708	0.333424	-0.233411
C150	C	1.688041	0.666758	0.099922
C151	C	1.027978	0.000099	-0.484543
C152	C	1.361311	0.333432	-0.151210
C153	C	1.694644	0.666765	0.182124
C154	C	0.960155	0.000083	-0.438554
C155	C	1.293488	0.333417	-0.105220
C156	C	1.626822	0.666750	0.228113
N157	N	0.906366	0.000079	-0.313465
N158	N	1.239699	0.333413	0.019869
N159	N	1.573032	0.666746	0.353202
N160	N	0.966913	0.000084	-0.354533
N161	N	1.300246	0.333417	-0.021200
N162	N	1.633580	0.666750	0.312134
C163	C	0.939913	0.000084	0.309563
C164	C	1.273246	0.333417	0.642896
C165	C	1.606580	0.666750	0.976229
C166	C	0.946942	0.000079	0.397047
C167	C	1.280275	0.333412	0.730380
C168	C	1.613608	0.666746	1.063714
H169	H	0.689081	0.000056	0.284126
H170	H	1.022415	0.333389	0.617459
H171	H	1.355748	0.666722	0.950793
F172	F	0.344816	0.000119	0.042907
F173	F	0.678150	0.333453	0.376240
F174	F	1.011483	0.666786	0.709573
F175	F	0.175141	0.000136	0.029267
F176	F	0.508475	0.333470	0.362601
F177	F	0.841808	0.666803	0.695934
F178	F	0.842608	0.786556	0.259920
F179	F	1.175941	1.119889	0.593253
F180	F	1.509275	1.453222	0.926586
F181	F	0.850700	0.606135	0.251854
F182	F	1.184034	0.939469	0.585187
F183	F	1.517367	1.272802	0.918521
H184	H	1.042774	0.000105	-0.230676
H185	H	1.376108	0.333438	0.102658
H186	H	1.709441	0.666771	0.435991
H187	H	1.088584	0.000108	-0.455068
H188	H	1.421917	0.333441	-0.121735
H189	H	1.755251	0.666774	0.211599
H190	H	0.706838	0.000087	0.026046
H191	H	1.040171	0.333420	0.359379
H192	H	1.373505	0.666753	0.692712
H193	H	0.830503	0.000059	-0.437322
H194	H	1.163836	0.333392	-0.103989
H195	H	1.497169	0.666726	0.229344
H196	H	0.539963	0.000072	0.272136
H197	H	0.873296	0.333405	0.605469
H198	H	1.206630	0.666739	0.938802
F199	F	0.324625	0.000074	0.336555
F200	F	0.657958	0.333407	0.669888
F201	F	0.991292	0.666740	1.003221
F202	F	0.548655	0.000106	-0.004550
F203	F	0.881988	0.333439	0.328783
F204	F	1.215322	0.666772	0.662116
H205	H	0.828460	0.383113	0.274131
H206	H	1.161794	0.716447	0.607464
H207	H	1.495127	1.049780	0.940797
F208	F	0.154943	0.000090	0.322913
F209	F	0.488276	0.333423	0.656246
F210	F	0.821609	0.666757	0.989580
F211	F	0.823520	0.213612	0.279102
F212	F	1.156853	0.546945	0.612436
F213	F	1.490187	0.880279	0.945769
H214	H	1.017651	0.224552	0.085106
H215	H	1.350984	0.557885	0.418440
H216	H	1.684318	0.891219	0.751773
H217	H	1.076592	0.000102	-0.604198
H218	H	1.409925	0.333435	-0.270864
H219	H	1.743258	0.666768	0.062469
F220	F	0.779729	0.000066	-0.052300
F221	F	1.113062	0.333400	0.281033
F222	F	1.446395	0.666733	0.614367
H223	H	0.784700	0.000061	-0.212933
H224	H	1.118033	0.333394	0.120400
H225	H	1.451367	0.666727	0.453733
F226	F	1.022583	0.394044	0.080132
F227	F	1.355917	0.727377	0.413465
F228	F	1.689250	1.060711	0.746799
F229	F	0.799905	0.000064	-0.595496
F230	F	1.133238	0.333397	-0.262163
F231	F	1.466572	0.666730	0.071171
H232	H	1.044824	0.617069	0.057863
H233	H	1.378157	0.950402	0.391196
H234	H	1.711491	1.283736	0.724530
F235	F	1.049766	0.786571	0.052891
F236	F	1.383099	1.119904	0.386224
F237	F	1.716433	1.453238	0.719558
H238	H	1.054765	0.000119	-0.081557
H239	H	1.388098	0.333452	0.251776
H240	H	1.721431	0.666786	0.585109
