data_functionalizedCrystal
_audit_creation_method	'MofGen! by Chris Wilmer'
_symmetry_space_group_name_H-M	'P1'
_symmetry_Int_Tables_number	1
_symmetry_cell_setting	triclinic
loop_
_symmetry_equiv_pos_as_xyz
  x,y,z
_cell_length_a	14.971491
_cell_length_b	9.798715
_cell_length_c	14.971494
_cell_angle_alpha	90.001680
_cell_angle_beta	83.616896
_cell_angle_gamma	90.005550
loop_
_atom_site_label
_atom_site_type_symbol
_atom_site_fract_x
_atom_site_fract_y
_atom_site_fract_z
O1	O	1.186944	0.113544	0.116583
O2	O	0.926545	0.113533	0.130536
O3	O	1.063720	0.113536	-0.006640
O4	O	1.049769	0.113542	0.253759
O5	O	1.063710	-0.113446	-0.006641
O6	O	0.926535	-0.113449	0.130536
O7	O	1.186934	-0.113438	0.116582
Zn8	Zn	1.056733	-0.149482	0.123558
Zn9	Zn	1.056747	0.149577	0.123560
O10	O	1.049759	-0.113441	0.253758
C11	C	0.893216	0.000041	0.129911
C12	C	0.793919	0.000037	0.128039
N13	N	1.056731	-0.353581	0.123557
C14	C	0.366219	0.123796	0.119959
C15	C	0.459519	0.123791	0.121716
C16	C	0.506159	0.000059	0.122599
C17	C	0.459495	-0.123677	0.121717
C18	C	0.366198	-0.123671	0.119954
C19	C	0.653957	-0.123682	0.125394
C20	C	0.747261	-0.123689	0.127159
C21	C	0.747278	0.123780	0.127156
C22	C	0.653981	0.123786	0.125393
C23	C	0.607323	0.000050	0.124512
C24	C	1.108502	-0.421356	0.175036
C25	C	1.108516	-0.578518	0.175035
C26	C	1.220264	0.000057	0.117207
C27	C	1.319561	0.000070	0.119079
C28	C	1.063090	0.000047	-0.039965
C29	C	1.061216	0.000053	-0.139262
N30	N	1.056756	0.353677	0.123554
C31	C	1.060344	0.123783	-0.185906
C32	C	1.058577	0.123784	-0.279205
C33	C	1.057690	0.000055	-0.325859
C34	C	1.058560	-0.123684	-0.279208
C35	C	1.060320	-0.123684	-0.185910
C36	C	1.054894	-0.123675	-0.473671
C37	C	1.053136	-0.123675	-0.566976
C38	C	1.053152	0.123794	-0.566966
C39	C	1.054911	0.123793	-0.473668
C40	C	1.055783	0.000054	-0.427024
C41	C	1.050390	0.000051	0.287083
C42	C	1.052263	0.000054	0.386380
H43	H	0.328250	0.224554	0.119246
H44	H	1.152818	-0.363028	0.219106
O45	O	1.057601	-0.257143	-0.329518
H46	H	1.118850	-0.316473	-0.319504
H47	H	0.497478	-0.224422	0.122431
H48	H	1.052406	-0.224427	-0.604958
O49	O	0.998043	-0.430814	0.065151
H50	H	0.926589	-0.403488	0.084656
O51	O	0.603627	-0.257137	0.124452
H52	H	0.651730	-0.343178	0.125374
O53	O	1.167231	-0.655706	0.233422
H54	H	1.238676	-0.628323	0.213902
O55	O	1.055873	0.257240	-0.423344
H56	H	0.995762	0.263143	-0.372927
O57	O	1.052202	0.257262	-0.617266
H58	H	1.050816	0.236481	-0.689978
O59	O	1.055843	-0.257133	-0.423357
H60	H	1.054943	-0.343171	-0.471473
O61	O	0.998074	-0.569113	0.065146
H62	H	0.950189	-0.503995	0.108086
H63	H	1.057871	0.224537	-0.317179
H64	H	1.061018	-0.224438	-0.147932
O65	O	0.509845	0.257237	0.122669
H66	H	0.461738	0.343277	0.121771
O67	O	0.603674	0.257236	0.124408
H68	H	0.651793	0.343277	0.125295
O69	O	1.061293	0.257235	-0.135586
H70	H	1.060378	0.343271	-0.183698
H71	H	0.785271	0.224530	0.127874
O72	O	0.797579	-0.257134	0.128099
H73	H	0.787587	-0.316449	0.066834
O74	O	0.315866	-0.257116	0.119013
H75	H	0.363969	-0.343158	0.119933
