data_functionalizedCrystal
_audit_creation_method	'MofGen! by Chris Wilmer'
_symmetry_space_group_name_H-M	'P1'
_symmetry_Int_Tables_number	1
_symmetry_cell_setting	triclinic
loop_
_symmetry_equiv_pos_as_xyz
  x,y,z
_cell_length_a	10.654550
_cell_length_b	15.995350
_cell_length_c	9.730223
_cell_angle_alpha	89.997832
_cell_angle_beta	89.999957
_cell_angle_gamma	83.988653
loop_
_atom_site_label
_atom_site_type_symbol
_atom_site_fract_x
_atom_site_fract_y
_atom_site_fract_z
O1	O	1.666303	0.117602	-0.114180
O2	O	1.300678	0.128807	-0.114204
O3	O	1.493485	0.001375	-0.114190
O4	O	1.473496	0.245034	-0.114194
O5	O	1.493473	0.001371	0.114390
O6	O	1.300666	0.128803	0.114375
O7	O	1.666290	0.117599	0.114400
Zn8	Zn	1.483476	0.123201	0.150680
Zn9	Zn	1.483492	0.123205	-0.150484
O10	O	1.473483	0.245031	0.114386
C11	C	1.253884	0.127982	0.000082
C12	C	1.114473	0.125521	0.000073
C13	C	1.034008	0.200551	0.000075
C14	C	0.903017	0.198233	0.000099
C15	C	0.932971	0.045849	0.000112
C16	C	1.063959	0.048168	0.000098
C17	C	1.492652	-0.029826	0.000097
C18	C	1.490175	-0.122791	0.000089
C19	C	1.481277	-0.460590	0.000093
C20	C	1.343964	-0.413954	-0.000429
C21	C	1.346442	-0.317249	0.000087
C22	C	1.485691	-0.293004	0.000090
C23	C	1.553412	-0.333690	0.130623
C24	C	1.549962	-0.430346	0.130732
C25	C	1.552813	-0.430684	-0.129206
C26	C	1.552780	-0.333739	-0.130931
C27	C	1.488192	-0.198292	0.000093
C28	C	1.478780	-0.555303	0.000099
C29	C	1.713084	0.118423	0.000110
C30	C	1.852495	0.120885	0.000111
C31	C	1.474316	0.276232	0.000095
C32	C	1.476793	0.369197	0.000094
N33	N	1.483474	0.123197	0.356216
N34	N	1.483504	0.123202	-0.356021
C35	C	1.568878	0.066794	0.428148
C36	C	1.568890	0.066794	0.572031
C37	C	1.398091	0.179608	0.572037
C38	C	1.398074	0.179603	0.428157
H39	H	1.289086	-0.432803	-0.094036
O40	O	1.673514	-0.468007	-0.130334
C41	C	1.809432	-0.598214	-0.136416
C42	C	1.672687	-0.556048	-0.135191
H43	H	1.808808	-0.669401	-0.140314
H44	H	1.860773	-0.576308	-0.230472
H45	H	1.859956	-0.580140	-0.039260
H46	H	1.622056	-0.574102	-0.232282
H47	H	1.621440	-0.577955	-0.041071
O48	O	1.315233	0.234514	0.358337
C49	C	1.241575	0.379647	0.314353
C50	C	1.335479	0.317560	0.393484
H51	H	1.257894	0.446803	0.342763
H52	H	1.256227	0.370025	0.199145
H53	H	1.141012	0.368068	0.342644
H54	H	1.436079	0.329101	0.365309
H55	H	1.320717	0.327196	0.508673
H56	H	0.837506	0.259330	0.000104
O57	O	1.675501	-0.316240	0.136610
C58	C	1.871741	-0.333750	0.261601
C59	C	1.733509	-0.353593	0.254976
H60	H	1.918673	-0.363925	0.357308
H61	H	1.924271	-0.359816	0.166214
H62	H	1.874585	-0.262757	0.266228
H63	H	1.730548	-0.424574	0.250394
H64	H	1.681038	-0.327468	0.350362
O65	O	1.651871	0.011918	0.358477
C66	C	1.821325	-0.099947	0.373664
C67	C	1.727385	-0.037855	0.452732
H68	H	1.882420	-0.140193	0.449835
H69	H	1.767170	-0.142173	0.306356
H70	H	1.883992	-0.063395	0.306250
H71	H	1.664694	-0.074338	0.520221
H72	H	1.781618	0.004370	0.519953
O73	O	1.314970	0.234315	0.641865
C74	C	1.096619	0.282052	0.685859
C75	C	1.190614	0.220034	0.606721
H76	H	0.996057	0.270539	0.657452
H77	H	1.111195	0.272367	0.801067
H78	H	1.113032	0.349211	0.657573
H79	H	1.174258	0.152850	0.634891
H80	H	1.176015	0.229792	0.491532
O81	O	1.278687	-0.437552	0.110657
C82	C	1.166744	-0.393270	0.317716
C83	C	1.240619	-0.366426	0.191959
H84	H	1.135968	-0.335783	0.383498
H85	H	1.079930	-0.423188	0.281759
H86	H	1.229730	-0.440733	0.381043
H87	H	1.177737	-0.318939	0.128579
H88	H	1.327444	-0.336557	0.228009
O89	O	0.883689	-0.029216	0.000065
C90	C	0.695171	-0.100324	0.000167
C91	C	0.750810	-0.015254	0.000194
H92	H	0.587732	-0.089065	0.000301
H93	H	0.728214	-0.137453	-0.095515
H94	H	0.728393	-0.137439	0.095805
H95	H	0.717614	0.021929	-0.095379
H96	H	0.717774	0.021812	0.095940
H97	H	1.075132	0.263537	0.000065
H98	H	1.292840	-0.289697	0.093810
H99	H	1.129478	-0.012934	0.000100
H100	H	1.293208	-0.289135	-0.093484
H101	H	1.503268	-0.306776	-0.227495
H102	H	1.650775	-0.462009	0.136657
O103	O	1.491228	-0.452590	0.247216
C104	C	1.507861	-0.533652	0.456383
C105	C	1.574544	-0.508522	0.324538
H106	H	1.575184	-0.578890	0.518921
H107	H	1.478195	-0.475076	0.520060
H108	H	1.420790	-0.565641	0.427721
H109	H	1.661659	-0.476552	0.353077
H110	H	1.604116	-0.567127	0.260896
H111	H	1.506366	-0.305584	0.227758
H112	H	1.654327	-0.317787	-0.138810
H113	H	1.507924	-0.451483	-0.228142
H114	H	1.638432	0.020865	0.630595
