data_functionalizedCrystal
_audit_creation_method	'MofGen! by Chris Wilmer'
_symmetry_space_group_name_H-M	'P1'
_symmetry_Int_Tables_number	1
_symmetry_cell_setting	triclinic
loop_
_symmetry_equiv_pos_as_xyz
  x,y,z
_cell_length_a	16.959455
_cell_length_b	10.686203
_cell_length_c	10.685910
_cell_angle_alpha	80.941639
_cell_angle_beta	94.380566
_cell_angle_gamma	94.360766
loop_
_atom_site_label
_atom_site_type_symbol
_atom_site_fract_x
_atom_site_fract_y
_atom_site_fract_z
Zn1	Zn	1.262623	0.450529	0.679046
Zn2	Zn	1.762623	0.950529	1.179046
Zn3	Zn	1.262577	0.678999	0.450540
Zn4	Zn	1.762577	1.178999	0.950540
Zn5	Zn	1.121054	0.466776	0.466805
Zn6	Zn	1.621054	0.966776	0.966805
Zn7	Zn	1.139841	0.662716	0.662727
Zn8	Zn	1.639841	1.162716	1.162727
O9	O	1.196524	0.564755	0.564779
O10	O	1.696524	1.064755	1.064779
O11	O	1.373230	0.480851	0.648756
O12	O	1.873230	0.980851	1.148756
O13	O	1.235922	0.664461	0.275072
O14	O	1.735922	1.164461	0.775072
O15	O	1.131991	0.287004	0.508595
O16	O	1.631991	0.787004	1.008595
O17	O	1.373196	0.648707	0.480874
O18	O	1.873196	1.148707	0.980874
O19	O	1.236001	0.275067	0.664527
O20	O	1.736001	0.775067	1.164527
O21	O	1.131946	0.508542	0.287022
O22	O	1.631946	1.008542	0.787022
O23	O	1.012934	0.492753	0.492772
O24	O	1.512934	0.992753	0.992772
O25	O	1.164010	0.620955	0.842517
O26	O	1.664010	1.120955	1.342517
O27	O	1.026736	0.636709	0.636716
O28	O	1.526736	1.136709	1.136716
O29	O	1.254217	0.465062	0.854506
O30	O	1.754217	0.965062	1.354506
O31	O	1.254139	0.854456	0.465051
O32	O	1.754139	1.354456	0.965051
O33	O	1.163965	0.842493	0.620944
O34	O	1.663965	1.342493	1.120944
C35	C	0.991154	0.564728	0.564739
C36	C	1.491154	1.064728	1.064739
C37	C	0.903299	0.564745	0.564749
C38	C	1.403299	1.064745	1.064749
C39	C	0.854816	0.489667	0.489943
C40	C	1.354816	0.989667	0.989943
C41	C	0.869230	0.639830	0.639573
C42	C	1.369230	1.139830	1.139573
C43	C	0.786685	0.639843	0.639591
C44	C	1.286685	1.139843	1.139591
C45	C	0.738202	0.564766	0.564785
C46	C	1.238202	1.064766	1.064785
C47	C	0.772263	0.489675	0.489961
C48	C	1.272263	0.989675	0.989961
C49	C	0.752618	0.714922	0.714422
C50	C	1.252618	1.214922	1.214422
C51	C	0.670069	0.714937	0.714444
C52	C	1.170069	1.214937	1.214444
C53	C	0.621584	0.639866	0.639630
C54	C	1.121584	1.139866	1.139630
C55	C	0.655650	0.564774	0.564803
C56	C	1.155650	1.064774	1.064803
C57	C	0.607167	0.489697	0.489997
C58	C	1.107167	0.989697	0.989997
C59	C	0.641231	0.414610	0.415162
C60	C	1.141231	0.914610	0.915162
C61	C	0.723779	0.414604	0.415148
C62	C	1.223779	0.914604	0.915148
C63	C	0.539036	0.639872	0.639644
C64	C	1.039036	1.139872	1.139644
C65	C	0.524614	0.489705	0.490015
C66	C	1.024614	0.989705	0.990015
C67	C	1.211108	0.894526	0.539489
C68	C	1.711108	1.394526	1.039489
C69	C	1.217422	1.035601	0.528713
C70	C	1.717422	1.535601	1.028713
C71	C	1.402695	0.564783	0.564821
C72	C	1.902695	1.064783	1.064821
C73	C	1.490553	0.564795	0.564838
C74	C	1.990553	1.064795	1.064838
C75	C	1.181880	1.233695	0.590182
C76	C	1.681880	1.733695	1.090182
C77	C	1.175576	1.092620	0.600973
C78	C	1.675576	1.592620	1.100973
C79	C	1.211214	0.539380	0.895855
C80	C	1.711214	1.039380	1.395855
C81	C	1.217474	0.528567	1.036940
C82	C	1.717474	1.028567	1.536940
C83	C	1.181887	0.590062	1.234989
C84	C	1.681887	1.090062	1.734989
C85	C	1.175632	0.600882	1.093904
C86	C	1.675632	1.100882	1.593904
H87	H	0.511305	0.700998	0.700583
H88	H	1.011305	1.200998	1.200583
Cl89	Cl	1.112930	0.709250	1.002560
Cl90	Cl	1.612930	1.209250	1.502560
Cl91	Cl	1.280188	0.420207	1.128287
Cl92	Cl	1.780188	0.920207	1.628287
Cl93	Cl	1.112804	1.001357	0.709230
Cl94	Cl	1.612804	1.501357	1.209230
Cl95	Cl	0.463670	0.395323	0.395960
Cl96	Cl	0.963670	0.895323	0.895960
Cl97	Cl	0.766608	0.320211	0.321086
Cl98	Cl	1.266608	0.820211	0.821086
Cl99	Cl	0.580272	0.320221	0.321134
Cl100	Cl	1.080272	0.820221	0.821134
Cl101	Cl	0.930180	0.734218	0.733599
Cl102	Cl	1.430180	1.234218	1.233599
Cl103	Cl	0.897637	0.395282	0.395866
Cl104	Cl	1.397637	0.895282	0.895866
Cl105	Cl	0.813570	0.809323	0.808432
Cl106	Cl	1.313570	1.309323	1.308432
H107	H	0.642341	0.776079	0.775378
H108	H	1.142341	1.276079	1.275378
H109	H	1.258071	1.094711	0.458593
H110	H	1.758071	1.594711	0.958593
