data_functionalizedCrystal
_audit_creation_method	'MofGen! by Chris Wilmer'
_symmetry_space_group_name_H-M	'P1'
_symmetry_Int_Tables_number	1
_symmetry_cell_setting	triclinic
loop_
_symmetry_equiv_pos_as_xyz
  x,y,z
_cell_length_a	21.295418
_cell_length_b	21.295417
_cell_length_c	21.395355
_cell_angle_alpha	89.978549
_cell_angle_beta	89.956257
_cell_angle_gamma	90.046319
loop_
_atom_site_label
_atom_site_type_symbol
_atom_site_fract_x
_atom_site_fract_y
_atom_site_fract_z
Zn1	Zn	0.962356	-0.250416	-0.354570
Zn2	Zn	1.212356	-0.000416	-0.104570
Zn3	Zn	1.462356	0.249584	0.145430
Zn4	Zn	1.712356	0.499584	0.395430
Zn5	Zn	0.962258	-0.355668	-0.249787
Zn6	Zn	1.212258	-0.105668	0.000213
Zn7	Zn	1.462258	0.144332	0.250213
Zn8	Zn	1.712258	0.394332	0.500213
Zn9	Zn	0.857079	-0.250446	-0.249771
Zn10	Zn	1.107079	-0.000446	0.000229
Zn11	Zn	1.357079	0.249554	0.250229
Zn12	Zn	1.607079	0.499554	0.500229
Zn13	Zn	0.857048	-0.355681	-0.354492
Zn14	Zn	1.107048	-0.105681	-0.104492
Zn15	Zn	1.357048	0.144319	0.145508
Zn16	Zn	1.607048	0.394319	0.395508
O17	O	0.909685	-0.303053	-0.302155
O18	O	1.159685	-0.053053	-0.052155
O19	O	1.409685	0.196947	0.197845
O20	O	1.659685	0.446947	0.447845
O21	O	1.050432	-0.264361	-0.340709
O22	O	1.300432	-0.014361	-0.090709
O23	O	1.550432	0.235639	0.159291
O24	O	1.800432	0.485639	0.409291
O25	O	0.948278	-0.341717	-0.162107
O26	O	1.198278	-0.091717	0.087893
O27	O	1.448278	0.158283	0.337893
O28	O	1.698278	0.408283	0.587893
O29	O	0.871098	-0.162352	-0.263699
O30	O	1.121098	0.087648	-0.013699
O31	O	1.371098	0.337648	0.236301
O32	O	1.621098	0.587648	0.486301
O33	O	1.050361	-0.341689	-0.263725
O34	O	1.300361	-0.091689	-0.013725
O35	O	1.550361	0.158311	0.236275
O36	O	1.800361	0.408311	0.486275
O37	O	0.948444	-0.162331	-0.340694
O38	O	1.198444	0.087669	-0.090694
O39	O	1.448444	0.337669	0.159306
O40	O	1.698444	0.587669	0.409306
O41	O	0.871003	-0.264410	-0.162095
O42	O	1.121003	-0.014410	0.087905
O43	O	1.371003	0.235590	0.337905
O44	O	1.621003	0.485590	0.587905
O45	O	0.768986	-0.264423	-0.263624
O46	O	1.018986	-0.014423	-0.013624
O47	O	1.268986	0.235577	0.236376
O48	O	1.518986	0.485577	0.486376
O49	O	0.871046	-0.341710	-0.442180
O50	O	1.121046	-0.091710	-0.192180
O51	O	1.371046	0.158290	0.057820
O52	O	1.621046	0.408290	0.307820
O53	O	0.768963	-0.341739	-0.340561
O54	O	1.018963	-0.091739	-0.090561
O55	O	1.268963	0.158261	0.159439
O56	O	1.518963	0.408261	0.409439
O57	O	0.948415	-0.264373	-0.442237
O58	O	1.198415	-0.014373	-0.192237
O59	O	1.448415	0.235627	0.057763
O60	O	1.698415	0.485627	0.307763
O61	O	0.948248	-0.443759	-0.263650
O62	O	1.198248	-0.193759	-0.013650
O63	O	1.448248	0.056241	0.236350
O64	O	1.698248	0.306241	0.486350
O65	O	0.870951	-0.443768	-0.340576
O66	O	1.120951	-0.193768	-0.090576
O67	O	1.370951	0.056232	0.159424
O68	O	1.620951	0.306232	0.409424
C69	C	0.746134	-0.303086	-0.302083
C70	C	0.996134	-0.053086	-0.052083
C71	C	1.246134	0.196914	0.197917
C72	C	1.496134	0.446914	0.447917
C73	C	0.676166	-0.303115	-0.302067
C74	C	0.926166	-0.053115	-0.052067
C75	C	1.176166	0.196885	0.197933
C76	C	1.426166	0.446885	0.447933
C77	C	0.909603	-0.466604	-0.302120
C78	C	1.159603	-0.216604	-0.052120
C79	C	1.409603	0.033396	0.197880
C80	C	1.659603	0.283396	0.447880
C81	C	0.909625	-0.536572	-0.302126
C82	C	1.159625	-0.286572	-0.052126
C83	C	1.409625	-0.036572	0.197874
C84	C	1.659625	0.213428	0.447874
C85	C	0.643304	-0.343427	-0.342068
C86	C	0.893304	-0.093427	-0.092068
C87	C	1.143304	0.156573	0.157932
C88	C	1.393304	0.406573	0.407932
C89	C	0.577561	-0.343411	-0.342096
C90	C	0.827561	-0.093411	-0.092096
C91	C	1.077561	0.156589	0.157904
C92	C	1.327561	0.406589	0.407904
C93	C	0.544683	-0.303091	-0.302112
C94	C	0.794683	-0.053091	-0.052112
C95	C	1.044683	0.196909	0.197888
C96	C	1.294683	0.446909	0.447888
C97	C	0.577553	-0.262771	-0.262107
C98	C	0.827553	-0.012771	-0.012107
C99	C	1.077553	0.237229	0.237893
C100	C	1.327553	0.487229	0.487893
C101	C	0.643294	-0.262783	-0.262085
C102	C	0.893294	-0.012783	-0.012085
C103	C	1.143294	0.237217	0.237915
C104	C	1.393294	0.487217	0.487915
N105	N	0.441407	-0.298163	-0.247311
N106	N	0.691407	-0.048163	0.002689
N107	N	0.941407	0.201837	0.252689
N108	N	1.191407	0.451837	0.502689
N109	N	0.378956	-0.298156	-0.247335
N110	N	0.628956	-0.048156	0.002665
N111	N	0.878956	0.201844	0.252665
N112	N	1.128956	0.451844	0.502665
C113	C	0.346608	-0.303051	-0.302178
C114	C	0.596608	-0.053051	-0.052178
C115	C	0.846608	0.196949	0.197822
C116	C	1.096608	0.446949	0.447822
N117	N	0.379072	-0.307966	-0.356999
N118	N	0.629072	-0.057966	-0.106999
N119	N	0.879072	0.192034	0.143001
N120	N	1.129072	0.442034	0.393001
N121	N	0.441529	-0.307977	-0.356975
N122	N	0.691529	-0.057977	-0.106975
N123	N	0.941529	0.192023	0.143025
N124	N	1.191529	0.442023	0.393025
C125	C	0.473398	-0.303073	-0.302132
C126	C	0.723398	-0.053073	-0.052132
C127	C	0.973398	0.196927	0.197868
C128	C	1.223398	0.446927	0.447868
C129	C	0.242461	-0.343348	-0.342214
C130	C	0.492461	-0.093348	-0.092214
C131	C	0.742461	0.156652	0.157786
C132	C	0.992461	0.406652	0.407786
C133	C	0.176717	-0.343328	-0.342243
C134	C	0.426717	-0.093328	-0.092243
C135	C	0.676717	0.156672	0.157757
C136	C	0.926717	0.406672	0.407757
C137	C	0.176710	-0.262691	-0.262248
C138	C	0.426710	-0.012691	-0.012248
C139	C	0.676710	0.237309	0.237752
C140	C	0.926710	0.487309	0.487752
C141	C	0.242453	-0.262708	-0.262225
C142	C	0.492453	-0.012708	-0.012225
C143	C	0.742453	0.237292	0.237775
C144	C	0.992453	0.487292	0.487775
C145	C	0.275324	-0.303039	-0.302206
C146	C	0.525324	-0.053039	-0.052206
C147	C	0.775324	0.196961	0.197794
C148	C	1.025324	0.446961	0.447794
C149	C	0.949910	-0.569413	-0.262112
C150	C	1.199910	-0.319413	-0.012112
C151	C	1.449910	-0.069413	0.237888
C152	C	1.699910	0.180587	0.487888
C153	C	0.949939	-0.635156	-0.262126
C154	C	1.199939	-0.385156	-0.012126
C155	C	1.449939	-0.135156	0.237874
C156	C	1.699939	0.114844	0.487874
C157	C	0.909673	-0.668055	-0.302148
C158	C	1.159673	-0.418055	-0.052148
C159	C	1.409673	-0.168055	0.197852
C160	C	1.659673	0.081945	0.447852
C161	C	0.869386	-0.635206	-0.342170
C162	C	1.119386	-0.385206	-0.092170
C163	C	1.369386	-0.135206	0.157830
C164	C	1.619386	0.114794	0.407830
C165	C	0.869362	-0.569465	-0.342159
C166	C	1.119362	-0.319465	-0.092159
C167	C	1.369362	-0.069465	0.157841
C168	C	1.619362	0.180535	0.407841
N169	N	0.854606	-0.771337	-0.306900
N170	N	1.104606	-0.521337	-0.056900
N171	N	1.354606	-0.271337	0.193100
N172	N	1.604606	-0.021337	0.443100
N173	N	0.854630	-0.833788	-0.306907
N174	N	1.104630	-0.583788	-0.056907
N175	N	1.354630	-0.333788	0.193093
N176	N	1.604630	-0.083788	0.443093
C177	C	0.909743	-0.866130	-0.302184
C178	C	1.159743	-0.616130	-0.052184
C179	C	1.409743	-0.366130	0.197816
C180	C	1.659743	-0.116130	0.447816
N181	N	0.964832	-0.833660	-0.297442
N182	N	1.214832	-0.583660	-0.047442
N183	N	1.464832	-0.333660	0.202558
N184	N	1.714832	-0.083660	0.452558
N185	N	0.964807	-0.771203	-0.297432
N186	N	1.214807	-0.521203	-0.047432
N187	N	1.464807	-0.271203	0.202568
N188	N	1.714807	-0.021203	0.452568
C189	C	0.909695	-0.739340	-0.302164
C190	C	1.159695	-0.489340	-0.052164
C191	C	1.409695	-0.239340	0.197836
C192	C	1.659695	0.010660	0.447836
C193	C	0.950063	-0.970256	-0.262182
C194	C	1.200063	-0.720256	-0.012182
C195	C	1.450063	-0.470256	0.237818
C196	C	1.700063	-0.220256	0.487818
C197	C	0.950094	-1.036000	-0.262201
C198	C	1.200094	-0.786000	-0.012201
C199	C	1.450094	-0.536000	0.237799
C200	C	1.700094	-0.286000	0.487799
C201	C	0.869535	-1.036049	-0.342242
C202	C	1.119535	-0.786049	-0.092242
C203	C	1.369535	-0.536049	0.157758
C204	C	1.619535	-0.286049	0.407758
C205	C	0.869510	-0.970306	-0.342227
C206	C	1.119510	-0.720306	-0.092227
C207	C	1.369510	-0.470306	0.157773
C208	C	1.619510	-0.220306	0.407773
C209	C	0.909773	-0.937414	-0.302194
C210	C	1.159773	-0.687414	-0.052194
C211	C	1.409773	-0.437414	0.197806
C212	C	1.659773	-0.187414	0.447806
C213	C	1.073876	-0.303020	-0.302228
C214	C	1.323876	-0.053020	-0.052228
C215	C	1.573876	0.196980	0.197772
C216	C	1.823876	0.446980	0.447772
C217	C	1.143844	-0.303006	-0.302259
C218	C	1.393844	-0.053006	-0.052259
C219	C	1.643844	0.196994	0.197741
C220	C	1.893844	0.446994	0.447741
C221	C	0.909738	-0.303040	-0.465578
C222	C	1.159738	-0.053040	-0.215578
C223	C	1.409738	0.196960	0.034422
C224	C	1.659738	0.446960	0.284422
C225	C	0.909760	-0.303034	-0.535219
C226	C	1.159760	-0.053034	-0.285219
C227	C	1.409760	0.196966	-0.035219
C228	C	1.659760	0.446966	0.214781
C229	C	0.909785	-0.138862	-0.302203
C230	C	1.159785	0.111138	-0.052203
C231	C	1.409785	0.361138	0.197797
C232	C	1.659785	0.611138	0.447797
C233	C	0.909828	-0.068894	-0.302224
C234	C	1.159828	0.181106	-0.052224
C235	C	1.409828	0.431106	0.197776
C236	C	1.659828	0.681106	0.447776
C237	C	0.950044	-0.262763	-0.567963
C238	C	1.200044	-0.012763	-0.317963
C239	C	1.450044	0.237237	-0.067963
C240	C	1.700044	0.487237	0.182037
C241	C	0.950043	-0.262736	-0.633399
C242	C	1.200043	-0.012736	-0.383399
C243	C	1.450043	0.237264	-0.133399
C244	C	1.700043	0.487264	0.116601
C245	C	0.909765	-0.302992	-0.666088
C246	C	1.159765	-0.052992	-0.416088
C247	C	1.409765	0.197008	-0.166088
C248	C	1.659765	0.447008	0.083912
C249	C	0.869473	-0.343266	-0.633336
C250	C	1.119473	-0.093266	-0.383336
C251	C	1.369473	0.156734	-0.133336
C252	C	1.619473	0.406734	0.116664
C253	C	0.869470	-0.343287	-0.567902
C254	C	1.119470	-0.093287	-0.317902
C255	C	1.369470	0.156713	-0.067902
C256	C	1.619470	0.406713	0.182098
C257	C	0.904766	-0.359673	-0.769749
C258	C	1.154766	-0.109673	-0.519749
C259	C	1.404766	0.140327	-0.269749
C260	C	1.654766	0.390327	-0.019749
C261	C	0.904773	-0.359653	-0.835182
C262	C	1.154773	-0.109653	-0.585182
C263	C	1.404773	0.140347	-0.335182
C264	C	1.654773	0.390347	-0.085182
C265	C	0.909769	-0.302925	-0.867909
C266	C	1.159769	-0.052925	-0.617909
C267	C	1.409769	0.197075	-0.367909
C268	C	1.659769	0.447075	-0.117909
C269	C	0.914771	-0.246216	-0.835195
C270	C	1.164771	0.003784	-0.585195
C271	C	1.414771	0.253784	-0.335195
C272	C	1.664771	0.503784	-0.085195
C273	C	0.914769	-0.246238	-0.769760
C274	C	1.164769	0.003762	-0.519760
C275	C	1.414769	0.253762	-0.269760
C276	C	1.664769	0.503762	-0.019760
C277	C	0.909763	-0.302973	-0.737040
C278	C	1.159763	-0.052973	-0.487040
C279	C	1.409763	0.197027	-0.237040
C280	C	1.659763	0.447027	0.012960
C281	C	0.950054	-0.262621	-0.971605
C282	C	1.200054	-0.012621	-0.721605
C283	C	1.450054	0.237379	-0.471605
C284	C	1.700054	0.487379	-0.221605
C285	C	0.950049	-0.262593	-1.037042
C286	C	1.200049	-0.012593	-0.787042
C287	C	1.450049	0.237407	-0.537042
C288	C	1.700049	0.487407	-0.287042
C289	C	0.869482	-0.343128	-1.036978
C290	C	1.119482	-0.093128	-0.786978
C291	C	1.369482	0.156872	-0.536978
C292	C	1.619482	0.406872	-0.286978
C293	C	0.869484	-0.343151	-0.971542
C294	C	1.119484	-0.093151	-0.721542
C295	C	1.369484	0.156849	-0.471542
C296	C	1.619484	0.406849	-0.221542
C297	C	0.909773	-0.302898	-0.938860
C298	C	1.159773	-0.052898	-0.688860
C299	C	1.409773	0.197102	-0.438860
C300	C	1.659773	0.447102	-0.188860
C301	C	0.909670	-0.303020	-0.139367
C302	C	1.159670	-0.053020	0.110633
C303	C	1.409670	0.196980	0.360633
C304	C	1.659670	0.446980	0.610633
C305	C	0.909769	-0.302848	-0.069726
C306	C	1.159769	-0.052848	0.180274
C307	C	1.409769	0.197152	0.430274
C308	C	1.659769	0.447152	0.680274
H309	H	0.670064	-0.376267	-0.374626
H310	H	0.920064	-0.126267	-0.124626
H311	H	1.170064	0.123733	0.125374
H312	H	1.420064	0.373733	0.375374
H313	H	0.269226	-0.376185	-0.374773
H314	H	0.519226	-0.126185	-0.124773
H315	H	0.769226	0.123815	0.125227
H316	H	1.019226	0.373815	0.375227
H317	H	0.149962	-0.376153	-0.374821
H318	H	0.399962	-0.126153	-0.124821
H319	H	0.649962	0.123847	0.125179
H320	H	0.899962	0.373847	0.375179
H321	H	0.982746	-0.661900	-0.229541
H322	H	1.232746	-0.411900	0.020459
H323	H	1.482746	-0.161900	0.270459
H324	H	1.732746	0.088100	0.520459
H325	H	0.836602	-0.661997	-0.374757
H326	H	1.086602	-0.411997	-0.124757
H327	H	1.336602	-0.161997	0.125243
H328	H	1.586602	0.088003	0.375243
H329	H	0.900529	-0.405856	-0.743108
H330	H	1.150529	-0.155856	-0.493108
H331	H	1.400529	0.094144	-0.243108
H332	H	1.650529	0.344144	0.006892
H333	H	0.900703	-0.405829	-0.861813
H334	H	1.150703	-0.155829	-0.611813
H335	H	1.400703	0.094171	-0.361813
H336	H	1.650703	0.344171	-0.111813
H337	H	0.836557	-0.542725	-0.374745
H338	H	1.086557	-0.292725	-0.124745
H339	H	1.336557	-0.042725	0.125255
H340	H	1.586557	0.207275	0.375255
H341	H	0.149942	-0.229858	-0.229695
H342	H	0.399942	0.020142	0.020305
H343	H	0.649942	0.270142	0.270305
H344	H	0.899942	0.520142	0.520305
H345	H	0.918840	-0.200063	-0.743127
H346	H	1.168840	0.049937	-0.493127
H347	H	1.418840	0.299937	-0.243127
H348	H	1.668840	0.549937	0.006873
H349	H	0.982846	-0.229939	-0.660064
H350	H	1.232846	0.020061	-0.410064
H351	H	1.482846	0.270061	-0.160064
H352	H	1.732846	0.520061	0.089936
H353	H	0.550800	-0.376238	-0.374673
H354	H	0.800800	-0.126238	-0.124673
H355	H	1.050800	0.123762	0.125327
H356	H	1.300800	0.373762	0.375327
H357	H	0.550779	-0.229941	-0.229553
H358	H	0.800779	0.020059	0.020447
H359	H	1.050779	0.270059	0.270447
H360	H	1.300779	0.520059	0.520447
H361	H	0.836752	-1.062835	-0.374831
H362	H	1.086752	-0.812835	-0.124831
H363	H	1.336752	-0.562835	0.125169
H364	H	1.586752	-0.312835	0.375169
H365	H	0.982850	-0.943474	-0.229587
H366	H	1.232850	-0.693474	0.020413
H367	H	1.482850	-0.443474	0.270413
H368	H	1.732850	-0.193474	0.520413
H369	H	0.982696	-0.542634	-0.229516
H370	H	1.232696	-0.292634	0.020484
H371	H	1.482696	-0.042634	0.270484
H372	H	1.732696	0.207366	0.520484
H373	H	0.918841	-0.200023	-0.861839
H374	H	1.168841	0.049977	-0.611839
H375	H	1.418841	0.299977	-0.361839
H376	H	1.668841	0.549977	-0.111839
H377	H	0.982857	-0.229842	-0.944994
H378	H	1.232857	0.020158	-0.694994
H379	H	1.482857	0.270158	-0.444994
H380	H	1.732857	0.520158	-0.194994
H381	H	0.670050	-0.229955	-0.229511
H382	H	0.920050	0.020045	0.020489
H383	H	1.170050	0.270045	0.270489
H384	H	1.420050	0.520045	0.520489
H385	H	0.269209	-0.229884	-0.229648
H386	H	0.519209	0.020116	0.020352
H387	H	0.769209	0.270116	0.270352
H388	H	1.019209	0.520116	0.520352
H389	H	0.836704	-0.943566	-0.374808
H390	H	1.086704	-0.693566	-0.124808
H391	H	1.336704	-0.443566	0.125192
H392	H	1.586704	-0.193566	0.375192
H393	H	0.982852	-0.229796	-1.063701
H394	H	1.232852	0.020204	-0.813701
H395	H	1.482852	0.270204	-0.563701
H396	H	1.732852	0.520204	-0.313701
H397	H	0.982902	-1.062738	-0.229618
H398	H	1.232902	-0.812738	0.020382
H399	H	1.482902	-0.562738	0.270382
H400	H	1.732902	-0.312738	0.520382
H401	H	0.982850	-0.229986	-0.541357
H402	H	1.232850	0.020014	-0.291357
H403	H	1.482850	0.270014	-0.041357
H404	H	1.732850	0.520014	0.208643
H405	H	0.836680	-0.375898	-1.063593
H406	H	1.086680	-0.125898	-0.813593
H407	H	1.336680	0.124102	-0.563593
H408	H	1.586680	0.374102	-0.313593
H409	H	0.836683	-0.375948	-0.944882
H410	H	1.086683	-0.125948	-0.694882
H411	H	1.336683	0.124052	-0.444882
H412	H	1.586683	0.374052	-0.194882
H413	H	0.836676	-0.376040	-0.659956
H414	H	1.086676	-0.126040	-0.409956
H415	H	1.336676	0.123960	-0.159956
H416	H	1.586676	0.373960	0.090044
H417	H	0.836663	-0.376080	-0.541242
H418	H	1.086663	-0.126080	-0.291242
H419	H	1.336663	0.123920	-0.041242
H420	H	1.586663	0.373920	0.208758
