data_functionalizedCrystal
_audit_creation_method	'MofGen! by Chris Wilmer'
_symmetry_space_group_name_H-M	'P1'
_symmetry_Int_Tables_number	1
_symmetry_cell_setting	triclinic
loop_
_symmetry_equiv_pos_as_xyz
  x,y,z
_cell_length_a	9.065218
_cell_length_b	17.038272
_cell_length_c	7.540329
_cell_angle_alpha	89.996089
_cell_angle_beta	89.996962
_cell_angle_gamma	88.063721
loop_
_atom_site_label
_atom_site_type_symbol
_atom_site_fract_x
_atom_site_fract_y
_atom_site_fract_z
O1	O	1.971909	0.114742	-0.147490
O2	O	1.543568	0.124154	-0.147492
O3	O	1.755192	0.005614	-0.147477
O4	O	1.760284	0.233281	-0.147505
O5	O	1.755179	0.005612	0.147488
O6	O	1.543554	0.124152	0.147473
O7	O	1.971895	0.114740	0.147476
Cu8	Cu	1.757723	0.119446	0.174407
Cu9	Cu	1.757739	0.119448	-0.174424
O10	O	1.760270	0.233280	0.147460
C11	C	1.488484	0.123248	-0.000010
C12	C	1.324369	0.120544	-0.000011
C13	C	1.750555	-0.023549	0.000005
C14	C	1.736739	-0.110441	0.000005
C15	C	1.863587	-0.159639	0.000008
C16	C	1.850596	-0.241284	-0.000009
C17	C	1.710756	-0.273728	-0.000016
C18	C	1.583899	-0.224524	-0.000024
C19	C	1.596891	-0.142881	-0.000020
C20	C	1.664859	-0.519818	-0.000041
C21	C	1.651876	-0.601467	-0.000040
C22	C	1.918575	-0.618221	-0.000028
C23	C	1.931554	-0.536576	-0.000013
C24	C	1.804697	-0.487379	-0.000031
C25	C	1.697475	-0.357182	-0.000028
C26	C	1.817980	-0.403927	-0.000032
C27	C	2.026979	0.115646	-0.000011
C28	C	2.191093	0.118350	-0.000022
C29	C	1.764908	0.262442	-0.000026
C30	C	1.778724	0.349335	-0.000037
N31	N	1.757723	0.119444	0.419755
N32	N	1.757751	0.119443	-0.419772
H33	H	1.977459	-0.133230	0.000024
H34	H	1.953890	-0.281338	-0.000003
H35	H	1.493597	-0.102824	-0.000023
H36	H	1.583616	-0.383607	-0.000030
C37	C	2.193870	-0.561342	-0.000004
C38	C	2.085271	-0.500916	-0.000003
H39	H	2.288768	-0.539324	0.000000
H40	H	2.183245	-0.592841	0.102844
H41	H	2.183260	-0.592832	-0.102879
H42	H	2.095874	-0.469429	0.102879
H43	H	2.095901	-0.469404	-0.102862
C44	C	1.987303	-0.321824	-0.151647
C45	C	1.971687	-0.368263	-0.000022
H46	H	2.082193	-0.299799	-0.151626
H47	H	1.976721	-0.353325	-0.254489
H48	H	1.913597	-0.280846	-0.151635
H49	H	2.045387	-0.409245	-0.000040
H50	H	1.982285	-0.336761	0.102847
H51	H	2.021854	-0.658286	-0.000017
H52	H	1.537996	-0.627879	-0.000017
C53	C	1.399938	-0.511469	-0.000011
C54	C	1.525418	-0.465747	-0.000026
H55	H	1.313851	-0.478084	0.000014
H56	H	1.400419	-0.543654	-0.102870
H57	H	1.400438	-0.543669	0.102853
H58	H	1.524924	-0.433551	-0.102897
H59	H	1.524937	-0.433549	0.102843
H60	H	1.470038	-0.250946	-0.000041
