data_functionalizedCrystal
_audit_creation_method	'MofGen! by Chris Wilmer'
_symmetry_space_group_name_H-M	'P1'
_symmetry_Int_Tables_number	1
_symmetry_cell_setting	triclinic
loop_
_symmetry_equiv_pos_as_xyz
  x,y,z
_cell_length_a	19.288840
_cell_length_b	23.532357
_cell_length_c	18.366186
_cell_angle_alpha	89.988209
_cell_angle_beta	89.983729
_cell_angle_gamma	82.977153
loop_
_atom_site_label
_atom_site_type_symbol
_atom_site_fract_x
_atom_site_fract_y
_atom_site_fract_z
O1	O	0.921129	0.070979	-0.060680
O2	O	0.718835	0.080578	-0.060656
O3	O	0.826100	-0.007143	-0.060654
O4	O	0.813864	0.158700	-0.060682
O5	O	0.826082	-0.007147	0.060446
O6	O	0.718817	0.080574	0.060443
O7	O	0.921111	0.070975	0.060419
Zn8	Zn	0.819961	0.075774	0.079659
Zn9	Zn	0.819985	0.075779	-0.079895
O10	O	0.813846	0.158696	0.060417
C11	C	0.692950	0.080269	-0.000103
C12	C	0.615848	0.079349	-0.000093
C13	C	0.579656	0.078910	-0.066106
C14	C	0.507212	0.078039	-0.066115
C15	C	0.470965	0.077596	-0.000107
C16	C	0.507165	0.078039	0.065915
C17	C	0.579607	0.078916	0.065922
C18	C	0.361745	0.042847	0.050460
C19	C	0.289305	0.041967	0.050451
C20	C	0.247530	0.074895	-0.000125
C21	C	0.278206	0.108696	-0.050704
C22	C	0.350647	0.109573	-0.050697
C23	C	0.392414	0.076646	-0.000107
C24	C	0.132786	0.073512	-0.066153
C25	C	0.060340	0.072645	-0.066159
C26	C	0.060296	0.072640	0.065873
C27	C	0.132739	0.073513	0.065877
C28	C	0.168980	0.073946	-0.000138
C29	C	0.825785	-0.028362	-0.000102
C30	C	0.824865	-0.091583	-0.000095
C31	C	0.819098	-0.483603	-0.066145
C32	C	0.818223	-0.543004	-0.066149
O33	O	0.817755	-0.573720	-0.122289
N34	N	0.817779	-0.572719	-0.000138
C35	C	0.818203	-0.543028	0.065880
O36	O	0.817745	-0.573757	0.122027
C37	C	0.819073	-0.483628	0.065884
C38	C	0.819524	-0.453917	-0.000131
C39	C	0.819548	-0.453893	-0.132154
C40	C	0.820424	-0.394496	-0.132150
C41	C	0.820850	-0.364809	-0.066136
C42	C	0.820400	-0.394520	-0.000127
C43	C	0.819492	-0.453937	0.131902
C44	C	0.820362	-0.394533	0.131899
C45	C	0.820812	-0.364822	0.065885
C46	C	0.821702	-0.305437	0.065891
N47	N	0.822146	-0.275722	-0.000119
C48	C	0.821720	-0.305409	-0.066133
C49	C	0.816376	-0.667773	0.065869
C50	C	0.815511	-0.727174	0.065866
C51	C	0.815529	-0.727146	-0.066163
C52	C	0.816399	-0.667745	-0.066160
C53	C	0.816819	-0.638059	-0.000142
C54	C	0.823560	-0.180671	-0.066119
C55	C	0.824439	-0.121269	-0.066108
C56	C	0.824417	-0.121302	0.065921
C57	C	0.823542	-0.180699	0.065911
C58	C	0.823111	-0.210382	-0.000115
O59	O	0.822167	-0.274683	0.122003
O60	O	0.822169	-0.274672	-0.122270
C61	C	0.946996	0.071283	-0.000135
C62	C	1.024098	0.072203	-0.000150
C63	C	0.814161	0.179915	-0.000136
C64	C	0.815081	0.243135	-0.000148
N65	N	0.819950	0.075769	0.188550
N66	N	0.820002	0.075779	-0.188786
C67	C	0.867462	0.036945	0.226651
C68	C	0.867467	0.036943	0.302879
C69	C	0.819965	0.075774	0.341002
C70	C	0.772444	0.114601	0.302892
C71	C	0.772436	0.114598	0.226666
C72	C	0.810496	0.127667	0.461755
C73	C	0.810508	0.127670	0.537980
C74	C	0.819985	0.075781	0.576110
C75	C	0.829464	0.023887	0.538006
C76	C	0.829456	0.023884	0.461780
C77	C	0.819968	0.075781	0.423657
C78	C	0.867505	0.036951	0.696866
C79	C	0.867505	0.036948	0.773095
C80	C	0.772485	0.114611	0.773107
C81	C	0.772482	0.114609	0.696879
C82	C	0.819996	0.075780	0.658763
H83	H	0.030783	0.072283	0.119618
H84	H	0.824807	-0.097082	-0.119868
H85	H	0.906193	0.005330	0.804118
H86	H	0.820788	-0.370310	-0.185906
H87	H	0.823206	-0.204831	-0.119883
Cl88	Cl	0.814988	-0.764476	-0.149153
H89	H	0.162294	0.073871	-0.119906
H90	H	0.815154	-0.751360	0.119622
H91	H	0.906149	0.005327	0.195619
Cl92	Cl	0.625212	0.079458	-0.149096
Cl93	Cl	0.178241	0.074062	0.148870
Cl94	Cl	0.712763	0.163423	0.821028
H95	H	0.264335	0.014441	0.091631
Cl96	Cl	0.816911	-0.630461	0.148872
H97	H	0.030873	0.072290	-0.119916
H98	H	0.395752	0.016031	0.091649
Cl99	Cl	0.824952	-0.083971	0.148905
Cl100	Cl	0.461704	0.077486	-0.149109
Cl101	Cl	0.820891	-0.357217	0.214899
H102	H	0.823181	-0.204891	0.119665
H103	H	0.819198	-0.478057	-0.185913
Cl104	Cl	0.461598	0.077486	0.148897
Cl105	Cl	0.816963	-0.630400	-0.149153
H106	H	0.819126	-0.478118	0.185658
H107	H	0.733795	0.146226	0.665855
Cl108	Cl	0.625108	0.079468	0.148917
H109	H	0.802794	0.169926	0.568998
Cl110	Cl	0.712724	0.163415	0.350817
Cl111	Cl	0.927203	-0.011868	0.350786
Cl112	Cl	0.841364	-0.041351	0.413880
H113	H	0.837181	-0.018366	0.569050
H114	H	0.906192	0.005332	0.665831
Cl115	Cl	0.798646	0.192907	0.413827
Cl116	Cl	0.712702	0.163410	0.178763
Cl117	Cl	0.225697	0.150098	-0.114287
H118	H	0.375620	0.137096	-0.091879
