data_functionalizedCrystal
_audit_creation_method	'MofGen! by Chris Wilmer'
_symmetry_space_group_name_H-M	'P1'
_symmetry_Int_Tables_number	1
_symmetry_cell_setting	triclinic
loop_
_symmetry_equiv_pos_as_xyz
  x,y,z
_cell_length_a	14.044220
_cell_length_b	23.532407
_cell_length_c	13.101039
_cell_angle_alpha	93.336507
_cell_angle_beta	86.340132
_cell_angle_gamma	88.018778
loop_
_atom_site_label
_atom_site_type_symbol
_atom_site_fract_x
_atom_site_fract_y
_atom_site_fract_z
O1	O	1.261651	0.134360	-0.085125
O2	O	0.985730	0.129407	-0.085150
O3	O	1.132009	0.049404	-0.085118
O4	O	1.115371	0.214364	-0.085157
O5	O	1.121514	0.055154	0.085309
O6	O	0.975234	0.135158	0.085277
O7	O	1.251155	0.140111	0.085302
Zn8	Zn	1.111528	0.138547	0.112349
Zn9	Zn	1.125356	0.130971	-0.112197
O10	O	1.104875	0.220114	0.085270
C11	C	0.945188	0.130115	0.000061
C12	C	0.840024	0.123648	0.000052
C13	C	0.647472	0.111828	0.000075
C14	C	0.589407	0.157687	0.000068
C15	C	0.482265	0.151110	0.000081
C16	C	0.754624	0.118404	0.000062
C17	C	1.126338	0.031040	0.000098
C18	C	1.125063	-0.032246	0.000106
C19	C	1.203641	-0.427092	0.000057
C20	C	1.202458	-0.486556	0.000049
O21	O	1.275300	-0.519354	0.000018
N22	N	1.115494	-0.513896	0.000042
C23	C	1.029708	-0.481769	0.000032
O24	O	0.955630	-0.510484	0.000024
C25	C	1.030893	-0.422306	0.000033
C26	C	1.117862	-0.394968	0.000050
C27	C	1.290603	-0.399754	0.000073
C28	C	1.291786	-0.340294	0.000083
C29	C	1.206007	-0.308170	0.000077
C30	C	1.119045	-0.335508	0.000060
C31	C	0.945109	-0.390179	0.000016
C32	C	0.946301	-0.330712	0.000015
C33	C	1.033270	-0.303375	0.000033
C34	C	1.034448	-0.243924	0.000063
N35	N	1.121412	-0.216584	0.000070
C36	C	1.207191	-0.248707	0.000077
C37	C	1.027228	-0.606646	0.000029
C38	C	1.026042	-0.666108	0.000036
C39	C	1.198792	-0.670891	0.000051
C40	C	1.199977	-0.611428	0.000052
C41	C	1.114192	-0.579306	0.000036
C42	C	1.209668	-0.123835	0.000099
C43	C	1.210843	-0.064369	0.000113
C44	C	1.038093	-0.059591	0.000092
C45	C	1.036917	-0.119052	0.000084
C46	C	1.122713	-0.151173	0.000083
O47	O	0.961644	-0.211090	0.000090
O48	O	1.281258	-0.219985	0.000071
C49	C	1.291697	0.139403	0.000089
C50	C	1.396862	0.145869	0.000091
C51	C	1.110547	0.238478	0.000052
C52	C	1.111822	0.301763	0.000037
N53	N	1.102098	0.143718	0.265595
N54	N	1.134794	0.125796	-0.265443
C55	C	1.089267	0.150758	0.474635
C56	C	1.147622	0.118757	0.525524
C57	C	1.140483	0.122674	0.641841
C58	C	1.096405	0.146842	0.358308
H59	H	0.616718	0.067631	0.000091
H60	H	0.966099	-0.141310	0.000098
H61	H	0.968254	-0.033425	0.000090
H62	H	1.202943	0.088418	0.481734
H63	H	0.620163	0.201887	0.000053
H64	H	1.033950	0.181096	0.518420
C65	C	1.381485	-0.075080	0.000119
C66	C	1.306446	-0.034322	0.000123
H67	H	1.440503	-0.056530	0.000117
H68	H	1.373771	-0.096173	0.059544
H69	H	1.381078	-0.100173	-0.059320
H70	H	1.306849	-0.009231	0.059566
H71	H	1.314162	-0.013219	-0.059308
C72	C	1.313983	-0.196418	-0.087512
C73	C	1.303975	-0.159136	0.000103
H74	H	1.372206	-0.218208	-0.087505
H75	H	1.262036	-0.221214	-0.087516
H76	H	1.314509	-0.175114	-0.146934
H77	H	1.303441	-0.180441	0.059526
H78	H	1.355936	-0.134338	0.000116
C79	C	1.462418	-0.351014	0.000087
C80	C	1.387387	-0.310251	0.000089
H81	H	1.521440	-0.332468	0.000082
H82	H	1.454701	-0.372104	0.059515
H83	H	1.462005	-0.376108	-0.059349
H84	H	1.387795	-0.285158	0.059529
H85	H	1.395106	-0.289151	-0.059345
C86	C	1.394916	-0.472342	-0.087528
C87	C	1.384905	-0.435057	0.000081
H88	H	1.453142	-0.494129	-0.087519
H89	H	1.342972	-0.497140	-0.087528
H90	H	1.395440	-0.451041	-0.146954
H91	H	1.384375	-0.456358	0.059508
H92	H	1.436863	-0.410256	0.000090
C93	C	1.370610	-0.622143	0.000059
C94	C	1.295576	-0.581383	0.000055
H95	H	1.429631	-0.603596	0.000052
H96	H	1.362894	-0.643231	0.059491
H97	H	1.370200	-0.647241	-0.059374
H98	H	1.295981	-0.556288	0.059492
H99	H	1.303294	-0.560285	-0.059382
H100	H	1.268639	-0.697057	0.000052
C101	C	0.855408	-0.655392	0.000019
C102	C	0.930442	-0.696152	0.000025
H103	H	0.796389	-0.673940	0.000001
H104	H	0.855805	-0.630303	0.059452
H105	H	0.863136	-0.634296	-0.059412
H106	H	0.922718	-0.717246	0.059460
H107	H	0.930043	-0.721252	-0.059414
C108	C	0.922933	-0.534051	0.087637
C109	C	0.932925	-0.571337	0.000028
H110	H	0.864717	-0.512253	0.087630
H111	H	0.922405	-0.555348	0.147057
H112	H	0.974895	-0.509258	0.087630
H113	H	0.880966	-0.596133	0.000039
H114	H	0.933444	-0.550038	-0.059407
H115	H	0.874290	-0.412427	-0.000005
H116	H	0.876442	-0.304561	0.000002
