data_functionalizedCrystal
_audit_creation_method	'MofGen! by Chris Wilmer'
_symmetry_space_group_name_H-M	'P1'
_symmetry_Int_Tables_number	1
_symmetry_cell_setting	triclinic
loop_
_symmetry_equiv_pos_as_xyz
  x,y,z
_cell_length_a	10.654546
_cell_length_b	15.995292
_cell_length_c	9.730223
_cell_angle_alpha	89.996831
_cell_angle_beta	90.003777
_cell_angle_gamma	83.976050
loop_
_atom_site_label
_atom_site_type_symbol
_atom_site_fract_x
_atom_site_fract_y
_atom_site_fract_z
O1	O	1.666269	0.117586	0.114309
O2	O	1.300640	0.128794	0.114304
O3	O	1.493487	0.001357	0.114309
O4	O	1.473421	0.245023	0.114305
O5	O	1.493475	0.001364	-0.114271
O6	O	1.300627	0.128801	-0.114276
O7	O	1.666256	0.117593	-0.114271
Zn8	Zn	1.483440	0.123198	-0.150565
Zn9	Zn	1.483456	0.123189	0.150599
O10	O	1.473409	0.245030	-0.114275
C11	C	1.253846	0.127975	0.000014
C12	C	1.114436	0.125515	0.000013
C13	C	1.492664	-0.029840	0.000023
C14	C	1.490216	-0.122807	0.000033
C15	C	1.048964	0.124347	0.124618
C16	C	0.917974	0.122028	0.124629
C17	C	0.917941	0.122043	-0.124582
C18	C	1.048927	0.124367	-0.124591
C19	C	1.048982	0.124335	0.268498
C20	C	0.917992	0.122016	0.268509
C21	C	1.481215	-0.460598	0.000020
C22	C	1.620407	-0.436478	-0.000489
C23	C	1.623052	-0.339787	0.000032
C24	C	1.485681	-0.293016	0.000026
C25	C	1.416099	-0.322524	0.130551
C26	C	1.414423	-0.419325	0.130655
C27	C	1.411567	-0.419190	-0.129283
C28	C	1.416725	-0.322668	-0.131003
C29	C	1.488198	-0.198305	0.000033
C30	C	1.478694	-0.555308	0.000022
C31	C	1.713050	0.118412	0.000023
C32	C	1.852460	0.120872	0.000033
C33	C	1.474232	0.276227	0.000014
C34	C	1.476680	0.369194	0.000013
N35	N	1.483438	0.123204	-0.356101
C36	C	1.559582	0.174456	-0.428041
C37	C	1.559601	0.174440	-0.571924
C38	C	1.407321	0.071919	-0.571916
C39	C	1.407310	0.071931	-0.428035
C40	C	1.647496	0.233649	-0.428046
C41	C	1.647515	0.233633	-0.571929
N42	N	1.483468	0.123176	0.356135
H43	H	1.102228	0.125328	-0.226057
H44	H	1.345340	0.030173	-0.630502
H45	H	1.746822	0.213075	-0.388979
H46	H	1.615699	0.299659	-0.611004
N47	N	1.275860	-0.438519	-0.130460
H48	H	1.259021	-0.470318	-0.217058
H49	H	1.218203	-0.384245	-0.127360
H50	H	0.893971	0.062890	0.323752
N51	N	0.847283	0.120808	-0.258969
H52	H	0.754151	0.120342	-0.240065
H53	H	0.879161	0.068796	-0.312546
N54	N	1.118552	0.045349	0.327635
H55	H	1.169026	0.060175	0.410360
H56	H	1.177351	0.017507	0.255864
N57	N	0.848434	0.200992	0.327681
H58	H	0.789547	0.228885	0.256018
H59	H	0.911253	0.240791	0.356266
N60	N	1.695201	-0.314152	-0.123922
H61	H	1.725574	-0.365706	-0.179391
H62	H	1.770085	-0.285259	-0.092668
H63	H	1.674053	-0.464161	-0.094094
N64	N	1.691099	-0.474508	0.122799
H65	H	1.633353	-0.507291	0.178980
H66	H	1.721068	-0.428234	0.180990
H67	H	1.607122	0.296698	-0.383444
H68	H	1.462623	-0.445864	0.228229
N69	N	1.695670	-0.314996	0.124197
H70	H	1.653160	-0.332885	0.210541
H71	H	1.697686	-0.252011	0.124942
H72	H	1.345319	0.030187	-0.369468
H73	H	1.742458	0.207312	-0.616530
H74	H	1.312367	-0.434467	0.136565
N75	N	1.282195	-0.281097	0.136985
H76	H	1.265310	-0.242708	0.055157
H77	H	1.269996	-0.247239	0.224465
H78	H	1.073013	0.183455	0.323739
H79	H	1.464429	-0.302187	0.227691
H80	H	1.455396	-0.447021	-0.228221
H81	H	1.467391	-0.303805	-0.227565
H82	H	1.316457	-0.290279	-0.138890
