data_functionalizedCrystal
_audit_creation_method	'MofGen! by Chris Wilmer'
_symmetry_space_group_name_H-M	'P1'
_symmetry_Int_Tables_number	1
_symmetry_cell_setting	triclinic
loop_
_symmetry_equiv_pos_as_xyz
  x,y,z
_cell_length_a	19.077105
_cell_length_b	19.077068
_cell_length_c	18.215399
_cell_angle_alpha	92.268164
_cell_angle_beta	87.683200
_cell_angle_gamma	90.115316
loop_
_atom_site_label
_atom_site_type_symbol
_atom_site_fract_x
_atom_site_fract_y
_atom_site_fract_z
Zn1	Zn	1.062993	-0.322984	-0.474261
Zn2	Zn	1.562993	0.177016	0.025739
Zn3	Zn	1.058179	-0.440492	-0.355921
Zn4	Zn	1.558179	0.059508	0.144079
Zn5	Zn	0.945484	-0.318278	-0.346081
Zn6	Zn	1.445484	0.181722	0.153919
Zn7	Zn	0.940728	-0.435726	-0.473819
Zn8	Zn	1.440728	0.064274	0.026181
O9	O	1.001846	-0.379370	-0.412520
O10	O	1.501846	0.120630	0.087480
O11	O	1.160686	-0.342536	-0.462866
O12	O	1.660686	0.157464	0.037134
O13	O	1.043206	-0.424305	-0.251632
O14	O	1.543206	0.075695	0.248368
O15	O	0.965077	-0.220572	-0.359151
O16	O	1.465077	0.279428	0.140849
O17	O	1.157149	-0.428869	-0.375923
O18	O	1.657149	0.071131	0.124077
O19	O	1.051410	-0.224030	-0.453324
O20	O	1.551410	0.275970	0.046676
O21	O	0.960409	-0.334515	-0.244402
O22	O	1.460409	0.165485	0.255598
O23	O	0.846522	-0.329893	-0.358722
O24	O	1.346522	0.170107	0.141278
O25	O	0.956970	-0.420745	-0.576862
O26	O	1.456970	0.079255	-0.076862
O27	O	0.843027	-0.416182	-0.452571
O28	O	1.343027	0.083818	0.047429
O29	O	1.046798	-0.337914	-0.577186
O30	O	1.546798	0.162086	-0.077186
O31	O	1.038594	-0.538190	-0.375494
O32	O	1.538594	-0.038190	0.124506
O33	O	0.952303	-0.534688	-0.462113
O34	O	1.452303	-0.034688	0.037887
C35	C	0.819278	-0.372010	-0.404531
C36	C	1.319278	0.127990	0.095469
C37	C	0.741174	-0.368878	-0.401131
C38	C	1.241174	0.131122	0.098869
C39	C	0.702677	-0.412400	-0.448325
C40	C	1.202677	0.087600	0.051675
C41	C	0.629291	-0.409448	-0.445133
C42	C	1.129291	0.090552	0.054867
C43	C	0.594402	-0.362977	-0.394744
C44	C	1.094402	0.137023	0.105256
C45	C	0.632905	-0.319450	-0.347549
C46	C	1.132905	0.180550	0.152451
C47	C	0.706290	-0.322399	-0.350744
C48	C	1.206290	0.177601	0.149256
C49	C	0.375117	-0.349330	-0.379959
C50	C	0.875117	0.150670	0.120041
C51	C	0.301727	-0.346386	-0.376766
C52	C	0.801727	0.153614	0.123234
C53	C	0.298118	-0.436383	-0.474352
C54	C	0.798118	0.063617	0.025648
C55	C	0.371504	-0.439331	-0.477539
C56	C	0.871504	0.060669	0.022461
C57	C	0.410001	-0.395801	-0.430347
C58	C	0.910001	0.104199	0.069653
N59	N	0.519390	-0.359960	-0.391480
N60	N	1.019390	0.140040	0.108520
N61	N	0.485012	-0.398815	-0.433616
N62	N	0.985012	0.101185	0.066384
C63	C	0.994429	-0.561935	-0.419840
C64	C	1.494429	-0.061935	0.080160
C65	C	0.991320	-0.640040	-0.422999
C66	C	1.491320	-0.140040	0.077001
C67	C	1.034821	-0.678535	-0.379426
C68	C	1.534821	-0.178535	0.120574
C69	C	1.031901	-0.751923	-0.382401
C70	C	1.531901	-0.251923	0.117599
C71	C	0.985476	-0.786815	-0.428946
C72	C	1.485476	-0.286815	0.071054
C73	C	0.941973	-0.748314	-0.472524
C74	C	1.441973	-0.248314	0.027476
C75	C	0.944897	-0.674928	-0.469552
C76	C	1.444897	-0.174928	0.030448
C77	C	0.971913	-1.006103	-0.442671
C78	C	1.471913	-0.506103	0.057329
C79	C	0.968991	-1.079495	-0.445638
C80	C	1.468991	-0.579495	0.054362
C81	C	1.058921	-1.083099	-0.355515
C82	C	1.558921	-0.583099	0.144485
C83	C	1.061838	-1.009711	-0.352544
C84	C	1.561838	-0.509711	0.147456
C85	C	1.018337	-0.971217	-0.396125
C86	C	1.518337	-0.471217	0.103875
N87	N	0.982489	-0.861829	-0.431987
N88	N	1.482489	-0.361829	0.068013
N89	N	1.021328	-0.896205	-0.393087
N90	N	1.521328	-0.396205	0.106913
C91	C	1.185126	-0.386759	-0.420541
C92	C	1.685126	0.113241	0.079459
C93	C	1.263230	-0.389908	-0.423959
C94	C	1.763230	0.110092	0.076041
C95	C	1.001891	-0.379323	-0.604473
C96	C	1.501891	0.120677	-0.104473
C97	C	1.001910	-0.379303	-0.686272
C98	C	1.501910	0.120697	-0.186272
C99	C	1.009311	-0.196092	-0.405189
C100	C	1.509311	0.303908	0.094811
C101	C	1.012493	-0.117990	-0.402065
C102	C	1.512493	0.382010	0.097935
C103	C	1.048701	-0.336132	-0.874635
C104	C	1.548701	0.163868	-0.374635
C105	C	1.048710	-0.336112	-0.951494
C106	C	1.548710	0.163888	-0.451494
C107	C	0.955173	-0.422368	-0.951144
C108	C	1.455173	0.077632	-0.451144
C109	C	0.955161	-0.422384	-0.874287
C110	C	1.455161	0.077616	-0.374287
C111	C	1.001929	-0.379267	-0.836035
C112	C	1.501929	0.120733	-0.336035
C113	C	1.001950	-0.379231	-0.989751
C114	C	1.501950	0.120769	-0.489751
C115	C	1.001960	-0.379209	-1.073084
C116	C	1.501960	0.120791	-0.573084
C117	C	1.001918	-0.379287	-0.752696
C118	C	1.501918	0.120713	-0.252696
C119	C	1.001844	-0.379367	-0.221314
C120	C	1.501844	0.120633	0.278686
C121	C	1.001969	-0.379195	-0.139513
C122	C	1.501969	0.120805	0.360487
H123	H	0.731078	-0.450245	-0.489354
H124	H	1.231078	0.049755	0.010646
C125	C	1.106772	-1.125440	-0.307584
C126	C	1.606772	-0.625440	0.192416
H127	H	1.134836	-1.094149	-0.279435
H128	H	1.634836	-0.594149	0.220565
H129	H	1.136235	-1.155257	-0.338257
H130	H	1.636235	-0.655257	0.161743
H131	H	1.078764	-1.153029	-0.275477
H132	H	1.578764	-0.653029	0.224523
H133	H	0.597949	-0.444890	-0.483563
H134	H	1.097949	0.055110	0.016437
C135	C	0.890905	-0.786693	-0.523721
C136	C	1.390905	-0.286693	-0.023721
H137	H	0.895387	-0.835912	-0.519246
H138	H	1.395387	-0.335912	-0.019246
H139	H	0.901639	-0.775039	-0.573138
H140	H	1.401639	-0.275039	-0.073138
H141	H	0.844173	-0.772809	-0.510353
H142	H	1.344173	-0.272809	-0.010353
C143	C	0.903713	-0.469840	-0.831824
C144	C	1.403713	0.030160	-0.331824
H145	H	0.875869	-0.495525	-0.865613
H146	H	1.375869	0.004475	-0.365613
H147	H	0.874186	-0.441736	-0.799423
H148	H	1.374186	0.058264	-0.299423
H149	H	0.929351	-0.501546	-0.804247
H150	H	1.429351	-0.001546	-0.304247
H151	H	0.399905	-0.477174	-0.518570
H152	H	0.899905	0.022826	-0.018570
H153	H	1.067324	-0.783263	-0.346919
H154	H	1.567324	-0.283263	0.153081
C155	C	0.903738	-0.469799	-0.993225
C156	C	1.403738	0.030201	-0.493225
H157	H	0.910449	-0.463618	-1.044527
H158	H	1.410449	0.036382	-0.544527
H159	H	0.856941	-0.457619	-0.978150
H160	H	1.356941	0.042381	-0.478150
H161	H	0.912105	-0.517430	-0.982965
H162	H	1.412105	-0.017430	-0.482965
H163	H	1.086796	-0.300986	-0.982919
H164	H	1.586796	0.199014	-0.482919
H165	H	0.266766	-0.471822	-0.512774
H166	H	0.766766	0.028178	-0.012774
C167	C	0.263351	-0.295261	-0.321340
C168	C	0.763351	0.204739	0.178660
H169	H	0.296788	-0.269753	-0.293696
H170	H	0.796788	0.230247	0.206304
H171	H	0.233621	-0.320948	-0.289056
H172	H	0.733621	0.179052	0.210944
H173	H	0.235977	-0.263532	-0.347082
H174	H	0.735977	0.236468	0.152918
H175	H	0.406452	-0.313890	-0.341526
H176	H	0.906452	0.186110	0.158474
H177	H	0.737634	-0.286955	-0.312318
H178	H	1.237634	0.213045	0.187682
C179	C	0.594530	-0.268335	-0.292120
C180	C	1.094530	0.231665	0.207880
H181	H	0.545310	-0.272817	-0.296970
H182	H	1.045310	0.227183	0.203030
H183	H	0.608475	-0.221619	-0.301599
H184	H	1.108475	0.278381	0.198401
H185	H	0.606123	-0.279048	-0.243587
H186	H	1.106123	0.220952	0.256413
C187	C	1.085884	-0.640158	-0.328221
C188	C	1.585884	-0.140158	0.171779
H189	H	1.081390	-0.590938	-0.332684
H190	H	1.581390	-0.090938	0.167316
H191	H	1.132614	-0.654037	-0.341578
H192	H	1.632614	-0.154037	0.158422
H193	H	1.075137	-0.651817	-0.278805
H194	H	1.575137	-0.151817	0.221195
C195	C	1.112910	-0.971336	-0.301349
C196	C	1.612910	-0.471336	0.198651
H197	H	1.138405	-1.004774	-0.275829
H198	H	1.638405	-0.504774	0.224171
H199	H	1.087188	-0.941669	-0.266928
H200	H	1.587188	-0.441669	0.233072
H201	H	1.144655	-0.943897	-0.329712
H202	H	1.644655	-0.443897	0.170288
H203	H	0.931195	-1.107902	-0.483554
H204	H	1.431195	-0.607902	0.016446
C205	C	1.100135	-0.288697	-0.832559
C206	C	1.600135	0.211303	-0.332559
H207	H	1.127986	-0.262998	-0.866559
H208	H	1.627986	0.237002	-0.366559
H209	H	1.129655	-0.316810	-0.804991
H210	H	1.629655	0.183190	-0.304991
H211	H	1.074487	-0.257002	-0.800178
H212	H	1.574487	0.242998	-0.300178
H213	H	0.936492	-0.974767	-0.478154
H214	H	1.436492	-0.474767	0.021846
H215	H	0.909474	-0.643586	-0.505035
H216	H	1.409474	-0.143586	-0.005035
