data_functionalizedCrystal
_audit_creation_method	'MofGen! by Chris Wilmer'
_symmetry_space_group_name_H-M	'P1'
_symmetry_Int_Tables_number	1
_symmetry_cell_setting	triclinic
loop_
_symmetry_equiv_pos_as_xyz
  x,y,z
_cell_length_a	12.759401
_cell_length_b	13.032721
_cell_length_c	12.759393
_cell_angle_alpha	97.149226
_cell_angle_beta	89.979062
_cell_angle_gamma	97.205831
loop_
_atom_site_label
_atom_site_type_symbol
_atom_site_fract_x
_atom_site_fract_y
_atom_site_fract_z
Zn1	Zn	1.553113	-0.415945	-0.647098
Zn2	Zn	1.530669	-0.590725	-0.493722
Zn3	Zn	1.377404	-0.416001	-0.471441
Zn4	Zn	1.355078	-0.590652	-0.669350
O5	O	1.454066	-0.503331	-0.570403
O6	O	1.697156	-0.439137	-0.626765
O7	O	1.510289	-0.567601	-0.343752
O8	O	1.419449	-0.269756	-0.476105
O9	O	1.680666	-0.567547	-0.514080
O10	O	1.548541	-0.269715	-0.605160
O11	O	1.397686	-0.439232	-0.327382
O12	O	1.227423	-0.439161	-0.497681
O13	O	1.381397	-0.567423	-0.813412
O14	O	1.211019	-0.567477	-0.643084
O15	O	1.526892	-0.439067	-0.797064
O16	O	1.488640	-0.736953	-0.535656
O17	O	1.359634	-0.736899	-0.664689
C18	C	1.181100	-0.503318	-0.570380
C19	C	1.064321	-0.503338	-0.570399
C20	C	1.000932	-0.570253	-0.646017
C21	C	0.891208	-0.570257	-0.646038
C22	C	0.908271	-0.436427	-0.494813
C23	C	1.017994	-0.436419	-0.494797
C24	C	0.736520	-0.607755	-0.774684
C25	C	0.673126	-0.674687	-0.850295
C26	C	0.695691	-0.776671	-0.879257
C27	C	0.781646	-0.811745	-0.832595
C28	C	0.845034	-0.744819	-0.756977
C29	C	0.822472	-0.642819	-0.728033
C30	C	1.172682	-0.398932	-0.366152
C31	C	1.236072	-0.332010	-0.290528
C32	C	1.213509	-0.230024	-0.261555
C33	C	1.127550	-0.194954	-0.308199
C34	C	1.064160	-0.261875	-0.383823
C35	C	1.086731	-0.363861	-0.412798
C36	C	1.419307	-0.774844	-0.605028
C37	C	1.404533	-0.890999	-0.619876
C38	C	1.461832	-0.942776	-0.562700
C39	C	1.446564	-1.062828	-0.578045
C40	C	1.728097	-0.503344	-0.570426
C41	C	1.844873	-0.503350	-0.570436
C42	C	1.454157	-0.503230	-0.844423
C43	C	1.454196	-0.503188	-0.961194
C44	C	1.488989	-0.230757	-0.535665
C45	C	1.503872	-0.114602	-0.520862
C46	C	1.529962	-0.436342	-1.007544
C47	C	1.529986	-0.436297	-1.117263
C48	C	1.378473	-0.569952	-1.134273
C49	C	1.378446	-0.569991	-1.024556
C50	C	1.583354	-0.313001	-1.251507
C51	C	1.659135	-0.246164	-1.297862
C52	C	1.763696	-0.230139	-1.260226
C53	C	1.792494	-0.280966	-1.176238
C54	C	1.716717	-0.347811	-1.129890
C55	C	1.612145	-0.363816	-1.167522
C56	C	1.325089	-0.693289	-0.890309
C57	C	1.249316	-0.760139	-0.843960
C58	C	1.144752	-0.776175	-0.881596
C59	C	1.115955	-0.725366	-0.965589
C60	C	1.191728	-0.658516	-1.011938
C61	C	1.296291	-0.642479	-0.974295
C62	C	1.454045	-0.503355	-0.297438
C63	C	1.454247	-0.503104	-0.180630
H64	H	0.718147	-0.524707	-0.751118
H65	H	1.030812	-0.738426	-0.996236
N66	N	0.858299	-0.364281	-0.413251
H67	H	0.779170	-0.374449	-0.424725
H68	H	0.875384	-0.380481	-0.340263
N69	N	1.103207	-0.084954	-0.276948
H70	H	1.107021	-0.046483	-0.341115
H71	H	1.029887	-0.086890	-0.246801
N72	N	0.971444	-0.224056	-0.434135
H73	H	0.966764	-0.149292	-0.404307
H74	H	0.981356	-0.228683	-0.513042
N75	N	1.366602	-1.121814	-0.657943
H76	H	1.403562	-1.167027	-0.712408
H77	H	1.312230	-1.167115	-0.620878
H78	H	0.644067	-0.831167	-0.940823
N79	N	1.583835	-1.055611	-0.440968
H80	H	1.656509	-1.074476	-0.459752
H81	H	1.583319	-0.978232	-0.441367
H82	H	1.344178	-0.935548	-0.680190
H83	H	1.591640	-0.381943	-0.955958
H84	H	1.265125	-0.175540	-0.199968
H85	H	1.306063	-0.360573	-0.252548
H86	H	1.522197	-0.898229	-0.502394
H87	H	1.740166	-0.389197	-1.061513
H88	H	1.877641	-0.267921	-1.145608
H89	H	1.191068	-0.481975	-0.389746
H90	H	1.825397	-0.175719	-1.297975
N91	N	1.628080	-0.191343	-1.388444
H92	H	1.550336	-0.211625	-1.405248
H93	H	1.642638	-0.113440	-1.368047
N94	N	1.063025	-0.848289	-0.831616
H95	H	1.097131	-0.878054	-0.772701
H96	H	1.004623	-0.808093	-0.802118
H97	H	0.603142	-0.646120	-0.888287
N98	N	1.470572	-0.330255	-1.292094
H99	H	1.468589	-0.360428	-1.369018
H100	H	1.426990	-0.380276	-1.249915
H101	H	1.316802	-0.624344	-1.185875
H102	H	1.168273	-0.617145	-1.080330
N103	N	1.280374	-0.814955	-0.753376
H104	H	1.358112	-0.794651	-0.736560
H105	H	1.237842	-0.794041	-0.689226
N106	N	1.437871	-0.675983	-0.849708
H107	H	1.467838	-0.744625	-0.857330
H108	H	1.481414	-0.625884	-0.891834
N109	N	1.050903	-0.642425	-0.727555
H110	H	0.994092	-0.684815	-0.775462
H111	H	1.101891	-0.599943	-0.770822
H112	H	0.800003	-0.894796	-0.856175
H113	H	0.915016	-0.773375	-0.718985
