data_functionalizedCrystal
_audit_creation_method	'MofGen! by Chris Wilmer'
_symmetry_space_group_name_H-M	'P1'
_symmetry_Int_Tables_number	1
_symmetry_cell_setting	triclinic
loop_
_symmetry_equiv_pos_as_xyz
  x,y,z
_cell_length_a	12.827893
_cell_length_b	16.625545
_cell_length_c	16.625539
_cell_angle_alpha	89.973630
_cell_angle_beta	90.015091
_cell_angle_gamma	89.975993
loop_
_atom_site_label
_atom_site_type_symbol
_atom_site_fract_x
_atom_site_fract_y
_atom_site_fract_z
Zn1	Zn	1.597564	0.321016	0.455867
Zn2	Zn	1.597444	0.455854	0.321035
Zn3	Zn	1.422818	0.321039	0.321053
Zn4	Zn	1.422764	0.455810	0.455829
O5	O	1.510147	0.388430	0.388446
O6	O	1.743784	0.338911	0.437990
O7	O	1.574252	0.437999	0.208205
O8	O	1.446071	0.208204	0.338959
O9	O	1.743696	0.437976	0.338929
O10	O	1.574456	0.208186	0.438007
O11	O	1.445955	0.338951	0.208218
O12	O	1.276575	0.338908	0.338923
O13	O	1.445979	0.437901	0.568667
O14	O	1.276535	0.437924	0.437942
O15	O	1.574404	0.338868	0.568695
O16	O	1.574200	0.568681	0.338892
O17	O	1.445863	0.568648	0.437925
C18	C	1.238638	0.388414	0.388431
C19	C	1.122484	0.388427	0.388443
C20	C	1.070708	0.437500	0.437366
C21	C	0.950657	0.437514	0.437380
C22	C	1.510041	0.597921	0.388420
C23	C	1.510091	0.687542	0.388436
C24	C	1.510262	1.015717	0.388532
C25	C	1.510211	0.924409	0.388508
C26	C	1.510176	0.851633	0.388484
C27	C	1.510127	0.760318	0.388460
C28	C	1.782718	0.388446	0.388462
C29	C	1.898871	0.388453	0.388469
C30	C	1.510274	1.178121	0.388499
C31	C	1.510305	1.088500	0.388546
C32	C	1.510199	0.388377	0.598755
C33	C	1.510220	0.388354	0.688376
C34	C	1.510157	0.388425	0.178955
C35	C	1.510337	0.388220	0.089335
C36	C	1.510238	0.388336	0.761159
C37	C	1.510262	0.388306	0.852467
C38	C	1.510287	0.388278	0.925244
C39	C	1.510313	0.388249	1.016558
H40	H	1.077936	0.346422	0.346573
H41	H	0.943391	0.346441	0.346579
H42	H	0.906131	0.479529	0.479262
H43	H	1.115256	0.479499	0.479243
