data_functionalizedCrystal
_audit_creation_method	'MofGen! by Chris Wilmer'
_symmetry_space_group_name_H-M	'P1'
_symmetry_Int_Tables_number	1
_symmetry_cell_setting	triclinic
loop_
_symmetry_equiv_pos_as_xyz
  x,y,z
_cell_length_a	9.065218
_cell_length_b	11.026607
_cell_length_c	8.140239
_cell_angle_alpha	89.998310
_cell_angle_beta	89.997198
_cell_angle_gamma	96.800951
loop_
_atom_site_label
_atom_site_type_symbol
_atom_site_fract_x
_atom_site_fract_y
_atom_site_fract_z
O1	O	2.004900	0.178453	-0.136613
O2	O	2.338233	0.511786	0.196721
O3	O	2.671566	0.845120	0.530054
O4	O	1.579265	0.193091	-0.136615
O5	O	1.912598	0.526424	0.196719
O6	O	2.245932	0.859757	0.530052
O7	O	1.756806	0.008731	-0.136608
O8	O	2.090139	0.342064	0.196725
O9	O	2.423473	0.675398	0.530059
O10	O	1.827358	0.362813	-0.136620
O11	O	2.160692	0.696146	0.196714
O12	O	2.494025	1.029479	0.530047
O13	O	1.756793	0.008729	0.136619
O14	O	2.090126	0.342062	0.469952
O15	O	2.423460	0.675395	0.803286
O16	O	1.579252	0.193088	0.136612
O17	O	1.912585	0.526422	0.469946
O18	O	2.245919	0.859755	0.803279
O19	O	2.004886	0.178451	0.136614
O20	O	2.338220	0.511784	0.469948
O21	O	2.671553	0.845117	0.803281
Zn22	Zn	1.792067	0.185769	0.179994
Zn23	Zn	2.125400	0.519103	0.513327
Zn24	Zn	2.458734	0.852436	0.846661
Zn25	Zn	1.792084	0.185772	-0.179994
Zn26	Zn	2.125418	0.519105	0.153339
Zn27	Zn	2.458751	0.852439	0.486672
O28	O	1.827345	0.362810	0.136608
O29	O	2.160679	0.696144	0.469941
O30	O	2.494012	1.029477	0.803274
C31	C	1.523921	0.191683	-0.000001
C32	C	1.857254	0.525016	0.333332
C33	C	2.190588	0.858349	0.666665
C34	C	1.359029	0.187476	-0.000002
C35	C	1.692362	0.520810	0.333331
C36	C	2.025696	0.854143	0.666664
C37	C	1.743784	-0.036624	0.000004
C38	C	2.077117	0.296709	0.333337
C39	C	2.410451	0.630043	0.666670
C40	C	1.704984	-0.171765	-0.000002
C41	C	2.038317	0.161569	0.333331
C42	C	2.371650	0.494902	0.666664
C43	C	1.812117	-0.244393	-0.000004
C44	C	2.145451	0.088941	0.333329
C45	C	2.478784	0.422274	0.666662
C46	C	1.772018	-0.384068	-0.000011
C47	C	2.105352	-0.050734	0.333323
C48	C	2.438685	0.282599	0.666656
C49	C	2.060230	0.179859	-0.000003
C50	C	2.393564	0.513192	0.333331
C51	C	2.726897	0.846525	0.666664
C52	C	2.225122	0.184065	-0.000013
C53	C	2.558456	0.517398	0.333321
C54	C	2.891789	0.850732	0.666654
C55	C	1.840368	0.408165	-0.000008
C56	C	2.173701	0.741499	0.333326
C57	C	2.507034	1.074832	0.666659
C58	C	1.879168	0.543306	-0.000012
C59	C	2.212501	0.876639	0.333321
C60	C	2.545834	1.209973	0.666654
N61	N	1.792066	0.185767	0.425677
N62	N	2.125399	0.519100	0.759010
N63	N	2.458733	0.852433	1.092343
N64	N	1.792095	0.185765	-0.425677
N65	N	2.125428	0.519099	-0.092344
N66	N	2.458761	0.852432	0.240990
H67	H	1.650603	-0.425288	-0.000022
H68	H	1.983936	-0.091955	0.333311
H69	H	2.317269	0.241379	0.666645
H70	H	2.000584	-0.415476	-0.000135
H71	H	2.333917	-0.082142	0.333198
H72	H	2.667251	0.251191	0.666531
H73	H	1.583576	-0.212990	-0.000014
H74	H	1.916909	0.120343	0.333320
H75	H	2.250243	0.453676	0.666653
H76	H	1.933525	-0.203167	0.000006
H77	H	2.266858	0.130167	0.333340
H78	H	2.600192	0.463500	0.666673
