data_functionalizedCrystal
_audit_creation_method	'MofGen! by Chris Wilmer'
_symmetry_space_group_name_H-M	'P1'
_symmetry_Int_Tables_number	1
_symmetry_cell_setting	triclinic
loop_
_symmetry_equiv_pos_as_xyz
  x,y,z
_cell_length_a	10.654550
_cell_length_b	9.016244
_cell_length_c	10.654551
_cell_angle_alpha	89.999376
_cell_angle_beta	84.485132
_cell_angle_gamma	90.010882
loop_
_atom_site_label
_atom_site_type_symbol
_atom_site_fract_x
_atom_site_fract_y
_atom_site_fract_z
O1	O	1.667848	0.123452	0.176393
O2	O	1.302369	0.123427	0.193200
O3	O	1.493511	0.123441	0.002057
O4	O	1.476706	0.123439	0.367536
O5	O	1.493483	-0.123240	0.002062
O6	O	1.302341	-0.123253	0.193204
O7	O	1.667820	-0.123229	0.176398
Cu8	Cu	1.485078	-0.145765	0.184801
Cu9	Cu	1.485111	0.145964	0.184796
O10	O	1.476678	-0.123242	0.367540
C11	C	1.255557	0.000084	0.191968
C12	C	1.116114	0.000075	0.188276
N13	N	1.485064	-0.350951	0.184804
C14	C	1.036629	0.000096	0.300817
C15	C	0.905608	0.000121	0.297341
C16	C	0.933570	0.000112	0.068771
C17	C	1.064589	0.000075	0.072249
C18	C	1.088154	0.000095	0.416844
C19	C	1.008667	0.000118	0.529395
C20	C	0.877647	0.000143	0.525918
C21	C	0.826112	0.000147	0.409891
C22	C	1.382502	-0.585991	0.286710
C23	C	1.382729	-0.414100	0.287091
C24	C	1.616360	-0.413281	0.214569
C25	C	1.615800	-0.585226	0.215291
C26	C	1.457632	-0.585496	0.052799
C27	C	1.454619	-0.413542	0.053655
C28	C	1.714632	0.000118	0.177629
C29	C	1.854075	0.000137	0.181321
C30	C	1.492263	0.000104	-0.044739
C31	C	1.488570	0.000114	-0.184182
N32	N	1.485135	0.351150	0.184783
C33	C	1.486853	0.134577	-0.249696
C34	C	1.483373	0.134570	-0.380716
C35	C	1.483332	-0.134375	-0.380697
C36	C	1.486803	-0.134367	-0.249678
C37	C	1.488620	0.269057	-0.184200
C38	C	1.486905	0.403531	-0.249714
C39	C	1.483424	0.403524	-0.380734
C40	C	1.481660	0.269043	-0.446240
C41	C	1.477926	0.000098	0.414336
C42	C	1.481619	0.000098	0.553779
H43	H	1.194836	0.000081	0.419687
Br44	Br	0.863630	0.000120	-0.088684
H45	H	1.129308	0.000062	-0.019392
H46	H	1.285170	-0.371962	0.269188
H47	H	1.284638	-0.627391	0.269082
H48	H	1.399946	-0.629183	0.384077
H49	H	1.488330	0.513020	-0.196369
H50	H	1.488174	-0.243858	-0.196332
Br51	Br	1.481078	0.586019	-0.469643
Br52	Br	1.301405	-0.657868	0.005586
Br53	Br	0.648296	0.000153	0.405175
Br54	Br	1.476919	0.269037	-0.624053
H55	H	1.481896	-0.243863	-0.434043
H56	H	1.050636	0.000103	0.623860
H57	H	0.812931	0.000147	0.617562
Br58	Br	1.746882	-0.654533	0.096223
Br59	Br	1.655904	-0.652050	0.375780
H60	H	1.491457	0.269078	-0.077517
H61	H	1.400403	-0.372952	0.385013
H62	H	1.694597	-0.372371	0.142356
H63	H	1.640959	-0.370202	0.309771
H64	H	1.358031	-0.372806	0.031093
Br65	Br	1.582355	-0.653239	-0.073646
Br66	Br	1.570974	-0.341928	-0.078837
