data_functionalizedCrystal
_audit_creation_method	'MofGen! by Chris Wilmer'
_symmetry_space_group_name_H-M	'P1'
_symmetry_Int_Tables_number	1
_symmetry_cell_setting	triclinic
loop_
_symmetry_equiv_pos_as_xyz
  x,y,z
_cell_length_a	11.792241
_cell_length_b	17.699083
_cell_length_c	16.776229
_cell_angle_alpha	90.007545
_cell_angle_beta	90.002923
_cell_angle_gamma	83.738215
loop_
_atom_site_label
_atom_site_type_symbol
_atom_site_fract_x
_atom_site_fract_y
_atom_site_fract_z
O1	O	-1.505669	-0.103738	-0.066213
O2	O	-1.175200	-0.114429	-0.066231
O3	O	-1.349771	0.001056	-0.066214
O4	O	-1.331098	-0.219223	-0.066229
O5	O	-1.349748	0.001063	0.066362
O6	O	-1.175177	-0.114422	0.066345
O7	O	-1.505646	-0.103731	0.066364
Zn8	Zn	-1.340408	-0.109075	0.087404
Zn9	Zn	-1.340438	-0.109085	-0.087271
O10	O	-1.331075	-0.219216	0.066347
C11	C	-1.349091	0.029260	0.000074
C12	C	-1.347083	0.113289	0.000074
C13	C	-1.132906	-0.113754	0.000055
C14	C	-1.006916	-0.111744	0.000048
C15	C	-1.547941	-0.104406	0.000076
C16	C	-1.673930	-0.106416	0.000078
C17	C	-0.776248	-0.108048	0.000071
C18	C	-0.904609	-0.110101	0.000058
C19	C	-1.331756	-0.247420	0.000057
C20	C	-1.333763	-0.331449	0.000051
N21	N	-1.340396	-0.109068	0.206615
C22	C	-1.449553	0.161364	0.000081
C23	C	-1.447660	0.240317	0.000074
C24	C	-1.343297	0.271194	0.000066
C25	C	-1.240819	0.223113	0.000056
C26	C	-1.242713	0.144161	0.000058
C27	C	-1.233178	0.541517	0.000049
C28	C	-1.231292	0.620475	0.000050
C29	C	-1.438126	0.637673	0.000066
C30	C	-1.440020	0.558721	0.000067
C31	C	-1.337543	0.510647	0.000054
C32	C	-1.339596	0.425037	0.000060
C33	C	-1.341242	0.356803	0.000065
N34	N	-1.340460	-0.109086	-0.206483
C35	C	-1.417719	-0.057953	0.248340
C36	C	-1.417725	-0.057952	0.331792
C37	C	-1.340413	-0.109071	0.373518
C38	C	-1.263081	-0.160189	0.331788
C39	C	-1.263070	-0.160185	0.248337
C40	C	-1.263122	-0.160204	0.668335
C41	C	-1.263141	-0.160205	0.751791
C42	C	-1.417777	-0.057971	0.751790
C43	C	-1.417766	-0.057967	0.668339
C44	C	-1.340431	-0.109082	0.626616
C45	C	-1.340424	-0.109081	0.536128
C46	C	-1.340425	-0.109076	0.464005
H47	H	-1.534538	0.136230	0.000093
C48	C	-1.562146	0.479900	-0.068077
C49	C	-1.554737	0.524780	0.000074
H50	H	-1.632967	0.458944	-0.068071
H51	H	-1.557120	0.510339	-0.114301
H52	H	-1.501382	0.439971	-0.068070
H53	H	-1.615497	0.564713	0.000064
H54	H	-1.559775	0.494340	0.046309
H55	H	-1.200104	-0.201808	0.214366
H56	H	-1.200179	-0.201834	0.785763
H57	H	-1.480725	-0.016344	0.634368
C58	C	-1.108602	-0.175920	0.425657
C59	C	-1.178098	-0.216379	0.377655
H60	H	-1.056144	-0.210613	0.453976
H61	H	-1.067864	-0.144238	0.393113
H62	H	-1.154670	-0.145480	0.462446
H63	H	-1.132030	-0.246815	0.340862
H64	H	-1.218839	-0.248074	0.410202
C65	C	-1.652301	0.249387	0.000109
C66	C	-1.560298	0.293161	0.000091
H67	H	-1.721840	0.282012	0.000124
H68	H	-1.648754	0.218231	-0.046121
H69	H	-1.648710	0.218238	0.046344
H70	H	-1.563884	0.324306	-0.046148
H71	H	-1.563847	0.324329	0.046325
C72	C	-1.110278	-0.261267	0.676730
C73	C	-1.178125	-0.216395	0.622480
H74	H	-1.057809	-0.295961	0.648417
H75	H	-1.069553	-0.229579	0.709288
H76	H	-1.157463	-0.288701	0.709269
H77	H	-1.130941	-0.188956	0.589945
H78	H	-1.218853	-0.248087	0.589908
C79	C	-1.115304	0.442758	0.068188
C80	C	-1.120543	0.488675	0.000040
H81	H	-1.045767	0.410129	0.068178
H82	H	-1.118849	0.473919	0.114413
H83	H	-1.177736	0.413074	0.068183
H84	H	-1.058115	0.518363	0.000048
H85	H	-1.116986	0.457511	-0.046197
C86	C	-1.038071	0.135087	0.000048
C87	C	-1.130075	0.091314	0.000052
H88	H	-0.968532	0.102460	0.000046
H89	H	-1.041644	0.166232	-0.046181
H90	H	-1.041631	0.166245	0.046284
H91	H	-1.126519	0.060160	-0.046188
H92	H	-1.126500	0.060155	0.046285
C93	C	-1.527081	0.766339	0.000057
C94	C	-1.550774	0.690519	0.000068
H95	H	-1.596625	0.798960	0.000055
H96	H	-1.484278	0.775750	0.046283
H97	H	-1.484287	0.775729	-0.046182
H98	H	-1.593561	0.681127	0.046311
H99	H	-1.593595	0.681104	-0.046163
C100	C	-1.572167	-0.042169	0.154437
C101	C	-1.502652	-0.001741	0.202457
H102	H	-1.624588	-0.007457	0.126111
H103	H	-1.526114	-0.072622	0.117662
H104	H	-1.612957	-0.073836	0.186976
H105	H	-1.461856	0.029922	0.169918
H106	H	-1.548711	0.028725	0.239237
C107	C	-1.570610	0.043084	0.323408
C108	C	-1.502740	-0.001776	0.377656
H109	H	-1.623104	0.077760	0.351724
H110	H	-1.523452	0.070532	0.290875
H111	H	-1.611319	0.011381	0.290844
H112	H	-1.462024	0.029927	0.410216
H113	H	-1.549904	-0.029226	0.410202
C114	C	-1.027018	0.595548	0.000013
C115	C	-1.116567	0.654416	0.000031
H116	H	-0.956198	0.616504	-0.000004
H117	H	-1.032036	0.565118	0.046243
H118	H	-1.032082	0.565106	-0.046222
H119	H	-1.111508	0.684855	0.046269
H120	H	-1.111547	0.684859	-0.046204
H121	H	-1.155844	0.248259	0.000044
C122	C	-1.442716	0.044932	0.845647
C123	C	-1.502776	-0.001774	0.797655
H124	H	-1.495192	0.079625	0.873956
H125	H	-1.396684	0.014489	0.882436
H126	H	-1.395554	0.072367	0.813091
H127	H	-1.549932	-0.029214	0.830212
H128	H	-1.548828	0.028673	0.760861
