data_functionalizedCrystal
_audit_creation_method	'MofGen! by Chris Wilmer'
_symmetry_space_group_name_H-M	'P1'
_symmetry_Int_Tables_number	1
_symmetry_cell_setting	triclinic
loop_
_symmetry_equiv_pos_as_xyz
  x,y,z
_cell_length_a	14.044191
_cell_length_b	23.532407
_cell_length_c	13.101039
_cell_angle_alpha	93.336507
_cell_angle_beta	86.337551
_cell_angle_gamma	88.020227
loop_
_atom_site_label
_atom_site_type_symbol
_atom_site_fract_x
_atom_site_fract_y
_atom_site_fract_z
O1	O	1.261656	0.134377	-0.085184
O2	O	0.985734	0.129420	-0.085197
O3	O	1.132014	0.049419	-0.085171
O4	O	1.115375	0.214379	-0.085210
O5	O	1.121518	0.055169	0.085257
O6	O	0.975238	0.135171	0.085232
O7	O	1.251160	0.140128	0.085244
Zn8	Zn	1.111533	0.138562	0.112297
Zn9	Zn	1.125361	0.130986	-0.112250
O10	O	1.104880	0.220129	0.085218
C11	C	0.945192	0.130127	0.000016
C12	C	0.840027	0.123660	0.000012
C13	C	0.589420	0.157705	0.000015
C14	C	0.647480	0.111845	0.000024
C15	C	0.754623	0.118420	0.000017
C16	C	0.482267	0.151131	0.000021
C17	C	1.126342	0.031055	0.000045
C18	C	1.125068	-0.032231	0.000053
C19	C	1.203646	-0.427075	0.000000
C20	C	1.202463	-0.486540	-0.000007
O21	O	1.275306	-0.519337	-0.000042
N22	N	1.115499	-0.513881	-0.000010
C23	C	1.029713	-0.481755	-0.000016
O24	O	0.955634	-0.510471	-0.000021
C25	C	1.030897	-0.422292	-0.000016
C26	C	1.117867	-0.394953	-0.000002
C27	C	1.290609	-0.399737	0.000013
C28	C	1.291791	-0.340276	0.000023
C29	C	1.206012	-0.308154	0.000020
C30	C	1.119049	-0.335493	0.000008
C31	C	0.945112	-0.390167	-0.000029
C32	C	0.946305	-0.330699	-0.000029
C33	C	1.033274	-0.303361	-0.000015
C34	C	1.034452	-0.243910	0.000015
N35	N	1.121416	-0.216569	0.000018
C36	C	1.207196	-0.248691	0.000020
C37	C	1.027232	-0.606632	-0.000019
C38	C	1.026046	-0.666094	-0.000012
C39	C	1.198797	-0.670875	-0.000005
C40	C	1.199982	-0.611412	-0.000005
C41	C	1.114196	-0.579291	-0.000016
C42	C	1.209673	-0.123819	0.000042
C43	C	1.210848	-0.064353	0.000056
C44	C	1.038097	-0.059577	0.000043
C45	C	1.036922	-0.119038	0.000035
C46	C	1.122717	-0.151158	0.000031
O47	O	0.961648	-0.211077	0.000045
O48	O	1.281263	-0.219968	0.000011
C49	C	1.291702	0.139421	0.000029
C50	C	1.396867	0.145888	0.000026
C51	C	1.110552	0.238493	-0.000000
C52	C	1.111827	0.301778	-0.000015
N53	N	1.102102	0.143733	0.265544
N54	N	1.134799	0.125811	-0.265496
C55	C	1.089271	0.150773	0.474584
C56	C	1.147627	0.118773	0.525470
C57	C	1.140488	0.122690	0.641787
C58	C	1.096409	0.146857	0.358256
H59	H	1.279536	-0.149964	0.000034
H60	H	0.957370	-0.580482	-0.000019
H61	H	0.876446	-0.304549	-0.000040
O62	O	1.213529	0.082452	0.473386
C63	C	1.196823	0.026238	0.499693
H64	H	1.119141	0.023197	0.529203
H65	H	1.212203	-0.004187	0.429176
H66	H	1.245615	0.014248	0.561969
H67	H	0.620178	0.201901	0.000001
O68	O	1.023364	0.186957	0.526977
C69	C	1.030815	0.182855	0.633131
H70	H	1.105413	0.165833	0.647648
H71	H	1.017532	0.226787	0.673989
H72	H	0.975527	0.152631	0.663595
O73	O	1.295420	-0.037889	0.000019
C74	C	1.370873	-0.078996	0.000041
H75	H	1.346690	-0.121767	-0.032231
H76	H	1.434673	-0.065155	-0.049434
H77	H	1.392271	-0.083308	0.081804
O78	O	0.610825	0.059108	0.000210
C79	C	0.636646	0.032331	0.088463
H80	H	0.653208	0.066063	0.150156
H81	H	0.575105	0.006131	0.118090
H82	H	0.702500	0.003148	0.068506
H83	H	1.362611	-0.318023	0.000029
H84	H	1.360465	-0.425885	0.000011
O85	O	1.284549	-0.584950	-0.000047
C86	C	1.359998	-0.626059	-0.000016
H87	H	1.335810	-0.668831	-0.032278
H88	H	1.423799	-0.612224	-0.049497
H89	H	1.381396	-0.630365	0.081748
H90	H	0.968258	-0.033412	0.000045
O91	O	1.282043	-0.702172	-0.000061
C92	C	1.262338	-0.760516	-0.000045
H93	H	1.189926	-0.767660	-0.032306
H94	H	1.320087	-0.786311	-0.049533
H95	H	1.261066	-0.774756	0.081715
H96	H	0.955226	-0.688347	-0.000005
O97	O	0.860615	-0.416692	-0.000230
C98	C	0.813803	-0.403655	-0.088492
H99	H	0.868481	-0.390790	-0.150172
H100	H	0.775657	-0.442665	-0.118135
H101	H	0.759417	-0.366969	-0.068542
O102	O	0.952361	-0.145509	-0.000020
C103	C	0.876903	-0.104402	0.000010
H104	H	0.905059	-0.063798	-0.032235
H105	H	0.819202	-0.121569	-0.049486
H106	H	0.845429	-0.094598	0.081771
