data_functionalizedCrystal
_audit_creation_method	'MofGen! by Chris Wilmer'
_symmetry_space_group_name_H-M	'P1'
_symmetry_Int_Tables_number	1
_symmetry_cell_setting	triclinic
loop_
_symmetry_equiv_pos_as_xyz
  x,y,z
_cell_length_a	23.532407
_cell_length_b	14.853567
_cell_length_c	22.610064
_cell_angle_alpha	90.012313
_cell_angle_beta	89.990850
_cell_angle_gamma	96.758196
loop_
_atom_site_label
_atom_site_type_symbol
_atom_site_fract_x
_atom_site_fract_y
_atom_site_fract_z
O1	O	0.074352	-1.195566	-0.049150
O2	O	0.083209	-0.933009	-0.049161
O3	O	-0.004117	-1.072205	-0.049144
O4	O	0.161678	-1.056370	-0.049167
O5	O	-0.004117	-1.072164	0.049225
O6	O	0.083209	-0.932969	0.049208
O7	O	0.074352	-1.195525	0.049219
Zn8	Zn	0.078780	-1.064241	0.064832
Zn9	Zn	0.078780	-1.064294	-0.064774
O10	O	0.161677	-1.056330	0.049203
C11	C	-0.025335	-1.071782	0.000042
C12	C	-0.088557	-1.070569	0.000046
C13	C	0.082808	-0.899405	0.000022
C14	C	0.081605	-0.799334	0.000019
C15	C	0.074753	-1.229130	0.000034
C16	C	0.075956	-1.329200	0.000034
C17	C	-0.487334	-1.145338	0.000017
C18	C	-0.546739	-1.144212	0.000012
O19	O	-0.583181	-1.213524	-0.000007
N20	N	-0.569726	-1.061460	0.000009
C21	C	-0.533305	-0.979829	0.000005
O22	O	-0.558312	-0.909339	0.000001
C23	C	-0.473901	-0.980957	0.000005
C24	C	-0.450917	-1.063714	0.000014
C25	C	-0.464349	-1.228089	0.000025
C26	C	-0.404948	-1.229214	0.000031
C27	C	-0.368531	-1.147590	0.000028
C28	C	-0.391516	-1.064839	0.000020
C29	C	-0.437481	-0.899327	-0.000003
C30	C	-0.378073	-0.900461	-0.000004
C31	C	-0.355089	-0.983218	0.000005
C32	C	-0.295698	-0.984341	0.000023
N33	N	-0.272711	-1.067092	0.000026
C34	C	-0.309128	-1.148717	0.000029
C35	C	-0.658058	-0.977469	0.000003
C36	C	-0.717461	-0.976340	0.000007
C37	C	-0.730890	-1.140723	0.000014
C38	C	-0.671486	-1.141851	0.000014
C39	C	-0.635070	-1.060220	0.000006
C40	C	-0.184380	-1.151075	0.000041
C41	C	-0.124974	-1.152194	0.000049
C42	C	-0.111549	-0.987811	0.000039
C43	C	-0.170951	-0.986692	0.000034
C44	C	-0.207365	-1.068331	0.000033
O45	O	-0.259221	-0.915065	0.000039
O46	O	-0.284112	-1.219196	0.000024
C47	C	0.182895	-1.056753	0.000015
C48	C	0.246118	-1.057966	0.000007
N49	N	0.078780	-1.064211	0.153284
C50	C	0.024648	-0.387423	0.000040
C51	C	0.128393	-0.365008	0.000025
C52	C	0.129524	-0.459029	0.000023
C53	C	0.078216	-0.517252	0.000028
C54	C	0.025777	-0.481454	0.000036
C55	C	0.181961	-0.494835	0.000010
C56	C	0.183094	-0.588861	0.000007
C57	C	0.131786	-0.647086	0.000017
C58	C	0.079345	-0.611283	0.000025
C59	C	0.028037	-0.669506	0.000030
C60	C	-0.024404	-0.633704	0.000042
C61	C	-0.025531	-0.539679	0.000045
C62	C	0.132913	-0.741111	0.000013
C63	C	0.029166	-0.763536	0.000026
N64	N	0.078776	-1.064331	-0.153226
C65	C	0.113378	-1.118661	0.561923
C66	C	0.113377	-1.118672	0.623843
O67	O	0.142790	-1.164931	0.655860
N68	N	0.078774	-1.064311	0.654822
C69	C	0.044166	-1.009943	0.623877
O70	O	0.014733	-0.963707	0.655912
C71	C	0.044165	-1.009937	0.561958
C72	C	0.078774	-1.064294	0.530983
C73	C	0.147984	-1.173014	0.530948
C74	C	0.147986	-1.173001	0.469033
C75	C	0.113382	-1.118635	0.438092
C76	C	0.078776	-1.064281	0.469067
C77	C	0.009554	-0.955574	0.531014
C78	C	0.009555	-0.955574	0.469091
C79	C	0.044165	-1.009931	0.438116
C80	C	0.044174	-1.009902	0.376211
N81	N	0.078777	-1.064263	0.345233
C82	C	0.113381	-1.118629	0.376173
C83	C	0.044170	-1.009961	0.753910
C84	C	0.044174	-1.009961	0.815828
C85	C	0.113385	-1.118691	0.815790
C86	C	0.113383	-1.118686	0.753871
C87	C	0.078773	-1.064321	0.722932
C88	C	0.113383	-1.118597	0.246146
C89	C	0.113384	-1.118577	0.184225
C90	C	0.044172	-1.009851	0.184268
C91	C	0.044173	-1.009867	0.246184
C92	C	0.078780	-1.064248	0.277121
O93	O	0.014774	-0.963669	0.344155
O94	O	0.142803	-1.164866	0.344131
H95	H	-0.106264	-1.219587	0.000058
H96	H	0.175610	-0.770257	0.000004
Br97	Br	-0.328654	-0.789670	-0.000017
H98	H	0.170165	-0.317597	0.000016
H99	H	-0.081888	-0.921355	0.000039
H100	H	-0.214023	-1.217554	0.000038
Br101	Br	-0.780325	-1.251501	0.000015
H102	H	-0.456183	-0.831937	-0.000014
Br103	Br	-0.202144	-0.874378	0.000036
Br104	Br	0.160363	-1.192343	0.142191
Br105	Br	-0.373765	-1.341534	0.000026
H106	H	-0.018630	-0.911312	0.556223
Br107	Br	-0.002787	-0.936068	0.142265
Br108	Br	-0.513762	-1.338881	0.000028
H109	H	-0.652777	-1.209239	0.000021
Br110	Br	-0.046519	-0.338839	0.000062
Br111	Br	-0.748645	-0.864023	0.000009
Br112	Br	-0.094034	-0.712731	0.000043
Br113	Br	0.160346	-1.192478	0.857793
H114	H	-0.018629	-0.911303	0.443903
Br115	Br	-0.608641	-0.866674	-0.000002
Br116	Br	-0.002790	-0.936085	0.288223
H117	H	-0.012615	-0.810936	0.000033
Br118	Br	-0.096695	-0.491085	0.000060
H119	H	0.223733	-0.447423	-0.000001
H120	H	0.225795	-0.618003	-0.000003
H121	H	0.141563	-1.162880	0.271328
H122	H	0.176167	-1.217268	0.443818
Br123	Br	0.160353	-1.192461	0.711840
H124	H	0.176163	-1.217290	0.556133
H125	H	0.015999	-0.965687	0.841043
H126	H	0.015989	-0.965682	0.728723
