data_functionalizedCrystal
_audit_creation_method	'MofGen! by Chris Wilmer'
_symmetry_space_group_name_H-M	'P1'
_symmetry_Int_Tables_number	1
_symmetry_cell_setting	triclinic
loop_
_symmetry_equiv_pos_as_xyz
  x,y,z
_cell_length_a	12.759401
_cell_length_b	12.759400
_cell_length_c	10.685880
_cell_angle_alpha	94.339195
_cell_angle_beta	85.605732
_cell_angle_gamma	90.014696
loop_
_atom_site_label
_atom_site_type_symbol
_atom_site_fract_x
_atom_site_fract_y
_atom_site_fract_z
Zn1	Zn	1.651821	-0.463725	-0.713417
Zn2	Zn	1.638239	-0.625981	-0.502422
Zn3	Zn	1.462648	-0.450318	-0.502441
Zn4	Zn	1.476108	-0.639360	-0.713368
O5	O	1.557204	-0.544846	-0.607912
O6	O	1.797041	-0.485261	-0.685441
O7	O	1.603629	-0.591469	-0.325848
O8	O	1.487793	-0.305077	-0.530457
O9	O	1.787063	-0.604470	-0.530423
O10	O	1.626777	-0.314928	-0.685460
O11	O	1.474623	-0.462410	-0.325863
O12	O	1.317412	-0.475383	-0.530409
O13	O	1.510734	-0.627272	-0.889950
O14	O	1.327301	-0.614271	-0.685375
O15	O	1.639829	-0.498234	-0.889987
O16	O	1.616681	-0.774775	-0.530375
O17	O	1.497565	-0.784604	-0.685356
C18	C	1.284235	-0.544825	-0.607889
C19	C	1.167460	-0.544843	-0.607910
C20	C	1.008043	-0.617274	-0.688496
C21	C	1.117766	-0.617259	-0.688475
C22	C	1.107425	-0.472443	-0.527350
C23	C	0.997703	-0.472464	-0.527365
C24	C	0.958356	-0.689688	-0.769076
C25	C	1.018383	-0.762089	-0.849634
C26	C	1.128106	-0.762075	-0.849613
C27	C	1.177801	-0.689659	-0.769035
C28	C	1.557140	-0.817812	-0.607886
C29	C	1.557211	-0.934590	-0.607917
C30	C	1.619316	-0.984305	-0.527307
C31	C	1.619383	-1.094032	-0.527346
C32	C	1.495232	-1.104319	-0.688607
C33	C	1.495172	-0.994595	-0.688574
C34	C	1.681356	-0.924300	-0.446650
C35	C	1.743464	-0.974015	-0.366033
C36	C	1.743531	-1.083741	-0.366072
C37	C	1.681490	-1.143753	-0.446728
C38	C	1.831239	-0.544869	-0.607935
C39	C	1.948016	-0.544878	-0.607945
C40	C	1.578298	-0.565741	-0.937033
C41	C	1.587287	-0.574644	-1.077284
C42	C	1.557299	-0.270816	-0.607966
C43	C	1.557339	-0.154041	-0.607989
C44	C	1.536252	-0.523957	-0.280072
C45	C	1.527467	-0.514757	-0.139821
H46	H	0.977914	-0.821053	-0.915231
C47	C	1.162089	-0.392783	-0.438730
C48	C	1.241047	-0.313839	-0.493576
C49	C	1.295710	-0.234174	-0.404959
C50	C	1.271416	-0.233454	-0.261496
C51	C	1.192455	-0.312401	-0.206643
C52	C	1.137791	-0.392065	-0.295260
H53	H	1.259034	-0.314370	-0.599782
H54	H	1.354163	-0.175733	-0.445566
H55	H	1.311882	-0.174481	-0.195896
H56	H	1.174467	-0.311870	-0.100436
H57	H	1.079338	-0.450507	-0.254653
H58	H	1.645387	-0.632734	-1.131047
H59	H	1.469366	-0.456676	-1.086064
C60	C	1.194138	-0.841714	-0.938220
C61	C	1.139479	-0.921363	-1.026850
C62	C	1.205509	-1.001001	-1.115465
C63	C	1.326198	-1.000989	-1.115451
C64	C	1.380864	-0.921337	-1.026817
C65	C	1.314834	-0.841699	-0.938202
H66	H	1.050132	-0.921374	-1.026864
H67	H	1.165042	-1.059965	-1.181077
H68	H	1.375078	-1.059942	-1.181049
H69	H	1.470211	-0.921326	-1.026804
H70	H	1.355302	-0.782735	-0.872590
C71	C	0.931666	-0.392816	-0.438777
C72	C	0.986317	-0.313146	-0.350164
C73	C	0.920279	-0.233496	-0.261575
C74	C	0.799590	-0.233515	-0.261599
C75	C	0.744933	-0.313188	-0.350216
C76	C	0.810971	-0.392838	-0.438805
H77	H	1.075663	-0.313129	-0.350142
H78	H	0.960740	-0.174517	-0.195975
H79	H	0.750705	-0.174553	-0.196021
H80	H	0.655587	-0.313205	-0.350237
H81	H	0.770510	-0.451817	-0.504404
H82	H	0.869015	-0.689706	-0.769104
H83	H	1.267145	-0.689658	-0.769017
H84	H	1.681305	-0.834955	-0.446606
C85	C	1.811711	-0.908007	-0.277321
C86	C	1.759855	-0.826359	-0.178179
C87	C	1.828105	-0.760353	-0.089466
C88	C	1.948211	-0.775995	-0.099896
C89	C	2.000074	-0.857647	-0.199042
C90	C	1.931824	-0.923653	-0.287754
H91	H	1.670939	-0.814776	-0.170455
H92	H	1.789712	-0.699909	-0.016072
H93	H	1.998734	-0.727134	-0.034226
H94	H	2.088990	-0.869230	-0.206766
H95	H	1.970217	-0.984097	-0.361148
H96	H	1.794111	-1.124216	-0.300439
H97	H	1.681558	-1.233100	-0.446763
H98	H	1.444720	-1.153190	-0.754273
H99	H	1.444602	-0.954117	-0.754215
