data_functionalizedCrystal
_audit_creation_method	'MofGen! by Chris Wilmer'
_symmetry_space_group_name_H-M	'P1'
_symmetry_Int_Tables_number	1
_symmetry_cell_setting	triclinic
loop_
_symmetry_equiv_pos_as_xyz
  x,y,z
_cell_length_a	14.908520
_cell_length_b	18.215407
_cell_length_c	18.215399
_cell_angle_alpha	90.019833
_cell_angle_beta	86.730636
_cell_angle_gamma	93.321174
loop_
_atom_site_label
_atom_site_type_symbol
_atom_site_fract_x
_atom_site_fract_y
_atom_site_fract_z
Zn1	Zn	-0.359158	1.108178	0.433017
Zn2	Zn	-0.109158	1.358178	0.683017
Zn3	Zn	0.140842	1.608178	0.933017
Zn4	Zn	0.390842	1.858178	1.183017
Zn5	Zn	-0.510027	1.100989	0.317051
Zn6	Zn	-0.260027	1.350989	0.567051
Zn7	Zn	-0.010027	1.600989	0.817051
Zn8	Zn	0.239973	1.850989	1.067051
Zn9	Zn	-0.359188	0.985109	0.309966
Zn10	Zn	-0.109188	1.235109	0.559966
Zn11	Zn	0.140812	1.485109	0.809966
Zn12	Zn	0.390812	1.735109	1.059966
Zn13	Zn	-0.509977	0.977982	0.440073
Zn14	Zn	-0.259977	1.227982	0.690073
Zn15	Zn	-0.009977	1.477982	0.940073
Zn16	Zn	0.240023	1.727982	1.190073
O17	O	-0.434588	1.043064	0.375027
O18	O	-0.184588	1.293064	0.625027
O19	O	0.065412	1.543064	0.875027
O20	O	0.315412	1.793064	1.125027
O21	O	-0.379180	1.210208	0.417646
O22	O	-0.129180	1.460208	0.667646
O23	O	0.120820	1.710208	0.917646
O24	O	0.370820	1.960208	1.167646
O25	O	-0.490052	1.085592	0.213128
O26	O	-0.240052	1.335592	0.463128
O27	O	0.009948	1.585592	0.713128
O28	O	0.259948	1.835592	0.963128
O29	O	-0.232939	1.007425	0.320371
O30	O	0.017061	1.257425	0.570371
O31	O	0.267061	1.507425	0.820371
O32	O	0.517061	1.757425	1.070371
O33	O	-0.490023	1.204927	0.332446
O34	O	-0.240023	1.454927	0.582446
O35	O	0.009977	1.704927	0.832446
O36	O	0.259977	1.954927	1.082446
O37	O	-0.232917	1.097843	0.410776
O38	O	0.017083	1.347843	0.660776
O39	O	0.267083	1.597843	0.910776
O40	O	0.517083	1.847843	1.160776
O41	O	-0.379230	1.000455	0.207923
O42	O	-0.129230	1.250455	0.457923
O43	O	0.120770	1.500455	0.707923
O44	O	0.370770	1.750455	0.957923
O45	O	-0.379182	0.881180	0.327213
O46	O	-0.129182	1.131180	0.577213
O47	O	0.120818	1.381180	0.827213
O48	O	0.370818	1.631180	1.077213
O49	O	-0.489937	0.995278	0.542120
O50	O	-0.239937	1.245278	0.792120
O51	O	0.010063	1.495278	1.042120
O52	O	0.260063	1.745278	1.292120
O53	O	-0.489966	0.875943	0.422802
O54	O	-0.239966	1.125943	0.672802
O55	O	0.010034	1.375943	0.922802
O56	O	0.260034	1.625943	1.172802
O57	O	-0.379131	1.090932	0.536936
O58	O	-0.129131	1.340932	0.786936
O59	O	0.120869	1.590932	1.036936
O60	O	0.370869	1.840932	1.286936
O61	O	-0.636266	1.078681	0.339288
O62	O	-0.386266	1.328681	0.589288
O63	O	-0.136266	1.578681	0.839288
O64	O	0.113734	1.828681	1.089288
O65	O	-0.636229	0.988308	0.429672
O66	O	-0.386229	1.238308	0.679672
O67	O	-0.136229	1.488308	0.929672
O68	O	0.113771	1.738308	1.179672
C69	C	-0.434572	0.851859	0.375005
C70	C	-0.184572	1.101859	0.625005
C71	C	0.065428	1.351859	0.875005
C72	C	0.315428	1.601859	1.125005
C73	C	-0.434587	0.770059	0.375014
C74	C	-0.184587	1.020059	0.625014
C75	C	0.065413	1.270059	0.875014
C76	C	0.315413	1.520059	1.125014
C77	C	-0.668981	1.031961	0.386030
C78	C	-0.418981	1.281961	0.636030
C79	C	-0.168981	1.531961	0.886030
C80	C	0.081019	1.781961	1.136030
C81	C	-0.769256	1.027278	0.390762
C82	C	-0.519256	1.277278	0.640762
C83	C	-0.269256	1.527278	0.890762
C84	C	-0.019256	1.777278	1.140762
C85	C	-0.492363	0.579154	0.424733
C86	C	-0.242363	0.829154	0.674733
C87	C	0.007637	1.079154	0.924733
C88	C	0.257637	1.329154	1.174733
C89	C	-0.492366	0.502295	0.424742
C90	C	-0.242366	0.752295	0.674742
C91	C	0.007634	1.002295	0.924742
C92	C	0.257634	1.252295	1.174742
C93	C	-0.376828	0.507726	0.325338
C94	C	-0.126828	0.757726	0.575338
C95	C	0.123172	1.007726	0.825338
C96	C	0.373172	1.257726	1.075338
C97	C	-0.376822	0.584584	0.325333
C98	C	-0.126822	0.834584	0.575333
C99	C	0.123178	1.084584	0.825333
C100	C	0.373178	1.334584	1.075333
C101	C	-0.434594	0.620295	0.375029
C102	C	-0.184594	0.870295	0.625029
C103	C	0.065406	1.120295	0.875029
C104	C	0.315406	1.370295	1.125029
C105	C	-0.434604	0.466579	0.375044
C106	C	-0.184604	0.716579	0.625044
C107	C	0.065396	0.966579	0.875044
C108	C	0.315396	1.216579	1.125044
C109	C	-0.434606	0.383245	0.375053
C110	C	-0.184606	0.633245	0.625053
C111	C	0.065394	0.883245	0.875053
C112	C	0.315394	1.133245	1.125053
C113	C	-0.434591	0.703635	0.375021
C114	C	-0.184591	0.953635	0.625021
C115	C	0.065409	1.203635	0.875021
C116	C	0.315409	1.453635	1.125021
C117	C	-0.957660	1.112681	0.305613
C118	C	-0.707660	1.362681	0.555613
C119	C	-0.457660	1.612681	0.805613
C120	C	-0.207660	1.862681	1.055613
C121	C	-1.051877	1.108284	0.310057
C122	C	-0.801877	1.358284	0.560057
C123	C	-0.551877	1.608284	0.810057
C124	C	-0.301877	1.858284	1.060057
C125	C	-1.051908	1.014091	0.404097
C126	C	-0.801908	1.264091	0.654097
C127	C	-0.551908	1.514091	0.904097
C128	C	-0.301908	1.764091	1.154097
C129	C	-0.957691	1.018488	0.399653
C130	C	-0.707691	1.268488	0.649653
C131	C	-0.457691	1.518488	0.899653
C132	C	-0.207691	1.768488	1.149653
C133	C	-0.910570	1.067784	0.350409
C134	C	-0.660570	1.317784	0.600409
C135	C	-0.410570	1.567784	0.850409
C136	C	-0.160570	1.817784	1.100409
C137	C	-0.816352	1.072177	0.345962
C138	C	-0.566352	1.322177	0.595962
C139	C	-0.316352	1.572177	0.845962
C140	C	-0.066352	1.822177	1.095962
C141	C	-0.816385	0.977988	0.440005
C142	C	-0.566385	1.227988	0.690005
C143	C	-0.316385	1.477988	0.940005
C144	C	-0.066385	1.727988	1.190005
C145	C	-0.910602	0.973591	0.444449
C146	C	-0.660602	1.223591	0.694449
C147	C	-0.410602	1.473591	0.944449
C148	C	-0.160602	1.723591	1.194449
C149	C	-0.199279	1.054231	0.363996
C150	C	0.050721	1.304231	0.613996
C151	C	0.300721	1.554231	0.863996
C152	C	0.550721	1.804231	1.113996
C153	C	-0.099004	1.058990	0.359296
C154	C	0.150996	1.308990	0.609296
C155	C	0.400996	1.558990	0.859296
C156	C	0.650996	1.808990	1.109296
C157	C	-0.434526	1.043112	0.566977
C158	C	-0.184526	1.293112	0.816977
C159	C	0.065474	1.543112	1.066977
C160	C	0.315474	1.793112	1.316977
C161	C	-0.434499	1.043133	0.648775
C162	C	-0.184499	1.293133	0.898775
C163	C	0.065501	1.543133	1.148775
C164	C	0.315501	1.793133	1.398775
C165	C	-0.434604	1.235017	0.375049
C166	C	-0.184604	1.485017	0.625049
C167	C	0.065396	1.735017	0.875049
C168	C	0.315396	1.985017	1.125049
C169	C	-0.434611	1.316815	0.375059
C170	C	-0.184611	1.566815	0.625059
C171	C	0.065389	1.816815	0.875059
C172	C	0.315389	2.066815	1.125059
C173	C	-0.434585	1.043062	0.183820
C174	C	-0.184585	1.293062	0.433820
C175	C	0.065415	1.543062	0.683820
C176	C	0.315415	1.793062	0.933820
C177	C	-0.434357	1.043196	0.102011
C178	C	-0.184357	1.293196	0.352011
C179	C	0.065643	1.543196	0.602011
C180	C	0.315643	1.793196	0.852011
C181	C	-0.376748	1.092959	0.834268
C182	C	-0.126748	1.342959	1.084268
C183	C	0.123252	1.592959	1.334268
C184	C	0.373252	1.842959	1.584268
C185	C	-0.376722	1.092969	0.911126
C186	C	-0.126722	1.342969	1.161126
C187	C	0.123278	1.592969	1.411126
C188	C	0.373278	1.842969	1.661126
C189	C	-0.492110	0.993364	0.916513
C190	C	-0.242110	1.243364	1.166513
C191	C	0.007890	1.493364	1.416513
C192	C	0.257890	1.743364	1.666513
C193	C	-0.492131	0.993351	0.839656
C194	C	-0.242131	1.243351	1.089656
C195	C	0.007869	1.493351	1.339656
C196	C	0.257869	1.743351	1.589656
C197	C	-0.434452	1.043153	0.798536
C198	C	-0.184452	1.293153	1.048536
C199	C	0.065548	1.543153	1.298536
C200	C	0.315548	1.793153	1.548536
C201	C	-0.434404	1.043176	0.952250
C202	C	-0.184404	1.293176	1.202250
C203	C	0.065596	1.543176	1.452250
C204	C	0.315596	1.793176	1.702250
C205	C	-0.434376	1.043186	1.035582
C206	C	-0.184376	1.293186	1.285582
C207	C	0.065624	1.543186	1.535582
C208	C	0.315624	1.793186	1.785582
C209	C	-0.434478	1.043142	0.715198
C210	C	-0.184478	1.293142	0.965198
C211	C	0.065522	1.543142	1.215198
C212	C	0.315522	1.793142	1.465198
H213	H	-0.539406	0.468801	0.465216
H214	H	-0.289406	0.718801	0.715216
H215	H	-0.039406	0.968801	0.965216
H216	H	0.210594	1.218801	1.215216
H217	H	-0.329780	1.133509	0.800790
H218	H	-0.079780	1.383509	1.050790
H219	H	0.170220	1.633509	1.300790
H220	H	0.420220	1.883509	1.550790
O221	O	-0.314487	1.146685	0.949673
O222	O	-0.064487	1.396685	1.199673
O223	O	0.185513	1.646685	1.449673
O224	O	0.435513	1.896685	1.699673
H225	H	-0.329971	1.203709	0.935669
H226	H	-0.079971	1.453709	1.185669
H227	H	0.170029	1.703709	1.435669
H228	H	0.420029	1.953709	1.685669
H229	H	-0.329773	0.618083	0.284858
H230	H	-0.079773	0.868083	0.534858
H231	H	0.170227	1.118083	0.784858
H232	H	0.420227	1.368083	1.034858
O233	O	-0.554322	0.939652	0.960862
O234	O	-0.304322	1.189652	1.210862
O235	O	-0.054322	1.439652	1.460862
O236	O	0.195678	1.689652	1.710862
H237	H	-0.544619	0.948031	1.020309
H238	H	-0.294619	1.198031	1.270309
H239	H	-0.044619	1.448031	1.520309
H240	H	0.205381	1.698031	1.770309
H241	H	-0.539403	0.608228	0.465200
H242	H	-0.289403	0.858228	0.715200
H243	H	-0.039403	1.108228	0.965200
H244	H	0.210597	1.358228	1.215200
O245	O	-0.765519	1.125352	0.292861
O246	O	-0.515519	1.375352	0.542861
O247	O	-0.265519	1.625352	0.792861
O248	O	-0.015519	1.875352	1.042861
H249	H	-0.783658	1.111934	0.235942
H250	H	-0.533658	1.361934	0.485942
H251	H	-0.283658	1.611934	0.735942
H252	H	-0.033658	1.861934	0.985942
O253	O	-0.765583	0.929557	0.488313
O254	O	-0.515583	1.179557	0.738313
O255	O	-0.265583	1.429557	0.988313
O256	O	-0.015583	1.679557	1.238313
H257	H	-0.783738	0.870961	0.476476
H258	H	-0.533738	1.120961	0.726476
H259	H	-0.283738	1.370961	0.976476
H260	H	-0.033738	1.620961	1.226476
H261	H	-1.090213	1.144846	0.273581
H262	H	-0.840213	1.394846	0.523581
H263	H	-0.590213	1.644846	0.773581
H264	H	-0.340213	1.894846	1.023581
H265	H	-0.329793	0.478640	0.284876
H266	H	-0.079793	0.728640	0.534876
H267	H	0.170207	0.978640	0.784876
H268	H	0.420207	1.228640	1.034876
O269	O	-0.961433	0.920425	0.497559
O270	O	-0.711433	1.170425	0.747559
O271	O	-0.461433	1.420425	0.997559
O272	O	-0.211433	1.670425	1.247559
H273	H	-0.912857	0.889947	0.527964
H274	H	-0.662857	1.139947	0.777964
H275	H	-0.412857	1.389947	1.027964
H276	H	-0.162857	1.639947	1.277964
O277	O	-0.906827	1.165846	0.252503
O278	O	-0.656827	1.415846	0.502503
O279	O	-0.406827	1.665846	0.752503
O280	O	-0.156827	1.915846	1.002503
H281	H	-0.955401	1.196331	0.222101
H282	H	-0.705401	1.446331	0.472101
H283	H	-0.455401	1.696331	0.722101
H284	H	-0.205401	1.946331	0.972101
O285	O	-1.102737	0.960916	0.457199
O286	O	-0.852737	1.210916	0.707199
O287	O	-0.602737	1.460916	0.957199
O288	O	-0.352737	1.710916	1.207199
H289	H	-1.176163	0.965399	0.452755
H290	H	-0.926163	1.215399	0.702755
H291	H	-0.676163	1.465399	0.952755
H292	H	-0.426163	1.715399	1.202755
H293	H	-0.539119	0.952788	0.810563
H294	H	-0.289119	1.202788	1.060563
H295	H	-0.039119	1.452788	1.310563
H296	H	0.210881	1.702788	1.560563
