data_functionalizedCrystal
_audit_creation_method	'MofGen! by Chris Wilmer'
_symmetry_space_group_name_H-M	'P1'
_symmetry_Int_Tables_number	1
_symmetry_cell_setting	triclinic
loop_
_symmetry_equiv_pos_as_xyz
  x,y,z
_cell_length_a	15.944551
_cell_length_b	11.792241
_cell_length_c	10.868271
_cell_angle_alpha	90.000107
_cell_angle_beta	89.993912
_cell_angle_gamma	96.153923
loop_
_atom_site_label
_atom_site_type_symbol
_atom_site_fract_x
_atom_site_fract_y
_atom_site_fract_z
O1	O	0.115128	-1.505960	-0.102206
O2	O	0.615128	-1.005960	0.397794
O3	O	0.126993	-1.175521	-0.102235
O4	O	0.626993	-0.675521	0.397765
O5	O	-0.001173	-1.349764	-0.102208
O6	O	0.498827	-0.849764	0.397792
O7	O	0.243295	-1.331717	-0.102232
O8	O	0.743295	-0.831717	0.397768
O9	O	-0.001178	-1.349750	0.102436
O10	O	0.498822	-0.849750	0.602436
O11	O	0.126988	-1.175507	0.102410
O12	O	0.626988	-0.675507	0.602410
O13	O	0.115123	-1.505946	0.102439
O14	O	0.615123	-1.005946	0.602439
Zn15	Zn	0.121055	-1.340724	0.134916
Zn16	Zn	0.621055	-0.840724	0.634916
Zn17	Zn	0.121062	-1.340743	-0.134712
Zn18	Zn	0.621062	-0.840743	0.365288
O19	O	0.243290	-1.331703	0.102413
O20	O	0.743290	-0.831703	0.602413
C21	C	0.126245	-1.133229	0.000084
C22	C	0.626245	-0.633229	0.500084
C23	C	0.124015	-1.007234	0.000073
C24	C	0.624015	-0.507234	0.500073
C25	C	-0.032473	-1.349008	0.000114
C26	C	0.467527	-0.849008	0.500114
C27	C	-0.125729	-1.346761	0.000115
C28	C	0.374271	-0.846761	0.500115
N29	N	0.121050	-1.340719	0.318930
N30	N	0.621050	-0.840719	0.818930
C31	C	-0.341098	-1.233389	0.000088
C32	C	0.158902	-0.733389	0.500088
C33	C	-0.401880	-1.286028	0.100995
C34	C	0.098120	-0.786028	0.600995
C35	C	-0.296474	-1.342698	0.000105
C36	C	0.203526	-0.842698	0.500105
C37	C	-0.401858	-1.286068	-0.100769
C38	C	0.098142	-0.786068	0.399231
C39	C	-0.461404	-1.338765	0.000090
C40	C	0.038596	-0.838765	0.500090
C41	C	-0.356028	-1.395368	0.101095
C42	C	0.143972	-0.895368	0.601095
C43	C	-0.356000	-1.395392	-0.100759
C44	C	0.144000	-0.895392	0.399241
C45	C	-0.416764	-1.448111	0.000172
C46	C	0.083236	-0.948111	0.500172
C47	C	-0.201461	-1.344961	0.000114
C48	C	0.298539	-0.844961	0.500114
C49	C	-0.556415	-1.336511	0.000089
C50	C	-0.056415	-0.836511	0.500089
C51	C	0.274590	-1.332459	0.000087
C52	C	0.774590	-0.832459	0.500087
C53	C	0.367846	-1.334705	0.000079
C54	C	0.867846	-0.834705	0.500079
C55	C	0.115871	-1.548237	0.000118
C56	C	0.615871	-1.048237	0.500118
C57	C	0.118102	-1.674233	0.000120
C58	C	0.618102	-1.174233	0.500120
C59	C	0.119913	-0.776555	0.000109
C60	C	0.619913	-0.276555	0.500109
C61	C	0.122192	-0.904922	0.000090
C62	C	0.622192	-0.404922	0.500090
N63	N	0.121060	-1.340756	-0.318726
N64	N	0.621060	-0.840756	0.181274
C65	C	0.121060	-1.340737	0.569936
C66	C	0.621060	-0.840737	1.069936
C67	C	0.121057	-1.340723	0.430259
C68	C	0.621057	-0.840723	0.930259
H69	H	-0.308200	-1.142657	0.000181
H70	H	0.191800	-0.642657	0.500181
Br71	Br	-0.435746	-1.208965	0.243171
Br72	Br	0.064254	-0.708965	0.743171
Br73	Br	-0.322094	-1.472399	-0.242941
Br74	Br	0.177906	-0.972399	0.257059
H75	H	-0.422142	-1.239826	-0.186084
H76	H	0.077858	-0.739826	0.313916
H77	H	-0.449513	-1.538922	0.000237
H78	H	0.050487	-1.038922	0.500237
H79	H	-0.335831	-1.441556	0.186497
H80	H	0.164169	-0.941556	0.686497
