data_functionalizedCrystal
_audit_creation_method	'MofGen! by Chris Wilmer'
_symmetry_space_group_name_H-M	'P1'
_symmetry_Int_Tables_number	1
_symmetry_cell_setting	triclinic
loop_
_symmetry_equiv_pos_as_xyz
  x,y,z
_cell_length_a	19.188905
_cell_length_b	17.666332
_cell_length_c	17.038272
_cell_angle_alpha	89.993620
_cell_angle_beta	92.876944
_cell_angle_gamma	90.016479
loop_
_atom_site_label
_atom_site_type_symbol
_atom_site_fract_x
_atom_site_fract_y
_atom_site_fract_z
O1	O	0.932218	0.063075	-0.097499
O2	O	0.729722	0.063049	-0.110656
O3	O	0.829766	0.063056	0.009734
O4	O	0.832173	0.063068	-0.217889
O5	O	0.829747	-0.062841	0.009740
O6	O	0.729702	-0.062848	-0.110650
O7	O	0.932199	-0.062822	-0.097492
Cu8	Cu	0.830949	-0.074330	-0.104071
Cu9	Cu	0.830972	0.074557	-0.104078
O10	O	0.832154	-0.062829	-0.217883
C11	C	0.703674	0.000097	-0.110230
C12	C	0.626090	0.000087	-0.108961
N13	N	0.830938	-0.179050	-0.104065
C14	C	0.589671	0.068716	-0.108355
C15	C	0.516773	0.068725	-0.107154
C16	C	0.480297	0.000102	-0.106543
C17	C	0.516725	-0.068535	-0.107154
C18	C	0.589621	-0.068543	-0.108363
N19	N	0.368388	-0.050970	-0.060158
N20	N	0.299139	-0.050958	-0.059008
C21	C	0.260664	0.000120	-0.102901
N22	N	0.294055	0.051198	-0.147979
N23	N	0.363310	0.051188	-0.149126
C24	C	0.401253	0.000102	-0.105232
C25	C	0.145201	0.068763	-0.100994
C26	C	0.072301	0.068770	-0.099797
C27	C	0.072255	-0.068492	-0.099789
C28	C	0.145153	-0.068497	-0.100993
C29	C	0.181622	0.000133	-0.101592
C30	C	0.875255	-0.218656	-0.050782
C31	C	0.875259	-0.297904	-0.050778
C32	C	0.830953	-0.337542	-0.104071
C33	C	0.786628	-0.297926	-0.157358
C34	C	0.786620	-0.218679	-0.157355
N35	N	0.826176	-0.461957	-0.173269
N36	N	0.826187	-0.537238	-0.173270
C37	C	0.830972	-0.576306	-0.104082
N38	N	0.835759	-0.537249	-0.034891
N39	N	0.835752	-0.461962	-0.034891
C40	C	0.830956	-0.423471	-0.104080
C41	C	0.875295	-0.701842	-0.050790
C42	C	0.875294	-0.781091	-0.050785
C43	C	0.786667	-0.781111	-0.157372
C44	C	0.786665	-0.701863	-0.157370
C45	C	0.830982	-0.662234	-0.104080
C46	C	0.958246	0.000131	-0.097918
C47	C	1.035830	0.000146	-0.099188
C48	C	0.827568	0.000107	0.038858
C49	C	0.821036	0.000107	0.125630
N50	N	0.830988	0.179277	-0.104078
C51	C	0.834353	0.000122	-0.247007
C52	C	0.840884	0.000127	-0.333779
C53	C	0.881003	0.000113	0.175938
C54	C	0.874862	0.000120	0.257469
C55	C	0.808753	0.000114	0.288690
C56	C	0.748782	0.000109	0.238376
C57	C	0.754924	0.000108	0.156847
C58	C	0.787055	0.000122	0.534378
C59	C	0.780918	0.000120	0.615913
C60	C	0.906998	0.000132	0.635001
C61	C	0.913134	0.000127	0.553469
C62	C	0.853163	0.000126	0.503162
C63	C	0.802474	0.000118	0.372027
C64	C	0.859442	0.000127	0.419826
H65	H	0.619359	0.124600	-0.108842
Br66	Br	0.988383	0.000133	0.703277
H67	H	0.911380	-0.669574	-0.007396
Br68	Br	0.726520	-0.648105	-0.229688
Br69	Br	0.639051	-0.161688	-0.109187
H70	H	0.694954	0.000109	0.263803
Br71	Br	0.022872	0.161917	-0.098984
Br72	Br	0.935396	-0.164873	0.021540
Br73	Br	0.194583	-0.161641	-0.101814
Br74	Br	0.935407	-0.351666	0.021542
Br75	Br	0.726493	-0.351716	-0.229679
Br76	Br	0.673537	0.000105	0.088570
Br77	Br	0.726471	-0.164923	-0.229672
Br78	Br	0.935437	-0.834848	0.021539
H79	H	0.738222	0.000121	0.493427
Br80	Br	0.726530	-0.834898	-0.229690
Br81	Br	0.970726	0.000110	0.133574
H82	H	0.174894	0.124646	-0.101489
H83	H	0.923693	0.000124	0.298426
Br84	Br	0.691193	0.000105	0.658285
Br85	Br	1.002856	0.000159	0.511103
H86	H	0.042557	-0.124366	-0.099297
H87	H	0.913268	0.000149	0.394402
H88	H	0.487114	0.124612	-0.106661
Br89	Br	0.467224	-0.161667	-0.106333
Br90	Br	0.712757	0.000118	0.414406
