data_functionalizedCrystal
_audit_creation_method	'MofGen! by Chris Wilmer'
_symmetry_space_group_name_H-M	'P1'
_symmetry_Int_Tables_number	1
_symmetry_cell_setting	triclinic
loop_
_symmetry_equiv_pos_as_xyz
  x,y,z
_cell_length_a	13.032721
_cell_length_b	13.033293
_cell_length_c	13.032268
_cell_angle_alpha	89.079182
_cell_angle_beta	103.289627
_cell_angle_gamma	105.184121
loop_
_atom_site_label
_atom_site_type_symbol
_atom_site_fract_x
_atom_site_fract_y
_atom_site_fract_z
Zn1	Zn	-0.335776	1.451143	-0.818087
Zn2	Zn	0.164224	1.951143	-0.318087
Zn3	Zn	-0.490873	1.451029	-0.663022
Zn4	Zn	0.009127	1.951029	-0.163022
Zn5	Zn	-0.330076	1.301807	-0.623641
Zn6	Zn	0.169924	1.801807	-0.123641
Zn7	Zn	-0.535864	1.250940	-0.817967
Zn8	Zn	-0.035864	1.750940	-0.317967
O9	O	-0.423147	1.363730	-0.730679
O10	O	0.076853	1.863730	-0.230679
O11	O	-0.339906	1.597364	-0.814049
O12	O	0.160094	2.097364	-0.314049
O13	O	-0.448329	1.452475	-0.511577
O14	O	0.051671	1.952475	-0.011577
O15	O	-0.179801	1.342952	-0.633004
O16	O	0.320199	1.842952	-0.133004
O17	O	-0.453855	1.597280	-0.700123
O18	O	0.046145	2.097280	-0.200123
O19	O	-0.183988	1.452669	-0.775863
O20	O	0.316012	1.952669	-0.275863
O21	O	-0.330192	1.342842	-0.482644
O22	O	0.169808	1.842842	0.017356
O23	O	-0.373818	1.148823	-0.632888
O24	O	0.126182	1.648823	-0.132888
O25	O	-0.530536	1.256257	-0.964204
O26	O	-0.030536	1.756257	-0.464204
O27	O	-0.525009	1.111451	-0.775658
O28	O	-0.025009	1.611451	-0.275658
O29	O	-0.383532	1.403346	-0.964292
O30	O	0.116468	1.903346	-0.464292
O31	O	-0.647872	1.403151	-0.700006
O32	O	-0.147872	1.903151	-0.200006
O33	O	-0.680927	1.256146	-0.813844
O34	O	-0.180927	1.756146	-0.313844
C35	C	-0.453678	1.092220	-0.699987
C36	C	0.046322	1.592220	-0.199987
C37	C	-0.466769	0.976059	-0.686885
C38	C	0.033231	1.476059	-0.186885
C39	C	-0.416342	0.924284	-0.737521
C40	C	0.083658	1.424284	-0.237521
C41	C	-0.429871	0.804226	-0.723980
C42	C	0.070129	1.304226	-0.223980
C43	C	-0.703561	1.324141	-0.761211
C44	C	-0.203561	1.824141	-0.261211
C45	C	-0.823517	1.307296	-0.774319
C46	C	-0.323517	1.807296	-0.274319
C47	C	-0.860609	1.372570	-0.723892
C48	C	-0.360609	1.872570	-0.223892
C49	C	-0.984590	1.355161	-0.737438
C50	C	-0.484590	1.855161	-0.237438
C51	C	-0.141639	1.403498	-0.700054
C52	C	0.358361	1.903498	-0.200054
C53	C	-0.021676	1.420444	-0.687004
C54	C	0.478324	1.920444	-0.187004
C55	C	-0.462688	1.324140	-1.003222
C56	C	0.037312	1.824140	-0.503222
C57	C	-0.479538	1.307269	-1.119363
C58	C	0.020462	1.807269	-0.619363
C59	C	-0.392498	1.636300	-0.761492
C60	C	0.107502	2.136300	-0.261492
C61	C	-0.379436	1.752453	-0.774623
C62	C	0.120564	2.252453	-0.274623
C63	C	-0.414316	1.372524	-1.171186
C64	C	0.085684	1.872524	-0.671186
C65	C	-0.431730	1.355089	-1.291224
C66	C	0.068270	1.855089	-0.791224
C67	C	-0.383675	1.403237	-0.459196
C68	C	0.116325	1.903237	0.040804
C69	C	-0.366498	1.420353	-0.343045
C70	C	0.133502	1.920353	0.156955
H71	H	-0.519955	0.931504	-0.633506
H72	H	-0.019955	1.431504	-0.133506
N73	N	-0.942171	1.511552	-0.616533
N74	N	-0.442171	2.011552	-0.116533
H75	H	-0.952754	1.503502	-0.542159
H76	H	-0.452754	2.003502	-0.042159
H77	H	-0.955665	1.581073	-0.643469
H78	H	-0.455665	2.081073	-0.143469
H79	H	-0.363149	0.968840	-0.790892
H80	H	0.136851	1.468840	-0.290892
H81	H	-0.883549	1.238528	-0.827524
H82	H	-0.383549	1.738528	-0.327524
N83	N	-0.323291	1.463648	-1.112260
N84	N	0.176709	1.963648	-0.612260
H85	H	-0.323766	1.463197	-1.034864
H86	H	0.176234	1.963197	-0.534864
H87	H	-0.334472	1.533149	-1.141563
H88	H	0.165528	2.033149	-0.641563
N89	N	-0.570570	1.216159	-1.178304
N90	N	-0.070570	1.716159	-0.678304
H91	H	-0.622333	1.245026	-1.233832
H92	H	-0.122333	1.745026	-0.733832
H93	H	-0.611624	1.175032	-1.127163
H94	H	-0.111624	1.675032	-0.627163
N95	N	-0.500321	0.745227	-0.653260
N96	N	-0.000321	1.245227	-0.153260
H97	H	-0.499997	0.667826	-0.653608
H98	H	0.000003	1.167826	-0.153608
H99	H	-0.577642	0.751030	-0.679926
H100	H	-0.077642	1.251030	-0.179926
H101	H	-1.044618	1.286388	-0.790647
H102	H	-0.544618	1.786388	-0.290647
N103	N	-0.781104	1.463677	-0.653428
N104	N	-0.281104	1.963677	-0.153428
H105	H	-0.703806	1.463202	-0.653742
H106	H	-0.203806	1.963202	-0.153742
H107	H	-0.791780	1.455573	-0.579091
H108	H	-0.291780	1.955573	-0.079091
N109	N	-0.275455	1.511467	-1.284117
N110	N	0.224545	2.011467	-0.784117
H111	H	-0.234323	1.552620	-1.335195
H112	H	0.265677	2.052620	-0.835195
H113	H	-0.223766	1.482519	-1.228593
H114	H	0.276234	1.982519	-0.728593
H115	H	-0.326238	0.797005	-0.827997
H116	H	0.173762	1.297005	-0.327997
H117	H	-0.500459	1.286303	-1.335719
H118	H	-0.000459	1.786303	-0.835719
