data_functionalizedCrystal
_audit_creation_method	'MofGen! by Chris Wilmer'
_symmetry_space_group_name_H-M	'P1'
_symmetry_Int_Tables_number	1
_symmetry_cell_setting	triclinic
loop_
_symmetry_equiv_pos_as_xyz
  x,y,z
_cell_length_a	12.759401
_cell_length_b	18.101395
_cell_length_c	12.759393
_cell_angle_alpha	90.033445
_cell_angle_beta	90.018496
_cell_angle_gamma	90.031265
loop_
_atom_site_label
_atom_site_type_symbol
_atom_site_fract_x
_atom_site_fract_y
_atom_site_fract_z
Zn1	Zn	1.606136	-0.294783	0.593968
Zn2	Zn	1.605980	-0.418644	0.418282
Zn3	Zn	1.430438	-0.294822	0.418307
Zn4	Zn	1.430376	-0.418587	0.593923
O5	O	1.518232	-0.356709	0.506120
O6	O	1.753136	-0.311221	0.570671
O7	O	1.582654	-0.402259	0.271264
O8	O	1.453835	-0.191183	0.441638
O9	O	1.753021	-0.402221	0.441595
O10	O	1.582920	-0.191155	0.570695
O11	O	1.453684	-0.311287	0.271283
O12	O	1.283408	-0.311232	0.441595
O13	O	1.453730	-0.402124	0.740950
O14	O	1.283363	-0.402162	0.570619
O15	O	1.582860	-0.311166	0.740983
O16	O	1.582594	-0.522270	0.441552
O17	O	1.453579	-0.522228	0.570595
C18	C	1.245265	-0.356695	0.506106
C19	C	1.128488	-0.356707	0.506125
C20	C	1.073630	-0.404131	0.573197
C21	C	0.963906	-0.404140	0.573208
C22	C	0.963908	-0.309301	0.439066
C23	C	1.073630	-0.309288	0.439061
C24	C	1.128488	-0.451550	0.640260
C25	C	1.073630	-0.498977	0.707337
C26	C	0.963906	-0.498987	0.707348
C27	C	0.909040	-0.451568	0.640283
C28	C	1.518092	-0.549120	0.506089
C29	C	1.518128	-0.631434	0.506111
C30	C	1.518358	-0.930525	0.506168
C31	C	1.437374	-0.899204	0.587559
C32	C	1.436989	-0.813586	0.587305
C33	C	1.518244	-0.782142	0.506140
C34	C	1.488263	-0.813302	0.395415
C35	C	1.487741	-0.898947	0.395903
C36	C	1.629501	-0.898866	0.534526
C37	C	1.628847	-0.813215	0.536954
C38	C	1.518181	-0.698283	0.506118
C39	C	1.518418	-1.014384	0.506182
C40	C	1.792265	-0.356723	0.506135
C41	C	1.909042	-0.356729	0.506141
C42	C	1.518306	-0.356634	0.780153
C43	C	1.518337	-0.356602	0.896930
C44	C	1.518402	-0.163547	0.506174
C45	C	1.518474	-0.081233	0.506197
C46	C	1.518219	-0.356730	0.233153
C47	C	1.518392	-0.356553	0.116376
C48	C	1.585584	-0.309236	0.951811
C49	C	1.585609	-0.309209	1.061535
C50	C	1.451137	-0.403922	1.061488
C51	C	1.451108	-0.403944	0.951766
C52	C	1.652814	-0.261894	0.896975
C53	C	1.720068	-0.214524	0.951856
C54	C	1.720092	-0.214497	1.061580
C55	C	1.652864	-0.261840	1.116423
H56	H	1.455746	-0.792516	0.669407
O57	O	1.385693	-0.449834	1.114714
C58	C	1.206965	-0.485800	1.148223
C59	C	1.280956	-0.433744	1.087901
H60	H	1.122270	-0.472821	1.126550
H61	H	1.218450	-0.477646	1.236084
H62	H	1.225412	-0.545516	1.126637
H63	H	1.262554	-0.374009	1.109399
H64	H	1.269457	-0.441962	1.000055
H65	H	1.652803	-0.261912	0.807632
O66	O	1.785262	-0.168400	1.114937
C67	C	1.799521	-0.068410	1.238890
C68	C	1.725592	-0.120557	1.178516
H69	H	1.751309	-0.029727	1.290325
H70	H	1.847541	-0.034526	1.180890
H71	H	1.854460	-0.102415	1.290207
H72	H	1.670589	-0.086610	1.127198
H73	H	1.677646	-0.154445	1.236573
O74	O	1.653054	-0.261882	1.223010
C75	C	1.753816	-0.280839	1.380466
C76	C	1.753734	-0.280831	1.259762
H77	H	1.835212	-0.296142	1.410217
H78	H	1.694283	-0.322839	1.410289
H79	H	1.732020	-0.223482	1.410253
H80	H	1.775556	-0.338156	1.229885
H81	H	1.813245	-0.238790	1.230011
H82	H	0.919227	-0.270696	0.384464
O83	O	1.126883	-0.263308	0.373752
C84	C	1.160378	-0.227189	0.195129
C85	C	1.100020	-0.279320	0.268970
H86	H	1.138665	-0.240106	0.110399
H87	H	1.248233	-0.235333	0.206560
H88	H	1.138866	-0.167494	0.213776
H89	H	1.121444	-0.339035	0.250369
H90	H	1.012179	-0.271112	0.257526
H91	H	1.455945	-0.919745	0.669927
H92	H	1.396333	-0.442503	0.907081
H93	H	1.118309	-0.537579	0.761945
O94	O	0.910778	-0.545122	0.772539
C95	C	0.922362	-0.639158	0.905630
C96	C	0.982657	-0.586956	0.831839
H97	H	0.980451	-0.672983	0.953609
H98	H	0.870980	-0.677894	0.857351
H99	H	0.871007	-0.605198	0.960613
H100	H	1.034069	-0.620856	0.776842
H101	H	1.033974	-0.548217	0.880184
H102	H	1.217831	-0.451549	0.640256
O103	O	1.556272	-0.789004	0.320964
C104	C	1.578310	-0.721000	0.160169
C105	C	1.501166	-0.748468	0.244401
H106	H	1.533790	-0.688209	0.098258
H107	H	1.618347	-0.770343	0.121708
H108	H	1.639926	-0.684070	0.198231
H109	H	1.439489	-0.785386	0.206420
H110	H	1.461208	-0.699092	0.282854
O111	O	1.390748	-0.922741	0.367276
C112	C	1.215968	-0.888393	0.314959
C113	C	1.325761	-0.861351	0.347385
H114	H	1.163402	-0.838774	0.298846
H115	H	1.180790	-0.922905	0.380878
H116	H	1.222457	-0.923531	0.241070
H117	H	1.319363	-0.826184	0.421249
H118	H	1.360899	-0.826879	0.281404
H119	H	1.355493	-0.920792	0.569012
O120	O	0.802454	-0.451670	0.640426
C121	C	0.644996	-0.503637	0.714162
C122	C	0.765701	-0.503620	0.714073
H123	H	0.615245	-0.545623	0.773715
H124	H	0.615061	-0.518973	0.632810
H125	H	0.615324	-0.446279	0.736075
H126	H	0.795463	-0.560960	0.692204
H127	H	0.795565	-0.488242	0.795434
H128	H	1.774796	-0.175974	0.907195
O129	O	1.338688	-0.789182	0.565074
C130	C	1.190037	-0.718271	0.623675
C131	C	1.301353	-0.745870	0.648999
H132	H	1.159827	-0.683236	0.691503
H133	H	1.135792	-0.767602	0.611489
H134	H	1.192116	-0.683502	0.549235
H135	H	1.299375	-0.780627	0.723449
H136	H	1.355552	-0.696507	0.661118
O137	O	1.555051	-0.923550	0.321006
C138	C	1.677497	-0.890665	0.185048
C139	C	1.601295	-0.862707	0.269818
H140	H	1.714923	-0.841489	0.143653
H141	H	1.632822	-0.925591	0.125550
H142	H	1.741219	-0.925623	0.223241
H143	H	1.537556	-0.827719	0.231716
H144	H	1.646043	-0.827822	0.329306
H145	H	1.656833	-0.920408	0.613890
O146	O	1.655756	-0.789051	0.634254
C147	C	1.701460	-0.822702	0.811147
C148	C	1.671001	-0.850163	0.700999
H149	H	1.713815	-0.872097	0.865136
H150	H	1.636144	-0.786386	0.843702
H151	H	1.777048	-0.789284	0.806122
H152	H	1.595439	-0.883611	0.705934
H153	H	1.736379	-0.886439	0.668486
H154	H	1.407879	-0.791919	0.370962
H155	H	1.689837	-0.919120	0.475245
O156	O	1.704712	-0.787806	0.471368
C157	C	1.839309	-0.819092	0.346593
C158	C	1.753449	-0.847966	0.420861
H159	H	1.878722	-0.867715	0.305721
H160	H	1.900176	-0.786954	0.393573
H161	H	1.802536	-0.781217	0.285445
H162	H	1.790129	-0.885869	0.482024
H163	H	1.692593	-0.880061	0.373810
