data_functionalizedCrystal
_audit_creation_method	'MofGen! by Chris Wilmer'
_symmetry_space_group_name_H-M	'P1'
_symmetry_Int_Tables_number	1
_symmetry_cell_setting	triclinic
loop_
_symmetry_equiv_pos_as_xyz
  x,y,z
_cell_length_a	17.699083
_cell_length_b	10.654550
_cell_length_c	9.730223
_cell_angle_alpha	89.998306
_cell_angle_beta	90.004950
_cell_angle_gamma	96.116207
loop_
_atom_site_label
_atom_site_type_symbol
_atom_site_fract_x
_atom_site_fract_y
_atom_site_fract_z
O1	O	-1.005087	0.158797	-0.114263
O2	O	-0.784840	0.179460	-0.114271
O3	O	-0.900028	-0.013700	-0.114262
O4	O	-0.889900	0.351956	-0.114272
O5	O	-0.900015	-0.013698	0.114318
O6	O	-0.784827	0.179461	0.114309
O7	O	-1.005074	0.158799	0.114317
Zn8	Zn	-0.894949	0.169130	0.150605
Zn9	Zn	-0.894966	0.169128	-0.150559
O10	O	-0.889887	0.351958	0.114308
C11	C	-0.756632	0.178720	0.000018
C12	C	-0.672600	0.176500	0.000016
C13	C	-0.633119	0.175454	0.124616
C14	C	-0.554163	0.173347	0.124617
C15	C	-0.514689	0.172295	0.000016
C16	C	-0.554176	0.173337	-0.124593
C17	C	-0.633131	0.175435	-0.124593
C18	C	-0.235760	0.164877	-0.124597
C19	C	-0.156799	0.162783	-0.124588
C20	C	-0.156792	0.162789	0.124613
C21	C	-0.235747	0.164887	0.124613
C22	C	-0.275227	0.165922	0.000004
C23	C	-0.360840	0.168203	0.000004
C24	C	-0.429077	0.170023	0.000015
C25	C	-0.899277	-0.060484	0.000027
C26	C	-0.897053	-0.199888	0.000022
C27	C	-0.964873	-0.280561	0.000028
C28	C	-0.962778	-0.411545	0.000019
C29	C	-0.825036	-0.381170	0.000002
C30	C	-0.827132	-0.250189	0.000002
C31	C	-1.034794	-0.230261	0.000048
C32	C	-1.102620	-0.310935	0.000056
C33	C	-1.100525	-0.441919	0.000047
C34	C	-1.030604	-0.492229	0.000029
C35	C	-0.033283	0.159530	0.000023
C36	C	-0.117317	0.161728	0.000014
C37	C	-0.890637	0.398742	0.000016
C38	C	-0.892862	0.538146	0.000012
N39	N	-0.894942	0.169131	0.356141
N40	N	-0.894978	0.169118	-0.356095
C41	C	-0.941268	0.245188	0.571943
C42	C	-0.941249	0.245199	0.428060
C43	C	-0.848647	0.093057	0.428114
C44	C	-0.848663	0.093054	0.571994
C45	C	-0.987584	0.321252	0.643854
C46	C	-1.033878	0.397327	0.571891
C47	C	-1.033859	0.397338	0.428008
C48	C	-0.987544	0.321272	0.356088
H49	H	-0.124638	0.161940	0.226075
H50	H	-1.028903	-0.598886	0.000007
H51	H	-1.036508	-0.123609	0.000061
H52	H	-1.071548	0.459292	0.369421
C53	C	-0.625174	0.175232	0.370948
C54	C	-0.676505	0.176604	0.261583
H55	H	-0.651960	0.175930	0.455506
H56	H	-0.588991	0.247614	0.365767
H57	H	-0.599767	0.101207	0.365749
H58	H	-0.701908	0.250634	0.266776
H59	H	-0.712701	0.104214	0.266767
H60	H	-1.155752	-0.507602	0.000039
H61	H	-0.124661	0.161925	-0.226059
H62	H	-0.771906	-0.184502	-0.000002
C63	C	-0.760666	-0.568473	0.000010
C64	C	-0.748183	-0.436469	-0.000000
H65	H	-0.713218	-0.602607	0.000021
H66	H	-0.788618	-0.596170	-0.079695
H67	H	-0.788618	-0.596163	0.079727
H68	H	-0.720236	-0.408778	-0.079723
H69	H	-0.720218	-0.408761	0.079713
C70	C	-0.227825	0.164662	-0.370925
C71	C	-0.279149	0.166021	-0.261566
H72	H	-0.254615	0.165374	-0.455486
H73	H	-0.202418	0.090648	-0.365733
H74	H	-0.191639	0.237055	-0.365733
H75	H	-0.315331	0.093621	-0.266752
H76	H	-0.304568	0.240041	-0.266761
H77	H	-0.810940	0.031127	0.369544
C78	C	-0.964604	0.443345	0.149998
C79	C	-0.987515	0.321291	0.197928
H80	H	-0.964592	0.443353	0.052359
H81	H	-0.914878	0.469928	0.182581
H82	H	-0.998815	0.499524	0.182533
H83	H	-0.953301	0.265113	0.165401
H84	H	-1.037249	0.294692	0.165331
H85	H	-0.665275	0.176289	-0.226056
C86	C	-0.433147	0.170132	-0.235250
C87	C	-0.510788	0.172184	-0.261559
H88	H	-0.406363	0.169431	-0.319810
H89	H	-0.425598	0.096590	-0.184062
H90	H	-0.414824	0.242997	-0.184053
H91	H	-0.529112	0.099314	-0.312747
H92	H	-0.518341	0.245733	-0.312769
C93	C	-0.937205	0.238388	0.849990
C94	C	-0.987613	0.321228	0.802011
H95	H	-0.937230	0.238363	0.947628
H96	H	-0.887470	0.265009	0.817490
H97	H	-0.952738	0.155604	0.817405
H98	H	-0.972077	0.404013	0.834587
H99	H	-1.037359	0.294613	0.834524
C100	C	-1.075031	0.464861	0.792427
C101	C	-1.084785	0.480936	0.650941
H102	H	-1.106464	0.516474	0.841224
H103	H	-1.023381	0.488306	0.816032
H104	H	-1.088648	0.378900	0.815982
H105	H	-1.071163	0.566895	0.627385
H106	H	-1.136447	0.457498	0.627327
C107	C	-1.166994	-0.123636	0.000086
C108	C	-1.179474	-0.255639	0.000073
H109	H	-1.214443	-0.089504	0.000104
H110	H	-1.139052	-0.095932	-0.079621
H111	H	-1.139033	-0.095949	0.079801
H112	H	-1.207431	-0.283327	-0.079648
H113	H	-1.207428	-0.283354	0.079788
H114	H	-0.810967	0.031114	0.630587
C115	C	-0.457403	0.278876	0.269178
C116	C	-0.510758	0.172185	0.261573
H117	H	-0.430603	0.278145	0.353728
H118	H	-0.482809	0.352891	0.264016
H119	H	-0.422604	0.277935	0.194956
H120	H	-0.545560	0.173131	0.335789
H121	H	-0.485350	0.098152	0.266748
H122	H	-0.267882	0.165749	0.226076
