data_functionalizedCrystal
_audit_creation_method	'MofGen! by Chris Wilmer'
_symmetry_space_group_name_H-M	'P1'
_symmetry_Int_Tables_number	1
_symmetry_cell_setting	triclinic
loop_
_symmetry_equiv_pos_as_xyz
  x,y,z
_cell_length_a	19.121102
_cell_length_b	14.908520
_cell_length_c	14.908694
_cell_angle_alpha	83.255478
_cell_angle_beta	84.392664
_cell_angle_gamma	88.983788
loop_
_atom_site_label
_atom_site_type_symbol
_atom_site_fract_x
_atom_site_fract_y
_atom_site_fract_z
Zn1	Zn	1.080135	0.452773	-0.595322
Zn2	Zn	1.067239	0.594668	-0.451942
Zn3	Zn	0.956279	0.436864	-0.436783
Zn4	Zn	0.956249	0.596877	-0.596805
O5	O	1.014976	0.520296	-0.520213
O6	O	1.176709	0.477330	-0.582026
O7	O	1.047136	0.566153	-0.322956
O8	O	0.978118	0.312625	-0.450849
O9	O	1.167234	0.581580	-0.476685
O10	O	1.069115	0.324313	-0.567327
O11	O	0.965614	0.450214	-0.311819
O12	O	0.857991	0.452356	-0.452287
O13	O	0.978067	0.585344	-0.723583
O14	O	0.857969	0.569917	-0.569854
O15	O	1.069086	0.479472	-0.722494
O16	O	1.047107	0.721311	-0.478122
O17	O	0.965563	0.722934	-0.584553
C18	C	0.832496	0.509651	-0.509587
C19	C	0.754431	0.505119	-0.505064
C20	C	1.004952	0.754886	-0.533164
C21	C	1.000729	0.855250	-0.538739
C22	C	1.025012	0.534429	-0.756882
C23	C	1.029289	0.540452	-0.857736
C24	C	0.717755	0.564280	-0.564063
C25	C	0.644404	0.560011	-0.559817
C26	C	0.607731	0.496585	-0.496566
C27	C	0.644412	0.437418	-0.437564
C28	C	0.717762	0.441684	-0.441815
C29	C	0.386264	0.480636	-0.480676
C30	C	0.312909	0.476377	-0.476427
C31	C	0.312907	0.598969	-0.598682
C32	C	0.386257	0.603233	-0.602924
C33	C	0.422932	0.544063	-0.543925
C34	C	0.532755	0.492222	-0.492222
C35	C	0.497907	0.548422	-0.548274
C36	C	1.198168	0.530983	-0.530881
C37	C	1.276233	0.535538	-0.535427
C38	C	1.025059	0.284792	-0.507232
C39	C	1.029355	0.184434	-0.501700
C40	C	1.077802	1.042105	-0.438488
C41	C	1.073837	1.136406	-0.443723
C42	C	0.988837	1.138155	-0.554449
C43	C	0.992803	1.043854	-0.549213
C44	C	1.037286	0.995832	-0.491230
C45	C	1.041247	0.901529	-0.485991
C46	C	0.956252	0.903280	-0.596721
C47	C	0.952286	0.997581	-0.601956
C48	C	0.952420	0.431044	-1.035656
C49	C	0.956436	0.436699	-1.130417
C50	C	1.041333	0.557422	-1.142022
C51	C	1.037317	0.551767	-1.047261
C52	C	0.992860	0.488574	-0.994081
C53	C	0.988848	0.482915	-0.899318
C54	C	1.073740	0.603642	-0.910924
C55	C	1.077756	0.609297	-1.005685
C56	C	1.005022	0.506155	-0.284463
C57	C	1.000892	0.499886	-0.183603
H58	H	0.747608	0.615931	-0.615566
H59	H	0.916071	1.036694	-0.649167
C60	C	0.758107	0.376606	-0.376913
C61	C	0.803835	0.414288	-0.310687
C62	C	0.844178	0.349204	-0.245785
C63	C	0.838794	0.246438	-0.247110
C64	C	0.793064	0.208751	-0.313339
C65	C	0.752721	0.273835	-0.378240
H66	H	0.807822	0.490366	-0.309704
H67	H	0.878031	0.377104	-0.196759
H68	H	0.868659	0.198259	-0.199066
H69	H	0.789077	0.132672	-0.314322
H70	H	0.718868	0.245935	-0.427267
H71	H	0.923506	0.389852	-1.164264
C72	C	0.272561	0.406593	-0.406865
C73	C	0.287343	0.305000	-0.409383
C74	C	0.246991	0.235219	-0.339831
C75	C	0.191858	0.267030	-0.267760
C76	C	0.177074	0.368627	-0.265238
C77	C	0.217425	0.438409	-0.334791
H78	H	0.328158	0.281448	-0.462737
H79	H	0.257936	0.160010	-0.341698
H80	H	0.161987	0.215373	-0.216273
H81	H	0.136259	0.392180	-0.211885
H82	H	0.206481	0.513618	-0.332924
H83	H	1.106672	0.650485	-0.877064
C84	C	0.426591	0.673005	-0.672504
C85	C	0.472309	0.744411	-0.639899
C86	C	0.512642	0.814189	-0.709476
C87	C	0.507257	0.812560	-0.811658
C88	C	0.461537	0.741150	-0.844268
C89	C	0.421204	0.671373	-0.774691
H90	H	0.476298	0.745620	-0.564253
H91	H	0.546487	0.867051	-0.685335
H92	H	0.537113	0.864213	-0.863163
H93	H	0.457549	0.739942	-0.919914
H94	H	0.387359	0.618511	-0.798832
C95	C	0.939920	1.190996	-0.618235
C96	C	0.880413	1.250357	-0.579261
C97	C	0.831499	1.303202	-0.643051
C98	C	0.842093	1.296686	-0.745816
C99	C	0.901603	1.237323	-0.784796
C100	C	0.950517	1.184478	-0.721006
H101	H	0.872568	1.255183	-0.503183
H102	H	0.787445	1.347146	-0.614195
H103	H	0.805884	1.335805	-0.793038
H104	H	0.909448	1.232497	-0.860874
H105	H	0.994570	1.140533	-0.749862
C106	C	0.272564	0.664046	-0.663586
C107	C	0.191883	0.659358	-0.658919
C108	C	0.151541	0.724434	-0.723829
C109	C	0.191880	0.794198	-0.793406
C110	C	0.272565	0.798889	-0.798075
C111	C	0.312907	0.733813	-0.733165
H112	H	0.162017	0.607711	-0.607412
H113	H	0.091812	0.720961	-0.720372
H114	H	0.162016	0.842372	-0.841456
H115	H	0.302431	0.850535	-0.849582
H116	H	0.372636	0.737286	-0.736622
C117	C	0.492417	0.422449	-0.422647
C118	C	0.497797	0.424074	-0.320463
C119	C	0.457460	0.354296	-0.250891
C120	C	0.411743	0.282893	-0.283504
C121	C	0.406361	0.281265	-0.385693
C122	C	0.446698	0.351044	-0.455264
H123	H	0.531642	0.476933	-0.296316
H124	H	0.461444	0.355501	-0.175244
H125	H	0.381883	0.231238	-0.232003
H126	H	0.372517	0.228406	-0.409840
H127	H	0.442714	0.349839	-0.530912
H128	H	1.113950	0.660750	-1.048997
H129	H	0.952651	0.431457	-0.856020
C130	C	0.911679	0.852382	-0.654744
C131	C	0.857614	0.782072	-0.608559
C132	C	0.813040	0.731175	-0.666578
C133	C	0.822529	0.750589	-0.770783
C134	C	0.876596	0.820903	-0.816974
C135	C	0.921171	0.871800	-0.758955
H136	H	0.850587	0.767697	-0.531415
H137	H	0.773016	0.679124	-0.632384
H138	H	0.789533	0.712912	-0.813732
H139	H	0.883623	0.835278	-0.894117
H140	H	0.961195	0.923851	-0.793149
H141	H	1.114017	1.003004	-0.391268
C142	C	0.538245	0.618190	-0.617848
C143	C	0.583970	0.689585	-0.585234
C144	C	0.624315	0.759356	-0.654805
C145	C	0.618936	0.757732	-0.756990
C146	C	0.573210	0.686334	-0.789608
C147	C	0.532865	0.616563	-0.720037
H148	H	0.587953	0.690790	-0.509587
H149	H	0.658165	0.812209	-0.630658
H150	H	0.648803	0.809380	-0.808490
H151	H	0.569227	0.685129	-0.865255
H152	H	0.499015	0.563710	-0.744184
H153	H	0.416116	0.432462	-0.432628
C154	C	0.604071	0.367648	-0.367989
C155	C	0.558345	0.296250	-0.400594
C156	C	0.518004	0.226481	-0.331017
C157	C	0.523389	0.228109	-0.228835
C158	C	0.569117	0.299510	-0.196225
C159	C	0.609458	0.369279	-0.265802
H160	H	0.554357	0.295042	-0.476240
H161	H	0.484153	0.173625	-0.355158
H162	H	0.493526	0.176462	-0.177330
H163	H	0.573106	0.300718	-0.120579
H164	H	0.643309	0.422135	-0.241661
H165	H	0.916228	0.379582	-0.992356
C166	C	1.090216	0.626934	-1.200548
C167	C	1.059481	0.699914	-1.267825
C168	C	1.108358	0.769428	-1.326361
C169	C	1.187971	0.765961	-1.317621
C170	C	1.218711	0.692978	-1.250341
C171	C	1.169833	0.623465	-1.191805
H172	H	1.000543	0.702483	-1.274297
H173	H	1.085602	0.823455	-1.376166
H174	H	1.224153	0.817419	-1.360953
H175	H	1.277648	0.690409	-1.243869
H176	H	1.192589	0.569438	-1.142001
H177	H	1.077466	0.862430	-0.438775
H178	H	1.106831	1.174078	-0.400776
H179	H	0.614546	0.608187	-0.607860
