data_functionalizedCrystal
_audit_creation_method	'MofGen! by Chris Wilmer'
_symmetry_space_group_name_H-M	'P1'
_symmetry_Int_Tables_number	1
_symmetry_cell_setting	triclinic
loop_
_symmetry_equiv_pos_as_xyz
  x,y,z
_cell_length_a	10.489741
_cell_length_b	10.489741
_cell_length_c	9.565339
_cell_angle_alpha	89.999484
_cell_angle_beta	89.999100
_cell_angle_gamma	95.460826
loop_
_atom_site_label
_atom_site_type_symbol
_atom_site_fract_x
_atom_site_fract_y
_atom_site_fract_z
O1	O	1.694053	-0.179959	-0.116173
O2	O	1.322857	-0.196852	-0.116194
O3	O	1.516901	-0.002807	-0.116175
O4	O	1.500009	-0.374003	-0.116192
O5	O	1.516886	-0.002819	0.116345
O6	O	1.322842	-0.196864	0.116326
O7	O	1.694038	-0.179971	0.116347
Zn8	Zn	1.508437	-0.188419	0.153254
Zn9	Zn	1.508458	-0.188403	-0.153101
O10	O	1.499993	-0.374015	0.116328
C11	C	1.275318	-0.195582	0.000063
C12	C	1.133688	-0.191765	0.000055
C13	C	1.515618	0.044718	0.000084
C14	C	1.511801	0.186348	0.000082
C15	C	1.065548	-0.068300	0.000074
C16	C	0.973429	-0.126617	-0.114571
C17	C	0.973448	-0.126659	0.114676
C18	C	1.043435	-0.250133	-0.114684
C19	C	1.043463	-0.250157	0.114665
C20	C	0.951371	-0.308564	-0.000007
C21	C	1.741577	-0.181241	0.000087
C22	C	1.883206	-0.185058	0.000086
C23	C	1.501277	-0.421541	0.000066
C24	C	1.505094	-0.563170	0.000059
N25	N	1.508433	-0.188429	0.362334
C26	C	1.388336	0.254488	0.000064
C27	C	1.446652	0.346604	0.114712
C28	C	1.446696	0.346591	-0.114534
C29	C	1.570168	0.276599	0.114824
C30	C	1.570195	0.276576	-0.114525
C31	C	1.628600	0.368665	0.000150
N32	N	1.508472	-0.188383	-0.362180
C33	C	1.418666	-0.278138	0.453528
C34	C	1.534163	-0.303949	0.546712
C35	C	1.392986	-0.162629	0.546704
C36	C	1.623988	-0.214298	0.453466
C37	C	1.482735	-0.072928	0.453451
C38	C	1.598314	-0.098690	0.546593
H39	H	1.115238	0.033196	-0.000065
O40	O	1.632632	0.239909	0.230489
C41	C	1.829454	0.257960	0.361997
C42	C	1.758882	0.299596	0.230937
H43	H	1.931531	0.306220	0.362418
H44	H	1.831926	0.149545	0.361109
H45	H	1.777107	0.287361	0.459554
H46	H	1.811173	0.270283	0.133311
H47	H	1.756398	0.408008	0.231949
H48	H	0.901947	-0.410168	-0.000074
H49	H	0.942421	-0.074372	-0.211491
O50	O	1.749881	0.427457	0.000043
C51	C	1.952632	0.456946	-0.119743
C52	C	1.815322	0.390279	-0.119787
H53	H	2.005572	0.426934	-0.216630
H54	H	2.005083	0.428147	-0.022004
H55	H	1.948860	0.565199	-0.120604
H56	H	1.818976	0.282015	-0.118976
H57	H	1.762925	0.419183	-0.217519
H58	H	1.721659	-0.236217	0.412683
O59	O	1.276555	-0.136676	0.595797
C60	C	1.146544	-0.106308	0.798584
C61	C	1.278455	-0.135727	0.743185
H62	H	1.148045	-0.105505	0.917753
H63	H	1.070072	-0.182922	0.760453
H64	H	1.123883	-0.008619	0.758542
H65	H	1.301238	-0.233380	0.783203
H66	H	1.354853	-0.059035	0.781304
O67	O	1.080345	-0.312518	-0.230306
C68	C	1.183777	-0.490801	-0.320588
C69	C	1.142071	-0.420265	-0.189533
H70	H	1.233667	-0.577942	-0.287670
H71	H	1.252551	-0.423557	-0.384912
H72	H	1.095894	-0.523167	-0.386217
H73	H	1.229876	-0.387891	-0.123796
H74	H	1.073253	-0.487554	-0.125314
O75	O	1.080473	-0.312247	0.230434
C76	C	1.087107	-0.317415	0.482167
C77	C	1.045144	-0.246972	0.351163
H78	H	1.058537	-0.264685	0.579809
H79	H	1.195442	-0.320498	0.480583
H80	H	1.038325	-0.419281	0.483085
H81	H	1.093835	-0.145075	0.350159
H82	H	0.936798	-0.243993	0.352797
H83	H	0.942463	-0.074401	0.211599
O84	O	1.267215	0.195302	0.000434
C85	C	1.065315	0.163717	0.121677
C86	C	1.202453	0.230802	0.121441
H87	H	1.012906	0.192414	0.219486
H88	H	1.069281	0.055488	0.120770
H89	H	1.012201	0.193654	0.024879
H90	H	1.255645	0.200969	0.218223
H91	H	1.198395	0.339019	0.122276
H92	H	1.394405	0.377611	0.211633
H93	H	1.622398	0.245536	-0.211451
O94	O	1.384381	0.383343	-0.230274
C95	C	1.272504	0.316375	-0.441770
C96	C	1.343083	0.274589	-0.310780
H97	H	1.239071	0.228469	-0.506880
H98	H	1.340056	0.384345	-0.506673
H99	H	1.186049	0.367254	-0.408671
H100	H	1.429535	0.223657	-0.343754
H101	H	1.275445	0.206680	-0.245908
H102	H	1.342823	-0.354073	0.412665
O103	O	1.456888	0.043642	0.404694
C104	C	1.521008	0.270347	0.398664
C105	C	1.550429	0.138419	0.454008
H106	H	1.596633	0.347006	0.438487
H107	H	1.422516	0.292291	0.436939
H108	H	1.522137	0.269394	0.279493
H109	H	1.549370	0.139274	0.573175
H110	H	1.648902	0.116527	0.415625
H111	H	1.555926	-0.401606	0.587676
H112	H	1.674328	-0.022802	0.587199
