data_functionalizedCrystal
_audit_creation_method	'MofGen! by Chris Wilmer'
_symmetry_space_group_name_H-M	'P1'
_symmetry_Int_Tables_number	1
_symmetry_cell_setting	triclinic
loop_
_symmetry_equiv_pos_as_xyz
  x,y,z
_cell_length_a	17.640280
_cell_length_b	11.169417
_cell_length_c	11.169409
_cell_angle_alpha	89.979747
_cell_angle_beta	78.765552
_cell_angle_gamma	78.802247
loop_
_atom_site_label
_atom_site_type_symbol
_atom_site_fract_x
_atom_site_fract_y
_atom_site_fract_z
Zn1	Zn	-0.314582	1.931516	-0.582041
Zn2	Zn	-0.446784	1.971976	-0.340808
Zn3	Zn	-0.314630	1.730814	-0.381362
Zn4	Zn	-0.446721	1.771363	-0.541473
O5	O	-0.380679	1.851417	-0.461421
O6	O	-0.332125	2.104835	-0.550047
O7	O	-0.429301	1.939948	-0.178223
O8	O	-0.204017	1.723536	-0.441932
O9	O	-0.429253	2.134560	-0.372814
O10	O	-0.203981	1.870990	-0.589371
O11	O	-0.332208	1.762768	-0.208018
O12	O	-0.332146	1.568242	-0.402595
O13	O	-0.429145	1.792645	-0.714819
O14	O	-0.429193	1.598032	-0.520228
O15	O	-0.332063	1.910309	-0.744624
O16	O	-0.557383	1.979266	-0.333477
O17	O	-0.557336	1.831877	-0.480905
C18	C	-0.380669	1.539589	-0.461411
C19	C	-0.380683	1.406194	-0.461429
C20	C	-0.586039	1.914394	-0.398414
C21	C	-0.673893	1.941446	-0.371500
C22	C	-0.962849	1.646401	-0.666324
C23	C	-1.045401	1.671822	-0.640996
C24	C	-1.045384	1.825394	-0.487634
C25	C	-0.962830	1.799989	-0.512954
C26	C	-0.921569	1.710490	-0.602299
C27	C	-0.921551	1.864079	-0.448929
C28	C	-0.839004	1.838672	-0.474243
C29	C	-0.797737	1.749175	-0.563581
C30	C	-0.839023	1.685083	-0.627613
C31	C	-0.962813	1.953572	-0.359578
C32	C	-0.921534	2.017662	-0.295553
C33	C	-0.838986	1.992261	-0.320872
C34	C	-0.797719	1.902764	-0.410211
C35	C	-0.797700	2.056352	-0.256841
C36	C	-0.715154	2.030945	-0.282154
C37	C	-0.715172	1.877356	-0.435525
C38	C	-0.174518	1.788227	-0.524700
C39	C	-0.086664	1.761299	-0.551666
C40	C	-0.380592	1.851487	-0.774491
C41	C	-0.380554	1.851516	-0.907902
C42	C	-0.380690	2.164463	-0.461432
C43	C	-0.380695	2.297864	-0.461437
C44	C	-0.380709	1.851400	-0.149587
C45	C	-0.380524	1.851534	-0.016245
H46	H	-0.681576	1.804486	-0.508288
H47	H	-0.831307	2.129214	-0.184088
H48	H	-1.030028	1.974258	-0.338974
H49	H	-1.078990	1.898260	-0.414886
O50	O	-0.675172	2.093347	-0.219886
C51	C	-0.729290	2.177767	-0.135578
H52	H	-0.788110	2.200013	-0.166703
H53	H	-0.705390	2.264974	-0.130181
H54	H	-0.738131	2.136580	-0.041680
H55	H	-0.805427	1.612213	-0.700376
O56	O	-0.717552	1.724484	-0.587956
C57	C	-0.690032	1.685221	-0.481353
H58	H	-0.737615	1.720412	-0.397644
H59	H	-0.634785	1.722359	-0.477014
H60	H	-0.675441	1.581147	-0.483197
O61	O	-0.922883	1.559401	-0.753133
C62	C	-0.977016	1.508311	-0.804256
H63	H	-1.035880	1.522274	-0.737043
H64	H	-0.953202	1.406421	-0.824303
H65	H	-0.985739	1.554920	-0.892760
O66	O	-0.961536	2.104733	-0.208853
C67	C	-0.941317	2.218119	-0.241407
H68	H	-0.881362	2.202141	-0.305927
H69	H	-0.938507	2.271117	-0.155698
H70	H	-0.987731	2.272787	-0.288917
O71	O	-1.085589	1.609757	-0.703229
C72	C	-1.133256	1.692719	-0.766208
H73	H	-1.145590	1.787493	-0.720180
H74	H	-1.191323	1.661698	-0.764439
H75	H	-1.101402	1.696050	-0.864932
