data_functionalizedCrystal
_audit_creation_method	'MofGen! by Chris Wilmer'
_symmetry_space_group_name_H-M	'P1'
_symmetry_Int_Tables_number	1
_symmetry_cell_setting	triclinic
loop_
_symmetry_equiv_pos_as_xyz
  x,y,z
_cell_length_a	21.395364
_cell_length_b	21.395361
_cell_length_c	21.395355
_cell_angle_alpha	90.021511
_cell_angle_beta	89.975484
_cell_angle_gamma	89.973528
loop_
_atom_site_label
_atom_site_type_symbol
_atom_site_fract_x
_atom_site_fract_y
_atom_site_fract_z
Zn1	Zn	0.957859	0.249582	-0.354248
Zn2	Zn	1.207859	0.499582	-0.104248
Zn3	Zn	1.457859	0.749582	0.145752
Zn4	Zn	1.707859	0.999582	0.395752
Zn5	Zn	0.957761	0.354342	-0.249465
Zn6	Zn	1.207761	0.604342	0.000535
Zn7	Zn	1.457761	0.854342	0.250535
Zn8	Zn	1.707761	1.104342	0.500535
Zn9	Zn	0.853074	0.249574	-0.249485
Zn10	Zn	1.103074	0.499574	0.000515
Zn11	Zn	1.353074	0.749574	0.250515
Zn12	Zn	1.603074	0.999574	0.500515
Zn13	Zn	0.853043	0.354318	-0.354205
Zn14	Zn	1.103043	0.604318	-0.104205
Zn15	Zn	1.353043	0.854318	0.145795
Zn16	Zn	1.603043	1.104318	0.395795
O17	O	0.905434	0.301954	-0.301851
O18	O	1.155434	0.551954	-0.051851
O19	O	1.405434	0.801954	0.198149
O20	O	1.655434	1.051954	0.448149
O21	O	1.045524	0.263492	-0.340358
O22	O	1.295524	0.513492	-0.090358
O23	O	1.545524	0.763492	0.159642
O24	O	1.795524	1.013492	0.409642
O25	O	0.943847	0.340451	-0.161789
O26	O	1.193847	0.590451	0.088211
O27	O	1.443847	0.840451	0.338211
O28	O	1.693847	1.090451	0.588211
O29	O	0.867028	0.161897	-0.263408
O30	O	1.117028	0.411897	-0.013408
O31	O	1.367028	0.661897	0.236592
O32	O	1.617028	0.911897	0.486592
O33	O	1.045452	0.340458	-0.263374
O34	O	1.295452	0.590458	-0.013374
O35	O	1.545452	0.840458	0.236626
O36	O	1.795452	1.090458	0.486626
O37	O	0.944013	0.161903	-0.340377
O38	O	1.194013	0.411903	-0.090377
O39	O	1.444013	0.661903	0.159623
O40	O	1.694013	0.911903	0.409623
O41	O	0.866933	0.263479	-0.161804
O42	O	1.116933	0.513479	0.088196
O43	O	1.366933	0.763479	0.338196
O44	O	1.616933	1.013479	0.588196
O45	O	0.765392	0.263456	-0.263366
O46	O	1.015392	0.513456	-0.013366
O47	O	1.265392	0.763456	0.236634
O48	O	1.515392	1.013456	0.486634
O49	O	0.866975	0.340418	-0.441889
O50	O	1.116975	0.590418	-0.191889
O51	O	1.366975	0.840418	0.058111
O52	O	1.616975	1.090418	0.308111
O53	O	0.765369	0.340410	-0.340304
O54	O	1.015369	0.590410	-0.090304
O55	O	1.265369	0.840410	0.159696
O56	O	1.515369	1.090410	0.409696
O57	O	0.943983	0.263469	-0.441920
O58	O	1.193983	0.513469	-0.191920
O59	O	1.443983	0.763469	0.058080
O60	O	1.693983	1.013469	0.308080
O61	O	0.943817	0.442016	-0.263333
O62	O	1.193817	0.692016	-0.013333
O63	O	1.443817	0.942016	0.236667
O64	O	1.693817	1.192016	0.486667
O65	O	0.866881	0.441999	-0.340285
O66	O	1.116881	0.691999	-0.090285
O67	O	1.366881	0.941999	0.159715
O68	O	1.616881	1.191999	0.409715
C69	C	0.905352	0.464742	-0.301816
C70	C	1.155352	0.714742	-0.051816
C71	C	1.405352	0.964742	0.198184
C72	C	1.655352	1.214742	0.448184
C73	C	0.905374	0.534383	-0.301822
C74	C	1.155374	0.784383	-0.051822
C75	C	1.405374	1.034383	0.198178
C76	C	1.655374	1.284383	0.448178
C77	C	0.742647	0.301930	-0.301833
C78	C	0.992647	0.551930	-0.051833
C79	C	1.242647	0.801930	0.198167
C80	C	1.492647	1.051930	0.448167
C81	C	0.673006	0.301935	-0.301840
C82	C	0.923006	0.551935	-0.051840
C83	C	1.173006	0.801935	0.198160
C84	C	1.423006	1.051935	0.448160
C85	C	0.905486	0.301941	-0.465274
C86	C	1.155486	0.551941	-0.215274
C87	C	1.405486	0.801941	0.034726
C88	C	1.655486	1.051941	0.284726
C89	C	0.905509	0.301936	-0.534915
C90	C	1.155509	0.551936	-0.284915
C91	C	1.405509	0.801936	-0.034915
C92	C	1.655509	1.051936	0.215085
C93	C	0.171246	0.261972	-0.342010
C94	C	0.421246	0.511972	-0.092010
C95	C	0.671246	0.761972	0.157990
C96	C	0.921246	1.011972	0.407990
C97	C	0.236681	0.261967	-0.342010
C98	C	0.486681	0.511967	-0.092010
C99	C	0.736681	0.761967	0.157990
C100	C	0.986681	1.011967	0.407990
C101	C	0.269367	0.301973	-0.301865
C102	C	0.519367	0.551973	-0.051865
C103	C	0.769367	0.801973	0.198135
C104	C	1.019367	1.051973	0.448135
C105	C	0.236612	0.341998	-0.261728
C106	C	0.486612	0.591998	-0.011728
C107	C	0.736612	0.841998	0.238272
C108	C	0.986612	1.091998	0.488272
C109	C	0.171178	0.342006	-0.261734
C110	C	0.421178	0.592006	-0.011734
C111	C	0.671178	0.842006	0.238266
C112	C	0.921178	1.092006	0.488266
C113	C	0.373004	0.306825	-0.245397
C114	C	0.623004	0.556825	0.004603
C115	C	0.873004	0.806825	0.254603
C116	C	1.123004	1.056825	0.504603
C117	C	0.438437	0.306813	-0.245390
C118	C	0.688437	0.556813	0.004610
C119	C	0.938437	0.806813	0.254610
C120	C	1.188437	1.056813	0.504610
C121	C	0.471188	0.301952	-0.301847
C122	C	0.721188	0.551952	-0.051847
C123	C	0.971188	0.801952	0.198153
C124	C	1.221188	1.051952	0.448153
C125	C	0.438498	0.297091	-0.358313
C126	C	0.688498	0.547091	-0.108313
C127	C	0.938498	0.797091	0.141687
C128	C	1.188498	1.047091	0.391687
C129	C	0.373064	0.297099	-0.358318
C130	C	0.623064	0.547099	-0.108318
C131	C	0.873064	0.797099	0.141682
C132	C	1.123064	1.047099	0.391682
C133	C	0.340320	0.301969	-0.301854
C134	C	0.590320	0.551969	-0.051854
C135	C	0.840320	0.801969	0.198146
C136	C	1.090320	1.051969	0.448146
C137	C	0.574888	0.261928	-0.341984
C138	C	0.824888	0.511928	-0.091984
C139	C	1.074888	0.761928	0.158016
C140	C	1.324888	1.011928	0.408016
C141	C	0.640324	0.261928	-0.341985
C142	C	0.890324	0.511928	-0.091985
C143	C	1.140324	0.761928	0.158015
C144	C	1.390324	1.011928	0.408015
C145	C	0.640254	0.341955	-0.261698
C146	C	0.890254	0.591955	-0.011698
C147	C	1.140254	0.841955	0.238302
C148	C	1.390254	1.091955	0.488302
C149	C	0.574818	0.341959	-0.261702
C150	C	0.824818	0.591959	-0.011702
C151	C	1.074818	0.841959	0.238298
C152	C	1.324818	1.091959	0.488298
C153	C	0.542139	0.301942	-0.301845
C154	C	0.792139	0.551942	-0.051845
C155	C	1.042139	0.801942	0.198155
C156	C	1.292139	1.051942	0.448155
C157	C	1.068858	0.301979	-0.301868
C158	C	1.318858	0.551979	-0.051868
C159	C	1.568858	0.801979	0.198132
C160	C	1.818858	1.051979	0.448132
C161	C	1.138499	0.301989	-0.301876
C162	C	1.388499	0.551989	-0.051876
C163	C	1.638499	0.801989	0.198124
C164	C	1.888499	1.051989	0.448124
C165	C	0.905535	0.138531	-0.301899
C166	C	1.155535	0.388531	-0.051899
C167	C	1.405535	0.638531	0.198101
C168	C	1.655535	0.888531	0.448101
C169	C	0.905577	0.068889	-0.301920
C170	C	1.155577	0.318889	-0.051920
C171	C	1.405577	0.568889	0.198080
C172	C	1.655577	0.818889	0.448080
C173	C	0.945470	0.567084	-0.261794
C174	C	1.195470	0.817084	-0.011794
C175	C	1.445470	1.067084	0.238206
C176	C	1.695470	1.317084	0.488206
C177	C	0.945499	0.632520	-0.261808
C178	C	1.195499	0.882520	-0.011808
C179	C	1.445499	1.132520	0.238192
C180	C	1.695499	1.382520	0.488192
C181	C	0.905421	0.665251	-0.301843
C182	C	1.155421	0.915251	-0.051843
C183	C	1.405421	1.165251	0.198157
C184	C	1.655421	1.415251	0.448157
C185	C	0.865322	0.632542	-0.341879
C186	C	1.115322	0.882542	-0.091879
C187	C	1.365322	1.132542	0.158121
C188	C	1.615322	1.382542	0.408121
C189	C	0.865298	0.567108	-0.341868
C190	C	1.115298	0.817108	-0.091868
C191	C	1.365298	1.067108	0.158132
C192	C	1.615298	1.317108	0.408132
C193	C	0.849006	0.768962	-0.306753
C194	C	1.099006	1.018962	-0.056753
C195	C	1.349006	1.268962	0.193247
C196	C	1.599006	1.518962	0.443247
C197	C	0.849029	0.834395	-0.306759
C198	C	1.099029	1.084395	-0.056759
C199	C	1.349029	1.334395	0.193241
C200	C	1.599029	1.584395	0.443241
C201	C	0.905494	0.867072	-0.301880
C202	C	1.155494	1.117072	-0.051880
C203	C	1.405494	1.367072	0.198120
C204	C	1.655494	1.617072	0.448120
C205	C	0.961938	0.834308	-0.296981
C206	C	1.211938	1.084308	-0.046981
C207	C	1.461938	1.334308	0.203019
C208	C	1.711938	1.584308	0.453019
C209	C	0.961915	0.768873	-0.296970
C210	C	1.211915	1.018873	-0.046970
C211	C	1.461915	1.268873	0.203030
C212	C	1.711915	1.518873	0.453030
C213	C	0.905442	0.736203	-0.301860
C214	C	1.155442	0.986203	-0.051860
C215	C	1.405442	1.236203	0.198140
C216	C	1.655442	1.486203	0.448140
C217	C	0.945625	0.970726	-0.261865
C218	C	1.195625	1.220726	-0.011865
C219	C	1.445625	1.470726	0.238135
C220	C	1.695625	1.720726	0.488135
C221	C	0.945655	1.036162	-0.261883
C222	C	1.195655	1.286162	-0.011883
C223	C	1.445655	1.536162	0.238117
C224	C	1.695655	1.786162	0.488117
C225	C	0.865472	1.036183	-0.341951
C226	C	1.115472	1.286183	-0.091951
C227	C	1.365472	1.536183	0.158049
C228	C	1.615472	1.786183	0.408049
C229	C	0.865448	0.970748	-0.341936
C230	C	1.115448	1.220748	-0.091936
C231	C	1.365448	1.470748	0.158064
C232	C	1.615448	1.720748	0.408064
C233	C	0.905523	0.938023	-0.301890
C234	C	1.155523	1.188023	-0.051890
C235	C	1.405523	1.438023	0.198110
C236	C	1.655523	1.688023	0.448110
C237	C	0.945605	0.261867	-0.567646
C238	C	1.195605	0.511867	-0.317646
C239	C	1.445605	0.761867	-0.067646
C240	C	1.695605	1.011867	0.182354
C241	C	0.945604	0.261840	-0.633081
C242	C	1.195604	0.511840	-0.383081
C243	C	1.445604	0.761840	-0.133081
C244	C	1.695604	1.011840	0.116919
C245	C	0.905513	0.301893	-0.665784
C246	C	1.155513	0.551893	-0.415784
C247	C	1.405513	0.801893	-0.165784
C248	C	1.655513	1.051893	0.084216
C249	C	0.865409	0.341965	-0.633045
C250	C	1.115409	0.591965	-0.383045
C251	C	1.365409	0.841965	-0.133045
C252	C	1.615409	1.091965	0.116955
C253	C	0.865407	0.341986	-0.567611
C254	C	1.115407	0.591986	-0.317611
C255	C	1.365407	0.841986	-0.067611
C256	C	1.615407	1.091986	0.182389
C257	C	0.900538	0.358308	-0.769446
C258	C	1.150538	0.608308	-0.519446
C259	C	1.400538	0.858308	-0.269446
C260	C	1.650538	1.108308	-0.019446
C261	C	0.900544	0.358288	-0.834879
C262	C	1.150544	0.608288	-0.584879
C263	C	1.400544	0.858288	-0.334879
C264	C	1.650544	1.108288	-0.084879
C265	C	0.905517	0.301827	-0.867604
C266	C	1.155517	0.551827	-0.617604
C267	C	1.405517	0.801827	-0.367604
C268	C	1.655517	1.051827	-0.117604
C269	C	0.910497	0.245385	-0.834889
C270	C	1.160497	0.495385	-0.584889
C271	C	1.410497	0.745385	-0.334889
C272	C	1.660497	0.995385	-0.084889
C273	C	0.910494	0.245406	-0.769454
C274	C	1.160494	0.495406	-0.519454
C275	C	1.410494	0.745406	-0.269454
C276	C	1.660494	0.995406	-0.019454
C277	C	0.905511	0.301874	-0.736736
C278	C	1.155511	0.551874	-0.486736
C279	C	1.405511	0.801874	-0.236736
C280	C	1.655511	1.051874	0.013264
C281	C	0.945615	0.261725	-0.971287
C282	C	1.195615	0.511725	-0.721287
C283	C	1.445615	0.761725	-0.471287
C284	C	1.695615	1.011725	-0.221287
C285	C	0.945610	0.261697	-1.036724
C286	C	1.195610	0.511697	-0.786724
C287	C	1.445610	0.761697	-0.536724
C288	C	1.695610	1.011697	-0.286724
C289	C	0.865418	0.341828	-1.036687
C290	C	1.115418	0.591828	-0.786687
C291	C	1.365418	0.841828	-0.536687
C292	C	1.615418	1.091828	-0.286687
C293	C	0.865420	0.341850	-0.971252
C294	C	1.115420	0.591850	-0.721252
C295	C	1.365420	0.841850	-0.471252
C296	C	1.615420	1.091850	-0.221252
C297	C	0.905522	0.301800	-0.938556
C298	C	1.155522	0.551800	-0.688556
C299	C	1.405522	0.801800	-0.438556
C300	C	1.655522	1.051800	-0.188556
C301	C	0.905419	0.301921	-0.139063
C302	C	1.155419	0.551921	0.110937
C303	C	1.405419	0.801921	0.360937
C304	C	1.655419	1.051921	0.610937
C305	C	0.905518	0.301750	-0.069422
C306	C	1.155518	0.551750	0.180578
C307	C	1.405518	0.801750	0.430578
C308	C	1.655518	1.051750	0.680578
H309	H	0.144643	0.229390	-0.374700
H310	H	0.394643	0.479390	-0.124700
H311	H	0.644643	0.729390	0.125300
H312	H	0.894643	0.979390	0.375300
Cl313	Cl	0.681338	0.392254	-0.211234
Cl314	Cl	0.931338	0.642254	0.038766
Cl315	Cl	1.181338	0.892254	0.288766
Cl316	Cl	1.431338	1.142254	0.538766
H317	H	0.832795	0.944121	-0.374528
H318	H	1.082795	1.194121	-0.124528
H319	H	1.332795	1.444121	0.125472
H320	H	1.582795	1.694121	0.375472
H321	H	0.548279	0.229344	-0.374671
H322	H	0.798279	0.479344	-0.124671
H323	H	1.048279	0.729344	0.125329
H324	H	1.298279	0.979344	0.375329
Cl325	Cl	0.894291	0.429243	-0.876001
Cl326	Cl	1.144291	0.679243	-0.626001
Cl327	Cl	1.394291	0.929243	-0.376001
Cl328	Cl	1.644291	1.179243	-0.126001
Cl329	Cl	0.277858	0.211655	-0.392466
Cl330	Cl	0.527858	0.461655	-0.142466
Cl331	Cl	0.777858	0.711655	0.107534
Cl332	Cl	1.027858	0.961655	0.357534
H333	H	0.896320	0.404274	-0.742807
H334	H	1.146320	0.654274	-0.492807
H335	H	1.396320	0.904274	-0.242807
H336	H	1.646320	1.154274	0.007193
Cl337	Cl	0.995859	0.525948	-0.211459
Cl338	Cl	1.245859	0.775948	0.038541
Cl339	Cl	1.495859	1.025948	0.288541
Cl340	Cl	1.745859	1.275948	0.538541
Cl341	Cl	0.996024	0.211374	-0.930181
Cl342	Cl	1.246024	0.461374	-0.680181
Cl343	Cl	1.496024	0.711374	-0.430181
Cl344	Cl	1.746024	0.961374	-0.180181
Cl345	Cl	0.479664	0.290972	-0.429292
Cl346	Cl	0.729664	0.540972	-0.179292
Cl347	Cl	0.979664	0.790972	0.070708
Cl348	Cl	1.229664	1.040972	0.320708
H349	H	0.978254	0.229207	-0.659735
H350	H	1.228254	0.479207	-0.409735
H351	H	1.478254	0.729207	-0.159735
H352	H	1.728254	0.979207	0.090265
H353	H	0.914547	0.199409	-0.861532
H354	H	1.164547	0.449409	-0.611532
H355	H	1.414547	0.699409	-0.361532
H356	H	1.664547	0.949409	-0.111532
H357	H	0.666986	0.229343	-0.374672
H358	H	0.916986	0.479343	-0.124672
H359	H	1.166986	0.729343	0.125328
H360	H	1.416986	0.979343	0.375328
H361	H	1.007873	0.742198	-0.292983
H362	H	1.257873	0.992198	-0.042983
H363	H	1.507873	1.242198	0.207017
H364	H	1.757873	1.492198	0.457017
Cl365	Cl	0.331971	0.290994	-0.429300
Cl366	Cl	0.581971	0.540994	-0.179300
Cl367	Cl	0.831971	0.790994	0.070700
Cl368	Cl	1.081971	1.040994	0.320700
H369	H	0.978259	0.944080	-0.229259
H370	H	1.228259	1.194080	0.020741
H371	H	1.478259	1.444080	0.270741
H372	H	1.728259	1.694080	0.520741
Cl373	Cl	0.815012	0.392176	-1.077792
Cl374	Cl	1.065012	0.642176	-0.827792
Cl375	Cl	1.315012	0.892176	-0.577792
Cl376	Cl	1.565012	1.142176	-0.327792
Cl377	Cl	0.995908	0.673639	-0.211482
Cl378	Cl	1.245908	0.923639	0.038518
Cl379	Cl	1.495908	1.173639	0.288518
Cl380	Cl	1.745908	1.423639	0.538518
Cl381	Cl	0.814941	0.673689	-0.392212
Cl382	Cl	1.064941	0.923689	-0.142212
Cl383	Cl	1.314941	1.173689	0.107788
Cl384	Cl	1.564941	1.423689	0.357788
Cl385	Cl	0.996071	1.077274	-0.211562
Cl386	Cl	1.246071	1.327274	0.038438
Cl387	Cl	1.496071	1.577274	0.288438
Cl388	Cl	1.746071	1.827274	0.538438
Cl389	Cl	1.032928	0.875379	-0.290840
Cl390	Cl	1.282928	1.125379	-0.040840
Cl391	Cl	1.532928	1.375379	0.209160
Cl392	Cl	1.782928	1.625379	0.459160
Cl393	Cl	0.814997	0.392364	-0.526462
Cl394	Cl	1.064997	0.642364	-0.276462
Cl395	Cl	1.314997	0.892364	-0.026462
Cl396	Cl	1.564997	1.142364	0.223538
H397	H	0.832843	1.062833	-0.374552
H398	H	1.082843	1.312833	-0.124552
H399	H	1.332843	1.562833	0.125448
H400	H	1.582843	1.812833	0.375448
Cl401	Cl	0.277702	0.392293	-0.211262
Cl402	Cl	0.527702	0.642293	0.038738
Cl403	Cl	0.777702	0.892293	0.288738
Cl404	Cl	1.027702	1.142293	0.538738
H405	H	0.832766	0.374575	-0.659676
H406	H	1.082766	0.624575	-0.409676
H407	H	1.332766	0.874575	-0.159676
H408	H	1.582766	1.124575	0.090324
H409	H	0.548155	0.374542	-0.229018
H410	H	0.798155	0.624542	0.020982
H411	H	1.048155	0.874542	0.270982
H412	H	1.298155	1.124542	0.520982
H413	H	0.803068	0.861067	-0.310742
H414	H	1.053068	1.111067	-0.060742
H415	H	1.303068	1.361067	0.189258
H416	H	1.553068	1.611067	0.439258
H417	H	0.465048	0.310767	-0.199413
H418	H	0.715048	0.560767	0.050587
H419	H	0.965048	0.810767	0.300587
H420	H	1.215048	1.060767	0.550587
Cl421	Cl	0.778014	0.727890	-0.312888
Cl422	Cl	1.028014	0.977890	-0.062888
Cl423	Cl	1.278014	1.227890	0.187112
Cl424	Cl	1.528014	1.477890	0.437112
H425	H	0.346343	0.310785	-0.199420
H426	H	0.596343	0.560785	0.050580
H427	H	0.846343	0.810785	0.300580
H428	H	1.096343	1.060785	0.550580
H429	H	0.832647	0.540482	-0.374465
H430	H	1.082647	0.790482	-0.124465
H431	H	1.332647	1.040482	0.125535
H432	H	1.582647	1.290482	0.375535
Cl433	Cl	0.996014	0.211514	-0.526546
Cl434	Cl	1.246014	0.461514	-0.276546
Cl435	Cl	1.496014	0.711514	-0.026546
Cl436	Cl	1.746014	0.961514	0.223454
Cl437	Cl	0.916749	0.174453	-0.728328
Cl438	Cl	1.166749	0.424453	-0.478328
Cl439	Cl	1.416749	0.674453	-0.228328
Cl440	Cl	1.666749	0.924453	0.021672
H441	H	0.144516	0.374594	-0.229051
H442	H	0.394516	0.624594	0.020949
H443	H	0.644516	0.874594	0.270949
H444	H	0.894516	1.124594	0.520949
Cl445	Cl	0.996031	0.211330	-1.077872
Cl446	Cl	1.246031	0.461330	-0.827872
Cl447	Cl	1.496031	0.711330	-0.577872
Cl448	Cl	1.746031	0.961330	-0.327872
H449	H	0.832773	0.374483	-0.944602
H450	H	1.082773	0.624483	-0.694602
H451	H	1.332773	0.874483	-0.444602
H452	H	1.582773	1.124483	-0.194602
