data_functionalizedCrystal
_audit_creation_method	'MofGen! by Chris Wilmer'
_symmetry_space_group_name_H-M	'P1'
_symmetry_Int_Tables_number	1
_symmetry_cell_setting	triclinic
loop_
_symmetry_equiv_pos_as_xyz
  x,y,z
_cell_length_a	16.109301
_cell_length_b	10.654551
_cell_length_c	15.186229
_cell_angle_alpha	89.999082
_cell_angle_beta	89.999362
_cell_angle_gamma	83.973421
loop_
_atom_site_label
_atom_site_type_symbol
_atom_site_fract_x
_atom_site_fract_y
_atom_site_fract_z
O1	O	1.104091	0.161419	-0.073167
O2	O	1.604091	0.661419	0.426833
O3	O	0.862148	0.181507	-0.073181
O4	O	1.362148	0.681507	0.426819
O5	O	0.988682	-0.011352	-0.073174
O6	O	1.488682	0.488648	0.426826
O7	O	0.977557	0.354278	-0.073174
O8	O	1.477557	0.854278	0.426826
O9	O	0.988673	-0.011354	0.073283
O10	O	1.488673	0.488646	0.573283
O11	O	0.862140	0.181504	0.073277
O12	O	1.362140	0.681504	0.573277
O13	O	1.104082	0.161416	0.073290
O14	O	1.604082	0.661416	0.573290
Zn15	Zn	0.983110	0.171460	0.096537
Zn16	Zn	1.483110	0.671460	0.596537
Zn17	Zn	0.983121	0.171463	-0.096427
Zn18	Zn	1.483121	0.671463	0.403573
O19	O	0.977549	0.354275	0.073283
O20	O	1.477549	0.854275	0.573283
C21	C	0.831164	0.180692	0.000046
C22	C	1.331164	0.680692	0.500046
C23	C	0.738854	0.178252	0.000041
C24	C	1.238854	0.678252	0.500041
C25	C	0.517229	0.287018	0.000051
C26	C	1.017229	0.787018	0.500051
C27	C	0.430495	0.284716	0.000057
C28	C	0.930495	0.784716	0.500057
C29	C	0.449008	0.055896	0.000053
C30	C	0.949008	0.555896	0.500053
C31	C	0.535741	0.058199	0.000054
C32	C	1.035741	0.558199	0.500054
C33	C	0.569849	0.173764	0.000048
C34	C	1.069849	0.673764	0.500048
C35	C	0.396382	0.169159	0.000053
C36	C	0.896382	0.669159	0.500053
C37	C	0.302341	0.166662	0.000059
C38	C	0.802341	0.666662	0.500059
C39	C	0.663895	0.176262	0.000044
C40	C	1.163895	0.676262	0.500044
C41	C	0.987861	-0.058140	0.000052
C42	C	1.487861	0.441860	0.500052
C43	C	0.985416	-0.197550	0.000046
C44	C	1.485416	0.302450	0.500046
C45	C	0.984274	-0.263045	-0.079786
C46	C	1.484274	0.236955	0.420214
C47	C	0.981970	-0.394034	-0.079782
C48	C	1.481970	0.105966	0.420218
C49	C	0.981954	-0.394022	0.079894
C50	C	1.481954	0.105978	0.579894
C51	C	0.984252	-0.263034	0.079889
C52	C	1.484252	0.236966	0.579889
C53	C	0.985438	-0.197560	-0.159628
C54	C	1.485438	0.302440	0.340372
C55	C	0.984297	-0.263056	-0.239467
C56	C	1.484297	0.236944	0.260533
C57	C	0.981993	-0.394045	-0.239463
C58	C	1.481993	0.105955	0.260537
C59	C	0.980831	-0.459539	-0.159621
C60	C	1.480831	0.040461	0.340379
C61	C	1.135066	0.162231	0.000061
C62	C	1.635066	0.662231	0.500061
C63	C	1.227376	0.164671	0.000061
C64	C	1.727376	0.664671	0.500061
C65	C	0.978370	0.401063	0.000055
C66	C	1.478370	0.901063	0.500055
C67	C	0.980814	0.540473	0.000055
C68	C	1.480814	1.040473	0.500055
N69	N	0.983108	0.171457	0.228229
N70	N	1.483108	0.671457	0.728229
N71	N	0.983129	0.171457	-0.228120
N72	N	1.483129	0.671457	0.271880
C73	C	1.039156	0.086087	0.453955
C74	C	1.539156	0.586087	0.953955
C75	C	1.039159	0.086084	0.546145
C76	C	1.539159	0.586084	1.046145
C77	C	0.927075	0.256830	0.546148
C78	C	1.427075	0.756830	1.046148
C79	C	0.927069	0.256826	0.453960
C80	C	1.427069	0.756826	0.953960
C81	C	0.983114	0.171456	0.407866
C82	C	1.483114	0.671456	0.907866
C83	C	0.983123	0.171457	0.592243
C84	C	1.483123	0.671457	1.092243
C85	C	0.983125	0.171455	0.692200
C86	C	1.483125	0.671455	1.192200
C87	C	0.983111	0.171457	0.307903
C88	C	1.483111	0.671457	0.807903
H89	H	0.578586	-0.034032	0.000054
H90	H	1.078586	0.465968	0.500054
Br91	Br	0.851017	0.372687	0.608707
Br92	Br	1.351017	0.872687	1.108707
H93	H	0.881428	0.326344	0.416432
H94	H	1.381428	0.826344	0.916432
Br95	Br	0.985804	-0.174140	0.188234
Br96	Br	1.485804	0.325860	0.688234
Br97	Br	1.115216	-0.029774	0.391402
Br98	Br	1.615216	0.470226	0.891402
Br99	Br	0.977692	-0.637309	-0.159617
Br100	Br	1.477692	-0.137309	0.340383
H101	H	0.544997	0.381119	0.000053
H102	H	1.044997	0.881119	0.500053
H103	H	0.387655	0.376940	0.000061
H104	H	0.887655	0.876940	0.500061
Br105	Br	0.402713	-0.100934	0.000057
Br106	Br	0.902713	0.399066	0.500057
Br107	Br	0.988573	-0.019792	-0.159638
Br108	Br	1.488573	0.480208	0.340362
Br109	Br	0.985870	-0.174175	-0.347820
Br110	Br	1.485870	0.325825	0.152180
Br111	Br	0.980432	-0.482927	-0.347813
Br112	Br	1.480432	0.017073	0.152187
H113	H	1.084793	0.016568	0.583668
H114	H	1.584793	0.516568	1.083668
H115	H	0.981008	-0.447358	0.144898
H116	H	1.481008	0.052642	0.644898
