data_functionalizedCrystal
_audit_creation_method	'MofGen! by Chris Wilmer'
_symmetry_space_group_name_H-M	'P1'
_symmetry_Int_Tables_number	1
_symmetry_cell_setting	triclinic
loop_
_symmetry_equiv_pos_as_xyz
  x,y,z
_cell_length_a	19.121063
_cell_length_b	11.169417
_cell_length_c	11.169409
_cell_angle_alpha	90.021649
_cell_angle_beta	92.400753
_cell_angle_gamma	87.532849
loop_
_atom_site_label
_atom_site_type_symbol
_atom_site_fract_x
_atom_site_fract_y
_atom_site_fract_z
Zn1	Zn	-0.279588	-1.814438	-0.698912
Zn2	Zn	-0.397061	-1.805704	-0.506763
Zn3	Zn	-0.279626	-1.613721	-0.498243
Zn4	Zn	-0.396999	-1.605112	-0.707397
O5	O	-0.338318	-1.709744	-0.602829
O6	O	-0.295182	-1.981228	-0.673438
O7	O	-0.381525	-1.780184	-0.337686
O8	O	-0.181337	-1.647605	-0.517746
O9	O	-0.381489	-1.974811	-0.532267
O10	O	-0.181309	-1.795071	-0.665176
O11	O	-0.295246	-1.639136	-0.331426
O12	O	-0.295185	-1.444630	-0.525973
O13	O	-0.381382	-1.632932	-0.874218
O14	O	-0.381418	-1.438305	-0.679638
O15	O	-0.295121	-1.786723	-0.867985
O16	O	-0.495337	-1.771837	-0.540494
O17	O	-0.495291	-1.624463	-0.687899
C18	C	-0.338299	-1.397921	-0.602802
C19	C	-0.338308	-1.264520	-0.602820
C20	C	-0.520798	-1.696301	-0.616068
C21	C	-0.598863	-1.690659	-0.621772
C22	C	-0.635539	-1.764798	-0.547770
C23	C	-0.708890	-1.759500	-0.553142
C24	C	-0.745563	-1.680055	-0.632510
C25	C	-0.708882	-1.605914	-0.706521
C26	C	-0.635533	-1.611219	-0.701155
C27	C	-0.967031	-1.660201	-0.652556
C28	C	-1.040385	-1.654898	-0.657914
C29	C	-1.040388	-1.808487	-0.504535
C30	C	-0.967037	-1.813780	-0.499171
C31	C	-0.930362	-1.739643	-0.573186
C32	C	-0.820539	-1.674635	-0.638000
C33	C	-0.855388	-1.745070	-0.567701
C34	C	-0.155127	-1.723272	-0.589564
C35	C	-0.077061	-1.729037	-0.583911
C36	C	-0.338240	-1.709842	-0.915866
C37	C	-0.338207	-1.709883	-1.049264
C38	C	-0.338331	-1.022785	-0.602848
C39	C	-0.338319	-1.156186	-0.602834
C40	C	-0.338345	-1.709719	-0.291006
C41	C	-0.338181	-1.709924	-0.157595
H42	H	-0.605684	-1.829485	-0.483134
H43	H	-0.937179	-1.878470	-0.434542
H44	H	-0.738747	-1.541233	-0.771150
H45	H	-1.070256	-1.868847	-0.444278
O46	O	-0.856244	-1.597618	-0.715153
C47	C	-0.938961	-1.575414	-0.883262
C48	C	-0.898578	-1.662761	-0.795948
H49	H	-0.973187	-1.628049	-0.948622
H50	H	-0.973407	-1.510226	-0.830679
H51	H	-0.900140	-1.523296	-0.935178
H52	H	-0.937349	-1.714961	-0.744010
H53	H	-0.864122	-1.727870	-0.848599
O54	O	-0.600012	-1.539083	-0.773090
C55	C	-0.607746	-1.386251	-0.925852
C56	C	-0.648059	-1.467850	-0.844422
H57	H	-0.646574	-1.328656	-0.983562
H58	H	-0.573477	-1.325918	-0.868256
H59	H	-0.573333	-1.443840	-0.986084
H60	H	-0.682509	-1.410354	-0.784176
H61	H	-0.682283	-1.528189	-0.902090
O62	O	-0.819735	-1.822068	-0.490473
C63	C	-0.736953	-1.844259	-0.322453
C64	C	-0.777307	-1.756930	-0.409822
H65	H	-0.702630	-1.791631	-0.257242
H66	H	-0.775730	-1.896322	-0.270382
H67	H	-0.702587	-1.909495	-0.375122
H68	H	-0.811674	-1.691621	-0.357246
H69	H	-0.738492	-1.704954	-0.461895
O70	O	-0.744386	-1.831769	-0.481306
C71	C	-0.766623	-2.034429	-0.424999
C72	C	-0.726402	-1.952664	-0.506406
H73	H	-0.752109	-2.132190	-0.445280
H74	H	-0.752223	-2.014569	-0.327136
H75	H	-0.825358	-2.017050	-0.442372
H76	H	-0.667658	-1.969997	-0.489139
H77	H	-0.740860	-1.972541	-0.604242
O78	O	-1.076091	-1.577887	-0.735084
C79	C	-1.158812	-1.555694	-0.903188
C80	C	-1.118430	-1.643034	-0.815866
H81	H	-1.193042	-1.608333	-0.968538
H82	H	-1.193253	-1.490495	-0.850610
H83	H	-1.119990	-1.503588	-0.955115
H84	H	-1.157201	-1.695222	-0.763917
H85	H	-1.083978	-1.708155	-0.868511
H86	H	-0.937176	-1.599833	-0.712819
