data_functionalizedCrystal
_audit_creation_method	'MofGen! by Chris Wilmer'
_symmetry_space_group_name_H-M	'P1'
_symmetry_Int_Tables_number	1
_symmetry_cell_setting	triclinic
loop_
_symmetry_equiv_pos_as_xyz
  x,y,z
_cell_length_a	19.288840
_cell_length_b	13.339070
_cell_length_c	12.377034
_cell_angle_alpha	104.402122
_cell_angle_beta	101.239969
_cell_angle_gamma	80.622342
loop_
_atom_site_label
_atom_site_type_symbol
_atom_site_fract_x
_atom_site_fract_y
_atom_site_fract_z
O1	O	0.936304	-0.145427	-0.094208
O2	O	0.737365	-0.162455	-0.094172
O3	O	0.814005	-0.006778	-0.094160
O4	O	0.859664	-0.301104	-0.094220
O5	O	0.833155	0.032072	0.093838
O6	O	0.756515	-0.123604	0.093827
O7	O	0.955454	-0.106577	0.093791
Zn8	Zn	0.859025	-0.108922	0.123658
Zn9	Zn	0.833794	-0.160109	-0.124039
O10	O	0.878814	-0.262253	0.093779
C11	C	0.720957	-0.142484	-0.000167
C12	C	0.643536	-0.140849	-0.000152
C13	C	0.596741	-0.161242	-0.102633
C14	C	0.523992	-0.159700	-0.102646
C15	C	0.498039	-0.137742	-0.000173
C16	C	0.544845	-0.117351	0.102321
C17	C	0.617594	-0.118905	0.102332
C18	C	0.384691	-0.059854	0.078332
C19	C	0.311943	-0.058296	0.078317
C20	C	0.273658	-0.132955	-0.000202
C21	C	0.308128	-0.209163	-0.078725
C22	C	0.380877	-0.210717	-0.078714
C23	C	0.419156	-0.136056	-0.000173
C24	C	0.147979	-0.151678	-0.102704
C25	C	0.075229	-0.150141	-0.102713
C26	C	0.096083	-0.107782	0.102257
C27	C	0.168832	-0.109330	0.102263
C28	C	0.194775	-0.131274	-0.000220
C29	C	0.815867	0.050301	-0.000155
C30	C	0.792876	0.162499	-0.000139
C31	C	0.971656	0.528134	-0.000119
C32	C	0.993260	0.422720	-0.000128
C33	C	0.943166	0.357660	-0.000131
C34	C	0.871464	0.398023	-0.000124
C35	C	0.849859	0.503448	-0.000106
C36	C	0.821369	0.332974	-0.000118
C37	C	0.749667	0.373337	-0.000111
C38	C	0.728066	0.478753	-0.000094
C39	C	0.778160	0.543813	-0.000091
C40	C	0.842974	0.227549	-0.000136
C41	C	0.721177	0.202864	-0.000124
C42	C	0.699573	0.308277	-0.000114
C43	C	0.971861	-0.126548	-0.000216
C44	C	1.049282	-0.128185	-0.000239
C45	C	0.876955	0.680675	-0.000191
C46	C	0.899957	0.568499	-0.000104
N47	N	0.876249	-0.073988	0.292704
N48	N	0.816574	-0.195036	-0.293085
C49	C	0.916228	0.007156	0.351860
C50	C	0.928276	0.031636	0.470191
C51	C	0.900352	-0.025030	0.529378
C52	C	0.860377	-0.106180	0.470222
C53	C	0.848322	-0.130658	0.351879
C54	C	0.832446	-0.162843	0.529397
C55	C	0.792471	-0.243994	0.470241
C56	C	0.780419	-0.268468	0.351910
C57	C	0.808344	-0.211801	0.292723
C58	C	0.844501	-0.138366	0.647740
C59	C	0.776595	-0.276179	0.647759
C60	C	0.764547	-0.300660	0.529428
H61	H	0.415857	0.000946	0.142277
H62	H	0.747862	-0.334537	0.303744
C63	C	0.720573	-0.389918	0.464353
H64	H	0.705671	-0.420170	0.516543
H65	H	0.679977	-0.363217	0.418192
H66	H	0.748952	-0.441447	0.418190
C67	C	0.972253	0.120884	0.535255
H68	H	0.987164	0.151119	0.483060
H69	H	0.943886	0.172416	0.581426
H70	H	1.012853	0.094169	0.581407
H71	H	0.938956	0.053291	0.303662
H72	H	0.798537	-0.231736	0.196368
H73	H	0.910164	-0.005094	0.625729
C74	C	0.666069	0.131306	-0.000136
H75	H	0.689203	0.062739	-0.000162
H76	H	0.644181	0.157054	0.065427
H77	H	0.630833	0.129961	-0.065700
H78	H	0.877048	-0.072293	0.695894
H79	H	0.760573	0.629650	-0.000087
H80	H	0.753855	-0.322320	0.695948
H81	H	0.901354	0.194696	-0.000142
C82	C	0.625281	-0.185402	-0.215357
H83	H	0.675310	-0.183404	-0.200677
H84	H	0.615121	-0.252778	-0.257472
H85	H	0.603026	-0.134915	-0.257459
C86	C	0.472509	-0.182143	-0.215379
H87	H	0.498379	-0.195433	-0.276411
H88	H	0.449749	-0.241347	-0.219650
H89	H	0.437644	-0.123482	-0.219631
H90	H	0.408939	-0.272770	-0.142648
H91	H	0.169104	-0.169557	-0.186152
C92	C	0.266026	-0.291296	-0.165097
H93	H	0.217765	-0.279467	-0.153851
H94	H	0.268240	-0.286112	-0.239490
H95	H	0.286092	-0.358981	-0.155217
C96	C	1.072124	0.378323	-0.000131
H97	H	1.077818	0.306225	-0.000128
H98	H	1.086935	0.387119	-0.065687
H99	H	1.100275	0.414228	0.065440
C100	C	0.023753	-0.172570	-0.215448
H101	H	0.049625	-0.185849	-0.276477
H102	H	0.000990	-0.231775	-0.219737
H103	H	-0.011109	-0.113905	-0.219689
H104	H	0.074954	-0.089910	0.185693
H105	H	0.206934	-0.092717	0.185714
H106	H	0.669683	0.511614	-0.000080
C107	C	0.274033	0.025527	0.164689
H108	H	0.307254	0.069756	0.211468
H109	H	0.236811	0.065712	0.125828
H110	H	0.254657	-0.007179	0.210078
H111	H	0.655695	-0.102298	0.185787
C112	C	0.516307	-0.093275	0.215038
H113	H	0.466280	-0.095284	0.200355
H114	H	0.538579	-0.143793	0.257081
H115	H	0.526451	-0.025904	0.257214
C116	C	1.026750	0.599699	-0.000111
H117	H	1.003612	0.668261	-0.000104
H118	H	1.061989	0.601045	0.065442
H119	H	1.048635	0.573949	-0.065685
C120	C	0.966928	0.241705	-0.000156
H121	H	1.016803	0.226981	-0.000171
H122	H	0.955998	0.226837	0.065395
H123	H	0.942648	0.199753	-0.065731
H124	H	0.641193	0.341156	-0.000108
