data_functionalizedCrystal
_audit_creation_method	'MofGen! by Chris Wilmer'
_symmetry_space_group_name_H-M	'P1'
_symmetry_Int_Tables_number	1
_symmetry_cell_setting	triclinic
loop_
_symmetry_equiv_pos_as_xyz
  x,y,z
_cell_length_a	17.699104
_cell_length_b	10.540510
_cell_length_c	16.176319
_cell_angle_alpha	89.995706
_cell_angle_beta	89.991696
_cell_angle_gamma	83.902414
loop_
_atom_site_label
_atom_site_type_symbol
_atom_site_fract_x
_atom_site_fract_y
_atom_site_fract_z
O1	O	1.005103	0.160649	-0.068759
O2	O	1.505103	0.660649	0.431241
O3	O	0.784861	0.181506	-0.068756
O4	O	1.284861	0.681506	0.431244
O5	O	0.900019	-0.013723	-0.068757
O6	O	1.400019	0.486277	0.431243
O7	O	0.889946	0.355878	-0.068758
O8	O	1.389946	0.855878	0.431242
O9	O	0.900002	-0.013736	0.068736
O10	O	1.400002	0.486264	0.568736
O11	O	0.784845	0.181493	0.068737
O12	O	1.284845	0.681493	0.568737
O13	O	1.005087	0.160636	0.068734
O14	O	1.505087	0.660636	0.568734
Cu15	Cu	0.894965	0.171064	0.081290
Cu16	Cu	1.394965	0.671064	0.581290
Cu17	Cu	0.894984	0.171078	-0.081312
Cu18	Cu	1.394984	0.671078	0.418688
O19	O	0.889930	0.355865	0.068735
O20	O	1.389930	0.855865	0.568735
C21	C	0.756652	0.180747	-0.000009
C22	C	1.256652	0.680747	0.499991
C23	C	0.672620	0.178492	-0.000009
C24	C	1.172620	0.678492	0.499991
C25	C	0.148405	0.280367	-0.000017
C26	C	0.648405	0.780367	0.499983
C27	C	0.227362	0.282479	-0.000020
C28	C	0.727362	0.782479	0.499980
C29	C	0.275242	0.167872	-0.000019
C30	C	0.775242	0.667872	0.499981
C31	C	0.244160	0.051146	-0.000025
C32	C	0.744160	0.551146	0.499975
C33	C	0.165204	0.049036	-0.000029
C34	C	0.665204	0.549036	0.499971
C35	C	0.562581	0.059654	-0.000012
C36	C	1.062581	0.559654	0.499988
C37	C	0.641542	0.061774	-0.000006
C38	C	1.141542	0.561774	0.499994
C39	C	0.624739	0.293097	-0.000003
C40	C	1.124739	0.793097	0.499997
C41	C	0.545783	0.290987	-0.000007
C42	C	1.045783	0.790987	0.499993
C43	C	0.514708	0.174262	-0.000017
C44	C	1.014708	0.674262	0.499983
C45	C	0.429094	0.171973	-0.000016
C46	C	0.929094	0.671973	0.499984
C47	C	0.360855	0.170159	-0.000014
C48	C	0.860855	0.670159	0.499986
C49	C	0.899260	-0.061019	-0.000012
C50	C	1.399260	0.438981	0.499988
C51	C	0.897014	-0.201929	-0.000017
C52	C	1.397014	0.298071	0.499983
C53	C	0.977014	-0.420837	0.000297
C54	C	1.477014	0.079163	0.500297
C55	C	0.979409	-0.274285	-0.000018
C56	C	1.479409	0.225715	0.499982
C57	C	0.854845	-0.245914	-0.078530
C58	C	1.354845	0.254086	0.421470
C59	C	0.853033	-0.392642	-0.078592
C60	C	1.353033	0.107358	0.421408
C61	C	0.851299	-0.392433	0.077764
C62	C	1.351299	0.107567	0.577764
C63	C	0.855207	-0.246163	0.078797
C64	C	1.355207	0.253837	0.578797
C65	C	1.033297	0.161394	-0.000014
C66	C	1.533297	0.661394	0.499986
C67	C	1.117328	0.163650	-0.000021
C68	C	1.617328	0.663650	0.499979
C69	C	0.890688	0.403161	-0.000011
C70	C	1.390688	0.903161	0.499989
C71	C	0.892934	0.544070	-0.000012
C72	C	1.392934	1.044070	0.499988
N73	N	0.894957	0.171053	0.195655
N74	N	1.394957	0.671053	0.695655
N75	N	0.894997	0.171079	-0.195677
N76	N	1.394997	0.671079	0.304323
C77	C	0.945964	0.084640	0.238919
C78	C	1.445964	0.584640	0.738919
C79	C	0.945968	0.084639	0.325466
C80	C	1.445968	0.584639	0.825466
C81	C	0.894967	0.171057	0.368748
C82	C	1.394967	0.671057	0.868748
C83	C	0.843955	0.257473	0.325478
C84	C	1.343955	0.757473	0.825478
C85	C	0.843948	0.257467	0.238932
C86	C	1.343948	0.757467	0.738932
C87	C	0.843981	0.257497	0.674506
C88	C	1.343981	0.757497	1.174506
C89	C	0.843993	0.257498	0.761058
C90	C	1.343993	0.757498	1.261058
C91	C	0.946001	0.084669	0.761040
C92	C	1.446001	0.584669	1.261040
C93	C	0.945994	0.084663	0.674494
C94	C	1.445994	0.584663	1.174494
C95	C	0.894979	0.171074	0.631232
C96	C	1.394979	0.671074	1.131232
C97	C	0.894974	0.171073	0.537388
C98	C	1.394974	0.671073	1.037388
C99	C	0.894975	0.171065	0.462590
C100	C	1.394975	0.671065	0.962590
H101	H	0.680525	-0.031559	-0.000008
H102	H	1.180525	0.468441	0.499992
H103	H	0.537290	-0.035390	-0.000018
H104	H	1.037290	0.464610	0.499982
O105	O	1.023373	-0.237429	-0.074704
O106	O	1.523373	0.262571	0.425296
H107	H	1.042998	-0.324331	-0.110742
H108	H	1.542998	0.175669	0.389258
H109	H	0.283151	-0.042169	-0.000030
H110	H	0.783151	0.457831	0.499970
O111	O	0.131680	-0.076851	-0.000023
O112	O	0.631680	0.423149	0.499977
H113	H	0.178237	-0.156191	-0.000013
H114	H	0.678237	0.343809	0.499987
H115	H	0.506802	0.384312	-0.000003
H116	H	1.006802	0.884312	0.499997
H117	H	0.877476	-0.435096	0.137277
H118	H	1.377476	0.064904	0.637277
O119	O	1.023130	-0.236218	0.074522
O120	O	1.523130	0.263782	0.574522
H121	H	0.994644	-0.264823	0.131676
H122	H	1.494644	0.235177	0.631676
O123	O	0.658252	0.419002	-0.000003
O124	O	1.158252	0.919002	0.499997
H125	H	0.721199	0.401223	-0.000010
H126	H	1.221199	0.901223	0.499990
O127	O	0.096771	0.403987	-0.000016
O128	O	0.596771	0.903987	0.499984
H129	H	0.060394	0.408561	0.056028
H130	H	0.560394	0.908561	0.556028
H131	H	1.009107	-0.463380	0.056603
H132	H	1.509107	0.036620	0.556603
H133	H	1.008935	-0.464918	-0.055691
H134	H	1.508935	0.035082	0.444309
O135	O	0.774496	-0.181689	-0.082400
O136	O	1.274496	0.318311	0.417600
H137	H	0.745963	-0.214398	-0.138410
H138	H	1.245963	0.285602	0.361590
O139	O	0.891594	-0.446694	-0.156110
O140	O	1.391594	0.053306	0.343890
H141	H	0.911320	-0.367985	-0.193222
H142	H	1.411320	0.132015	0.306778
H143	H	0.802459	0.327873	0.796296
H144	H	1.302459	0.827873	1.296296
H145	H	0.802425	0.327832	0.360723
H146	H	1.302425	0.827832	0.860723
H147	H	0.885891	-0.218114	0.136880
H148	H	1.385891	0.281886	0.636880
H149	H	0.791407	-0.414517	-0.082148
H150	H	1.291407	0.085483	0.417852
H151	H	0.795052	-0.196004	0.083539
H152	H	1.295052	0.303996	0.583539
O153	O	0.788937	0.350674	0.192263
O154	O	1.288937	0.850674	0.692263
H155	H	0.753479	0.410776	0.236897
H156	H	1.253479	0.910776	0.736897
O157	O	0.893885	-0.206008	-0.155848
O158	O	1.393885	0.293992	0.344152
H159	H	0.893088	-0.100582	-0.156843
H160	H	1.393088	0.399418	0.343157
O161	O	0.260883	0.408365	0.000003
O162	O	0.760883	0.908365	0.500003
H163	H	0.214325	0.487703	0.000019
H164	H	0.714325	0.987703	0.500019
H165	H	0.789436	-0.413460	0.078293
H166	H	1.289436	0.086540	0.578293
H167	H	0.987501	0.014275	0.360691
H168	H	1.487501	0.514275	0.860691
H169	H	0.987498	0.014275	0.203684
H170	H	1.487498	0.514275	0.703684
O171	O	1.000997	-0.008550	0.627809
O172	O	1.500997	0.491450	1.127809
H173	H	1.036461	-0.068650	0.672434
H174	H	1.536461	0.431350	1.172434
O175	O	0.788967	0.350704	0.627849
O176	O	1.288967	0.850704	1.127849
H177	H	0.753513	0.410805	0.672488
H178	H	1.253513	0.910805	1.172488
H179	H	0.987538	0.014304	0.796273
H180	H	1.487538	0.514304	1.296273
