data_functionalizedCrystal
_audit_creation_method	'MofGen! by Chris Wilmer'
_symmetry_space_group_name_H-M	'P1'
_symmetry_Int_Tables_number	1
_symmetry_cell_setting	triclinic
loop_
_symmetry_equiv_pos_as_xyz
  x,y,z
_cell_length_a	16.120530
_cell_length_b	19.805405
_cell_length_c	19.805399
_cell_angle_alpha	89.970699
_cell_angle_beta	87.084478
_cell_angle_gamma	87.121765
loop_
_atom_site_label
_atom_site_type_symbol
_atom_site_fract_x
_atom_site_fract_y
_atom_site_fract_z
Zn1	Zn	1.274516	-0.322020	-0.435096
Zn2	Zn	1.774516	0.177980	0.064904
Zn3	Zn	1.274411	-0.435204	-0.321900
Zn4	Zn	1.774411	0.064796	0.178100
Zn5	Zn	1.135102	-0.316291	-0.316191
Zn6	Zn	1.635102	0.183709	0.183809
Zn7	Zn	1.135057	-0.429423	-0.429319
Zn8	Zn	1.635057	0.070577	0.070681
O9	O	1.204772	-0.375735	-0.375627
O10	O	1.704772	0.124265	0.124373
O11	O	1.391168	-0.341851	-0.424888
O12	O	1.891168	0.158149	0.075112
O13	O	1.255907	-0.419452	-0.226425
O14	O	1.755907	0.080548	0.273575
O15	O	1.153659	-0.222337	-0.331992
O16	O	1.653659	0.277663	0.168008
O17	O	1.391091	-0.425007	-0.341723
O18	O	1.891091	0.074993	0.158277
O19	O	1.256085	-0.226546	-0.419351
O20	O	1.756085	0.273454	0.080649
O21	O	1.153557	-0.332087	-0.222231
O22	O	1.653557	0.167913	0.277769
O23	O	1.018431	-0.326482	-0.326390
O24	O	1.518431	0.173518	0.173610
O25	O	1.153582	-0.415154	-0.524803
O26	O	1.653582	0.084846	-0.024803
O27	O	1.018398	-0.409599	-0.409506
O28	O	1.518398	0.090401	0.090494
O29	O	1.256042	-0.336245	-0.529048
O30	O	1.756042	0.163755	-0.029048
O31	O	1.255863	-0.529151	-0.336122
O32	O	1.755863	-0.029151	0.163878
O33	O	1.153480	-0.524904	-0.415042
O34	O	1.653480	-0.024904	0.084958
C35	C	0.988164	-0.366792	-0.366702
C36	C	1.488164	0.133208	0.133298
C37	C	0.895499	-0.362983	-0.362900
C38	C	1.395499	0.137017	0.137100
C39	C	1.204678	-0.551587	-0.375590
C40	C	1.704678	-0.051587	0.124410
C41	C	1.204714	-0.626820	-0.375600
C42	C	1.704714	-0.126820	0.124400
C43	C	1.258077	-0.664356	-0.334554
C44	C	1.758077	-0.164356	0.165446
C45	C	1.258112	-0.735045	-0.334570
C46	C	1.758112	-0.235045	0.165430
C47	C	1.204780	-0.768199	-0.375630
C48	C	1.704780	-0.268199	0.124370
C49	C	1.151415	-0.730658	-0.416681
C50	C	1.651415	-0.230658	0.083319
C51	C	1.151385	-0.659970	-0.416668
C52	C	1.651385	-0.159970	0.083332
C53	C	1.151538	-1.015737	-0.416736
C54	C	1.651538	-0.515737	0.083264
C55	C	1.151571	-1.086430	-0.416745
C56	C	1.651571	-0.586430	0.083255
C57	C	1.258266	-1.090812	-0.334639
C58	C	1.758266	-0.590812	0.165361
C59	C	1.258235	-1.020124	-0.334626
C60	C	1.758235	-0.520124	0.165374
C61	C	1.204874	-0.982590	-0.375679
C62	C	1.704874	-0.482590	0.124321
C63	C	1.204837	-0.905940	-0.375662
C64	C	1.704837	-0.405940	0.124338
C65	C	1.204812	-0.844847	-0.375644
C66	C	1.704812	-0.344847	0.124356
C67	C	0.725838	-0.356012	-0.355964
C68	C	1.225838	0.143988	0.144036
C69	C	0.684546	-0.395507	-0.395339
C70	C	1.184546	0.104493	0.104661
C71	C	0.590141	-0.391628	-0.391480
C72	C	1.090141	0.108372	0.108520
C73	C	0.820252	-0.359890	-0.359822
C74	C	1.320252	0.140110	0.140178
C75	C	1.422225	-0.384712	-0.384587
C76	C	1.922225	0.115288	0.115413
C77	C	1.514890	-0.388538	-0.388405
C78	C	2.014890	0.111462	0.111595
C79	C	1.204819	-0.375694	-0.552171
C80	C	1.704819	0.124306	-0.052171
C81	C	1.204838	-0.375677	-0.627404
C82	C	1.704838	0.124323	-0.127404
C83	C	1.204889	-0.199197	-0.375679
C84	C	1.704889	0.300803	0.124321
C85	C	1.204938	-0.123967	-0.375702
C86	C	1.704938	0.376033	0.124298
C87	C	1.258190	-0.334587	-0.664960
C88	C	1.758190	0.165413	-0.164960
C89	C	1.258199	-0.334567	-0.735648
C90	C	1.758199	0.165433	-0.235648
C91	C	1.204859	-0.375642	-0.768781
C92	C	1.704859	0.124358	-0.268781
C93	C	1.151501	-0.416734	-0.731220
C94	C	1.651501	0.083266	-0.231220
C95	C	1.151489	-0.416749	-0.660533
C96	C	1.651489	0.083251	-0.160533
C97	C	1.151548	-0.416672	-1.016296
C98	C	1.651548	0.083328	-0.516296
C99	C	1.151566	-0.416656	-1.086989
C100	C	1.651566	0.083344	-0.586989
C101	C	1.258258	-0.334491	-1.091412
C102	C	1.758258	0.165509	-0.591412
C103	C	1.258246	-0.334506	-1.020724
C104	C	1.758246	0.165494	-0.520724
C105	C	1.204885	-0.375595	-0.983169
C106	C	1.704885	0.124405	-0.483169
C107	C	1.204876	-0.375614	-0.906521
C108	C	1.704876	0.124386	-0.406521
C109	C	1.204873	-0.375627	-0.845429
C110	C	1.704873	0.124373	-0.345429
C111	C	1.204773	-0.375728	-0.199771
C112	C	1.704773	0.124272	0.300229
C113	C	1.204915	-0.375562	-0.124545
C114	C	1.704915	0.124438	0.375455
H115	H	1.301502	-0.637367	-0.301115
H116	H	1.801502	-0.137367	0.198885
H117	H	1.108111	-0.450140	-0.985728
H118	H	1.608111	0.049860	-0.485728
C119	C	1.316896	-0.983659	-0.289450
C120	C	1.816896	-0.483659	0.210550
N121	N	1.361082	-0.956195	-0.255423
N122	N	1.861082	-0.456195	0.244577
H123	H	1.107933	-0.629409	-0.450093
H124	H	1.607933	-0.129409	0.049907
H125	H	0.690290	-0.319290	-0.319359
H126	H	1.190290	0.180710	0.180641
C127	C	0.732571	-0.445126	-0.444790
C128	C	1.232571	0.054874	0.055210
N129	N	0.768746	-0.482501	-0.482032
N130	N	1.268746	0.017499	0.017968
C131	C	1.316810	-0.776331	-0.289411
C132	C	1.816810	-0.276331	0.210589
N133	N	1.361022	-0.807427	-0.255395
N134	N	1.861022	-0.307427	0.244605
C135	C	1.092882	-0.974460	-0.461933
C136	C	1.592882	-0.474460	0.038067
N137	N	1.048714	-0.943369	-0.495990
N138	N	1.548714	-0.443369	0.004010
H139	H	1.107995	-0.757657	-0.450116
H140	H	1.607995	-0.257657	0.049884
C141	C	1.316869	-0.289400	-0.628521
C142	C	1.816869	0.210600	-0.128521
N143	N	1.361064	-0.255361	-0.601077
N144	N	1.861064	0.244639	-0.101077
H145	H	1.301718	-1.121381	-0.301214
H146	H	1.801718	-0.621381	0.198786
C147	C	1.316892	-0.289366	-0.776956
C148	C	1.816892	0.210634	-0.276956
N149	N	1.361102	-0.255319	-0.808069
N150	N	1.861102	0.244681	-0.308069
C151	C	1.092819	-0.461909	-0.767668
C152	C	1.592819	0.038091	-0.267668
N153	N	1.048617	-0.495936	-0.795120
N154	N	1.548617	0.004064	-0.295120
C155	C	1.092903	-1.122897	-0.461920
C156	C	1.592903	-0.622897	0.038080
N157	N	1.048717	-1.150364	-0.495944
N158	N	1.548717	-0.650364	0.004056
H159	H	1.301684	-0.301061	-0.993751
H160	H	1.801684	0.198939	-0.493751
H161	H	1.301704	-0.301032	-1.121997
H162	H	1.801704	0.198968	-0.621997
H163	H	1.108127	-0.450105	-1.113963
H164	H	1.608127	0.049895	-0.613963
C165	C	1.092799	-0.461952	-0.619222
C166	C	1.592799	0.038048	-0.119222
N167	N	1.048590	-0.496000	-0.588108
N168	N	1.548590	0.004000	-0.088108
