data_functionalizedCrystal
_audit_creation_method	'MofGen! by Chris Wilmer'
_symmetry_space_group_name_H-M	'P1'
_symmetry_Int_Tables_number	1
_symmetry_cell_setting	triclinic
loop_
_symmetry_equiv_pos_as_xyz
  x,y,z
_cell_length_a	19.077409
_cell_length_b	21.395361
_cell_length_c	21.395356
_cell_angle_alpha	90.030681
_cell_angle_beta	92.268175
_cell_angle_gamma	87.667329
loop_
_atom_site_label
_atom_site_type_symbol
_atom_site_fract_x
_atom_site_fract_y
_atom_site_fract_z
Zn1	Zn	1.075969	0.210939	-0.315905
Zn2	Zn	1.575969	0.710939	0.184095
Zn3	Zn	1.075861	0.315720	-0.211126
Zn4	Zn	1.575861	0.815720	0.288874
Zn5	Zn	0.958264	0.215169	-0.215336
Zn6	Zn	1.458264	0.715169	0.284664
Zn7	Zn	0.958228	0.319898	-0.320058
Zn8	Zn	1.458228	0.819898	0.179942
O9	O	1.017081	0.265432	-0.265606
O10	O	1.517081	0.765432	0.234394
O11	O	1.174444	0.221320	-0.298505
O12	O	1.674444	0.721320	0.201495
O13	O	1.060232	0.302403	-0.124007
O14	O	1.560232	0.802403	0.375993
O15	O	0.973939	0.126928	-0.228701
O16	O	1.473939	0.626928	0.271299
O17	O	1.174365	0.298302	-0.221525
O18	O	1.674365	0.798302	0.278475
O19	O	1.060415	0.123820	-0.302588
O20	O	1.560415	0.623820	0.197412
O21	O	0.973834	0.228530	-0.127101
O22	O	1.473834	0.728530	0.372899
O23	O	0.859770	0.232581	-0.232728
O24	O	1.359770	0.732581	0.267272
O25	O	0.973876	0.305422	-0.407184
O26	O	1.473876	0.805422	0.092816
O27	O	0.859743	0.309524	-0.309666
O28	O	1.359743	0.809524	0.190334
O29	O	1.060380	0.225371	-0.404132
O30	O	1.560380	0.725371	0.095868
O31	O	1.060197	0.403954	-0.225552
O32	O	1.560197	0.903954	0.274448
O33	O	0.973772	0.407023	-0.305584
O34	O	1.473772	0.907023	0.194416
C35	C	0.834219	0.271965	-0.272105
C36	C	1.334219	0.771965	0.227895
C37	C	0.755990	0.274775	-0.274900
C38	C	1.255990	0.774775	0.225100
C39	C	0.315645	0.294881	-0.294977
C40	C	0.815645	0.794881	0.205023
C41	C	0.389149	0.292245	-0.292339
C42	C	0.889149	0.792245	0.207661
C43	C	0.425892	0.250803	-0.251029
C44	C	0.925892	0.750803	0.248971
C45	C	0.389127	0.211998	-0.212349
C46	C	0.889127	0.711998	0.287651
C47	C	0.315624	0.214637	-0.214985
C48	C	0.815624	0.714637	0.285015
C49	C	0.645722	0.238610	-0.238856
C50	C	1.145722	0.738610	0.261144
C51	C	0.719230	0.235972	-0.236225
C52	C	1.219230	0.735972	0.263775
C53	C	0.719247	0.316221	-0.316214
C54	C	1.219247	0.816221	0.183786
C55	C	0.645743	0.318854	-0.318848
C56	C	1.145743	0.818854	0.181152
C57	C	0.608984	0.280051	-0.280167
C58	C	1.108984	0.780051	0.219833
N59	N	0.501026	0.248106	-0.248333
N60	N	1.001026	0.748106	0.251667
N61	N	0.533852	0.282751	-0.282860
N62	N	1.033852	0.782751	0.217140
C63	C	1.016988	0.428222	-0.265574
C64	C	1.516988	0.928222	0.234426
C65	C	1.017012	0.497863	-0.265580
C66	C	1.517012	0.997863	0.234420
C67	C	1.017136	0.265391	-0.429027
C68	C	1.517136	0.765391	0.070973
C69	C	1.017160	0.265373	-0.498668
C70	C	1.517160	0.765373	0.001332
C71	C	1.200656	0.258873	-0.259082
C72	C	1.700656	0.758873	0.240918
C73	C	1.278885	0.256078	-0.256302
C74	C	1.778885	0.756078	0.243698
C75	C	1.017193	0.102004	-0.265651
C76	C	1.517193	0.602004	0.234349
C77	C	1.017241	0.032361	-0.265670
C78	C	1.517241	0.532361	0.234330
C79	C	1.062054	0.528955	-0.223946
C80	C	1.562054	1.028955	0.276054
C81	C	1.062086	0.594390	-0.223959
C82	C	1.562086	1.094390	0.276041
C83	C	1.017065	0.628729	-0.265599
C84	C	1.517065	1.128729	0.234401
C85	C	0.972021	0.597629	-0.307240
C86	C	1.472021	1.097629	0.192760
C87	C	0.971994	0.532196	-0.307230
C88	C	1.471994	1.032196	0.192770
C89	C	0.953694	0.734712	-0.272767
C90	C	1.453694	1.234712	0.227233
C91	C	0.953719	0.800144	-0.272773
C92	C	1.453719	1.300144	0.227227
C93	C	1.017147	0.830547	-0.265633
C94	C	1.517147	1.330547	0.234367
C95	C	1.080552	0.795510	-0.258474
C96	C	1.580552	1.295510	0.241526
C97	C	1.080526	0.730077	-0.258465
C98	C	1.580526	1.230077	0.241535
C99	C	1.017089	0.699681	-0.265615
C100	C	1.517089	1.199681	0.234385
C101	C	1.062228	0.932591	-0.224012
C102	C	1.562228	1.432591	0.275988
C103	C	1.062262	0.998026	-0.224029
C104	C	1.562262	1.498026	0.275971
C105	C	0.972190	1.001264	-0.307306
C106	C	1.472190	1.501264	0.192694
C107	C	0.972162	0.935830	-0.307292
C108	C	1.472162	1.435830	0.192708
C109	C	1.017180	0.901497	-0.265642
C110	C	1.517180	1.401497	0.234358
C111	C	0.972184	0.226902	-0.532981
C112	C	1.472184	0.726902	-0.032981
C113	C	0.972182	0.226891	-0.598417
C114	C	1.472182	0.726891	-0.098417
C115	C	1.017167	0.265343	-0.629536
C116	C	1.517167	0.765343	-0.129536
C117	C	1.062146	0.303822	-0.595214
C118	C	1.562146	0.803822	-0.095214
C119	C	1.062142	0.303837	-0.529780
C120	C	1.562142	0.803837	-0.029780
C121	C	1.080581	0.267999	-0.730962
C122	C	1.580581	0.767999	-0.230962
C123	C	1.080586	0.267980	-0.796395
C124	C	1.580586	0.767980	-0.296395
C125	C	1.017179	0.265300	-0.831356
C126	C	1.517179	0.765300	-0.331356
C127	C	0.953765	0.262628	-0.800877
C128	C	1.453765	0.762628	-0.300877
C129	C	0.953761	0.262643	-0.735443
C130	C	1.453761	0.762643	-0.235443
C131	C	1.017176	0.265331	-0.700488
C132	C	1.517176	0.765331	-0.200488
C133	C	0.972197	0.226815	-0.936623
C134	C	1.472197	0.726815	-0.436623
C135	C	0.972194	0.226808	-1.002059
C136	C	1.472194	0.726808	-0.502059
C137	C	1.062164	0.303736	-0.998855
C138	C	1.562164	0.803736	-0.498855
C139	C	1.062161	0.303746	-0.933420
C140	C	1.562161	0.803746	-0.433420
C141	C	1.017179	0.265282	-0.902308
C142	C	1.517179	0.765282	-0.402308
C143	C	1.017066	0.265426	-0.102819
C144	C	1.517066	0.765426	0.397181
C145	C	1.017179	0.265262	-0.033174
C146	C	1.517179	0.765262	0.466826
H147	H	1.098712	0.501003	-0.190034
H148	H	1.598712	1.001003	0.309966
C149	C	1.111633	0.628599	-0.178155
C150	C	1.611633	1.128599	0.321845
N151	N	1.148951	0.654363	-0.143653
N152	N	1.648951	1.154363	0.356347
C153	C	0.922627	0.901626	-0.353105
C154	C	1.422627	1.401626	0.146895
N155	N	0.885323	0.875864	-0.387620
N156	N	1.385323	1.375864	0.112380
C157	C	0.922707	0.184565	-0.636169
C158	C	1.422707	0.684565	-0.136169
N159	N	0.885444	0.152684	-0.664602
N160	N	1.385444	0.652684	-0.164602
H161	H	1.132201	0.820262	-0.252661
H162	H	1.632201	1.320262	0.247339
C163	C	0.275189	0.171949	-0.172440
C164	C	0.775189	0.671949	0.327560
N165	N	0.244734	0.139795	-0.140394
N166	N	0.744734	0.639795	0.359606
H167	H	0.935553	0.195585	-0.507654
H168	H	1.435553	0.695585	-0.007654
H169	H	0.419076	0.323845	-0.323831
H170	H	0.919076	0.823845	0.176169
H171	H	0.902128	0.260468	-0.710629
H172	H	1.402128	0.760468	-0.210629
C173	C	0.884011	0.259686	-0.839330
C174	C	1.384011	0.759686	-0.339330
N175	N	0.831475	0.257472	-0.868295
N176	N	1.331475	0.757472	-0.368295
C177	C	0.922667	1.039034	-0.353112
C178	C	1.422667	1.539034	0.146888
N179	N	0.885367	1.067485	-0.387615
N180	N	1.385367	1.567485	0.112385
H181	H	0.935366	0.625592	-0.341145
H182	H	1.435366	1.125592	0.158855
H183	H	0.935316	0.506880	-0.341134
H184	H	1.435316	1.006880	0.158866
C185	C	0.922709	0.184511	-0.902397
C186	C	1.422709	0.684511	-0.402397
N187	N	0.885433	0.152649	-0.876620
N188	N	1.385433	0.652649	-0.376620
H189	H	0.749145	0.202217	-0.202590
H190	H	1.249145	0.702217	0.297410
H191	H	1.132151	0.701551	-0.252638
H192	H	1.632151	1.201551	0.247362
H193	H	0.935564	0.195482	-1.029997
H194	H	1.435564	0.695482	-0.529997
C195	C	1.111681	0.346005	-1.033081
C196	C	1.611681	0.846005	-0.533081
N197	N	1.148989	0.377833	-1.058863
N198	N	1.648989	0.877833	-0.558863
C199	C	1.111635	0.346147	-0.492034
C200	C	1.611635	0.846147	0.007966
N201	N	1.148920	0.378010	-0.463602
N202	N	1.648920	0.878010	0.036398
C203	C	1.111813	1.032228	-0.178226
C204	C	1.611813	1.532228	0.321774
N205	N	1.149134	1.057989	-0.143725
N206	N	1.649134	1.557989	0.356275
C207	C	0.883912	0.701276	-0.280607
C208	C	1.383912	1.201276	0.219393
N209	N	0.831353	0.676093	-0.286506
N210	N	1.331353	1.176093	0.213494
C211	C	0.605331	0.364458	-0.364279
C212	C	1.105331	0.864458	0.135721
N213	N	0.574892	0.398811	-0.398494
N214	N	1.074892	0.898811	0.101506
C215	C	1.111663	0.346045	-0.895673
C216	C	1.611663	0.846045	-0.395673
N217	N	1.148956	0.377902	-0.867242
N218	N	1.648956	0.877902	-0.367242
C219	C	1.150342	0.270919	-0.829916
C220	C	1.650342	0.770919	-0.329916
N221	N	1.202884	0.273135	-0.855162
N222	N	1.702884	0.773135	-0.355162
C223	C	0.759688	0.358907	-0.358755
C224	C	1.259688	0.858907	0.141245
N225	N	0.790147	0.391062	-0.390796
N226	N	1.290147	0.891062	0.109204
H227	H	0.285734	0.328625	-0.328620
H228	H	0.785734	0.828625	0.171380
H229	H	0.615802	0.207016	-0.207356
H230	H	1.115802	0.707016	0.292644
C231	C	1.150337	0.270950	-0.692511
C232	C	1.650337	0.770950	-0.192511
N233	N	1.202876	0.273174	-0.663550
N234	N	1.702876	0.773174	-0.163550
C235	C	1.111534	0.346208	-0.629450
C236	C	1.611534	0.846208	-0.129450
N237	N	1.148699	0.378169	-0.655237
N238	N	1.648699	0.878169	-0.155237
H239	H	1.098886	0.904636	-0.190099
H240	H	1.598886	1.404636	0.309901
C241	C	0.883973	0.838679	-0.280646
C242	C	1.383973	1.338679	0.219354
N243	N	0.831438	0.867702	-0.286576
N244	N	1.331438	1.367702	0.213424
C245	C	0.429548	0.166406	-0.166912
C246	C	0.929548	0.666406	0.333088
N247	N	0.459991	0.132061	-0.132691
N248	N	0.959991	0.632061	0.367309
