data_functionalizedCrystal
_audit_creation_method	'MofGen! by Chris Wilmer'
_symmetry_space_group_name_H-M	'P1'
_symmetry_Int_Tables_number	1
_symmetry_cell_setting	triclinic
loop_
_symmetry_equiv_pos_as_xyz
  x,y,z
_cell_length_a	14.971486
_cell_length_b	14.519709
_cell_length_c	13.448316
_cell_angle_alpha	89.992453
_cell_angle_beta	89.998199
_cell_angle_gamma	83.647137
loop_
_atom_site_label
_atom_site_type_symbol
_atom_site_fract_x
_atom_site_fract_y
_atom_site_fract_z
O1	O	1.187015	0.120184	-0.082580
O2	O	1.687015	0.620184	0.417420
O3	O	0.926623	0.134576	-0.082607
O4	O	1.426623	0.634576	0.417393
O5	O	1.063723	-0.006863	-0.082584
O6	O	1.563723	0.493137	0.417416
O7	O	1.049915	0.261623	-0.082603
O8	O	1.549915	0.761623	0.417397
O9	O	1.063706	-0.006871	0.082800
O10	O	1.563706	0.493129	0.582800
O11	O	0.926606	0.134567	0.082777
O12	O	1.426606	0.634567	0.582777
O13	O	1.186998	0.120175	0.082804
O14	O	1.686998	0.620175	0.582804
Cu15	Cu	1.056800	0.127371	0.097891
Cu16	Cu	1.556800	0.627371	0.597891
Cu17	Cu	1.056820	0.127381	-0.097694
Cu18	Cu	1.556820	0.627381	0.402306
O19	O	1.049898	0.261614	0.082781
O20	O	1.549898	0.761614	0.582781
C21	C	0.893289	0.133928	0.000082
C22	C	1.393289	0.633928	0.500082
C23	C	0.793991	0.131999	0.000071
C24	C	1.293991	0.631999	0.500071
C25	C	0.736812	0.215091	0.000067
C26	C	1.236812	0.715091	0.500067
C27	C	0.643512	0.213273	0.000082
C28	C	1.143512	0.713273	0.500082
C29	C	0.607392	0.128363	0.000094
C30	C	1.107392	0.628363	0.500094
C31	C	0.664578	0.045265	0.000102
C32	C	1.164578	0.545265	0.500102
C33	C	0.757876	0.047084	0.000094
C34	C	1.257876	0.547084	0.500094
C35	C	0.470113	0.041480	0.000116
C36	C	0.970113	0.541480	0.500116
C37	C	0.376808	0.039661	0.000122
C38	C	0.876808	0.539661	0.500122
C39	C	0.355749	0.207669	0.000104
C40	C	0.855749	0.707669	0.500104
C41	C	0.449047	0.209488	0.000096
C42	C	0.949047	0.709488	0.500096
C43	C	0.506227	0.126390	0.000101
C44	C	1.006227	0.626390	0.500101
C45	C	1.063071	-0.041226	0.000108
C46	C	1.563071	0.458774	0.500108
C47	C	1.061142	-0.143606	0.000109
C48	C	1.561142	0.356394	0.500109
C49	C	1.054043	-0.518498	0.000082
C50	C	1.554043	-0.018498	0.500082
C51	C	1.056015	-0.414191	0.000090
C52	C	1.556015	0.085809	0.500090
C53	C	1.057593	-0.331055	0.000096
C54	C	1.557593	0.168945	0.500096
C55	C	1.059564	-0.226742	0.000102
C56	C	1.559564	0.273258	0.500102
C57	C	1.220331	0.120823	0.000113
C58	C	1.720331	0.620823	0.500113
C59	C	1.319630	0.122752	0.000117
C60	C	1.819630	0.622752	0.500117
C61	C	1.050550	0.295978	0.000087
C62	C	1.550550	0.795978	0.500087
C63	C	1.052478	0.398358	0.000080
C64	C	1.552478	0.898358	0.500080
N65	N	1.056792	0.127363	0.235456
N66	N	1.556792	0.627363	0.735456
N67	N	1.056835	0.127381	-0.235258
N68	N	1.556835	0.627381	0.264742
C69	C	1.117519	0.064759	0.287506
C70	C	1.617519	0.564759	0.787506
C71	C	1.117525	0.064759	0.391610
C72	C	1.617525	0.564759	0.891610
C73	C	1.056807	0.127366	0.443660
C74	C	1.556807	0.627366	0.943660
C75	C	0.996074	0.189973	0.391602
C76	C	1.496074	0.689973	0.891602
C77	C	0.996065	0.189968	0.287501
C78	C	1.496065	0.689968	0.787501
C79	C	0.996099	0.189979	0.608582
C80	C	1.496099	0.689979	1.108582
C81	C	0.996109	0.189985	0.712691
C82	C	1.496109	0.689985	1.212691
C83	C	1.117559	0.064769	0.712691
C84	C	1.617559	0.564769	1.212691
C85	C	1.117549	0.064765	0.608590
C86	C	1.617549	0.564765	1.108590
C87	C	1.056817	0.127373	0.556539
C88	C	1.556817	0.627373	1.056539
H89	H	0.478453	0.278629	0.000076
H90	H	0.978453	0.778629	0.500076
H91	H	0.596960	0.280934	0.000077
H92	H	1.096960	0.780934	0.500077
C93	C	0.624853	-0.048137	0.000114
C94	C	1.124853	0.451863	0.500114
H95	H	0.672271	-0.097363	0.000124
H96	H	1.172271	0.402637	0.500124
H97	H	0.588893	-0.052336	-0.057556
H98	H	1.088893	0.447664	0.442444
H99	H	0.588897	-0.052341	0.057797
H100	H	1.088897	0.447659	0.557797
C101	C	0.820773	-0.044317	0.000089
C102	C	1.320773	0.455683	0.500089
H103	H	0.785900	-0.095147	0.000087
H104	H	1.285900	0.404853	0.500087
H105	H	0.857612	-0.047105	0.057757
H106	H	1.357612	0.452895	0.557757
H107	H	0.857601	-0.047092	-0.057596
H108	H	1.357601	0.452908	0.442404
H109	H	0.946614	0.240945	0.245122
H110	H	1.446614	0.740945	0.745122
C111	C	0.292856	0.299075	0.000100
C112	C	0.792856	0.799075	0.500100
H113	H	0.232117	0.285834	0.000118
H114	H	0.732117	0.785834	0.500118
H115	H	0.303815	0.333887	-0.057580
H116	H	0.803815	0.833887	0.442420
H117	H	0.303823	0.333888	0.057773
H118	H	0.803823	0.833888	0.557773
H119	H	0.347403	-0.029481	0.000133
H120	H	0.847403	0.470519	0.500133
C121	C	1.184336	-0.004102	0.551335
C122	C	1.684336	0.495898	1.051335
H123	H	1.220502	-0.041395	0.597243
H124	H	1.720502	0.458605	1.097243
H125	H	1.221613	0.029135	0.510710
H126	H	1.721613	0.529135	1.010710
H127	H	1.152090	-0.042550	0.510741
H128	H	1.652090	0.457450	1.010741
H129	H	1.167009	0.013792	0.755077
H130	H	1.667009	0.513792	1.255077
C131	C	0.776536	0.308493	0.000053
C132	C	1.276536	0.808493	0.500053
H133	H	0.729117	0.357718	0.000061
H134	H	1.229117	0.857718	0.500061
H135	H	0.812492	0.312700	-0.057623
H136	H	1.312492	0.812700	0.442377
H137	H	0.812495	0.312691	0.057730
H138	H	1.312495	0.812691	0.557730
H139	H	0.516667	-0.026188	0.000122
H140	H	1.016667	0.473812	0.500122
H141	H	0.946641	0.240958	0.566206
H142	H	1.446641	0.740958	1.066206
C143	C	1.184308	-0.004111	0.230260
C144	C	1.684308	0.495889	0.730260
H145	H	1.220469	-0.041401	0.276173
H146	H	1.720469	0.458599	0.776173
H147	H	1.221589	0.029122	0.189636
H148	H	1.721589	0.529122	0.689636
H149	H	1.152064	-0.042562	0.189665
H150	H	1.652064	0.457438	0.689665
C151	C	0.929264	0.258792	0.769945
C152	C	1.429264	0.758792	1.269945
H153	H	0.893069	0.296053	0.724038
H154	H	1.393069	0.796053	1.224038
H155	H	0.961445	0.297264	0.810574
H156	H	1.461445	0.797264	1.310574
H157	H	0.892011	0.225487	0.810535
H158	H	1.392011	0.725487	1.310535
C159	C	0.929257	0.258814	0.448850
C160	C	1.429257	0.758814	0.948850
H161	H	0.893076	0.296084	0.402938
H162	H	1.393076	0.796084	0.902938
H163	H	0.961466	0.297273	0.489463
H164	H	1.461466	0.797273	0.989463
H165	H	0.891986	0.225543	0.489456
H166	H	1.391986	0.725543	0.989456
H167	H	1.166972	0.013782	0.433989
H168	H	1.666972	0.513782	0.933989
