data_functionalizedCrystal
_audit_creation_method	'MofGen! by Chris Wilmer'
_symmetry_space_group_name_H-M	'P1'
_symmetry_Int_Tables_number	1
_symmetry_cell_setting	triclinic
loop_
_symmetry_equiv_pos_as_xyz
  x,y,z
_cell_length_a	10.489746
_cell_length_b	10.489716
_cell_length_c	7.540329
_cell_angle_alpha	90.000832
_cell_angle_beta	90.001313
_cell_angle_gamma	84.535218
loop_
_atom_site_label
_atom_site_type_symbol
_atom_site_fract_x
_atom_site_fract_y
_atom_site_fract_z
O1	O	1.694029	0.179999	-0.147346
O2	O	1.322833	0.196885	-0.147374
O3	O	1.516893	0.002842	-0.147365
O4	O	1.499968	0.374042	-0.147354
O5	O	1.516887	0.002841	0.147600
O6	O	1.322826	0.196884	0.147591
O7	O	1.694022	0.179998	0.147619
Cu8	Cu	1.508423	0.188441	0.174538
Cu9	Cu	1.508431	0.188442	-0.174292
O10	O	1.499961	0.374040	0.147611
C11	C	1.275298	0.195608	0.000105
C12	C	1.133669	0.191788	0.000093
C13	C	0.980822	0.066063	0.000115
C14	C	1.058207	0.128920	0.145545
C15	C	1.058169	0.128950	-0.145268
C16	C	0.958705	0.247902	0.145687
C17	C	0.958662	0.247916	-0.145256
C18	C	1.035998	0.310860	0.000209
C19	C	1.515618	-0.044690	0.000112
C20	C	1.511814	-0.186322	0.000095
C21	C	1.630818	-0.283993	0.000120
C22	C	1.567937	-0.361354	-0.145313
C23	C	1.567903	-0.361320	0.145499
C24	C	1.448982	-0.261817	-0.145458
C25	C	1.448966	-0.261777	0.145485
C26	C	1.385997	-0.339089	0.000016
C27	C	1.741557	0.181275	0.000137
C28	C	1.883186	0.185095	0.000137
C29	C	1.501236	0.421573	0.000130
C30	C	1.505041	0.563204	0.000135
N31	N	1.508427	0.188439	0.419886
N32	N	1.508438	0.188434	-0.419641
H33	H	1.060465	0.414440	0.000292
H34	H	1.398776	-0.218514	-0.268547
H35	H	1.101619	0.078679	-0.268221
C36	C	1.246057	-0.372111	-0.000091
C37	C	1.156284	-0.327296	-0.154065
C38	C	1.016347	-0.360321	-0.154182
C39	C	0.966184	-0.438162	-0.000325
C40	C	1.055959	-0.482982	0.153659
C41	C	1.195896	-0.449957	0.153776
H42	H	1.193416	-0.269669	-0.267969
H43	H	0.949890	-0.327142	-0.268172
H44	H	0.862594	-0.462609	-0.000412
H45	H	1.018827	-0.540609	0.267563
H46	H	1.262353	-0.483136	0.267767
H47	H	1.398770	-0.218261	0.268437
C48	C	1.635785	-0.420037	0.311610
C49	C	1.778352	-0.403880	0.343524
C50	C	1.846245	-0.462593	0.509625
C51	C	1.771571	-0.537464	0.643812
C52	C	1.628996	-0.553625	0.611902
C53	C	1.561103	-0.494912	0.445801
H54	H	1.833638	-0.348452	0.244188
H55	H	1.951789	-0.450629	0.533247
H56	H	1.821830	-0.580927	0.766770
H57	H	1.573711	-0.609052	0.711238
H58	H	1.455559	-0.506876	0.422180
H59	H	1.734331	-0.259315	-0.000020
H60	H	0.956111	-0.037440	0.000258
H61	H	1.101685	0.078670	0.268496
H62	H	0.915419	0.298117	0.268779
H63	H	0.915160	0.298121	-0.268212
H64	H	1.618176	-0.404848	-0.268261
