data_functionalizedCrystal
_audit_creation_method	'MofGen! by Chris Wilmer'
_symmetry_space_group_name_H-M	'P1'
_symmetry_Int_Tables_number	1
_symmetry_cell_setting	triclinic
loop_
_symmetry_equiv_pos_as_xyz
  x,y,z
_cell_length_a	16.625547
_cell_length_b	18.101397
_cell_length_c	16.625539
_cell_angle_alpha	90.029990
_cell_angle_beta	90.021309
_cell_angle_gamma	90.020402
loop_
_atom_site_label
_atom_site_type_symbol
_atom_site_fract_x
_atom_site_fract_y
_atom_site_fract_z
Zn1	Zn	1.232664	-0.294843	0.455981
Zn2	Zn	1.732664	0.205157	0.955981
Zn3	Zn	1.232580	-0.418688	0.321140
Zn4	Zn	1.732580	0.081312	0.821140
Zn5	Zn	1.097834	-0.294865	0.321151
Zn6	Zn	1.597834	0.205135	0.821151
Zn7	Zn	1.097801	-0.418647	0.455920
Zn8	Zn	1.597801	0.081353	0.955920
O9	O	1.165220	-0.356761	0.388548
O10	O	1.665220	0.143239	0.888548
O11	O	1.345485	-0.311279	0.438115
O12	O	1.845485	0.188721	0.938115
O13	O	1.214684	-0.402289	0.208309
O14	O	1.714684	0.097711	0.708309
O15	O	1.115768	-0.191229	0.339067
O16	O	1.615768	0.308771	0.839067
O17	O	1.345423	-0.402268	0.339048
O18	O	1.845423	0.097732	0.839048
O19	O	1.214827	-0.191213	0.438126
O20	O	1.714827	0.308787	0.938126
O21	O	1.115687	-0.311316	0.208317
O22	O	1.615687	0.188684	0.708317
O23	O	0.984997	-0.311277	0.339008
O24	O	1.484997	0.188723	0.839008
O25	O	1.115712	-0.402198	0.568760
O26	O	1.615712	0.097802	1.068760
O27	O	0.984973	-0.402219	0.438022
O28	O	1.484973	0.097781	0.938022
O29	O	1.214795	-0.311240	0.568805
O30	O	1.714795	0.188760	1.068805
O31	O	1.214652	-0.522316	0.338988
O32	O	1.714652	-0.022316	0.838988
O33	O	1.115631	-0.522286	0.438010
O34	O	1.615631	-0.022286	0.938010
C35	C	0.955729	-0.356746	0.388510
C36	C	1.455729	0.143254	0.888510
C37	C	0.866108	-0.356758	0.388513
C38	C	1.366108	0.143242	0.888513
C39	C	1.165151	-0.549171	0.388509
C40	C	1.665151	-0.049171	0.888509
C41	C	1.165195	-0.631485	0.388519
C42	C	1.665195	-0.131485	0.888519
C43	C	0.793325	-0.356760	0.388523
C44	C	1.293325	0.143240	0.888523
C45	C	0.702017	-0.356763	0.388543
C46	C	1.202017	0.143237	0.888543
C47	C	0.629240	-0.356770	0.388563
C48	C	1.129240	0.143230	0.888563
C49	C	0.537926	-0.356775	0.388583
C50	C	1.037926	0.143225	0.888583
C51	C	1.165298	-0.930576	0.388593
C52	C	1.665298	-0.430576	0.888593
C53	C	1.227426	-0.899239	0.326124
C54	C	1.727426	-0.399239	0.826124
C55	C	1.227641	-0.813621	0.326286
C56	C	1.727641	-0.313621	0.826286
C57	C	1.165247	-0.782194	0.388556
C58	C	1.665247	-0.282194	0.888556
C59	C	1.188278	-0.813202	0.473547
C60	C	1.688278	-0.313202	0.973547
C61	C	1.188759	-0.898847	0.473207
C62	C	1.688759	-0.398847	0.973207
C63	C	1.079973	-0.899085	0.366805
C64	C	1.579973	-0.399085	0.866805
C65	C	1.080394	-0.813436	0.364908
C66	C	1.580394	-0.313436	0.864908
C67	C	1.165216	-0.698334	0.388540
C68	C	1.665216	-0.198334	0.888540
C69	C	1.165330	-1.014436	0.388614
C70	C	1.665330	-0.514436	0.888614
C71	C	1.375528	-0.356776	0.388587
C72	C	1.875528	0.143224	0.888587
C73	C	1.465150	-0.356782	0.388603
C74	C	1.965150	0.143218	0.888603
C75	C	1.165259	-0.356712	0.598857
C76	C	1.665259	0.143288	1.098857
C77	C	1.165276	-0.356691	0.688478
C78	C	1.665276	0.143309	1.188478
C79	C	1.165311	-0.163599	0.388605
C80	C	1.665311	0.336401	0.888605
C81	C	1.165350	-0.081285	0.388629
C82	C	1.665350	0.418715	0.888629
C83	C	1.165227	-0.356756	0.179057
C84	C	1.665227	0.143244	0.679057
C85	C	1.165366	-0.356568	0.089437
C86	C	1.665366	0.143432	0.589437
C87	C	1.165289	-0.356675	0.761261
C88	C	1.665289	0.143325	1.261261
C89	C	1.165308	-0.356647	0.852569
C90	C	1.665308	0.143353	1.352569
C91	C	1.165327	-0.356621	0.925346
C92	C	1.665327	0.143379	1.425346
C93	C	1.165347	-0.356594	1.016660
C94	C	1.665347	0.143406	1.516660
H95	H	1.213233	-0.792658	0.263266
H96	H	1.713233	-0.292658	0.763266
H97	H	1.033683	-0.919351	0.412304
H98	H	1.533683	-0.419351	0.912304
N99	N	1.019205	-0.786603	0.417809
N100	N	1.519205	-0.286603	0.917809
N101	N	1.037219	-0.743831	0.474054
N102	N	1.537219	-0.243831	0.974054
H103	H	0.994006	-0.724881	0.511422
H104	H	1.494006	-0.224881	1.011422
H105	H	1.063028	-0.793176	0.302361
H106	H	1.563028	-0.293176	0.802361
H107	H	1.144410	-0.792843	0.521344
H108	H	1.644410	-0.292843	1.021344
H109	H	1.249948	-0.791695	0.492314
H110	H	1.749948	-0.291695	0.992314
H111	H	1.059020	-0.920745	0.305904
H112	H	1.559020	-0.420745	0.805904
H113	H	1.251127	-0.918766	0.491662
H114	H	1.751127	-0.418766	0.991662
N115	N	1.209585	-0.925129	0.246822
N116	N	1.709585	-0.425129	0.746822
N117	N	1.194108	-0.880013	0.192073
N118	N	1.694108	-0.380013	0.692073
H119	H	1.181505	-0.898300	0.136064
H120	H	1.681505	-0.398300	0.636064
H121	H	1.290845	-0.793077	0.340701
H122	H	1.790845	-0.293077	0.840701
N123	N	1.306278	-0.926175	0.344004
N124	N	1.806278	-0.426175	0.844004
N125	N	1.316917	-0.968350	0.402555
N126	N	1.816917	-0.468350	0.902555
H127	H	1.372606	-0.987376	0.415186
H128	H	1.872606	-0.487376	0.915186
N129	N	1.134450	-0.924843	0.533586
N130	N	1.634450	-0.424843	1.033586
N131	N	1.096319	-0.879731	0.575844
N132	N	1.596319	-0.379731	1.075844
H133	H	1.057965	-0.898087	0.618488
H134	H	1.557965	-0.398087	1.118488
