data_functionalizedCrystal
_audit_creation_method	'MofGen! by Chris Wilmer'
_symmetry_space_group_name_H-M	'P1'
_symmetry_Int_Tables_number	1
_symmetry_cell_setting	triclinic
loop_
_symmetry_equiv_pos_as_xyz
  x,y,z
_cell_length_a	17.000383
_cell_length_b	17.699083
_cell_length_c	16.776229
_cell_angle_alpha	89.998901
_cell_angle_beta	89.999874
_cell_angle_gamma	79.441659
loop_
_atom_site_label
_atom_site_type_symbol
_atom_site_fract_x
_atom_site_fract_y
_atom_site_fract_z
O1	O	0.100660	0.997557	-0.066175
O2	O	0.113757	0.776330	-0.066201
O3	O	-0.008684	0.900679	-0.066184
O4	O	0.223101	0.873208	-0.066193
O5	O	-0.008678	0.900662	0.066393
O6	O	0.113764	0.776313	0.066375
O7	O	0.100667	0.997540	0.066401
Zn8	Zn	0.107216	0.886923	0.087438
Zn9	Zn	0.107208	0.886946	-0.087238
O10	O	0.223108	0.873191	0.066383
C11	C	0.113291	0.748155	0.000084
C12	C	0.111883	0.664228	0.000074
C13	C	-0.038337	0.902146	0.000104
C14	C	-0.126704	0.906533	0.000102
C15	C	0.183754	0.610950	0.000071
C16	C	0.182426	0.532093	0.000081
C17	C	0.109227	0.506515	0.000089
C18	C	0.037351	0.559799	0.000094
C19	C	0.038680	0.638655	0.000089
C20	C	0.031992	0.241783	0.000114
C21	C	0.030669	0.162921	0.000116
C22	C	0.175739	0.135221	0.000106
C23	C	0.177067	0.214077	0.000101
C24	C	0.105192	0.267354	0.000111
C25	C	0.106632	0.352860	0.000101
C26	C	0.107786	0.421011	0.000093
C27	C	-0.626976	0.934861	0.000102
C28	C	-0.543945	0.930733	0.000106
C29	C	-0.492812	0.859080	0.000094
C30	C	-0.524713	0.791551	0.000086
C31	C	-0.607742	0.795680	0.000087
C32	C	-0.241635	0.843133	0.000095
C33	C	-0.158600	0.839009	0.000091
C34	C	-0.177838	0.978191	0.000113
C35	C	-0.260868	0.982313	0.000109
C36	C	-0.292762	0.914785	0.000105
C37	C	-0.407940	0.854859	0.000096
C38	C	-0.377632	0.919007	0.000109
C39	C	0.252761	0.871724	0.000094
C40	C	0.341128	0.867337	0.000091
C41	C	0.101133	1.025715	0.000114
C42	C	0.102541	1.109642	0.000119
N43	N	0.107221	0.886913	0.206649
N44	N	0.107196	0.886963	-0.206449
C45	C	0.052999	0.942029	0.751821
C46	C	0.053004	0.942025	0.668369
C47	C	0.107204	0.886951	0.626648
C48	C	0.161407	0.831881	0.668384
C49	C	0.161405	0.831889	0.751834
C50	C	0.161419	0.831848	0.331836
C51	C	0.161416	0.831843	0.248380
C52	C	0.053019	0.941984	0.248371
C53	C	0.053016	0.941992	0.331822
C54	C	0.107222	0.886926	0.373550
C55	C	0.107216	0.886932	0.464039
C56	C	0.107207	0.886941	0.536161
H57	H	0.240950	0.488716	0.000078
C58	C	-0.006623	1.002614	0.797710
C59	C	-0.066226	1.063197	0.751803
C60	C	-0.125848	1.123786	0.797689
C61	C	-0.125867	1.123791	0.889482
C62	C	-0.066262	1.063205	0.935394
C63	C	-0.006640	1.002617	0.889508
H64	H	-0.066214	1.063195	0.683849
H65	H	-0.169972	1.168635	0.763702
H66	H	-0.170003	1.168642	0.923449
H67	H	-0.066274	1.063207	1.003348
H68	H	0.037483	0.957768	0.923495
C69	C	-0.317109	1.061135	0.000125
C70	C	-0.313623	1.117966	0.068978
C71	C	-0.369862	1.196790	0.068989
C72	C	-0.429587	1.218782	0.000147
C73	C	-0.433075	1.161950	-0.068711
C74	C	-0.376836	1.083126	-0.068722
H75	H	-0.269409	1.101688	0.119943
H76	H	-0.367280	1.238861	0.119962
H77	H	-0.471218	1.277132	0.000155
H78	H	-0.477289	1.178229	-0.119677
H79	H	-0.379418	1.041055	-0.119696
H80	H	-0.022249	0.538968	0.000111
H81	H	0.205542	0.787040	0.634410
C82	C	0.221022	0.771313	0.797740
C83	C	0.280639	0.710730	0.751851
C84	C	0.340261	0.650155	0.797755
C85	C	0.340265	0.650162	0.889547
C86	C	0.280645	0.710748	0.935441
C87	C	0.221023	0.771323	0.889537
H88	H	0.280638	0.710723	0.683896
H89	H	0.384396	0.605306	0.763781
H90	H	0.384401	0.605321	0.923528
H91	H	0.280646	0.710755	1.003396
H92	H	0.176889	0.816172	0.923511
C93	C	-0.468467	0.712732	0.000070
C94	C	-0.471956	0.655903	-0.068784
C95	C	-0.415712	0.577083	-0.068803
C96	C	-0.355978	0.555091	0.000031
C97	C	-0.352486	0.611922	0.068890
C98	C	-0.408731	0.690742	0.068910
H99	H	-0.516177	0.672181	-0.119744
H100	H	-0.418297	0.535013	-0.119778
H101	H	-0.314342	0.496744	0.000017
H102	H	-0.308266	0.595644	0.119850
H103	H	-0.406146	0.732812	0.119884
C104	C	0.221035	0.771273	0.377735
C105	C	0.280650	0.710687	0.331847
C106	C	0.340268	0.650108	0.377752
C107	C	0.340271	0.650116	0.469544
C108	C	0.280653	0.710704	0.515437
C109	C	0.221036	0.771283	0.469533
H110	H	0.280650	0.710679	0.263892
H111	H	0.384400	0.605257	0.343778
H112	H	0.384403	0.605272	0.503526
H113	H	0.280653	0.710712	0.583392
H114	H	0.176903	0.816134	0.503506
H115	H	-0.633710	0.740695	0.000085
H116	H	-0.267593	0.788146	0.000082
H117	H	-0.366298	0.796519	0.000083
C118	C	-0.006615	1.002595	0.622462
C119	C	-0.097264	1.007357	0.633929
C120	C	-0.156885	1.067929	0.588021
C121	C	-0.125857	1.123740	0.530646
C122	C	-0.035204	1.118981	0.519176
C123	C	0.024417	1.058408	0.565085
H124	H	-0.120237	0.966040	0.676404
H125	H	-0.223992	1.071452	0.596511
H126	H	-0.169992	1.168580	0.496661
H127	H	-0.012231	1.160297	0.476702
H128	H	0.091525	1.054885	0.556594
H129	H	0.236673	0.234897	0.000092
H130	H	0.243361	0.631768	0.000064
C131	C	-0.433876	0.997823	0.000121
C132	C	-0.430400	1.054660	0.068970
C133	C	-0.486652	1.133476	0.068979
C134	C	-0.546381	1.155455	0.000138
C135	C	-0.549860	1.098617	-0.068716
C136	C	-0.493607	1.019801	-0.068725
H137	H	-0.386183	1.038391	0.119935
H138	H	-0.484077	1.175552	0.119950
H139	H	-0.588022	1.213800	0.000144
H140	H	-0.594076	1.114886	-0.119681
H141	H	-0.496183	0.977725	-0.119696
H142	H	0.234263	0.091833	0.000103
H143	H	0.008879	0.986837	0.365789
H144	H	-0.028941	0.142100	0.000123
H145	H	-0.116968	0.780658	0.000083
H146	H	-0.026533	0.285153	0.000122
H147	H	-0.019845	0.682034	0.000091
H148	H	-0.151861	1.033169	0.000110
H149	H	-0.668604	0.993208	0.000105
H150	H	-0.517980	0.985718	0.000116
H151	H	0.008884	0.986825	0.214387
H152	H	0.205555	0.786993	0.214412
