data_functionalizedCrystal
_audit_creation_method	'MofGen! by Chris Wilmer'
_symmetry_space_group_name_H-M	'P1'
_symmetry_Int_Tables_number	1
_symmetry_cell_setting	triclinic
loop_
_symmetry_equiv_pos_as_xyz
  x,y,z
_cell_length_a	12.594517
_cell_length_b	12.594516
_cell_length_c	12.759393
_cell_angle_alpha	90.028050
_cell_angle_beta	90.016035
_cell_angle_gamma	90.016010
loop_
_atom_site_label
_atom_site_type_symbol
_atom_site_fract_x
_atom_site_fract_y
_atom_site_fract_z
Zn1	Zn	1.627285	-0.423692	0.593901
Zn2	Zn	1.627171	-0.601708	0.418228
Zn3	Zn	1.449284	-0.423744	0.418251
Zn4	Zn	1.449271	-0.601629	0.593880
O5	O	1.538253	-0.512693	0.506065
O6	O	1.776216	-0.447318	0.570596
O7	O	1.603531	-0.578155	0.271210
O8	O	1.472949	-0.274791	0.441569
O9	O	1.776131	-0.578105	0.441530
O10	O	1.603726	-0.274753	0.570618
O11	O	1.472838	-0.447406	0.271227
O12	O	1.300336	-0.447329	0.441549
O13	O	1.472928	-0.577970	0.740904
O14	O	1.300327	-0.578020	0.570584
O15	O	1.603714	-0.447241	0.740919
O16	O	1.603519	-0.750643	0.441511
O17	O	1.472817	-0.750585	0.570562
C18	C	1.261712	-0.512672	0.506067
C19	C	1.143406	-0.512689	0.506093
C20	C	1.003415	-0.583901	0.576145
C21	C	1.074183	-0.609812	0.480260
C22	C	1.074210	-0.486826	0.601968
C23	C	1.003388	-0.538685	0.410126
C24	C	1.003409	-0.415654	0.531899
C25	C	1.074145	-0.441527	0.435948
C26	C	1.538183	-0.789234	0.506055
C27	C	1.538250	-0.907539	0.506085
C28	C	1.467155	-0.976800	0.576227
C29	C	1.441218	-1.047668	0.480362
C30	C	1.564284	-1.047470	0.601967
C31	C	1.512263	-0.976850	0.410170
C32	C	1.635373	-0.976645	0.531839
C33	C	1.609474	-1.047482	0.435908
C34	C	1.815873	-0.512714	0.506063
C35	C	1.934179	-0.512724	0.506062
C36	C	1.538332	-0.512591	0.780098
C37	C	1.538366	-0.512547	0.896875
C38	C	1.538352	-0.235072	0.506098
C39	C	1.538394	-0.116767	0.506112
C40	C	1.538234	-0.512718	0.233098
C41	C	1.538407	-0.512462	0.116321
C42	C	1.606472	-0.444466	0.951746
C43	C	1.606490	-0.444420	1.061471
C44	C	1.470294	-0.580546	1.061442
C45	C	1.470271	-0.580586	0.951720
H46	H	0.972359	-0.644154	0.635324
H47	H	0.972410	-0.560674	0.329010
C48	C	1.681413	-0.369527	1.121824
N49	N	1.737850	-0.313114	1.167282
C50	C	1.385787	-0.934859	0.656239
N51	N	1.324499	-0.903266	0.716498
H52	H	1.414856	-0.635943	1.106111
C53	C	0.961369	-0.304808	0.561455
N54	N	0.929700	-0.221319	0.583729
C55	C	1.116179	-0.720692	0.450742
N56	N	1.147804	-0.804210	0.428514
C57	C	1.115840	-0.360190	0.355808
N58	N	1.147247	-0.298932	0.295445
H59	H	1.414804	-0.636025	0.907043
H60	H	1.359150	-1.078888	0.458601
C61	C	1.116233	-0.457249	0.711522
N62	N	1.147880	-0.434979	0.794040
C63	C	1.690777	-1.089155	0.355699
N64	N	1.752010	-1.120546	0.295282
C65	C	1.746210	-0.934450	0.561309
N66	N	1.829689	-0.902661	0.583519
H67	H	1.490207	-0.945957	0.329073
H68	H	1.586245	-1.078491	0.683042
H69	H	1.661916	-0.389061	0.907095
