data_functionalizedCrystal
_audit_creation_method	'MofGen! by Chris Wilmer'
_symmetry_space_group_name_H-M	'P1'
_symmetry_Int_Tables_number	1
_symmetry_cell_setting	triclinic
loop_
_symmetry_equiv_pos_as_xyz
  x,y,z
_cell_length_a	13.897449
_cell_length_b	13.897448
_cell_length_c	11.169409
_cell_angle_alpha	89.964424
_cell_angle_beta	89.977985
_cell_angle_gamma	90.018972
loop_
_atom_site_label
_atom_site_type_symbol
_atom_site_fract_x
_atom_site_fract_y
_atom_site_fract_z
Zn1	Zn	1.474715	-0.383904	-0.678586
Zn2	Zn	1.808048	-0.050570	-0.345253
Zn3	Zn	2.141381	0.282763	-0.011919
Zn4	Zn	1.474605	-0.545240	-0.477891
Zn5	Zn	1.807939	-0.211906	-0.144558
Zn6	Zn	2.141272	0.121427	0.188775
Zn7	Zn	1.313400	-0.383964	-0.477913
Zn8	Zn	1.646734	-0.050630	-0.144579
Zn9	Zn	1.980067	0.282703	0.188754
Zn10	Zn	1.313386	-0.545162	-0.678529
Zn11	Zn	1.646719	-0.211829	-0.345195
Zn12	Zn	1.980052	0.121505	-0.011862
O13	O	1.394027	-0.464567	-0.578230
O14	O	1.727360	-0.131234	-0.244896
O15	O	2.060693	0.202099	0.088437
O16	O	1.609682	-0.405313	-0.651978
O17	O	1.943015	-0.071979	-0.318645
O18	O	2.276349	0.261354	0.014688
O19	O	1.453181	-0.523903	-0.309944
O20	O	1.786515	-0.190570	0.023389
O21	O	2.119848	0.142763	0.356722
O22	O	1.334851	-0.248974	-0.504565
O23	O	1.668184	0.084359	-0.171232
O24	O	2.001518	0.417692	0.162102
O25	O	1.609601	-0.523845	-0.504529
O26	O	1.942935	-0.190512	-0.171196
O27	O	2.276268	0.142821	0.162138
O28	O	1.453368	-0.248930	-0.651999
O29	O	1.786701	0.084403	-0.318666
O30	O	2.120035	0.417737	0.014668
O31	O	1.334745	-0.405415	-0.309960
O32	O	1.668078	-0.072081	0.023373
O33	O	2.001411	0.261252	0.356707
O34	O	1.178417	-0.405340	-0.504510
O35	O	1.511750	-0.072006	-0.171176
O36	O	1.845083	0.261327	0.162157
O37	O	1.334826	-0.523713	-0.846486
O38	O	1.668159	-0.190380	-0.513153
O39	O	2.001493	0.142953	-0.179819
O40	O	1.178406	-0.523772	-0.651901
O41	O	1.511739	-0.190438	-0.318568
O42	O	1.845073	0.142895	0.014765
O43	O	1.453354	-0.405238	-0.846528
O44	O	1.786687	-0.071904	-0.513195
O45	O	2.120021	0.261429	-0.179861
O46	O	1.453167	-0.680211	-0.504474
O47	O	1.786500	-0.346878	-0.171140
O48	O	2.119834	-0.013544	0.162193
O49	O	1.334720	-0.680154	-0.651881
O50	O	1.668053	-0.346821	-0.318548
O51	O	2.001386	-0.013487	0.014786
C52	C	1.143412	-0.464554	-0.578202
C53	C	1.476746	-0.131221	-0.244869
C54	C	1.810079	0.202112	0.088464
C55	C	1.036198	-0.464572	-0.578219
C56	C	1.369532	-0.131239	-0.244886
C57	C	1.702865	0.202094	0.088448
C58	C	0.839903	-0.464576	-0.578251
C59	C	1.173236	-0.131242	-0.244917
C60	C	1.506570	0.202091	0.088416
C61	C	0.949136	-0.464571	-0.578230
C62	C	1.282469	-0.131237	-0.244896
C63	C	1.615802	0.202096	0.088437
C64	C	1.393956	-0.715182	-0.578195
C65	C	1.727289	-0.381848	-0.244862
C66	C	2.060623	-0.048515	0.088472
C67	C	1.394014	-0.822396	-0.578220
C68	C	1.727348	-0.489062	-0.244887
C69	C	2.060681	-0.155729	0.088446
C70	C	1.394116	-1.018691	-0.578295
C71	C	1.727449	-0.685357	-0.244962
C72	C	2.060782	-0.352024	0.088371
C73	C	1.394057	-0.909458	-0.578257
C74	C	1.727390	-0.576125	-0.244924
C75	C	2.060723	-0.242791	0.088409
C76	C	1.645619	-0.464581	-0.578258
C77	C	1.978953	-0.131248	-0.244924
C78	C	2.312286	0.202086	0.088409
C79	C	1.752833	-0.464587	-0.578270
C80	C	2.086167	-0.131253	-0.244936
C81	C	2.419500	0.202080	0.088397
C82	C	1.394101	-0.464460	-0.891272
C83	C	1.727434	-0.131127	-0.557939
C84	C	2.060767	0.202206	-0.224606
C85	C	1.394132	-0.464415	-1.024672
C86	C	1.727465	-0.131081	-0.691339
C87	C	2.060799	0.202252	-0.358006
C88	C	1.394123	-0.212974	-0.578291
C89	C	1.727457	0.120359	-0.244957
C90	C	2.060790	0.453692	0.088376
C91	C	1.394165	-0.105760	-0.578317
C92	C	1.727498	0.227573	-0.244984
C93	C	2.060831	0.560906	0.088350
C94	C	1.394008	-0.464604	-0.266405
C95	C	1.727342	-0.131271	0.066928
C96	C	2.060675	0.202062	0.400262
C97	C	1.394164	-0.464378	-0.133006
C98	C	1.727497	-0.131045	0.200328
C99	C	2.060830	0.202288	0.533661
