data_functionalizedCrystal
_audit_creation_method	'MofGen! by Chris Wilmer'
_symmetry_space_group_name_H-M	'P1'
_symmetry_Int_Tables_number	1
_symmetry_cell_setting	triclinic
loop_
_symmetry_equiv_pos_as_xyz
  x,y,z
_cell_length_a	17.640280
_cell_length_b	18.215407
_cell_length_c	18.215399
_cell_angle_alpha	90.017777
_cell_angle_beta	78.775397
_cell_angle_gamma	101.203616
loop_
_atom_site_label
_atom_site_type_symbol
_atom_site_fract_x
_atom_site_fract_y
_atom_site_fract_z
Zn1	Zn	-0.314768	-1.184386	-0.356900
Zn2	Zn	-0.446948	-1.209202	-0.208984
Zn3	Zn	-0.314783	-1.061321	-0.233849
Zn4	Zn	-0.446892	-1.086181	-0.332024
O5	O	-0.380848	-1.135272	-0.282939
O6	O	-0.332319	-1.290665	-0.337283
O7	O	-0.429445	-1.189566	-0.109293
O8	O	-0.204175	-1.056856	-0.270989
O9	O	-0.429431	-1.308897	-0.228610
O10	O	-0.204164	-1.147271	-0.361394
O11	O	-0.332344	-1.080919	-0.127561
O12	O	-0.332290	-0.961631	-0.246867
O13	O	-0.429337	-1.099227	-0.438314
O14	O	-0.429351	-0.979896	-0.318996
O15	O	-0.332265	-1.171377	-0.456590
O16	O	-0.557546	-1.213672	-0.204489
O17	O	-0.557506	-1.123290	-0.294886
C18	C	-0.380817	-0.944060	-0.282931
C19	C	-0.380823	-0.862263	-0.282941
C20	C	-0.330354	-0.664593	-0.339582
C21	C	-0.330358	-0.587735	-0.339583
C22	C	-0.431329	-0.606702	-0.226305
C23	C	-0.431320	-0.683558	-0.226301
C24	C	-0.380834	-0.712501	-0.282944
C25	C	-0.380847	-0.558788	-0.282948
C26	C	-0.380852	-0.475455	-0.282949
C27	C	-0.380828	-0.795839	-0.282943
C28	C	-0.586205	-1.173891	-0.244306
C29	C	-0.674058	-1.190480	-0.227803
C30	C	-0.963026	-1.009552	-0.408577
C31	C	-1.045577	-1.025141	-0.393047
C32	C	-1.045554	-1.119314	-0.299012
C33	C	-0.963001	-1.103736	-0.314537
C34	C	-0.921744	-1.048853	-0.369320
C35	C	-0.921719	-1.143037	-0.275280
C36	C	-0.839173	-1.127457	-0.290801
C37	C	-0.797910	-1.072575	-0.345580
C38	C	-0.839198	-1.033273	-0.384841
C39	C	-0.962978	-1.197916	-0.220493
C40	C	-0.921695	-1.237217	-0.181236
C41	C	-0.839148	-1.221641	-0.196761
C42	C	-0.797885	-1.166759	-0.251539
C43	C	-0.797860	-1.260943	-0.157499
C44	C	-0.715315	-1.245363	-0.173020
C45	C	-0.715340	-1.151179	-0.267061
C46	C	-0.174689	-1.096523	-0.321740
C47	C	-0.086836	-1.080010	-0.338274
C48	C	-0.380793	-1.135307	-0.474903
C49	C	-0.380770	-1.135322	-0.556706
C50	C	-0.380871	-0.327230	-0.282948
C51	C	-0.380858	-0.409026	-0.282951
C52	C	-0.330178	-1.172898	-0.754426
C53	C	-0.330155	-1.172903	-0.831290
C54	C	-0.431240	-1.097774	-0.812246
C55	C	-0.431258	-1.097765	-0.735385
C56	C	-0.380729	-1.135332	-0.706477
C57	C	-0.380687	-1.135345	-0.860201
C58	C	-0.380662	-1.135350	-0.943540
C59	C	-0.380752	-1.135327	-0.623134
C60	C	-0.380845	-1.135270	-0.091734
C61	C	-0.380646	-1.135355	-0.009973
H62	H	-0.472428	-0.722567	-0.180176
H63	H	-0.472381	-1.067190	-0.835793
Br64	Br	-0.499861	-1.046771	-0.670307
Br65	Br	-0.261553	-1.223894	-0.896360
Br66	Br	-0.685883	-1.051614	-0.366833
H67	H	-0.289243	-0.688155	-0.385702
H68	H	-0.289251	-0.548730	-0.385702
H69	H	-0.681746	-1.106493	-0.311676
H70	H	-0.955298	-1.281901	-0.136630
Br71	Br	-0.499844	-0.567417	-0.149438
H72	H	-0.805605	-0.988587	-0.429457
H73	H	-1.079186	-0.993141	-0.425028
Br74	Br	-0.907026	-0.935076	-0.482936
H75	H	-0.831464	-1.305623	-0.112890
H76	H	-1.079157	-1.163998	-0.254406
Br77	Br	-0.261600	-1.223880	-0.715196
H78	H	-0.681703	-1.277366	-0.141052
Br79	Br	-1.075005	-1.219089	-0.199456
