data_functionalizedCrystal
_audit_creation_method	'MofGen! by Chris Wilmer'
_symmetry_space_group_name_H-M	'P1'
_symmetry_Int_Tables_number	1
_symmetry_cell_setting	triclinic
loop_
_symmetry_equiv_pos_as_xyz
  x,y,z
_cell_length_a	8.559649
_cell_length_b	14.853567
_cell_length_c	7.681481
_cell_angle_alpha	84.253558
_cell_angle_beta	94.913240
_cell_angle_gamma	76.706797
loop_
_atom_site_label
_atom_site_type_symbol
_atom_site_fract_x
_atom_site_fract_y
_atom_site_fract_z
O1	O	2.104976	-0.021001	-0.146403
O2	O	1.639875	0.025551	-0.146407
O3	O	1.884849	-0.129824	-0.146410
O4	O	1.860003	0.134373	-0.146400
O5	O	1.915001	-0.148986	0.146447
O6	O	1.670027	0.006388	0.146451
O7	O	2.135128	-0.040164	0.146455
Zn8	Zn	1.907365	-0.019930	0.192950
Zn9	Zn	1.867638	0.005317	-0.192902
O10	O	1.890155	0.115211	0.146458
C11	C	1.595429	0.019498	0.000021
C12	C	1.418072	0.029999	0.000019
C13	C	1.898798	-0.172914	0.000014
C14	C	1.895423	-0.272761	-0.000002
C15	C	1.735645	-0.674122	0.000030
C16	C	2.026680	-0.715759	0.000033
C17	C	2.029851	-0.621946	0.000022
C18	C	1.885917	-0.554217	0.000019
C19	C	1.738812	-0.580300	0.000025
C20	C	2.176955	-0.595857	0.000034
C21	C	2.180132	-0.502039	0.000025
C22	C	2.036196	-0.434307	0.000009
C23	C	1.889085	-0.460395	0.000014
C24	C	1.745151	-0.392666	0.000010
C25	C	1.598037	-0.418751	0.000002
C26	C	1.594876	-0.512568	0.000009
C27	C	2.039357	-0.340490	0.000002
C28	C	1.748318	-0.298844	0.000005
C29	C	2.179574	-0.034110	0.000023
C30	C	2.356930	-0.044611	0.000013
C31	C	1.876205	0.158302	0.000030
C32	C	1.879579	0.258149	0.000034
N33	N	1.934489	-0.037162	0.456284
N34	N	1.840527	0.022541	-0.456236
H35	H	1.334725	0.101914	0.000012
C36	C	2.033433	-0.203409	0.513356
C37	C	2.063989	-0.119435	0.557791
H38	H	2.113385	-0.254198	0.576017
H39	H	1.929849	-0.207712	0.543513
H40	H	2.036370	-0.205270	0.390402
H41	H	2.061040	-0.117571	0.680744
H42	H	2.167600	-0.115131	0.527646
C43	C	2.301307	-0.758156	0.000038
C44	C	2.335160	-0.670304	0.000047
H45	H	2.398982	-0.804118	0.000037
H46	H	2.251513	-0.771649	0.102151
H47	H	2.230487	-0.758283	-0.102101
H48	H	2.405971	-0.670175	0.102194
H49	H	2.384978	-0.656807	-0.102077
H50	H	2.143865	-0.770909	0.000050
H51	H	1.744611	0.083481	0.468568
C52	C	1.460316	-0.267111	-0.000000
C53	C	1.590098	-0.224399	0.000003
H54	H	1.362641	-0.221150	0.000009
H55	H	1.454623	-0.297884	-0.102122
H56	H	1.475659	-0.311255	0.102131
H57	H	1.574761	-0.180259	-0.102135
H58	H	1.595790	-0.193611	0.102135
C59	C	1.330335	-0.496129	-0.150545
C60	C	1.433183	-0.541248	0.000008
H61	H	1.230521	-0.513845	-0.150544
H62	H	1.311614	-0.430571	-0.150541
H63	H	1.379114	-0.513387	-0.252655
H64	H	1.384410	-0.523986	0.102119
H65	H	1.451901	-0.606821	0.000020
C66	C	1.425185	-0.180009	-0.150547
C67	C	1.469424	-0.141691	0.000006
H68	H	1.494649	-0.239940	-0.150554
H69	H	1.316774	-0.185452	-0.150533
H70	H	1.434156	-0.140627	-0.252658
H71	H	1.460440	-0.181069	0.102117
H72	H	1.577862	-0.136253	0.000008
H73	H	1.480848	-0.363595	0.000011
C74	C	2.227256	-0.268994	0.150556
C75	C	2.201051	-0.311819	0.000014
H76	H	2.327091	-0.251302	0.150563
H77	H	2.142002	-0.215233	0.150529
H78	H	2.230474	-0.311412	0.252674
H79	H	2.197821	-0.269398	-0.102105
H80	H	2.286327	-0.365587	0.000025
H81	H	2.299921	-0.480810	0.000029
H82	H	1.615868	-0.695364	0.000017
