data_functionalizedCrystal
_audit_creation_method	'MofGen! by Chris Wilmer'
_symmetry_space_group_name_H-M	'P1'
_symmetry_Int_Tables_number	1
_symmetry_cell_setting	triclinic
loop_
_symmetry_equiv_pos_as_xyz
  x,y,z
_cell_length_a	21.395362
_cell_length_b	18.050589
_cell_length_c	21.395355
_cell_angle_alpha	89.987098
_cell_angle_beta	89.956060
_cell_angle_gamma	90.044101
loop_
_atom_site_label
_atom_site_type_symbol
_atom_site_fract_x
_atom_site_fract_y
_atom_site_fract_z
Zn1	Zn	0.957870	-0.295431	-0.354610
Zn2	Zn	1.291204	0.037903	-0.021277
Zn3	Zn	1.624537	0.371236	0.312057
Zn4	Zn	0.957777	-0.419603	-0.249843
Zn5	Zn	1.291111	-0.086269	0.083491
Zn6	Zn	1.624444	0.247064	0.416824
Zn7	Zn	0.853085	-0.295465	-0.249811
Zn8	Zn	1.186419	0.037868	0.083522
Zn9	Zn	1.519752	0.371201	0.416855
Zn10	Zn	0.853059	-0.419618	-0.354548
Zn11	Zn	1.186392	-0.086285	-0.021214
Zn12	Zn	1.519726	0.247049	0.312119
O13	O	0.905448	-0.357529	-0.302203
O14	O	1.238781	-0.024196	0.031130
O15	O	1.572115	0.309138	0.364464
O16	O	1.045536	-0.311882	-0.340752
O17	O	1.378869	0.021452	-0.007418
O18	O	1.712203	0.354785	0.325915
O19	O	0.943862	-0.403144	-0.162161
O20	O	1.277195	-0.069810	0.171173
O21	O	1.610528	0.263523	0.504506
O22	O	0.867035	-0.191536	-0.263726
O23	O	1.200368	0.141797	0.069607
O24	O	1.533702	0.475131	0.402941
O25	O	1.045468	-0.403110	-0.263780
O26	O	1.378801	-0.069777	0.069554
O27	O	1.712134	0.263557	0.402887
O28	O	0.944020	-0.191511	-0.340721
O29	O	1.277354	0.141823	-0.007388
O30	O	1.610687	0.475156	0.325945
O31	O	0.866945	-0.311940	-0.162138
O32	O	1.200278	0.021393	0.171196
O33	O	1.533612	0.354726	0.504529
O34	O	0.765404	-0.311955	-0.263665
O35	O	1.098737	0.021378	0.069668
O36	O	1.432071	0.354711	0.403001
O37	O	0.866990	-0.403136	-0.442234
O38	O	1.200324	-0.069803	-0.108900
O39	O	1.533657	0.263531	0.224433
O40	O	0.765385	-0.403170	-0.340615
O41	O	1.098718	-0.069836	-0.007281
O42	O	1.432051	0.263497	0.326052
O43	O	0.943995	-0.311896	-0.442280
O44	O	1.277328	0.021437	-0.108946
O45	O	1.610661	0.354770	0.224387
O46	O	0.943836	-0.523529	-0.263719
O47	O	1.277170	-0.190196	0.069614
O48	O	1.610503	0.143137	0.402948
O49	O	0.866900	-0.523540	-0.340645
O50	O	1.200234	-0.190207	-0.007312
O51	O	1.533567	0.143126	0.326021
C52	C	0.742660	-0.357568	-0.302130
C53	C	1.075994	-0.024235	0.031203
C54	C	1.409327	0.309098	0.364536
C55	C	0.673019	-0.357603	-0.302114
C56	C	1.006352	-0.024270	0.031219
C57	C	1.339686	0.309064	0.364553
C58	C	0.640312	-0.405161	-0.342121
C59	C	0.973646	-0.071828	-0.008788
C60	C	1.306979	0.261505	0.324545
C61	C	0.574877	-0.405143	-0.342149
C62	C	0.908210	-0.071810	-0.008816
C63	C	1.241544	0.261524	0.324517
C64	C	0.542151	-0.357574	-0.302159
C65	C	0.875484	-0.024241	0.031175
C66	C	1.208817	0.309092	0.364508
C67	C	0.574865	-0.310007	-0.262148
C68	C	0.908199	0.023326	0.071185
C69	C	1.241532	0.356660	0.404518
C70	C	0.640300	-0.310021	-0.262126
C71	C	0.973633	0.023312	0.071207
C72	C	1.306966	0.356645	0.404541
C73	C	0.438426	-0.351592	-0.245753
C74	C	0.771759	-0.018258	0.087580
C75	C	1.105092	0.315075	0.420914
C76	C	0.372993	-0.351583	-0.245774
C77	C	0.706326	-0.018249	0.087559
C78	C	1.039660	0.315084	0.420893
C79	C	0.340330	-0.357526	-0.302228
C80	C	0.673663	-0.024193	0.031106
C81	C	1.006997	0.309141	0.364439
C82	C	0.373108	-0.363494	-0.358662
C83	C	0.706442	-0.030161	-0.025329
C84	C	1.039775	0.303173	0.308005
C85	C	0.438542	-0.363508	-0.358640
C86	C	0.771876	-0.030175	-0.025306
C87	C	1.105209	0.303158	0.308027
C88	C	0.471198	-0.357553	-0.302179
C89	C	0.804532	-0.024220	0.031155
C90	C	1.137865	0.309113	0.364488
C91	C	0.236671	-0.405067	-0.342269
C92	C	0.570004	-0.071734	-0.008936
C93	C	0.903337	0.261600	0.324398
C94	C	0.171234	-0.405044	-0.342298
C95	C	0.504568	-0.071710	-0.008965
C96	C	0.837901	0.261623	0.324369
C97	C	0.171224	-0.309911	-0.262291
C98	C	0.504557	0.023422	0.071042
C99	C	0.837891	0.356755	0.404375
C100	C	0.236659	-0.309931	-0.262268
C101	C	0.569993	0.023402	0.071065
C102	C	0.903326	0.356736	0.404399
C103	C	0.269379	-0.357513	-0.302256
C104	C	0.602712	-0.024179	0.031077
C105	C	0.936045	0.309154	0.364411
C106	C	0.905372	-0.550481	-0.302192
C107	C	1.238706	-0.217148	0.031141
C108	C	1.572039	0.116185	0.364474
C109	C	0.905397	-0.633027	-0.302209
C110	C	1.238731	-0.299694	0.031124
C111	C	1.572064	0.033640	0.364458
C112	C	0.863601	-0.832511	-0.344027
C113	C	1.196934	-0.499177	-0.010693
C114	C	1.530267	-0.165844	0.322640
C115	C	0.848322	-0.881943	-0.286848
C116	C	1.181656	-0.548610	0.046485
C117	C	1.514989	-0.215277	0.379818
C118	C	0.905459	-0.784157	-0.302217
C119	C	1.238792	-0.450824	0.031116
C120	C	1.572126	-0.117491	0.364449
C121	C	0.920768	-0.881806	-0.359402
C122	C	1.254101	-0.548473	-0.026069
C123	C	1.587435	-0.215140	0.307265
C124	C	0.905517	-0.930142	-0.302230
C125	C	1.238850	-0.596809	0.031103
C126	C	1.572184	-0.263476	0.364437
C127	C	0.890151	-0.832503	-0.245009
C128	C	1.223484	-0.499170	0.088325
C129	C	1.556817	-0.165836	0.421658
C130	C	0.962623	-0.832361	-0.317601
C131	C	1.295956	-0.499028	0.015733
C132	C	1.629289	-0.165695	0.349066
C133	C	0.947366	-0.881772	-0.260383
C134	C	1.280700	-0.548438	0.072950
C135	C	1.614033	-0.215105	0.406284
C136	C	0.905424	-0.700059	-0.302211
C137	C	1.238757	-0.366726	0.031123
C138	C	1.572090	-0.033392	0.364456
C139	C	0.905552	-1.014239	-0.302230
C140	C	1.238886	-0.680906	0.031103
C141	C	1.572219	-0.347572	0.364436
C142	C	1.068871	-0.357490	-0.302276
C143	C	1.402205	-0.024157	0.031057
C144	C	1.735538	0.309176	0.364390
C145	C	1.138513	-0.357474	-0.302307
C146	C	1.471846	-0.024140	0.031026
C147	C	1.805179	0.309193	0.364359
C148	C	0.905500	-0.357514	-0.465626
C149	C	1.238833	-0.024181	-0.132293
C150	C	1.572167	0.309153	0.201040
C151	C	0.905522	-0.357508	-0.535268
C152	C	1.238856	-0.024174	-0.201934
C153	C	1.572189	0.309159	0.131399
C154	C	0.905541	-0.163823	-0.302227
C155	C	1.238874	0.169510	0.031106
C156	C	1.572208	0.502843	0.364440
C157	C	0.905581	-0.081278	-0.302237
C158	C	1.238914	0.252056	0.031096
C159	C	1.572247	0.585389	0.364429
C160	C	0.945617	-0.309997	-0.568006
C161	C	1.278950	0.023336	-0.234672
C162	C	1.612283	0.356670	0.098661
C163	C	0.945616	-0.309965	-0.633441
C164	C	1.278949	0.023368	-0.300108
C165	C	1.612282	0.356701	0.033226
C166	C	0.905527	-0.357457	-0.666136
C167	C	1.238860	-0.024124	-0.332803
C168	C	1.572194	0.309210	0.000531
C169	C	0.865425	-0.404971	-0.633390
C170	C	1.198758	-0.071638	-0.300057
C171	C	1.532091	0.261696	0.033277
C172	C	0.865422	-0.404996	-0.567956
C173	C	1.198756	-0.071663	-0.234622
C174	C	1.532089	0.261670	0.098711
C175	C	0.900554	-0.424328	-0.769805
C176	C	1.233887	-0.090994	-0.436472
C177	C	1.567220	0.242339	-0.103139
C178	C	0.900560	-0.424304	-0.835238
C179	C	1.233894	-0.090970	-0.501905
C180	C	1.567227	0.242363	-0.168572
C181	C	0.905531	-0.357379	-0.867957
C182	C	1.238864	-0.024045	-0.534623
C183	C	1.572198	0.309288	-0.201290
C184	C	0.910508	-0.290475	-0.835234
C185	C	1.243841	0.042858	-0.501901
C186	C	1.577174	0.376191	-0.168568
C187	C	0.910505	-0.290501	-0.769800
C188	C	1.243839	0.042833	-0.436467
C189	C	1.577172	0.376166	-0.103133
C190	C	0.905525	-0.357435	-0.737088
C191	C	1.238858	-0.024101	-0.403755
C192	C	1.572192	0.309232	-0.070422
C193	C	0.945627	-0.309829	-0.971647
C194	C	1.278960	0.023504	-0.638314
C195	C	1.612293	0.356837	-0.304981
C196	C	0.945621	-0.309796	-1.037084
C197	C	1.278955	0.023537	-0.703751
C198	C	1.612288	0.356870	-0.370417
C199	C	0.865434	-0.404809	-1.037032
C200	C	1.198767	-0.071475	-0.703698
C201	C	1.532100	0.261858	-0.370365
C202	C	0.865436	-0.404835	-0.971596
C203	C	1.198769	-0.071502	-0.638263
C204	C	1.532102	0.261832	-0.304930
C205	C	0.905535	-0.357347	-0.938908
C206	C	1.238869	-0.024013	-0.605575
C207	C	1.572202	0.309320	-0.272241
C208	C	0.905432	-0.357490	-0.139415
C209	C	1.238766	-0.024157	0.193918
C210	C	1.572099	0.309176	0.527251
C211	C	0.905531	-0.357288	-0.069774
C212	C	1.238865	-0.023954	0.263559
C213	C	1.572198	0.309379	0.596892
H214	H	0.263312	-0.443807	-0.374833
H215	H	0.596646	-0.110474	-0.041499
H216	H	0.929979	0.222860	0.291834
O217	O	0.822177	-0.456239	-0.532635
O218	O	1.155510	-0.122905	-0.199302
O219	O	1.488844	0.210428	0.134032
H220	H	0.790320	-0.423006	-0.502801
H221	H	1.123653	-0.089673	-0.169468
H222	H	1.456986	0.243660	0.163865
H223	H	0.978268	-0.271327	-0.541395
H224	H	1.311602	0.062006	-0.208062
H225	H	1.644935	0.395339	0.125272
H226	H	0.914556	-0.236026	-0.743160
H227	H	1.247889	0.097307	-0.409827
H228	H	1.581223	0.430641	-0.076493
H229	H	1.010926	-0.810569	-0.330628
H230	H	1.344259	-0.477235	0.002705
H231	H	1.677593	-0.143902	0.336039
H232	H	0.666948	-0.443905	-0.374684
H233	H	1.000282	-0.110572	-0.041350
H234	H	1.333615	0.222762	0.291983
H235	H	0.982789	-0.903266	-0.224991
H236	H	1.316123	-0.569933	0.108343
H237	H	1.649456	-0.236599	0.441676
O238	O	0.135952	-0.456439	-0.385368
O239	O	0.469286	-0.123105	-0.052034
O240	O	0.802619	0.210228	0.281299
H241	H	0.169700	-0.489566	-0.413133
H242	H	0.503033	-0.156233	-0.079800
H243	H	0.836367	0.177101	0.253534
O244	O	0.784323	-0.910790	-0.269609
O245	O	1.117656	-0.577456	0.063725
O246	O	1.450990	-0.244123	0.397058
H247	H	0.766009	-0.945498	-0.308308
H248	H	1.099342	-0.612165	0.025025
H249	H	1.432676	-0.278832	0.358358
H250	H	0.548242	-0.443870	-0.374731
H251	H	0.881575	-0.110537	-0.041397
H252	H	1.214908	0.222796	0.291936
H253	H	0.832790	-0.443528	-0.944941
H254	H	1.166123	-0.110195	-0.611607
H255	H	1.499457	0.223139	-0.278274
H256	H	0.933693	-0.903463	-0.407758
H257	H	1.267026	-0.570130	-0.074424
H258	H	1.600360	-0.236797	0.258909
O259	O	0.988867	-0.258727	-0.668764
O260	O	1.322200	0.074607	-0.335431
O261	O	1.655534	0.407940	-0.002097
H262	H	1.016753	-0.225714	-0.635041
H263	H	1.350087	0.107619	-0.301707
H264	H	1.683420	0.440953	0.031626
H265	H	0.144579	-0.271177	-0.229733
H266	H	0.477912	0.062157	0.103600
H267	H	0.811246	0.395490	0.436934
O268	O	0.872959	-0.803944	-0.180935
O269	O	1.206293	-0.470611	0.152398
O270	O	1.539626	-0.137277	0.485732
H271	H	0.825686	-0.824295	-0.168128
H272	H	1.159019	-0.490962	0.165205
H273	H	1.492353	-0.157628	0.498538
O274	O	0.895197	-0.496459	-0.870531
O275	O	1.228530	-0.163125	-0.537198
O276	O	1.561863	0.170208	-0.203865
H277	H	0.852758	-0.495270	-0.900318
H278	H	1.186091	-0.161937	-0.566985
H279	H	1.519424	0.171396	-0.233651
H280	H	0.828150	-0.810879	-0.379334
H281	H	1.161484	-0.477546	-0.046000
H282	H	1.494817	-0.144213	0.287333
H283	H	0.978275	-0.271157	-0.945031
H284	H	1.311608	0.062176	-0.611698
H285	H	1.644941	0.395509	-0.278365
H286	H	0.978270	-0.271103	-1.063738
H287	H	1.311603	0.062230	-0.730405
H288	H	1.644937	0.395564	-0.397072
H289	H	0.832782	-0.443637	-0.660014
H290	H	1.166116	-0.110303	-0.326681
H291	H	1.499449	0.223030	0.006652
H292	H	0.914556	-0.235979	-0.861872
H293	H	1.247890	0.097355	-0.528539
H294	H	1.581223	0.430688	-0.195205
H295	H	0.832786	-0.443470	-1.063651
H296	H	1.166120	-0.110137	-0.730318
H297	H	1.499453	0.223197	-0.396985
O298	O	0.895184	-0.496514	-0.734517
O299	O	1.228517	-0.163181	-0.401184
O300	O	1.561851	0.170152	-0.067850
H301	H	0.891731	-0.543030	-0.768262
H302	H	1.225064	-0.209697	-0.434929
H303	H	1.558398	0.123636	-0.101595
H304	H	0.263290	-0.271208	-0.229686
H305	H	0.596623	0.062126	0.103647
H306	H	0.929956	0.395459	0.436980
H307	H	0.465228	-0.368366	-0.404590
H308	H	0.798561	-0.035032	-0.071257
H309	H	1.131894	0.298301	0.262076
H310	H	0.346310	-0.346728	-0.199822
H311	H	0.679643	-0.013394	0.133511
H312	H	1.012977	0.319939	0.466845
O313	O	0.473649	-0.345179	-0.184857
O314	O	0.806982	-0.011846	0.148476
O315	O	1.140315	0.321488	0.481809
H316	H	0.524655	-0.346183	-0.194322
H317	H	0.857989	-0.012850	0.139011
H318	H	1.191322	0.320483	0.472345
H319	H	0.666929	-0.271291	-0.229547
H320	H	1.000262	0.062042	0.103786
H321	H	1.333596	0.395375	0.437120
O322	O	0.337891	-0.369899	-0.419559
O323	O	0.671225	-0.036566	-0.086226
O324	O	1.004558	0.296768	0.247108
H325	H	0.286884	-0.368876	-0.410098
H326	H	0.620218	-0.035542	-0.076764
H327	H	0.953551	0.297791	0.256569
O328	O	0.539569	-0.258700	-0.219017
O329	O	0.872902	0.074633	0.114316
O330	O	1.206235	0.407966	0.447650
H331	H	0.573308	-0.225626	-0.191196
H332	H	0.906641	0.107707	0.142138
H333	H	1.239975	0.441040	0.475471
