data_functionalizedCrystal
_audit_creation_method	'MofGen! by Chris Wilmer'
_symmetry_space_group_name_H-M	'P1'
_symmetry_Int_Tables_number	1
_symmetry_cell_setting	triclinic
loop_
_symmetry_equiv_pos_as_xyz
  x,y,z
_cell_length_a	12.594517
_cell_length_b	16.120847
_cell_length_c	12.594509
_cell_angle_alpha	87.077968
_cell_angle_beta	89.978673
_cell_angle_gamma	92.899582
loop_
_atom_site_label
_atom_site_type_symbol
_atom_site_fract_x
_atom_site_fract_y
_atom_site_fract_z
Zn1	Zn	1.605887	-0.331888	-0.580405
Zn2	Zn	2.105887	0.168112	-0.080405
Zn3	Zn	1.596795	-0.471320	-0.393413
Zn4	Zn	2.096795	0.028680	0.106587
Zn5	Zn	1.427888	-0.331924	-0.402432
Zn6	Zn	1.927888	0.168076	0.097568
Zn7	Zn	1.418894	-0.471262	-0.571347
Zn8	Zn	1.918894	0.028738	-0.071347
O9	O	1.512366	-0.401598	-0.486899
O10	O	2.012366	0.098402	0.013101
O11	O	1.753626	-0.350393	-0.555617
O12	O	2.253626	0.149607	-0.055617
O13	O	1.574349	-0.452868	-0.245661
O14	O	2.074349	0.047132	0.254339
O15	O	1.459069	-0.215253	-0.433606
O16	O	1.959069	0.284747	0.066394
O17	O	1.746947	-0.452833	-0.418235
O18	O	2.246947	0.047167	0.081765
O19	O	1.589844	-0.215226	-0.564362
O20	O	2.089844	0.284774	-0.064362
O21	O	1.450253	-0.350454	-0.252287
O22	O	1.950253	0.149546	0.247713
O23	O	1.277750	-0.350398	-0.424822
O24	O	1.777750	0.149602	0.075178
O25	O	1.443740	-0.452734	-0.721497
O26	O	1.943740	0.047266	-0.221497
O27	O	1.271142	-0.452769	-0.548923
O28	O	1.771142	0.047231	-0.048923
O29	O	1.581123	-0.350337	-0.728152
O30	O	2.081123	0.149663	-0.228152
O31	O	1.565628	-0.587978	-0.409451
O32	O	2.065628	-0.087978	0.090549
O33	O	1.434925	-0.587936	-0.540178
O34	O	1.934925	-0.087936	-0.040178
C35	C	1.235826	-0.401581	-0.486869
C36	C	1.735826	0.098419	0.013131
C37	C	1.117520	-0.401594	-0.486880
C38	C	1.617520	0.098406	0.013120
C39	C	1.498343	-0.618207	-0.472876
C40	C	1.998343	-0.118207	0.027124
C41	C	1.492441	-0.710873	-0.466913
C42	C	1.992441	-0.210873	0.033087
C43	C	1.512442	-0.401525	-0.764525
C44	C	2.012442	0.098475	-0.264525
C45	C	1.512475	-0.401494	-0.882833
C46	C	2.012475	0.098506	-0.382833
C47	C	1.051835	-0.345839	-0.419522
C48	C	1.551835	0.154161	0.080478
C49	C	0.976125	-0.421886	-0.388426
C50	C	1.476125	0.078114	0.111574
C51	C	0.982429	-0.325584	-0.517992
C52	C	1.482429	0.174416	-0.017992
C53	C	1.043366	-0.477682	-0.455730
C54	C	1.543366	0.022318	0.044270
C55	C	1.049679	-0.381328	-0.585345
C56	C	1.549679	0.118672	-0.085345
C57	C	0.973998	-0.457429	-0.554282
C58	C	1.473998	0.042571	-0.054282
C59	C	1.789986	-0.401616	-0.486930
C60	C	2.289986	0.098384	0.013070
C61	C	1.908291	-0.401623	-0.486943
C62	C	2.408291	0.098377	0.013057
C63	C	1.526474	-0.184143	-0.501000
C64	C	2.026474	0.315857	-0.001000
C65	C	1.532485	-0.091477	-0.507009
C66	C	2.032485	0.408523	-0.007009
C67	C	1.543480	0.078185	-0.517977
C68	C	2.043480	0.578185	-0.017977
C69	C	1.481449	0.119470	-0.455948
C70	C	1.981449	0.619470	0.044052
C71	C	1.487567	0.213876	-0.462051
C72	C	1.987567	0.713876	0.037949
C73	C	1.537364	-0.016229	-0.511876
C74	C	2.037364	0.483771	-0.011876
C75	C	1.437777	-0.457156	-0.948468
C76	C	1.937777	0.042844	-0.448468
C77	C	1.533585	-0.477527	-1.017942
C78	C	2.033585	0.022473	-0.517942
C79	C	1.416745	-0.381073	-1.024161
C80	C	1.916745	0.118927	-0.524161
C81	C	1.608331	-0.421904	-0.950745
C82	C	2.108331	0.078096	-0.450745
C83	C	1.491428	-0.325416	-0.956961
C84	C	1.991428	0.174584	-0.456961
C85	C	1.587305	-0.345757	-1.026405
C86	C	2.087305	0.154243	-0.526405
C87	C	1.512356	-0.401611	-0.210357
C88	C	2.012356	0.098389	0.289643
C89	C	1.512545	-0.401407	-0.092066
C90	C	2.012545	0.098593	0.407934
H91	H	1.085890	-0.298734	-0.362482
H92	H	1.585890	0.201266	0.137518
H93	H	1.423746	0.083913	-0.398262
H94	H	1.923746	0.583913	0.101738
C95	C	1.717764	-0.445296	-0.907413
C96	C	2.217764	0.054704	-0.407413
N97	N	1.800185	-0.462918	-0.874772
N98	N	2.300185	0.037082	-0.374772
C99	C	0.932528	-0.445064	-0.275970
C100	C	1.432528	0.054936	0.224030
N101	N	0.899693	-0.462515	-0.191268
N102	N	1.399693	0.037485	0.308732
H103	H	1.601178	0.113738	-0.575660
H104	H	2.101178	0.613738	-0.075660
C105	C	1.352510	-0.520848	-0.902367
C106	C	1.852510	-0.020848	-0.402367
N107	N	1.288297	-0.568823	-0.867634
N108	N	1.788297	-0.068823	-0.367634
C109	C	1.557683	-0.564393	-1.054354
C110	C	2.057683	-0.064393	-0.554354
N111	N	1.575826	-0.629822	-1.081776
N112	N	2.075826	-0.129822	-0.581776
C113	C	1.672777	-0.282115	-1.072216
C114	C	2.172777	0.217885	-0.572216
N115	N	1.737156	-0.234182	-1.106723
N116	N	2.237156	0.265818	-0.606723
H117	H	1.473559	-0.261134	-0.929988
H118	H	1.973559	0.238866	-0.429988
H119	H	1.070164	-0.541994	-0.429351
H120	H	1.570164	-0.041994	0.070649
C121	C	1.307336	-0.357785	-1.067662
C122	C	1.807336	0.142215	-0.567662
N123	N	1.224927	-0.340249	-1.100422
N124	N	1.724927	0.159751	-0.600422
C125	C	0.928232	-0.521216	-0.631263
C126	C	1.428232	-0.021216	-0.131263
N127	N	0.893757	-0.569264	-0.689239
N128	N	1.393757	-0.069264	-0.189239
H129	H	0.955443	-0.261300	-0.544242
H130	H	1.455443	0.238700	-0.044242
C131	C	1.093315	-0.358112	-0.697769
C132	C	1.593315	0.141888	-0.197769
N133	N	1.126187	-0.340616	-0.782446
N134	N	1.626187	0.159384	-0.282446
