data_functionalizedCrystal
_audit_creation_method	'MofGen! by Chris Wilmer'
_symmetry_space_group_name_H-M	'P1'
_symmetry_Int_Tables_number	1
_symmetry_cell_setting	triclinic
loop_
_symmetry_equiv_pos_as_xyz
  x,y,z
_cell_length_a	13.034570
_cell_length_b	12.827893
_cell_length_c	12.827885
_cell_angle_alpha	89.980728
_cell_angle_beta	97.156460
_cell_angle_gamma	82.840105
loop_
_atom_site_label
_atom_site_type_symbol
_atom_site_fract_x
_atom_site_fract_y
_atom_site_fract_z
Zn1	Zn	-0.415898	1.650471	-0.643730
Zn2	Zn	0.084102	2.150471	-0.143730
Zn3	Zn	-0.590640	1.672550	-0.491208
Zn4	Zn	-0.090640	2.172550	0.008792
Zn5	Zn	-0.415949	1.475719	-0.469010
Zn6	Zn	0.084051	1.975719	0.030990
Zn7	Zn	-0.590562	1.497873	-0.665898
Zn8	Zn	-0.090562	1.997873	-0.165898
O9	O	-0.503262	1.574153	-0.567462
O10	O	-0.003262	2.074153	-0.067462
O11	O	-0.439089	1.799637	-0.623510
O12	O	0.060911	2.299637	-0.123510
O13	O	-0.567521	1.646409	-0.342034
O14	O	-0.067521	2.146409	0.157966
O15	O	-0.269736	1.480389	-0.473619
O16	O	0.230264	1.980389	0.026381
O17	O	-0.567471	1.815859	-0.511453
O18	O	-0.067471	2.315859	-0.011453
O19	O	-0.269699	1.608778	-0.601985
O20	O	0.230301	2.108778	-0.101985
O21	O	-0.439176	1.501798	-0.325725
O22	O	0.060824	2.001798	0.174275
O23	O	-0.439101	1.332420	-0.495115
O24	O	0.060899	1.832420	0.004885
O25	O	-0.567339	1.518147	-0.809187
O26	O	-0.067339	2.018147	-0.309187
O27	O	-0.567388	1.348697	-0.639768
O28	O	-0.067388	1.848697	-0.139768
O29	O	-0.439014	1.630260	-0.792900
O30	O	0.060986	2.130260	-0.292900
O31	O	-0.736836	1.667890	-0.532949
O32	O	-0.236836	2.167890	-0.032949
O33	O	-0.736779	1.539556	-0.661293
O34	O	-0.236779	2.039556	-0.161293
C35	C	-0.503242	1.302641	-0.567439
C36	C	-0.003242	1.802641	-0.067439
C37	C	-0.503259	1.186490	-0.567458
C38	C	-0.003259	1.686490	-0.067458
C39	C	-0.566839	1.142799	-0.638951
C40	C	-0.066839	1.642799	-0.138951
C41	C	-0.566857	1.022751	-0.638972
C42	C	-0.066857	1.522751	-0.138972
C43	C	-0.774717	1.608551	-0.601958
C44	C	-0.274717	2.108551	-0.101958
C45	C	-0.890846	1.623362	-0.616751
C46	C	-0.390846	2.123362	-0.116751
C47	C	-1.062744	1.581804	-0.575066
C48	C	-0.562744	2.081804	-0.075066
C49	C	-0.942718	1.566496	-0.559782
C50	C	-0.442718	2.066496	-0.059782
C51	C	-0.230748	1.539649	-0.532853
C52	C	0.269252	2.039649	-0.032853
C53	C	-0.114618	1.524946	-0.518105
C54	C	0.385382	2.024946	-0.018105
C55	C	-0.503162	1.574212	-0.840019
C56	C	-0.003162	2.074212	-0.340019
C57	C	-0.503119	1.574236	-0.956167
C58	C	-0.003119	2.074236	-0.456167
C59	C	-0.503283	1.846726	-0.567485
C60	C	-0.003283	2.346726	-0.067485
C61	C	-0.503292	1.962880	-0.567495
C62	C	-0.003292	2.462880	-0.067495
C63	C	-0.439608	1.629719	-0.999891
C64	C	0.060392	2.129719	-0.499891
C65	C	-0.439562	1.629746	-1.119935
C66	C	0.060438	2.129746	-0.619935
C67	C	-0.503287	1.574146	-0.295955
C68	C	-0.003287	2.074146	0.204045
C69	C	-0.503035	1.574286	-0.179770
C70	C	-0.003035	2.074286	0.320230
H71	H	-0.621293	0.985148	-0.700178
H72	H	-0.121293	1.485148	-0.200178
H73	H	-1.070173	1.464938	-0.458019
H74	H	-0.570173	1.964938	0.041981
H75	H	-0.448860	1.000478	-0.506280
H76	H	0.051140	1.500478	-0.006280
O77	O	-0.374878	1.686349	-0.938386
O78	O	0.125122	2.186349	-0.438386
C79	C	-0.315833	1.737876	-0.762653
C80	C	0.184167	2.237876	-0.262653
C81	C	-0.389210	1.673711	-0.832182
C82	C	0.110790	2.173711	-0.332182
H83	H	-0.327380	1.727663	-0.676771
H84	H	0.172620	2.227663	-0.176771
H85	H	-0.334167	1.824508	-0.786308
H86	H	0.165833	2.324508	-0.286308
H87	H	-0.231567	1.708899	-0.773409
H88	H	0.268433	2.208899	-0.273409
H89	H	-0.473500	1.702598	-0.821461
H90	H	0.026500	2.202598	-0.321461
H91	H	-0.370786	1.587090	-0.808510
H92	H	0.129214	2.087090	-0.308510
H93	H	-1.107191	1.641820	-0.635143
H94	H	-0.607191	2.141820	-0.135143
H95	H	-0.557453	1.526748	-1.007605
H96	H	-0.057453	2.026748	-0.507605
O97	O	-0.568064	1.517749	-1.134955
O98	O	-0.068064	2.017749	-0.634955
C99	C	-0.745765	1.489516	-1.123967
C100	C	-0.245765	1.989516	-0.623967
C101	C	-0.672239	1.553635	-1.174793
C102	C	-0.172239	2.053635	-0.674793
H103	H	-0.830005	1.518490	-1.156172
H104	H	-0.330005	2.018490	-0.656172
H105	H	-0.734334	1.499612	-1.035149
H106	H	-0.234334	1.999612	-0.535149
H107	H	-0.727374	1.402913	-1.143004
H108	H	-0.227374	1.902913	-0.643004
H109	H	-0.690585	1.640259	-1.155837
H110	H	-0.190585	2.140259	-0.655837
H111	H	-0.683684	1.543450	-1.263598
H112	H	-0.183684	2.043450	-0.763598
H113	H	-0.898276	1.506484	-0.499693
H114	H	-0.398276	2.006484	0.000307
H115	H	-0.385191	1.677251	-1.157568
H116	H	0.114809	2.177251	-0.657568
H117	H	-0.448835	1.135019	-0.506268
H118	H	0.051165	1.635019	-0.006268
H119	H	-0.935288	1.683382	-0.676833
H120	H	-0.435288	2.183382	-0.176833
O121	O	-0.631731	1.204350	-0.711855
O122	O	-0.131731	1.704350	-0.211855
C123	C	-0.690804	1.380109	-0.778372
C124	C	-0.190804	1.880109	-0.278372
C125	C	-0.617275	1.310533	-0.695732
C126	C	-0.117275	1.810533	-0.195732
H127	H	-0.679127	1.465970	-0.765379
H128	H	-0.179127	1.965970	-0.265379
H129	H	-0.775075	1.369470	-0.770612
H130	H	-0.275075	1.869470	-0.270612
H131	H	-0.672592	1.356378	-0.860363
H132	H	-0.172592	1.856378	-0.360363
H133	H	-0.635393	1.334219	-0.613705
H134	H	-0.135393	1.834219	-0.113705
H135	H	-0.533027	1.321179	-0.703585
H136	H	-0.033027	1.821179	-0.203585
