data_functionalizedCrystal
_audit_creation_method	'MofGen! by Chris Wilmer'
_symmetry_space_group_name_H-M	'P1'
_symmetry_Int_Tables_number	1
_symmetry_cell_setting	triclinic
loop_
_symmetry_equiv_pos_as_xyz
  x,y,z
_cell_length_a	16.793024
_cell_length_b	16.793047
_cell_length_c	33.586455
_cell_angle_alpha	113.253857
_cell_angle_beta	66.219990
_cell_angle_gamma	112.758327
loop_
_atom_site_label
_atom_site_type_symbol
_atom_site_fract_x
_atom_site_fract_y
_atom_site_fract_z
O1	O	0.005016	-0.570216	-0.583573
O2	O	-0.034529	-0.474528	-0.453458
O3	O	0.114723	-0.474535	-0.528082
O4	O	-0.144235	-0.570209	-0.508949
O5	O	0.108729	-0.346329	-0.530229
O6	O	-0.040523	-0.346322	-0.455605
O7	O	-0.000977	-0.442010	-0.585721
Cu8	Cu	-0.021297	-0.382459	-0.520859
Cu9	Cu	-0.014209	-0.534079	-0.518320
O10	O	-0.150229	-0.442003	-0.511097
C11	C	0.005100	-0.790970	-0.238461
C12	C	0.009223	-0.693065	-0.217557
C13	C	0.003804	-0.645758	-0.241627
C14	C	-0.075059	-0.538459	-0.266316
C15	C	0.049838	-0.422849	-0.250165
C16	C	-0.040584	-0.395375	-0.435637
C17	C	-0.044693	-0.353446	-0.386631
C18	C	-0.039275	-0.401741	-0.363054
C19	C	-0.040566	-0.125547	-0.300731
C20	C	-0.044689	-0.223451	-0.321635
C21	C	-0.039266	-0.270752	-0.297563
C22	C	0.039597	-0.378051	-0.272874
C23	C	-0.085304	-0.493667	-0.289026
C24	C	0.005118	-0.521142	-0.103554
C25	C	0.009231	-0.563064	-0.152559
C26	C	0.003809	-0.514775	-0.176138
C27	C	0.010758	-0.652581	-0.172822
C28	C	0.001010	-0.556371	-0.220792
C29	C	-0.008251	-0.506059	-0.245823
C30	C	-0.046224	-0.263935	-0.366370
C31	C	-0.036476	-0.360146	-0.318399
C32	C	-0.027211	-0.410451	-0.293367
C33	C	0.815184	-0.521162	-0.508596
C34	C	0.415541	-0.125553	-0.528781
C35	C	0.375032	-0.223457	-0.531493
C36	C	0.423813	-0.270761	-0.529101
C37	C	0.149318	-0.395376	-0.530584
C38	C	0.246774	-0.353455	-0.532364
C39	C	0.294574	-0.401748	-0.529976
C40	C	0.548961	-0.790984	-0.510398
C41	C	0.286104	-0.263940	-0.532530
C42	C	0.383336	-0.360149	-0.528302
C43	C	0.432207	-0.407971	-0.525810
C44	C	0.392316	-0.497392	-0.524993
C45	C	0.303554	-0.538991	-0.526667
C46	C	0.254683	-0.491169	-0.529159
C47	C	0.263666	-0.628421	-0.525851
C48	C	0.312537	-0.676243	-0.523359
C49	C	0.401299	-0.634644	-0.521685
C50	C	0.441190	-0.545223	-0.522502
C51	C	0.529952	-0.503624	-0.520828
C52	C	0.578823	-0.551446	-0.518336
C53	C	0.538939	-0.640864	-0.517520
C54	C	0.450177	-0.682463	-0.519194
C55	C	0.587810	-0.688687	-0.515028
C56	C	0.676572	-0.647088	-0.513354
C57	C	0.716463	-0.557666	-0.514172
C58	C	0.667586	-0.509847	-0.516662
C59	C	0.569840	-0.414195	-0.521644
C60	C	0.658602	-0.372596	-0.519970
C61	C	0.707476	-0.420426	-0.517480
C62	C	0.698493	-0.283174	-0.520788
C63	C	0.649622	-0.235352	-0.523280
C64	C	0.560860	-0.276951	-0.524954
C65	C	0.520969	-0.366372	-0.524136
C66	C	0.511989	-0.229129	-0.527446
C67	C	-0.040530	-0.395407	-0.935652
C68	C	0.005063	-0.791004	-0.738448
C69	C	0.009186	-0.693099	-0.717543
C70	C	0.003779	-0.645796	-0.741620
C71	C	0.005077	-0.521171	-0.603544
C72	C	0.009198	-0.563096	-0.652550
C73	C	0.003786	-0.514804	-0.676131
C74	C	-0.040516	-0.125574	-0.800747
C75	C	0.010719	-0.652613	-0.672809
C76	C	0.000994	-0.556406	-0.720789
C77	C	-0.004621	-0.508585	-0.744908
C78	C	-0.007444	-0.419162	-0.724369
C79	C	-0.004651	-0.377560	-0.679711
C80	C	0.000964	-0.425381	-0.655592
C81	C	-0.007471	-0.288129	-0.659174
C82	C	-0.013086	-0.240308	-0.683293
C83	C	-0.015878	-0.281910	-0.727951
C84	C	-0.013056	-0.371333	-0.748490
C85	C	-0.015848	-0.412935	-0.793148
C86	C	-0.021463	-0.365114	-0.817267
C87	C	-0.024282	-0.275694	-0.796731
C88	C	-0.021490	-0.234092	-0.752073
C89	C	-0.029897	-0.227873	-0.820850
C90	C	-0.032690	-0.269476	-0.865508
C91	C	-0.029867	-0.358899	-0.886047
C92	C	-0.024255	-0.406717	-0.861925
C93	C	-0.013028	-0.502367	-0.813685
C94	C	-0.015821	-0.543969	-0.858343
C95	C	-0.021433	-0.496140	-0.882464
C96	C	-0.012998	-0.633392	-0.878882
C97	C	-0.007383	-0.681213	-0.854763
C98	C	-0.004591	-0.639611	-0.810105
C99	C	-0.007414	-0.550188	-0.789566
C100	C	0.001024	-0.687432	-0.785986
O101	O	-0.000965	0.173549	-0.277957
O102	O	-0.040516	-0.085616	-0.325254
O103	O	0.108737	0.059592	-0.327284
O104	O	-0.150219	0.028341	-0.275927
O105	O	0.114753	0.055151	-0.263265
O106	O	-0.034500	-0.090057	-0.261234
O107	O	0.005051	0.169108	-0.213937
Cu108	Cu	-0.014175	0.039120	-0.231740
Cu109	Cu	-0.021290	0.044372	-0.307451
O110	O	-0.144202	0.023900	-0.211907
O111	O	-0.034458	-0.474571	0.046517
O112	O	0.005076	-0.570190	-0.083599
O113	O	-0.144170	-0.570237	-0.008972
O114	O	0.114787	-0.474523	-0.028110
O115	O	-0.150200	-0.442024	-0.011093
O116	O	-0.000954	-0.441976	-0.085720
O117	O	-0.040488	-0.346357	0.044396
Cu118	Cu	-0.021272	-0.382460	-0.020856
Cu119	Cu	-0.014141	-0.534087	-0.018347
O120	O	0.108757	-0.346309	-0.030231
C121	C	-0.850734	0.086244	-0.289716
C122	C	-0.753280	0.087165	-0.312001
C123	C	-0.705462	0.081107	-0.288506
C124	C	-0.599592	0.000085	-0.264184
C125	C	-0.481080	0.121287	-0.283645
C126	C	-0.450996	0.035117	-0.097351
C127	C	-0.410501	0.028587	-0.146852
C128	C	-0.459292	0.034683	-0.169840
C129	C	-0.184802	0.024283	-0.235878
C130	C	-0.282257	0.023363	-0.213592
C131	C	-0.330068	0.029423	-0.237088
C132	C	-0.435938	0.110445	-0.261411
C133	C	-0.554456	-0.010759	-0.241948
C134	C	-0.584541	0.075410	-0.428242
C135	C	-0.625029	0.081943	-0.378743
C136	C	-0.576244	0.075844	-0.355753
C137	C	-0.713963	0.086424	-0.357292
C138	C	-0.616708	0.075351	-0.310510
C139	C	-0.565963	0.065400	-0.286043
C140	C	-0.321573	0.024104	-0.168302
C141	C	-0.418828	0.035176	-0.215083
C142	C	-0.469568	0.045131	-0.239552
O143	O	0.585213	0.169090	-0.504004
O144	O	0.494056	-0.090076	-0.525516
O145	O	0.488081	0.055124	-0.449918
O146	O	0.591189	0.023889	-0.579602
O147	O	0.359978	0.059584	-0.452885
O148	O	0.365953	-0.085616	-0.528483
O149	O	0.457110	0.173550	-0.506971
Cu150	Cu	0.399835	0.044374	-0.517998
Cu151	Cu	0.551332	0.039099	-0.514489
O152	O	0.463086	0.028349	-0.582569
C153	C	0.815354	-0.521094	-0.008709
C154	C	0.717898	-0.563028	-0.006927
C155	C	0.670072	-0.514739	-0.009298
C156	C	0.564182	-0.463204	-0.048354
C157	C	0.445681	-0.498945	0.013847
C158	C	0.415547	-0.125494	-0.028771
C159	C	0.375059	-0.223405	-0.031498
C160	C	0.423859	-0.270708	-0.029121
C161	C	0.149365	-0.395355	-0.030599
C162	C	0.246820	-0.353421	-0.032381
C163	C	0.294640	-0.401713	-0.030008
C164	C	0.400530	-0.453248	0.009048
C165	C	0.519038	-0.417504	-0.053155
C166	C	0.549171	-0.790955	-0.010537
C167	C	0.589653	-0.693047	-0.007809
C168	C	0.540859	-0.645741	-0.010187
C169	C	0.678588	-0.652551	-0.006775
C170	C	0.581317	-0.556344	-0.010973
C171	C	0.530562	-0.506029	-0.015250
C172	C	0.286131	-0.263897	-0.032533
C173	C	0.383402	-0.360104	-0.028335
C174	C	0.434150	-0.410423	-0.024057
O175	O	-0.620614	0.089309	0.052274
O176	O	-0.529507	0.043784	-0.078544
O177	O	-0.523494	0.194833	-0.006033
O178	O	-0.626628	-0.061740	-0.020236
O179	O	-0.395386	0.185419	-0.005549
O180	O	-0.401400	0.034370	-0.078059
O181	O	-0.492507	0.079895	0.052758
Cu182	Cu	-0.435256	0.056273	-0.012607
Cu183	Cu	-0.586758	0.067406	-0.013179
O184	O	-0.498521	-0.071154	-0.019752
C185	C	-0.437537	0.048335	0.402491
C186	C	-0.397043	0.041789	0.352989
C187	C	-0.445822	0.047883	0.329994
C188	C	-0.496646	0.126653	0.277022
C189	C	-0.465894	-0.000633	0.218811
C190	C	-0.837226	0.099430	0.210091
C191	C	-0.739773	0.100339	0.187806
C192	C	-0.691967	0.094287	0.211308
C193	C	-0.571027	0.088563	0.071568
C194	C	-0.611521	0.095108	0.121070
C195	C	-0.562739	0.089011	0.144061
C196	C	-0.511915	0.010241	0.197033
C197	C	-0.542670	0.137531	0.255247
C198	C	-0.171338	0.037467	0.263967
C199	C	-0.268788	0.036555	0.286249
C200	C	-0.316597	0.042611	0.262750
C201	C	-0.308112	0.037305	0.331542
C202	C	-0.405351	0.048369	0.284750
C203	C	-0.456092	0.058317	0.260279
C204	C	-0.700452	0.099593	0.142516
C205	C	-0.603213	0.088528	0.189308
C206	C	-0.552469	0.078578	0.213776
O207	O	-0.040608	-1.085661	-0.825229
O208	O	-0.001018	-0.826491	-0.777938
O209	O	-0.150287	-0.971682	-0.775894
O210	O	0.108661	-0.940470	-0.827272
O211	O	-0.144253	-0.976123	-0.711878
O212	O	0.005016	-0.830932	-0.713922
O213	O	-0.034575	-1.090102	-0.761213
Cu214	Cu	-0.014228	-0.960923	-0.731722
Cu215	Cu	-0.021364	-0.955670	-0.807428
O216	O	0.114695	-0.944911	-0.763256
O217	O	-0.036862	-0.230384	-0.253947
C218	C	-0.115987	-0.202041	-0.227222
H219	H	-0.171766	-0.243574	-0.244184
H220	H	-0.101653	-0.127812	-0.223676
C221	C	-0.077925	-0.164236	-0.159072
C222	C	-0.146436	-0.215253	-0.179904
H223	H	-0.096706	-0.172381	-0.129884
H224	H	-0.024615	-0.183328	-0.177078
H225	H	-0.065986	-0.102383	-0.156122
H226	H	-0.158365	-0.277105	-0.182860
H227	H	-0.199749	-0.196172	-0.161898
O228	O	-0.428119	-0.070596	0.200039
C229	C	-0.384269	-0.067457	0.228877
H230	H	-0.414791	-0.028024	0.264993
H231	H	-0.309127	-0.032931	0.216820
C232	C	-0.359158	-0.212368	0.183518
C233	C	-0.396651	-0.163942	0.227877
H234	H	-0.366792	-0.271884	0.182900
H235	H	-0.388697	-0.214482	0.164088
H236	H	-0.296543	-0.183587	0.173476
H237	H	-0.459267	-0.192718	0.237916
H238	H	-0.367123	-0.161836	0.247309
O239	O	0.557047	-0.377216	-0.087054
C240	C	0.566524	-0.283868	-0.068232
H241	H	0.568054	-0.262737	-0.031796
H242	H	0.506990	-0.267536	-0.068600
C243	C	0.653352	-0.258462	-0.141144
C244	C	0.655239	-0.232507	-0.096394
H245	H	0.708072	-0.226779	-0.158517
H246	H	0.646964	-0.321352	-0.153826
H247	H	0.603736	-0.244850	-0.141445
H248	H	0.704847	-0.246129	-0.096094
H249	H	0.661637	-0.169618	-0.083714
O250	O	-0.519959	-0.048617	0.156236
C251	C	-0.564500	-0.136146	0.161127
H252	H	-0.606464	-0.131721	0.197994
H253	H	-0.512323	-0.173791	0.150895
C254	C	-0.575407	-0.192317	0.085206
C255	C	-0.626955	-0.186882	0.130487
H256	H	-0.613930	-0.223615	0.066304
H257	H	-0.545396	-0.133348	0.081910
H258	H	-0.531929	-0.223686	0.076686
H259	H	-0.670424	-0.155503	0.139007
H260	H	-0.656975	-0.245847	0.133783
H261	H	-0.365918	0.157102	-0.260160
H262	H	-0.015274	-0.667410	-0.915397
H263	H	-0.518447	0.052455	0.347905
H264	H	0.182115	-0.525189	-0.530531
O265	O	-0.004505	-0.768407	-0.874767
C266	C	0.076498	-0.776708	-0.875486
H267	H	0.103244	-0.718984	-0.847692
H268	H	0.128759	-0.774273	-0.909906
C269	C	0.025403	-0.937937	-0.901457
C270	C	0.058250	-0.867044	-0.867317
H271	H	0.014150	-0.993662	-0.896420
H272	H	-0.029168	-0.932345	-0.900974
H273	H	0.068960	-0.935896	-0.930137
H274	H	0.014689	-0.869079	-0.838639
H275	H	0.112814	-0.872639	-0.867795
H276	H	0.780052	-0.386407	-0.516111
H277	H	0.413839	-0.532573	0.042316
O278	O	-0.277450	0.042975	0.218594
C279	C	-0.339574	0.049620	0.202464
H280	H	-0.392462	0.081095	0.232299
H281	H	-0.374262	-0.020416	0.183729
C282	C	-0.224175	0.070311	0.133204
C283	C	-0.289129	0.108976	0.169848
H284	H	-0.193059	0.106921	0.113083
H285	H	-0.182322	0.065831	0.144070
H286	H	-0.253093	0.011949	0.117597
H287	H	-0.260210	0.167332	0.185457
H288	H	-0.330977	0.113468	0.158983
O289	O	0.510476	-0.230401	-0.027518
C290	C	0.517022	-0.230951	0.012920
H291	H	0.459623	-0.287387	0.025958
H292	H	0.512105	-0.163569	0.039512
C293	C	0.678849	-0.177021	-0.012452
C294	C	0.608355	-0.246341	0.003558
H295	H	0.735189	-0.186510	-0.018226
H296	H	0.674440	-0.176647	-0.039696
H297	H	0.674740	-0.120876	0.009710
H298	H	0.612459	-0.302483	-0.018606
H299	H	0.612767	-0.246725	0.030798
H300	H	-0.281187	0.020914	-0.148901
H301	H	0.003321	-0.760550	-0.802778
O302	O	-0.259894	0.033383	0.354633
C303	C	-0.232717	-0.046877	0.333300
H304	H	-0.231794	-0.072039	0.296278
H305	H	-0.282241	-0.100074	0.351260
C306	C	-0.138511	0.002209	0.381218
C307	C	-0.137370	-0.028692	0.335746
H308	H	-0.079699	0.013423	0.382728
H309	H	-0.156823	0.056280	0.395592
H310	H	-0.179786	-0.042128	0.396179
H311	H	-0.096105	0.015648	0.320787
H312	H	-0.119048	-0.082756	0.321370
H313	H	0.261721	-0.474856	-0.029430
H314	H	0.718963	-0.692464	-0.005731
H315	H	-0.023809	-0.160979	-0.735279
H316	H	0.013390	-0.692483	-0.152899
O317	O	0.014007	-0.700215	-0.649086
C318	C	0.092841	-0.730309	-0.671186
H319	H	0.145383	-0.685311	-0.693291
H320	H	0.075735	-0.802627	-0.693330
C321	C	0.066553	-0.781546	-0.608407
C322	C	0.131089	-0.726274	-0.635553
H323	H	0.090145	-0.779062	-0.586427
H324	H	0.013439	-0.761275	-0.593518
H325	H	0.052303	-0.841806	-0.626865
H326	H	0.145328	-0.666014	-0.617096
H327	H	0.184206	-0.746535	-0.650438
H328	H	-0.048864	-0.224020	-0.386283
O329	O	-0.050616	-0.224902	-0.885685
C330	C	0.022517	-0.210258	-0.924357
H331	H	0.062000	-0.261850	-0.936833
H332	H	0.068878	-0.139544	-0.915261
C333	C	-0.062053	-0.156728	-0.946710
C334	C	-0.013563	-0.220099	-0.962036
H335	H	-0.084307	-0.162793	-0.969952
H336	H	-0.111324	-0.166590	-0.920655
H337	H	-0.023411	-0.097805	-0.939130
H338	H	-0.052208	-0.279020	-0.969610
H339	H	0.035700	-0.210247	-0.988093
H340	H	0.191099	-0.662437	-0.527221
H341	H	-0.297145	0.029698	-0.274103
O342	O	0.317015	-0.448070	0.038059
C343	C	0.292280	-0.495125	0.069804
H344	H	0.355720	-0.499721	0.072594
H345	H	0.248048	-0.565829	0.058162
C346	C	0.161395	-0.439161	0.113013
C347	C	0.239314	-0.444800	0.116442
H348	H	0.128719	-0.408121	0.141781
H349	H	0.178057	-0.407462	0.091624
H350	H	0.124545	-0.498085	0.103309
H351	H	0.276167	-0.385877	0.126140
H352	H	0.222657	-0.476488	0.137834
O353	O	-0.132982	-0.620284	-0.262808
C354	C	-0.177533	-0.616252	-0.216659
H355	H	-0.176647	-0.543506	-0.195961
H356	H	-0.141500	-0.642682	-0.204150
C357	C	-0.277159	-0.763762	-0.236527
C358	C	-0.276077	-0.674415	-0.211106
H359	H	-0.337944	-0.799642	-0.233101
H360	H	-0.247142	-0.766481	-0.267618
H361	H	-0.247126	-0.785774	-0.226099
H362	H	-0.306099	-0.652401	-0.221537
H363	H	-0.306101	-0.671694	-0.180015
O364	O	0.709377	-0.427441	-0.009911
C365	C	0.734837	-0.376156	0.030011
H366	H	0.743205	-0.422269	0.044612
H367	H	0.680328	-0.341704	0.055921
C368	C	0.814698	-0.247747	0.000960
C369	C	0.824983	-0.304383	0.018892
H370	H	0.870302	-0.203471	-0.005897
H371	H	0.797543	-0.282296	-0.025935
H372	H	0.769271	-0.219046	0.022555
H373	H	0.870401	-0.333091	-0.002704
H374	H	0.842148	-0.269836	0.045784
H375	H	0.088092	-0.309407	-0.275738
O376	O	-0.004796	-0.247429	-0.615613
C377	C	-0.008480	-0.157873	-0.602610
H378	H	-0.040908	-0.151484	-0.624807
H379	H	0.062919	-0.110860	-0.606940
C380	C	-0.025319	-0.140029	-0.525312
C381	C	-0.065155	-0.132184	-0.552571
H382	H	-0.060275	-0.124181	-0.494445
H383	H	-0.022834	-0.200364	-0.534072
H384	H	0.034178	-0.100852	-0.528925
H385	H	-0.124646	-0.171369	-0.548961
H386	H	-0.067651	-0.071855	-0.543809
O387	O	-0.683193	-0.055495	-0.265606
C388	C	-0.742242	-0.047950	-0.221074
H389	H	-0.715338	0.019716	-0.197600
H390	H	-0.746949	-0.104657	-0.208974
C391	C	-0.869777	-0.137620	-0.249313
C392	C	-0.836736	-0.054508	-0.220483
H393	H	-0.928066	-0.141669	-0.248949
H394	H	-0.829994	-0.142706	-0.279316
H395	H	-0.873691	-0.184866	-0.239226
H396	H	-0.832811	-0.007264	-0.230574
H397	H	-0.876520	-0.049413	-0.190483
O398	O	-0.488814	0.185455	0.317864
C399	C	-0.533736	0.251172	0.330280
H400	H	-0.587065	0.223518	0.311842
H401	H	-0.482749	0.313976	0.320563
C402	C	-0.514141	0.309443	0.404521
C403	C	-0.579646	0.275475	0.381878
H404	H	-0.542458	0.324438	0.436349
H405	H	-0.483874	0.265171	0.396155
H406	H	-0.471658	0.361776	0.396418
H407	H	-0.622122	0.223138	0.389976
H408	H	-0.609922	0.319739	0.390245
O409	O	-0.580363	0.207552	0.274016
C410	C	-0.542972	0.262145	0.244499
H411	H	-0.515057	0.220855	0.208406
H412	H	-0.486036	0.321492	0.255453
C413	C	-0.651034	0.348103	0.290545
C414	C	-0.616755	0.297388	0.246213
H415	H	-0.696544	0.369847	0.291603
H416	H	-0.676223	0.311325	0.310432
H417	H	-0.603579	0.397552	0.299668
H418	H	-0.664207	0.247934	0.237093
H419	H	-0.591575	0.334159	0.226324
H420	H	-0.724884	0.094041	0.248327
H421	H	0.710767	-0.684484	-0.506030
H422	H	0.279916	-0.749353	-0.522691
O423	O	0.688662	-0.148132	-0.524069
C424	C	0.777833	-0.121546	-0.522023
H425	H	0.803347	-0.183608	-0.534651
H426	H	0.778955	-0.084791	-0.485473
C427	C	0.807923	0.017907	-0.536596
C428	C	0.839262	-0.058319	-0.552109
H429	H	0.845815	0.056911	-0.555153
H430	H	0.747845	-0.000003	-0.537973
H431	H	0.808859	0.048525	-0.506137
H432	H	0.838314	-0.088941	-0.582565
H433	H	0.899341	-0.040413	-0.550738
H434	H	-0.023718	-0.530163	-0.918978
O435	O	0.118340	-0.386022	-0.231053
C436	C	0.168967	-0.301932	-0.239427
H437	H	0.125363	-0.274039	-0.246376
H438	H	0.230841	-0.310602	-0.270159
C439	C	0.253142	-0.270302	-0.189139
C440	C	0.199585	-0.236040	-0.197670
H441	H	0.272033	-0.229657	-0.163383
H442	H	0.219037	-0.326956	-0.183498
H443	H	0.304698	-0.277526	-0.214752
H444	H	0.148026	-0.228827	-0.172060
H445	H	0.233682	-0.179383	-0.203306
H446	H	-0.740818	0.102779	0.123104
H447	H	0.001660	-0.441639	-0.159184
H448	H	0.417564	-0.755580	-0.518528
H449	H	0.001650	-0.679613	-0.278166
H450	H	-0.449229	0.177371	-0.300885
O451	O	0.237853	-0.216284	-0.033688
C452	C	0.160920	-0.213656	0.004674
H453	H	0.173282	-0.225156	0.032713
H454	H	0.100006	-0.268589	-0.004818
C455	C	0.127287	-0.106922	-0.012916
C456	C	0.142473	-0.121038	0.021524
H457	H	0.115905	-0.049793	-0.002523
H458	H	0.179117	-0.108695	-0.038763
H459	H	0.076527	-0.152706	-0.020823
H460	H	0.193239	-0.075262	0.029426
H461	H	0.090652	-0.119256	0.047372
H462	H	-0.503619	0.071273	-0.373665
O463	O	-0.545867	0.040332	-0.148438
C464	C	-0.547526	0.117730	-0.110850
H465	H	-0.478221	0.168579	-0.116200
H466	H	-0.565275	0.098262	-0.078779
C467	C	-0.704101	0.097431	-0.099314
C468	C	-0.618982	0.159887	-0.105887
H469	H	-0.748181	0.123434	-0.096250
H470	H	-0.702985	0.045284	-0.124637
H471	H	-0.718879	0.081212	-0.072589
H472	H	-0.604200	0.176096	-0.132614
H473	H	-0.620097	0.212038	-0.080568
H474	H	-0.586315	-0.066836	-0.224702
H475	H	-0.754334	0.089615	-0.376700
O476	O	0.454259	-0.686250	-0.011792
C477	C	0.452553	-0.761368	-0.050473
H478	H	0.515085	-0.785509	-0.061628
H479	H	0.451928	-0.741504	-0.079097
C480	C	0.290259	-0.807997	-0.025290
C481	C	0.367058	-0.837651	-0.038988
H482	H	0.237521	-0.855051	-0.018207
H483	H	0.291408	-0.757387	0.000770
H484	H	0.289751	-0.791443	-0.049145
H485	H	0.367571	-0.854193	-0.015131
H486	H	0.365908	-0.888266	-0.065044
H487	H	-0.142704	-0.524425	-0.305055
H488	H	-0.738384	0.080845	-0.251490
H489	H	-0.490116	0.084434	0.126151
O490	O	-0.036843	-0.489026	-0.383301
C491	C	-0.115995	-0.540347	-0.396374
H492	H	-0.145862	-0.494256	-0.400236
H493	H	-0.167328	-0.574834	-0.369359
C494	C	-0.056088	-0.668693	-0.437190
C495	C	-0.092766	-0.612084	-0.441937
H496	H	-0.041761	-0.712947	-0.465293
H497	H	-0.002762	-0.634119	-0.428380
H498	H	-0.098870	-0.697423	-0.414675
H499	H	-0.049980	-0.583347	-0.464447
H500	H	-0.146084	-0.646656	-0.450751
O501	O	0.647662	-0.468500	-0.077383
C502	C	0.642068	-0.510775	-0.122090
H503	H	0.579605	-0.503295	-0.124461
H504	H	0.636998	-0.585287	-0.131519
C505	C	0.803898	-0.475589	-0.152074
C506	C	0.727185	-0.466396	-0.154987
H507	H	0.856404	-0.448218	-0.172367
H508	H	0.807668	-0.447111	-0.121954
H509	H	0.799661	-0.537685	-0.159931
H510	H	0.731418	-0.404302	-0.147125
H511	H	0.723418	-0.494863	-0.185107
O512	O	0.237846	-0.216325	-0.533700
C513	C	0.160910	-0.213669	-0.495340
H514	H	0.173258	-0.225153	-0.467292
H515	H	0.099992	-0.268598	-0.504829
C516	C	0.127317	-0.106946	-0.512958
C517	C	0.142485	-0.121044	-0.478507
H518	H	0.115947	-0.049813	-0.502575
H519	H	0.179147	-0.108738	-0.538802
H520	H	0.076553	-0.152727	-0.520862
H521	H	0.193254	-0.075271	-0.470607
H522	H	0.090662	-0.119243	-0.452660
O523	O	0.550904	-0.141855	-0.528153
C524	C	0.576295	-0.090190	-0.488240
H525	H	0.584996	-0.135966	-0.473562
H526	H	0.521587	-0.055963	-0.462377
C527	C	0.655492	0.038069	-0.517436
C528	C	0.666186	-0.018153	-0.499410
H529	H	0.710939	0.082509	-0.524325
H530	H	0.638383	0.003264	-0.544325
H531	H	0.609899	0.066583	-0.495880
H532	H	0.711770	-0.046673	-0.520967
H533	H	0.683304	0.016651	-0.472524
H534	H	0.771070	-0.249160	-0.519423
H535	H	0.003251	-0.391359	-0.619081
H536	H	-0.015393	-0.167196	-0.666497
