data_functionalizedCrystal
_audit_creation_method	'MofGen! by Chris Wilmer'
_symmetry_space_group_name_H-M	'P1'
_symmetry_Int_Tables_number	1
_symmetry_cell_setting	triclinic
loop_
_symmetry_equiv_pos_as_xyz
  x,y,z
_cell_length_a	14.560438
_cell_length_b	23.196402
_cell_length_c	23.196401
_cell_angle_alpha	59.999265
_cell_angle_beta	90.007083
_cell_angle_gamma	60.002032
loop_
_atom_site_label
_atom_site_type_symbol
_atom_site_fract_x
_atom_site_fract_y
_atom_site_fract_z
Zr1	Zr	0.884758	0.631020	-0.075624
O2	O	0.738090	0.751300	-0.167680
O3	O	0.929716	0.510751	-0.047408
O4	O	0.929686	0.631037	-0.167683
O5	O	0.738148	0.630998	0.047474
O6	O	1.080824	0.631038	-0.167681
O7	O	0.738120	0.631014	-0.047405
O8	O	1.080878	0.415869	0.047468
O9	O	0.738094	0.846167	-0.167675
O10	O	1.061687	0.560217	-0.035369
O11	O	0.948915	0.560203	0.035437
O12	O	0.948880	0.701825	-0.106171
O13	O	0.836108	0.701811	-0.035365
Zr14	Zr	1.125851	0.630997	0.075699
Zr15	Zr	1.125806	0.631023	-0.075622
Zr16	Zr	0.884802	0.630994	0.075696
Zr17	Zr	0.884765	0.782323	-0.075618
Zr18	Zr	1.125844	0.479694	0.075692
O19	O	1.080893	0.751266	0.047483
O20	O	1.080829	0.751303	-0.167676
O21	O	0.738153	0.751263	0.047479
O22	O	1.272519	0.510717	0.167754
O23	O	1.272455	0.510754	-0.047405
O24	O	0.929779	0.510714	0.167751
O25	O	1.272460	0.631020	-0.047399
O26	O	1.080923	0.630981	0.167757
O27	O	0.929785	0.630979	0.167756
O28	O	1.272488	0.631003	0.047479
O29	O	0.929695	0.846169	-0.167674
O30	O	1.080913	0.415848	0.167748
O31	O	1.272514	0.415850	0.167750
O32	O	1.272479	0.415871	0.047470
O33	O	0.738129	0.846146	-0.047396
O34	O	0.929731	0.846148	-0.047394
O35	O	1.061729	0.560192	0.106245
O36	O	1.174501	0.560206	0.035439
O37	O	1.061693	0.701814	-0.035363
O38	O	0.948921	0.701800	0.035443
C39	C	1.005296	0.441752	0.000029
C40	C	1.005293	0.377520	0.000026
C41	C	1.064151	0.347357	-0.036936
C42	C	1.064162	0.286996	-0.036930
C43	C	1.005293	0.256812	0.000028
C44	C	0.946432	0.286980	0.036999
C45	C	0.946432	0.347334	0.036998
C46	C	0.906671	0.194783	-0.005248
C47	C	0.906668	0.134433	-0.005252
C48	C	1.005294	0.070657	0.000035
C49	C	1.103923	0.067246	0.005312
C50	C	1.103923	0.127600	0.005311
C51	C	1.005287	0.191368	0.000034
C52	C	1.064169	-0.024957	-0.036923
C53	C	1.064183	-0.085323	-0.036912
C54	C	0.946443	-0.085332	0.037013
C55	C	0.946440	-0.024973	0.037007
C56	C	1.005300	0.005213	0.000035
C57	C	0.703790	0.631005	0.000034
C58	C	0.601459	0.631004	0.000033
C59	C	0.612264	0.557088	0.036991
C60	C	0.516110	0.557092	0.036997
C61	C	0.398346	0.704935	-0.036918
C62	C	0.494500	0.704930	-0.036919
C63	C	0.680254	0.471732	0.079663
C64	C	0.584099	0.471735	0.079669
C65	C	1.306819	0.631012	0.000040
C66	C	1.409150	0.631013	0.000041
C67	C	1.005248	0.631041	-0.189242
C68	C	1.005230	0.631052	-0.253482
C69	C	1.005313	0.820265	0.000045
C70	C	1.005315	0.884497	0.000048
C71	C	1.088495	0.631054	-0.283644
C72	C	1.088521	0.631038	-0.343991
C73	C	1.005262	0.631036	-0.374181
C74	C	0.921989	0.631029	-0.344009
C75	C	0.921973	0.631037	-0.283659
C76	C	0.903652	0.678529	-0.493561
C77	C	0.903668	0.678526	-0.553912
C78	C	1.005312	0.631007	-0.560317
C79	C	1.106947	0.583501	-0.506368
C80	C	1.106931	0.583509	-0.446019
C81	C	1.005271	0.631026	-0.439619
C82	C	1.088612	0.630990	-0.655913
C83	C	1.088637	0.630969	-0.716259
C84	C	0.922097	0.630968	-0.716280
C85	C	0.922080	0.630981	-0.655932
C86	C	1.005337	0.630996	-0.625754
C87	C	1.005360	0.630976	0.189316
C88	C	1.005379	0.630965	0.253556
C89	C	1.306810	0.441756	0.000032
C90	C	1.409139	0.377525	0.000030
C91	C	1.005352	0.441720	0.189308
C92	C	1.005368	0.377477	0.253545
C93	C	1.306866	0.441723	0.189311
C94	C	1.409213	0.377481	0.253549
C95	C	0.703742	0.820294	-0.189237
C96	C	0.601395	0.884536	-0.253475
C97	C	0.703798	0.820262	0.000042
C98	C	0.601470	0.884492	0.000044
C99	C	1.005257	0.820297	-0.189234
C100	C	1.005241	0.884540	-0.253471
C101	C	1.398306	0.347367	-0.036938
C102	C	1.494445	0.287024	-0.036954
C103	C	1.601416	0.256835	0.000003
C104	C	1.612247	0.286999	0.036973
C105	C	1.516109	0.347345	0.036984
C106	C	1.064263	0.347302	0.320679
C107	C	1.064274	0.286948	0.381042
C108	C	1.005395	0.256765	0.374270
C109	C	0.946493	0.286946	0.307129
C110	C	0.946476	0.347303	0.246767
C111	C	1.516153	0.347320	0.246756
C112	C	1.612328	0.286966	0.307109
C113	C	1.601562	0.256771	0.374254
C114	C	1.494611	0.286939	0.381045
C115	C	1.398438	0.347295	0.320694
C116	C	0.494456	0.914705	-0.246682
C117	C	0.398280	0.975077	-0.307034
C118	C	0.409047	1.005275	-0.374179
C119	C	0.515997	0.975104	-0.380971
C120	C	0.612170	0.914737	-0.320619
C121	C	0.612303	0.914656	0.037006
C122	C	0.516164	0.975016	0.037005
C123	C	0.409192	1.005207	0.000046
C124	C	0.398362	0.975040	-0.036921
C125	C	0.494500	0.914686	-0.036923
C126	C	1.064130	0.914704	-0.246676
C127	C	1.064137	0.975059	-0.307027
C128	C	1.005247	1.005253	-0.374173
C129	C	0.946355	0.975084	-0.380967
C130	C	0.946356	0.914726	-0.320616
H131	H	1.112102	-0.000381	-0.067025
Br132	Br	0.866544	0.388244	0.155659
H133	H	0.311251	0.765123	-0.067003
Br134	Br	0.809112	0.630951	-0.757241
Br135	Br	1.253142	0.388326	-0.087102
H136	H	0.575397	0.445239	0.134319
Br137	Br	0.479830	0.805249	-0.087063
H138	H	1.112093	0.262432	-0.067031
Br139	Br	1.244856	0.519035	-0.372803
Br140	Br	0.479813	0.873733	-0.155564
Br141	Br	0.866556	0.015966	0.087173
Br142	Br	0.584051	0.417153	0.040076
Br143	Br	1.244905	0.519013	-0.515054
H144	H	1.524940	0.371895	0.192089
H145	H	1.112082	0.371931	-0.067039
H146	H	0.898396	0.890173	-0.326158
H147	H	1.156290	0.631064	-0.259074
Br148	Br	0.767297	0.417091	0.173853
Br149	Br	1.144185	0.388247	0.329889
Br150	Br	1.144220	0.246000	0.472152
H151	H	1.699403	0.262410	0.301566
H152	H	1.184230	0.124818	0.009610
Br153	Br	0.809068	0.630981	-0.614994
H154	H	0.330727	1.054430	-0.423316
Br155	Br	0.772815	0.139073	-0.012420
Br156	Br	1.144062	0.873740	-0.155557
H157	H	0.311253	0.999631	-0.067012
Br158	Br	1.732095	0.174858	0.456154
H159	H	0.311206	0.999633	-0.301490
H160	H	1.156408	0.630999	-0.631340
H161	H	0.699242	0.890174	-0.326159
Br162	Br	1.237780	-0.019298	0.012482
Br163	Br	0.757466	0.873699	0.087169
H164	H	1.112120	-0.109886	-0.067008
H165	H	0.525004	0.999568	0.067110
Br166	Br	1.201535	0.631040	-0.384932
Br167	Br	0.772810	0.281333	-0.012422
H168	H	0.898511	-0.109907	0.067105
H169	H	0.898502	0.262400	0.067092
Br170	Br	1.480019	0.245951	0.472177
H171	H	0.898500	0.371893	0.067097
H172	H	0.330920	1.054352	0.000054
Br173	Br	0.479777	0.873752	-0.087088
Br174	Br	1.253310	0.388218	0.329926
Br175	Br	1.005429	0.174850	0.456198
H176	H	0.731152	0.445257	0.051497
Br177	Br	0.765738	0.743004	-0.627125
Br178	Br	1.144062	1.015993	-0.297791
H179	H	0.898556	0.262362	0.301626
H180	H	1.005255	1.054401	-0.423309
H181	H	1.679689	0.207697	-0.000011
H182	H	1.156448	0.630966	-0.740815
H183	H	0.898409	0.999677	-0.435645
Br184	Br	1.479719	0.246099	-0.087128
H185	H	0.524750	0.999699	-0.435648
Br186	Br	0.765703	0.743089	-0.484910
H187	H	0.854200	0.631025	-0.368592
H188	H	1.699356	0.262411	0.067062
Br189	Br	1.530831	0.388262	0.087165
Br190	Br	0.808961	0.631033	-0.242720
