data_functionalizedCrystal
_audit_creation_method	'MofGen! by Chris Wilmer'
_symmetry_space_group_name_H-M	'P1'
_symmetry_Int_Tables_number	1
_symmetry_cell_setting	triclinic
loop_
_symmetry_equiv_pos_as_xyz
  x,y,z
_cell_length_a	15.944499
_cell_length_b	15.995350
_cell_length_c	14.472310
_cell_angle_alpha	89.998838
_cell_angle_beta	89.991446
_cell_angle_gamma	96.515008
loop_
_atom_site_label
_atom_site_type_symbol
_atom_site_fract_x
_atom_site_fract_y
_atom_site_fract_z
O1	O	1.114556	-0.107777	-0.076740
O2	O	0.870000	-0.121136	-0.076763
O3	O	0.998963	0.007432	-0.076750
O4	O	0.985593	-0.236345	-0.076753
O5	O	0.998930	0.007425	0.076932
O6	O	0.869967	-0.121143	0.076919
O7	O	1.114523	-0.107784	0.076942
Cu8	Cu	0.992242	-0.114464	0.090963
Cu9	Cu	0.992281	-0.114456	-0.090784
O10	O	0.985560	-0.236352	0.076929
C11	C	0.838689	-0.120593	0.000075
C12	C	0.745440	-0.118953	0.000067
C13	C	0.998394	0.038623	0.000089
C14	C	0.996737	0.131573	0.000084
C15	C	1.145834	-0.108327	0.000102
C16	C	1.239082	-0.109967	0.000104
C17	C	1.530623	-0.035272	0.000087
C18	C	1.469604	-0.074097	-0.075687
C19	C	1.574719	-0.115924	0.000078
C20	C	1.469593	-0.074126	0.075831
C21	C	1.409810	-0.112993	0.000092
C22	C	1.514928	-0.154771	-0.075760
C23	C	1.514923	-0.154789	0.075827
C24	C	1.453922	-0.193672	0.000034
C25	C	1.669719	-0.117611	0.000068
C26	C	1.314811	-0.111313	0.000095
C27	C	0.986129	-0.267543	0.000088
C28	C	0.987786	-0.360493	0.000087
N29	N	0.992220	-0.114470	0.218794
C30	C	0.990785	0.469320	0.000086
C31	C	0.898940	0.421874	-0.000267
C32	C	0.900598	0.325184	0.000080
C33	C	0.993737	0.301760	0.000085
C34	C	1.039020	0.342839	0.087847
C35	C	1.036713	0.439474	0.087920
C36	C	1.038648	0.439841	-0.086845
C37	C	1.038626	0.342896	-0.088005
C38	C	0.995411	0.207063	0.000087
C39	C	0.989115	0.564018	0.000090
N40	N	0.992309	-0.114443	-0.218615
C41	C	0.992280	-0.114452	0.592885
C42	C	0.923043	-0.183016	0.553712
C43	C	0.923202	-0.183266	0.446624
C44	C	0.992250	-0.114461	0.407294
C45	C	1.079894	-0.133532	0.446139
C46	C	1.079505	-0.134019	0.553260
C47	C	0.974654	-0.026615	0.553413
C48	C	0.972644	-0.027201	0.446286
C49	C	0.992238	-0.114465	0.302406
C50	C	0.992297	-0.114451	0.697773
H51	H	1.563983	0.031650	-0.000004
H52	H	0.857684	-0.171842	0.579494
H53	H	1.132647	-0.084921	0.420661
H54	H	1.019798	0.026210	0.419516
F55	F	1.099805	-0.217748	0.585909
H56	H	0.934143	-0.247832	0.580622
H57	H	1.005519	0.315646	-0.152929
F58	F	1.443357	-0.029506	-0.159420
H59	H	1.534915	-0.188854	-0.139891
H60	H	1.132636	-0.086049	0.579172
H61	H	1.095797	-0.196860	0.419303
H62	H	1.106549	0.327543	-0.093300
H63	H	1.106365	0.471611	-0.087431
H64	H	1.420736	-0.260663	-0.000011
H65	H	1.535026	-0.188878	0.139890
H66	H	0.864735	0.297312	0.063092
F67	F	1.443341	-0.029527	0.159563
F68	F	0.854071	0.288030	-0.082150
F69	F	0.892918	-0.002655	0.588759
F70	F	0.851030	0.447756	0.081304
H71	H	0.862244	0.440404	-0.063203
F72	F	0.888374	-0.008282	0.413104
H73	H	1.003665	0.457768	0.153521
H74	H	1.107446	0.328722	0.091114
H75	H	1.025146	0.024408	0.578745
F76	F	1.124847	0.481639	0.093139
H77	H	1.007542	0.314450	0.153153
H78	H	0.858055	-0.171905	0.420362
H79	H	1.008633	0.460380	-0.153363
H80	H	0.934458	-0.248449	0.420991
