data_functionalizedCrystal
_audit_creation_method	'MofGen! by Chris Wilmer'
_symmetry_space_group_name_H-M	'P1'
_symmetry_Int_Tables_number	1
_symmetry_cell_setting	triclinic
loop_
_symmetry_equiv_pos_as_xyz
  x,y,z
_cell_length_a	13.897449
_cell_length_b	13.897448
_cell_length_c	13.897441
_cell_angle_alpha	90.028012
_cell_angle_beta	89.979267
_cell_angle_gamma	89.979152
loop_
_atom_site_label
_atom_site_type_symbol
_atom_site_fract_x
_atom_site_fract_y
_atom_site_fract_z
Zn1	Zn	1.474690	0.383951	-0.545399
Zn2	Zn	1.974690	0.883951	-0.045399
Zn3	Zn	1.474579	0.545273	-0.384107
Zn4	Zn	1.974579	1.045273	0.115893
Zn5	Zn	1.313379	0.383997	-0.384117
Zn6	Zn	1.813379	0.883997	0.115883
Zn7	Zn	1.313356	0.545210	-0.545360
Zn8	Zn	1.813356	1.045210	-0.045360
O9	O	1.394001	0.464608	-0.464746
O10	O	1.894001	0.964608	0.035254
O11	O	1.609657	0.405358	-0.524015
O12	O	2.109657	0.905358	-0.024015
O13	O	1.453159	0.523925	-0.249127
O14	O	1.953159	1.023925	0.250873
O15	O	1.334834	0.249009	-0.405532
O16	O	1.834834	0.749009	0.094468
O17	O	1.609575	0.523881	-0.405515
O18	O	2.109575	1.023881	0.094485
O19	O	1.453348	0.248976	-0.524024
O20	O	1.953348	0.748976	-0.024024
O21	O	1.334726	0.405436	-0.249134
O22	O	1.834726	0.905436	0.250866
O23	O	1.178394	0.405375	-0.405494
O24	O	1.678394	0.905375	0.094506
O25	O	1.334794	0.523773	-0.680347
O26	O	1.834794	1.023773	-0.180347
O27	O	1.178377	0.523817	-0.523958
O28	O	1.678377	1.023817	-0.023958
O29	O	1.453325	0.405297	-0.680375
O30	O	1.953325	0.905297	-0.180375
O31	O	1.453136	0.680246	-0.405477
O32	O	1.953136	1.180246	0.094523
O33	O	1.334686	0.680200	-0.523949
O34	O	1.834686	1.180200	-0.023949
C35	C	1.143387	0.464595	-0.464724
C36	C	1.643387	0.964595	0.035276
C37	C	1.036173	0.464613	-0.464737
C38	C	1.536173	0.964613	0.035263
C39	C	1.393922	0.715222	-0.464729
C40	C	1.893922	1.215222	0.035271
C41	C	1.393977	0.822436	-0.464754
C42	C	1.893977	1.322436	0.035246
C43	C	1.394069	0.464522	-0.716339
C44	C	1.894069	0.964522	-0.216339
C45	C	1.394098	0.464486	-0.823553
C46	C	1.894098	0.964486	-0.323553
C47	C	0.839878	0.464616	-0.464762
C48	C	1.339878	0.964616	0.035238
C49	C	0.949110	0.464611	-0.464746
C50	C	1.449110	0.964611	0.035254
C51	C	1.645594	0.464621	-0.464768
C52	C	2.145594	0.964621	0.035232
C53	C	1.752808	0.464627	-0.464778
C54	C	2.252808	0.964627	0.035222
C55	C	1.394072	1.018731	-0.464824
C56	C	1.894072	1.518731	0.035176
C57	C	1.394016	0.909499	-0.464788
C58	C	1.894016	1.409499	0.035212
C59	C	1.394098	1.213015	-0.464795
C60	C	1.894098	1.713015	0.035205
C61	C	1.394118	1.105801	-0.464845
C62	C	1.894118	1.605801	0.035155
C63	C	1.394125	0.464421	-1.019848
C64	C	1.894125	0.964421	-0.519848
C65	C	1.394107	0.464460	-0.910615
C66	C	1.894107	0.964460	-0.410615
C67	C	1.393988	0.464623	-0.214131
C68	C	1.893988	0.964623	0.285869
C69	C	1.394146	0.464388	-0.106918
C70	C	1.894146	0.964388	0.393082
