data_functionalizedCrystal
_audit_creation_method	'MofGen! by Chris Wilmer'
_symmetry_space_group_name_H-M	'P1'
_symmetry_Int_Tables_number	1
_symmetry_cell_setting	triclinic
loop_
_symmetry_equiv_pos_as_xyz
  x,y,z
_cell_length_a	10.654550
_cell_length_b	10.654550
_cell_length_c	9.730223
_cell_angle_alpha	90.004253
_cell_angle_beta	90.000043
_cell_angle_gamma	84.484931
loop_
_atom_site_label
_atom_site_type_symbol
_atom_site_fract_x
_atom_site_fract_y
_atom_site_fract_z
O1	O	-1.667839	-0.176399	-0.114187
O2	O	-1.302361	-0.193205	-0.114212
O3	O	-1.493503	-0.002062	-0.114190
O4	O	-1.476697	-0.367541	-0.114209
O5	O	-1.493490	-0.002057	0.114390
O6	O	-1.302348	-0.193199	0.114368
O7	O	-1.667827	-0.176393	0.114393
Zn8	Zn	-1.485085	-0.184796	0.150672
Zn9	Zn	-1.485102	-0.184802	-0.150492
O10	O	-1.476684	-0.367536	0.114371
C11	C	-1.255556	-0.191968	0.000075
C12	C	-1.116113	-0.188276	0.000065
C13	C	-1.492263	0.044738	0.000099
C14	C	-1.488571	0.184181	0.000096
C15	C	-1.714631	-0.177630	0.000103
C16	C	-1.854074	-0.181322	0.000104
C17	C	-1.477925	-0.414336	0.000079
C18	C	-1.481617	-0.553779	0.000072
C19	C	-1.036628	-0.300818	0.000064
C20	C	-0.905607	-0.297341	0.000088
C21	C	-0.933570	-0.068772	0.000109
C22	C	-1.064588	-0.072250	0.000095
N23	N	-1.485083	-0.184790	0.356209
C24	C	-1.601112	0.263667	0.000104
C25	C	-1.597636	0.394688	0.000087
C26	C	-1.369066	0.366725	0.000061
C27	C	-1.372544	0.235706	0.000068
N28	N	-1.485114	-0.184798	-0.356028
C29	C	-1.569750	-0.100188	0.428144
C30	C	-1.569763	-0.100189	0.572027
C31	C	-1.400438	-0.269404	0.572026
C32	C	-1.400420	-0.269396	0.428146
H33	H	-1.078574	-0.395294	0.000049
H34	H	-1.638687	-0.031295	0.369576
Cl35	Cl	-1.746974	0.198897	0.000136
H36	H	-1.274601	0.408693	0.000041
H37	H	-0.840894	-0.388984	0.000089
H38	H	-1.638705	-0.031297	0.630593
Cl39	Cl	-1.739124	0.494608	0.000093
H40	H	-1.280893	0.170985	0.000058
Cl41	Cl	-1.294013	-0.375766	0.662468
H42	H	-0.891602	0.025693	0.000142
Cl43	Cl	-1.164521	0.069243	0.000108
Cl44	Cl	-1.293967	-0.375755	0.337704
