data_functionalizedCrystal
_audit_creation_method	'MofGen! by Chris Wilmer'
_symmetry_space_group_name_H-M	'P1'
_symmetry_Int_Tables_number	1
_symmetry_cell_setting	triclinic
loop_
_symmetry_equiv_pos_as_xyz
  x,y,z
_cell_length_a	27.435584
_cell_length_b	27.434948
_cell_length_c	27.431174
_cell_angle_alpha	60.005483
_cell_angle_beta	60.011353
_cell_angle_gamma	59.993028
loop_
_atom_site_label
_atom_site_type_symbol
_atom_site_fract_x
_atom_site_fract_y
_atom_site_fract_z
O1	O	0.067437	-0.712144	0.595551
O2	O	0.567437	-0.212144	1.095551
O3	O	0.025356	-0.554453	0.479848
O4	O	0.525356	-0.054453	0.979848
O5	O	0.125206	-0.654236	0.479781
O6	O	0.625206	-0.154236	0.979781
O7	O	-0.032412	-0.612361	0.595618
O8	O	0.467588	-0.112361	1.095618
O9	O	0.158328	-0.621117	0.512835
O10	O	0.658328	-0.121117	1.012835
O11	O	0.058479	-0.521333	0.512902
O12	O	0.558479	-0.021333	1.012902
O13	O	0.100560	-0.679025	0.628605
O14	O	0.600560	-0.179025	1.128605
Zn15	Zn	0.084778	-0.594921	0.576001
Zn16	Zn	0.584778	-0.094921	1.076001
Zn17	Zn	0.041138	-0.638557	0.532452
Zn18	Zn	0.541138	-0.138557	1.032452
O19	O	0.000710	-0.579241	0.628672
O20	O	0.500710	-0.079241	1.128672
N21	N	0.114563	-0.565144	0.605726
N22	N	0.614563	-0.065144	1.105726
N23	N	0.011358	-0.668338	0.502727
N24	N	0.511358	-0.168338	1.002727
C25	C	0.156385	-0.523520	0.904506
C26	C	0.656385	-0.023520	1.404506
C27	C	0.413419	-0.523497	0.647322
C28	C	0.913419	-0.023497	1.147322
C29	C	0.156253	-0.523488	0.647384
C30	C	0.656253	-0.023488	1.147384
C31	C	0.156238	-0.266354	0.647407
C32	C	0.656238	0.233646	1.147407
C33	C	0.197637	-0.390463	0.688753
C34	C	0.697637	0.109537	1.188753
C35	C	0.197646	-0.482126	0.688741
C36	C	0.697646	0.017874	1.188741
C37	C	0.220575	-0.459215	0.711654
C38	C	0.720575	0.040785	1.211654
C39	C	0.320555	-0.441991	0.659023
C40	C	0.820555	0.058009	1.159023
C41	C	0.383051	-0.462825	0.638179
C42	C	0.883051	0.037175	1.138179
C43	C	0.383069	-0.563942	0.676737
C44	C	0.883069	-0.063942	1.176737
C45	C	0.320575	-0.543107	0.697583
C46	C	0.820575	-0.043107	1.197583
C47	C	0.212704	-0.359206	0.627313
C48	C	0.712704	0.140794	1.127313
C49	C	0.191849	-0.296705	0.606496
C50	C	0.691849	0.203295	1.106496
C51	C	0.140866	-0.296722	0.708562
C52	C	0.640866	0.203278	1.208562
C53	C	0.161721	-0.359223	0.729379
C54	C	0.661721	0.140777	1.229379
C55	C	0.136200	-0.467030	0.703858
C56	C	0.636200	0.032970	1.203858
C57	C	0.115361	-0.487857	0.683021
C58	C	0.615361	0.012143	1.183021
C59	C	0.217408	-0.538877	0.631968
C60	C	0.717408	-0.038877	1.131968
C61	C	0.238249	-0.518050	0.652796
C62	C	0.738249	-0.018050	1.152796
C63	C	0.136259	-0.467047	0.811668
C64	C	0.636259	0.032953	1.311668
C65	C	0.115461	-0.487892	0.874167
C66	C	0.615461	0.012108	1.374167
C67	C	0.217537	-0.538923	0.874131
C68	C	0.717537	-0.038923	1.374131
C69	C	0.238333	-0.518080	0.811631
C70	C	0.738333	-0.018080	1.311631
C71	C	0.197693	-0.482140	0.780401
C72	C	0.697693	0.017860	1.280401
C73	C	0.289320	-0.482131	0.688723
C74	C	0.789320	0.017869	1.188723
C75	C	0.132699	-0.546027	0.973247
C76	C	0.632699	-0.046027	1.473247
C77	C	0.482158	-0.545613	0.624075
C78	C	0.982158	-0.045613	1.124075
C79	C	0.132521	-0.546006	0.624886
C80	C	0.632521	-0.046006	1.124886
C81	C	0.132917	-0.197607	0.625310
C82	C	0.632917	0.302393	1.125310
C83	C	-0.098217	-0.686189	0.484419
C84	C	0.401783	-0.186189	0.984419
C85	C	-0.006438	-0.686322	0.392891
C86	C	0.493562	-0.186322	0.892891
C87	C	-0.006621	-0.777944	0.484592
C88	C	0.493379	-0.277944	0.984592
C89	C	-0.006606	-0.686315	0.484649
C90	C	0.493394	-0.186315	0.984649
C91	C	-0.029470	-0.709193	0.461638
C92	C	0.470530	-0.209193	0.961638
N93	N	0.538410	-0.565162	0.605628
N94	N	1.038410	-0.065162	1.105628
O95	O	0.742647	-0.575135	0.458625
O96	O	1.242647	-0.075135	0.958625
O97	O	0.742821	-0.691181	0.616169
O98	O	1.242821	-0.191181	1.116169
O99	O	0.742757	-0.690917	0.516248
O100	O	1.242757	-0.190917	1.016248
O101	O	0.742711	-0.575399	0.558546
O102	O	1.242711	-0.075399	1.058546
O103	O	0.643472	-0.657878	0.549405
O104	O	1.143472	-0.157878	1.049405
O105	O	0.643536	-0.658142	0.649326
O106	O	1.143536	-0.158142	1.149326
O107	O	0.643362	-0.542096	0.491782
O108	O	1.143362	-0.042096	0.991782
Zn109	Zn	0.627685	-0.594873	0.575818
Zn110	Zn	1.127685	-0.094873	1.075818
Zn111	Zn	0.758498	-0.638404	0.532133
Zn112	Zn	1.258498	-0.138404	1.032133
O113	O	0.643426	-0.542360	0.591702
O114	O	1.143426	-0.042360	1.091702
N115	N	0.847774	-0.668115	0.502317
N116	N	1.347774	-0.168115	1.002317
N117	N	0.114542	-0.141354	0.605766
N118	N	0.614542	0.358646	1.105766
O119	O	-0.032397	0.062987	0.595660
O120	O	0.467603	0.562987	1.095660
O121	O	0.125155	0.062987	0.479633
O122	O	0.625155	0.562987	0.979633
O123	O	0.025219	0.062974	0.479910
O124	O	0.525219	0.562974	0.979910
O125	O	0.067539	0.063001	0.595383
O126	O	0.567539	0.563001	1.095383
O127	O	0.058343	-0.036320	0.513009
O128	O	0.558343	0.463680	1.013009
O129	O	0.158279	-0.036306	0.512732
O130	O	0.658279	0.463694	1.012732
O131	O	0.000728	-0.036306	0.628759
O132	O	0.500728	0.463694	1.128759
Zn133	Zn	0.084763	-0.052071	0.576000
Zn134	Zn	0.584763	0.447929	1.076000
Zn135	Zn	0.041120	0.078752	0.532392
Zn136	Zn	0.541120	0.578752	1.032392
O137	O	0.100664	-0.036292	0.628482
O138	O	0.600664	0.463708	1.128482
N139	N	0.011333	0.168036	0.502628
N140	N	0.511333	0.668036	1.002628
N141	N	0.114782	-0.565197	1.029501
N142	N	0.614782	-0.065197	1.529501
O143	O	0.104681	-0.712124	1.233827
O144	O	0.604681	-0.212124	1.733827
O145	O	-0.011334	-0.554523	1.233839
O146	O	0.488666	-0.054523	1.733839
O147	O	-0.011066	-0.654443	1.233797
O148	O	0.488934	-0.154443	1.733797
O149	O	0.104414	-0.612204	1.233869
O150	O	0.604414	-0.112204	1.733869
O151	O	0.022028	-0.621336	1.134509
O152	O	0.522028	-0.121336	1.634509
O153	O	0.021760	-0.521417	1.134551
O154	O	0.521760	-0.021417	1.634551
O155	O	0.137775	-0.679018	1.134539
O156	O	0.637775	-0.179018	1.634539
Zn157	Zn	0.085022	-0.594961	1.118780
Zn158	Zn	0.585022	-0.094961	1.618780
Zn159	Zn	0.041420	-0.638580	1.249597
Zn160	Zn	0.541420	-0.138580	1.749597
O161	O	0.137508	-0.579098	1.134580
O162	O	0.637508	-0.079098	1.634580
N163	N	0.011658	-0.668350	1.338876
N164	N	0.511658	-0.168350	1.838876
C165	C	0.037974	-0.518023	0.480435
C166	C	0.537974	-0.018023	0.980435
C167	C	0.161625	-0.641592	0.480351
C168	C	0.661625	-0.141592	0.980351
C169	C	0.087941	-0.715455	0.628017
C170	C	0.587941	-0.215455	1.128017
C171	C	-0.035710	-0.591885	0.628101
C172	C	0.464290	-0.091885	1.128101
C173	C	0.693199	-0.690642	0.652596
C174	C	1.193199	-0.190642	1.152596
C175	C	0.693122	-0.690315	0.528855
C176	C	1.193122	-0.190315	1.028855
C177	C	0.692981	-0.542634	0.455356
C178	C	1.192981	-0.042634	0.955356
C179	C	0.693062	-0.542961	0.579095
C180	C	1.193062	-0.042961	1.079095
C181	C	0.161524	0.013463	0.480164
C182	C	0.661524	0.513463	0.980164
C183	C	0.037807	0.013324	0.480547
C184	C	0.537807	0.513324	0.980547
C185	C	-0.035683	0.013341	0.628188
C186	C	0.464317	0.513341	1.128188
C187	C	0.088076	0.013357	0.627845
C188	C	0.588076	0.513357	1.127845
C189	C	-0.010764	-0.518114	1.184196
C190	C	0.489236	-0.018114	1.684196
C191	C	-0.010426	-0.641846	1.184125
C192	C	0.489574	-0.141846	1.684125
C193	C	0.137205	-0.715426	1.184182
C194	C	0.637205	-0.215426	1.684182
C195	C	0.136875	-0.591687	1.184231
C196	C	0.636875	-0.091687	1.684231
H197	H	0.065433	-0.475593	0.899616
H198	H	0.565433	0.024407	1.399616
N199	N	0.185455	-0.775382	1.184185
N200	N	0.685455	-0.275382	1.684185
H201	H	0.196996	-0.794391	1.221002
H202	H	0.696996	-0.294391	1.721002
H203	H	0.221505	-0.769807	1.147365
H204	H	0.721505	-0.269807	1.647365
N205	N	-0.095673	-0.580070	0.676291
N206	N	0.404327	-0.080070	1.176291
H207	H	-0.114715	-0.609393	0.687866
H208	H	0.385285	-0.109393	1.187866
H209	H	-0.122276	-0.538048	0.660882
H210	H	0.377724	-0.038048	1.160882
N211	N	0.693139	-0.738385	0.516870
N212	N	1.193139	-0.238385	1.016870
H213	H	0.693185	-0.775347	0.553535
H214	H	1.193185	-0.275347	1.053535
H215	H	0.729929	-0.748207	0.482214
H216	H	1.229929	-0.248207	0.982214
N217	N	-0.059015	-0.458161	1.184200
N218	N	0.440985	0.041839	1.684200
H219	H	-0.070561	-0.439147	1.147385
H220	H	0.429439	0.060853	1.647385
H221	H	-0.043678	-0.431523	1.184240
H222	H	0.456322	0.068477	1.684240
N223	N	0.693043	-0.494891	0.591081
N224	N	1.193043	0.005109	1.091081
H225	H	0.692999	-0.457930	0.554416
H226	H	1.192999	0.042070	1.054416
H227	H	0.729868	-0.509571	0.601152
H228	H	1.229868	-0.009571	1.101152
N229	N	0.099845	-0.775455	0.676154
N230	N	0.599845	-0.275455	1.176154
H231	H	0.109902	-0.807735	0.661566
H232	H	0.609902	-0.307735	1.161566
H233	H	0.063133	-0.775595	0.713059
H234	H	0.563133	-0.275595	1.213059
H235	H	0.206679	0.013739	0.443646
H236	H	0.706679	0.513739	0.943646
N237	N	0.184931	-0.579718	1.184250
N238	N	0.684931	-0.079718	1.684250
H239	H	0.221039	-0.584451	1.147446
H240	H	0.721039	-0.084451	1.647446
H241	H	0.196459	-0.609000	1.221083
H242	H	0.696459	-0.109000	1.721083
N243	N	0.693260	-0.738906	0.712527
N244	N	1.193260	-0.238906	1.212527
H245	H	0.656465	-0.724393	0.744854
H246	H	1.156465	-0.224393	1.244854
H247	H	0.730100	-0.748874	0.720223
H248	H	1.230100	-0.248874	1.220223
N249	N	0.100081	0.013365	0.675894
N250	N	0.600081	0.513365	1.175894
H251	H	0.095370	-0.023441	0.712007
H252	H	0.595370	0.476559	1.212007
H253	H	0.070806	0.050200	0.687419
H254	H	0.570806	0.550200	1.187419
N255	N	0.692907	-0.494368	0.395428
N256	N	1.192907	0.005632	0.895428
H257	H	0.692899	-0.509675	0.368737
H258	H	1.192899	-0.009675	0.868737
H259	H	0.729694	-0.482811	0.376455
H260	H	1.229694	0.017189	0.876455
H261	H	-0.046689	-0.650868	1.184063
H262	H	0.453311	-0.150868	1.684063
H263	H	0.103160	-0.437777	0.786243
H264	H	0.603160	0.062223	1.286243
H265	H	0.028745	0.013321	0.444270
H266	H	0.528745	0.513321	0.944270
H267	H	0.250633	-0.568176	0.899553
H268	H	0.750633	-0.068176	1.399553
H269	H	0.206895	-0.650521	0.443974
H270	H	0.706895	-0.150521	0.943974
H271	H	0.288361	-0.530376	0.786177
H272	H	0.788361	-0.030376	1.286177
H273	H	0.103135	-0.437780	0.733124
H274	H	0.603135	0.062220	1.233124
N275	N	-0.095613	0.013336	0.676446
N276	N	0.404387	0.513336	1.176446
H277	H	-0.127937	0.050139	0.661921
H278	H	0.372063	0.550139	1.161921
H279	H	-0.095625	0.013318	0.713278
H280	H	0.404375	0.513318	1.213278
N281	N	0.049088	-0.471580	0.699322
N282	N	0.549088	0.028420	1.199322
H283	H	0.030429	-0.486865	0.744155
H284	H	0.530429	0.013135	1.244155
H285	H	0.042101	-0.490228	0.680631
H286	H	0.542101	0.009772	1.180631
N287	N	0.261203	-0.577630	0.593208
N288	N	0.761203	-0.077630	1.093208
H289	H	0.303288	-0.583787	0.586554
H290	H	0.803288	-0.083787	1.086554
H291	H	0.254567	-0.557465	0.553513
H292	H	0.754567	-0.057465	1.053513
N293	N	0.304520	-0.534314	0.636497
N294	N	0.804520	-0.034314	1.136497
H295	H	0.323180	-0.519030	0.591664
H296	H	0.823180	-0.019030	1.091664
H297	H	0.323181	-0.579150	0.651792
H298	H	0.823181	-0.079150	1.151792
H299	H	0.295144	-0.575796	0.721768
H300	H	0.795144	-0.075796	1.221768
H301	H	0.408481	-0.430137	0.613993
H302	H	0.908481	0.069863	1.113993
N303	N	0.416786	-0.629708	0.686281
N304	N	0.916786	-0.129708	1.186281
H305	H	0.387515	-0.651977	0.708259
H306	H	0.887515	-0.151977	1.208259
H307	H	0.442734	-0.645268	0.710599
H308	H	0.942734	-0.145268	1.210599
H309	H	0.241946	-0.384640	0.594232
H310	H	0.741946	0.115360	1.094232
N311	N	0.286845	-0.376224	0.649465
N312	N	0.786845	0.123776	1.149465
H313	H	0.316119	-0.353959	0.627485
H314	H	0.816119	0.146041	1.127485
H315	H	0.260931	-0.370086	0.689400
H316	H	0.760931	0.129914	1.189400
H317	H	0.204115	-0.271255	0.556464
H318	H	0.704115	0.228745	1.056464
N319	N	0.102134	-0.263023	0.752376
N320	N	0.602134	0.236977	1.252376
H321	H	0.095760	-0.292308	0.794459
H322	H	0.595760	0.207692	1.294459
H323	H	0.062313	-0.237096	0.745973
H324	H	0.562313	0.262904	1.245973
H325	H	0.149444	-0.384673	0.779411
H326	H	0.649444	0.115327	1.279411
N327	N	0.026072	-0.458019	0.432302
N328	N	0.526072	0.041981	0.932302
H329	H	-0.008543	-0.450292	0.422384
H330	H	0.491457	0.049708	0.922384
H331	H	0.062798	-0.457862	0.395412
H332	H	0.562798	0.042138	0.895412
