data_functionalizedCrystal
_audit_creation_method	'MofGen! by Chris Wilmer'
_symmetry_space_group_name_H-M	'P1'
_symmetry_Int_Tables_number	1
_symmetry_cell_setting	triclinic
loop_
_symmetry_equiv_pos_as_xyz
  x,y,z
_cell_length_a	11.026607
_cell_length_b	10.723024
_cell_length_c	9.198806
_cell_angle_alpha	90.002012
_cell_angle_beta	90.003539
_cell_angle_gamma	96.526943
loop_
_atom_site_label
_atom_site_type_symbol
_atom_site_fract_x
_atom_site_fract_y
_atom_site_fract_z
O1	O	-1.614521	-0.523503	-0.120890
O2	O	-1.114521	-0.023503	0.379110
O3	O	-1.260718	-0.463891	-0.120892
O4	O	-0.760718	0.036109	0.379108
O5	O	-1.445780	-0.313882	-0.120886
O6	O	-0.945780	0.186118	0.379114
O7	O	-1.429459	-0.673512	-0.120896
O8	O	-0.929459	-0.173512	0.379104
O9	O	-1.445766	-0.313879	0.120900
O10	O	-0.945766	0.186121	0.620900
O11	O	-1.260704	-0.463888	0.120893
O12	O	-0.760704	0.036112	0.620893
O13	O	-1.614506	-0.523499	0.120895
O14	O	-1.114506	-0.023499	0.620895
Cu15	Cu	-1.437603	-0.493693	0.142971
Cu16	Cu	-0.937603	0.006307	0.642971
Cu17	Cu	-1.437621	-0.493698	-0.142968
Cu18	Cu	-0.937621	0.006302	0.357032
O19	O	-1.429444	-0.673508	0.120889
O20	O	-0.929444	-0.173508	0.620889
C21	C	-1.444585	-0.267125	0.000005
C22	C	-0.944585	0.232875	0.500005
C23	C	-1.441032	-0.127803	0.000000
C24	C	-0.941032	0.372197	0.500000
C25	C	-1.215408	-0.452892	0.000000
C26	C	-0.715408	0.047108	0.500000
C27	C	-1.080422	-0.420109	-0.000001
C28	C	-0.580422	0.079891	0.499999
C29	C	-1.659816	-0.534498	-0.000000
C30	C	-1.159816	-0.034498	0.500000
C31	C	-1.794803	-0.567282	-0.000009
C32	C	-1.294803	-0.067282	0.499991
C33	C	-1.007369	-0.510629	-0.000004
C34	C	-0.507369	-0.010629	0.499996
C35	C	-0.867853	-0.476748	-0.000005
C36	C	-0.367853	0.023252	0.499995
C37	C	-1.430639	-0.720266	-0.000005
C38	C	-0.930639	-0.220266	0.499995
C39	C	-1.434193	-0.859587	-0.000010
C40	C	-0.934193	-0.359587	0.499990
N41	N	-1.437600	-0.493691	0.344085
N42	N	-0.937600	0.006309	0.844085
C43	C	-1.544583	-0.075171	-0.000001
C44	C	-1.044583	0.424829	0.499999
C45	C	-1.540912	0.068824	-0.000007
C46	C	-1.040912	0.568824	0.499993
N47	N	-1.437634	-0.493692	-0.344082
N48	N	-0.937634	0.006308	0.155918
C49	C	-1.515302	-0.430355	0.416285
C50	C	-1.015302	0.069645	0.916285
C51	C	-1.515321	-0.430355	0.583697
C52	C	-1.015321	0.069645	1.083697
H53	H	-1.048115	-0.613209	0.000001
H54	H	-0.548115	-0.113209	0.500001
Cl55	Cl	-1.618041	-0.346640	0.679551
Cl56	Cl	-1.118041	0.153360	1.179551
Cl57	Cl	-0.804962	-0.318360	0.000010
Cl58	Cl	-0.304962	0.181640	0.500010
H59	H	-1.371111	-0.547925	0.593839
H60	H	-0.871111	-0.047925	1.093839
H61	H	-1.629560	0.114123	-0.000001
H62	H	-1.129560	0.614123	0.499999
Cl63	Cl	-1.617717	-0.346291	0.320378
Cl64	Cl	-1.117717	0.153709	0.820378
H65	H	-1.039676	-0.317529	-0.000035
H66	H	-0.539676	0.182471	0.499965
H67	H	-1.349660	-0.066260	-0.000010
H68	H	-0.849660	0.433740	0.499990
Cl69	Cl	-0.857690	-0.725671	0.000007
Cl70	Cl	-0.357690	-0.225671	0.500007
Cl71	Cl	-1.685660	-0.170180	-0.000009
Cl72	Cl	-1.185660	0.329820	0.499991
H73	H	-1.345540	0.095122	0.000001
H74	H	-0.845540	0.595122	0.500001
Cl75	Cl	-1.334902	-0.577406	0.439992
Cl76	Cl	-0.834902	-0.077406	0.939992
