data_functionalizedCrystal
_audit_creation_method	'MofGen! by Chris Wilmer'
_symmetry_space_group_name_H-M	'P1'
_symmetry_Int_Tables_number	1
_symmetry_cell_setting	triclinic
loop_
_symmetry_equiv_pos_as_xyz
  x,y,z
_cell_length_a	19.288864
_cell_length_b	8.597304
_cell_length_c	17.766277
_cell_angle_alpha	82.293845
_cell_angle_beta	89.976791
_cell_angle_gamma	84.239691
loop_
_atom_site_label
_atom_site_type_symbol
_atom_site_fract_x
_atom_site_fract_y
_atom_site_fract_z
O1	O	0.922955	0.195776	-0.075530
O2	O	0.720911	0.222186	-0.077190
O3	O	0.825907	-0.019515	-0.061541
O4	O	0.817958	0.437477	-0.091179
O5	O	0.825889	-0.019527	0.063648
O6	O	0.720892	0.222174	0.047999
O7	O	0.922936	0.195764	0.049660
Cu8	Cu	0.821912	0.208968	0.060260
Cu9	Cu	0.821935	0.208982	-0.087791
O10	O	0.817939	0.437465	0.034010
C11	C	0.695018	0.221330	-0.014534
C12	C	0.617893	0.218779	-0.014349
C13	C	0.574357	0.360598	-0.023558
C14	C	0.501891	0.358202	-0.023411
C15	C	0.472963	0.213978	-0.014069
C16	C	0.516509	0.072140	-0.004854
C17	C	0.588974	0.074541	-0.004994
C18	C	0.363780	0.100606	-0.050601
C19	C	0.291316	0.098212	-0.050466
C20	C	0.249457	0.206568	-0.013634
C21	C	0.280069	0.317345	0.023051
C22	C	0.352535	0.319746	0.022912
C23	C	0.394388	0.211359	-0.013916
C24	C	0.127344	0.345798	-0.022684
C25	C	0.054876	0.343396	-0.022532
C26	C	0.069496	0.057330	-0.003982
C27	C	0.141962	0.059737	-0.004127
C28	C	0.170881	0.203975	-0.013482
C29	C	0.825044	-0.077987	0.004844
C30	C	0.822489	-0.252196	0.016139
C31	C	0.948829	0.196620	-0.012998
C32	C	1.025954	0.199171	-0.013188
C33	C	0.818803	0.495937	-0.032377
C34	C	0.821358	0.670146	-0.043676
N35	N	0.821902	0.208956	0.164391
N36	N	0.821951	0.208981	-0.191921
C37	C	0.868410	0.101984	0.210704
C38	C	0.868414	0.101976	0.289507
C39	C	0.821916	0.208969	0.321991
C40	C	0.775399	0.315950	0.275668
C41	C	0.775392	0.315944	0.196868
C42	C	0.813788	0.351962	0.437557
C43	C	0.813800	0.351971	0.516355
C44	C	0.821935	0.208988	0.565036
C45	C	0.830073	0.065990	0.534910
C46	C	0.830065	0.065984	0.456110
C47	C	0.821919	0.208987	0.407435
C48	C	0.868450	0.101998	0.696796
C49	C	0.868449	0.101989	0.775600
C50	C	0.775438	0.315976	0.761759
C51	C	0.775436	0.315972	0.682957
C52	C	0.821945	0.208985	0.650481
H53	H	0.492951	-0.045288	0.002741
C54	C	0.453992	0.514220	-0.033552
N55	N	0.417918	0.631733	-0.041193
H56	H	0.624421	-0.040949	0.002505
C57	C	0.804842	0.509269	0.549486
N58	N	0.798090	0.627751	0.574439
H59	H	0.397856	0.012366	-0.080598
H60	H	0.822342	-0.263064	-0.103532
H61	H	0.150891	0.463246	-0.030290
C62	C	0.234030	0.436543	0.063573
N63	N	0.199350	0.526319	0.094093
H64	H	0.821495	-0.318992	0.075999
H65	H	0.906279	0.014865	0.184265
C66	C	0.919586	-0.015691	0.340459
N67	N	0.958131	-0.104313	0.378835
C68	C	0.839007	-0.091310	0.422973
N69	N	0.845738	-0.209787	0.398015
H70	H	0.836697	-0.050440	0.574545
C71	C	0.006986	0.499417	-0.032652
N72	N	-0.029086	0.616935	-0.040273
C73	C	0.919605	-0.015703	0.661070
N74	N	0.958134	-0.104360	0.634163
C75	C	0.919603	-0.015723	0.826547
N76	N	0.958130	-0.104393	0.864921
H77	H	0.737576	0.403085	0.788207
H78	H	0.045944	-0.060100	0.003578
C79	C	0.724323	0.433765	0.632003
N80	N	0.685838	0.522528	0.593622
H81	H	0.597899	0.478048	-0.031177
C82	C	0.804838	0.509265	0.384014
N83	N	0.798097	0.627742	0.343687
C84	C	0.724249	0.433635	0.311403
N85	N	0.685718	0.522274	0.338318
C86	C	0.724258	0.433696	0.145917
N87	N	0.685754	0.522414	0.107538
H88	H	0.377456	0.409940	0.052785
H89	H	0.177410	-0.055748	0.003368
H90	H	0.266397	0.008016	-0.080341
