data_functionalizedCrystal
_audit_creation_method	'MofGen! by Chris Wilmer'
_symmetry_space_group_name_H-M	'P1'
_symmetry_Int_Tables_number	1
_symmetry_cell_setting	triclinic
loop_
_symmetry_equiv_pos_as_xyz
  x,y,z
_cell_length_a	10.723023
_cell_length_b	13.262508
_cell_length_c	9.798715
_cell_angle_alpha	105.915177
_cell_angle_beta	89.996449
_cell_angle_gamma	84.450840
loop_
_atom_site_label
_atom_site_type_symbol
_atom_site_fract_x
_atom_site_fract_y
_atom_site_fract_z
O1	O	1.656452	0.147209	-0.058841
O2	O	1.293229	0.161301	-0.053613
O3	O	1.483981	0.001531	-0.112912
O4	O	1.465700	0.306978	0.000458
O5	O	1.483966	0.001531	0.114070
O6	O	1.293214	0.161300	0.173369
O7	O	1.656437	0.147208	0.168141
Zn8	Zn	1.474824	0.154254	0.206793
Zn9	Zn	1.474842	0.154255	-0.092265
O10	O	1.465685	0.306977	0.227440
C11	C	1.246727	0.160275	0.059497
C12	C	1.108188	0.157207	0.058357
C13	C	0.903235	0.152669	0.174251
C14	C	1.046423	0.155840	0.175432
C15	C	1.482950	-0.037579	-0.013940
C16	C	1.479885	-0.154117	-0.057202
C17	C	1.471208	-0.482631	0.315774
C18	C	1.474078	-0.373137	0.356424
C19	C	1.475531	-0.318377	0.253021
C20	C	1.474112	-0.373121	0.108961
C21	C	1.471232	-0.482624	0.068309
C22	C	1.475554	-0.318370	0.005555
C23	C	1.474135	-0.373114	-0.138504
C24	C	1.471257	-0.482607	-0.179150
C25	C	1.469804	-0.537368	-0.075747
C26	C	1.478434	-0.208867	0.046208
C27	C	1.478458	-0.208860	-0.201258
C28	C	1.475588	-0.318354	-0.241907
C29	C	1.702939	0.148234	0.055028
C30	C	1.841478	0.151301	0.056159
C31	C	1.466716	0.346088	0.128465
C32	C	1.469781	0.462626	0.171719
N33	N	1.474820	0.154253	0.410893
N34	N	1.474856	0.154247	-0.296368
C35	C	1.554913	0.086875	0.453662
C36	C	1.554933	0.086871	0.610823
H37	H	0.850102	0.151498	0.274481
H38	H	1.623509	0.029190	0.647700
F39	F	1.478581	-0.201843	0.296287
F40	F	1.115838	0.157369	0.307585
H41	H	1.055087	0.156029	-0.042754
H42	H	0.894610	0.152484	-0.044067
F43	F	1.479944	-0.150616	0.199521
F44	F	1.469643	-0.540915	0.425806
H45	H	1.467474	-0.626527	-0.108837
H46	H	1.623465	0.029188	0.373929
F47	F	1.385228	0.229657	0.655450
F48	F	1.469730	-0.540865	-0.332471
F49	F	1.475570	-0.314881	0.509736
F50	F	1.474081	-0.376630	-0.395223
H51	H	1.479631	-0.164274	-0.285458
H52	H	1.406259	0.211932	0.490625
