data_functionalizedCrystal
_audit_creation_method	'MofGen! by Chris Wilmer'
_symmetry_space_group_name_H-M	'P1'
_symmetry_Int_Tables_number	1
_symmetry_cell_setting	triclinic
loop_
_symmetry_equiv_pos_as_xyz
  x,y,z
_cell_length_a	18.050591
_cell_length_b	18.050589
_cell_length_c	18.050582
_cell_angle_alpha	90.018205
_cell_angle_beta	90.010544
_cell_angle_gamma	90.027061
loop_
_atom_site_label
_atom_site_type_symbol
_atom_site_fract_x
_atom_site_fract_y
_atom_site_fract_z
Zn1	Zn	1.135292	-0.295730	0.419848
Zn2	Zn	1.635292	0.204270	0.919848
Zn3	Zn	1.135203	-0.419913	0.295668
Zn4	Zn	1.635203	0.080087	0.795668
Zn5	Zn	1.011112	-0.295739	0.295682
Zn6	Zn	1.511112	0.204261	0.795682
Zn7	Zn	1.011060	-0.419880	0.419826
Zn8	Zn	1.511060	0.080120	0.919826
O9	O	1.073167	-0.357815	0.357756
O10	O	1.573167	0.142185	0.857756
O11	O	1.239205	-0.312213	0.403379
O12	O	1.739205	0.187787	0.903379
O13	O	1.118727	-0.403459	0.191745
O14	O	1.618727	0.096541	0.691745
O15	O	1.027644	-0.191813	0.312168
O16	O	1.527644	0.308187	0.812168
O17	O	1.239140	-0.403450	0.312144
O18	O	1.739140	0.096550	0.812144
O19	O	1.118879	-0.191806	0.403393
O20	O	1.618879	0.308194	0.903393
O21	O	1.027557	-0.312228	0.191755
O22	O	1.527557	0.187772	0.691755
O23	O	0.907180	-0.312196	0.312146
O24	O	1.407180	0.187804	0.812146
O25	O	1.027555	-0.403393	0.523753
O26	O	1.527555	0.096607	1.023753
O27	O	0.907142	-0.403402	0.403354
O28	O	1.407142	0.096598	0.903354
O29	O	1.118828	-0.312181	0.523770
O30	O	1.618828	0.187819	1.023770
O31	O	1.118676	-0.523833	0.312122
O32	O	1.618676	-0.023833	0.812122
O33	O	1.027468	-0.523809	0.403341
O34	O	1.527468	-0.023809	0.903341
C35	C	0.880215	-0.357797	0.357750
C36	C	1.380215	0.142203	0.857750
C37	C	0.797669	-0.357807	0.357765
C38	C	1.297669	0.142193	0.857765
C39	C	0.548844	-0.407508	0.407296
C40	C	1.048844	0.092492	0.907296
C41	C	0.598214	-0.425579	0.339512
C42	C	1.098214	0.074421	0.839512
C43	C	0.500548	-0.357831	0.357764
C44	C	1.000548	0.142169	0.857764
C45	C	0.598260	-0.339783	0.425545
C46	C	1.098260	0.160217	0.925545
C47	C	0.646534	-0.357821	0.357768
C48	C	1.146534	0.142179	0.857768
C49	C	0.548831	-0.375937	0.289943
C50	C	1.048831	0.124063	0.789943
C51	C	0.548873	-0.290110	0.376022
C52	C	1.048873	0.209890	0.876022
C53	C	0.598221	-0.308155	0.308191
C54	C	1.098221	0.191845	0.808191
C55	C	0.416450	-0.357838	0.357762
C56	C	0.916450	0.142162	0.857762
C57	C	0.730630	-0.357813	0.357762
C58	C	1.230630	0.142187	0.857762
C59	C	1.073077	-0.550767	0.357744
C60	C	1.573077	-0.050767	0.857744
C61	C	1.073107	-0.633313	0.357763
C62	C	1.573107	-0.133313	0.857763
C63	C	1.023557	-0.832778	0.407350
C64	C	1.523557	-0.332778	0.907350
C65	C	1.005459	-0.882211	0.339584
C66	C	1.505459	-0.382211	0.839584
C67	C	1.073180	-0.784444	0.357773
C68	C	1.573180	-0.284444	0.857773
C69	C	1.091314	-0.882092	0.425547
C70	C	1.591314	-0.382092	0.925547
C71	C	1.073249	-0.930429	0.357788
C72	C	1.573249	-0.430429	0.857788
C73	C	1.055046	-0.832790	0.289971
C74	C	1.555046	-0.332790	0.789971
C75	C	1.140933	-0.832666	0.375979
C76	C	1.640933	-0.332666	0.875979
C77	C	1.122861	-0.882077	0.308166
C78	C	1.622861	-0.382077	0.808166
C79	C	1.073138	-0.700345	0.357765
C80	C	1.573138	-0.200345	0.857765
C81	C	1.073291	-1.014525	0.357788
C82	C	1.573291	-0.514525	0.857788
C83	C	1.266872	-0.357834	0.357763
C84	C	1.766872	0.142166	0.857763
C85	C	1.349418	-0.357842	0.357765
C86	C	1.849418	0.142158	0.857765
C87	C	1.073196	-0.357782	0.551462
C88	C	1.573196	0.142218	1.051462
C89	C	1.073208	-0.357768	0.634007
C90	C	1.573208	0.142232	1.134007
C91	C	1.073277	-0.164110	0.357785
C92	C	1.573277	0.335890	0.857785
C93	C	1.073324	-0.081564	0.357797
C94	C	1.573324	0.418436	0.857797
C95	C	1.073181	-0.357795	0.164804
C96	C	1.573181	0.142205	0.664804
C97	C	1.073312	-0.357599	0.082258
C98	C	1.573312	0.142401	0.582258
C99	C	1.023612	-0.407302	0.833449
C100	C	1.523612	0.092698	1.333449
C101	C	1.091367	-0.425457	0.882837
C102	C	1.591367	0.074543	1.382837
C103	C	1.073245	-0.357712	0.785138
C104	C	1.573245	0.142288	1.285138
C105	C	1.005527	-0.339536	0.882832
C106	C	1.505527	0.160464	1.382832
C107	C	1.073274	-0.357658	0.931123
C108	C	1.573274	0.142342	1.431123
C109	C	1.141036	-0.375902	0.833438
C110	C	1.641036	0.124098	1.333438
C111	C	1.055150	-0.289950	0.833429
C112	C	1.555150	0.210050	1.333429
C113	C	1.122952	-0.308079	0.882794
C114	C	1.622952	0.191921	1.382794
C115	C	1.073227	-0.357744	0.701040
C116	C	1.573227	0.142256	1.201040
C117	C	1.073300	-0.357626	1.015220
C118	C	1.573300	0.142374	1.515220
H119	H	0.619887	-0.482845	0.324065
H120	H	1.119887	0.017155	0.824065
H121	H	0.527164	-0.449554	0.449130
H122	H	1.027164	0.050446	0.949130
H123	H	0.981678	-0.449294	0.811783
H124	H	1.481678	0.050706	1.311783
O125	O	1.209397	-0.394403	0.807759
O126	O	1.709397	0.105597	1.307759
C127	C	1.228479	-0.465611	0.833531
C128	C	1.728479	0.034389	1.333531
H129	H	1.195360	-0.478697	0.885682
H130	H	1.695360	0.021303	1.385682
H131	H	1.290202	-0.467332	0.846806
H132	H	1.790202	0.032668	1.346806
H133	H	1.215307	-0.508385	0.788945
H134	H	1.715307	-0.008385	1.288945
O135	O	0.973369	-0.807070	0.457306
O136	O	1.473369	-0.307070	0.957306
C137	C	0.937795	-0.867403	0.491887
C138	C	1.437795	-0.367403	0.991887
H139	H	0.941650	-0.918284	0.454660
H140	H	1.441650	-0.418284	0.954660
H141	H	0.877077	-0.853179	0.501828
H142	H	1.377077	-0.353179	1.001828
H143	H	0.965889	-0.879534	0.547135
H144	H	1.465889	-0.379534	1.047135
O145	O	0.624125	-0.321441	0.493904
O146	O	1.124125	0.178559	0.993904
C147	C	0.597891	-0.250546	0.513547
C148	C	1.097891	0.249454	1.013547
H149	H	0.583269	-0.218303	0.461260
H150	H	1.083269	0.281697	0.961260
H151	H	0.642725	-0.219591	0.545528
H152	H	1.142725	0.280409	1.045528
H153	H	0.546467	-0.256416	0.549734
H154	H	1.046467	0.243584	1.049734
H155	H	1.039669	-0.811223	0.232646
H156	H	1.539669	-0.311223	0.732646
O157	O	1.172876	-0.907712	0.258002
O158	O	1.672876	-0.407712	0.758002
C159	C	1.153528	-0.882440	0.186678
C160	C	1.653528	-0.382440	0.686678
H161	H	1.091907	-0.868710	0.185212
H162	H	1.591907	-0.368710	0.685212
H163	H	1.166042	-0.927512	0.144239
H164	H	1.666042	-0.427512	0.644239
H165	H	1.186989	-0.830664	0.172908
H166	H	1.686989	-0.330664	0.672908
O167	O	1.109543	-0.493785	0.908823
O168	O	1.609543	0.006215	1.408823
C169	C	1.051184	-0.521273	0.952866
C170	C	1.551184	-0.021273	1.452866
H171	H	1.016651	-0.473044	0.974518
H172	H	1.516651	0.026956	1.474518
H173	H	1.075016	-0.553618	1.001582
H174	H	1.575016	-0.053618	1.501582
H175	H	1.014697	-0.559384	0.918112
H176	H	1.514697	-0.059384	1.418112
O177	O	0.937251	-0.321128	0.908804
O178	O	1.437251	0.178872	1.408804
C179	C	0.942405	-0.256061	0.951734
C180	C	1.442405	0.243939	1.451734
H181	H	1.001504	-0.249479	0.973027
H182	H	1.501504	0.250521	1.473027
H183	H	0.902707	-0.259952	1.000693
H184	H	1.402707	0.240048	1.500693
H185	H	0.927170	-0.206136	0.916199
H186	H	1.427170	0.293864	1.416199
H187	H	1.164986	-0.266119	0.904324
H188	H	1.664986	0.233881	1.404324
H189	H	1.106625	-0.903748	0.482856
H190	H	1.606625	-0.403748	0.982856
O191	O	1.209210	-0.806714	0.394498
O192	O	1.709210	-0.306714	0.894498
C193	C	1.228087	-0.831803	0.466013
C194	C	1.728087	-0.331803	0.966013
H195	H	1.175446	-0.845712	0.498010
H196	H	1.675446	-0.345712	0.998010
H197	H	1.259936	-0.786552	0.496496
H198	H	1.759936	-0.286552	0.996496
H199	H	1.264144	-0.883432	0.461362
H200	H	1.764144	-0.383432	0.961362
H201	H	0.948195	-0.903990	0.324200
H202	H	1.448195	-0.403990	0.824200
O203	O	1.036763	-0.221692	0.807421
O204	O	1.536763	0.278308	1.307421
C205	C	0.972473	-0.227097	0.763372
C206	C	1.472473	0.272903	1.263372
H207	H	0.966639	-0.286154	0.741741
H208	H	1.466639	0.213846	1.241741
H209	H	0.976944	-0.187186	0.714641
H210	H	1.476944	0.312814	1.214641
H211	H	0.921851	-0.212321	0.798113
H212	H	1.421851	0.287679	1.298113
O213	O	0.522920	-0.394249	0.221594
O214	O	1.022920	0.105751	0.721594
C215	C	0.444815	-0.394047	0.222420
C216	C	0.944815	0.105953	0.722420
H217	H	0.424377	-0.402385	0.281587
H218	H	0.924377	0.097615	0.781587
H219	H	0.423223	-0.440849	0.185891
H220	H	0.923223	0.059151	0.685891
H221	H	0.423687	-0.338746	0.200452
H222	H	0.923687	0.161254	0.700452
H223	H	0.619764	-0.266140	0.266256
H224	H	1.119764	0.233860	0.766256
H225	H	0.527183	-0.232860	0.391488
H226	H	1.027183	0.267140	0.891488
