data_functionalizedCrystal
_audit_creation_method	'MofGen! by Chris Wilmer'
_symmetry_space_group_name_H-M	'P1'
_symmetry_Int_Tables_number	1
_symmetry_cell_setting	triclinic
loop_
_symmetry_equiv_pos_as_xyz
  x,y,z
_cell_length_a	25.639242
_cell_length_b	25.639240
_cell_length_c	16.625539
_cell_angle_alpha	90.038438
_cell_angle_beta	90.021538
_cell_angle_gamma	90.025061
loop_
_atom_site_label
_atom_site_type_symbol
_atom_site_fract_x
_atom_site_fract_y
_atom_site_fract_z
Zn1	Zn	0.799284	-0.208257	0.455873
Zn2	Zn	1.299284	0.291743	0.955873
Zn3	Zn	0.799205	-0.295695	0.321017
Zn4	Zn	1.299205	0.204305	0.821017
Zn5	Zn	0.711849	-0.208264	0.321052
Zn6	Zn	1.211849	0.291736	0.821052
Zn7	Zn	0.711814	-0.295652	0.455804
Zn8	Zn	1.211814	0.204348	0.955804
O9	O	0.755538	-0.251967	0.388436
O10	O	1.255538	0.248033	0.888436
O11	O	0.872438	-0.219871	0.437999
O12	O	1.372438	0.280129	0.937999
O13	O	0.787599	-0.284118	0.208189
O14	O	1.287599	0.215882	0.708189
O15	O	0.723495	-0.135098	0.338979
O16	O	1.223495	0.364902	0.838979
O17	O	0.872381	-0.284112	0.338920
O18	O	1.372381	0.215888	0.838920
O19	O	0.787733	-0.135093	0.438032
O20	O	1.287733	0.364907	0.938032
O21	O	0.723419	-0.219883	0.208214
O22	O	1.223419	0.280117	0.708214
O23	O	0.638679	-0.219841	0.338913
O24	O	1.138679	0.280159	0.838913
O25	O	0.723435	-0.284038	0.568646
O26	O	1.223435	0.215962	1.068646
O27	O	0.638654	-0.284044	0.437915
O28	O	1.138654	0.215956	0.937915
O29	O	0.787699	-0.219829	0.568697
O30	O	1.287699	0.280171	1.068697
O31	O	0.787565	-0.368855	0.338853
O32	O	1.287565	0.131145	0.838853
O33	O	0.723359	-0.368823	0.437881
O34	O	1.223359	0.131177	0.937881
C35	C	0.619695	-0.251939	0.388410
C36	C	1.119695	0.248061	0.888410
C37	C	0.561581	-0.251939	0.388418
C38	C	1.061581	0.248061	0.888418
C39	C	0.310426	-0.218576	0.440121
C40	C	0.810426	0.281424	0.940121
C41	C	0.365030	-0.218571	0.440116
C42	C	0.865030	0.281429	0.940116
O43	O	0.393299	-0.190182	0.484070
O44	O	0.893299	0.309818	0.984070
N45	N	0.392308	-0.251961	0.388446
N46	N	0.892308	0.248039	0.888446
C47	C	0.364978	-0.285362	0.336782
C48	C	0.864978	0.214638	0.836782
O49	O	0.393193	-0.313762	0.292833
O50	O	0.893193	0.186238	0.792833
C51	C	0.310374	-0.285369	0.336791
C52	C	0.810374	0.214631	0.836791
C53	C	0.283100	-0.251973	0.388460
C54	C	0.783100	0.248027	0.888460
C55	C	0.283152	-0.185184	0.491785
C56	C	0.783152	0.314816	0.991785
C57	C	0.228551	-0.185189	0.491789
C58	C	0.728551	0.314811	0.991789
C59	C	0.201225	-0.218586	0.440127
C60	C	0.701225	0.281414	0.940127
C61	C	0.228499	-0.251978	0.388463
C62	C	0.728499	0.248022	0.888463
C63	C	0.283045	-0.318772	0.285133
C64	C	0.783045	0.181228	0.785133
C65	C	0.228438	-0.318777	0.285147
C66	C	0.728438	0.181223	0.785147
C67	C	0.201164	-0.285381	0.336815
C68	C	0.701164	0.214619	0.836815
C69	C	0.146573	-0.285380	0.336805
C70	C	0.646573	0.214620	0.836805
N71	N	0.119295	-0.251990	0.388475
N72	N	0.619295	0.248010	0.888475
C73	C	0.146622	-0.218593	0.440137
C74	C	0.646622	0.281407	0.940137
C75	C	0.479648	-0.285344	0.336768
C76	C	0.979648	0.214656	0.836768
C77	C	0.534251	-0.285334	0.336754
C78	C	1.034251	0.214666	0.836754
C79	C	0.534300	-0.218545	0.440089
C80	C	1.034300	0.281455	0.940089
C81	C	0.479696	-0.218552	0.440098
C82	C	0.979696	0.281448	0.940098
C83	C	0.452371	-0.251955	0.388438
C84	C	0.952371	0.248045	0.888438
C85	C	0.031957	-0.218605	0.440139
C86	C	0.531957	0.281395	0.940139
C87	C	-0.022649	-0.218611	0.440136
C88	C	0.477351	0.281389	0.940136
C89	C	-0.022693	-0.285402	0.336804
C90	C	0.477307	0.214598	0.836804
C91	C	0.031907	-0.285395	0.336804
C92	C	0.531907	0.214605	0.836804
C93	C	0.059231	-0.251994	0.388478
C94	C	0.559231	0.248006	0.888478
O95	O	0.118269	-0.313756	0.292876
O96	O	0.618269	0.186244	0.792876
O97	O	0.118400	-0.190202	0.484086
O98	O	0.618400	0.309798	0.984086
C99	C	0.755464	-0.387810	0.388373
C100	C	1.255464	0.112190	0.888373
C101	C	0.755480	-0.445924	0.388373
C102	C	1.255480	0.054076	0.888373
C103	C	0.789003	-0.806246	0.440106
C104	C	1.289003	-0.306246	0.940106
C105	C	0.789019	-0.860850	0.440123
C106	C	1.289019	-0.360850	0.940123
O107	O	0.817433	-0.889052	0.484043
O108	O	1.317433	-0.389052	0.984043
N109	N	0.755611	-0.888206	0.388514
N110	N	1.255611	-0.388206	0.888514
C111	C	0.722181	-0.860955	0.336892
C112	C	1.222181	-0.360955	0.836892
O113	O	0.693766	-0.889237	0.292997
O114	O	1.193766	-0.389237	0.792997
C115	C	0.722163	-0.806352	0.336880
C116	C	1.222163	-0.306352	0.836880
C117	C	0.755577	-0.778998	0.388486
C118	C	1.255577	-0.278998	0.888486
C119	C	0.822414	-0.778892	0.491709
C120	C	1.322414	-0.278892	0.991709
C121	C	0.822399	-0.724292	0.491691
C122	C	1.322399	-0.224292	0.991691
C123	C	0.788974	-0.697045	0.440071
C124	C	1.288974	-0.197045	0.940071
C125	C	0.755563	-0.724398	0.388469
C126	C	1.255563	-0.224398	0.888469
C127	C	0.688732	-0.779102	0.285263
C128	C	1.188732	-0.279102	0.785263
C129	C	0.688717	-0.724495	0.285256
C130	C	1.188717	-0.224495	0.785256
C131	C	0.722131	-0.697141	0.336862
C132	C	1.222131	-0.197141	0.836862
C133	C	0.722122	-0.642550	0.336831
C134	C	1.222122	-0.142550	0.836831
N135	N	0.755530	-0.615194	0.388439
N136	N	1.255530	-0.115194	0.888439
C137	C	0.788956	-0.642441	0.440059
C138	C	1.288956	-0.142441	0.940059
C139	C	0.722220	-0.975626	0.336922
C140	C	1.222220	-0.475626	0.836922
C141	C	0.722240	-1.030228	0.336929
C142	C	1.222240	-0.530228	0.836929
C143	C	0.789077	-1.030119	0.440161
C144	C	1.289077	-0.530119	0.940161
C145	C	0.789059	-0.975516	0.440149
C146	C	1.289059	-0.475516	0.940149
C147	C	0.755628	-0.948269	0.388530
C148	C	1.255628	-0.448269	0.888530
C149	C	0.788922	-0.527776	0.440018
C150	C	1.288922	-0.027776	0.940018
C151	C	0.788906	-0.473171	0.439993
C152	C	1.288906	0.026829	0.939993
C153	C	0.722067	-0.473284	0.336765
C154	C	1.222067	0.026716	0.836765
C155	C	0.722085	-0.527885	0.336786
C156	C	1.222085	-0.027885	0.836786
C157	C	0.755515	-0.555130	0.388419
C158	C	1.255515	-0.055130	0.888419
O159	O	0.693720	-0.614313	0.292935
O160	O	1.193720	-0.114313	0.792935
O161	O	0.817361	-0.614152	0.483954
O162	O	1.317361	-0.114152	0.983954
C163	C	0.891911	-0.251996	0.388463
C164	C	1.391911	0.248004	0.888463
C165	C	0.950025	-0.252008	0.388474
C166	C	1.450025	0.247992	0.888474
C167	C	0.755572	-0.251928	0.598745
C168	C	1.255572	0.248072	1.098745
C169	C	0.755586	-0.251911	0.688367
C170	C	1.255586	0.248089	1.188367
C171	C	0.755626	-0.115594	0.388518
C172	C	1.255626	0.384406	0.888518
C173	C	0.755664	-0.057480	0.388552
C174	C	1.255664	0.442520	0.888552
C175	C	0.755534	-0.251968	0.178946
C176	C	1.255534	0.248032	0.678946
C177	C	0.755621	-0.251837	0.089325
C178	C	1.255621	0.248163	0.589325
C179	C	0.755611	-0.251853	1.016543
C180	C	1.255611	0.248147	1.516543
C181	C	0.755602	-0.251871	0.925234
C182	C	1.255602	0.248129	1.425234
C183	C	0.755599	-0.251883	0.852457
C184	C	1.255599	0.248117	1.352457
C185	C	0.755590	-0.251900	0.761143
C186	C	1.255590	0.248100	1.261143
H187	H	0.305395	-0.157988	0.533858
H188	H	0.805395	0.342012	1.033858
H189	H	0.849606	-0.702024	0.533715
H190	H	1.349606	-0.202024	1.033715
H191	H	0.054197	-0.191407	0.482217
H192	H	0.554197	0.308593	0.982217
N193	N	0.652693	-0.808595	0.229600
N194	N	1.152693	-0.308595	0.729600
H195	H	0.631516	-0.783041	0.196905
H196	H	1.131516	-0.283041	0.696905
H197	H	0.628490	-0.831249	0.262391
H198	H	1.128490	-0.331249	0.762391
N199	N	0.450183	-0.321367	0.281029
N200	N	0.950183	0.178633	0.781029
H201	H	0.427524	-0.300091	0.243730
H202	H	0.927524	0.199909	0.743730
H203	H	0.427560	-0.345625	0.313775
H204	H	0.927560	0.154375	0.813775
N205	N	0.312454	-0.354790	0.229402
N206	N	0.812454	0.145210	0.729402
H207	H	0.286849	-0.375946	0.196684
H208	H	0.786849	0.124054	0.696684
H209	H	0.335110	-0.379012	0.262145
H210	H	0.835110	0.120988	0.762145
H211	H	0.054115	-0.312583	0.294725
H212	H	0.554115	0.187417	0.794725
H213	H	0.206193	-0.345979	0.243080
H214	H	0.706193	0.154021	0.743080
N215	N	0.652657	-0.695108	0.229582
N216	N	1.152657	-0.195108	0.729582
H217	H	0.631494	-0.720725	0.196895
H218	H	1.131494	-0.220725	0.696895
H219	H	0.673944	-0.672458	0.192288
H220	H	1.173944	-0.172458	0.692288
H221	H	0.694881	-0.550157	0.294758
H222	H	1.194881	-0.050157	0.794758
N223	N	0.825090	-0.946013	0.495817
N224	N	1.325090	-0.446013	0.995817
H225	H	0.849326	-0.923355	0.463086
H226	H	1.349326	-0.423355	0.963086
H227	H	0.846232	-0.971596	0.528508
H228	H	1.346232	-0.471596	1.028508
H229	H	0.457493	-0.191358	0.482170
H230	H	0.957493	0.308642	0.982170
H231	H	0.556558	-0.191351	0.482155
H232	H	1.056558	0.308649	0.982155
N233	N	0.686020	-0.443891	0.281086
N234	N	1.186020	0.056109	0.781086
H235	H	0.691082	-0.405150	0.288912
H236	H	1.191082	0.094850	0.788912
H237	H	0.648676	-0.453453	0.293585
H238	H	1.148676	0.046547	0.793585
H239	H	0.849633	-0.801071	0.533749
H240	H	1.349633	-0.301071	1.033749
H241	H	0.695036	-1.052494	0.294897
H242	H	1.195036	-0.552494	0.794897
N243	N	0.563665	-0.321345	0.281013
N244	N	1.063665	0.178655	0.781013
H245	H	0.538063	-0.342500	0.248289
H246	H	1.038063	0.157500	0.748289
H247	H	0.586322	-0.345569	0.313754
H248	H	1.086322	0.154431	0.813754
H249	H	-0.044952	-0.312591	0.294739
H250	H	0.455048	0.187409	0.794739
N251	N	0.686164	-0.946240	0.281237
N252	N	1.186164	-0.446240	0.781237
H253	H	0.665007	-0.971859	0.248547
H254	H	1.165007	-0.471859	0.748547
H255	H	0.707454	-0.923590	0.243946
H256	H	1.207454	-0.423590	0.743946
N257	N	0.824948	-0.443668	0.495655
N258	N	1.324948	0.056332	0.995655
H259	H	0.846122	-0.469218	0.528359
H260	H	1.346122	0.030782	1.028359
H261	H	0.803645	-0.421007	0.532932
H262	H	1.303645	0.078993	1.032932
H263	H	-0.044853	-0.191414	0.482210
H264	H	0.455147	0.308586	0.982210
N265	N	0.824971	-0.557157	0.495715
N266	N	1.324971	-0.057157	0.995715
H267	H	0.846131	-0.531536	0.528400
H268	H	1.346131	-0.031536	1.028400
H269	H	0.849190	-0.579815	0.462946
H270	H	1.349190	-0.079815	0.962946
H271	H	0.816293	-1.052314	0.482194
H272	H	1.316293	-0.552314	0.982194
H273	H	0.206349	-0.157997	0.533866
H274	H	0.706349	0.342003	1.033866
