data_functionalizedCrystal
_audit_creation_method	'MofGen! by Chris Wilmer'
_symmetry_space_group_name_H-M	'P1'
_symmetry_Int_Tables_number	1
_symmetry_cell_setting	triclinic
loop_
_symmetry_equiv_pos_as_xyz
  x,y,z
_cell_length_a	6.817900
_cell_length_b	19.551900
_cell_length_c	12.908943
_cell_angle_alpha	96.126204
_cell_angle_beta	100.860631
_cell_angle_gamma	101.664829
loop_
_atom_site_label
_atom_site_type_symbol
_atom_site_fract_x
_atom_site_fract_y
_atom_site_fract_z
V1	V	-3.987279	-0.095802	-0.329173
O2	O	-3.984823	0.005501	-0.322397
O3	O	-3.930141	-0.190822	-0.327412
O4	O	-3.925730	-0.093934	-0.472513
O5	O	-3.989265	-0.092057	-0.176292
V6	V	-4.473743	-0.083731	-0.310828
O7	O	-4.242086	-0.122279	-0.369415
O8	O	-4.669133	-0.057254	-0.270585
O9	O	-4.307673	0.011289	-0.312588
O10	O	-4.593595	-0.185034	-0.317604
O11	O	-4.589153	-0.087476	-0.463709
O12	O	-4.312085	-0.085599	-0.167488
C13	C	-3.773442	-0.213998	-0.322346
C14	C	-3.807925	-0.291676	-0.321861
C15	C	-4.237876	-0.855023	-0.324656
C16	C	-4.205493	-0.782036	-0.325104
C17	C	-4.007700	-0.741892	-0.319060
C18	C	-3.842272	-0.774738	-0.312540
C19	C	-3.874656	-0.847723	-0.312082
C20	C	-3.835578	-0.629693	-0.377017
C21	C	-3.803204	-0.556711	-0.377482
C22	C	-3.907806	-0.516783	-0.320469
C23	C	-4.044825	-0.549849	-0.263005
C24	C	-4.077209	-0.622833	-0.262547
C25	C	-3.972564	-0.662752	-0.319556
C26	C	-4.038111	-0.404804	-0.327466
C27	C	-4.005718	-0.331815	-0.327907
C28	C	-3.642495	-0.324520	-0.315354
C29	C	-3.674890	-0.397506	-0.314902
C30	C	-3.872703	-0.437645	-0.320964
C31	C	-3.767814	-0.090407	-0.507435
C32	C	-3.798717	-0.089509	-0.624619
C33	C	-4.219399	-0.094756	-0.855593
C34	C	-4.248444	-0.093912	-0.965698
C35	C	-3.885852	-0.086974	-0.954937
C36	C	-3.856807	-0.087817	-0.844831
C37	C	-4.023589	-0.091709	-0.795164
C38	C	-3.994544	-0.092558	-0.685057
C39	C	-3.631952	-0.085615	-0.674296
C40	C	-3.660997	-0.084771	-0.784402
C41	C	-4.127715	0.034461	-0.317652
C42	C	-4.072469	0.112138	-0.318143
C43	C	-4.133343	-0.089128	-0.132560
C44	C	-4.081680	-0.090022	-0.015375
H45	H	-4.340188	-0.755293	-0.330401
F46	F	-3.657390	-0.521527	-0.438644
F47	F	-3.423543	-0.082377	-0.609976
F48	F	-4.156192	-0.507363	-0.202339
F49	F	-4.456849	-0.097153	-1.030008
H50	H	-3.750364	-0.662195	-0.423434
H51	H	-4.398947	-0.887699	-0.329588
H52	H	-3.739957	-0.874459	-0.306781
F53	F	-4.223022	-0.658021	-0.201388
H54	H	-4.130350	-0.095730	-0.644621
H55	H	-4.199180	-0.437486	-0.332396
F56	F	-4.181771	-0.296864	-0.334818
H57	H	-4.355204	-0.097932	-0.815155
H58	H	-3.750074	-0.083800	-0.995394
F59	F	-3.431989	-0.281800	-0.308918
H60	H	-3.540197	-0.424244	-0.309603
H61	H	-3.681225	-0.742048	-0.307617
F62	F	-3.483513	-0.080631	-0.837274
