data_functionalizedCrystal
_audit_creation_method	'MofGen! by Chris Wilmer'
_symmetry_space_group_name_H-M	'P1'
_symmetry_Int_Tables_number	1
_symmetry_cell_setting	triclinic
loop_
_symmetry_equiv_pos_as_xyz
  x,y,z
_cell_length_a	14.519709
_cell_length_b	19.288864
_cell_length_c	13.596369
_cell_angle_alpha	90.019175
_cell_angle_beta	89.993066
_cell_angle_gamma	96.591805
loop_
_atom_site_label
_atom_site_type_symbol
_atom_site_fract_x
_atom_site_fract_y
_atom_site_fract_z
O1	O	0.115045	-0.921763	-0.082109
O2	O	0.130564	-0.719558	-0.082042
O3	O	-0.011468	-0.826022	-0.082068
O4	O	0.257077	-0.815299	-0.082083
O5	O	-0.011475	-0.826011	0.081514
O6	O	0.130557	-0.719548	0.081541
O7	O	0.115038	-0.921752	0.081474
Zn8	Zn	0.122796	-0.820648	0.107480
Zn9	Zn	0.122806	-0.820662	-0.108048
O10	O	0.257070	-0.815289	0.081500
C11	C	-0.045828	-0.825517	-0.000277
C12	C	-0.148200	-0.824019	-0.000276
C13	C	0.130061	-0.693675	-0.000242
C14	C	0.128562	-0.616566	-0.000216
C15	C	0.115541	-0.947636	-0.000328
C16	C	0.117040	-1.024745	-0.000361
C17	C	-0.523061	-0.818507	-0.000299
C18	C	-0.418762	-0.820037	-0.000292
C19	C	-0.335633	-0.821263	-0.000287
C20	C	-0.231329	-0.822794	-0.000281
C21	C	0.291430	-0.815794	-0.000294
C22	C	0.393802	-0.817291	-0.000301
N23	N	0.122789	-0.820644	0.254572
C24	C	0.211900	-0.572169	-0.000236
C25	C	0.210492	-0.499717	-0.000247
C26	C	0.125741	-0.471665	-0.000257
C27	C	0.042392	-0.516071	-0.000232
C28	C	0.043803	-0.588521	-0.000211
C29	C	0.059120	-0.363167	-0.057597
C30	C	0.057713	-0.290717	-0.057624
C31	C	0.121387	-0.248203	-0.000317
C32	C	0.186483	-0.278147	0.057005
C33	C	0.187894	-0.350597	0.057025
C34	C	0.124202	-0.393105	-0.000279
C35	C	0.203203	-0.125246	-0.000347
C36	C	0.201792	-0.052792	-0.000352
C37	C	0.033689	-0.069148	-0.000347
C38	C	0.035103	-0.141599	-0.000332
C39	C	0.119863	-0.169644	-0.000337
N40	N	0.122806	-0.820672	-0.255140
C41	C	0.122807	-0.820661	0.655862
C42	C	0.122805	-0.820654	0.544211
C43	C	0.122799	-0.820653	0.455221
C44	C	0.122795	-0.820645	0.343562
H45	H	0.280918	-0.594998	-0.000242
H46	H	0.272220	-0.148080	-0.000336
F47	F	-0.053598	-0.188851	-0.000316
F48	F	0.290496	-0.005542	-0.000368
F49	F	-0.008656	-0.408407	-0.118595
H50	H	0.278358	-0.463563	-0.000260
H51	H	0.238332	-0.243533	0.103671
H52	H	-0.035317	-0.046308	-0.000416
H53	H	0.004711	-0.266343	-0.104302
H54	H	0.240895	-0.374974	0.103701
H55	H	-0.026613	-0.493226	-0.000254
H56	H	-0.024063	-0.624670	-0.000196
