data_functionalizedCrystal
_audit_creation_method	'MofGen! by Chris Wilmer'
_symmetry_space_group_name_H-M	'P1'
_symmetry_Int_Tables_number	1
_symmetry_cell_setting	triclinic
loop_
_symmetry_equiv_pos_as_xyz
  x,y,z
_cell_length_a	19.288864
_cell_length_b	10.540539
_cell_length_c	17.766277
_cell_angle_alpha	89.995823
_cell_angle_beta	89.976791
_cell_angle_gamma	83.830869
loop_
_atom_site_label
_atom_site_type_symbol
_atom_site_fract_x
_atom_site_fract_y
_atom_site_fract_z
O1	O	0.922410	0.158345	-0.062832
O2	O	0.720292	0.179706	-0.062781
O3	O	0.825962	-0.015784	-0.062807
O4	O	0.816739	0.353835	-0.062806
O5	O	0.825943	-0.015794	0.062382
O6	O	0.720273	0.179696	0.062408
O7	O	0.922391	0.158335	0.062356
Cu8	Cu	0.821330	0.169015	0.073813
Cu9	Cu	0.821352	0.169026	-0.074237
O10	O	0.816721	0.353825	0.062382
C11	C	0.694401	0.179013	-0.000180
C12	C	0.617284	0.176950	-0.000160
C13	C	0.573353	0.291654	-0.000172
C14	C	0.500893	0.289716	-0.000180
C15	C	0.472367	0.173067	-0.000192
C16	C	0.516308	0.058347	-0.000176
C17	C	0.588766	0.060289	-0.000160
C18	C	0.363500	0.081371	-0.044076
C19	C	0.291042	0.079434	-0.044097
C20	C	0.248881	0.167074	-0.000237
C21	C	0.279185	0.256671	0.043633
C22	C	0.351644	0.258613	0.043649
C23	C	0.393799	0.170949	-0.000208
C24	C	0.126381	0.279684	-0.000257
C25	C	0.053919	0.277741	-0.000261
C26	C	0.069336	0.046369	-0.000264
C27	C	0.141795	0.048315	-0.000253
C28	C	0.170313	0.164976	-0.000253
C29	C	0.825261	-0.063076	-0.000214
C30	C	0.823192	-0.203978	-0.000217
C31	C	0.743903	-0.385638	-0.000478
C32	C	0.746000	-0.239067	-0.000197
C33	C	0.860329	-0.266470	0.071262
C34	C	0.857694	-0.412955	0.071323
C35	C	0.859286	-0.413497	-0.071040
C36	C	0.859997	-0.266531	-0.071986
C37	C	0.948281	0.159027	-0.000246
C38	C	1.025399	0.161091	-0.000271
C39	C	0.817422	0.401117	-0.000212
C40	C	0.819491	0.542019	-0.000214
N41	N	0.821320	0.169006	0.177943
N42	N	0.821368	0.169025	-0.178368
C43	C	0.868126	0.082485	0.217318
C44	C	0.868130	0.082479	0.296120
C45	C	0.821334	0.169016	0.335544
C46	C	0.774519	0.255543	0.296159
C47	C	0.774512	0.255538	0.217359
C48	C	0.812807	0.284670	0.460383
C49	C	0.812819	0.284676	0.539182
C50	C	0.821353	0.169031	0.578590
C51	C	0.829889	0.053373	0.539189
C52	C	0.829882	0.053368	0.460389
C53	C	0.821337	0.169030	0.420989
C54	C	0.868166	0.082497	0.703411
C55	C	0.868165	0.082489	0.782214
C56	C	0.774558	0.255564	0.782252
C57	C	0.774555	0.255560	0.703450
C58	C	0.821363	0.169028	0.664034
H59	H	0.376314	0.331562	0.079372
Cl60	Cl	0.840604	-0.092022	0.410859
H61	H	0.713418	-0.413555	-0.051736
H62	H	0.917016	-0.245379	0.073906
H63	H	0.834516	-0.223299	0.124468
Cl64	Cl	0.226191	0.366855	0.098774
H65	H	0.713527	-0.415173	0.050509
Cl66	Cl	0.945366	-0.488331	-0.071807
H67	H	0.906238	0.012023	0.185229
H68	H	0.906246	0.012021	0.328185
Cl69	Cl	0.715714	0.364341	0.653945
Cl70	Cl	0.820719	-0.461326	-0.154687
Cl71	Cl	0.197026	-0.095893	-0.000243
H72	H	0.149601	0.374676	-0.000246
Cl73	Cl	0.700882	-0.172273	-0.079304
Cl74	Cl	-0.001310	0.421955	-0.000271
Cl75	Cl	0.840623	-0.092020	0.588722
Cl76	Cl	0.818395	-0.201767	-0.153640
H77	H	0.906278	0.012033	0.671318
Cl78	Cl	0.815291	-0.455560	0.153837
Cl79	Cl	0.943401	-0.488931	0.076319
Cl80	Cl	0.927008	-0.026296	0.831718
Cl81	Cl	0.033482	-0.100278	-0.000270
H82	H	0.736453	0.326019	0.814350
Cl83	Cl	0.700541	-0.173582	0.079066
Cl84	Cl	0.252952	-0.033189	-0.099255
H85	H	0.805846	0.378849	0.428304
Cl86	Cl	0.802093	0.430072	0.588706
Cl87	Cl	0.715666	0.364316	0.167855
Cl88	Cl	0.609200	0.438314	-0.000168
Cl89	Cl	0.445655	0.433927	-0.000193
Cl90	Cl	0.416495	-0.028816	-0.099219
Cl91	Cl	0.946888	-0.231067	-0.078679
Cl92	Cl	0.715687	0.364327	0.345718
H93	H	0.624535	-0.033120	-0.000151
Cl94	Cl	0.480448	-0.088297	-0.000186
