data_functionalizedCrystal
_audit_creation_method	'MofGen! by Chris Wilmer'
_symmetry_space_group_name_H-M	'P1'
_symmetry_Int_Tables_number	1
_symmetry_cell_setting	triclinic
loop_
_symmetry_equiv_pos_as_xyz
  x,y,z
_cell_length_a	17.699083
_cell_length_b	12.837942
_cell_length_c	16.776229
_cell_angle_alpha	89.994225
_cell_angle_beta	89.998886
_cell_angle_gamma	89.055978
loop_
_atom_site_label
_atom_site_type_symbol
_atom_site_fract_x
_atom_site_fract_y
_atom_site_fract_z
O1	O	1.013707	0.131067	-0.066175
O2	O	0.794582	0.148119	-0.066201
O3	O	0.899286	-0.011297	-0.066184
O4	O	0.909003	0.290484	-0.066192
O5	O	0.899269	-0.011307	0.066393
O6	O	0.794565	0.148110	0.066376
O7	O	1.013691	0.131057	0.066401
Zn8	Zn	0.904126	0.139582	0.087438
Zn9	Zn	0.904147	0.139595	-0.087237
O10	O	0.908987	0.290474	0.066384
C11	C	0.766332	0.147503	0.000084
C12	C	0.682179	0.145670	0.000074
C13	C	0.640432	0.239245	0.000072
C14	C	0.561362	0.237516	0.000082
C15	C	0.524040	0.142212	0.000089
C16	C	0.565792	0.048631	0.000094
C17	C	0.644861	0.050360	0.000089
C18	C	0.246916	0.041653	0.000114
C19	C	0.167842	0.039931	0.000116
C20	C	0.163418	0.228809	0.000107
C21	C	0.242486	0.230539	0.000102
C22	C	0.284232	0.136958	0.000111
C23	C	0.369969	0.138833	0.000101
C24	C	0.438304	0.140336	0.000093
C25	C	0.895995	-0.049915	0.000104
C26	C	0.886204	-0.164967	0.000101
C27	C	1.003908	-0.406222	0.000099
C28	C	0.994712	-0.514324	0.000096
C29	C	0.858617	-0.489277	0.000088
C30	C	0.867813	-0.381174	0.000091
C31	C	0.940461	-0.339651	0.000097
C32	C	0.949656	-0.231546	0.000105
C33	C	0.813561	-0.206501	0.000092
C34	C	0.804365	-0.314604	0.000089
C35	C	1.041941	0.131673	0.000115
C36	C	1.126094	0.133506	0.000119
C37	C	0.912278	0.329091	0.000095
C38	C	0.922069	0.444144	0.000092
N39	N	0.904117	0.139572	0.206649
N40	N	0.904161	0.139596	-0.206449
C41	C	0.950497	0.069012	0.248374
C42	C	0.950502	0.069011	0.331826
C43	C	0.904128	0.139576	0.373552
C44	C	0.857742	0.210141	0.331821
C45	C	0.857735	0.210136	0.248371
C46	C	0.857771	0.210161	0.668369
C47	C	0.857784	0.210163	0.751825
C48	C	0.950538	0.069036	0.751824
C49	C	0.950530	0.069031	0.668373
C50	C	0.904142	0.139591	0.626650
C51	C	0.904137	0.139590	0.536162
C52	C	0.904137	0.139583	0.464039
H53	H	0.137457	-0.037681	0.000123
C54	C	0.779702	-0.534224	0.000196
C55	C	0.740866	-0.500372	0.068389
C56	C	0.668163	-0.541742	0.068507
H57	H	0.783204	-0.608137	0.000230
H58	H	0.753219	-0.511318	-0.046016
H59	H	0.767341	-0.523284	0.114588
H60	H	0.737343	-0.426465	0.068369
H61	H	0.641680	-0.518836	0.022295
H62	H	0.671672	-0.615654	0.068539
H63	H	0.641801	-0.518772	0.114771
C64	C	1.000839	-0.007511	0.622952
C65	C	1.051153	0.047475	0.574951
C66	C	1.097451	-0.023045	0.533072
H67	H	0.970460	-0.050531	0.590396
H68	H	1.028508	-0.049618	0.659665
H69	H	1.023486	0.089565	0.538241
H70	H	1.081549	0.090492	0.607486
H71	H	1.125120	-0.065152	0.569785
H72	H	1.067065	-0.066062	0.500521
H73	H	1.131599	0.014253	0.500504
C74	C	0.807261	0.286633	0.377082
C75	C	0.731686	0.269926	0.356811
C76	C	0.685160	0.340363	0.398496
H77	H	0.820361	0.355838	0.363431
H78	H	0.813858	0.276525	0.432765
H79	H	0.725092	0.280043	0.301140
H80	H	0.718562	0.200735	0.370463
H81	H	0.691757	0.330256	0.454179
H82	H	0.698267	0.409564	0.384842
H83	H	0.633877	0.329032	0.384754
H84	H	1.008809	-0.197740	0.000113
H85	H	1.063061	-0.372413	0.000112
H86	H	0.988308	0.011579	0.785804
C87	C	0.744601	-0.134346	-0.000034
C88	C	0.701304	-0.153091	-0.068233
C89	C	0.637770	-0.086653	-0.068366
H90	H	0.760373	-0.063980	-0.000070
H91	H	0.715091	-0.146946	0.046173
H92	H	0.730809	-0.140483	-0.114428
H93	H	0.685513	-0.223444	-0.068212
H94	H	0.608260	-0.099253	-0.022159
H95	H	0.653549	-0.016291	-0.068400
H96	H	0.608382	-0.099369	-0.114635
C97	C	0.807379	0.286609	0.797232
C98	C	0.757103	0.231468	0.845172
C99	C	0.710669	0.301851	0.887020
H100	H	0.779677	0.328660	0.760524
H101	H	0.837691	0.329698	0.829823
H102	H	0.726794	0.188398	0.812584
H103	H	0.784784	0.189421	0.881894
H104	H	0.740981	0.344940	0.919611
H105	H	0.682971	0.343898	0.850307
H106	H	0.676556	0.264449	0.919557
H107	H	0.988263	0.011553	0.214406
H108	H	0.819966	0.267592	0.214399
H109	H	0.280896	-0.034546	0.000122
C110	C	0.725449	-0.359547	0.000207
C111	C	0.686624	-0.325687	0.068404
C112	C	0.613919	-0.367052	0.068535
H113	H	0.728949	-0.433460	0.000244
H114	H	0.698961	-0.336644	-0.046002
H115	H	0.713105	-0.348596	0.114600
H116	H	0.683103	-0.251780	0.068380
H117	H	0.587431	-0.344149	0.022327
H118	H	0.617426	-0.440964	0.068571
H119	H	0.587565	-0.344077	0.114802
C120	C	0.283110	0.333934	0.000210
C121	C	0.328397	0.340431	0.068400
C122	C	0.365839	0.435657	0.068520
H123	H	0.247011	0.389512	0.000249
H124	H	0.313903	0.338535	-0.046003
H125	H	0.297607	0.335839	0.114602
H126	H	0.364509	0.284875	0.068375
H127	H	0.396631	0.440258	0.022307
H128	H	0.329734	0.491227	0.068558
H129	H	0.396575	0.440073	0.114783
C130	C	0.807513	0.286945	0.623123
C131	C	0.827148	0.388769	0.643400
C132	C	0.780871	0.459537	0.601727
H133	H	0.756177	0.275919	0.636778
H134	H	0.814150	0.276915	0.567438
H135	H	0.820504	0.398795	0.699073
H136	H	0.878476	0.399829	0.629743
H137	H	0.787508	0.449507	0.546042
H138	H	0.729538	0.448501	0.615385
H139	H	0.794191	0.528632	0.615474
C140	C	0.516171	0.339224	0.000038
C141	C	0.565780	0.423057	0.000005
C142	C	0.524178	0.516770	-0.000045
H143	H	0.485232	0.342625	0.046261
H144	H	0.485245	0.342534	-0.046210
H145	H	0.596692	0.419749	0.046248
H146	H	0.596720	0.419691	-0.046215
H147	H	0.493252	0.520079	-0.046293
H148	H	0.493240	0.520159	0.046179
H149	H	0.557831	0.573661	-0.000075
H150	H	0.535398	-0.028967	0.000111
H151	H	0.988268	0.011554	0.365798
H152	H	0.670814	0.316852	0.000065
H153	H	0.129419	0.305007	0.000104
H154	H	1.046378	-0.568524	0.000095
H155	H	0.678850	-0.025837	0.000091
