data_functionalizedCrystal
_audit_creation_method	'MofGen! by Chris Wilmer'
_symmetry_space_group_name_H-M	'P1'
_symmetry_Int_Tables_number	1
_symmetry_cell_setting	triclinic
loop_
_symmetry_equiv_pos_as_xyz
  x,y,z
_cell_length_a	13.033293
_cell_length_b	12.759399
_cell_length_c	13.032268
_cell_angle_alpha	97.151554
_cell_angle_beta	89.079182
_cell_angle_gamma	97.185914
loop_
_atom_site_label
_atom_site_type_symbol
_atom_site_fract_x
_atom_site_fract_y
_atom_site_fract_z
Zn1	Zn	1.498470	-0.326866	-0.781500
Zn2	Zn	1.520217	-0.477847	-0.609535
Zn3	Zn	1.348330	-0.321317	-0.587675
Zn4	Zn	1.326469	-0.521644	-0.759578
O5	O	1.423372	-0.411919	-0.684572
O6	O	1.645273	-0.330886	-0.777012
O7	O	1.515666	-0.436432	-0.462726
O8	O	1.368295	-0.175030	-0.613413
O9	O	1.661250	-0.441812	-0.650670
O10	O	1.478602	-0.179106	-0.755815
O11	O	1.389382	-0.321430	-0.446666
O12	O	1.201512	-0.363899	-0.592156
O13	O	1.331035	-0.516458	-0.906395
O14	O	1.185450	-0.511078	-0.718451
O15	O	1.457404	-0.373355	-0.922502
O16	O	1.494468	-0.630681	-0.629412
O17	O	1.352122	-0.662858	-0.739648
C18	C	1.156165	-0.441640	-0.650553
C19	C	1.041849	-0.454383	-0.636024
C20	C	0.982966	-0.405294	-0.692155
C21	C	0.864815	-0.418464	-0.677140
C22	C	1.423307	-0.684891	-0.684549
C23	C	1.423369	-0.801665	-0.684586
C24	C	1.366028	-0.854472	-0.610416
C25	C	1.366096	-0.964191	-0.610441
C26	C	1.480847	-0.968286	-0.758816
C27	C	1.480785	-0.858568	-0.758785
C28	C	1.308613	-0.797569	-0.536216
C29	C	1.251266	-0.850377	-0.462041
C30	C	1.251334	-0.960096	-0.462066
C31	C	1.308748	-1.017007	-0.536267
C32	C	1.691622	-0.382082	-0.718724
C33	C	1.805934	-0.369368	-0.733278
C34	C	1.389355	-0.450411	-0.952806
C35	C	1.374859	-0.466813	-1.067111
C36	C	1.423461	-0.137880	-0.684621
C37	C	1.423500	-0.021101	-0.684642
C38	C	1.430921	-0.403322	-1.126041
C39	C	1.415940	-0.420273	-1.244182
C40	C	1.457315	-0.373494	-0.417389
C41	C	1.472010	-0.356773	-0.303110
H42	H	1.020026	-0.353513	-0.751323
N43	N	1.542742	-1.029672	-0.838860
H44	H	1.579055	-0.979569	-0.885847
H45	H	1.595701	-1.063874	-0.803127
N46	N	1.542625	-0.801593	-0.838778
H47	H	1.618150	-0.810159	-0.832229
H48	H	1.517206	-0.833023	-0.910171
H49	H	0.842987	-0.317581	-0.792449
H50	H	1.204528	-0.804033	-0.401623
H51	H	1.356842	-0.487179	-1.281187
H52	H	1.315765	-0.533715	-1.104121
H53	H	1.204648	-1.003087	-0.401663
N54	N	1.308835	-1.135344	-0.536288
H55	H	1.263802	-1.160164	-0.478039
H56	H	1.280974	-1.173921	-0.604450
H57	H	0.827761	-0.470242	-0.617962
H58	H	1.531096	-0.289855	-1.266104
H59	H	1.490005	-0.336411	-1.089030
N60	N	0.992776	-0.522961	-0.557632
H61	H	0.915329	-0.522645	-0.558015
H62	H	1.009477	-0.598230	-0.575873
H63	H	1.308550	-0.708231	-0.536188
