data_functionalizedCrystal
_audit_creation_method	'MofGen! by Chris Wilmer'
_symmetry_space_group_name_H-M	'P1'
_symmetry_Int_Tables_number	1
_symmetry_cell_setting	triclinic
loop_
_symmetry_equiv_pos_as_xyz
  x,y,z
_cell_length_a	16.120484
_cell_length_b	16.625548
_cell_length_c	16.625539
_cell_angle_alpha	90.017055
_cell_angle_beta	92.870299
_cell_angle_gamma	87.073374
loop_
_atom_site_label
_atom_site_type_symbol
_atom_site_fract_x
_atom_site_fract_y
_atom_site_fract_z
Zn1	Zn	-0.331898	-1.216358	-0.472168
Zn2	Zn	0.168102	-0.716358	0.027832
Zn3	Zn	-0.471318	-1.209425	-0.344164
Zn4	Zn	0.028682	-0.709425	0.155836
Zn5	Zn	-0.331926	-1.081527	-0.337349
Zn6	Zn	0.168074	-0.581527	0.162651
Zn7	Zn	-0.471275	-1.074648	-0.478952
Zn8	Zn	0.028725	-0.574648	0.021048
O9	O	-0.401604	-1.145490	-0.408158
O10	O	0.098396	-0.645490	0.091842
O11	O	-0.350399	-1.328271	-0.455200
O12	O	0.149601	-0.828271	0.044800
O13	O	-0.452857	-1.192436	-0.230429
O14	O	0.047143	-0.692436	0.269571
O15	O	-0.215256	-1.105193	-0.349542
O16	O	0.284744	-0.605193	0.150458
O17	O	-0.452831	-1.323177	-0.361157
O18	O	0.047169	-0.823177	0.138843
O19	O	-0.215236	-1.204253	-0.448592
O20	O	0.284764	-0.704253	0.051408
O21	O	-0.350446	-1.098470	-0.225423
O22	O	0.149554	-0.598470	0.274577
O23	O	-0.350404	-0.967782	-0.356121
O24	O	0.149596	-0.467782	0.143879
O25	O	-0.452757	-1.093469	-0.590883
O26	O	0.047243	-0.593469	-0.090883
O27	O	-0.452783	-0.962728	-0.460156
O28	O	0.047217	-0.462728	0.039844
O29	O	-0.350357	-1.197583	-0.585899
O30	O	0.149643	-0.697583	-0.085899
O31	O	-0.587979	-1.185766	-0.367736
O32	O	-0.087979	-0.685766	0.132264
O33	O	-0.587947	-1.086746	-0.466764
O34	O	-0.087947	-0.586746	0.033236
C35	C	-0.401592	-0.935999	-0.408135
C36	C	0.098408	-0.435999	0.091865
C37	C	-0.401607	-0.846377	-0.408146
C38	C	0.098393	-0.346377	0.091854
C39	C	-0.618213	-1.134779	-0.418743
C40	C	-0.118213	-0.634779	0.081257
C41	C	-0.710879	-1.130271	-0.423298
C42	C	-0.210879	-0.630271	0.076702
C43	C	-0.880541	-1.122045	-0.431631
C44	C	-0.380541	-0.622045	0.068369
C45	C	-0.921827	-1.169079	-0.384699
C46	C	-0.421827	-0.669079	0.115301
C47	C	-1.016233	-1.164502	-0.389335
C48	C	-0.516233	-0.664502	0.110665
C49	C	-0.786127	-1.126621	-0.426996
C50	C	-0.286127	-0.626621	0.073004
C51	C	-0.401549	-1.145532	-0.618465
C52	C	0.098451	-0.645532	-0.118465
C53	C	-0.401526	-1.145550	-0.708085
C54	C	0.098474	-0.645550	-0.208085
C55	C	-0.184150	-1.156264	-0.397550
C56	C	0.315850	-0.656264	0.102450
C57	C	-0.091484	-1.160855	-0.393029
C58	C	0.408516	-0.660855	0.106971
C59	C	-0.401617	-1.355798	-0.408182
C60	C	0.098383	-0.855798	0.091818
C61	C	-0.401622	-1.445419	-0.408192
C62	C	0.098378	-0.945419	0.091808
C63	C	-0.401613	-0.518202	-0.408180
C64	C	0.098387	-0.018202	0.091820
C65	C	-0.401609	-0.609510	-0.408168
C66	C	0.098391	-0.109510	0.091832
C67	C	-0.401611	-0.682287	-0.408162
C68	C	0.098389	-0.182287	0.091838
C69	C	-0.401606	-0.773601	-0.408151
C70	C	0.098394	-0.273601	0.091849
C71	C	-0.401507	-1.145564	-0.780866
C72	C	0.098493	-0.645564	-0.280866
C73	C	-0.401476	-1.145584	-0.872173
C74	C	0.098524	-0.645584	-0.372173
C75	C	-0.401447	-1.145605	-0.944948
C76	C	0.098553	-0.645605	-0.444948
C77	C	-0.401417	-1.145626	-1.036261
C78	C	0.098583	-0.645626	-0.536261
C79	C	-0.401599	-1.145497	-0.198667
C80	C	0.098401	-0.645497	0.301333
C81	C	-0.401388	-1.145647	-0.109036
C82	C	0.098612	-0.645647	0.390964
H83	H	-0.886271	-1.212783	-0.341036
H84	H	-0.386271	-0.712783	0.158964
N85	N	-0.925124	-1.067202	-0.486394
N86	N	-0.425124	-0.567202	0.013606
N87	N	-0.886367	-1.022968	-0.530517
N88	N	-0.386367	-0.522968	-0.030517
H89	H	-0.917861	-0.984232	-0.569190
H90	H	-0.417861	-0.484232	-0.069190
