data_functionalizedCrystal
_audit_creation_method	'MofGen! by Chris Wilmer'
_symmetry_space_group_name_H-M	'P1'
_symmetry_Int_Tables_number	1
_symmetry_cell_setting	triclinic
loop_
_symmetry_equiv_pos_as_xyz
  x,y,z
_cell_length_a	14.853567
_cell_length_b	19.288865
_cell_length_c	17.766277
_cell_angle_alpha	89.988397
_cell_angle_beta	89.993613
_cell_angle_gamma	83.385589
loop_
_atom_site_label
_atom_site_type_symbol
_atom_site_fract_x
_atom_site_fract_y
_atom_site_fract_z
O1	O	-1.195855	-0.090685	0.062551
O2	O	-0.862522	0.242648	0.395885
O3	O	-0.529189	0.575982	0.729218
O4	O	-0.933334	-0.101488	0.062565
O5	O	-0.600001	0.231846	0.395899
O6	O	-0.266668	0.565179	0.729232
O7	O	-1.072180	0.005018	0.062543
O8	O	-0.738847	0.338352	0.395876
O9	O	-0.405514	0.671685	0.729210
O10	O	-1.057009	-0.197191	0.062574
O11	O	-0.723676	0.136142	0.395907
O12	O	-0.390343	0.469475	0.729240
O13	O	-1.072156	0.005024	-0.062646
O14	O	-0.738823	0.338357	0.270688
O15	O	-0.405489	0.671690	0.604021
O16	O	-0.933310	-0.101482	-0.062623
O17	O	-0.599977	0.231851	0.270710
O18	O	-0.266643	0.565184	0.604043
O19	O	-1.195831	-0.090680	-0.062637
O20	O	-0.862498	0.242654	0.270696
O21	O	-0.529164	0.575987	0.604029
Cu22	Cu	-1.064568	-0.096080	-0.074061
Cu23	Cu	-0.731235	0.237253	0.259272
Cu24	Cu	-0.397902	0.570586	0.592606
Cu25	Cu	-1.064597	-0.096087	0.073989
Cu26	Cu	-0.731264	0.237246	0.407322
Cu27	Cu	-0.397930	0.570580	0.740656
O28	O	-1.056985	-0.197186	-0.062615
O29	O	-0.723652	0.136148	0.270718
O30	O	-0.390318	0.469481	0.604052
C31	C	-0.899736	-0.100996	-0.000027
C32	C	-0.566403	0.232338	0.333306
C33	C	-0.233070	0.565671	0.666639
C34	C	-0.799661	-0.099529	-0.000023
C35	C	-0.466328	0.233805	0.333311
C36	C	-0.132994	0.567138	0.666644
C37	C	-1.071680	0.030899	-0.000053
C38	C	-0.738347	0.364232	0.333280
C39	C	-0.405013	0.697566	0.666613
C40	C	-1.070215	0.108008	-0.000060
C41	C	-0.736881	0.441341	0.333273
C42	C	-0.403548	0.774674	0.666607
C43	C	-1.229429	-0.091172	-0.000043
C44	C	-0.896096	0.242161	0.333290
C45	C	-0.562762	0.575495	0.666624
C46	C	-1.329504	-0.092639	-0.000043
C47	C	-0.996171	0.240695	0.333291
C48	C	-0.662838	0.574028	0.666624
C49	C	-0.387522	-0.030061	-0.000050
C50	C	-0.054189	0.303272	0.333283
C51	C	0.279145	0.636605	0.666617
C52	C	-0.365522	-0.156593	-0.000030
C53	C	-0.032188	0.176740	0.333303
C54	C	0.301145	0.510074	0.666636
C55	C	-0.459547	-0.157972	-0.000028
C56	C	-0.126214	0.175361	0.333306
C57	C	0.207119	0.508694	0.666639
C58	C	-0.517565	-0.095395	-0.000035
C59	C	-0.184232	0.237938	0.333298
C60	C	0.149101	0.571272	0.666632
C61	C	-0.481557	-0.031439	-0.000045
C62	C	-0.148224	0.301895	0.333288
C63	C	0.185110	0.635228	0.666621
C64	C	-0.495563	-0.221927	-0.000010
C65	C	-0.162230	0.111406	0.333324
C66	C	0.171104	0.444739	0.666657
C67	C	-0.589594	-0.223309	-0.000006
C68	C	-0.256261	0.110024	0.333327
C69	C	0.077073	0.443357	0.666660
C70	C	-0.647614	-0.160731	-0.000019
C71	C	-0.314280	0.172602	0.333314
C72	C	0.019053	0.505935	0.666647
C73	C	-0.611600	-0.096772	-0.000030
C74	C	-0.278267	0.236561	0.333303
C75	C	0.055067	0.569894	0.666636
C76	C	-0.669618	-0.034195	-0.000038
C77	C	-0.336284	0.299138	0.333296
C78	C	-0.002951	0.632471	0.666629
C79	C	-0.633606	0.029764	-0.000054
C80	C	-0.300273	0.363098	0.333279
C81	C	0.033061	0.696431	0.666613
C82	C	-0.539577	0.031139	-0.000058
C83	C	-0.206243	0.364472	0.333275
C84	C	0.127090	0.697806	0.666609
C85	C	-0.741643	-0.162106	-0.000015
C86	C	-0.408310	0.171227	0.333318
C87	C	-0.074977	0.504561	0.666651
C88	C	-0.763653	-0.035572	-0.000033
C89	C	-0.430319	0.297761	0.333300
C90	C	-0.096986	0.631094	0.666634
C91	C	-1.057485	-0.223067	-0.000017
C92	C	-0.724152	0.110267	0.333317
C93	C	-0.390819	0.443600	0.666650
C94	C	-1.058951	-0.300175	-0.000005
C95	C	-0.725617	0.033158	0.333328
C96	C	-0.392284	0.366492	0.666661
N97	N	-1.064555	-0.096076	-0.178191
N98	N	-0.731221	0.237258	0.155142
N99	N	-0.397888	0.570591	0.488475
C100	C	-1.151683	0.152429	-0.000068
C101	C	-0.818350	0.485762	0.333265
C102	C	-0.485017	0.819096	0.666599
C103	C	-1.150307	0.224881	-0.000056
C104	C	-0.816973	0.558214	0.333277
C105	C	-0.483640	0.891547	0.666611
C106	C	-1.067457	0.252908	-0.000051
C107	C	-0.734123	0.586241	0.333282
C108	C	-0.400790	0.919574	0.666615
C109	C	-0.985977	0.208477	-0.000039
C110	C	-0.652644	0.541810	0.333294
C111	C	-0.319311	0.875143	0.666628
C112	C	-0.987356	0.136027	-0.000043
C113	C	-0.654023	0.469360	0.333290
C114	C	-0.320690	0.802693	0.666623
C115	C	-1.002318	0.361417	-0.043899
C116	C	-0.668985	0.694750	0.289435
C117	C	-0.335652	1.028084	0.622768
C118	C	-1.000943	0.433866	-0.043899
C119	C	-0.667610	0.767199	0.289435
C120	C	-0.334276	1.100533	0.622768
C121	C	-1.063200	0.476368	-0.000034
C122	C	-0.729867	0.809701	0.333299
C123	C	-0.396533	1.143034	0.666633
C124	C	-1.126848	0.446413	0.043821
C125	C	-0.793515	0.779746	0.377154
C126	C	-0.460181	1.113080	0.710488
C127	C	-1.128227	0.373963	0.043817
C128	C	-0.794894	0.707296	0.377150
C129	C	-0.461560	1.040629	0.710483
C130	C	-1.065952	0.331467	-0.000046
C131	C	-0.732619	0.664800	0.333287
C132	C	-0.399286	0.998134	0.666621
C133	C	-1.143181	0.599350	-0.000028
C134	C	-0.809848	0.932683	0.333305
C135	C	-0.476515	1.266017	0.666639
C136	C	-1.141801	0.671803	-0.000011
C137	C	-0.808468	1.005136	0.333322
C138	C	-0.475135	1.338469	0.666655
C139	C	-0.977470	0.655397	-0.000002
C140	C	-0.644136	0.988731	0.333331
C141	C	-0.310803	1.322064	0.666665
C142	C	-0.978852	0.582946	-0.000011
C143	C	-0.645519	0.916279	0.333322
C144	C	-0.312186	1.249613	0.666656
C145	C	-1.061710	0.554927	-0.000028
C146	C	-0.728377	0.888261	0.333306
C147	C	-0.395044	1.221594	0.666639
C148	C	-1.126055	-0.048938	-0.217588
C149	C	-0.792722	0.284395	0.115745
C150	C	-0.459389	0.617729	0.449079
C151	C	-1.126061	-0.048935	-0.296390
C152	C	-0.792727	0.284399	0.036943
C153	C	-0.459394	0.617732	0.370277
C154	C	-1.064574	-0.096081	-0.335792
C155	C	-0.731240	0.237252	-0.002459
C156	C	-0.397907	0.570586	0.330875
C157	C	-1.003061	-0.143222	-0.296386
C158	C	-0.669728	0.190111	0.036948
C159	C	-0.336395	0.523444	0.370281
C160	C	-1.003052	-0.143220	-0.217585
C161	C	-0.669718	0.190114	0.115748
C162	C	-0.336385	0.523447	0.449081
C163	C	-1.052504	-0.159328	-0.460620
C164	C	-0.719171	0.174005	-0.127287
C165	C	-0.385838	0.507339	0.206047
C166	C	-1.052520	-0.159332	-0.539419
C167	C	-0.719187	0.174002	-0.206085
C168	C	-0.385854	0.507335	0.127248
C169	C	-1.064598	-0.096090	-0.578838
C170	C	-0.731264	0.237244	-0.245505
C171	C	-0.397931	0.570577	0.087828
C172	C	-1.076679	-0.032841	-0.539449
C173	C	-0.743345	0.300492	-0.206116
C174	C	-0.410012	0.633826	0.127218
C175	C	-1.076669	-0.032838	-0.460649
C176	C	-0.743336	0.300495	-0.127315
C177	C	-0.410002	0.633829	0.206018
C178	C	-1.064577	-0.096089	-0.421238
C179	C	-0.731243	0.237244	-0.087904
C180	C	-0.397910	0.570578	0.245429
C181	C	-1.126108	-0.048944	-0.703681
C182	C	-0.792774	0.284389	-0.370348
C183	C	-0.459441	0.617722	-0.037014
C184	C	-1.126107	-0.048940	-0.782484
C185	C	-0.792773	0.284393	-0.449151
C186	C	-0.459440	0.617726	-0.115817
C187	C	-1.003111	-0.143234	-0.782478
C188	C	-0.669778	0.190099	-0.449145
C189	C	-0.336445	0.523433	-0.115812
C190	C	-1.003108	-0.143232	-0.703677
C191	C	-0.669775	0.190101	-0.370343
C192	C	-0.336442	0.523435	-0.037010
C193	C	-1.064611	-0.096088	-0.664283
C194	C	-0.731278	0.237245	-0.330949
C195	C	-0.397944	0.570579	0.002384
N196	N	-1.064618	-0.096086	0.178119
N197	N	-0.731285	0.237247	0.511453
N198	N	-0.397951	0.570580	0.844786
H199	H	-0.810886	0.015386	-0.000042
H200	H	-0.477552	0.348720	0.333291
H201	H	-0.144219	0.682053	0.666625
H202	H	-0.318279	-0.207540	-0.000018
H203	H	0.015055	0.125793	0.333316
H204	H	0.348388	0.459126	0.666649
F205	F	-0.937592	-0.193392	-0.175654
F206	F	-0.604258	0.139941	0.157679
F207	F	-0.270925	0.473275	0.491012
F208	F	-1.039715	-0.226645	-0.418674
F209	F	-0.706381	0.106688	-0.085341
F210	F	-0.373048	0.440021	0.247992
F211	F	-1.191561	0.001233	-0.661754
F212	F	-0.858227	0.334566	-0.328421
F213	F	-0.524894	0.667900	0.004913
H214	H	-0.918520	0.231301	-0.000033
H215	H	-0.585187	0.564634	0.333300
H216	H	-0.251854	0.897968	0.666633
H217	H	-0.680856	0.080715	-0.000055
H218	H	-0.347523	0.414048	0.333278
H219	H	-0.014190	0.747381	0.666612
F220	F	-1.191562	0.001236	-0.824415
F221	F	-0.858229	0.334569	-0.491081
F222	F	-0.524895	0.667903	-0.157748
F223	F	-0.900642	0.088748	-0.000034
F224	F	-0.567309	0.422081	0.333299
F225	F	-0.233976	0.755415	0.666632
F226	F	-1.191508	0.001239	-0.175664
F227	F	-0.858175	0.334572	0.157670
F228	F	-0.524841	0.667905	0.491003
F229	F	-1.039669	-0.226646	-0.581332
F230	F	-0.706336	0.106688	-0.247999
F231	F	-0.373002	0.440021	0.085334
H232	H	-1.177543	0.481017	0.079540
H233	H	-0.844210	0.814350	0.412874
H234	H	-0.510877	1.147683	0.746207
F235	F	-0.937619	-0.193397	-0.338320
F236	F	-0.604286	0.139937	-0.004987
F237	F	-0.270953	0.473270	0.328346
F238	F	-0.779966	-0.230171	0.000008
F239	F	-0.446633	0.103162	0.333341
F240	F	-0.113300	0.436495	0.666674
F241	F	-0.937667	-0.193406	-0.824409
F242	F	-0.604334	0.139927	-0.491076
F243	F	-0.271000	0.473260	-0.157742
H244	H	-0.510247	0.083212	-0.000089
H245	H	-0.176914	0.416545	0.333244
H246	H	0.156420	0.749878	0.666577
H247	H	-0.448319	-0.272874	0.000004
H248	H	-0.114985	0.060459	0.333337
H249	H	0.218348	0.393792	0.666671
H250	H	-1.180050	0.349577	0.079526
H251	H	-0.846716	0.682910	0.412860
H252	H	-0.513383	1.016243	0.746193
F253	F	-0.349196	0.038006	-0.000071
F254	F	-0.015863	0.371339	0.333262
F255	F	0.317471	0.704672	0.666596
F256	F	-0.627912	-0.291380	0.000010
F257	F	-0.294579	0.041954	0.333343
F258	F	0.038755	0.375287	0.666677
H259	H	-1.208146	0.707971	-0.000014
H260	H	-0.874812	1.041304	0.333320
H261	H	-0.541479	1.374637	0.666653
H262	H	-1.219153	0.129621	-0.000079
H263	H	-0.885820	0.462954	0.333254
H264	H	-0.552486	0.796288	0.666588
F265	F	-1.237020	0.272166	-0.000063
F266	F	-0.903687	0.605499	0.333270
F267	F	-0.570353	0.938832	0.666603
H268	H	-1.210650	0.576536	-0.000038
H269	H	-0.877316	0.909869	0.333295
H270	H	-0.543983	1.243203	0.666628
F271	F	-0.937654	-0.193406	-0.661744
F272	F	-0.604321	0.139928	-0.328411
F273	F	-0.270988	0.473261	0.004922
H274	H	-0.910012	0.678216	0.000006
H275	H	-0.576678	1.011549	0.333339
H276	H	-0.243345	1.344883	0.666673
H277	H	-0.949113	0.458249	-0.079604
H278	H	-0.615780	0.791582	0.253729
H279	H	-0.282446	1.124916	0.587063
F280	F	-0.892141	0.535668	-0.000005
F281	F	-0.558808	0.869001	0.333328
F282	F	-0.225474	1.202334	0.666661
H283	H	-0.951619	0.326817	-0.079622
H284	H	-0.618286	0.660150	0.253711
H285	H	-0.284952	0.993484	0.587044
F286	F	-1.191522	0.001238	-0.338326
F287	F	-0.858189	0.334572	-0.004992
F288	F	-0.524855	0.667905	0.328341
F289	F	-1.089519	0.034474	-0.418731
F290	F	-0.756185	0.367807	-0.085398
F291	F	-0.422852	0.701140	0.247936
H292	H	-1.086513	0.018657	-0.571543
H293	H	-0.753179	0.351990	-0.238209
H294	H	-0.419846	0.685324	0.095124
