data_functionalizedCrystal
_audit_creation_method	'MofGen! by Chris Wilmer'
_symmetry_space_group_name_H-M	'P1'
_symmetry_Int_Tables_number	1
_symmetry_cell_setting	triclinic
loop_
_symmetry_equiv_pos_as_xyz
  x,y,z
_cell_length_a	19.805407
_cell_length_b	16.120507
_cell_length_c	19.805398
_cell_angle_alpha	87.132473
_cell_angle_beta	89.986879
_cell_angle_gamma	87.066053
loop_
_atom_site_label
_atom_site_type_symbol
_atom_site_fract_x
_atom_site_fract_y
_atom_site_fract_z
Zn1	Zn	1.020992	0.331920	-0.396367
Zn2	Zn	1.015164	0.471342	-0.288911
Zn3	Zn	0.907818	0.331946	-0.283192
Zn4	Zn	0.902017	0.471295	-0.402055
O5	O	0.961498	0.401625	-0.342631
O6	O	1.114935	0.350424	-0.382125
O7	O	1.000914	0.452881	-0.193437
O8	O	0.927697	0.215276	-0.293431
O9	O	1.110653	0.452856	-0.303177
O10	O	1.010846	0.215257	-0.376580
O11	O	0.922047	0.350467	-0.189235
O12	O	0.812332	0.350422	-0.298947
O13	O	0.917810	0.452776	-0.496016
O14	O	0.808070	0.452801	-0.386276
O15	O	1.005220	0.350378	-0.491837
O16	O	0.995288	0.588002	-0.308694
O17	O	0.912159	0.587967	-0.391821
C18	C	0.952480	0.618235	-0.351510
C19	C	0.948685	0.710901	-0.355330
C20	C	0.785642	0.401610	-0.342609
C21	C	0.710410	0.401623	-0.342616
C22	C	0.981250	0.921841	-0.322915
C23	C	0.941767	0.880558	-0.362314
C24	C	0.945617	0.786152	-0.358427
C25	C	0.977401	1.016256	-0.326800
C26	C	0.672861	0.455012	-0.388021
C27	C	0.602172	0.455013	-0.388031
C28	C	0.569034	0.401629	-0.342631
C29	C	0.606588	0.348234	-0.297224
C30	C	0.677275	0.348229	-0.297218
C31	C	0.321514	0.348253	-0.297247
C32	C	0.250822	0.348264	-0.297255
C33	C	0.246411	0.455037	-0.388060
C34	C	0.317098	0.455032	-0.388054
C35	C	0.354646	0.401634	-0.342649
C36	C	0.431295	0.401632	-0.342640
C37	C	0.492387	0.401635	-0.342637
C38	C	1.138040	0.401642	-0.342654
C39	C	1.213271	0.401649	-0.342664
C40	C	0.961518	0.401569	-0.519172
C41	C	0.961527	0.401545	-0.594403
C42	C	0.970543	1.184170	-0.333723
C43	C	0.974330	1.091504	-0.329900
C44	C	1.002705	0.454739	-1.058374
C45	C	1.002685	0.454762	-0.987686
C46	C	0.961615	0.401451	-0.950161
C47	C	0.920556	0.348120	-0.983327
C48	C	0.920573	0.348102	-1.054013
C49	C	0.920488	0.348191	-0.698256
C50	C	0.920476	0.348212	-0.627565
C51	C	1.002600	0.454851	-0.631929
C52	C	1.002617	0.454833	-0.702616
C53	C	0.961556	0.401506	-0.735776
C54	C	0.961577	0.401483	-0.812423
C55	C	0.961597	0.401469	-0.873514
C56	C	0.961519	0.401622	-0.166775
C57	C	0.961651	0.401411	-0.091535
H58	H	1.017941	0.886288	-0.286267
O59	O	0.880675	0.296219	-1.086120
C60	C	0.799182	0.190483	-1.074337
C61	C	0.844349	0.249182	-1.037891
H62	H	0.769789	0.152451	-1.035361
H63	H	0.832050	0.146828	-1.105630
H64	H	0.762231	0.228765	-1.109013
H65	H	0.881306	0.210967	-1.003182
H66	H	0.811438	0.292839	-1.006641
H67	H	1.036032	0.498276	-0.604922
O68	O	0.898004	0.923101	-0.405977
C69	C	0.854267	1.057352	-0.449753
C70	C	0.903845	1.009273	-0.400268
H71	H	0.858982	1.127031	-0.445165
H72	H	0.800360	1.040427	-0.437128
H73	H	0.866789	1.040182	-0.503642
H74	H	0.891385	1.026417	-0.346362
H75	H	0.957737	1.026202	-0.412952
O76	O	0.704942	0.506896	-0.432188
C77	C	0.693097	0.612835	-0.522234
C78	C	0.656682	0.554106	-0.472259
H79	H	0.654094	0.651032	-0.554635
H80	H	0.727772	0.574652	-0.556154
H81	H	0.724390	0.656342	-0.492873
H82	H	0.625353	0.510587	-0.501565
H83	H	0.622048	0.592341	-0.438339
O84	O	0.565675	0.506762	-0.432203
C85	C	0.485401	0.518151	-0.524024
C86	C	0.526704	0.459447	-0.474045
H87	H	0.453872	0.479921	-0.557856
H88	H	0.521202	0.556292	-0.556513
H89	H	0.450514	0.561713	-0.494664
H90	H	0.561594	0.415835	-0.503350
H91	H	0.490864	0.421365	-0.441555
O92	O	0.349182	0.506915	-0.432220
C93	C	0.337344	0.612854	-0.522266
C94	C	0.300925	0.554128	-0.472292
H95	H	0.298343	0.651053	-0.554668
H96	H	0.372018	0.574669	-0.556185
H97	H	0.368637	0.656360	-0.492904
H98	H	0.269595	0.510611	-0.501600
H99	H	0.266291	0.592365	-0.438374
O100	O	0.209834	0.506824	-0.432147
C101	C	0.098981	0.554194	-0.472380
C102	C	0.140319	0.495489	-0.422430
H103	H	0.042770	0.545063	-0.464532
H104	H	0.113454	0.539642	-0.526394
H105	H	0.110121	0.621389	-0.463162
H106	H	0.129201	0.428274	-0.431587
H107	H	0.125839	0.510114	-0.368433
O108	O	0.574508	0.296298	-0.253098
C109	C	0.586348	0.190428	-0.162999
C110	C	0.622763	0.249187	-0.212949
H111	H	0.625345	0.152336	-0.130516
H112	H	0.555094	0.146831	-0.192313
H113	H	0.551635	0.228665	-0.129155
H114	H	0.657509	0.211017	-0.246805
H115	H	0.653974	0.292786	-0.183593
O116	O	0.218738	0.296320	-0.253130
C117	C	0.230567	0.190437	-0.163040
C118	C	0.266988	0.249200	-0.212983
H119	H	0.269561	0.152337	-0.130558
H120	H	0.199313	0.146847	-0.192361
H121	H	0.195855	0.228672	-0.129195
H122	H	0.301735	0.211032	-0.246840
H123	H	0.298200	0.292792	-0.183619
O124	O	0.358049	0.296504	-0.253109
C125	C	0.438260	0.285129	-0.161233
C126	C	0.396933	0.343831	-0.211195
H127	H	0.469697	0.323370	-0.127323
H128	H	0.473219	0.241590	-0.190537
H129	H	0.402414	0.246965	-0.128818
H130	H	0.432728	0.382049	-0.243622
H131	H	0.361966	0.387315	-0.181850
O132	O	0.713856	0.296396	-0.253175
C133	C	0.824710	0.249099	-0.212895
C134	C	0.783366	0.307833	-0.262819
H135	H	0.880916	0.258338	-0.220666
H136	H	0.813662	0.181876	-0.222118
H137	H	0.810150	0.263643	-0.158903
H138	H	0.797902	0.293364	-0.316831
H139	H	0.794419	0.375039	-0.253537
O140	O	1.042621	0.506604	-1.094721
C141	C	1.124106	0.612349	-1.091580
C142	C	1.078923	0.553665	-1.050337
H143	H	1.153479	0.650401	-1.055713
H144	H	1.091251	0.655988	-1.126439
H145	H	1.161074	0.574055	-1.123127
H146	H	1.041948	0.591892	-1.018751
H147	H	1.111820	0.510024	-1.015521
H148	H	1.036107	0.498198	-0.960690
H149	H	1.036063	0.498242	-0.733165
O150	O	0.880510	0.296401	-0.591215
C151	C	0.799072	0.190599	-0.594340
C152	C	0.844285	0.249241	-0.635589
H153	H	0.769783	0.152443	-0.630199
H154	H	0.762039	0.228848	-0.562827
H155	H	0.831965	0.147050	-0.559449
H156	H	0.811445	0.292802	-0.670518
H157	H	0.881322	0.210941	-0.667058
O158	O	0.880519	0.296512	-0.730491
C159	C	0.789625	0.285281	-0.809843
C160	C	0.834841	0.343903	-0.773372
H161	H	0.752693	0.323572	-0.844532
H162	H	0.760223	0.247205	-0.770902
H163	H	0.822525	0.241656	-0.841130
H164	H	0.801991	0.387578	-0.742086
H165	H	0.864248	0.381920	-0.812347
H166	H	0.887112	0.304717	-0.952768
