data_functionalizedCrystal
_audit_creation_method	'MofGen! by Chris Wilmer'
_symmetry_space_group_name_H-M	'P1'
_symmetry_Int_Tables_number	1
_symmetry_cell_setting	triclinic
loop_
_symmetry_equiv_pos_as_xyz
  x,y,z
_cell_length_a	19.377369
_cell_length_b	14.560438
_cell_length_c	19.377372
_cell_angle_alpha	90.000240
_cell_angle_beta	62.069167
_cell_angle_gamma	72.127154
loop_
_atom_site_label
_atom_site_type_symbol
_atom_site_fract_x
_atom_site_fract_y
_atom_site_fract_z
Zr1	Zr	0.939095	-0.001469	0.435800
O2	O	1.046523	-0.096194	0.323013
O3	O	0.808585	0.000993	0.485417
O4	O	0.949297	-0.152283	0.463726
O5	O	0.905814	0.208221	0.344704
O6	O	0.983600	-0.166296	0.557613
O7	O	0.905812	0.057082	0.344704
O8	O	0.731894	0.107887	0.596414
O9	O	1.157520	-0.065962	0.305902
O10	O	0.896415	0.023695	0.558472
O11	O	0.870816	0.146945	0.488406
O12	O	1.036486	-0.033518	0.462867
O13	O	1.010887	0.089733	0.392800
Zr14	Zr	0.993809	0.217232	0.585539
Zr15	Zr	0.993806	-0.023817	0.585539
Zr16	Zr	0.939098	0.239580	0.435800
Zr17	Zr	1.116123	0.046748	0.408511
Zr18	Zr	0.816781	0.169015	0.612828
O19	O	1.124319	0.214770	0.535922
O20	O	1.124314	-0.127970	0.535922
O21	O	1.046528	0.246546	0.323013
O22	O	0.886381	0.311957	0.698327
O23	O	0.886376	-0.030783	0.698326
O24	O	0.808590	0.343733	0.485418
O25	O	1.027090	0.007542	0.676635
O26	O	0.983607	0.368046	0.557613
O27	O	0.949304	0.382059	0.463727
O28	O	1.027092	0.158681	0.676635
O29	O	1.201008	-0.083726	0.424925
O30	O	0.731896	0.299489	0.596415
O31	O	0.775384	0.281725	0.715437
O32	O	0.775381	0.090123	0.715437
O33	O	1.157523	0.125640	0.305903
O34	O	1.201010	0.107876	0.424925
O35	O	0.896418	0.249281	0.558472
O36	O	0.922017	0.126030	0.628539
O37	O	1.062088	0.068818	0.532934
O38	O	1.036489	0.192068	0.462867
C39	C	0.745017	0.047570	0.544804
C40	C	0.669864	0.027101	0.556389
C41	C	0.898018	0.135836	0.323369
C42	C	0.874792	0.145323	0.259801
C43	C	0.966456	0.409397	0.510670
C44	C	0.966458	0.511728	0.510670
C45	C	0.355682	0.281733	0.411917
C46	C	0.285008	0.262565	0.422898
C47	C	0.311741	0.133901	0.496042
C48	C	0.382416	0.153061	0.485070
C49	C	0.404381	0.226977	0.443006
C50	C	0.431115	0.098306	0.516160
C51	C	0.501787	0.117461	0.505185
C52	C	0.523759	0.191372	0.463121
C53	C	0.475053	0.246133	0.432031
C54	C	0.409152	0.024385	0.558219
C55	C	0.457852	-0.030370	0.589308
C56	C	0.528521	-0.011210	0.578338
C57	C	0.550493	0.062701	0.536274
C58	C	0.577227	-0.065971	0.609428
C59	C	0.647899	-0.046815	0.598453
C60	C	0.621165	0.081856	0.525299
C61	C	1.187887	0.168193	0.476535
C62	C	1.263040	0.188662	0.464951
C63	C	0.966448	-0.193634	0.510669
C64	C	0.966447	-0.295965	0.510669
C65	C	1.039572	0.529942	0.460767
C66	C	1.039566	0.626096	0.460764
C67	C	0.893326	0.685817	0.560575
C68	C	0.893331	0.589665	0.560573
C69	C	1.163972	0.027201	-0.198784
C70	C	1.142129	0.036125	-0.258503
C71	C	0.995906	0.095850	-0.158689
C72	C	1.017737	0.086936	-0.098960
C73	C	1.101772	0.052609	-0.119015
C74	C	0.955537	0.112344	-0.019191
C75	C	0.977367	0.103426	0.040532
C76	C	1.061397	0.069098	0.020486
C77	C	1.123602	0.043691	-0.059292
C78	C	0.871503	0.146664	0.000862
C79	C	0.809302	0.172072	0.080631
C80	C	0.831132	0.163160	0.140356
C81	C	0.915162	0.128833	0.120309
C82	C	0.768927	0.188568	0.220133
C83	C	0.790757	0.179649	0.279856
C84	C	0.936992	0.119914	0.180032
C85	C	1.034886	0.079927	0.697970
C86	C	1.058112	0.070440	0.761538
C87	C	0.813451	0.019616	0.732104
C88	C	0.761524	-0.010340	0.807257
C89	C	0.745021	0.349085	0.544804
C90	C	0.669869	0.430948	0.556389
C91	C	0.813455	0.321131	0.732104
C92	C	0.761529	0.393506	0.807257
C93	C	1.119449	-0.105368	0.289235
C94	C	1.171375	-0.177743	0.214082
C95	C	1.119453	0.196147	0.289235
C96	C	1.171380	0.226104	0.214083
C97	C	1.187883	-0.133322	0.476535
C98	C	1.263035	-0.215185	0.464950
C99	C	0.723774	-0.077837	0.805975
C100	C	0.674991	-0.106003	0.876582
C101	C	0.663953	-0.066667	0.948470
C102	C	0.701709	0.000833	0.949749
C103	C	0.750497	0.028993	0.879143
C104	C	0.647941	0.522820	0.598404
C105	C	0.577337	0.599750	0.609285
C106	C	0.528659	0.584805	0.578156
C107	C	0.550592	0.492925	0.536135
C108	C	0.621198	0.415998	0.525250
C109	C	0.750509	0.363158	0.879130
C110	C	0.701731	0.431155	0.949748
C111	C	0.663970	0.529498	0.948493
C112	C	0.674994	0.559847	0.876612
C113	C	0.723776	0.491852	0.805995
C114	C	1.182403	-0.147393	0.142208
C115	C	1.231203	-0.215383	0.071586
C116	C	1.268969	-0.313725	0.072841
C117	C	1.257939	-0.344076	0.144723
C118	C	1.209145	-0.276084	0.215342
C119	C	1.209137	0.293592	0.215363
C120	C	1.257940	0.321737	0.144753
C121	C	1.268980	0.282398	0.072865
C122	C	1.231221	0.214901	0.071586
C123	C	1.182424	0.186752	0.142194
C124	C	1.311693	-0.200211	0.496090
C125	C	1.382302	-0.277125	0.485220
C126	C	1.404254	-0.369010	0.443205
C127	C	1.355588	-0.383983	0.412065
C128	C	1.284978	-0.307072	0.422940
H129	H	0.581307	0.206964	0.454182
N130	N	0.644817	0.316925	0.479926
H131	H	0.644776	0.266034	0.515350
H132	H	0.702234	0.299280	0.432185
H133	H	1.245365	-0.319277	0.397577
H134	H	1.373473	-0.458806	0.377855
H135	H	0.927485	0.123795	-0.142371
N136	N	1.197249	-0.308828	0.292863
H137	H	1.228578	-0.381445	0.282934
H138	H	1.136002	-0.294755	0.330160
N139	N	1.141686	-0.041329	0.140832
H140	H	1.162430	0.001080	0.162094
H141	H	1.079268	-0.021654	0.174890
N142	N	0.814470	0.570015	0.614408
H143	H	0.798359	0.536701	0.581459
H144	H	0.768203	0.634013	0.646016
H145	H	0.833790	0.749283	0.601205
H146	H	0.639049	0.142047	0.491047
N147	N	1.197249	0.336026	0.292889
H148	H	1.219185	0.281427	0.317404
H149	H	1.136010	0.372048	0.330173
N150	N	0.689786	0.043259	1.027295
H151	H	0.662525	0.116809	1.037413
H152	H	0.745721	0.026153	1.024553
N153	N	1.027627	0.082903	0.158418
H154	H	1.055793	0.128026	0.126209
H155	H	1.055732	0.014763	0.126234
H156	H	1.099102	0.640918	0.420126
H157	H	0.644254	-0.160964	0.875525
H158	H	1.079169	0.061835	0.069118
H159	H	0.492937	0.306324	0.397779
H160	H	0.510948	0.480770	0.510793
H161	H	1.288677	0.376698	0.145810
H162	H	0.624250	0.584853	1.006000
N163	N	0.791225	0.257090	0.880497
H164	H	0.776836	0.248196	0.936749
H165	H	0.853637	0.237392	0.846379
H166	H	1.308716	0.305327	0.015377
N167	N	0.689846	0.398410	1.027270
H168	H	0.721164	0.325790	1.017345
H169	H	0.628598	0.412497	1.064576
N170	N	1.243081	-0.182648	-0.005936
H171	H	1.304309	-0.196646	-0.043279
H172	H	1.211696	-0.110041	0.004058
H173	H	0.644242	0.639926	0.875602
N174	N	1.118446	0.445890	0.406945
H175	H	1.137563	0.454815	0.349951
H176	H	1.107307	0.382248	0.414580
N177	N	0.791210	0.101795	0.880529
H178	H	0.746971	0.165544	0.915224
H179	H	0.823798	0.113587	0.824869
N180	N	0.379375	0.361466	0.366557
H181	H	0.337798	0.393254	0.348529
H182	H	0.436797	0.332154	0.318831
N183	N	1.298669	-0.450146	0.146074
H184	H	1.361093	-0.469897	0.111994
H185	H	1.277857	-0.492470	0.124827
H186	H	0.687569	0.535007	0.623755
N187	N	0.288054	0.054172	0.541401
H188	H	0.235896	0.050341	0.543634
H189	H	0.277558	0.069488	0.597035
H190	H	0.245359	0.307156	0.397576
N191	N	0.332925	0.003728	0.570061
H192	H	0.292475	0.013912	0.628644
H193	H	0.349901	-0.066205	0.545441
N194	N	0.553687	0.698841	0.654610
H195	H	0.595236	0.696625	0.672683
H196	H	0.496236	0.716510	0.702305
H197	H	1.293833	-0.125399	0.530301
N198	N	0.700429	-0.105873	0.631982
H199	H	0.748535	-0.082525	0.618641
H200	H	0.722594	-0.177378	0.608289
N201	N	0.678295	0.225592	0.241754
H202	H	0.642202	0.240337	0.301352
H203	H	0.666053	0.173963	0.219151
H204	H	0.439961	-0.090555	0.623554
H205	H	1.192031	0.015772	-0.075624
N206	N	1.243116	0.172493	-0.005951
H207	H	1.279750	0.200582	-0.050479
H208	H	1.187161	0.189565	-0.003163
N209	N	0.452505	0.667780	0.589901
H210	H	0.446004	0.728245	0.621244
H211	H	0.401556	0.648681	0.619728
N212	N	1.321585	-0.387048	-0.003333
H213	H	1.296999	-0.440015	0.000420
H214	H	1.380161	-0.417293	-0.012364
H215	H	1.151680	0.131801	0.141141
N216	N	1.254609	-0.009805	-0.220406
H217	H	1.290705	-0.024543	-0.280003
H218	H	1.266855	-0.071433	-0.197802
N219	N	1.209223	0.008734	-0.344543
H220	H	1.182645	0.019594	-0.379337
H221	H	1.244969	-0.062492	-0.355904
N222	N	0.735655	0.524591	0.728477
H223	H	0.704326	0.597208	0.738405
H224	H	0.713719	0.487861	0.704001
H225	H	1.421920	-0.264914	0.510578
N226	N	1.480408	-0.451963	0.431487
H227	H	1.507896	-0.428526	0.457593
H228	H	1.520856	-0.474867	0.372911
H229	H	0.853732	0.153916	-0.047772
N230	N	0.718672	0.209096	0.102245
H231	H	0.690508	0.277227	0.134456
H232	H	0.690568	0.163915	0.134429
N233	N	0.735669	-0.120269	0.728446
H234	H	0.762927	-0.193819	0.718331
H235	H	0.772279	-0.092120	0.683955
N236	N	0.553543	-0.145705	0.654780
H237	H	0.501387	-0.149537	0.657009
H238	H	0.543045	-0.130396	0.710415
H239	H	0.740107	0.200359	0.344809
N240	N	0.611333	-0.097045	1.024621
H241	H	0.589095	-0.145772	1.012894
H242	H	0.563279	-0.037510	1.062371
