data_functionalizedCrystal
_audit_creation_method	'MofGen! by Chris Wilmer'
_symmetry_space_group_name_H-M	'P1'
_symmetry_Int_Tables_number	1
_symmetry_cell_setting	triclinic
loop_
_symmetry_equiv_pos_as_xyz
  x,y,z
_cell_length_a	10.685976
_cell_length_b	18.050590
_cell_length_c	10.686551
_cell_angle_alpha	85.590282
_cell_angle_beta	89.651515
_cell_angle_gamma	85.655563
loop_
_atom_site_label
_atom_site_type_symbol
_atom_site_fract_x
_atom_site_fract_y
_atom_site_fract_z
Zn1	Zn	1.972164	-0.359113	-0.561839
Zn2	Zn	2.472164	0.140887	-0.061839
Zn3	Zn	1.955920	-0.492066	-0.352069
Zn4	Zn	2.455920	0.007934	0.147931
Zn5	Zn	1.746292	-0.357718	-0.368215
Zn6	Zn	2.246292	0.142282	0.131785
Zn7	Zn	1.762360	-0.473085	-0.577898
Zn8	Zn	2.262360	0.026915	-0.077898
O9	O	1.859184	-0.420495	-0.465005
O10	O	2.359184	0.079505	0.034995
O11	O	2.145543	-0.385276	-0.520535
O12	O	2.645543	0.114724	-0.020535
O13	O	1.914589	-0.481604	-0.178668
O14	O	2.414589	0.018396	0.321332
O15	O	1.776328	-0.253980	-0.393936
O16	O	2.276328	0.246020	0.106064
O17	O	2.133608	-0.482956	-0.366418
O18	O	2.633608	0.017044	0.133582
O19	O	1.942275	-0.255005	-0.536191
O20	O	2.442275	0.244995	-0.036191
O21	O	1.760577	-0.382899	-0.190530
O22	O	2.260577	0.117101	0.309470
O23	O	1.572890	-0.364495	-0.409507
O24	O	2.072890	0.135505	0.090493
O25	O	1.803714	-0.450607	-0.751311
O26	O	2.303714	0.049393	-0.251311
O27	O	1.584695	-0.449255	-0.563561
O28	O	2.084695	0.050745	-0.063561
O29	O	1.957856	-0.366872	-0.739512
O30	O	2.457856	0.133128	-0.239512
O31	O	1.930170	-0.593471	-0.381989
O32	O	2.430170	-0.093471	0.118011
O33	O	1.787963	-0.579526	-0.547905
O34	O	2.287963	-0.079526	-0.047905
C35	C	1.533279	-0.404664	-0.490030
C36	C	2.033279	0.095336	0.009970
C37	C	1.393857	-0.397908	-0.500765
C38	C	1.893857	0.102092	-0.000765
C39	C	1.859084	-0.613445	-0.464963
C40	C	2.359084	-0.113445	0.035037
C41	C	1.859159	-0.695993	-0.464978
C42	C	2.359159	-0.195993	0.035022
C43	C	1.936674	-0.903004	-0.374856
C44	C	2.436674	-0.403004	0.125144
C45	C	1.976108	-0.949040	-0.486992
C46	C	2.476108	-0.449040	0.013008
C47	C	1.859234	-0.847125	-0.465022
C48	C	2.359234	-0.347125	0.034978
C49	C	1.819932	-0.948175	-0.352928
C50	C	2.319932	-0.448175	0.147072
C51	C	1.859308	-0.993112	-0.465055
C52	C	2.359308	-0.493112	0.034945
C53	C	1.898731	-0.892074	-0.577214
C54	C	2.398731	-0.392074	-0.077214
C55	C	1.742495	-0.891205	-0.443076
C56	C	2.242495	-0.391205	0.056924
C57	C	1.781892	-0.937214	-0.555295
C58	C	2.281892	-0.437214	-0.055295
C59	C	1.859194	-0.763026	-0.465001
C60	C	2.359194	-0.263026	0.034999
C61	C	1.859348	-1.077209	-0.465089
C62	C	2.359348	-0.577209	0.034911
C63	C	2.186362	-0.436389	-0.439884
C64	C	2.686362	0.063611	0.060116
C65	C	2.325786	-0.443162	-0.429179
C66	C	2.825786	0.056838	0.070821
C67	C	1.884389	-0.406778	-0.792201
C68	C	2.384389	0.093222	-0.292201
C69	C	1.895130	-0.400932	-0.931632
C70	C	2.395130	0.099068	-0.431632
C71	C	1.859321	-0.226793	-0.465073
C72	C	2.359321	0.273207	0.034927
C73	C	1.859379	-0.144248	-0.465102
C74	C	2.359379	0.355752	0.034898
C75	C	1.834149	-0.434110	-0.139077
C76	C	2.334149	0.065890	0.360923
C77	C	1.823651	-0.439758	0.000372
C78	C	2.323651	0.060242	0.500372
H79	H	1.345475	-0.353997	-0.570273
H80	H	1.845475	0.146003	-0.070273
H81	H	1.374175	-0.487082	-0.359677
H82	H	1.874175	0.012918	0.140323
H83	H	1.931913	-0.867624	-0.672114
H84	H	2.431913	-0.367624	-0.172114
O85	O	2.015011	-0.884817	-0.284103
O86	O	2.515011	-0.384817	0.215897
C87	C	2.138036	-0.914425	-0.307729
C88	C	2.638036	-0.414425	0.192271
H89	H	2.148341	-0.924002	-0.411611
H90	H	2.648341	-0.424002	0.088389
H91	H	2.207982	-0.873581	-0.281359
H92	H	2.707982	-0.373581	0.218641
H93	H	2.157269	-0.969630	-0.249324
H94	H	2.657269	-0.469630	0.250676
H95	H	2.074864	-0.974304	-0.505577
H96	H	2.574864	-0.474304	-0.005577
H97	H	1.716441	-0.952342	-0.631641
H98	H	2.216441	-0.452342	-0.131641
H99	H	1.643764	-0.865928	-0.424455
H100	H	2.143764	-0.365928	0.075545
H101	H	1.786660	-0.972709	-0.258118
H102	H	2.286660	-0.472709	0.241882
O103	O	1.741003	-0.484801	-0.941677
O104	O	2.241003	0.015199	-0.441677
C105	C	1.806624	-0.539386	-0.860407
C106	C	2.306624	-0.039386	-0.360407
H107	H	1.900219	-0.518619	-0.833622
H108	H	2.400219	-0.018619	-0.333622
H109	H	1.748510	-0.550676	-0.772131
H110	H	2.248510	-0.050676	-0.272131
H111	H	1.824204	-0.593002	-0.909751
H112	H	2.324204	-0.093002	-0.409751
O113	O	1.977773	-0.355845	-0.989501
O114	O	2.477773	0.144155	-0.489501
C115	C	1.912165	-0.301282	-1.070820
C116	C	2.412165	0.198718	-0.570820
H117	H	1.810359	-0.293538	-1.038848
H118	H	2.310359	0.206462	-0.538848
H119	H	1.957691	-0.246265	-1.068966
H120	H	2.457691	0.253735	-0.568966
H121	H	1.915391	-0.319919	-1.170401
H122	H	2.415391	0.180081	-0.670401
