data_functionalizedCrystal
_audit_creation_method	'MofGen! by Chris Wilmer'
_symmetry_space_group_name_H-M	'P1'
_symmetry_Int_Tables_number	1
_symmetry_cell_setting	triclinic
loop_
_symmetry_equiv_pos_as_xyz
  x,y,z
_cell_length_a	10.686220
_cell_length_b	16.625546
_cell_length_c	16.625539
_cell_angle_alpha	89.969603
_cell_angle_beta	94.350309
_cell_angle_gamma	94.404440
loop_
_atom_site_label
_atom_site_type_symbol
_atom_site_fract_x
_atom_site_fract_y
_atom_site_fract_z
Zn1	Zn	1.929061	-0.226312	-0.361452
Zn2	Zn	2.429061	0.273688	0.138548
Zn3	Zn	1.928909	-0.361163	-0.226622
Zn4	Zn	2.428909	0.138837	0.273378
Zn5	Zn	1.718048	-0.236698	-0.236964
Zn6	Zn	2.218048	0.263302	0.263036
Zn7	Zn	1.718002	-0.371466	-0.371737
Zn8	Zn	2.218002	0.128534	0.128263
O9	O	1.823505	-0.298910	-0.299194
O10	O	2.323505	0.201090	0.200806
O11	O	2.105616	-0.235542	-0.334934
O12	O	2.605616	0.264458	0.165066
O13	O	1.900894	-0.344687	-0.115163
O14	O	2.400894	0.155313	0.384837
O15	O	1.746122	-0.122484	-0.253501
O16	O	2.246122	0.377516	0.246499
O17	O	2.105504	-0.334616	-0.235875
O18	O	2.605504	0.165384	0.264125
O19	O	1.901152	-0.114854	-0.344962
O20	O	2.401152	0.385146	0.155038
O21	O	1.745975	-0.253243	-0.122761
O22	O	2.245975	0.246757	0.377239
O23	O	1.541467	-0.263234	-0.263474
O24	O	2.041467	0.236766	0.236526
O25	O	1.746043	-0.352177	-0.483203
O26	O	2.246043	0.147823	0.016797
O27	O	1.541433	-0.362248	-0.362492
O28	O	2.041433	0.137752	0.137508
O29	O	1.901107	-0.245533	-0.475647
O30	O	2.401107	0.254467	0.024353
O31	O	1.900849	-0.475366	-0.245848
O32	O	2.400849	0.024634	0.254152
O33	O	1.745896	-0.482936	-0.352464
O34	O	2.245896	0.017064	0.147536
C35	C	1.495666	-0.314986	-0.315222
C36	C	1.995666	0.185014	0.184778
C37	C	1.355415	-0.321883	-0.322098
C38	C	1.855415	0.178117	0.177902
C39	C	1.823386	-0.508407	-0.299166
C40	C	2.323386	-0.008407	0.200834
C41	C	1.823450	-0.598025	-0.299175
C42	C	2.323450	-0.098025	0.200825
C43	C	1.823670	-0.926189	-0.299248
C44	C	2.323670	-0.426189	0.200752
C45	C	1.823605	-0.834884	-0.299230
C46	C	2.323605	-0.334884	0.200770
C47	C	1.823559	-0.762110	-0.299211
C48	C	2.323559	-0.262110	0.200789
C49	C	1.823496	-0.670799	-0.299194
C50	C	2.323496	-0.170799	0.200806
C51	C	2.152624	-0.282771	-0.283103
C52	C	2.652624	0.217229	0.216897
C53	C	2.292875	-0.275894	-0.276247
C54	C	2.792875	0.224106	0.223753
C55	C	1.823587	-0.298846	-0.509499
C56	C	2.323587	0.201154	-0.009499
C57	C	1.823622	-0.298819	-0.599118
C58	C	2.323622	0.201181	-0.099118
C59	C	1.823659	-0.088593	-0.299238
C60	C	2.323659	0.411407	0.200762
C61	C	1.823725	0.001031	-0.299256
C62	C	2.323725	0.501031	0.200744
C63	C	1.823680	-0.298725	-0.927291
C64	C	2.323680	0.201275	-0.427291
C65	C	1.823660	-0.298754	-0.835984
C66	C	2.323660	0.201246	-0.335984
C67	C	1.823652	-0.298773	-0.763207
C68	C	2.323652	0.201227	-0.263207
C69	C	1.823631	-0.298800	-0.671894
C70	C	2.323631	0.201200	-0.171894
C71	C	1.823496	-0.298912	-0.089703
C72	C	2.323496	0.201088	0.410297
C73	C	1.823705	-0.298700	-0.000072
C74	C	2.323705	0.201300	0.499928
H75	H	1.301656	-0.366541	-0.366612
H76	H	1.801656	0.133459	0.133388
C77	C	1.365482	-0.215569	-0.216113
C78	C	1.865482	0.284431	0.283887
H79	H	1.453383	-0.218685	-0.219230
H80	H	1.953383	0.281315	0.280770
H81	H	1.343905	-0.228346	-0.162961
H82	H	1.843905	0.271654	0.337039
H83	H	1.343972	-0.162453	-0.229060
H84	H	1.843972	0.337547	0.270940
