data_functionalizedCrystal
_audit_creation_method	'MofGen! by Chris Wilmer'
_symmetry_space_group_name_H-M	'P1'
_symmetry_Int_Tables_number	1
_symmetry_cell_setting	triclinic
loop_
_symmetry_equiv_pos_as_xyz
  x,y,z
_cell_length_a	10.654558
_cell_length_b	15.625429
_cell_length_c	9.730223
_cell_angle_alpha	71.921515
_cell_angle_beta	90.000400
_cell_angle_gamma	84.354155
loop_
_atom_site_label
_atom_site_type_symbol
_atom_site_fract_x
_atom_site_fract_y
_atom_site_fract_z
O1	O	1.666506	0.126654	-0.177382
O2	O	1.300903	0.138710	-0.183396
O3	O	1.493477	0.001509	-0.115017
O4	O	1.473933	0.263856	-0.245762
O5	O	1.493474	0.001512	0.113561
O6	O	1.300901	0.138714	0.045182
O7	O	1.666504	0.126658	0.051196
Zn8	Zn	1.483702	0.132686	0.084481
Zn9	Zn	1.483705	0.132682	-0.216681
O10	O	1.473931	0.263859	-0.017184
C11	C	1.254114	0.137825	-0.068666
C12	C	1.114699	0.135172	-0.067347
C13	C	0.918200	0.131441	-0.190086
C14	C	1.049197	0.133925	-0.191326
C15	C	1.049199	0.133924	0.057885
C16	C	0.918205	0.131433	0.059126
C17	C	0.852704	0.130203	-0.314078
C18	C	0.918195	0.131449	-0.439310
C19	C	1.049192	0.133934	-0.440549
C20	C	1.114697	0.135173	-0.316558
C21	C	1.492592	-0.032082	0.016011
C22	C	1.489944	-0.132177	0.065886
C23	C	1.481208	-0.461388	-0.393020
C24	C	1.478714	-0.555442	-0.346113
C25	C	1.478712	-0.555425	-0.096933
C26	C	1.481212	-0.461369	-0.143819
C27	C	1.482458	-0.414358	-0.291865
C28	C	1.482462	-0.414340	-0.042664
C29	C	1.484955	-0.320292	-0.089548
C30	C	1.486197	-0.273274	-0.237587
C31	C	1.484951	-0.320311	-0.338749
C32	C	1.481207	-0.461351	0.105381
C33	C	1.482457	-0.414322	0.206536
C34	C	1.484959	-0.320273	0.159653
C35	C	1.486201	-0.273255	0.011614
C36	C	1.486206	-0.273236	0.260815
C37	C	1.488698	-0.179188	0.213931
C38	C	1.488694	-0.179207	-0.035270
C39	C	1.713294	0.127543	-0.063537
C40	C	1.852709	0.130196	-0.064866
C41	C	1.474816	0.297450	-0.148214
C42	C	1.477463	0.397545	-0.198098
N43	N	1.483709	0.132689	0.290016
N44	N	1.483708	0.132672	-0.422213
C45	C	1.569003	0.071957	0.392210
C46	C	1.568999	0.071946	0.536098
C47	C	1.398406	0.193407	0.475582
C48	C	1.398404	0.193413	0.331698
C49	C	1.654308	0.011233	0.350527
C50	C	1.739609	-0.049504	0.452724
C51	C	1.739606	-0.049515	0.596612
C52	C	1.654302	0.011211	0.638304
H53	H	1.102513	0.134940	-0.542514
H54	H	1.489690	-0.140893	0.296301
F55	F	1.830381	-0.114135	0.408353
F56	F	1.307621	0.258050	0.222934
H57	H	1.654298	0.011191	0.755473
H58	H	1.221365	0.137191	-0.317575
F59	F	1.482551	-0.411352	-0.550588
H60	H	1.654321	0.011238	0.233368
H61	H	1.328956	0.242848	0.509537
F62	F	1.481121	-0.464363	0.364092
H63	H	1.102543	0.134935	0.158832
H64	H	0.864853	0.130434	-0.540256
F65	F	1.830378	-0.114160	0.705378
F66	F	1.484858	-0.323278	0.418370
F67	F	0.848502	0.130098	0.192406
H68	H	1.488213	-0.196693	-0.275758
F69	F	0.713285	0.127563	-0.312771
H70	H	1.489720	-0.140929	-0.155823
F71	F	1.486294	-0.270274	-0.496316
H72	H	1.477685	-0.593730	-0.428498
F73	F	1.477376	-0.605466	0.060623
H74	H	1.479163	-0.537930	0.143548
