data_functionalizedCrystal
_audit_creation_method	'MofGen! by Chris Wilmer'
_symmetry_space_group_name_H-M	'P1'
_symmetry_Int_Tables_number	1
_symmetry_cell_setting	triclinic
loop_
_symmetry_equiv_pos_as_xyz
  x,y,z
_cell_length_a	16.109302
_cell_length_b	16.109304
_cell_length_c	15.186229
_cell_angle_alpha	89.999066
_cell_angle_beta	89.994701
_cell_angle_gamma	83.462209
loop_
_atom_site_label
_atom_site_type_symbol
_atom_site_fract_x
_atom_site_fract_y
_atom_site_fract_z
O1	O	1.103131	0.106869	-0.073263
O2	O	1.353131	0.356869	0.176737
O3	O	1.603131	0.606869	0.426737
O4	O	1.853131	0.856869	0.676737
O5	O	0.861070	0.120167	-0.073255
O6	O	1.111070	0.370167	0.176745
O7	O	1.361070	0.620167	0.426745
O8	O	1.611070	0.870167	0.676745
O9	O	0.988749	-0.007513	-0.073259
O10	O	1.238749	0.242487	0.176741
O11	O	1.488749	0.492487	0.426741
O12	O	1.738749	0.742487	0.676741
O13	O	0.975452	0.234549	-0.073258
O14	O	1.225452	0.484549	0.176742
O15	O	1.475452	0.734549	0.426742
O16	O	1.725452	0.984549	0.676742
O17	O	0.988740	-0.007514	0.073198
O18	O	1.238740	0.242486	0.323198
O19	O	1.488740	0.492486	0.573198
O20	O	1.738740	0.742486	0.823198
O21	O	0.861061	0.120166	0.073202
O22	O	1.111061	0.370166	0.323202
O23	O	1.361061	0.620166	0.573202
O24	O	1.611061	0.870166	0.823202
O25	O	1.103123	0.106867	0.073195
O26	O	1.353123	0.356867	0.323195
O27	O	1.603123	0.606867	0.573195
O28	O	1.853123	0.856867	0.823195
Zn29	Zn	0.982091	0.113516	0.096452
Zn30	Zn	1.232091	0.363516	0.346452
Zn31	Zn	1.482091	0.613516	0.596452
Zn32	Zn	1.732091	0.863516	0.846452
Zn33	Zn	0.982102	0.113518	-0.096512
Zn34	Zn	1.232102	0.363518	0.153488
Zn35	Zn	1.482102	0.613518	0.403488
Zn36	Zn	1.732102	0.863518	0.653488
O37	O	0.975444	0.234547	0.073199
O38	O	1.225444	0.484547	0.323199
O39	O	1.475444	0.734547	0.573199
O40	O	1.725444	0.984547	0.823199
C41	C	0.830090	0.119628	-0.000025
C42	C	1.080090	0.369628	0.249975
C43	C	1.330090	0.619628	0.499975
C44	C	1.580090	0.869628	0.749975
C45	C	0.737795	0.118012	-0.000023
C46	C	0.987795	0.368012	0.249977
C47	C	1.237795	0.618012	0.499977
C48	C	1.487795	0.868012	0.749977
C49	C	0.525450	0.114276	0.079802
C50	C	0.775450	0.364276	0.329802
C51	C	1.025450	0.614276	0.579802
C52	C	1.275450	0.864276	0.829802
C53	C	0.438729	0.112750	0.079799
C54	C	0.688729	0.362750	0.329799
C55	C	0.938729	0.612750	0.579799
C56	C	1.188729	0.862750	0.829799
C57	C	0.438749	0.112756	-0.079876
C58	C	0.688749	0.362756	0.170124
C59	C	0.938749	0.612756	0.420124
C60	C	1.188749	0.862756	0.670124
C61	C	0.525468	0.114277	-0.079872
C62	C	0.775468	0.364277	0.170128
C63	C	1.025468	0.614277	0.420128
C64	C	1.275468	0.864277	0.670128
C65	C	0.568816	0.115041	-0.000030
C66	C	0.818816	0.365041	0.249970
C67	C	1.068816	0.615041	0.499970
C68	C	1.318816	0.865041	0.749970
C69	C	0.395377	0.111994	-0.000038
C70	C	0.645377	0.361994	0.249962
C71	C	0.895377	0.611994	0.499962
C72	C	1.145377	0.861994	0.749962
C73	C	0.301351	0.110338	-0.000041
C74	C	0.551351	0.360338	0.249959
C75	C	0.801351	0.610338	0.499959
C76	C	1.051351	0.860338	0.749959
C77	C	0.662848	0.116695	-0.000026
C78	C	0.912848	0.366695	0.249974
C79	C	1.162848	0.616695	0.499974
C80	C	1.412848	0.866695	0.749974
C81	C	0.988206	-0.038488	-0.000033
C82	C	1.238206	0.211512	0.249967
C83	C	1.488206	0.461512	0.499967
C84	C	1.738206	0.711512	0.749967
C85	C	0.986590	-0.130784	-0.000039
C86	C	1.236590	0.119216	0.249961
C87	C	1.486590	0.369216	0.499961
C88	C	1.736590	0.619216	0.749961
C89	C	0.982861	-0.343120	-0.079869
C90	C	1.232861	-0.093120	0.170131
C91	C	1.482861	0.156880	0.420131
C92	C	1.732861	0.406880	0.670131
C93	C	0.981334	-0.429840	-0.079868
C94	C	1.231334	-0.179840	0.170132
C95	C	1.481334	0.070160	0.420132
C96	C	1.731334	0.320160	0.670132
C97	C	0.981329	-0.429839	0.079807
C98	C	1.231329	-0.179839	0.329807
C99	C	1.481329	0.070161	0.579807
C100	C	1.731329	0.320161	0.829807
C101	C	0.982849	-0.343120	0.079806
C102	C	1.232849	-0.093120	0.329806
C103	C	1.482849	0.156880	0.579806
C104	C	1.732849	0.406880	0.829806
C105	C	0.983619	-0.299763	-0.000035
C106	C	1.233619	-0.049763	0.249965
C107	C	1.483619	0.200237	0.499965
C108	C	1.733619	0.450237	0.749965
C109	C	0.980573	-0.473202	-0.000033
C110	C	1.230573	-0.223202	0.249967
C111	C	1.480573	0.026798	0.499967
C112	C	1.730573	0.276798	0.749967
C113	C	0.978918	-0.567228	-0.000031
C114	C	1.228918	-0.317228	0.249969
C115	C	1.478918	-0.067228	0.499969
C116	C	1.728918	0.182772	0.749969
C117	C	0.985272	-0.205731	-0.000037
C118	C	1.235272	0.044269	0.249963
C119	C	1.485272	0.294269	0.499963
C120	C	1.735272	0.544269	0.749963
C121	C	1.134102	0.107407	-0.000037
C122	C	1.384102	0.357407	0.249963
C123	C	1.634102	0.607407	0.499963
C124	C	1.884102	0.857407	0.749963
C125	C	1.226397	0.109022	-0.000045
C126	C	1.476397	0.359022	0.249955
C127	C	1.726397	0.609022	0.499955
C128	C	1.976397	0.859022	0.749955
C129	C	0.975987	0.265523	-0.000029
C130	C	1.225987	0.515523	0.249971
C131	C	1.475987	0.765523	0.499971
C132	C	1.725987	1.015523	0.749971
C133	C	0.977603	0.357818	-0.000029
C134	C	1.227603	0.607818	0.249971
C135	C	1.477603	0.857818	0.499971
C136	C	1.727603	1.107818	0.749971
N137	N	0.982089	0.113514	0.228144
N138	N	1.232089	0.363514	0.478144
N139	N	1.482089	0.613514	0.728144
N140	N	1.732089	0.863514	0.978144
N141	N	0.982110	0.113514	-0.228205
N142	N	1.232110	0.363514	0.021795
N143	N	1.482110	0.613514	0.271795
N144	N	1.732110	0.863514	0.521795
C145	C	1.038645	0.056996	0.453865
C146	C	1.288645	0.306996	0.703865
C147	C	1.538645	0.556996	0.953865
C148	C	1.788645	0.806996	1.203865
C149	C	1.038647	0.056994	0.546055
C150	C	1.288647	0.306994	0.796055
C151	C	1.538647	0.556994	1.046055
C152	C	1.788647	0.806994	1.296055
C153	C	0.925548	0.170034	0.546068
C154	C	1.175548	0.420034	0.796068
C155	C	1.425548	0.670034	1.046068
C156	C	1.675548	0.920034	1.296068
C157	C	0.925542	0.170032	0.453880
C158	C	1.175542	0.420032	0.703880
C159	C	1.425542	0.670032	0.953880
C160	C	1.675542	0.920032	1.203880
C161	C	0.982095	0.113514	0.407781
C162	C	1.232095	0.363514	0.657781
C163	C	1.482095	0.613514	0.907781
C164	C	1.732095	0.863514	1.157781
C165	C	0.982104	0.113514	0.592159
C166	C	1.232104	0.363514	0.842159
C167	C	1.482104	0.613514	1.092159
C168	C	1.732104	0.863514	1.342159
C169	C	0.982106	0.113513	0.692115
C170	C	1.232106	0.363513	0.942115
C171	C	1.482106	0.613513	1.192115
C172	C	1.732106	0.863513	1.442115
C173	C	0.982092	0.113514	0.307819
C174	C	1.232092	0.363514	0.557819
C175	C	1.482092	0.613514	0.807819
C176	C	1.732092	0.863514	1.057819
H177	H	0.403445	0.112134	-0.144881
H178	H	0.653445	0.362134	0.105119
H179	H	0.903445	0.612134	0.355119
H180	H	1.153445	0.862134	0.605119
H181	H	0.560779	0.114897	-0.144886
H182	H	0.810779	0.364897	0.105114
H183	H	1.060779	0.614897	0.355114
H184	H	1.310779	0.864897	0.605114
C185	C	0.980486	-0.477540	0.167628
C186	C	1.230486	-0.227540	0.417628
C187	C	1.480486	0.022460	0.667628
C188	C	1.730486	0.272460	0.917628
N189	N	0.979852	-0.513468	0.233776
N190	N	1.229852	-0.263468	0.483776
N191	N	1.479852	-0.013468	0.733776
N192	N	1.729852	0.236532	0.983776
C193	C	0.863342	0.232199	0.596785
C194	C	1.113342	0.482199	0.846785
C195	C	1.363342	0.732199	1.096785
C196	C	1.613342	0.982199	1.346785
N197	N	0.816487	0.279023	0.634985
N198	N	1.066487	0.529023	0.884985
N199	N	1.316487	0.779023	1.134985
N200	N	1.566487	1.029023	1.384985
H201	H	0.560740	0.114899	0.144815
H202	H	0.810740	0.364899	0.394815
H203	H	1.060740	0.614899	0.644815
H204	H	1.310740	0.864899	0.894815
C205	C	1.100848	-0.005182	0.403160
C206	C	1.350848	0.244818	0.653160
C207	C	1.600848	0.494818	0.903160
C208	C	1.850848	0.744818	1.153160
N209	N	1.147698	-0.052019	0.364971
N210	N	1.397698	0.197981	0.614971
N211	N	1.647698	0.447981	0.864971
N212	N	1.897698	0.697981	1.114971
H213	H	0.980715	-0.465137	-0.144877
H214	H	1.230715	-0.215137	0.105123
H215	H	1.480715	0.034863	0.355123
H216	H	1.730715	0.284863	0.605123
H217	H	0.983485	-0.307821	-0.144881
H218	H	1.233485	-0.057821	0.105119
H219	H	1.483485	0.192179	0.355119
H220	H	1.733485	0.442179	0.605119
C221	C	0.983683	-0.295424	0.167634
C222	C	1.233683	-0.045424	0.417634
C223	C	1.483683	0.204576	0.667634
C224	C	1.733683	0.454576	0.917634
N225	N	0.984309	-0.259500	0.233783
N226	N	1.234309	-0.009500	0.483783
N227	N	1.484309	0.240500	0.733783
N228	N	1.734309	0.490500	0.983783
C229	C	1.100850	-0.005186	0.596743
C230	C	1.350850	0.244814	0.846743
C231	C	1.600850	0.494814	1.096743
C232	C	1.850850	0.744814	1.346743
N233	N	1.147700	-0.052026	0.634921
N234	N	1.397700	0.197974	0.884921
N235	N	1.647700	0.447974	1.134921
N236	N	1.897700	0.697974	1.384921
H237	H	0.403424	0.112127	0.144807
H238	H	0.653424	0.362127	0.394807
H239	H	0.903424	0.612127	0.644807
H240	H	1.153424	0.862127	0.894807
C241	C	0.863368	0.232246	0.403184
C242	C	1.113368	0.482246	0.653184
C243	C	1.363368	0.732246	0.903184
C244	C	1.613368	0.982246	1.153184
N245	N	0.816553	0.279117	0.365000
N246	N	1.066553	0.529117	0.615000
N247	N	1.316553	0.779117	0.865000
N248	N	1.566553	1.029117	1.115000
