data_functionalizedCrystal
_audit_creation_method	'MofGen! by Chris Wilmer'
_symmetry_space_group_name_H-M	'P1'
_symmetry_Int_Tables_number	1
_symmetry_cell_setting	triclinic
loop_
_symmetry_equiv_pos_as_xyz
  x,y,z
_cell_length_a	16.120444
_cell_length_b	11.169417
_cell_length_c	11.169409
_cell_angle_alpha	89.980176
_cell_angle_beta	92.861473
_cell_angle_gamma	92.927304
loop_
_atom_site_label
_atom_site_type_symbol
_atom_site_fract_x
_atom_site_fract_y
_atom_site_fract_z
Zn1	Zn	-0.331820	1.810607	-0.702711
Zn2	Zn	0.001514	2.143940	-0.369378
Zn3	Zn	0.334847	2.477274	-0.036045
Zn4	Zn	-0.471263	1.800261	-0.512185
Zn5	Zn	-0.137930	2.133595	-0.178852
Zn6	Zn	0.195404	2.466928	0.154482
Zn7	Zn	-0.331870	1.609889	-0.502050
Zn8	Zn	0.001463	1.943223	-0.168716
Zn9	Zn	0.334796	2.276556	0.164617
Zn10	Zn	-0.471195	1.599670	-0.712825
Zn11	Zn	-0.137862	1.933004	-0.379492
Zn12	Zn	0.195471	2.266337	-0.046158
O13	O	-0.401537	1.705107	-0.607443
O14	O	-0.068204	2.038440	-0.274109
O15	O	0.265130	2.371774	0.059224
O16	O	-0.350324	1.977184	-0.677447
O17	O	-0.016991	2.310517	-0.344114
O18	O	0.316342	2.643851	-0.010780
O19	O	-0.452822	1.774955	-0.342894
O20	O	-0.119489	2.108288	-0.009561
O21	O	0.213845	2.441622	0.323772
O22	O	-0.215198	1.645121	-0.520194
O23	O	0.118135	1.978455	-0.186860
O24	O	0.451469	2.311788	0.146473
O25	O	-0.452773	1.969583	-0.537468
O26	O	-0.119439	2.302916	-0.204135
O27	O	0.213894	2.636250	0.129199
O28	O	-0.215161	1.792588	-0.667619
O29	O	0.118173	2.125921	-0.334286
O30	O	0.451506	2.459254	-0.000952
O31	O	-0.350411	1.635089	-0.335448
O32	O	-0.017078	1.968423	-0.002115
O33	O	0.316256	2.301756	0.331219
O34	O	-0.350345	1.440585	-0.530000
O35	O	-0.017012	1.773918	-0.196667
O36	O	0.316322	2.107251	0.136667
O37	O	-0.452657	1.627705	-0.879430
O38	O	-0.119324	1.961038	-0.546096
O39	O	0.214010	2.294371	-0.212763
O40	O	-0.452706	1.433077	-0.684856
O41	O	-0.119373	1.766410	-0.351523
O42	O	0.213960	2.099744	-0.018189
O43	O	-0.350258	1.782679	-0.871999
O44	O	-0.016925	2.116012	-0.538666
O45	O	0.316408	2.449346	-0.205333
O46	O	-0.587920	1.765046	-0.547275
O47	O	-0.254586	2.098380	-0.213941
O48	O	0.078747	2.431713	0.119392
O49	O	-0.587870	1.617673	-0.694684
O50	O	-0.254536	1.951006	-0.361351
O51	O	0.078797	2.284340	-0.028017
C52	C	-0.401524	1.393283	-0.607426
C53	C	-0.068191	1.726617	-0.274093
C54	C	0.265142	2.059950	0.059240
C55	C	-0.401539	1.259882	-0.607449
C56	C	-0.068206	1.593216	-0.274116
C57	C	0.265128	1.926549	0.059217
C58	C	-0.618145	1.689161	-0.623203
C59	C	-0.284811	2.022494	-0.289869
C60	C	0.048522	2.355827	0.043464
C61	C	-0.710810	1.682449	-0.629985
C62	C	-0.377477	2.015782	-0.296652
C63	C	-0.044144	2.349115	0.036682
C64	C	-0.921757	1.740220	-0.572517
C65	C	-0.588423	2.073554	-0.239184
C66	C	-0.255090	2.406887	0.094149
C67	C	-0.880466	1.670216	-0.642380
C68	C	-0.547133	2.003550	-0.309047
C69	C	-0.213800	2.336883	0.024286
C70	C	-0.786061	1.677024	-0.635482
C71	C	-0.452728	2.010358	-0.302148
C72	C	-0.119394	2.343691	0.031185
C73	C	-1.016170	1.733414	-0.579415
C74	C	-0.682837	2.066747	-0.246081
C75	C	-0.349504	2.400080	0.087252
C76	C	-0.184084	1.721148	-0.591648
C77	C	0.149250	2.054482	-0.258314
C78	C	0.482583	2.387815	0.075019
C79	C	-0.091418	1.727984	-0.584917
C80	C	0.241915	2.061318	-0.251583
C81	C	0.575249	2.394651	0.081750
C82	C	-0.401445	1.705206	-0.920479
C83	C	-0.068111	2.038539	-0.587145
C84	C	0.265222	2.371873	-0.253812
C85	C	-0.401405	1.705248	-1.053876
C86	C	-0.068072	2.038582	-0.720543
C87	C	0.265262	2.371915	-0.387209
C88	C	-0.401550	2.018148	-0.607460
C89	C	-0.068217	2.351482	-0.274127
C90	C	0.265116	2.684815	0.059207
C91	C	-0.401556	2.151548	-0.607467
C92	C	-0.068223	2.484881	-0.274134
C93	C	0.265111	2.818215	0.059199
C94	C	-0.401569	1.705082	-0.295620
C95	C	-0.068236	2.038415	0.037713
C96	C	0.265097	2.371749	0.371046
C97	C	-0.401374	1.705290	-0.162207
C98	C	-0.068040	2.038623	0.171127
C99	C	0.265293	2.371956	0.504460
H100	H	-0.916017	1.605170	-0.707373
H101	H	-0.582684	1.938504	-0.374040
H102	H	-0.249351	2.271837	-0.040706
O103	O	-0.879224	1.817705	-0.495007
O104	O	-0.545891	2.151038	-0.161674
O105	O	-0.212557	2.484372	0.171660
C106	C	-0.793069	1.807341	-0.505304
C107	C	-0.459736	2.140674	-0.171971
C108	C	-0.126403	2.474007	0.161362
H109	H	-0.781326	1.715532	-0.543702
H110	H	-0.447993	2.048865	-0.210368
H111	H	-0.114659	2.382198	0.122965
H112	H	-0.759948	1.817854	-0.413041
H113	H	-0.426614	2.151187	-0.079707
H114	H	-0.093281	2.484521	0.253626
H115	H	-0.768267	1.880254	-0.567495
H116	H	-0.434934	2.213587	-0.234162
H117	H	-0.101600	2.546921	0.099172
