data_functionalizedCrystal
_audit_creation_method	'MofGen! by Chris Wilmer'
_symmetry_space_group_name_H-M	'P1'
_symmetry_Int_Tables_number	1
_symmetry_cell_setting	triclinic
loop_
_symmetry_equiv_pos_as_xyz
  x,y,z
_cell_length_a	10.723023
_cell_length_b	10.967829
_cell_length_c	9.198806
_cell_angle_alpha	77.868939
_cell_angle_beta	89.996513
_cell_angle_gamma	84.591615
loop_
_atom_site_label
_atom_site_type_symbol
_atom_site_fract_x
_atom_site_fract_y
_atom_site_fract_z
O1	O	1.657191	0.175021	-0.164720
O2	O	1.294038	0.191776	-0.168923
O3	O	1.483989	0.001821	-0.121327
O4	O	1.467240	0.364977	-0.212316
O5	O	1.483974	0.001820	0.120458
O6	O	1.294023	0.191775	0.072862
O7	O	1.657175	0.175021	0.077065
Cu8	Cu	1.475598	0.183398	0.097040
Cu9	Cu	1.475616	0.183399	-0.188899
O10	O	1.467225	0.364976	0.029469
C11	C	1.247531	0.190557	-0.047726
C12	C	1.108977	0.186909	-0.046815
C13	C	1.047197	0.185283	0.078844
C14	C	0.903994	0.181513	0.079789
C15	C	1.482761	-0.044680	0.011213
C16	C	1.479112	-0.183235	0.045919
C17	C	1.477493	-0.245001	-0.063861
C18	C	1.473721	-0.388205	-0.027994
C19	C	1.703683	0.176240	-0.044135
C20	C	1.842237	0.179888	-0.045057
C21	C	1.468452	0.411476	-0.103075
C22	C	1.472102	0.550032	-0.137790
N23	N	1.475594	0.183397	0.298155
N24	N	1.475629	0.183390	-0.390010
C25	C	1.555349	0.103289	0.390424
C26	C	1.555369	0.103284	0.557837
H27	H	0.895357	0.181293	-0.152646
H28	H	1.477698	-0.236372	0.166459
Cl29	Cl	1.370184	0.289279	0.367535
Cl30	Cl	1.660469	-0.002882	0.321116
H31	H	1.478894	-0.191862	-0.184402
H32	H	1.472307	-0.441338	0.092555
H33	H	0.850864	0.180121	0.187369
Cl34	Cl	1.660801	-0.002603	0.680219
H35	H	1.473493	-0.396835	-0.258340
Cl36	Cl	1.129208	0.187439	0.243870
H37	H	1.055852	0.185508	-0.153695
H38	H	1.407349	0.251982	0.530726
