data_functionalizedCrystal
_audit_creation_method	'MofGen! by Chris Wilmer'
_symmetry_space_group_name_H-M	'P1'
_symmetry_Int_Tables_number	1
_symmetry_cell_setting	triclinic
loop_
_symmetry_equiv_pos_as_xyz
  x,y,z
_cell_length_a	17.699083
_cell_length_b	19.188930
_cell_length_c	16.176319
_cell_angle_alpha	89.988074
_cell_angle_beta	89.998611
_cell_angle_gamma	83.213899
loop_
_atom_site_label
_atom_site_type_symbol
_atom_site_fract_x
_atom_site_fract_y
_atom_site_fract_z
O1	O	1.003963	0.088294	-0.068640
O2	O	0.783569	0.099782	-0.068668
O3	O	0.900126	-0.007610	-0.068637
O4	O	0.887406	0.195687	-0.068671
O5	O	0.900110	-0.007617	0.068856
O6	O	0.783553	0.099775	0.068825
O7	O	1.003947	0.088288	0.068853
Cu8	Cu	0.893748	0.094031	0.081393
Cu9	Cu	0.893767	0.094039	-0.081208
O10	O	0.887390	0.195680	0.068822
C11	C	0.755365	0.099367	0.000075
C12	C	0.671348	0.098132	0.000065
C13	C	0.622644	0.161169	0.000055
C14	C	0.543702	0.160004	0.000065
C15	C	0.513466	0.095802	0.000081
C16	C	0.562176	0.032761	0.000093
C17	C	0.641117	0.033926	0.000088
C18	C	0.243819	0.028060	0.000115
C19	C	0.164873	0.026900	0.000117
C20	C	0.146405	0.154139	0.000092
C21	C	0.225345	0.155304	0.000087
C22	C	0.274049	0.092263	0.000104
C23	C	0.359646	0.093526	0.000094
C24	C	0.427870	0.094538	0.000085
C25	C	0.899706	-0.033625	0.000112
C26	C	0.898469	-0.111131	0.000119
C27	C	0.966861	-0.155978	0.000131
C28	C	0.965699	-0.228804	0.000118
C29	C	0.896142	-0.256778	0.000108
C30	C	0.827741	-0.211921	0.000091
C31	C	0.828905	-0.139098	0.000096
N32	N	0.842968	-0.364845	0.046893
N33	N	0.841868	-0.434025	0.046890
C34	C	0.892632	-0.476191	0.000091
N35	N	0.944550	-0.446565	-0.046694
N36	N	0.945653	-0.377379	-0.046687
C37	C	0.894873	-0.335742	0.000102
C38	C	0.959769	-0.600004	0.000088
C39	C	0.958604	-0.672830	0.000070
C40	C	0.820644	-0.655946	0.000051
C41	C	0.821811	-0.583121	0.000061
C42	C	0.891375	-0.555155	0.000084
C43	C	1.032151	0.088703	0.000108
C44	C	1.116167	0.089938	0.000113
C45	C	0.887810	0.221695	0.000071
C46	C	0.889046	0.299201	0.000059
N47	N	0.893741	0.094025	0.195758
N48	N	0.893781	0.094039	-0.195574
C49	C	0.945367	0.046491	0.239036
C50	C	0.945371	0.046490	0.325584
C51	C	0.893751	0.094027	0.368851
C52	C	0.842119	0.141563	0.325567
C53	C	0.842112	0.141560	0.239022
C54	C	0.842145	0.141576	0.674595
C55	C	0.842157	0.141577	0.761147
C56	C	0.945404	0.046506	0.761157
C57	C	0.945397	0.046503	0.674612
C58	C	0.893763	0.094036	0.631335
C59	C	0.893758	0.094036	0.537491
C60	C	0.893759	0.094031	0.462694
H61	H	0.106741	0.205470	0.000082
H62	H	1.023506	-0.133213	0.000147
H63	H	0.771107	-0.234702	0.000081
H64	H	0.773210	-0.102582	0.000086
H65	H	1.016412	-0.577233	0.000103
N66	N	1.001096	-0.004764	0.807837
H67	H	0.972288	-0.035650	0.843756
H68	H	1.033784	-0.034827	0.767241
N69	N	1.032373	-0.721205	0.000080
H70	H	1.076615	-0.692435	0.000098
H71	H	1.034882	-0.751800	0.051048
H72	H	0.766119	-0.546605	0.000056
N73	N	0.296343	-0.039931	0.000139
H74	H	0.265208	-0.080777	0.000148
H75	H	0.329502	-0.042223	-0.050830
N76	N	0.257948	0.224555	0.000073
H77	H	0.290290	0.227871	0.051039
H78	H	0.290249	0.227838	-0.050932
N79	N	0.693651	-0.034064	0.000106
H80	H	0.662520	-0.074913	0.000116
H81	H	0.726808	-0.036352	-0.050864
H82	H	0.987405	0.007784	0.203814
N83	N	0.529569	-0.036488	0.000123
H84	H	0.472170	-0.027662	0.000124
H85	H	0.547399	-0.064069	-0.050840
H86	H	0.764009	-0.678722	0.000039
N87	N	1.001080	-0.004755	0.372263
H88	H	1.033792	-0.034858	0.331721
H89	H	1.034436	0.021968	0.408143
N90	N	0.132258	-0.042350	0.000135
H91	H	0.175090	-0.082110	0.000147
H92	H	0.099906	-0.045600	0.051106
H93	H	0.987433	0.007796	0.639386
H94	H	1.021394	-0.265325	0.000125
N95	N	0.786475	0.192847	0.807817
H96	H	0.753760	0.222957	0.767270
H97	H	0.753118	0.166148	0.843738
H98	H	0.800104	0.180281	0.639366
H99	H	0.800071	0.180266	0.203785
N100	N	0.655245	0.230420	0.000039
H101	H	0.687588	0.233738	0.051004
H102	H	0.687545	0.233703	-0.050967
N103	N	0.491171	0.227994	0.000148
H104	H	0.522304	0.268842	0.000163
H105	H	0.457970	0.230336	-0.050789
N106	N	0.786437	0.192832	0.372229
H107	H	0.794275	0.185623	0.433623
H108	H	0.795009	0.242353	0.357084
