data_functionalizedCrystal
_audit_creation_method	'MofGen! by Chris Wilmer'
_symmetry_space_group_name_H-M	'P1'
_symmetry_Int_Tables_number	1
_symmetry_cell_setting	triclinic
loop_
_symmetry_equiv_pos_as_xyz
  x,y,z
_cell_length_a	21.395364
_cell_length_b	18.215399
_cell_length_c	21.395361
_cell_angle_alpha	90.034621
_cell_angle_beta	89.973528
_cell_angle_gamma	89.983349
loop_
_atom_site_label
_atom_site_type_symbol
_atom_site_fract_x
_atom_site_fract_y
_atom_site_fract_z
Zn1	Zn	0.957810	-0.416091	0.249501
Zn2	Zn	1.291144	-0.082757	0.582834
Zn3	Zn	1.624477	0.250576	0.916168
Zn4	Zn	0.957727	-0.293015	0.354285
Zn5	Zn	1.291061	0.040318	0.687618
Zn6	Zn	1.624394	0.373652	1.020951
Zn7	Zn	0.853040	-0.293038	0.249517
Zn8	Zn	1.186373	0.040295	0.582851
Zn9	Zn	1.519706	0.373628	0.916184
Zn10	Zn	0.852995	-0.416040	0.354237
Zn11	Zn	1.186328	-0.082707	0.687570
Zn12	Zn	1.519661	0.250626	1.020903
O13	O	0.905393	-0.354546	0.301885
O14	O	1.238726	-0.021213	0.635218
O15	O	1.572060	0.312121	0.968552
O16	O	1.045477	-0.399776	0.263414
O17	O	1.378811	-0.066442	0.596747
O18	O	1.712144	0.266891	0.930081
O19	O	0.943824	-0.190034	0.340414
O20	O	1.277158	0.143299	0.673747
O21	O	1.610491	0.476633	1.007081
O22	O	0.866992	-0.309392	0.161837
O23	O	1.200325	0.023941	0.495170
O24	O	1.533658	0.357274	0.828504
O25	O	1.045416	-0.309353	0.340398
O26	O	1.378749	0.023981	0.673731
O27	O	1.712083	0.357314	1.007065
O28	O	0.943966	-0.399798	0.161825
O29	O	1.277299	-0.066465	0.495158
O30	O	1.610633	0.266869	0.828492
O31	O	0.866911	-0.190051	0.263442
O32	O	1.200244	0.143282	0.596775
O33	O	1.533578	0.476616	0.930108
O34	O	0.765356	-0.309344	0.263395
O35	O	1.098689	0.023990	0.596729
O36	O	1.432023	0.357323	0.930062
O37	O	0.866915	-0.519031	0.340317
O38	O	1.200248	-0.185698	0.673650
O39	O	1.533581	0.147635	1.006983
O40	O	0.765323	-0.399713	0.340332
O41	O	1.098656	-0.066379	0.673666
O42	O	1.431989	0.266954	1.006999
O43	O	0.943922	-0.519068	0.263367
O44	O	1.277256	-0.185735	0.596701
O45	O	1.610589	0.147598	0.930034
O46	O	0.943781	-0.309304	0.441956
O47	O	1.277114	0.024029	0.775290
O48	O	1.610447	0.357363	1.108623
O49	O	0.866834	-0.399690	0.441921
O50	O	1.200167	-0.066357	0.775254
O51	O	1.533501	0.266976	1.108588
C52	C	0.742605	-0.354526	0.301861
C53	C	1.075939	-0.021192	0.635194
C54	C	1.409272	0.312141	0.968528
C55	C	0.672964	-0.354534	0.301866
C56	C	1.006297	-0.021201	0.635199
C57	C	1.339631	0.312132	0.968532
C58	C	0.171199	-0.401716	0.261894
C59	C	0.504532	-0.068383	0.595227
C60	C	0.837866	0.264950	0.928560
C61	C	0.236635	-0.401716	0.261889
C62	C	0.569968	-0.068383	0.595222
C63	C	0.903301	0.264950	0.928556
C64	C	0.269326	-0.354563	0.301904
C65	C	0.602659	-0.021229	0.635237
C66	C	0.935992	0.312104	0.968571
C67	C	0.236576	-0.307419	0.341938
C68	C	0.569910	0.025914	0.675271
C69	C	0.903243	0.359248	1.008605
C70	C	0.171142	-0.307426	0.341946
C71	C	0.504475	0.025908	0.675279
C72	C	0.837809	0.359241	1.008613
C73	C	0.372970	-0.288237	0.306769
C74	C	0.706303	0.045096	0.640102
C75	C	1.039637	0.378429	0.973435
C76	C	0.438403	-0.288229	0.306756
C77	C	0.771736	0.045104	0.640090
C78	C	1.105070	0.378437	0.973423
C79	C	0.471147	-0.354542	0.301883
C80	C	0.804480	-0.021209	0.635217
C81	C	1.137813	0.312124	0.968550
C82	C	0.438449	-0.420865	0.297009
C83	C	0.771782	-0.087532	0.630343
C84	C	1.105116	0.245801	0.963676
C85	C	0.373015	-0.420872	0.297017
C86	C	0.706348	-0.087539	0.630350
C87	C	1.039682	0.245795	0.963684
C88	C	0.340278	-0.354550	0.301900
C89	C	0.673612	-0.021217	0.635234
C90	C	1.006945	0.312116	0.968567
C91	C	0.574841	-0.401686	0.261850
C92	C	0.908174	-0.068353	0.595183
C93	C	1.241507	0.264980	0.928517
C94	C	0.640277	-0.401688	0.261850
C95	C	0.973611	-0.068354	0.595183
C96	C	1.306944	0.264979	0.928516
C97	C	0.640218	-0.307384	0.341895
C98	C	0.973551	0.025950	0.675229
C99	C	1.306885	0.359283	1.008562
C100	C	0.574783	-0.307389	0.341899
C101	C	0.908116	0.025944	0.675232
C102	C	1.241449	0.359277	1.008565
C103	C	0.542098	-0.354540	0.301873
C104	C	0.875431	-0.021206	0.635206
C105	C	1.208765	0.312127	0.968539
C106	C	0.905423	-0.546499	0.301835
C107	C	1.238756	-0.213166	0.635168
C108	C	1.572089	0.120168	0.968502
C109	C	0.905435	-0.628298	0.301814
C110	C	1.238769	-0.294965	0.635147
C111	C	1.572102	0.038369	0.968480
C112	C	0.865420	-0.816502	0.261707
C113	C	1.198754	-0.483169	0.595040
C114	C	1.532087	-0.149835	0.928374
C115	C	0.865431	-0.893361	0.261694
C116	C	1.198764	-0.560027	0.595028
C117	C	1.532098	-0.226694	0.928361
C118	C	0.945525	-0.893332	0.341845
C119	C	1.278858	-0.559999	0.675179
C120	C	1.612192	-0.226666	1.008512
C121	C	0.945511	-0.816475	0.341861
C122	C	1.278844	-0.483142	0.675194
C123	C	1.612177	-0.149808	1.008527
C124	C	0.905459	-0.778062	0.301788
C125	C	1.238792	-0.444728	0.635121
C126	C	1.572126	-0.111395	0.968455
C127	C	0.905484	-0.931778	0.301760
C128	C	1.238818	-0.598445	0.635093
C129	C	1.572151	-0.265111	0.968427
C130	C	0.905497	-1.015112	0.301747
C131	C	1.238830	-0.681778	0.635080
C132	C	1.572163	-0.348445	0.968413
C133	C	0.905446	-0.694723	0.301802
C134	C	1.238779	-0.361389	0.635135
C135	C	1.572113	-0.028056	0.968469
C136	C	1.068816	-0.354567	0.301909
C137	C	1.402150	-0.021234	0.635243
C138	C	1.735483	0.312099	0.968576
C139	C	1.138457	-0.354576	0.301920
C140	C	1.471791	-0.021243	0.635253
C141	C	1.805124	0.312091	0.968587
C142	C	0.905310	-0.354505	0.464673
C143	C	1.238644	-0.021172	0.798006
C144	C	1.571977	0.312161	1.131339
C145	C	0.905332	-0.354512	0.534314
C146	C	1.238666	-0.021179	0.867647
C147	C	1.571999	0.312154	1.200980
C148	C	0.905400	-0.163340	0.301890
C149	C	1.238733	0.169993	0.635223
C150	C	1.572066	0.503327	0.968556
C151	C	0.905508	-0.081541	0.301734
C152	C	1.238842	0.251792	0.635068
C153	C	1.572175	0.585125	0.968401
C154	C	0.905493	-0.354603	0.138462
C155	C	1.238826	-0.021270	0.471795
C156	C	1.572160	0.312063	0.805128
C157	C	0.905536	-0.354628	0.068820
C158	C	1.238869	-0.021294	0.402154
C159	C	1.572202	0.312039	0.735487
C160	C	0.945434	-0.307496	0.567024
C161	C	1.278767	0.025837	0.900358
C162	C	1.612101	0.359170	1.233691
C163	C	0.945463	-0.307513	0.632460
C164	C	1.278796	0.025820	0.965793
C165	C	1.612130	0.359154	1.299126
C166	C	0.905379	-0.354538	0.665182
C167	C	1.238713	-0.021204	0.998515
C168	C	1.572046	0.312129	1.331849
C169	C	0.865275	-0.401563	0.632464
C170	C	1.198608	-0.068229	0.965797
C171	C	1.531942	0.265104	1.299130
C172	C	0.865251	-0.401550	0.567029
C173	C	1.198585	-0.068217	0.900363
C174	C	1.531918	0.265117	1.233696
C175	C	0.848964	-0.360305	0.768892
C176	C	1.182297	-0.026971	1.102225
C177	C	1.515631	0.306362	1.435559
C178	C	0.848986	-0.360312	0.834325
C179	C	1.182320	-0.026979	1.167658
C180	C	1.515653	0.306355	1.500992
C181	C	0.905452	-0.354581	0.867003
C182	C	1.238786	-0.021247	1.200336
C183	C	1.572119	0.312086	1.533669
C184	C	0.961897	-0.348826	0.834240
C185	C	1.295231	-0.015493	1.167573
C186	C	1.628564	0.317840	1.500906
C187	C	0.961874	-0.348814	0.768806
C188	C	1.295207	-0.015480	1.102139
C189	C	1.628540	0.317853	1.435472
C190	C	0.905401	-0.354557	0.736134
C191	C	1.238734	-0.021223	1.069468
C192	C	1.572067	0.312110	1.402801
C193	C	0.945589	-0.307580	0.970666
C194	C	1.278922	0.025753	1.303999
C195	C	1.612256	0.359087	1.637333
C196	C	0.945619	-0.307602	1.036103
C197	C	1.278952	0.025732	1.369436
C198	C	1.612286	0.359065	1.702769
C199	C	0.865425	-0.401648	1.036105
C200	C	1.198759	-0.068314	1.369438
C201	C	1.532092	0.265019	1.702772
C202	C	0.865401	-0.401630	0.970670
C203	C	1.198734	-0.068296	1.304003
C204	C	1.532067	0.265037	1.637336
C205	C	0.905482	-0.354592	0.937954
C206	C	1.238815	-0.021259	1.271287
C207	C	1.572148	0.312075	1.604621
H208	H	0.144484	-0.269037	0.374541
H209	H	0.477818	0.064296	0.707875
H210	H	0.811151	0.397629	1.041208
C211	C	0.821134	-0.453266	0.531046
C212	C	1.154468	-0.119932	0.864380
C213	C	1.487801	0.213401	1.197713
H214	H	0.797263	-0.481273	0.559904
H215	H	1.130596	-0.147940	0.893237
H216	H	1.463930	0.185393	1.226570
H217	H	0.845074	-0.485349	0.505477
H218	H	1.178407	-0.152016	0.838810
H219	H	1.511741	0.181317	1.172143
H220	H	0.793837	-0.425073	0.505565
H221	H	1.127171	-0.091739	0.838898
H222	H	1.460504	0.241594	1.172232
H223	H	0.832808	-0.785228	0.229077
H224	H	1.166141	-0.451895	0.562411
H225	H	1.499474	-0.118561	0.895744
C226	C	0.989528	-0.255765	0.531041
C227	C	1.322861	0.077568	0.864374
C228	C	1.656195	0.410901	1.197707
H229	H	1.013420	-0.227772	0.559898
H230	H	1.346753	0.105562	0.893231
H231	H	1.680086	0.438895	1.226564
H232	H	0.965572	-0.223669	0.505553
H233	H	1.298905	0.109664	0.838886
H234	H	1.632239	0.442998	1.172219
H235	H	1.016807	-0.283948	0.505477
H236	H	1.350140	0.049385	0.838811
H237	H	1.683473	0.382718	1.172144
C238	C	0.474455	-0.493815	0.291648
C239	C	0.807788	-0.160482	0.624981
C240	C	1.141122	0.172851	0.958315
H241	H	0.445611	-0.533312	0.288742
H242	H	0.778944	-0.199979	0.622075
H243	H	1.112277	0.133355	0.955409
H244	H	0.499969	-0.500208	0.327560
H245	H	0.833303	-0.166875	0.660893
H246	H	1.166636	0.166458	0.994226
H247	H	0.499993	-0.492932	0.255322
H248	H	0.833327	-0.159599	0.588655
H249	H	1.166660	0.173734	0.921988
H250	H	0.832827	-0.924655	0.229057
H251	H	1.166160	-0.591322	0.562390
H252	H	1.499494	-0.257989	0.895724
C253	C	0.989588	-0.935586	0.385914
C254	C	1.322921	-0.602252	0.719247
C255	C	1.656255	-0.268919	1.052581
H256	H	1.013429	-0.901682	0.409790
H257	H	1.346762	-0.568349	0.743123
H258	H	1.680096	-0.235015	1.076456
H259	H	1.016905	-0.965577	0.361939
H260	H	1.350239	-0.632244	0.695273
H261	H	1.683572	-0.298911	1.028606
H262	H	0.965611	-0.965556	0.413209
H263	H	1.298945	-0.632223	0.746542
H264	H	1.632278	-0.298889	1.079875
C265	C	0.821184	-0.453291	0.668452
C266	C	1.154517	-0.119957	1.001786
C267	C	1.487850	0.213376	1.335119
H268	H	0.797300	-0.481295	0.639597
H269	H	1.130633	-0.147962	0.972930
H270	H	1.463966	0.185371	1.306263
H271	H	0.793907	-0.425117	0.694019
H272	H	1.127241	-0.091783	1.027353
H273	H	1.460574	0.241550	1.360686
H274	H	0.845149	-0.485388	0.693937
H275	H	1.178482	-0.152055	1.027270
H276	H	1.511816	0.181279	1.360603
C277	C	0.474364	-0.215286	0.312191
C278	C	0.807698	0.118047	0.645524
C279	C	1.141031	0.451380	0.978857
H280	H	0.445493	-0.175797	0.315128
H281	H	0.778827	0.157536	0.648461
H282	H	1.112160	0.490870	0.981795
H283	H	0.499927	-0.208832	0.276300
H284	H	0.833261	0.124501	0.609633
H285	H	1.166594	0.457835	0.942967
H286	H	0.499850	-0.216226	0.348529
H287	H	0.833184	0.117107	0.681863
H288	H	1.166517	0.450440	1.015196
C289	C	0.135249	-0.453586	0.217872
C290	C	0.468583	-0.120253	0.551206
C291	C	0.801916	0.213081	0.884539
H292	H	0.164125	-0.481666	0.194037
H293	H	0.497458	-0.148332	0.527371
H294	H	0.830792	0.185001	0.860704
H295	H	0.109722	-0.425497	0.190548
H296	H	0.443055	-0.092164	0.523881
H297	H	0.776388	0.241169	0.857214
H298	H	0.109728	-0.485608	0.241880
H299	H	0.443062	-0.152275	0.575213
H300	H	0.776395	0.181059	0.908547
C301	C	0.272658	-0.453570	0.217856
C302	C	0.605991	-0.120236	0.551190
C303	C	0.939325	0.213097	0.884523
H304	H	0.243820	-0.481648	0.194018
H305	H	0.577154	-0.148315	0.527351
H306	H	0.910487	0.185019	0.860684
H307	H	0.298188	-0.485582	0.241850
H308	H	0.631522	-0.152249	0.575183
H309	H	0.964855	0.181084	0.908517
H310	H	0.298182	-0.425462	0.190526
H311	H	0.631515	-0.092129	0.523859
H312	H	0.964848	0.241204	0.857192
H313	H	0.978117	-0.785176	0.374502
H314	H	1.311450	-0.451843	0.707835
H315	H	1.644783	-0.118509	1.041168
C316	C	0.538882	-0.453553	0.217830
C317	C	0.872215	-0.120219	0.551163
C318	C	1.205549	0.213114	0.884497
H319	H	0.495222	-0.446798	0.223561
H320	H	0.828555	-0.113465	0.556894
H321	H	1.161889	0.219869	0.890227
H322	H	0.549616	-0.502979	0.227049
H323	H	0.882949	-0.169646	0.560382
H324	H	1.216282	0.163687	0.893715
H325	H	0.549619	-0.442866	0.175718
H326	H	0.882953	-0.109533	0.509052
H327	H	1.216286	0.223801	0.842385
H328	H	0.803025	-0.364990	0.860996
H329	H	1.136359	-0.031657	1.194329
H330	H	1.469692	0.301676	1.527662
C331	C	0.676293	-0.453544	0.217818
C332	C	1.009627	-0.120210	0.551151
C333	C	1.342960	0.213123	0.884484
H334	H	0.647454	-0.481618	0.193978
H335	H	0.980787	-0.148285	0.527312
H336	H	1.314120	0.185049	0.860645
H337	H	0.701821	-0.485560	0.241811
H338	H	1.035154	-0.152226	0.575144
H339	H	1.368488	0.181107	0.908478
H340	H	0.701820	-0.425439	0.190487
H341	H	1.035153	-0.092105	0.523821
H342	H	1.368486	0.241228	0.857154
C343	C	0.989733	-0.255881	1.072084
C344	C	1.323066	0.077452	1.405418
C345	C	1.656399	0.410786	1.738751
H346	H	1.013594	-0.227863	1.043226
H347	H	1.346927	0.105471	1.376559
H348	H	1.680260	0.438804	1.709893
H349	H	1.017030	-0.284063	1.097569
H350	H	1.350363	0.049270	1.430902
H351	H	1.683696	0.382603	1.764235
H352	H	0.965785	-0.223796	1.097651
H353	H	1.299118	0.109537	1.430985
H354	H	1.632452	0.442871	1.764318
C355	C	0.989571	-0.255788	0.668449
C356	C	1.322905	0.077546	1.001782
C357	C	1.656238	0.410879	1.335116
H358	H	1.013435	-0.227769	0.639593
H359	H	1.346768	0.105564	0.972926
H360	H	1.680102	0.438898	1.306260
H361	H	1.016866	-0.283967	0.693938
H362	H	1.350200	0.049366	1.027271
H363	H	1.683533	0.382699	1.360604
H364	H	0.965619	-0.223703	0.694012
H365	H	1.298952	0.109630	1.027345
H366	H	1.632285	0.442963	1.360679
C367	C	0.676170	-0.255516	0.385912
C368	C	1.009504	0.077817	0.719245
C369	C	1.342837	0.411150	1.052579
H370	H	0.719830	-0.262261	0.380173
H371	H	1.053164	0.071073	0.713506
H372	H	1.386497	0.404406	1.046840
H373	H	0.665434	-0.266197	0.428021
H374	H	0.998768	0.067136	0.761355
H375	H	1.332101	0.400469	1.094688
H376	H	0.665435	-0.206087	0.376689
H377	H	0.998768	0.127246	0.710022
H378	H	1.332102	0.460579	1.043355
H379	H	0.548124	-0.268999	0.374490
H380	H	0.881457	0.064334	0.707823
H381	H	1.214791	0.397668	1.041156
C382	C	0.337047	-0.493819	0.291664
C383	C	0.670380	-0.160485	0.624997
C384	C	1.003714	0.172848	0.958330
H385	H	0.293388	-0.484322	0.292363
H386	H	0.626722	-0.150988	0.625696
H387	H	0.960055	0.182345	0.959030
H388	H	0.347768	-0.524702	0.325778
H389	H	0.681101	-0.191368	0.659111
H390	H	1.014435	0.141965	0.992444
H391	H	0.347788	-0.517432	0.253539
H392	H	0.681121	-0.184099	0.586873
H393	H	1.014455	0.149235	0.920206
H394	H	0.346316	-0.234234	0.310740
H395	H	0.679649	0.099100	0.644073
H396	H	1.012982	0.432433	0.977406
C397	C	1.023956	-0.342496	0.732765
C398	C	1.357290	-0.009163	1.066099
C399	C	1.690623	0.324170	1.399432
H400	H	1.015852	-0.343307	0.689116
H401	H	1.349186	-0.009973	1.022450
H402	H	1.682519	0.323360	1.355783
H403	H	1.050292	-0.382562	0.743441
H404	H	1.383626	-0.049228	1.076774
H405	H	1.716959	0.284105	1.410108
H406	H	1.044022	-0.297714	0.743498
H407	H	1.377355	0.035619	1.076831
H408	H	1.710688	0.368953	1.410164
H409	H	1.007877	-0.344160	0.860845
H410	H	1.341211	-0.010826	1.194178
H411	H	1.674544	0.322507	1.527511
H412	H	0.263198	-0.269028	0.374520
H413	H	0.596531	0.064305	0.707853
H414	H	0.929864	0.397639	1.041187
C415	C	0.786849	-0.366608	0.732950
C416	C	1.120183	-0.033275	1.066283
C417	C	1.453516	0.300058	1.399616
H418	H	0.794919	-0.365783	0.689288
H419	H	1.128252	-0.032450	1.022621
H420	H	1.461585	0.300883	1.355954
H421	H	0.760520	-0.326548	0.743721
H422	H	1.093853	0.006786	1.077055
H423	H	1.427187	0.340119	1.410388
H424	H	0.766794	-0.411395	0.743660
H425	H	1.100128	-0.078062	1.076993
H426	H	1.433461	0.255272	1.410327
C427	C	0.989682	-0.255850	0.934676
C428	C	1.323015	0.077483	1.268009
C429	C	1.656348	0.410817	1.601343
H430	H	1.013577	-0.227859	0.963532
H431	H	1.346910	0.105475	1.296865
H432	H	1.680243	0.438808	1.630199
H433	H	0.965724	-0.223752	0.909192
H434	H	1.299057	0.109582	1.242525
H435	H	1.632390	0.442915	1.575858
H436	H	1.016957	-0.284032	0.909109
H437	H	1.350291	0.049301	1.242442
H438	H	1.683624	0.382634	1.575776
H439	H	0.832791	-0.439939	1.062747
H440	H	1.166125	-0.106606	1.396080
H441	H	1.499458	0.226727	1.729414
C442	C	0.821281	-0.453339	0.934686
C443	C	1.154614	-0.120005	1.268020
C444	C	1.487947	0.213328	1.601353
H445	H	0.797408	-0.481343	0.963544
H446	H	1.130741	-0.148010	1.296878
H447	H	1.464074	0.185323	1.630211
H448	H	0.845218	-0.485425	0.909117
H449	H	1.178552	-0.152092	1.242451
H450	H	1.511885	0.181241	1.575784
H451	H	0.793985	-0.425144	0.909204
H452	H	1.127319	-0.091811	1.242537
H453	H	1.460652	0.241522	1.575871
