data_functionalizedCrystal
_audit_creation_method	'MofGen! by Chris Wilmer'
_symmetry_space_group_name_H-M	'P1'
_symmetry_Int_Tables_number	1
_symmetry_cell_setting	triclinic
loop_
_symmetry_equiv_pos_as_xyz
  x,y,z
_cell_length_a	10.723024
_cell_length_b	14.421503
_cell_length_c	10.723024
_cell_angle_alpha	90.005502
_cell_angle_beta	95.532131
_cell_angle_gamma	90.007403
loop_
_atom_site_label
_atom_site_type_symbol
_atom_site_fract_x
_atom_site_fract_y
_atom_site_fract_z
O1	O	1.657196	0.077103	-0.175010
O2	O	1.294044	0.077106	-0.191763
O3	O	1.483996	0.077101	-0.001811
O4	O	1.467243	0.077108	-0.364963
O5	O	1.483965	-0.077122	-0.001839
O6	O	1.294012	-0.077117	-0.191792
O7	O	1.657164	-0.077120	-0.175038
Cu8	Cu	1.475585	-0.091201	-0.183418
Cu9	Cu	1.475623	0.091186	-0.183384
O10	O	1.467212	-0.077115	-0.364991
C11	C	1.247528	-0.000005	-0.190558
C12	C	1.108974	-0.000004	-0.186911
N13	N	1.475568	-0.219482	-0.183440
C14	C	1.033991	-0.000002	-0.293198
C15	C	0.890788	-0.000000	-0.289431
C16	C	1.387718	-0.469133	-0.271235
C17	C	1.500687	-0.530936	-0.296421
C18	C	1.475598	-0.408643	-0.183411
C19	C	1.362659	-0.530934	-0.158254
C20	C	1.475617	-0.591365	-0.183385
C21	C	1.588625	-0.469086	-0.208654
C22	C	1.450522	-0.469078	-0.070437
C23	C	1.563572	-0.530853	-0.095576
C24	C	1.475586	-0.303382	-0.183429
C25	C	1.475643	-0.696624	-0.183366
C26	C	1.703680	-0.000007	-0.176243
C27	C	1.842234	-0.000002	-0.179891
C28	C	1.482762	-0.000010	0.044675
C29	C	1.479114	-0.000006	0.183229
N30	N	1.475650	0.219468	-0.183352
C31	C	1.468447	-0.000003	-0.411477
C32	C	1.472094	0.000000	-0.550031
C33	C	1.585401	-0.000006	0.258212
C34	C	1.581634	-0.000002	0.401415
H35	H	1.075814	-0.000005	-0.386984
Cl36	Cl	1.730207	-0.000001	0.193653
H37	H	1.672624	-0.000006	0.465848
Cl38	Cl	1.331599	-0.000008	0.350504
Cl39	Cl	0.941699	0.000002	-0.039396
Cl40	Cl	1.215187	-0.572881	-0.125417
Cl41	Cl	1.273098	-0.427286	-0.385989
H42	H	1.684165	-0.442032	-0.230034
H43	H	0.826355	0.000006	-0.380421
H44	H	1.385328	0.000001	0.225051
Cl45	Cl	1.044415	-0.000014	-0.042105
H46	H	1.521915	-0.558107	-0.391949
Cl47	Cl	1.678446	-0.572439	0.019111
H48	H	1.429259	-0.441886	0.025061
