data_functionalizedCrystal
_audit_creation_method	'MofGen! by Chris Wilmer'
_symmetry_space_group_name_H-M	'P1'
_symmetry_Int_Tables_number	1
_symmetry_cell_setting	triclinic
loop_
_symmetry_equiv_pos_as_xyz
  x,y,z
_cell_length_a	19.077399
_cell_length_b	19.077068
_cell_length_c	12.759393
_cell_angle_alpha	87.738768
_cell_angle_beta	87.726629
_cell_angle_gamma	94.530727
loop_
_atom_site_label
_atom_site_type_symbol
_atom_site_fract_x
_atom_site_fract_y
_atom_site_fract_z
Zn1	Zn	1.066437	-0.237326	0.544444
Zn2	Zn	1.061603	-0.355236	0.376103
Zn3	Zn	0.948545	-0.242097	0.376114
Zn4	Zn	0.943778	-0.359913	0.559065
O5	O	1.005091	-0.298643	0.463931
O6	O	1.164445	-0.249012	0.515990
O7	O	1.046578	-0.340267	0.229087
O8	O	0.968202	-0.142812	0.392328
O9	O	1.160893	-0.335640	0.392310
O10	O	1.054817	-0.139307	0.516000
O11	O	0.963515	-0.257145	0.229095
O12	O	0.849264	-0.261681	0.406506
O13	O	0.960077	-0.343613	0.704143
O14	O	0.845762	-0.348240	0.540920
O15	O	1.050194	-0.253548	0.693401
O16	O	1.041956	-0.454508	0.406488
O17	O	0.955390	-0.457945	0.540910
C18	C	0.821935	-0.305986	0.475301
C19	C	0.743579	-0.309144	0.480191
C20	C	0.708573	-0.265493	0.412613
C21	C	0.634949	-0.268467	0.417208
C22	C	0.596333	-0.315088	0.489387
C23	C	0.631344	-0.358744	0.556969
C24	C	0.704966	-0.355773	0.552368
C25	C	0.375951	-0.328816	0.510635
C26	C	0.302324	-0.331782	0.515233
C27	C	0.305934	-0.241505	0.375470
C28	C	0.379558	-0.238536	0.370880
C29	C	0.414562	-0.282194	0.438458
N30	N	0.521077	-0.318128	0.494088
N31	N	0.489816	-0.279158	0.433751
C32	C	0.997650	-0.481805	0.475306
C33	C	0.994531	-0.560160	0.480204
C34	C	1.038171	-0.595157	0.412572
C35	C	1.035242	-0.668780	0.417184
C36	C	0.988669	-0.707404	0.489424
C37	C	0.945027	-0.672402	0.557063
C38	C	0.947961	-0.598780	0.552455
C39	C	0.975063	-0.927783	0.510708
C40	C	0.972132	-1.001410	0.515309
C41	C	1.062348	-0.997783	0.375431
C42	C	1.065274	-0.924160	0.370825
C43	C	1.021635	-0.889164	0.438468
N44	N	0.985672	-0.782658	0.494137
N45	N	1.024636	-0.813911	0.433759
C46	C	1.188963	-0.291272	0.452518
C47	C	1.267318	-0.288131	0.447654
C48	C	1.005143	-0.298570	0.737957
C49	C	1.005165	-0.298539	0.854731
C50	C	1.012580	-0.114765	0.452534
C51	C	1.015772	-0.036407	0.447677
C52	C	1.005082	-0.298663	0.190966
C53	C	1.005204	-0.298490	0.074172
C54	C	1.052096	-0.251638	0.904001
C55	C	1.052114	-0.251612	1.013722
C56	C	0.958268	-0.345394	1.024895
C57	C	0.958248	-0.345416	0.915176
C58	C	1.106279	-0.197495	0.897551
C59	C	1.106297	-0.197469	1.007272
H60	H	0.270884	-0.369746	0.574016
N61	N	0.907604	-0.395988	0.862055
H62	H	0.916486	-0.445920	0.883583
H63	H	0.914718	-0.388833	0.783388
H64	H	0.920068	-0.383558	1.074123
N65	N	0.597182	-0.221376	0.344348
H66	H	0.565457	-0.251212	0.299271
H67	H	0.632853	-0.191388	0.297997
N68	N	0.421194	-0.188236	0.293037
H69	H	0.407917	-0.199635	0.219418
H70	H	0.473135	-0.192989	0.300463
H71	H	1.160304	-0.209899	1.034566
H72	H	0.404443	-0.364366	0.565662
N73	N	0.750221	-0.215202	0.334772
H74	H	0.716870	-0.188001	0.292659
H75	H	0.779592	-0.242624	0.285951
H76	H	1.093878	-0.143487	0.865306
N77	N	0.268177	-0.194430	0.302574
H78	H	0.303812	-0.164447	0.256149
H79	H	0.238963	-0.163069	0.345298
N80	N	1.082311	-0.706528	0.344239
H81	H	1.112256	-0.670888	0.297772
H82	H	1.052412	-0.738277	0.299283
H83	H	1.157336	-0.214985	0.861509
H84	H	1.103197	-0.892714	0.312002
H85	H	0.599896	-0.396707	0.615734
N86	N	1.083201	-0.129799	1.049720
H87	H	1.072030	-0.097119	0.989529
H88	H	1.122264	-0.106605	1.090589
H89	H	1.076093	-0.563714	0.353742
N90	N	0.742726	-0.402857	0.625251
H91	H	0.707093	-0.432842	0.671675
H92	H	0.774452	-0.372969	0.670252
H93	H	1.097877	-1.026284	0.320362
N94	N	0.921897	-1.043072	0.593227
H95	H	0.894697	-1.009731	0.635381
H96	H	0.949362	-1.072419	0.642002
H97	H	0.939529	-0.899296	0.565784
H98	H	0.907110	-0.703856	0.615886
H99	H	0.912425	-0.570287	0.607529
