data_functionalizedCrystal
_audit_creation_method	'MofGen! by Chris Wilmer'
_symmetry_space_group_name_H-M	'P1'
_symmetry_Int_Tables_number	1
_symmetry_cell_setting	triclinic
loop_
_symmetry_equiv_pos_as_xyz
  x,y,z
_cell_length_a	14.519731
_cell_length_b	13.596369
_cell_length_c	11.792254
_cell_angle_alpha	90.006156
_cell_angle_beta	83.943725
_cell_angle_gamma	90.005416
loop_
_atom_site_label
_atom_site_type_symbol
_atom_site_fract_x
_atom_site_fract_y
_atom_site_fract_z
O1	O	1.224407	0.081794	0.148896
O2	O	1.557740	0.415127	0.482230
O3	O	1.891073	0.748461	0.815563
O4	O	0.955997	0.081796	0.166392
O5	O	1.289331	0.415129	0.499725
O6	O	1.622664	0.748462	0.833059
O7	O	1.096709	0.081788	-0.007561
O8	O	1.430043	0.415121	0.325773
O9	O	1.763376	0.748454	0.659106
O10	O	1.083695	0.081802	0.322849
O11	O	1.417028	0.415135	0.656183
O12	O	1.750361	0.748468	0.989516
O13	O	1.096695	-0.081795	-0.007570
O14	O	1.430029	0.251538	0.325763
O15	O	1.763362	0.584871	0.659097
O16	O	0.955983	-0.081787	0.166383
O17	O	1.289316	0.251546	0.499716
O18	O	1.622650	0.584879	0.833049
O19	O	1.224393	-0.081789	0.148887
O20	O	1.557726	0.251544	0.482221
O21	O	1.891059	0.584878	0.815554
Zn22	Zn	1.090186	-0.107760	0.157634
Zn23	Zn	1.423519	0.225573	0.490967
Zn24	Zn	1.756852	0.558906	0.824300
Zn25	Zn	1.090204	0.107767	0.157646
Zn26	Zn	1.423538	0.441100	0.490979
Zn27	Zn	1.756871	0.774434	0.824312
O28	O	1.083680	-0.081781	0.322840
O29	O	1.417014	0.251552	0.656173
O30	O	1.750347	0.584886	0.989507
C31	C	0.921628	0.000004	0.165568
C32	C	1.254961	0.333338	0.498901
C33	C	1.588294	0.666671	0.832234
C34	C	0.819238	0.000005	0.163111
C35	C	1.152572	0.333338	0.496444
C36	C	1.485905	0.666671	0.829778
N37	N	1.090180	-0.254852	0.157625
N38	N	1.423513	0.078481	0.490958
N39	N	1.756846	0.411814	0.824291
C40	C	0.736087	0.000009	0.161115
C41	C	1.069420	0.333342	0.494448
C42	C	1.402753	0.666675	0.827782
C43	C	0.631769	0.000009	0.158621
C44	C	0.965102	0.333342	0.491954
C45	C	1.298436	0.666675	0.825288
C46	C	0.548623	0.000009	0.156641
C47	C	0.881956	0.333342	0.489975
C48	C	1.215289	0.666675	0.823308
C49	C	0.444298	0.000011	0.154148
C50	C	0.777631	0.333344	0.487481
C51	C	1.110965	0.666677	0.820814
C52	C	1.090203	-0.656143	0.157647
C53	C	1.423536	-0.322810	0.490980
C54	C	1.756870	0.010523	0.824314
C55	C	1.090194	-0.544492	0.157645
C56	C	1.423527	-0.211159	0.490978
C57	C	1.756860	0.122175	0.824311
C58	C	1.090192	-0.455501	0.157637
C59	C	1.423525	-0.122168	0.490970
C60	C	1.756858	0.211165	0.824303
C61	C	1.090182	-0.343843	0.157632
C62	C	1.423515	-0.010510	0.490966
C63	C	1.756848	0.322824	0.824299
C64	C	1.258762	0.000005	0.149712
C65	C	1.592096	0.333338	0.483045
C66	C	1.925429	0.666671	0.816378
C67	C	1.361152	0.000011	0.152168
C68	C	1.694485	0.333344	0.485501
C69	C	2.027818	0.666677	0.818835
C70	C	1.095883	-0.000003	-0.049852
C71	C	1.429216	0.333330	0.283482
C72	C	1.762549	0.666663	0.616815
C73	C	1.093429	-0.000002	-0.175851
C74	C	1.426762	0.333331	0.157482
C75	C	1.760095	0.666664	0.490815
N76	N	1.090217	0.254859	0.157646
N77	N	1.423551	0.588192	0.490979
N78	N	1.756884	0.921526	0.824312
C79	C	1.091435	0.000001	-0.278177
C80	C	1.424768	0.333334	0.055156
C81	C	1.758101	0.666668	0.388490
C82	C	1.088942	0.000010	-0.406550
C83	C	1.422275	0.333343	-0.073217
C84	C	1.755608	0.666677	0.260117
C85	C	1.084507	0.000012	0.365131
C86	C	1.417841	0.333345	0.698464
C87	C	1.751174	0.666679	1.031798
C88	C	1.086961	0.000018	0.491131
C89	C	1.420295	0.333351	0.824464
C90	C	1.753628	0.666684	1.157797
