data_functionalizedCrystal
_audit_creation_method	'MofGen! by Chris Wilmer'
_symmetry_space_group_name_H-M	'P1'
_symmetry_Int_Tables_number	1
_symmetry_cell_setting	triclinic
loop_
_symmetry_equiv_pos_as_xyz
  x,y,z
_cell_length_a	19.188930
_cell_length_b	19.188930
_cell_length_c	17.666332
_cell_angle_alpha	90.009680
_cell_angle_beta	90.019704
_cell_angle_gamma	83.144779
loop_
_atom_site_label
_atom_site_type_symbol
_atom_site_fract_x
_atom_site_fract_y
_atom_site_fract_z
O1	O	0.926146	0.087167	0.063200
O2	O	0.722835	0.098902	0.063149
O3	O	0.830358	-0.008621	0.063161
O4	O	0.818623	0.194690	0.063188
O5	O	0.830346	-0.008624	-0.062735
O6	O	0.722823	0.098899	-0.062747
O7	O	0.926134	0.087165	-0.062697
Cu8	Cu	0.824477	0.093032	-0.074217
Cu9	Cu	0.824492	0.093035	0.074670
O10	O	0.818611	0.194687	-0.062709
C11	C	0.696818	0.098520	0.000194
C12	C	0.619313	0.097380	0.000174
C13	C	0.574389	0.160470	0.000194
C14	C	0.501566	0.159399	0.000203
C15	C	0.473669	0.095233	0.000206
C16	C	0.518603	0.032133	0.000181
C17	C	0.591425	0.033207	0.000166
N18	N	0.365693	0.046187	0.043078
N19	N	0.296514	0.045171	0.043095
C20	C	0.254260	0.091994	0.000252
N21	N	0.283797	0.139882	-0.042599
N22	N	0.352982	0.140900	-0.042612
C23	C	0.394707	0.094062	0.000222
C24	C	0.130372	0.153928	0.000280
C25	C	0.057547	0.152853	0.000283
C26	C	0.074586	0.025586	0.000270
C27	C	0.147409	0.026662	0.000258
C28	C	0.175298	0.090835	0.000267
C29	C	0.829972	-0.034634	0.000211
C30	C	0.828831	-0.112138	0.000204
C31	C	0.891922	-0.157062	0.000216
C32	C	0.890850	-0.229886	0.000228
C33	C	0.826684	-0.257782	0.000212
C34	C	0.763585	-0.212849	0.000205
C35	C	0.764658	-0.140026	0.000200
N36	N	0.777633	-0.365788	-0.042645
N37	N	0.776617	-0.434967	-0.042642
C38	C	0.823446	-0.477191	0.000227
N39	N	0.871339	-0.447625	0.043084
N40	N	0.872357	-0.378440	0.043079
C41	C	0.825513	-0.336745	0.000218
C42	C	0.885379	-0.601079	0.000253
C43	C	0.884305	-0.673904	0.000270
C44	C	0.757038	-0.656865	0.000239
C45	C	0.758114	-0.584042	0.000230
C46	C	0.822286	-0.556154	0.000233
C47	C	0.952151	0.087546	0.000260
C48	C	1.029656	0.088687	0.000285
C49	C	0.818997	0.220700	0.000244
C50	C	0.820138	0.298204	0.000255
N51	N	0.824473	0.093029	-0.178937
C52	C	0.872114	0.045434	-0.780982
C53	C	0.872116	0.045435	-0.701734
C54	C	0.824492	0.093028	-0.662118
C55	C	0.776876	0.140635	-0.701757
C56	C	0.776881	0.140637	-0.781003
N57	N	0.762680	0.102077	-0.537720
N58	N	0.762678	0.102071	-0.462440
C59	C	0.824476	0.093027	-0.423354
N60	N	0.886278	0.083976	-0.462393
N61	N	0.886280	0.083978	-0.537680
C62	C	0.824482	0.093032	-0.576189
C63	C	0.872093	0.045428	-0.297796
C64	C	0.872095	0.045435	-0.218547
C65	C	0.776850	0.140631	-0.218571
C66	C	0.776854	0.140628	-0.297819
C67	C	0.824475	0.093023	-0.337427
N68	N	0.824502	0.093032	0.179390
H69	H	0.153080	0.206181	0.000276
H70	H	0.711340	-0.235567	0.000194
H71	H	0.713281	-0.103449	0.000190
H72	H	0.706738	-0.547464	0.000216
H73	H	0.628003	-0.018171	0.000150
H74	H	0.183988	-0.024713	0.000246
F75	F	0.009735	0.220007	0.000301
F76	F	0.726176	0.191286	-0.339998
F77	F	0.922798	-0.005229	-0.823133
F78	F	0.953676	-0.571396	0.000253
H79	H	0.910889	0.006674	-0.669462
H80	H	0.597091	0.212725	0.000203
F81	F	0.951459	-0.721716	0.000287
F82	F	0.726195	0.191290	-0.659595
F83	F	0.922778	-0.005235	-0.339950
H84	H	0.738109	0.179398	-0.813269
F85	F	0.688747	-0.686550	0.000226
F86	F	0.922777	-0.005224	-0.176369
F87	F	0.044901	-0.042705	0.000266
F88	F	0.726171	0.191288	-0.176413
H89	H	0.464982	0.210776	0.000217
F90	F	0.488912	-0.036157	0.000181
F91	F	0.960220	-0.127385	0.000236
H92	H	0.942228	-0.266470	0.000241
