data_functionalizedCrystal
_audit_creation_method	'MofGen! by Chris Wilmer'
_symmetry_space_group_name_H-M	'P1'
_symmetry_Int_Tables_number	1
_symmetry_cell_setting	triclinic
loop_
_symmetry_equiv_pos_as_xyz
  x,y,z
_cell_length_a	8.559649
_cell_length_b	16.109301
_cell_length_c	7.088638
_cell_angle_alpha	83.791543
_cell_angle_beta	95.333776
_cell_angle_gamma	76.620073
loop_
_atom_site_label
_atom_site_type_symbol
_atom_site_fract_x
_atom_site_fract_y
_atom_site_fract_z
O1	O	-2.136546	0.037795	-0.158959
O2	O	-1.671321	-0.005143	-0.158973
O3	O	-1.916712	0.138170	-0.158946
O4	O	-1.891156	-0.105518	-0.158986
O5	O	-1.883877	0.118991	0.159040
O6	O	-1.638486	-0.024322	0.159014
O7	O	-2.103711	0.018616	0.159027
Cu8	Cu	-1.868100	-0.004605	0.188055
Cu9	Cu	-1.906932	0.018077	-0.188001
O10	O	-1.858320	-0.124697	0.159001
C11	C	-1.595372	-0.017987	0.000019
C12	C	-1.417988	-0.027672	0.000015
C13	C	-2.179660	0.031459	0.000031
C14	C	-2.357046	0.041146	0.000023
C15	C	-1.899259	0.159489	0.000048
C16	C	-1.896154	0.251587	0.000051
C17	C	-1.875774	-0.146016	0.000002
C18	C	-1.878880	-0.238113	-0.000013
N19	N	-1.840800	-0.020556	0.452553
C20	C	-2.034551	0.482678	0.000024
C21	C	-2.031623	0.569212	0.000009
C22	C	-1.740473	0.530789	0.000008
C23	C	-1.743403	0.444257	0.000010
C24	C	-1.890446	0.420203	0.000028
C25	C	-1.884588	0.593270	0.000010
C26	C	-1.881413	0.687095	-0.000007
C27	C	-1.893622	0.326373	0.000041
N28	N	-1.934245	0.034036	-0.452498
H29	H	-1.440578	0.107474	0.000025
H30	H	-1.334449	-0.094004	-0.000006
N31	N	-1.712571	-0.095486	0.560728
H32	H	-1.602708	-0.091075	0.526015
H33	H	-1.714675	-0.094305	0.702641
N34	N	-2.062455	0.108974	0.439292
H35	H	-2.141723	0.086700	0.356206
H36	H	-2.121574	0.143557	0.533024
N37	N	-2.193139	0.456731	0.000041
H38	H	-2.283983	0.509443	0.000034
H39	H	-2.212866	0.428770	-0.117838
H40	H	-2.148969	0.620077	0.000002
N41	N	-1.587957	0.376872	0.000028
H42	H	-1.570520	0.333009	0.117907
H43	H	-1.594947	0.347283	-0.117926
N44	N	-1.581882	0.556733	-0.000003
H45	H	-1.601888	0.621030	0.000002
H46	H	-1.506658	0.526111	0.117879
