data_functionalizedCrystal
_audit_creation_method	'MofGen! by Chris Wilmer'
_symmetry_space_group_name_H-M	'P1'
_symmetry_Int_Tables_number	1
_symmetry_cell_setting	triclinic
loop_
_symmetry_equiv_pos_as_xyz
  x,y,z
_cell_length_a	14.908571
_cell_length_b	16.959454
_cell_length_c	14.908308
_cell_angle_alpha	93.269679
_cell_angle_beta	90.175053
_cell_angle_gamma	86.716421
loop_
_atom_site_label
_atom_site_type_symbol
_atom_site_fract_x
_atom_site_fract_y
_atom_site_fract_z
Zn1	Zn	1.345297	-0.412496	-0.587603
Zn2	Zn	1.353878	-0.537521	-0.437249
Zn3	Zn	1.203612	-0.397314	-0.428600
Zn4	Zn	1.194906	-0.536582	-0.578901
O5	O	1.274423	-0.470978	-0.508088
O6	O	1.472261	-0.435828	-0.574920
O7	O	1.341180	-0.512961	-0.310277
O8	O	1.222460	-0.288721	-0.449714
O9	O	1.478566	-0.527683	-0.464456
O10	O	1.326555	-0.299875	-0.566532
O11	O	1.230780	-0.409952	-0.303922
O12	O	1.076631	-0.409042	-0.441276
O13	O	1.207621	-0.526082	-0.705880
O14	O	1.070235	-0.511361	-0.551701
O15	O	1.318113	-0.434917	-0.712273
O16	O	1.332737	-0.648003	-0.456018
O17	O	1.215941	-0.647313	-0.560089
C18	C	1.040808	-0.458452	-0.494606
C19	C	0.940865	-0.453114	-0.488860
C20	C	1.274349	-0.676340	-0.508068
C21	C	1.274398	-0.764200	-0.508095
C22	C	0.746458	-0.549777	-0.592894
C23	C	0.652552	-0.544763	-0.587498
C24	C	0.659146	-0.438070	-0.472677
C25	C	0.753052	-0.443084	-0.478073
C26	C	0.796704	-0.498940	-0.538183
C27	C	0.890612	-0.503956	-0.543574
C28	C	0.897204	-0.397260	-0.428758
C29	C	0.803298	-0.392247	-0.423362
C30	C	1.213691	-1.135352	-0.562276
C31	C	1.335401	-1.136020	-0.454006
C32	C	1.335370	-1.053472	-0.453996
C33	C	1.274498	-1.011860	-0.508126
C34	C	1.213657	-1.052796	-0.562266
C35	C	1.396203	-1.012529	-0.399850
C36	C	1.396174	-0.929976	-0.399837
C37	C	1.335306	-0.888363	-0.453972
C38	C	1.274463	-0.929304	-0.508115
C39	C	1.213591	-0.887692	-0.562245
C40	C	1.152752	-0.928632	-0.616394
C41	C	1.152788	-1.011183	-0.616402
C42	C	1.335269	-0.805812	-0.453965
C43	C	1.213557	-0.805136	-0.562235
C44	C	1.508951	-0.483554	-0.521623
C45	C	1.608893	-0.488913	-0.527391
C46	C	1.260938	-0.482089	-0.742614
C47	C	1.255192	-0.486823	-0.842555
C48	C	1.274521	-0.264817	-0.508129
C49	C	1.274563	-0.176963	-0.508146
C50	C	1.359446	-0.400771	-1.037013
C51	C	1.354049	-0.405217	-1.130917
C52	C	1.238998	-0.500156	-1.124267
C53	C	1.244395	-0.495710	-1.030364
C54	C	1.304622	-0.446017	-0.986740
C55	C	1.310022	-0.441576	-0.892835
C56	C	1.194967	-0.536510	-0.886187
C57	C	1.189570	-0.540956	-0.980090
C58	C	1.287908	-0.459857	-0.274478
C59	C	1.293828	-0.454909	-0.174547
H60	H	0.926152	-0.549438	-0.592516
C61	C	0.794026	-0.610394	-0.658059
C62	C	0.887020	-0.603916	-0.651058
C63	C	0.930868	-0.659752	-0.711065
H64	H	0.775287	-0.601011	-0.717655
H65	H	0.779438	-0.662053	-0.643903
H66	H	0.901602	-0.552269	-0.665219
H67	H	0.905786	-0.613307	-0.591475
H68	H	0.916280	-0.711412	-0.696910
H69	H	0.912121	-0.650365	-0.770657
H70	H	0.993969	-0.655369	-0.706317
C71	C	1.086696	-1.055492	-0.675279
C72	C	1.033395	-1.001387	-0.722703
C73	C	0.972509	-1.042179	-0.776956
H74	H	1.049455	-1.084002	-0.638690
H75	H	1.118797	-1.091349	-0.716516
H76	H	1.001296	-0.965544	-0.681471
H77	H	1.070612	-0.972875	-0.759309
H78	H	1.004611	-1.078036	-0.818194
H79	H	0.935274	-1.070688	-0.740360
H80	H	0.936343	-1.005476	-0.809146
H81	H	1.140534	-0.581413	-1.015621
C82	C	0.597893	-0.599993	-0.646746
C83	C	0.546874	-0.645280	-0.592644
C84	C	0.496503	-0.696160	-0.647196
H85	H	0.637240	-0.634044	-0.683330
H86	H	0.558969	-0.569729	-0.683859
H87	H	0.585793	-0.675542	-0.555547
H88	H	0.507510	-0.611250	-0.556061
H89	H	0.457579	-0.665896	-0.684309
H90	H	0.535856	-0.730206	-0.683778
H91	H	0.461874	-0.726889	-0.610496
C92	C	0.611576	-0.377480	-0.407482
C93	C	0.518583	-0.383971	-0.414475
C94	C	0.474733	-0.328163	-0.354438
H95	H	0.626129	-0.325811	-0.421595
H96	H	0.630348	-0.386899	-0.347893
H97	H	0.499818	-0.374546	-0.474051
H98	H	0.504004	-0.435628	-0.400354
H99	H	0.493505	-0.337582	-0.294848
H100	H	0.489293	-0.276498	-0.368556
H101	H	0.411634	-0.332564	-0.359168
C102	C	1.401526	-1.181050	-0.395141
C103	C	1.454786	-1.127527	-0.347711
C104	C	1.515706	-1.168983	-0.293466
H105	H	1.438792	-1.216953	-0.431737
H106	H	1.369451	-1.209565	-0.353908
H107	H	1.486859	-1.099026	-0.388939
H108	H	1.417545	-1.091622	-0.311098
H109	H	1.483632	-1.197498	-0.252233
H110	H	1.552966	-1.204885	-0.330069
H111	H	1.551845	-1.132674	-0.261272
C112	C	1.401215	-0.761217	-0.395210
C113	C	1.388145	-0.680014	-0.406771
C114	C	1.448874	-0.638909	-0.352650
H115	H	1.460905	-0.778470	-0.411845
H116	H	1.391571	-0.771153	-0.334011
H117	H	1.397796	-0.670083	-0.467957
H118	H	1.328467	-0.662737	-0.390130
H119	H	1.439231	-0.648845	-0.291451
H120	H	1.508561	-0.656169	-0.369290
H121	H	1.440009	-0.583808	-0.360481
H122	H	1.445756	-1.046415	-0.355773
C123	C	1.462332	-0.885677	-0.341029
C124	C	1.515662	-0.939791	-0.293644
C125	C	1.576627	-0.899012	-0.239475
H126	H	1.430320	-0.849801	-0.299763
H127	H	1.499539	-0.857193	-0.377699
H128	H	1.478460	-0.968262	-0.256977
H129	H	1.547694	-0.975669	-0.334888
H130	H	1.613834	-0.870527	-0.276145
H131	H	1.544607	-0.863137	-0.198214
H132	H	1.612824	-0.935722	-0.207324
C133	C	0.756020	-0.331652	-0.357964
C134	C	0.783967	-0.345740	-0.270282
C135	C	0.740444	-0.289931	-0.210013
H136	H	0.692890	-0.335890	-0.362465
H137	H	0.770685	-0.279996	-0.372052
H138	H	0.769296	-0.397383	-0.256198
H139	H	0.847090	-0.341495	-0.265752
H140	H	0.755109	-0.238274	-0.224100
H141	H	0.677316	-0.294173	-0.214522
H142	H	0.759406	-0.299477	-0.150514
C143	C	0.951915	-0.342105	-0.369458
C144	C	1.043497	-0.358438	-0.387058
C145	C	1.093923	-0.307643	-0.332455
H146	H	0.940089	-0.349864	-0.308109
H147	H	0.935832	-0.288806	-0.381843
H148	H	1.059574	-0.411724	-0.374667
H149	H	1.055350	-0.350674	-0.448397
H150	H	1.077840	-0.254344	-0.344840
H151	H	1.082090	-0.315406	-0.271109
H152	H	1.156066	-0.318713	-0.344395
H153	H	1.359063	-0.401114	-0.857318
C154	C	1.424697	-0.346768	-0.989520
C155	C	1.376913	-0.290838	-0.932662
C156	C	1.436995	-0.241085	-0.888889
H157	H	1.456608	-0.320381	-1.032808
H158	H	1.465952	-0.377349	-0.955091
H159	H	1.335674	-0.260260	-0.967089
H160	H	1.345005	-0.317203	-0.889358
H161	H	1.478249	-0.271666	-0.854460
H162	H	1.468902	-0.214703	-0.932183
H163	H	1.404583	-0.203135	-0.850300
C164	C	1.147367	-0.760100	-0.621039
C165	C	1.094087	-0.813623	-0.668442
C166	C	1.033097	-0.772164	-0.722612
H167	H	1.179360	-0.731558	-0.662294
H168	H	1.110130	-0.724218	-0.584367
H169	H	1.131319	-0.849490	-0.705111
H170	H	1.062074	-0.842166	-0.627210
H171	H	0.995860	-0.736282	-0.685940
H172	H	1.065098	-0.743623	-0.763861
H173	H	0.996933	-0.808472	-0.754775
C174	C	1.173687	-0.554073	-1.171806
C175	C	1.180706	-0.548285	-1.264803
C176	C	1.120557	-0.597944	-1.308625
H177	H	1.114124	-0.538584	-1.153033
H178	H	1.187701	-0.607182	-1.157233
H179	H	1.166686	-0.495187	-1.279370
H180	H	1.240255	-0.563780	-1.283603
H181	H	1.134571	-0.651053	-1.294052
H182	H	1.060998	-0.582451	-1.289845
H183	H	1.125317	-0.594029	-1.371728
H184	H	1.103186	-0.894742	-0.660463
C185	C	1.147678	-1.179935	-0.620967
C186	C	1.160719	-1.261136	-0.609381
C187	C	1.099916	-1.302229	-0.663423
H188	H	1.157249	-1.170040	-0.682178
H189	H	1.088010	-1.162631	-0.604259
H190	H	1.220373	-1.278433	-0.626095
H191	H	1.151142	-1.271054	-0.548182
H192	H	1.040248	-1.284926	-0.646715
H193	H	1.109492	-1.292328	-0.724631
H194	H	1.108750	-1.357327	-0.655563
C195	C	1.135482	-0.585547	-0.831443
C196	C	1.153083	-0.571008	-0.739867
C197	C	1.098300	-0.616160	-0.689411
H198	H	1.147686	-0.640111	-0.847475
H199	H	1.074171	-0.571462	-0.843293
H200	H	1.214380	-0.585099	-0.728023
H201	H	1.140874	-0.516453	-0.723808
H202	H	1.036988	-0.602075	-0.701261
H203	H	1.110508	-0.670721	-0.705450
H204	H	1.110228	-0.606296	-0.627271
H205	H	1.398691	-0.368371	-1.171846
