data_functionalizedCrystal
_audit_creation_method	'MofGen! by Chris Wilmer'
_symmetry_space_group_name_H-M	'P1'
_symmetry_Int_Tables_number	1
_symmetry_cell_setting	triclinic
loop_
_symmetry_equiv_pos_as_xyz
  x,y,z
_cell_length_a	14.044220
_cell_length_b	17.699083
_cell_length_c	16.776229
_cell_angle_alpha	89.994790
_cell_angle_beta	89.995954
_cell_angle_gamma	91.764054
loop_
_atom_site_label
_atom_site_type_symbol
_atom_site_fract_x
_atom_site_fract_y
_atom_site_fract_z
O1	O	1.257287	-0.182430	-0.066289
O2	O	0.981333	-0.175846	-0.066291
O3	O	1.127106	-0.069487	-0.066283
O4	O	1.111514	-0.288789	-0.066297
O5	O	1.127093	-0.069506	0.066293
O6	O	0.981319	-0.175866	0.066285
O7	O	1.257273	-0.182449	0.066287
Zn8	Zn	1.119294	-0.179160	0.087336
Zn9	Zn	1.119312	-0.179135	-0.087340
O10	O	1.111500	-0.288809	0.066279
C11	C	0.946018	-0.172974	-0.000003
C12	C	0.840812	-0.164378	-0.000004
C13	C	1.292588	-0.185321	-0.000003
C14	C	1.397794	-0.193917	-0.000007
C15	C	1.126541	-0.041261	0.000005
C16	C	1.124865	0.042873	0.000005
C17	C	1.590419	-0.209632	-0.000008
C18	C	1.648193	-0.148666	-0.000003
C19	C	1.755376	-0.157410	-0.000004
C20	C	1.483226	-0.200889	-0.000008
C21	C	1.112066	-0.317035	-0.000011
C22	C	1.113742	-0.401168	-0.000017
N23	N	1.119289	-0.179178	0.206547
C24	C	1.210431	0.085591	0.000007
C25	C	1.208850	0.164644	0.000000
C26	C	1.121702	0.200976	-0.000003
C27	C	1.036130	0.158252	-0.000007
C28	C	1.037712	0.079201	-0.000006
C29	C	1.029750	0.477055	-0.000014
C30	C	1.028175	0.556112	-0.000013
C31	C	1.200888	0.562498	-0.000008
C32	C	1.202470	0.483447	-0.000006
C33	C	1.116898	0.440730	-0.000015
C34	C	1.118613	0.355012	-0.000009
C35	C	1.119987	0.286692	-0.000003
N36	N	1.119325	-0.179112	-0.206551
C37	C	1.061953	-0.129313	0.751721
C38	C	1.061950	-0.129320	0.668269
C39	C	1.119316	-0.179129	0.626546
C40	C	1.176695	-0.228929	0.668280
C41	C	1.176701	-0.228919	0.751730
C42	C	1.176670	-0.228972	0.331733
C43	C	1.176657	-0.228981	0.248276
C44	C	1.061919	-0.129373	0.248271
C45	C	1.061926	-0.129363	0.331722
C46	C	1.119308	-0.179160	0.373448
C47	C	1.119311	-0.179152	0.463937
C48	C	1.119308	-0.179141	0.536059
H49	H	1.621453	-0.268389	-0.000012
N50	N	1.609283	-0.074943	-0.000016
N51	N	1.663541	-0.017619	-0.000021
H52	H	1.636059	0.034447	-0.000034
H53	H	1.223408	-0.269481	0.634302
H54	H	1.015234	-0.088757	0.785686
N55	N	1.299442	0.048469	0.000019
N56	N	1.319586	0.005067	0.055905
H57	H	1.382453	-0.021150	0.055912
H58	H	0.965173	0.187840	-0.000015
N59	N	1.296245	0.208291	0.000021
N60	N	1.294825	0.278871	0.000024
H61	H	1.356551	0.309698	0.000041
N62	N	1.291497	0.446347	0.000004
N63	N	1.367891	0.484499	0.000005
H64	H	1.430769	0.458299	0.000011
N65	N	0.939160	0.593239	-0.000014
N66	N	0.919004	0.636633	0.055871
H67	H	0.856142	0.662856	0.055872
N68	N	1.235242	-0.279857	0.374360
N69	N	1.235233	-0.279856	0.448869
H70	H	1.276593	-0.315802	0.478979
N71	N	1.003313	-0.078494	0.374339
N72	N	0.914974	-0.081553	0.365031
H73	H	0.873577	-0.045626	0.395128
H74	H	1.015198	-0.088823	0.214288
H75	H	1.270565	0.597288	-0.000005
N76	N	0.942335	0.433439	-0.000016
N77	N	0.864534	0.465891	-0.000013
H78	H	0.802792	0.435085	-0.000012
N79	N	1.003321	-0.078461	0.625658
N80	N	0.952087	-0.034006	0.662920
H81	H	0.910669	0.001910	0.632827
N82	N	0.950299	0.035574	-0.000018
N83	N	0.872494	0.068021	-0.000025
H84	H	0.810755	0.037210	-0.000039
N85	N	1.235267	-0.279864	0.205668
N86	N	1.286500	-0.324320	0.242932
H87	H	1.327892	-0.360255	0.212840
N88	N	1.235317	-0.279788	0.794345
N89	N	1.286535	-0.324256	0.757085
H90	H	1.327938	-0.360181	0.787180
