data_functionalizedCrystal
_audit_creation_method	'MofGen! by Chris Wilmer'
_symmetry_space_group_name_H-M	'P1'
_symmetry_Int_Tables_number	1
_symmetry_cell_setting	triclinic
loop_
_symmetry_equiv_pos_as_xyz
  x,y,z
_cell_length_a	21.395362
_cell_length_b	12.594516
_cell_length_c	21.395356
_cell_angle_alpha	89.979423
_cell_angle_beta	89.957023
_cell_angle_gamma	90.031933
loop_
_atom_site_label
_atom_site_type_symbol
_atom_site_fract_x
_atom_site_fract_y
_atom_site_fract_z
Zn1	Zn	0.957917	-0.423318	-0.354617
Zn2	Zn	1.291251	-0.089985	-0.021283
Zn3	Zn	1.624584	0.243349	0.312050
Zn4	Zn	0.957848	-0.601311	-0.249852
Zn5	Zn	1.291182	-0.267977	0.083481
Zn6	Zn	1.624515	0.065356	0.416815
Zn7	Zn	0.853134	-0.423396	-0.249818
Zn8	Zn	1.186467	-0.090063	0.083515
Zn9	Zn	1.519801	0.243271	0.416849
Zn10	Zn	0.853128	-0.601304	-0.354557
Zn11	Zn	1.186462	-0.267971	-0.021223
Zn12	Zn	1.519795	0.065363	0.312110
O13	O	0.905507	-0.512332	-0.302211
O14	O	1.238840	-0.178999	0.031123
O15	O	1.572174	0.154335	0.364456
O16	O	1.045586	-0.446899	-0.340759
O17	O	1.378919	-0.113566	-0.007425
O18	O	1.712253	0.219768	0.325908
O19	O	0.943931	-0.577745	-0.162170
O20	O	1.277265	-0.244412	0.171164
O21	O	1.610598	0.088921	0.504497
O22	O	0.867065	-0.274440	-0.263730
O23	O	1.200398	0.058894	0.069603
O24	O	1.533732	0.392227	0.402936
O25	O	1.045535	-0.577670	-0.263789
O26	O	1.378869	-0.244336	0.069545
O27	O	1.712202	0.088997	0.402878
O28	O	0.944049	-0.274382	-0.340725
O29	O	1.277382	0.058951	-0.007392
O30	O	1.610716	0.392284	0.325941
O31	O	0.866998	-0.447032	-0.162144
O32	O	1.200332	-0.113699	0.171189
O33	O	1.533665	0.219635	0.504522
O34	O	0.765455	-0.447026	-0.263672
O35	O	1.098789	-0.113692	0.069661
O36	O	1.432122	0.219641	0.402994
O37	O	0.867055	-0.577658	-0.442243
O38	O	1.200389	-0.244325	-0.108909
O39	O	1.533722	0.089008	0.224424
O40	O	0.765451	-0.577734	-0.340624
O41	O	1.098784	-0.244401	-0.007290
O42	O	1.432118	0.088933	0.326043
O43	O	0.944043	-0.446893	-0.442287
O44	O	1.277377	-0.113559	-0.108953
O45	O	1.610710	0.219774	0.224380
O46	O	0.943926	-0.750256	-0.263731
O47	O	1.277259	-0.416922	0.069603
O48	O	1.610592	-0.083589	0.402936
O49	O	0.866988	-0.750251	-0.340657
O50	O	1.200322	-0.416917	-0.007324
O51	O	1.533655	-0.083584	0.326010
C52	C	0.742719	-0.512388	-0.302138
C53	C	1.076053	-0.179055	0.031195
C54	C	1.409386	0.154278	0.364529
C55	C	0.673078	-0.512438	-0.302122
C56	C	1.006411	-0.179105	0.031211
C57	C	1.339745	0.154229	0.364545
C58	C	0.905466	-0.788873	-0.302205
C59	C	1.238799	-0.455540	0.031129
C60	C	1.572133	-0.122206	0.364462
C61	C	0.905506	-0.907179	-0.302223
C62	C	1.238839	-0.573845	0.031110
C63	C	1.572172	-0.240512	0.364444
C64	C	0.640379	-0.580588	-0.342130
C65	C	0.973712	-0.247255	-0.008797
C66	C	1.307046	0.086078	0.324536
C67	C	0.574944	-0.580562	-0.342158
C68	C	0.908277	-0.247229	-0.008825
C69	C	1.241610	0.086105	0.324508
C70	C	0.542210	-0.512397	-0.302167
C71	C	0.875543	-0.179064	0.031167
C72	C	1.208876	0.154270	0.364500
C73	C	0.574917	-0.444234	-0.262155
C74	C	0.908250	-0.110901	0.071178
C75	C	1.241583	0.222433	0.404511
C76	C	0.640351	-0.444254	-0.262133
C77	C	0.973684	-0.110921	0.071200
C78	C	1.307017	0.222412	0.404534
C79	C	0.438485	-0.503838	-0.245761
C80	C	0.771818	-0.170505	0.087573
C81	C	1.105151	0.162829	0.420906
C82	C	0.373052	-0.503825	-0.245782
C83	C	0.706385	-0.170492	0.087551
C84	C	1.039718	0.162842	0.420885
C85	C	0.340389	-0.512328	-0.302236
C86	C	0.673722	-0.178994	0.031098
C87	C	1.007056	0.154339	0.364431
C88	C	0.373167	-0.520866	-0.358670
C89	C	0.706501	-0.187533	-0.025337
C90	C	1.039834	0.145801	0.307997
C91	C	0.438602	-0.520886	-0.358648
C92	C	0.771935	-0.187553	-0.025314
C93	C	1.105268	0.145780	0.308019
C94	C	0.471257	-0.512367	-0.302187
C95	C	0.804591	-0.179033	0.031147
C96	C	1.137924	0.154300	0.364480
C97	C	0.236738	-0.580453	-0.342278
C98	C	0.570071	-0.247120	-0.008945
C99	C	0.903404	0.086214	0.324389
C100	C	0.171301	-0.580420	-0.342307
C101	C	0.504634	-0.247086	-0.008974
C102	C	0.837968	0.086247	0.324360
C103	C	0.171275	-0.444097	-0.262298
C104	C	0.504608	-0.110764	0.071035
C105	C	0.837942	0.222570	0.404369
C106	C	0.236710	-0.444125	-0.262275
C107	C	0.570044	-0.110791	0.071059
C108	C	0.903377	0.222542	0.404392
C109	C	0.269438	-0.512309	-0.302264
C110	C	0.602771	-0.178975	0.031070
C111	C	0.936104	0.154358	0.364403
C112	C	0.863655	-0.976468	-0.344034
C113	C	1.196989	-0.643134	-0.010700
C114	C	1.530322	-0.309801	0.322633
C115	C	0.848387	-1.047331	-0.286856
C116	C	1.181720	-0.713997	0.046477
C117	C	1.515054	-0.380664	0.379810
C118	C	0.920831	-1.047114	-0.359410
C119	C	1.254165	-0.713781	-0.026077
C120	C	1.587498	-0.380448	0.307257
C121	C	0.890207	-0.976483	-0.245015
C122	C	1.223540	-0.643150	0.088318
C123	C	1.556874	-0.309817	0.421651
C124	C	0.962678	-0.976261	-0.317608
C125	C	1.296011	-0.642927	0.015726
C126	C	1.629345	-0.309594	0.349059
C127	C	0.947431	-1.047092	-0.260391
C128	C	1.280765	-0.713759	0.072942
C129	C	1.614098	-0.380425	0.406276
C130	C	1.068930	-0.512276	-0.302284
C131	C	1.402264	-0.178943	0.031049
C132	C	1.735597	0.154390	0.364383
C133	C	1.138572	-0.512253	-0.302315
C134	C	1.471905	-0.178919	0.031018
C135	C	1.805238	0.154414	0.364351
C136	C	0.905556	-0.512266	-0.465634
C137	C	1.238890	-0.178933	-0.132301
C138	C	1.572223	0.154401	0.201032
C139	C	0.905577	-0.512238	-0.535275
C140	C	1.238911	-0.178905	-0.201942
C141	C	1.572244	0.154429	0.131391
C142	C	0.905565	-0.234711	-0.302231
C143	C	1.238899	0.098622	0.031103
C144	C	1.572232	0.431955	0.364436
C145	C	0.905590	-0.116406	-0.302239
C146	C	1.238923	0.216928	0.031094
C147	C	1.572257	0.550261	0.364427
C148	C	0.865529	-0.444168	-0.567966
C149	C	1.198862	-0.110835	-0.234632
C150	C	1.532196	0.222499	0.098701
C151	C	0.865527	-0.444148	-0.633401
C152	C	1.198860	-0.110815	-0.300068
C153	C	1.532193	0.222518	0.033266
C154	C	0.905584	-0.512187	-0.666144
C155	C	1.238918	-0.178854	-0.332811
C156	C	1.572251	0.154479	0.000523
C157	C	0.945635	-0.580271	-0.633446
C158	C	1.278969	-0.246937	-0.300112
C159	C	1.612302	0.086396	0.033221
C160	C	0.945632	-0.580296	-0.568012
C161	C	1.278965	-0.246963	-0.234678
C162	C	1.612299	0.086371	0.098655
C163	C	0.962037	-0.520529	-0.769850
C164	C	1.295371	-0.187196	-0.436517
C165	C	1.628704	0.146138	-0.103183
C166	C	0.962042	-0.520496	-0.835283
C167	C	1.295375	-0.187163	-0.501950
C168	C	1.628709	0.146171	-0.168616
C169	C	0.905595	-0.512115	-0.867965
C170	C	1.238928	-0.178782	-0.534631
C171	C	1.572261	0.154551	-0.201298
C172	C	0.849141	-0.503745	-0.835206
C173	C	1.182474	-0.170412	-0.501872
C174	C	1.515807	0.162921	-0.168539
C175	C	0.849137	-0.503771	-0.769771
C176	C	1.182471	-0.170437	-0.436438
C177	C	1.515804	0.162896	-0.103105
C178	C	0.905592	-0.512168	-0.737096
C179	C	1.238925	-0.178835	-0.403763
C180	C	1.572259	0.154499	-0.070430
C181	C	0.865540	-0.444020	-0.971607
C182	C	1.198874	-0.110687	-0.638274
C183	C	1.532207	0.222646	-0.304941
C184	C	0.865537	-0.444008	-1.037044
C185	C	1.198871	-0.110675	-0.703711
C186	C	1.532204	0.222658	-0.370377
C187	C	0.945651	-0.580125	-1.037088
C188	C	1.278985	-0.246792	-0.703754
C189	C	1.612318	0.086542	-0.370421
C190	C	0.945649	-0.580143	-0.971652
C191	C	1.278982	-0.246810	-0.638319
C192	C	1.612316	0.086524	-0.304986
C193	C	0.905594	-0.512085	-0.938916
C194	C	1.238928	-0.178752	-0.605583
C195	C	1.572261	0.154582	-0.272249
C196	C	0.905494	-0.512321	-0.139423
C197	C	1.238827	-0.178988	0.193910
C198	C	1.572161	0.154346	0.527243
C199	C	0.905594	-0.512049	-0.069782
C200	C	1.238928	-0.178716	0.263551
C201	C	1.572261	0.154617	0.596884
H202	H	0.667022	-0.636107	-0.374694
H203	H	1.000355	-0.302774	-0.041360
H204	H	1.333688	0.030559	0.291973
H205	H	0.548315	-0.636058	-0.374740
H206	H	0.881648	-0.302724	-0.041407
H207	H	1.214982	0.030609	0.291926
Cl208	Cl	0.808919	-0.928583	-0.398545
Cl209	Cl	1.142253	-0.595250	-0.065212
Cl210	Cl	1.475586	-0.261916	0.268122
Cl211	Cl	0.773796	-1.095524	-0.266769
Cl212	Cl	1.107130	-0.762191	0.066564
Cl213	Cl	1.440463	-0.428858	0.399897
Cl214	Cl	1.033010	-0.531030	-0.876459
Cl215	Cl	1.366344	-0.197697	-0.543126
Cl216	Cl	1.699677	0.135636	-0.209792
Cl217	Cl	0.815171	-0.358615	-0.526815
Cl218	Cl	1.148505	-0.025281	-0.193482
Cl219	Cl	1.481838	0.308052	0.139852
Cl220	Cl	1.002131	-1.094671	-0.205752
Cl221	Cl	1.335464	-0.761338	0.127581
Cl222	Cl	1.668797	-0.428005	0.460915
Cl223	Cl	0.870162	-0.928787	-0.170336
Cl224	Cl	1.203495	-0.595454	0.162997
Cl225	Cl	1.536828	-0.262120	0.496331
Cl226	Cl	0.815190	-0.358544	-0.674506
Cl227	Cl	1.148523	-0.025211	-0.341173
Cl228	Cl	1.481857	0.308122	-0.007839
Cl229	Cl	0.130193	-0.666096	-0.392612
Cl230	Cl	0.463526	-0.332763	-0.059278
Cl231	Cl	0.796860	0.000571	0.274055
H232	H	0.465073	-0.496909	-0.199786
H233	H	0.798407	-0.163576	0.133547
H234	H	1.131740	0.169757	0.466881
H235	H	0.978247	-0.635726	-0.541396
H236	H	1.311580	-0.302392	-0.208062
H237	H	1.644914	0.030941	0.125271
Cl238	Cl	0.479806	-0.531613	-0.429590
Cl239	Cl	0.813140	-0.198279	-0.096257
Cl240	Cl	1.146473	0.135054	0.237077
Cl241	Cl	1.037249	-0.928028	-0.337720
Cl242	Cl	1.370582	-0.594694	-0.004386
Cl243	Cl	1.703915	-0.261361	0.328947
H244	H	0.144624	-0.388591	-0.229739
H245	H	0.477957	-0.055257	0.103594
H246	H	0.811290	0.278076	0.436928
H247	H	1.008008	-0.527344	-0.743246
H248	H	1.341341	-0.194011	-0.409912
H249	H	1.674674	0.139322	-0.076579
H250	H	0.666974	-0.388755	-0.229553
H251	H	1.000307	-0.055422	0.103780
H252	H	1.333641	0.277912	0.437114
H253	H	0.933759	-1.078140	-0.407766
H254	H	1.267093	-0.744807	-0.074433
H255	H	1.600426	-0.411474	0.258901
Cl256	Cl	0.815184	-0.358470	-0.930450
Cl257	Cl	1.148517	-0.025137	-0.597117
Cl258	Cl	1.481850	0.308196	-0.263784
H259	H	0.263334	-0.388635	-0.229692
H260	H	0.596668	-0.055302	0.103641
H261	H	0.930001	0.278032	0.436974
H262	H	0.803171	-0.496958	-0.743101
H263	H	1.136504	-0.163624	-0.409768
H264	H	1.469838	0.169709	-0.076435
H265	H	0.803176	-0.496914	-0.861814
H266	H	1.136510	-0.163580	-0.528480
H267	H	1.469843	0.169753	-0.195147
H268	H	0.548260	-0.388732	-0.229595
H269	H	0.881594	-0.055398	0.103739
H270	H	1.214927	0.277935	0.437072
Cl271	Cl	0.332113	-0.531549	-0.429646
Cl272	Cl	0.665447	-0.198216	-0.096313
Cl273	Cl	0.998780	0.135117	0.237021
Cl274	Cl	0.815168	-0.358456	-1.078141
Cl275	Cl	1.148501	-0.025123	-0.744808
Cl276	Cl	1.481835	0.308210	-0.411474
Cl277	Cl	0.996006	-0.665668	-1.078244
Cl278	Cl	1.329339	-0.332335	-0.744910
Cl279	Cl	1.662673	0.000999	-0.411577
Cl280	Cl	0.996003	-0.665714	-0.930554
Cl281	Cl	1.329336	-0.332381	-0.597220
Cl282	Cl	1.662670	0.000952	-0.263887
H283	H	0.263386	-0.635967	-0.374843
H284	H	0.596719	-0.302634	-0.041509
H285	H	0.930052	0.030700	0.291824
H286	H	0.346369	-0.496879	-0.199830
H287	H	0.679702	-0.163546	0.133504
H288	H	1.013035	0.169788	0.466837
Cl289	Cl	0.995990	-0.665811	-0.674607
Cl290	Cl	1.329324	-0.332477	-0.341274
Cl291	Cl	1.662657	0.000856	-0.007940
