data_functionalizedCrystal
_audit_creation_method	'MofGen! by Chris Wilmer'
_symmetry_space_group_name_H-M	'P1'
_symmetry_Int_Tables_number	1
_symmetry_cell_setting	triclinic
loop_
_symmetry_equiv_pos_as_xyz
  x,y,z
_cell_length_a	15.297475
_cell_length_b	21.295417
_cell_length_c	21.295411
_cell_angle_alpha	90.028718
_cell_angle_beta	99.680691
_cell_angle_gamma	80.332118
loop_
_atom_site_label
_atom_site_type_symbol
_atom_site_fract_x
_atom_site_fract_y
_atom_site_fract_z
Zn1	Zn	1.379104	-0.417437	0.522140
Zn2	Zn	1.712437	-0.084103	0.855474
Zn3	Zn	2.045770	0.249230	1.188807
Zn4	Zn	1.378985	-0.522687	0.416852
Zn5	Zn	1.712319	-0.189354	0.750185
Zn6	Zn	2.045652	0.143980	1.083518
Zn7	Zn	1.228250	-0.399205	0.398703
Zn8	Zn	1.561584	-0.065871	0.732036
Zn9	Zn	1.894917	0.267462	1.065369
Zn10	Zn	1.228185	-0.504419	0.503907
Zn11	Zn	1.561518	-0.171085	0.837240
Zn12	Zn	1.894852	0.162248	1.170573
O13	O	1.303631	-0.460937	0.460400
O14	O	1.636964	-0.127603	0.793734
O15	O	1.970298	0.205730	1.127067
O16	O	1.505331	-0.446674	0.523400
O17	O	1.838664	-0.113341	0.856733
O18	O	2.171998	0.219993	1.190067
O19	O	1.358968	-0.506322	0.326352
O20	O	1.692301	-0.172989	0.659685
O21	O	2.025634	0.160344	0.993019
O22	O	1.248338	-0.313543	0.415112
O23	O	1.581672	0.019790	0.748446
O24	O	1.915005	0.353124	1.081779
O25	O	1.505244	-0.524001	0.446045
O26	O	1.838577	-0.190668	0.779378
O27	O	2.171911	0.142666	1.112711
O28	O	1.359170	-0.326938	0.505802
O29	O	1.692503	0.006395	0.839135
O30	O	2.025836	0.339729	1.172468
O31	O	1.248223	-0.415600	0.313018
O32	O	1.581557	-0.082267	0.646351
O33	O	1.914890	0.251066	0.979685
O34	O	1.101999	-0.397886	0.397432
O35	O	1.435332	-0.064553	0.730765
O36	O	1.768665	0.268781	1.064098
O37	O	1.248227	-0.492865	0.594418
O38	O	1.581560	-0.159532	0.927751
O39	O	1.914894	0.173802	1.261084
O40	O	1.101951	-0.475186	0.474725
O41	O	1.435284	-0.141853	0.808058
O42	O	1.768617	0.191480	1.141392
O43	O	1.359106	-0.428960	0.607814
O44	O	1.692440	-0.095626	0.941147
O45	O	2.025773	0.237707	1.274481
O46	O	1.358904	-0.608344	0.428364
O47	O	1.692238	-0.275011	0.761698
O48	O	2.025571	0.058323	1.095031
O49	O	1.248112	-0.594922	0.492323
O50	O	1.581445	-0.261589	0.825657
O51	O	1.914779	0.071745	1.158990
C52	C	1.069241	-0.432576	0.432131
C53	C	1.402574	-0.099242	0.765464
C54	C	1.735908	0.234091	1.098797
C55	C	0.968968	-0.420458	0.420052
C56	C	1.302301	-0.087125	0.753385
C57	C	1.635635	0.246209	1.086718
C58	C	0.686315	-0.547549	0.546732
C59	C	1.019648	-0.214216	0.880065
C60	C	1.352982	0.119118	1.213399
C61	C	0.780527	-0.558939	0.558079
C62	C	1.113860	-0.225606	0.891412
C63	C	1.447193	0.107728	1.224746
C64	C	0.827642	-0.524320	0.523573
C65	C	1.160975	-0.190986	0.856907
C66	C	1.494308	0.142347	1.190240
C67	C	0.780536	-0.478309	0.477718
C68	C	1.113869	-0.144975	0.811052
C69	C	1.447203	0.188358	1.144385
C70	C	0.686315	-0.466921	0.466367
C71	C	1.019648	-0.133588	0.799700
C72	C	1.352982	0.199746	1.133033
C73	C	0.827642	-0.443692	0.443208
C74	C	1.160975	-0.110358	0.776541
C75	C	1.494308	0.222975	1.109875
C76	C	0.780536	-0.397680	0.397353
C77	C	1.113869	-0.064347	0.730686
C78	C	1.447202	0.268986	1.064020
C79	C	0.686324	-0.386295	0.386004
C80	C	1.019658	-0.052961	0.719337
C81	C	1.352991	0.280372	1.052670
C82	C	0.639209	-0.420914	0.420509
C83	C	0.972543	-0.087581	0.753843
C84	C	1.305876	0.245753	1.087176
C85	C	0.921862	-0.455079	0.454560
C86	C	1.255196	-0.121746	0.787893
C87	C	1.588529	0.211588	1.121226
C88	C	0.921862	-0.374451	0.374194
C89	C	1.255196	-0.041118	0.707528
C90	C	1.588529	0.292216	1.040861
C91	C	0.827651	-0.363061	0.362847
C92	C	1.160984	-0.029728	0.696181
C93	C	1.494317	0.303606	1.029514
C94	C	1.303513	-0.624474	0.460351
C95	C	1.636846	-0.291141	0.793685
C96	C	1.970179	0.042193	1.127018
C97	C	1.303545	-0.694446	0.460361
C98	C	1.636878	-0.361113	0.793695
C99	C	1.970211	-0.027779	1.127028
C100	C	1.361286	-0.734287	0.427105
C101	C	1.694619	-0.400953	0.760438
C102	C	2.027952	-0.067620	1.093772
C103	C	1.361328	-0.800034	0.427124
C104	C	1.694661	-0.466701	0.760458
C105	C	2.027994	-0.133368	1.093791
C106	C	1.303613	-0.825937	0.460391
C107	C	1.636947	-0.492603	0.793724
C108	C	1.970280	-0.159270	1.127058
C109	C	1.245868	-0.786088	0.493655
C110	C	1.579202	-0.452754	0.826988
C111	C	1.912535	-0.119421	1.160321
C112	C	1.245834	-0.720342	0.493640
C113	C	1.579167	-0.387009	0.826973
C114	C	1.912501	-0.053676	1.160306
N115	N	1.224694	-0.919658	0.455672
N116	N	1.558028	-0.586324	0.789005
N117	N	1.891361	-0.252991	1.122338
N118	N	1.224729	-0.982113	0.455683
N119	N	1.558063	-0.648780	0.789016
N120	N	1.891396	-0.315447	1.122349
C121	C	1.303714	-1.024024	0.460439
C122	C	1.637048	-0.690690	0.793773
C123	C	1.970381	-0.357357	1.127106
N124	N	1.382665	-1.001119	0.465173
N125	N	1.715998	-0.667786	0.798506
N126	N	2.049331	-0.334452	1.131840
N127	N	1.382628	-0.938658	0.465159
N128	N	1.715962	-0.605324	0.798492
N129	N	2.049295	-0.271991	1.131825
C130	C	1.303644	-0.897226	0.460411
C131	C	1.636978	-0.563893	0.793745
C132	C	1.970311	-0.230559	1.127078
C133	C	1.361506	-1.135156	0.427203
C134	C	1.694839	-0.801823	0.760536
C135	C	2.028172	-0.468489	1.093869
C136	C	1.361550	-1.200905	0.427227
C137	C	1.694883	-0.867572	0.760560
C138	C	2.028216	-0.534238	1.093893
C139	C	1.246082	-1.186956	0.493752
C140	C	1.579415	-0.853623	0.827086
C141	C	1.912749	-0.520290	1.160419
C142	C	1.246046	-1.121209	0.493733
C143	C	1.579380	-0.787876	0.827066
C144	C	1.912713	-0.454543	1.160400
C145	C	1.303757	-1.095313	0.460454
C146	C	1.637090	-0.761980	0.793788
C147	C	1.970424	-0.428646	1.127121
C148	C	1.538936	-0.489409	0.488781
C149	C	1.872270	-0.156076	0.822114
C150	C	2.205603	0.177258	1.155447
C151	C	1.639209	-0.501542	0.500875
C152	C	1.972543	-0.168209	0.834208
C153	C	2.305876	0.165125	1.167542
C154	C	1.303673	-0.460908	0.624596
C155	C	1.637006	-0.127575	0.957929
C156	C	1.970339	0.205758	1.291262
C157	C	1.303690	-0.460896	0.694566
C158	C	1.637024	-0.127563	1.027899
C159	C	1.970357	0.205771	1.361233
C160	C	1.303774	-0.296764	0.460466
C161	C	1.637108	0.036570	0.793800
C162	C	1.970441	0.369903	1.127133
C163	C	1.303835	-0.226803	0.460495
C164	C	1.637169	0.106530	0.793828
C165	C	1.970502	0.439864	1.127161
C166	C	1.303642	-0.460926	0.296850
C167	C	1.636975	-0.127593	0.630183
C168	C	1.970308	0.205741	0.963517
C169	C	1.303799	-0.460782	0.226901
C170	C	1.637132	-0.127449	0.560235
C171	C	1.970465	0.205885	0.893568
C172	C	1.361456	-0.508017	1.200980
C173	C	1.694789	-0.174683	1.534313
C174	C	2.028122	0.158650	1.867647
C175	C	1.361439	-0.508035	1.135235
C176	C	1.694773	-0.174702	1.468569
C177	C	2.028106	0.158632	1.801902
C178	C	1.303776	-0.460808	1.095416
C179	C	1.637109	-0.127475	1.428749
C180	C	1.970442	0.205858	1.762083
C181	C	1.246108	-0.413569	1.121344
C182	C	1.579441	-0.080236	1.454677
C183	C	1.912774	0.253097	1.788011
C184	C	1.246119	-0.413556	1.187087
C185	C	1.579452	-0.080223	1.520420
C186	C	1.912786	0.253110	1.853753
N187	N	1.296885	-0.404895	0.991380
N188	N	1.630218	-0.071562	1.324713
N189	N	1.963551	0.261771	1.658047
N190	N	1.296879	-0.404910	0.928928
N191	N	1.630212	-0.071577	1.262261
N192	N	1.963546	0.261756	1.595595
C193	C	1.303736	-0.460846	0.897336
C194	C	1.637069	-0.127513	1.230670
C195	C	1.970403	0.205821	1.564003
N196	N	1.310616	-0.516769	0.930558
N197	N	1.643950	-0.183436	1.263892
N198	N	1.977283	0.149897	1.597225
N199	N	1.310627	-0.516754	0.993017
N200	N	1.643960	-0.183421	1.326350
N201	N	1.977294	0.149912	1.659683
C202	C	1.303756	-0.460818	1.024128
C203	C	1.637090	-0.127484	1.357461
C204	C	1.970423	0.205849	1.690795
C205	C	1.361378	-0.508104	0.800128
C206	C	1.694712	-0.174771	1.133461
C207	C	2.028045	0.158563	1.466794
C208	C	1.361356	-0.508122	0.734381
C209	C	1.694689	-0.174789	1.067714
C210	C	2.028022	0.158544	1.401048
C211	C	1.246029	-0.413652	0.720491
C212	C	1.579362	-0.080319	1.053825
C213	C	1.912695	0.253015	1.387158
C214	C	1.246047	-0.413639	0.786236
C215	C	1.579380	-0.080305	1.119569
C216	C	1.912713	0.253028	1.452903
C217	C	1.303726	-0.460864	0.826051
C218	C	1.637060	-0.127531	1.159384
C219	C	1.970393	0.205802	1.492717
H220	H	0.647946	-0.575735	0.574818
H221	H	0.981279	-0.242402	0.908151
H222	H	1.314612	0.090932	1.241485
H223	H	0.789284	-0.325599	0.325512
H224	H	1.122617	0.007735	0.658845
H225	H	1.455951	0.341068	0.992178
C226	C	1.424897	-0.559971	1.244771
C227	C	1.758230	-0.226638	1.578105
C228	C	2.091563	0.106695	1.911438
N229	N	1.472678	-0.599106	1.277756
N230	N	1.806011	-0.265773	1.611089
N231	N	2.139345	0.067561	1.944423
C232	C	1.424810	-0.560074	0.705871
C233	C	1.758143	-0.226740	1.039205
C234	C	2.091476	0.106593	1.372538
N235	N	1.472615	-0.599199	0.684399
N236	N	1.805948	-0.265865	1.017732
N237	N	2.139282	0.067468	1.351066
H238	H	1.199167	-0.375091	1.208190
H239	H	1.532500	-0.041757	1.541524
H240	H	1.865834	0.291576	1.874857
H241	H	1.199156	-0.375118	1.088918
H242	H	1.532490	-0.041785	1.422252
H243	H	1.865823	0.291549	1.755585
H244	H	1.408342	-0.546559	0.832546
H245	H	1.741676	-0.213226	1.165880
H246	H	2.075009	0.120107	1.499213
H247	H	1.198878	-0.807182	0.520742
H248	H	1.532212	-0.473849	0.854075
H249	H	1.865545	-0.140515	1.187409
C250	C	1.182597	-1.215445	0.530348
C251	C	1.515930	-0.882112	0.863681
C252	C	1.849263	-0.548779	1.197015
N253	N	1.134779	-1.236906	0.557914
N254	N	1.468113	-0.903573	0.891247
N255	N	1.801446	-0.570240	1.224580
H256	H	0.647973	-0.348836	0.348659
H257	H	0.981307	-0.015502	0.681992
H258	H	1.314640	0.317831	1.015326
C259	C	0.973685	-0.336365	0.336237
C260	C	1.307018	-0.003032	0.669570
C261	C	1.640351	0.330301	1.002904
N262	N	1.012723	-0.307682	0.307650
N263	N	1.346057	0.025651	0.640983
N264	N	1.679390	0.358985	0.974317
H265	H	1.408351	-0.832479	0.400044
H266	H	1.741684	-0.499146	0.733377
H267	H	2.075017	-0.165812	1.066711
C268	C	1.425072	-1.244731	0.390640
C269	C	1.758405	-0.911397	0.723973
C270	C	2.091738	-0.578064	1.057306
N271	N	1.472916	-1.277740	0.363080
N272	N	1.806249	-0.944407	0.696413
N273	N	2.139583	-0.611074	1.029747
C274	C	0.535570	-0.408378	0.408039
C275	C	0.868903	-0.075045	0.741373
C276	C	1.202237	0.258289	1.074706
N277	N	0.457508	-0.398934	0.398652
N278	N	0.790841	-0.065601	0.731985
N279	N	1.124175	0.267733	1.065318
H280	H	1.408279	-0.713205	0.400010
H281	H	1.741612	-0.379871	0.733343
H282	H	2.074946	-0.046538	1.066677
C283	C	1.182323	-0.676517	0.530235
C284	C	1.515657	-0.343184	0.863568
C285	C	1.848990	-0.009850	1.196901
N286	N	1.134489	-0.643507	0.557802
N287	N	1.467823	-0.310174	0.891135
N288	N	1.801156	0.023160	1.224468
C289	C	1.425001	-1.106670	0.390607
C290	C	1.758335	-0.773336	0.723940
C291	C	2.091668	-0.440003	1.057274
N292	N	1.472830	-1.085216	0.363046
N293	N	1.806163	-0.751882	0.696379
N294	N	2.139497	-0.418549	1.029712
C295	C	1.182544	-1.077385	0.530333
C296	C	1.515878	-0.744051	0.863666
C297	C	1.849211	-0.410718	1.196999
N298	N	1.134722	-1.044377	0.557910
N299	N	1.468055	-0.711044	0.891243
N300	N	1.801389	-0.377711	1.224577
H301	H	1.199076	-0.375200	0.688071
H302	H	1.532409	-0.041867	1.021404
H303	H	1.865742	0.291466	1.354737
C304	C	1.424867	-0.560000	1.106715
C305	C	1.758201	-0.226666	1.440049
C306	C	2.091534	0.106667	1.773382
N307	N	1.472642	-0.599140	1.085236
N308	N	1.805975	-0.265806	1.418569
N309	N	2.139308	0.067527	1.751902
C310	C	1.182631	-0.361669	0.814752
C311	C	1.515964	-0.028336	1.148085
C312	C	1.849297	0.304998	1.481418
N313	N	1.134864	-0.322523	0.836229
N314	N	1.468197	0.010811	1.169563
N315	N	1.801530	0.344144	1.502896
H316	H	0.960207	-0.492541	0.491896
H317	H	1.293540	-0.159208	0.825229
H318	H	1.626873	0.174125	1.158562
H319	H	0.904353	-0.533596	0.532815
H320	H	1.237686	-0.200263	0.866149
H321	H	1.571020	0.133071	1.199482
H322	H	0.818873	-0.596403	0.595413
H323	H	1.152207	-0.263069	0.928746
H324	H	1.485540	0.070264	1.262080
