data_functionalizedCrystal
_audit_creation_method	'MofGen! by Chris Wilmer'
_symmetry_space_group_name_H-M	'P1'
_symmetry_Int_Tables_number	1
_symmetry_cell_setting	triclinic
loop_
_symmetry_equiv_pos_as_xyz
  x,y,z
_cell_length_a	19.288835
_cell_length_b	17.766277
_cell_length_c	19.288865
_cell_angle_alpha	89.989546
_cell_angle_beta	83.130103
_cell_angle_gamma	89.982126
loop_
_atom_site_label
_atom_site_type_symbol
_atom_site_fract_x
_atom_site_fract_y
_atom_site_fract_z
O1	O	-0.921367	0.062750	-0.086548
O2	O	-0.588033	0.396084	0.246785
O3	O	-0.254700	0.729417	0.580119
O4	O	-0.719103	0.062721	-0.098259
O5	O	-0.385770	0.396054	0.235075
O6	O	-0.052436	0.729387	0.568408
O7	O	-0.826079	0.062721	0.008728
O8	O	-0.492746	0.396055	0.342061
O9	O	-0.159413	0.729388	0.675394
O10	O	-0.814390	0.062750	-0.193534
O11	O	-0.481057	0.396083	0.139799
O12	O	-0.147724	0.729416	0.473132
O13	O	-0.826060	-0.062467	0.008731
O14	O	-0.492727	0.270866	0.342064
O15	O	-0.159393	0.604200	0.675397
O16	O	-0.719084	-0.062468	-0.098256
O17	O	-0.385751	0.270865	0.235078
O18	O	-0.052417	0.604199	0.568411
O19	O	-0.921347	-0.062438	-0.086545
O20	O	-0.588014	0.270895	0.246788
O21	O	-0.254681	0.604229	0.580122
Cu22	Cu	-0.820214	-0.073884	-0.092400
Cu23	Cu	-0.486881	0.259450	0.240933
Cu24	Cu	-0.153547	0.592783	0.574267
Cu25	Cu	-0.820237	0.074166	-0.092404
Cu26	Cu	-0.486903	0.407500	0.240930
Cu27	Cu	-0.153570	0.740833	0.574263
O28	O	-0.814371	-0.062439	-0.193531
O29	O	-0.481038	0.270894	0.139802
O30	O	-0.147705	0.604228	0.473135
C31	C	-0.693217	0.000122	-0.097884
C32	C	-0.359883	0.333456	0.235450
C33	C	-0.026550	0.666789	0.568783
C34	C	-0.616112	0.000110	-0.096763
C35	C	-0.282779	0.333444	0.236570
C36	C	0.050555	0.666777	0.569904
N37	N	-0.820203	-0.178014	-0.092397
N38	N	-0.486870	0.155319	0.240936
N39	N	-0.153536	0.488653	0.574270
C40	C	-0.579919	0.068352	-0.096226
C41	C	-0.246585	0.401685	0.237107
C42	C	0.086748	0.735018	0.570440
C43	C	-0.507472	0.068359	-0.095166
C44	C	-0.174138	0.401692	0.238168
C45	C	0.159195	0.735026	0.571501
C46	C	-0.471222	0.000121	-0.094628
C47	C	-0.137889	0.333455	0.238706
C48	C	0.195444	0.666788	0.572039
C49	C	-0.507424	-0.068129	-0.095168
C50	C	-0.174090	0.265204	0.238165
C51	C	0.159243	0.598538	0.571498
C52	C	-0.579869	-0.068134	-0.096236
C53	C	-0.246535	0.265199	0.237097
C54	C	0.086798	0.598532	0.570430
C55	C	-0.361886	-0.052156	-0.052251
C56	C	-0.028553	0.281177	0.281083
C57	C	0.304780	0.614511	0.614416
C58	C	-0.289444	-0.052148	-0.051179
C59	C	0.043890	0.281186	0.282155
C60	C	0.377223	0.614519	0.615488
C61	C	-0.247778	0.000135	-0.091338
C62	C	0.085555	0.333468	0.241996
C63	C	0.418888	0.666802	0.575329
C64	C	-0.278566	0.052422	-0.132560
C65	C	0.054768	0.385755	0.200774
C66	C	0.388101	0.719089	0.534107
C67	C	-0.351011	0.052417	-0.133628
C68	C	-0.017677	0.385750	0.199706
C69	C	0.315656	0.719083	0.533039
C70	C	-0.392668	0.000119	-0.093470
C71	C	-0.059335	0.333453	0.239863
C72	C	0.273999	0.666786	0.573196
C73	C	-0.133029	0.068389	-0.089652
C74	C	0.200304	0.401722	0.243682
C75	C	0.533637	0.735056	0.577015
C76	C	-0.060580	0.068393	-0.088595
C77	C	0.272753	0.401727	0.244738
C78	C	0.606086	0.735060	0.578071
C79	C	-0.060535	-0.068097	-0.088591
C80	C	0.272798	0.265237	0.244742
C81	C	0.606132	0.598570	0.578076
C82	C	-0.132982	-0.068099	-0.089655
C83	C	0.200352	0.265234	0.243679
C84	C	0.533685	0.598568	0.577012
C85	C	-0.169225	0.000146	-0.090181
C86	C	0.164108	0.333479	0.243152
C87	C	0.497442	0.666812	0.576485
C88	C	-0.862191	-0.217382	-0.134416
C89	C	-0.528858	0.115951	0.198917
C90	C	-0.195524	0.449285	0.532250
C91	C	-0.862202	-0.296184	-0.134414
C92	C	-0.528869	0.037150	0.198919
C93	C	-0.195535	0.370483	0.532252
C94	C	-0.820212	-0.335615	-0.092401
C95	C	-0.486879	-0.002281	0.240932
C96	C	-0.153545	0.331052	0.574266
C97	C	-0.778221	-0.296237	-0.050373
C98	C	-0.444888	0.037096	0.282960
C99	C	-0.111555	0.370429	0.616293
C100	C	-0.778217	-0.217437	-0.050371
C101	C	-0.444884	0.115896	0.282962
C102	C	-0.111550	0.449230	0.616295
C103	C	-0.757599	-0.460484	-0.090651
C104	C	-0.424265	-0.127151	0.242682
C105	C	-0.090932	0.206183	0.576016
C106	C	-0.757602	-0.539283	-0.090658
C107	C	-0.424268	-0.205949	0.242675
C108	C	-0.090935	0.127384	0.576009
C109	C	-0.820226	-0.578661	-0.092403
C110	C	-0.486893	-0.245328	0.240930
C111	C	-0.153560	0.088006	0.574263
C112	C	-0.882849	-0.539231	-0.094156
C113	C	-0.549516	-0.205897	0.239177
C114	C	-0.216183	0.127436	0.572511
C115	C	-0.882845	-0.460430	-0.094154
C116	C	-0.549511	-0.127097	0.239179
C117	C	-0.216178	0.206236	0.572513
C118	C	-0.820213	-0.421060	-0.092398
C119	C	-0.486879	-0.087727	0.240935
C120	C	-0.153546	0.245606	0.574268
C121	C	-0.862230	-0.703475	-0.134423
C122	C	-0.528897	-0.370141	0.198911
C123	C	-0.195563	-0.036808	0.532244
C124	C	-0.862242	-0.782278	-0.134416
C125	C	-0.528909	-0.448945	0.198918
C126	C	-0.195576	-0.115611	0.532251
C127	C	-0.778255	-0.782330	-0.050379
C128	C	-0.444922	-0.448997	0.282955
C129	C	-0.111589	-0.115663	0.616288
C130	C	-0.778249	-0.703528	-0.050382
C131	C	-0.444916	-0.370195	0.282952
C132	C	-0.111583	-0.036862	0.616285
C133	C	-0.820236	-0.664105	-0.092407
C134	C	-0.486902	-0.330772	0.240926
C135	C	-0.153569	0.002561	0.574259
C136	C	0.052767	0.000156	-0.086924
C137	C	0.386100	0.333489	0.246409
C138	C	0.719433	0.666823	0.579742
C139	C	-0.024336	0.000155	-0.088059
C140	C	0.308997	0.333488	0.245275
C141	C	0.642331	0.666822	0.578608
C142	C	-0.825694	0.000125	0.034606
C143	C	-0.492360	0.333458	0.367939
C144	C	-0.159027	0.666792	0.701272
C145	C	-0.824565	0.000118	0.111709
C146	C	-0.491231	0.333451	0.445042
C147	C	-0.157898	0.666785	0.778376
N148	N	-0.820253	0.178297	-0.092401
N149	N	-0.486920	0.511630	0.240932
N150	N	-0.153586	0.844963	0.574266
C151	C	-0.814757	0.000159	-0.219409
C152	C	-0.481424	0.333493	0.113924
C153	C	-0.148090	0.666826	0.447257
C154	C	-0.815886	0.000171	-0.296513
C155	C	-0.482553	0.333504	0.036821
C156	C	-0.149219	0.666838	0.370154
C157	C	-0.887333	0.000124	0.156412
C158	C	-0.554000	0.333457	0.489745
C159	C	-0.220667	0.666790	0.823079
C160	C	-0.886273	0.000135	0.228859
C161	C	-0.552939	0.333469	0.562192
C162	C	-0.219606	0.666802	0.895526
C163	C	-0.822440	0.000127	0.256600
C164	C	-0.489106	0.333460	0.589933
C165	C	-0.155773	0.666793	0.923266
C166	C	-0.759663	0.000125	0.211887
C167	C	-0.426329	0.333459	0.545220
C168	C	-0.092996	0.666792	0.878553
C169	C	-0.760725	0.000121	0.139441
C170	C	-0.427392	0.333454	0.472775
C171	C	-0.094058	0.666788	0.806108
C172	C	-0.772253	-0.043732	0.364883
C173	C	-0.438919	0.289602	0.698216
C174	C	-0.105586	0.622935	1.031549
C175	C	-0.771193	-0.043732	0.437327
C176	C	-0.437859	0.289601	0.770660
C177	C	-0.104526	0.622935	1.103994
C178	C	-0.819160	0.000143	0.480045
C179	C	-0.485827	0.333476	0.813378
C180	C	-0.152493	0.666810	1.146712
C181	C	-0.868199	0.044009	0.450311
C182	C	-0.534865	0.377342	0.783644
C183	C	-0.201532	0.710675	1.116978
C184	C	-0.869261	0.044004	0.377866
C185	C	-0.535928	0.377338	0.711199
C186	C	-0.202595	0.710671	1.044532
C187	C	-0.821280	0.000132	0.335154
C188	C	-0.487947	0.333465	0.668487
C189	C	-0.154614	0.666798	1.001820
C190	C	-0.880783	0.000162	0.603304
C191	C	-0.547450	0.333496	0.936637
C192	C	-0.214116	0.666829	1.269971
C193	C	-0.879720	0.000179	0.675752
C194	C	-0.546386	0.333512	1.009085
C195	C	-0.213053	0.666845	1.342418
C196	C	-0.753108	0.000161	0.658778
C197	C	-0.419774	0.333494	0.992111
C198	C	-0.086441	0.666828	1.325445
C199	C	-0.754173	0.000152	0.586332
C200	C	-0.420839	0.333485	0.919665
C201	C	-0.087506	0.666819	1.252998
C202	C	-0.818012	0.000149	0.558599
C203	C	-0.484679	0.333482	0.891932
C204	C	-0.151346	0.666816	1.225266
H205	H	-0.609424	0.123922	-0.096656
H206	H	-0.276090	0.457255	0.236678
H207	H	0.057243	0.790589	0.570011
Br208	Br	-0.721279	-0.835835	0.006652
Br209	Br	-0.387945	-0.502501	0.339985
Br210	Br	-0.054612	-0.169168	0.673318
Br211	Br	-0.704646	-0.103268	0.477674
Br212	Br	-0.371312	0.230065	0.811007
Br213	Br	-0.037979	0.563398	1.144340
Br214	Br	-0.707149	-0.103282	0.306915
Br215	Br	-0.373815	0.230051	0.640249
Br216	Br	-0.040482	0.563384	0.973582
H217	H	-0.709609	0.000116	0.103043
H218	H	-0.376276	0.333450	0.436377
H219	H	-0.042943	0.666783	0.769710
Br220	Br	-0.721225	-0.164005	0.006656
Br221	Br	-0.387892	0.169328	0.339990
Br222	Br	-0.054559	0.502662	0.673323
H223	H	-0.162451	-0.123669	-0.090087
H224	H	0.170882	0.209665	0.243246
H225	H	0.504216	0.542998	0.576580
Br226	Br	-0.666475	0.000156	0.696418
Br227	Br	-0.333142	0.333490	1.029751
Br228	Br	0.000191	0.666823	1.363084
H229	H	-0.744055	-0.671475	-0.016168
H230	H	-0.410722	-0.338141	0.317166
H231	H	-0.077389	-0.004808	0.650499
H232	H	-0.706610	-0.571381	-0.089235
H233	H	-0.373277	-0.238047	0.244099
H234	H	-0.039944	0.095286	0.577432
H235	H	-0.477997	0.123931	-0.094730
H236	H	-0.144664	0.457264	0.238604
H237	H	0.188669	0.790598	0.571937
H238	H	-0.244643	0.094993	-0.165264
H239	H	0.088691	0.428327	0.168069
H240	H	0.422024	0.761660	0.501403
Br241	Br	-0.247665	-0.123122	0.004748
Br242	Br	0.085668	0.210211	0.338081
Br243	Br	0.419001	0.543544	0.671414
H244	H	-0.930836	0.000187	0.712149
H245	H	-0.597502	0.333521	1.045482
H246	H	-0.264169	0.666854	1.378816
Br247	Br	-0.919237	-0.835708	-0.191441
Br248	Br	-0.585904	-0.502374	0.141892
Br249	Br	-0.252570	-0.169041	0.475225
Br250	Br	-0.668982	0.000144	0.525659
Br251	Br	-0.335648	0.333477	0.858992
Br252	Br	-0.002315	0.666810	1.192325
H253	H	-0.896418	-0.671375	-0.168642
H254	H	-0.563085	-0.338042	0.164691
H255	H	-0.229751	-0.004708	0.498025
Br256	Br	-0.182220	0.161004	-0.090372
Br257	Br	0.151113	0.494338	0.242961
Br258	Br	0.484446	0.827671	0.576295
H259	H	-0.707689	0.000120	0.234478
H260	H	-0.374356	0.333453	0.567811
H261	H	-0.041022	0.666786	0.901144
Br262	Br	-0.418425	-0.123120	0.002253
Br263	Br	-0.085092	0.210213	0.335586
Br264	Br	0.248241	0.543546	0.668920
H265	H	-0.031113	0.123966	-0.088163
H266	H	0.302221	0.457299	0.245171
H267	H	0.635554	0.790633	0.578504
H268	H	-0.376074	0.094989	-0.167194
H269	H	-0.042741	0.428322	0.166140
H270	H	0.290592	0.761656	0.499473
H271	H	-0.477905	-0.123689	-0.094732
H272	H	-0.144572	0.209645	0.238601
H273	H	0.188762	0.542978	0.571935
H274	H	-0.706598	-0.428429	-0.089235
H275	H	-0.373265	-0.095095	0.244099
H276	H	-0.039931	0.238238	0.577432
Br277	Br	-0.967828	-0.406920	-0.096533
Br278	Br	-0.634494	-0.073586	0.236800
Br279	Br	-0.301161	0.259747	0.570133
H280	H	-0.896394	-0.328243	-0.168633
H281	H	-0.563061	0.005090	0.164700
H282	H	-0.229727	0.338423	0.498033
H283	H	-0.609337	-0.123706	-0.096674
H284	H	-0.276003	0.209627	0.236659
H285	H	0.057330	0.542960	0.569993
H286	H	-0.031021	-0.123657	-0.088157
H287	H	0.302312	0.209676	0.245176
H288	H	0.635646	0.543010	0.578509
H289	H	-0.896382	-0.185289	-0.168634
H290	H	-0.563049	0.148045	0.164699
H291	H	-0.229716	0.481378	0.498032
Br292	Br	-0.935807	0.103537	0.337513
Br293	Br	-0.602473	0.436870	0.670847
Br294	Br	-0.269140	0.770203	1.004180
Br295	Br	-0.967846	-0.592662	-0.096527
Br296	Br	-0.634513	-0.259329	0.236806
Br297	Br	-0.301179	0.074005	0.570139
H298	H	-0.939316	0.000124	0.133837
H299	H	-0.605983	0.333457	0.467171
H300	H	-0.272650	0.666791	0.800504
Br301	Br	-0.971465	0.000146	0.289539
Br302	Br	-0.638131	0.333480	0.622873
Br303	Br	-0.304798	0.666813	0.956206
Br304	Br	-0.721239	-0.349748	0.006650
Br305	Br	-0.387906	-0.016415	0.339983
Br306	Br	-0.054572	0.316918	0.673316
Br307	Br	-0.933303	0.103557	0.508276
Br308	Br	-0.599969	0.436890	0.841610
Br309	Br	-0.266636	0.770224	1.174943
Br310	Br	-0.967420	0.000151	0.565662
Br311	Br	-0.634086	0.333484	0.898996
Br312	Br	-0.300753	0.666817	1.232329
