data_functionalizedCrystal
_audit_creation_method	'MofGen! by Chris Wilmer'
_symmetry_space_group_name_H-M	'P1'
_symmetry_Int_Tables_number	1
_symmetry_cell_setting	triclinic
loop_
_symmetry_equiv_pos_as_xyz
  x,y,z
_cell_length_a	23.532355
_cell_length_b	23.532357
_cell_length_c	22.610064
_cell_angle_alpha	89.998517
_cell_angle_beta	89.997644
_cell_angle_gamma	82.827896
loop_
_atom_site_label
_atom_site_type_symbol
_atom_site_fract_x
_atom_site_fract_y
_atom_site_fract_z
O1	O	0.755270	0.068988	-0.049111
O2	O	0.589401	0.079022	-0.049131
O3	O	0.677352	-0.008929	-0.049108
O4	O	0.667319	0.156940	-0.049134
O5	O	0.677337	-0.008917	0.049261
O6	O	0.589385	0.079035	0.049238
O7	O	0.755255	0.069001	0.049258
Zn8	Zn	0.672318	0.074020	0.064866
Zn9	Zn	0.672338	0.074003	-0.064739
O10	O	0.667303	0.156953	0.049235
C11	C	0.568177	0.078778	0.000051
C12	C	0.504958	0.078024	0.000044
C13	C	0.112937	0.073293	0.053691
C14	C	0.053537	0.072575	0.053693
O15	O	0.022812	0.072191	0.099295
N16	N	0.023837	0.072212	0.000072
C17	C	0.053541	0.072561	-0.053554
O18	O	0.022824	0.072186	-0.099163
C19	C	0.112939	0.073275	-0.053556
C20	C	0.142636	0.073643	0.000068
C21	C	0.142633	0.073661	0.107311
C22	C	0.202028	0.074379	0.107308
C23	C	0.231727	0.074730	0.053686
C24	C	0.202031	0.074362	0.000066
C25	C	0.142642	0.073620	-0.107182
C26	C	0.202045	0.074333	-0.107179
C27	C	0.231741	0.074701	-0.053555
C28	C	0.291124	0.075431	-0.053560
N29	N	0.320824	0.075794	0.000061
C30	C	0.291126	0.075443	0.053684
C31	C	-0.071201	0.071062	-0.053546
C32	C	-0.130599	0.070353	-0.053545
C33	C	-0.130598	0.070366	0.053702
C34	C	-0.071199	0.071079	0.053701
C35	C	-0.041501	0.071425	0.000074
C36	C	0.415859	0.076952	0.053674
C37	C	0.475259	0.077673	0.053667
C38	C	0.475254	0.077657	-0.053581
C39	C	0.415858	0.076940	-0.053574
C40	C	0.386163	0.076585	0.000059
O41	O	0.321888	0.075813	-0.099138
O42	O	0.321850	0.075811	0.099285
C43	C	0.677094	-0.030140	0.000078
C44	C	0.676339	-0.093358	0.000084
C45	C	0.671611	-0.485375	-0.053570
C46	C	0.670893	-0.544775	-0.053573
O47	O	0.670510	-0.575497	-0.099176
N48	N	0.670529	-0.574479	0.000047
C49	C	0.670877	-0.544780	0.053674
O50	O	0.670500	-0.575500	0.099282
C51	C	0.671590	-0.485381	0.053677
C52	C	0.671960	-0.455681	0.000053
C53	C	0.671980	-0.455675	-0.107189
C54	C	0.672698	-0.396280	-0.107186
C55	C	0.673047	-0.366585	-0.053563
C56	C	0.672678	-0.396286	0.000057
C57	C	0.671933	-0.455682	0.107303
C58	C	0.672646	-0.396280	0.107302
C59	C	0.673016	-0.366579	0.053678
C60	C	0.673745	-0.307196	0.053684
N61	N	0.674109	-0.277492	0.000063
C62	C	0.673760	-0.307186	-0.053560
C63	C	0.669378	-0.669521	0.053664
C64	C	0.668669	-0.728919	0.053662
C65	C	0.668685	-0.728910	-0.053586
C66	C	0.669398	-0.669511	-0.053583
C67	C	0.669742	-0.639817	0.000044
C68	C	0.675269	-0.182453	-0.053548
C69	C	0.675990	-0.123053	-0.053540
C70	C	0.675971	-0.123067	0.053708
C71	C	0.675253	-0.182462	0.053700
C72	C	0.674901	-0.212153	0.000067
O73	O	0.674126	-0.276436	0.099263
O74	O	0.674129	-0.276458	-0.099160
C75	C	0.776479	0.069245	0.000074
C76	C	0.839698	0.069999	0.000078
C77	C	0.667562	0.178163	0.000048
C78	C	0.668317	0.241381	0.000038
N79	N	0.672308	0.074031	0.153319
N80	N	0.672352	0.073987	-0.153192
C81	C	0.711285	0.035064	0.561970
C82	C	0.711288	0.035060	0.623890
O83	O	0.744403	0.001937	0.655917
N84	N	0.672338	0.073991	0.654856
C85	C	0.633378	0.112926	0.623899
O86	O	0.600249	0.146039	0.655923
C87	C	0.633373	0.112927	0.561980
C88	C	0.672330	0.073996	0.531017
C89	C	0.750237	-0.003863	0.531008
C90	C	0.750235	-0.003858	0.469092
C91	C	0.711280	0.035074	0.438139
C92	C	0.672327	0.074001	0.469102
C93	C	0.594412	0.151858	0.531024
C94	C	0.594410	0.151855	0.469101
C95	C	0.633366	0.112925	0.438138
C96	C	0.633370	0.112939	0.376233
N97	N	0.672320	0.074007	0.345267
C98	C	0.711275	0.035075	0.376220
C99	C	0.633392	0.112920	0.753932
C100	C	0.633399	0.112922	0.815850
C101	C	0.711308	0.035056	0.815837
C102	C	0.711302	0.035057	0.753918
C103	C	0.672342	0.073989	0.722966
C104	C	0.711267	0.035089	0.246193
C105	C	0.711263	0.035099	0.184272
C106	C	0.633353	0.112963	0.184290
C107	C	0.633359	0.112955	0.246206
C108	C	0.672318	0.074013	0.277156
O109	O	0.600270	0.146043	0.344166
O110	O	0.744394	0.001962	0.344188
H111	H	0.391677	0.076649	-0.097239
H112	H	0.226222	0.074614	-0.150849
H113	H	0.601642	0.144661	0.271416
H114	H	0.601666	0.144628	0.728734
C115	C	0.671601	-0.488334	-0.166181
C116	C	0.621656	-0.522410	-0.180954
C117	C	0.621284	-0.555066	-0.239949
C118	C	0.670857	-0.553646	-0.284171
C119	C	0.720806	-0.519568	-0.269399
C120	C	0.721178	-0.486913	-0.210404
H121	H	0.584955	-0.523463	-0.148217
H122	H	0.584308	-0.580292	-0.250884
H123	H	0.670582	-0.577819	-0.327843
H124	H	0.757507	-0.518516	-0.302136
H125	H	0.758154	-0.461686	-0.199469
C126	C	0.754156	-0.007775	0.849894
C127	C	0.753580	-0.072627	0.841385
C128	C	0.796425	-0.115454	0.875444
C129	C	0.839846	-0.093430	0.918012
C130	C	0.840424	-0.028575	0.926523
C131	C	0.797579	0.014252	0.892464
H132	H	0.721435	-0.088933	0.809872
H133	H	0.795997	-0.163464	0.869143
H134	H	0.871563	-0.125134	0.943225
H135	H	0.872569	-0.012269	0.958036
H136	H	0.798007	0.062262	0.898765
C137	C	0.590501	0.155786	0.150236
C138	C	0.590497	0.155785	0.082127
C139	C	0.547642	0.198605	0.048072
C140	C	0.504790	0.241427	0.082125
C141	C	0.504792	0.241430	0.150237
C142	C	0.547648	0.198610	0.184292
H143	H	0.622220	0.124084	0.056916
H144	H	0.547641	0.198602	-0.002349
H145	H	0.473066	0.273125	0.056915
H146	H	0.473069	0.273131	0.175448
H147	H	0.547649	0.198613	0.234713
H148	H	0.672917	-0.372104	0.150972
C149	C	0.674845	-0.215145	0.112679
C150	C	0.624879	-0.249213	0.127401
C151	C	0.624461	-0.281895	0.186379
C152	C	0.674009	-0.280510	0.230634
C153	C	0.723979	-0.246441	0.215913
C154	C	0.724397	-0.213759	0.156935
H155	H	0.588197	-0.250240	0.094640
H156	H	0.587470	-0.307115	0.197276
H157	H	0.673700	-0.304703	0.274292
H158	H	0.760660	-0.245414	0.248674
H159	H	0.761388	-0.188539	0.146038
C160	C	0.234699	0.074770	0.166291
C161	C	0.282292	0.025795	0.181032
C162	C	0.314964	0.026180	0.240016
C163	C	0.300043	0.075541	0.284259
C164	C	0.252448	0.124520	0.269519
C165	C	0.219776	0.124135	0.210535
H166	H	0.293339	-0.010748	0.148280
H167	H	0.350197	-0.010077	0.250927
H168	H	0.324229	0.075826	0.327922
H169	H	0.241401	0.161063	0.302271
H170	H	0.184543	0.160392	0.199623
H171	H	0.669698	-0.645333	-0.097248
H172	H	0.742988	0.003397	0.159064
C173	C	0.676352	-0.090393	0.112690
C174	C	0.627376	-0.042797	0.127420
C175	C	0.627751	-0.010121	0.186403
C176	C	0.677103	-0.025040	0.230655
C177	C	0.726083	-0.072638	0.215926
C178	C	0.725708	-0.105315	0.156944
H179	H	0.590839	-0.031751	0.094661
H180	H	0.591493	0.025115	0.197306
H181	H	0.677381	-0.000851	0.274317
H182	H	0.762620	-0.083684	0.248685
H183	H	0.761966	-0.140550	0.146040
H184	H	0.118459	0.073374	0.150979
H185	H	0.499445	0.077945	-0.097239
H186	H	0.672997	-0.372103	-0.150852
C187	C	0.109989	0.073212	-0.166172
C188	C	0.124931	0.023837	-0.210395
C189	C	0.092281	0.023429	-0.269390
C190	C	0.044689	0.072395	-0.284162
C191	C	0.029745	0.121773	-0.239939
C192	C	0.062395	0.122182	-0.180944
H193	H	0.160163	-0.012413	-0.199460
H194	H	0.103343	-0.013124	-0.302127
H195	H	0.020519	0.072093	-0.327834
H196	H	-0.005488	0.158024	-0.250873
H197	H	0.051332	0.158735	-0.148207
C198	C	0.754151	-0.007771	0.719863
C199	C	0.753578	-0.072621	0.728384
C200	C	0.796427	-0.115451	0.694332
C201	C	0.839851	-0.093431	0.651759
C202	C	0.840426	-0.028577	0.643236
C203	C	0.797576	0.014253	0.677287
H204	H	0.721432	-0.088925	0.759901
H205	H	0.796002	-0.163461	0.700642
H206	H	0.871570	-0.125136	0.626552
H207	H	0.872571	-0.012273	0.611718
H208	H	0.798002	0.062263	0.670978
C209	C	0.668273	-0.761585	0.112650
C210	C	0.618906	-0.746653	0.156886
C211	C	0.618509	-0.779315	0.215877
C212	C	0.667479	-0.826908	0.230633
C213	C	0.716850	-0.841842	0.186397
C214	C	0.717247	-0.809180	0.127405
H215	H	0.582652	-0.711420	0.145963
H216	H	0.581961	-0.768260	0.248623
H217	H	0.667186	-0.851086	0.274302
H218	H	0.753104	-0.877075	0.197319
H219	H	0.753795	-0.820235	0.094659
C220	C	0.674885	-0.215108	-0.112543
C221	C	0.724457	-0.213695	-0.156768
C222	C	0.724078	-0.246351	-0.215763
C223	C	0.674127	-0.280421	-0.230532
C224	C	0.624551	-0.281835	-0.186305
C225	C	0.624931	-0.249179	-0.127311
H226	H	0.761437	-0.188473	-0.145836
H227	H	0.760777	-0.245303	-0.248502
H228	H	0.673846	-0.304595	-0.274203
H229	H	0.587571	-0.307057	-0.197237
H230	H	0.588231	-0.250227	-0.094572
C231	C	0.668297	-0.761580	-0.112575
C232	C	0.717268	-0.809178	-0.127315
C233	C	0.716882	-0.841849	-0.186300
C234	C	0.667525	-0.826921	-0.230544
C235	C	0.618550	-0.779321	-0.215805
C236	C	0.618936	-0.746650	-0.156820
H237	H	0.753808	-0.820230	-0.094562
H238	H	0.753136	-0.877085	-0.197211
H239	H	0.667239	-0.851106	-0.274209
H240	H	0.582010	-0.768269	-0.248558
H241	H	0.582682	-0.711413	-0.145909
H242	H	0.671633	-0.479854	0.150970
C243	C	-0.038535	0.071481	0.112687
C244	C	-0.053466	0.120852	0.156916
C245	C	-0.020805	0.121253	0.215905
C246	C	0.026788	0.072284	0.230665
C247	C	0.041721	0.022909	0.186435
C248	C	0.009060	0.022508	0.127446
H249	H	-0.088699	0.157105	0.145990
H250	H	-0.031860	0.157803	0.248647
H251	H	0.050965	0.072581	0.274332
H252	H	0.076954	-0.013344	0.197360
H253	H	0.020115	-0.014043	0.094704
H254	H	0.499435	0.077975	0.097336
C255	C	0.669767	-0.636862	0.112659
C256	C	0.620204	-0.638278	0.156894
C257	C	0.620593	-0.605622	0.215888
C258	C	0.670545	-0.571551	0.230647
C259	C	0.720112	-0.570133	0.186410
C260	C	0.719723	-0.602789	0.127416
H261	H	0.583223	-0.663501	0.145969
H262	H	0.583900	-0.606672	0.248634
H263	H	0.670833	-0.547377	0.274317
H264	H	0.757093	-0.544910	0.197335
H265	H	0.756416	-0.601739	0.094670
H266	H	0.742991	0.003378	0.271385
C267	C	0.551556	0.194678	0.565074
C268	C	0.486712	0.194052	0.556558
C269	C	0.443852	0.236873	0.590608
C270	C	0.465836	0.280321	0.633174
C271	C	0.530683	0.280949	0.641692
C272	C	0.573543	0.238127	0.607641
H273	H	0.470435	0.161888	0.525047
H274	H	0.395848	0.236408	0.584303
H275	H	0.434108	0.312020	0.658380
H276	H	0.546960	0.313113	0.673203
H277	H	0.621547	0.238592	0.613947
H278	H	0.391688	0.076669	0.097347
C279	C	0.793082	-0.046687	0.435036
C280	C	0.792502	-0.111538	0.443557
C281	C	0.835348	-0.154371	0.409505
C282	C	0.878775	-0.132354	0.366932
C283	C	0.879356	-0.067501	0.358410
C284	C	0.836509	-0.024667	0.392462
H285	H	0.760354	-0.127839	0.475073
H286	H	0.834918	-0.202380	0.415814
H287	H	0.910492	-0.164062	0.341725
H288	H	0.911504	-0.051199	0.326894
H289	H	0.836940	0.023342	0.386153
H290	H	-0.154789	0.070079	0.097365
H291	H	-0.154774	0.070062	-0.097212
H292	H	0.601683	0.144629	0.841055
H293	H	-0.047024	0.071349	-0.097218
H294	H	0.676292	-0.098873	-0.097208
H295	H	0.781959	-0.035569	0.556204
H296	H	0.562681	0.183558	0.443903
