data_functionalizedCrystal
_audit_creation_method	'MofGen! by Chris Wilmer'
_symmetry_space_group_name_H-M	'P1'
_symmetry_Int_Tables_number	1
_symmetry_cell_setting	triclinic
loop_
_symmetry_equiv_pos_as_xyz
  x,y,z
_cell_length_a	10.654541
_cell_length_b	10.654545
_cell_length_c	18.366186
_cell_angle_alpha	89.996152
_cell_angle_beta	89.992314
_cell_angle_gamma	84.484678
loop_
_atom_site_label
_atom_site_type_symbol
_atom_site_fract_x
_atom_site_fract_y
_atom_site_fract_z
O1	O	1.667853	0.176386	-0.060523
O2	O	1.302374	0.193196	-0.060529
O3	O	1.493516	0.002052	-0.060526
O4	O	1.476711	0.367530	-0.060527
O5	O	1.493483	0.002042	0.060574
O6	O	1.302341	0.193186	0.060570
O7	O	1.667820	0.176376	0.060576
Zn8	Zn	1.485075	0.184779	0.079800
Zn9	Zn	1.485118	0.184792	-0.079753
O10	O	1.476678	0.367520	0.060573
C11	C	1.492265	-0.044751	0.000023
C12	C	1.488572	-0.184195	0.000018
C13	C	1.255559	0.191957	0.000020
C14	C	1.116116	0.188266	0.000017
C15	C	1.488623	-0.184192	-0.132008
C16	C	1.486919	-0.249701	-0.198021
C17	C	1.483450	-0.380720	-0.198022
C18	C	1.481681	-0.446232	-0.132003
C19	C	1.483386	-0.380724	-0.065990
C20	C	1.486859	-0.249702	-0.065996
C21	C	1.483326	-0.380725	0.066035
C22	C	1.486804	-0.249707	0.066037
C23	C	1.481558	-0.446237	0.132054
C24	C	1.483271	-0.380730	0.198068
C25	C	1.486742	-0.249703	0.198067
C26	C	1.488509	-0.184198	0.132050
C27	C	1.088146	0.416831	0.000007
C28	C	1.008652	0.529374	-0.000001
C29	C	0.877634	0.525898	-0.000001
C30	C	0.826108	0.409867	0.000008
C31	C	0.905602	0.297324	0.000016
C32	C	1.036622	0.300812	0.000015
C33	C	0.933572	0.068763	0.000031
C34	C	1.064590	0.072235	0.000027
C35	C	0.882046	-0.047269	0.000041
C36	C	0.961540	-0.159814	0.000043
C37	C	1.092565	-0.156334	0.000043
C38	C	1.144084	-0.040308	0.000035
C39	C	1.714634	0.177615	0.000026
C40	C	1.854078	0.181306	0.000023
C41	C	1.477929	0.414323	0.000023
C42	C	1.481621	0.553766	0.000022
N43	N	1.485055	0.184770	0.188691
N44	N	1.485149	0.184792	-0.188644
C45	C	1.569721	0.100174	0.226793
C46	C	1.569729	0.100168	0.303021
C47	C	1.485083	0.184781	0.341144
C48	C	1.400401	0.269383	0.303033
C49	C	1.400387	0.269378	0.226807
C50	C	1.469625	0.299019	0.461904
C51	C	1.469648	0.299026	0.538129
C52	C	1.485119	0.184797	0.576252
C53	C	1.500593	0.070556	0.538140
C54	C	1.500579	0.070550	0.461914
C55	C	1.485088	0.184795	0.423799
C56	C	1.569798	0.100187	0.697009
C57	C	1.569797	0.100180	0.773238
C58	C	1.400475	0.269406	0.773248
C59	C	1.400470	0.269403	0.697020
C60	C	1.485138	0.184795	0.658905
H61	H	1.491462	-0.077512	-0.132014
H62	H	1.488110	-0.196371	0.251823
F63	F	1.481376	-0.450457	0.268322
H64	H	1.050619	0.623844	-0.000006
H65	H	1.488357	-0.196346	-0.251772
H66	H	1.457055	0.392048	0.569153
F67	F	1.283523	-0.036594	0.000030
F68	F	0.906695	-0.283289	0.000059
H69	H	1.491340	-0.077517	0.132042
H70	H	1.513191	-0.022461	0.569178
H71	H	1.194826	0.419672	-0.000008
H72	H	1.478841	-0.552913	-0.132009
H73	H	1.478726	-0.552919	0.132049
H74	H	0.812909	0.617541	-0.000003
H75	H	1.638659	0.031278	0.195762
F76	F	1.177160	-0.276121	0.000057
H77	H	1.638736	0.031291	0.665974
F78	F	1.659847	0.010125	0.343579
H79	H	1.513176	-0.022469	0.430887
F80	F	1.659907	0.010131	0.813790
F81	F	1.481626	-0.450440	-0.268279
H82	H	1.457005	0.392044	0.430871
H83	H	0.719425	0.407048	0.000016
F84	F	1.310381	0.359449	0.813818
H85	H	1.331532	0.338294	0.665996
H86	H	1.331479	0.338274	0.334076
H87	H	0.775363	-0.050090	0.000044
F88	F	1.310270	0.359421	0.186254
