data_functionalizedCrystal
_audit_creation_method	'MofGen! by Chris Wilmer'
_symmetry_space_group_name_H-M	'P1'
_symmetry_Int_Tables_number	1
_symmetry_cell_setting	triclinic
loop_
_symmetry_equiv_pos_as_xyz
  x,y,z
_cell_length_a	14.971486
_cell_length_b	13.448316
_cell_length_c	14.971494
_cell_angle_alpha	89.995115
_cell_angle_beta	96.384157
_cell_angle_gamma	90.001801
loop_
_atom_site_label
_atom_site_type_symbol
_atom_site_fract_x
_atom_site_fract_y
_atom_site_fract_z
O1	O	-1.186951	-0.082574	0.116564
O2	O	-0.686951	0.417426	0.616564
O3	O	-0.926551	-0.082600	0.130523
O4	O	-0.426551	0.417400	0.630523
O5	O	-1.063726	-0.082584	-0.006656
O6	O	-0.563726	0.417416	0.493344
O7	O	-1.049776	-0.082590	0.253743
O8	O	-0.549776	0.417410	0.753743
O9	O	-1.063709	0.082800	-0.006664
O10	O	-0.563709	0.582800	0.493336
O11	O	-0.926534	0.082784	0.130515
O12	O	-0.426534	0.582784	0.630515
O13	O	-1.186934	0.082810	0.116556
O14	O	-0.686934	0.582810	0.616556
Cu15	Cu	-1.056732	0.097898	0.123534
Cu16	Cu	-0.556732	0.597898	0.623534
Cu17	Cu	-1.056753	-0.097688	0.123544
Cu18	Cu	-0.556753	0.402312	0.623544
O19	O	-1.049758	0.082794	0.253735
O20	O	-0.549758	0.582794	0.753735
C21	C	-0.893218	0.000088	0.129895
C22	C	-0.393218	0.500088	0.629895
C23	C	-0.793921	0.000078	0.128024
C24	C	-0.293921	0.500078	0.628024
C25	C	-1.220267	0.000120	0.117184
C26	C	-0.720267	0.500120	0.617184
C27	C	-1.319564	0.000123	0.119055
C28	C	-0.819564	0.500123	0.619055
C29	C	-1.063093	0.000106	-0.039985
C30	C	-0.563093	0.500106	0.460015
C31	C	-1.061219	0.000102	-0.139281
C32	C	-0.561219	0.500102	0.360719
N33	N	-1.056724	0.235462	0.123527
N34	N	-0.556724	0.735462	0.623527
C35	C	-0.736698	0.000078	0.208613
C36	C	-0.236698	0.500078	0.708613
C37	C	-0.643398	0.000092	0.206850
C38	C	-0.143398	0.500092	0.706850
C39	C	-0.607323	0.000101	0.124497
C40	C	-0.107323	0.500101	0.624497
C41	C	-0.664554	0.000104	0.043902
C42	C	-0.164554	0.500104	0.543902
C43	C	-0.757851	0.000096	0.045666
C44	C	-0.257851	0.500096	0.545666
C45	C	-0.470091	0.000118	0.040231
C46	C	0.029909	0.500118	0.540231
C47	C	-0.376787	0.000124	0.038466
C48	C	0.123213	0.500124	0.538466
C49	C	-0.355638	0.000114	0.201415
C50	C	0.144362	0.500114	0.701415
C51	C	-0.448936	0.000106	0.203179
C52	C	0.051064	0.500106	0.703179
C53	C	-0.506160	0.000108	0.122583
C54	C	-0.006160	0.500108	0.622583
N55	N	-1.056768	-0.235252	0.123545
N56	N	-0.556768	0.264748	0.623545
C57	C	-1.117484	0.287510	0.062809
C58	C	-0.617484	0.787510	0.562809
C59	C	-1.117490	0.391613	0.062808
C60	C	-0.617490	0.891613	0.562808
C61	C	-1.056739	0.443667	0.123530
C62	C	-0.556739	0.943667	0.623530
C63	C	-0.995973	0.391612	0.184251
C64	C	-0.495973	0.891612	0.684251
C65	C	-0.995963	0.287510	0.184247
C66	C	-0.495963	0.787510	0.684247
C67	C	-0.995997	0.608592	0.184257
C68	C	-0.495997	1.108592	0.684257
C69	C	-0.996007	0.712700	0.184263
C70	C	-0.496007	1.212700	0.684263
C71	C	-1.117524	0.712694	0.062819
C72	C	-0.617524	1.212694	0.562819
C73	C	-1.117515	0.608593	0.062814
C74	C	-0.617515	1.108593	0.562814
C75	C	-1.056749	0.556545	0.123536
C76	C	-0.556749	1.056545	0.623536
C77	C	-1.060350	-0.090050	-0.185921
C78	C	-0.560350	0.409950	0.314079
C79	C	-1.058584	-0.090052	-0.279221
C80	C	-0.558584	0.409948	0.220779
C81	C	-1.057693	0.000100	-0.325879
C82	C	-0.557693	0.500100	0.174121
C83	C	-1.058559	0.090259	-0.279232
C84	C	-0.558559	0.590259	0.220768
C85	C	-1.060319	0.090259	-0.185933
C86	C	-0.560319	0.590259	0.314067
C87	C	-1.054893	0.090252	-0.473695
C88	C	-0.554893	0.590252	0.026305
C89	C	-1.053135	0.090252	-0.567000
C90	C	-0.553135	0.590252	-0.067000
C91	C	-1.053158	-0.090059	-0.566982
C92	C	-0.553158	0.409941	-0.066982
C93	C	-1.054918	-0.090059	-0.473684
C94	C	-0.554918	0.409941	0.026316
C95	C	-1.055786	0.000100	-0.427043
C96	C	-0.555786	0.500100	0.072957
C97	C	-1.050392	0.000101	0.287064
C98	C	-0.550392	0.500101	0.787064
C99	C	-1.052266	0.000100	0.386360
C100	C	-0.552266	0.500100	0.886360
H101	H	-0.766062	0.000070	0.275674
H102	H	-0.266062	0.500070	0.775674
F103	F	-0.818752	0.000100	-0.040108
F104	F	-0.318752	0.500100	0.459892
F105	F	-0.582501	0.000088	0.292624
F106	F	-0.082501	0.500088	0.792624
H107	H	-1.057828	0.163662	-0.317227
H108	H	-0.557828	0.663662	0.182773
H109	H	-0.635174	0.000125	-0.023152
H110	H	-0.135174	0.500125	0.476848
F111	F	-1.182150	0.232120	-0.001817
F112	F	-0.682150	0.732120	0.498183
H113	H	-1.055650	-0.163468	-0.435698
H114	H	-0.555650	0.336532	0.064302
F115	F	-1.182157	0.447006	-0.001815
F116	F	-0.682157	0.947006	0.498185
H117	H	-0.478304	0.000090	0.270238
H118	H	0.021696	0.500090	0.770238
H119	H	-1.061080	-0.163463	-0.147940
H120	H	-0.561080	0.336537	0.352060
H121	H	-0.516681	0.000121	-0.025399
H122	H	-0.016681	0.500121	0.474601
H123	H	-1.166987	0.566211	0.013374
H124	H	-0.666987	1.066211	0.513374
H125	H	-1.167001	0.755078	0.013377
H126	H	-0.667001	1.255078	0.513377
F127	F	-1.057660	-0.186004	-0.328854
F128	F	-0.557660	0.313996	0.171146
H129	H	-1.052449	-0.163470	-0.604961
H130	H	-0.552449	0.336530	-0.104961
F131	F	-1.061242	0.186211	-0.136296
F132	F	-0.561242	0.686211	0.363704
F133	F	-0.294735	0.000114	0.287191
F134	F	0.205265	0.500114	0.787191
F135	F	-1.052188	0.186201	-0.616655
F136	F	-0.552188	0.686201	-0.116655
H137	H	-0.946537	0.755077	0.233708
H138	H	-0.446537	1.255077	0.733708
H139	H	-0.347418	0.000132	-0.028593
H140	H	0.152582	0.500132	0.471407
H141	H	-1.055580	0.163669	-0.435721
H142	H	-0.555580	0.663669	0.064279
F143	F	-0.931320	0.553203	0.248883
F144	F	-0.431320	1.053203	0.748883
H145	H	-0.946503	0.434000	0.233689
H146	H	-0.446503	0.934000	0.733689
F147	F	-0.931291	0.232119	0.248869
F148	F	-0.431291	0.732119	0.748869
