data_functionalizedCrystal
_audit_creation_method	'MofGen! by Chris Wilmer'
_symmetry_space_group_name_H-M	'P1'
_symmetry_Int_Tables_number	1
_symmetry_cell_setting	triclinic
loop_
_symmetry_equiv_pos_as_xyz
  x,y,z
_cell_length_a	14.853567
_cell_length_b	17.038272
_cell_length_c	13.930277
_cell_angle_alpha	89.995405
_cell_angle_beta	89.995755
_cell_angle_gamma	87.373243
loop_
_atom_site_label
_atom_site_type_symbol
_atom_site_fract_x
_atom_site_fract_y
_atom_site_fract_z
O1	O	1.204051	0.102086	-0.079765
O2	O	0.942506	0.114247	-0.079782
O3	O	1.071724	-0.005651	-0.079766
O4	O	1.074833	0.221984	-0.079781
O5	O	1.071705	-0.005654	0.079896
O6	O	0.942487	0.114244	0.079880
O7	O	1.204031	0.102083	0.079897
Zn8	Zn	1.073256	0.108163	0.105238
Zn9	Zn	1.073282	0.108167	-0.105123
O10	O	1.074814	0.221981	0.079881
C11	C	0.908866	0.113695	0.000047
C12	C	0.808658	0.112043	0.000041
C13	C	0.390240	0.033841	0.000067
C14	C	0.379678	0.176283	0.000057
C15	C	0.473828	0.177835	0.000054
C16	C	0.526189	0.107390	0.000056
C17	C	0.484399	0.035392	0.000061
C18	C	0.515626	0.249832	0.000039
C19	C	0.609782	0.251388	0.000035
C20	C	0.662144	0.180941	0.000044
C21	C	0.620349	0.108940	0.000050
C22	C	0.672709	0.038495	0.000052
C23	C	0.630915	-0.033507	0.000065
C24	C	0.536762	-0.035055	0.000070
C25	C	0.756298	0.182489	0.000039
C26	C	0.766869	0.040045	0.000046
C27	C	1.068887	-0.034784	0.000065
C28	C	1.060451	-0.121588	0.000064
C29	C	1.137904	-0.171601	0.000070
C30	C	1.129972	-0.253162	0.000060
C31	C	1.044586	-0.284709	0.000051
C32	C	0.967127	-0.234690	0.000043
C33	C	0.975060	-0.153130	0.000045
C34	C	1.016561	-0.530503	0.000036
C35	C	1.008634	-0.612069	0.000037
C36	C	1.171480	-0.630535	0.000052
C37	C	1.179405	-0.548974	0.000061
C38	C	1.101946	-0.498962	0.000047
C39	C	1.036476	-0.368077	0.000045
C40	C	1.110056	-0.415595	0.000047
C41	C	1.237671	0.102636	0.000066
C42	C	1.337879	0.104287	0.000065
C43	C	1.077651	0.251114	0.000048
C44	C	1.086087	0.337918	0.000042
N45	N	1.073245	0.108161	0.248804
N46	N	1.073299	0.108163	-0.248689
C47	C	1.016060	0.161237	0.701066
C48	C	1.130528	0.055091	0.701050
C49	C	1.130517	0.055088	0.600554
C50	C	1.073278	0.108162	0.550310
C51	C	1.016049	0.161237	0.600561
C52	C	1.187750	0.002019	0.550295
C53	C	1.187742	0.002015	0.449793
C54	C	1.130498	0.055085	0.399547
C55	C	1.073267	0.108162	0.449805
C56	C	1.016028	0.161236	0.399561
C57	C	0.958791	0.214310	0.449817
C58	C	0.958805	0.214308	0.550315
C59	C	1.130484	0.055087	0.299048
C60	C	1.016017	0.161236	0.299056
H61	H	0.502724	-0.093675	0.000104
H62	H	0.912191	0.257526	0.408896
H63	H	0.966954	-0.393771	0.000040
N64	N	0.921412	-0.644300	0.000052
N65	N	0.867775	-0.629015	0.067354
H66	H	0.806179	-0.651780	0.067372
H67	H	1.177090	0.011879	0.258134
N68	N	0.957535	0.215451	0.247751
N69	N	0.906438	0.262828	0.292636
H70	H	0.865134	0.301118	0.256403
N71	N	1.225124	-0.139379	0.000100
N72	N	1.278744	-0.154678	0.067409
H73	H	1.340346	-0.131923	0.067430
H74	H	1.248935	-0.523295	0.000068
N75	N	0.798975	0.256034	0.000017
N76	N	0.752214	0.318925	0.000007
H77	H	0.782353	0.370871	-0.000007
H78	H	1.234542	-0.671263	0.000062
N79	N	0.937443	-0.479423	0.000052
N80	N	0.923696	-0.431858	0.067357
H81	H	0.867816	-0.395777	0.067371
H82	H	0.912206	0.257519	0.591240
N83	N	1.197280	-0.383388	0.000070
N84	N	1.266434	-0.428046	0.000085
H85	H	1.328038	-0.405294	0.000107
H86	H	0.897604	-0.260382	0.000030
H87	H	0.673560	-0.090863	0.000061
H88	H	0.969456	0.204447	0.741987
N89	N	0.652485	0.324924	0.000023
N90	N	0.703854	0.341682	-0.067277
H91	H	0.734017	0.393616	-0.067283
N92	N	0.347569	-0.039710	0.000070
N93	N	0.394334	-0.102600	0.000068
H94	H	0.364198	-0.154547	0.000070
H95	H	0.337041	0.233636	0.000047
N96	N	1.209098	-0.304237	0.000057
N97	N	1.285330	-0.276060	0.000066
H98	H	1.341217	-0.312131	0.000060
N99	N	1.246200	-0.052179	0.398430
N100	N	1.304045	-0.027263	0.342330
H101	H	1.345329	-0.065534	0.306046
N102	N	0.462130	0.321778	0.000007
N103	N	0.378065	0.320380	0.000003
H104	H	0.340278	0.371195	-0.000026
N105	N	0.895934	-0.102052	0.000027
N106	N	0.819701	-0.130227	0.000014
H107	H	0.763815	-0.094154	-0.000006
H108	H	1.177135	0.011884	0.741962
N109	N	1.246248	-0.052154	0.601631
N110	N	1.246265	-0.052129	0.691362
H111	H	1.287592	-0.090381	0.727623
H112	H	0.809495	-0.017321	0.000052
