data_functionalizedCrystal
_audit_creation_method	'MofGen! by Chris Wilmer'
_symmetry_space_group_name_H-M	'P1'
_symmetry_Int_Tables_number	1
_symmetry_cell_setting	triclinic
loop_
_symmetry_equiv_pos_as_xyz
  x,y,z
_cell_length_a	19.288865
_cell_length_b	19.288864
_cell_length_c	18.366186
_cell_angle_alpha	90.022929
_cell_angle_beta	90.010368
_cell_angle_gamma	83.136245
loop_
_atom_site_label
_atom_site_type_symbol
_atom_site_fract_x
_atom_site_fract_y
_atom_site_fract_z
O1	O	0.086648	0.921353	0.060791
O2	O	0.098336	0.719092	0.060743
O3	O	-0.008638	0.826067	0.060754
O4	O	0.193622	0.814378	0.060780
O5	O	-0.008641	0.826049	-0.060345
O6	O	0.098333	0.719074	-0.060357
O7	O	0.086645	0.921334	-0.060308
Zn8	Zn	0.092488	0.820201	-0.079559
Zn9	Zn	0.092492	0.820226	0.079994
O10	O	0.193619	0.814360	-0.060319
C11	C	0.097959	0.693207	0.000187
C12	C	0.096830	0.616103	0.000167
C13	C	-0.034516	0.825682	0.000202
C14	C	-0.111620	0.824553	0.000195
C15	C	0.159598	0.571407	0.000187
C16	C	0.158537	0.498960	0.000195
C17	C	0.094705	0.471212	0.000198
C18	C	0.031929	0.515918	0.000174
C19	C	0.032991	0.588364	0.000159
C20	C	0.044527	0.362957	0.042642
C21	C	0.043467	0.290512	0.042662
C22	C	0.091425	0.247767	0.000241
C23	C	0.140455	0.277473	-0.042189
C24	C	0.141518	0.349918	-0.042205
C25	C	0.093546	0.392658	0.000214
C26	C	0.153047	0.124514	0.000269
C27	C	0.151984	0.052066	0.000272
C28	C	0.025374	0.069026	0.000259
C29	C	0.026439	0.141473	0.000248
C30	C	0.090278	0.169212	0.000256
C31	C	-0.156316	0.887321	0.000207
C32	C	-0.228763	0.886260	0.000218
C33	C	-0.256511	0.822428	0.000203
C34	C	-0.211805	0.759652	0.000196
C35	C	-0.139359	0.760714	0.000192
C36	C	-0.364799	0.772242	-0.042227
C37	C	-0.437244	0.771182	-0.042228
C38	C	-0.479956	0.819148	0.000219
C39	C	-0.450217	0.868186	0.042657
C40	C	-0.377772	0.869248	0.042653
C41	C	-0.335065	0.821269	0.000208
C42	C	-0.603209	0.880770	0.000244
C43	C	-0.675657	0.879707	0.000259
C44	C	-0.658697	0.753097	0.000230
C45	C	-0.586250	0.754162	0.000221
C46	C	-0.558511	0.818001	0.000225
C47	C	0.219497	0.814745	0.000234
C48	C	0.296601	0.815874	0.000246
C49	C	0.087022	0.947220	0.000250
C50	C	0.088151	1.024324	0.000274
N51	N	0.092485	0.820190	-0.188451
C52	C	0.134509	0.862177	-0.226528
C53	C	0.134507	0.862189	-0.302756
C54	C	0.092490	0.820199	-0.340903
C55	C	0.050457	0.778209	-0.302816
C56	C	0.050455	0.778204	-0.226590
C57	C	0.090733	0.757588	-0.461700
C58	C	0.090740	0.757591	-0.537925
C59	C	0.092492	0.820215	-0.576011
C60	C	0.094252	0.882837	-0.537862
C61	C	0.094249	0.882832	-0.461636
C62	C	0.092487	0.820200	-0.423558
C63	C	0.134516	0.862219	-0.696744
C64	C	0.134509	0.862231	-0.772973
C65	C	0.050463	0.778245	-0.773031
C66	C	0.050466	0.778239	-0.696804
C67	C	0.092496	0.820225	-0.658664
N68	N	0.092490	0.820243	0.188885
H69	H	0.209652	0.462561	0.000209
N70	N	-0.276984	0.953962	0.000232
H71	H	-0.248418	0.994563	0.000235
H72	H	-0.307419	0.956265	-0.044660
N73	N	-0.469318	0.718302	-0.088006
H74	H	-0.431268	0.688073	-0.114891
H75	H	-0.495385	0.688085	-0.055472
H76	H	0.168730	0.896380	-0.333765
N77	N	0.221899	0.154436	0.000273
H78	H	0.249387	0.138099	-0.044615
H79	H	0.212992	0.207108	0.000294
N80	N	0.192177	0.231379	-0.087958
H81	H	0.223394	0.261190	-0.114840
H82	H	0.221522	0.197344	-0.055414
N83	N	-0.723870	0.947409	0.000267
H84	H	-0.754295	0.949804	0.045162
H85	H	-0.695253	0.987970	0.000238
H86	H	0.095680	0.933821	-0.430579
N87	N	-0.345694	0.922133	0.088422
H88	H	-0.383740	0.952361	0.115314
H89	H	-0.312205	0.897017	0.124651
H90	H	-0.020044	0.493322	0.000187
N91	N	0.005126	0.732915	-0.185519
H92	H	0.018954	0.682337	-0.198807
H93	H	0.011520	0.739339	-0.131456
H94	H	-0.484993	0.907244	0.077221
H95	H	0.168728	0.896428	-0.803975
N96	N	0.219701	0.003875	0.000250
H97	H	0.247578	0.012793	0.045133
H98	H	0.209308	-0.046216	0.000213
H99	H	-0.234401	0.707679	0.000185
N100	N	0.179838	0.907503	-0.655595
H101	H	0.230411	0.893645	-0.668858
H102	H	0.165948	0.958067	-0.668850
N103	N	0.005133	0.732924	-0.343955
H104	H	0.011512	0.739297	-0.398023
H105	H	0.018982	0.682365	-0.330652
H106	H	0.181437	0.374102	-0.076756
N107	N	-0.043476	0.039110	0.000254
H108	H	-0.034626	-0.013567	0.000264
H109	H	-0.070934	0.055499	0.045140
H110	H	-0.580622	0.932751	0.000250
N111	N	-0.688613	0.684247	0.000222
H112	H	-0.741290	0.693097	0.000229
H113	H	-0.672258	0.656781	-0.044678
H114	H	-0.024674	0.177866	0.000236
N115	N	-0.538034	0.686463	0.000194
H116	H	-0.507588	0.684088	0.045083
H117	H	-0.566650	0.645902	0.000157
N118	N	0.228454	0.601317	0.000197
H119	H	0.255945	0.584974	-0.044686
H120	H	0.219553	0.653989	0.000214
H121	H	-0.018124	0.624756	0.000144
H122	H	0.003546	0.266331	0.077215
N123	N	-0.007205	0.409058	0.088396
H124	H	-0.038421	0.379248	0.115282
H125	H	0.018797	0.435713	0.124631
H126	H	-0.133736	0.939303	0.000212
H127	H	-0.330028	0.733180	-0.076796
H128	H	0.089311	0.706587	-0.430697
N129	N	-0.091146	0.693012	0.000180
H130	H	-0.119713	0.652411	0.000175
H131	H	-0.060729	0.690688	-0.044717
H132	H	0.168731	0.896368	-0.195480
N133	N	0.005151	0.732939	-0.655731
H134	H	0.011526	0.739306	-0.601654
H135	H	-0.045402	0.746821	-0.669058
H136	H	0.095682	0.933831	-0.568870
H137	H	0.016250	0.744058	-0.804090
N138	N	0.088827	0.690056	-0.579068
H139	H	0.087702	0.650385	-0.543376
H140	H	0.045709	0.693677	-0.610696
