data_functionalizedCrystal
_audit_creation_method	'MofGen! by Chris Wilmer'
_symmetry_space_group_name_H-M	'P1'
_symmetry_Int_Tables_number	1
_symmetry_cell_setting	triclinic
loop_
_symmetry_equiv_pos_as_xyz
  x,y,z
_cell_length_a	18.050590
_cell_length_b	18.050591
_cell_length_c	11.169409
_cell_angle_alpha	90.032997
_cell_angle_beta	90.028331
_cell_angle_gamma	89.998790
loop_
_atom_site_label
_atom_site_type_symbol
_atom_site_fract_x
_atom_site_fract_y
_atom_site_fract_z
Zn1	Zn	0.295737	-1.135475	-0.678974
Zn2	Zn	0.419951	-1.135415	-0.478304
Zn3	Zn	0.295765	-1.011274	-0.478265
Zn4	Zn	0.419874	-1.011291	-0.678906
O5	O	0.357832	-1.073364	-0.578612
O6	O	0.312234	-1.239391	-0.652400
O7	O	0.403522	-1.118915	-0.310349
O8	O	0.191837	-1.027768	-0.504901
O9	O	0.403495	-1.239347	-0.504969
O10	O	0.191816	-1.119018	-0.652361
O11	O	0.312283	-1.027710	-0.310320
O12	O	0.312208	-0.907352	-0.504835
O13	O	0.403363	-1.027796	-0.846865
O14	O	0.403390	-0.907364	-0.652245
O15	O	0.312160	-1.119033	-0.846915
O16	O	0.523866	-1.118931	-0.504903
O17	O	0.523809	-1.027738	-0.652284
C18	C	0.357794	-0.880412	-0.578529
C19	C	0.357796	-0.797866	-0.578522
C20	C	0.164126	-1.073398	-0.578634
C21	C	0.081580	-1.073412	-0.578643
C22	C	-0.167256	-1.123043	-0.658851
C23	C	-0.117877	-1.055295	-0.688181
C24	C	-0.215540	-1.073410	-0.578654
C25	C	-0.117838	-1.141156	-0.549375
C26	C	-0.069555	-1.073415	-0.578652
C27	C	-0.167248	-1.005626	-0.608041
C28	C	-0.167213	-1.091533	-0.469184
C29	C	-0.117856	-1.023738	-0.498472
C30	C	-0.299638	-1.073409	-0.578658
C31	C	0.014542	-1.073409	-0.578647
C32	C	0.308143	-0.598387	-0.498528
C33	C	0.375881	-0.548991	-0.469005
C34	C	0.357811	-0.646735	-0.578563
C35	C	0.290089	-0.549050	-0.608070
C36	C	0.357819	-0.500750	-0.578601
C37	C	0.425585	-0.598427	-0.548983
C38	C	0.339747	-0.598490	-0.688100
C39	C	0.407531	-0.549116	-0.658618
C40	C	0.357805	-0.730834	-0.578538
C41	C	0.357833	-0.416654	-0.578625
C42	C	0.550784	-1.073350	-0.578617
C43	C	0.633330	-1.073412	-0.578659
C44	C	0.357750	-1.073423	-0.891655
C45	C	0.357714	-1.073449	-1.025055
C46	C	0.357857	-0.267069	-0.578674
C47	C	0.357835	-0.349615	-0.578645
C48	C	0.357860	-1.073347	-0.266787
C49	C	0.357686	-1.073466	-0.133388
H50	H	-0.188947	-1.164960	-0.726724
C51	C	0.319102	-0.627828	-0.813228
H52	H	0.358766	-0.656776	-0.843844
H53	H	0.275795	-0.657527	-0.807708
H54	H	0.310025	-0.587257	-0.865354
C55	C	0.251466	-0.627621	-0.407014
H56	H	0.215199	-0.656594	-0.447158
H57	H	0.276142	-0.657280	-0.349182
H58	H	0.228082	-0.587018	-0.368258
C59	C	-0.088514	-1.218543	-0.515914
H60	H	-0.059532	-1.215170	-0.445097
H61	H	-0.129073	-1.251043	-0.502632
H62	H	-0.058831	-1.237156	-0.579377
C63	C	0.212718	-0.519753	-0.641774
H64	H	0.177489	-0.536632	-0.584815
H65	H	0.213382	-0.467132	-0.642265
H66	H	0.199542	-0.537436	-0.719028
H67	H	0.449586	-0.527618	-0.726318
C68	C	0.396533	-0.519614	-0.343895
H69	H	0.361193	-0.536478	-0.287105
H70	H	0.444303	-0.537246	-0.322394
H71	H	0.396825	-0.466990	-0.344998
H72	H	-0.188860	-0.948326	-0.632944
H73	H	-0.096303	-0.981719	-0.430651
C74	C	-0.088593	-1.034583	-0.813236
H75	H	-0.105504	-1.069893	-0.870129
H76	H	-0.106238	-0.986801	-0.834587
H77	H	-0.035968	-1.034296	-0.812146
H78	H	-0.188902	-1.106885	-0.376635
H79	H	0.482877	-0.620025	-0.523939
