data_functionalizedCrystal
_audit_creation_method	'MofGen! by Chris Wilmer'
_symmetry_space_group_name_H-M	'P1'
_symmetry_Int_Tables_number	1
_symmetry_cell_setting	triclinic
loop_
_symmetry_equiv_pos_as_xyz
  x,y,z
_cell_length_a	12.759399
_cell_length_b	21.395364
_cell_length_c	21.395355
_cell_angle_alpha	89.974702
_cell_angle_beta	90.014263
_cell_angle_gamma	89.968183
loop_
_atom_site_label
_atom_site_type_symbol
_atom_site_fract_x
_atom_site_fract_y
_atom_site_fract_z
Zn1	Zn	-0.417920	-0.957927	0.354292
Zn2	Zn	-0.593584	-0.957858	0.249523
Zn3	Zn	-0.417971	-0.853142	0.249528
Zn4	Zn	-0.593608	-0.853140	0.354262
O5	O	-0.505771	-0.905517	0.301901
O6	O	-0.441190	-1.045596	0.340405
O7	O	-0.570300	-0.943939	0.161846
O8	O	-0.270943	-0.867072	0.263440
O9	O	-0.570250	-1.045545	0.263432
O10	O	-0.270906	-0.944057	0.340410
O11	O	-0.441278	-0.867005	0.161849
O12	O	-0.441301	-0.765464	0.263410
O13	O	-0.570292	-0.867068	0.441944
O14	O	-0.570341	-0.765462	0.340358
O15	O	-0.441214	-0.944055	0.441966
O16	O	-0.740609	-0.943937	0.263402
O17	O	-0.740626	-0.867001	0.340353
C18	C	-0.505830	-0.742729	0.301881
C19	C	-0.505881	-0.673088	0.301888
C20	C	-0.438791	-0.640423	0.342030
C21	C	-0.438767	-0.574988	0.342031
C22	C	-0.505851	-0.542220	0.301898
C23	C	-0.572945	-0.574892	0.261748
C24	C	-0.572960	-0.640326	0.261743
C25	C	-0.600471	-0.438511	0.296863
C26	C	-0.600457	-0.373078	0.296872
C27	C	-0.505803	-0.340399	0.301909
C28	C	-0.411160	-0.373161	0.306950
C29	C	-0.411175	-0.438595	0.306945
C30	C	-0.505841	-0.471267	0.301898
C31	C	-0.438681	-0.236782	0.342055
C32	C	-0.438655	-0.171345	0.342052
C33	C	-0.572843	-0.171250	0.261772
C34	C	-0.572860	-0.236686	0.261771
C35	C	-0.505780	-0.269448	0.301916
C36	C	-0.778738	-0.905478	0.301887
C37	C	-0.895515	-0.905519	0.301902
C38	C	-0.950333	-0.945626	0.261879
C39	C	-1.060057	-0.945666	0.261900
C40	C	-1.060135	-0.865488	0.341968
C41	C	-0.950413	-0.865451	0.341950
C42	C	-1.209889	-1.019619	0.239607
C43	C	-1.264710	-1.059720	0.199574
C44	C	-1.229135	-1.069357	0.138441
C45	C	-1.138741	-1.038884	0.117329
C46	C	-1.083925	-0.998778	0.157358
C47	C	-1.119498	-0.989153	0.218499
C48	C	-0.800580	-0.791497	0.364237
C49	C	-0.745762	-0.751388	0.404264
C50	C	-0.781334	-0.741745	0.465397
C51	C	-0.871732	-0.772207	0.486508
C52	C	-0.926550	-0.812316	0.446481
C53	C	-0.890970	-0.821960	0.385348
C54	C	-0.231738	-0.905572	0.301929
C55	C	-0.114961	-0.905596	0.301941
C56	C	-0.505750	-0.905569	0.465325
C57	C	-0.505741	-0.905591	0.534966
C58	C	-0.505725	-0.068940	0.301918
C59	C	-0.505738	-0.138581	0.301917
C60	C	-0.505716	-0.905501	0.139114
C61	C	-0.505429	-0.905600	0.069473
C62	C	-0.438527	-0.945676	0.567692
C63	C	-0.438482	-0.945675	0.633127
C64	C	-0.505669	-0.905596	0.665834
C65	C	-0.572887	-0.865503	0.633100
C66	C	-0.572923	-0.865500	0.567666
C67	C	-0.600270	-0.900635	0.769504
C68	C	-0.600236	-0.900642	0.834937
C69	C	-0.505558	-0.905600	0.867655
C70	C	-0.410911	-0.910564	0.834932
C71	C	-0.410947	-0.910561	0.769498
C72	C	-0.505637	-0.905594	0.736787
C73	C	-0.438290	-0.945686	0.971334
C74	C	-0.438243	-0.945681	1.036770
C75	C	-0.572658	-0.865512	1.036742
C76	C	-0.572695	-0.865513	0.971307
C77	C	-0.505513	-0.905604	0.938606
H78	H	-0.677522	-0.346408	0.292771
C79	C	-0.364379	-0.989781	0.935361
N80	N	-0.308707	-1.022992	0.908268
C81	C	-0.910865	-0.761600	0.553759
N82	N	-0.940337	-0.753608	0.604414
H83	H	-0.905637	-0.978252	0.229270
C84	C	-0.646635	-0.135209	0.217623
N85	N	-0.702217	-0.108059	0.184369
H86	H	-0.383820	-0.978320	0.541071
H87	H	-0.333815	-0.914602	0.861570
C88	C	-0.307031	-0.337219	0.312485
N89	N	-0.228603	-0.310145	0.316652
C90	C	-0.306836	-0.916013	0.733505
N91	N	-0.228417	-0.920115	0.706396
C92	C	-0.646673	-0.272618	0.217617
N93	N	-0.702272	-0.299682	0.184356
H94	H	-1.273778	-1.102009	0.105846
C95	C	-1.364145	-1.093236	0.222799
N96	N	-1.439043	-1.118478	0.240288
H97	H	-0.677304	-0.896604	0.861575
C98	C	-0.646329	-0.717872	0.381036
N99	N	-0.571438	-0.692628	0.363542
H100	H	-0.736692	-0.709082	0.497986
H101	H	-0.384129	-0.548388	0.374719
C102	C	-0.364545	-0.989778	0.669133
N103	N	-0.308858	-1.022998	0.696251
H104	H	-0.384016	-0.144751	0.374739
H105	H	-0.334113	-0.465268	0.311047
H106	H	-1.010326	-0.973969	0.140169
C107	C	-0.646789	-0.821412	0.669079
N108	N	-0.702450	-0.788200	0.696179
C109	C	-0.761441	-0.802103	0.296985
N110	N	-0.731963	-0.810087	0.246331
C111	C	-0.364884	-0.272822	0.386208
N112	N	-0.309297	-0.299966	0.419465
C113	C	-1.249026	-1.009025	0.306858
N114	N	-1.278511	-1.001044	0.357511
C115	C	-1.099606	-1.049495	0.050079
N116	N	-1.070121	-1.057493	-0.000571
C117	C	-0.364296	-0.989779	1.072769
N118	N	-0.308600	-1.022996	1.099883
C119	C	-0.646566	-0.821424	1.072716
N120	N	-0.702234	-0.788215	1.099815
C121	C	-1.120534	-0.821409	0.386012
N122	N	-1.166025	-0.788204	0.419184
H123	H	-0.627595	-0.666921	0.229054
H124	H	-0.384169	-0.667094	0.374718
H125	H	-1.000154	-0.837122	0.463675
H126	H	-0.627434	-0.832875	0.944661
C127	C	-0.704433	-0.895193	0.733520
N128	N	-0.782886	-0.891099	0.706419
C129	C	-0.646869	-0.821403	0.531667
N130	N	-0.702568	-0.788189	0.504551
H131	H	-0.677555	-0.465112	0.292761
H132	H	-0.627565	-0.548207	0.229070
