data_functionalizedCrystal
_audit_creation_method	'MofGen! by Chris Wilmer'
_symmetry_space_group_name_H-M	'P1'
_symmetry_Int_Tables_number	1
_symmetry_cell_setting	triclinic
loop_
_symmetry_equiv_pos_as_xyz
  x,y,z
_cell_length_a	12.759401
_cell_length_b	18.050589
_cell_length_c	12.759393
_cell_angle_alpha	89.969379
_cell_angle_beta	89.981504
_cell_angle_gamma	90.028382
loop_
_atom_site_label
_atom_site_type_symbol
_atom_site_fract_x
_atom_site_fract_y
_atom_site_fract_z
Zn1	Zn	1.606157	-0.295612	-0.593988
Zn2	Zn	1.606010	-0.419823	-0.418311
Zn3	Zn	1.430459	-0.295651	-0.418328
Zn4	Zn	1.430406	-0.419766	-0.593953
O5	O	1.518258	-0.357713	-0.506145
O6	O	1.753158	-0.312097	-0.570692
O7	O	1.582683	-0.403391	-0.271292
O8	O	1.453849	-0.191722	-0.441651
O9	O	1.753050	-0.403354	-0.441623
O10	O	1.582934	-0.191693	-0.570708
O11	O	1.453706	-0.312163	-0.271304
O12	O	1.283431	-0.312108	-0.441617
O13	O	1.453759	-0.403256	-0.740979
O14	O	1.283392	-0.403294	-0.570648
O15	O	1.582882	-0.312041	-0.741005
O16	O	1.582632	-0.523740	-0.441589
O17	O	1.453616	-0.523698	-0.570632
C18	C	1.245290	-0.357699	-0.506131
C19	C	1.128514	-0.357711	-0.506149
C20	C	1.073659	-0.405268	-0.573225
C21	C	0.963935	-0.405277	-0.573236
C22	C	0.963930	-0.310171	-0.439088
C23	C	1.073652	-0.310159	-0.439083
C24	C	1.128521	-0.452820	-0.640292
C25	C	1.073666	-0.500382	-0.707372
C26	C	0.963942	-0.500391	-0.707383
C27	C	0.909072	-0.452839	-0.640314
C28	C	1.518131	-0.550665	-0.506127
C29	C	1.518173	-0.633211	-0.506155
C30	C	1.448083	-0.832666	-0.576304
C31	C	1.422469	-0.882114	-0.480436
C32	C	1.518276	-0.784341	-0.506169
C33	C	1.543942	-0.881974	-0.602048
C34	C	1.518374	-0.930326	-0.506191
C35	C	1.492611	-0.832703	-0.410250
C36	C	1.614129	-0.832558	-0.531927
C37	C	1.588551	-0.881985	-0.435992
C38	C	1.518217	-0.700243	-0.506158
C39	C	1.518433	-1.014423	-0.506191
C40	C	1.792291	-0.357727	-0.506160
C41	C	1.909068	-0.357733	-0.506166
C42	C	1.518331	-0.357638	-0.780178
C43	C	1.518363	-0.357606	-0.896955
C44	C	1.518414	-0.164007	-0.506185
C45	C	1.518480	-0.081462	-0.506203
C46	C	1.585606	-0.310106	-0.951832
C47	C	1.585631	-0.310079	-1.061557
C48	C	1.451166	-0.405059	-1.061516
C49	C	1.451136	-0.405081	-0.951794
C50	C	1.652833	-0.262631	-0.896993
C51	C	1.720083	-0.215128	-0.951871
C52	C	1.720108	-0.215101	-1.061595
C53	C	1.652883	-0.262577	-1.116442
C54	C	1.518245	-0.357734	-0.233178
C55	C	1.518417	-0.357557	-0.116401
H56	H	1.118347	-0.539092	-0.761983
O57	O	1.652905	-0.262688	-1.223028
C58	C	1.679862	-0.333853	-1.259665
H59	H	1.661865	-0.376642	-1.196418
H60	H	1.632478	-0.347036	-1.333061
H61	H	1.767039	-0.335428	-1.279143
O62	O	1.785413	-0.168940	-0.898760
C63	C	1.844785	-0.127020	-0.970729
H64	H	1.801772	-0.124427	-1.048939
H65	H	1.856036	-0.068516	-0.939045
H66	H	1.924558	-0.154219	-0.982399
O67	O	1.385709	-0.451124	-0.898443
C68	C	1.317879	-0.408861	-0.834964
H69	H	1.311442	-0.350360	-0.868040
H70	H	1.237005	-0.435720	-0.833714
H71	H	1.350338	-0.406327	-0.751808
O72	O	1.385926	-0.451283	-1.114675
C73	C	1.408839	-0.525307	-1.087857
H74	H	1.449201	-0.526864	-1.008192
H75	H	1.332988	-0.558606	-1.084090
H76	H	1.462854	-0.550311	-1.149602
O77	O	1.235105	-0.452882	-0.640447
C78	C	1.271768	-0.505064	-0.714002
H79	H	1.208560	-0.515524	-0.775367
H80	H	1.345203	-0.482684	-0.753917
H81	H	1.291188	-0.559177	-0.672203
H82	H	0.919247	-0.271458	-0.384483
H83	H	0.919282	-0.539112	-0.762010
O84	O	1.785274	-0.168874	-1.114948
C85	C	1.725516	-0.120898	-1.178441
H86	H	1.642764	-0.116315	-1.145372
H87	H	1.763562	-0.063747	-1.179699
H88	H	1.721901	-0.143836	-1.261593
H89	H	0.819728	-0.452844	-0.640338
O90	O	1.126782	-0.263947	-0.373818
C91	C	1.054835	-0.221973	-0.314632
H92	H	0.976601	-0.252393	-0.310929
H93	H	1.086511	-0.213986	-0.231871
H94	H	1.043214	-0.165600	-0.353234
H95	H	1.341455	-0.903898	-0.458669
O96	O	1.377027	-0.806859	-0.646844
C97	C	1.276126	-0.832129	-0.619312
H98	H	1.274201	-0.846024	-0.532166
H99	H	1.216151	-0.786992	-0.636776
H100	H	1.256434	-0.883805	-0.666728
H101	H	1.470848	-0.811149	-0.329152
O102	O	1.659298	-0.907629	-0.365027
C103	C	1.631915	-0.882373	-0.264125
H104	H	1.544741	-0.868645	-0.262049
H105	H	1.649611	-0.927454	-0.204087
H106	H	1.679250	-0.830600	-0.244645
O107	O	1.710722	-0.806600	-0.558128
C108	C	1.737440	-0.831674	-0.659299
H109	H	1.662975	-0.845577	-0.704563
H110	H	1.782502	-0.786415	-0.702424
H111	H	1.788449	-0.883303	-0.652720
H112	H	1.565611	-0.903618	-0.683124
H113	H	1.652822	-0.262649	-0.807650
