data_functionalizedCrystal
_audit_creation_method	'MofGen! by Chris Wilmer'
_symmetry_space_group_name_H-M	'P1'
_symmetry_Int_Tables_number	1
_symmetry_cell_setting	triclinic
loop_
_symmetry_equiv_pos_as_xyz
  x,y,z
_cell_length_a	14.395555
_cell_length_b	14.628931
_cell_length_c	14.628931
_cell_angle_alpha	60.000000
_cell_angle_beta	90.001754
_cell_angle_gamma	59.999615
loop_
_atom_site_label
_atom_site_type_symbol
_atom_site_fract_x
_atom_site_fract_y
_atom_site_fract_z
Zr1	Zr	0.894916	1.000538	-0.119915
O2	O	0.746586	1.191250	-0.265884
O3	O	0.940387	0.809831	-0.075168
O4	O	0.940387	1.000536	-0.265873
O5	O	0.746585	1.000546	0.075253
O6	O	1.093261	1.000529	-0.265865
O7	O	0.746585	1.000545	-0.075178
O8	O	1.093260	0.659393	0.075272
O9	O	0.746586	1.341682	-0.265884
O10	O	1.073868	0.888265	-0.056078
O11	O	0.959780	0.888270	0.056182
O12	O	0.959780	1.112801	-0.168350
O13	O	0.845692	1.112806	-0.056090
Zr14	Zr	1.138732	1.000528	0.120019
Zr15	Zr	1.138732	1.000528	-0.119902
Zr16	Zr	0.894916	1.000539	0.120006
Zr17	Zr	0.894916	1.240460	-0.119916
Zr18	Zr	1.138732	0.760607	0.120019
O19	O	1.093261	1.191236	0.075271
O20	O	1.093262	1.191235	-0.265866
O21	O	0.746585	1.191251	0.075253
O22	O	1.287062	0.809816	0.265987
O23	O	1.287062	0.809815	-0.075150
O24	O	0.940386	0.809832	0.265969
O25	O	1.287063	1.000521	-0.075150
O26	O	1.093261	1.000531	0.265977
O27	O	0.940387	1.000537	0.265969
O28	O	1.287063	1.000522	0.075282
O29	O	0.940388	1.341673	-0.265874
O30	O	1.093260	0.659393	0.265977
O31	O	1.287062	0.659385	0.265988
O32	O	1.287062	0.659384	0.075282
O33	O	0.746586	1.341683	-0.075179
O34	O	0.940388	1.341674	-0.075169
O35	O	1.073868	0.888266	0.168453
O36	O	1.187956	0.888260	0.056194
O37	O	1.073868	1.112796	-0.056078
O38	O	0.959780	1.112802	0.056181
C39	C	1.016824	0.700428	0.000052
C40	C	1.016823	0.598575	0.000052
C41	C	0.711847	1.000547	0.000036
C42	C	0.608340	1.000551	0.000030
C43	C	1.073419	0.553163	-0.055636
C44	C	1.073420	0.447893	-0.055637
C45	C	0.485546	1.122978	-0.061175
C46	C	0.454710	1.061777	-0.105532
C47	C	0.454752	1.061748	0.044379
C48	C	0.578868	0.939349	-0.044388
C49	C	0.578907	0.939338	0.105581
C50	C	0.548145	0.878047	0.061251
C51	C	1.321801	1.000520	0.000068
C52	C	1.425308	1.000515	0.000073
C53	C	1.016824	1.000532	-0.300053
C54	C	1.016825	1.000532	-0.401906
C55	C	1.016824	1.300639	0.000051
C56	C	1.016825	1.402492	0.000051
C57	C	1.073419	0.889150	-0.496887
C58	C	1.073420	0.889147	-0.391616
C59	C	1.016824	1.000534	0.300157
C60	C	1.016823	1.000534	0.402009
C61	C	1.321801	0.700415	0.000068
C62	C	1.425307	0.598557	0.000074
C63	C	1.016823	0.700429	0.300157
C64	C	1.016823	0.598576	0.402010
C65	C	1.321800	0.700415	0.300173
C66	C	1.425307	0.598558	0.402031
C67	C	0.711848	1.300651	-0.300069
C68	C	0.608341	1.402508	-0.401928
C69	C	0.711847	1.300652	0.000035
C70	C	0.608341	1.402510	0.000030
C71	C	1.016825	1.300638	-0.300053
C72	C	1.016825	1.402490	-0.401906
C73	C	1.414858	0.553148	-0.055618
C74	C	1.521836	0.447873	-0.055614
C75	C	1.073418	0.553165	0.503113
C76	C	1.073419	0.447895	0.608385
C77	C	1.528048	0.553144	0.391755
C78	C	1.635029	0.447869	0.497029
H79	H	1.121877	0.592212	-0.103308
H80	H	0.401247	1.113515	0.081867
H81	H	1.723167	0.408811	0.488404
H82	H	1.121867	0.793787	-0.304883
H83	H	0.968362	1.095898	-0.488635
F84	F	1.136755	0.764504	-0.485609
F85	F	0.953497	1.125180	-0.609269
F86	F	0.953493	0.453522	0.484733
F87	F	1.299649	0.604206	-0.117951
F88	F	0.953483	0.547539	0.390732
F89	F	1.510369	0.396828	-0.117930
F90	F	1.509376	0.453498	0.609410
F91	F	0.384756	1.129406	-0.222180
F92	F	1.413849	0.547518	0.515399
F93	F	1.636048	0.453491	0.062415
F94	F	0.953497	0.547524	0.062377
H95	H	1.536812	0.592205	0.305020
H96	H	1.121869	0.408846	-0.103319
H97	H	1.513452	0.559499	0.047752
H98	H	0.632227	0.887643	-0.081979
H99	H	1.121866	0.592226	0.511736
F100	F	1.136760	0.396847	0.721750
H101	H	0.968363	0.441544	0.047725
F102	F	0.452295	1.258288	-0.128929
H103	H	0.632421	0.887640	0.194808
F104	F	0.581595	0.742659	0.128860
