data_functionalizedCrystal
_audit_creation_method	'MofGen! by Chris Wilmer'
_symmetry_space_group_name_H-M	'P1'
_symmetry_Int_Tables_number	1
_symmetry_cell_setting	triclinic
loop_
_symmetry_equiv_pos_as_xyz
  x,y,z
_cell_length_a	13.897449
_cell_length_b	12.594516
_cell_length_c	12.594510
_cell_angle_alpha	89.968094
_cell_angle_beta	89.978681
_cell_angle_gamma	90.017332
loop_
_atom_site_label
_atom_site_type_symbol
_atom_site_fract_x
_atom_site_fract_y
_atom_site_fract_z
Zn1	Zn	1.474719	-0.423614	-0.601833
Zn2	Zn	1.474616	-0.601642	-0.423861
Zn3	Zn	1.313407	-0.423682	-0.423867
Zn4	Zn	1.313395	-0.601555	-0.601796
O5	O	1.394034	-0.512623	-0.512839
O6	O	1.609687	-0.447238	-0.578238
O7	O	1.453193	-0.578100	-0.274916
O8	O	1.334853	-0.274727	-0.447493
O9	O	1.609611	-0.578034	-0.447483
O10	O	1.453369	-0.274677	-0.578244
O11	O	1.334753	-0.447353	-0.274920
O12	O	1.178423	-0.447269	-0.447456
O13	O	1.334833	-0.577886	-0.750747
O14	O	1.178415	-0.577951	-0.578180
O15	O	1.453357	-0.447153	-0.750774
O16	O	1.453182	-0.750576	-0.447446
O17	O	1.334733	-0.750512	-0.578174
C18	C	1.143420	-0.512609	-0.512815
C19	C	1.036206	-0.512628	-0.512830
C20	C	1.393971	-0.789164	-0.512829
C21	C	1.394032	-0.907469	-0.512860
C22	C	0.839911	-0.512632	-0.512858
C23	C	0.949143	-0.512627	-0.512839
C24	C	1.329602	-0.976726	-0.583913
C25	C	1.306097	-1.047602	-0.486790
C26	C	1.417624	-1.047393	-0.609999
C27	C	1.370481	-0.976787	-0.415686
C28	C	1.482049	-0.976571	-0.538960
C29	C	1.458578	-1.047415	-0.441771
C30	C	1.645627	-0.512638	-0.512864
C31	C	1.752841	-0.512644	-0.512875
C32	C	1.394105	-0.512502	-0.790460
C33	C	1.394135	-0.512451	-0.908766
C34	C	1.394124	-0.235002	-0.512873
C35	C	1.394162	-0.116697	-0.512887
C36	C	1.458624	-0.441324	-1.048798
C37	C	1.482175	-0.538444	-0.977980
C38	C	1.370627	-0.415341	-0.978012
C39	C	1.417773	-0.609589	-1.048734
C40	C	1.306184	-0.486421	-1.048772
C41	C	1.329701	-0.583609	-0.977986
C42	C	1.394019	-0.512667	-0.236298
C43	C	1.394176	-0.512418	-0.117993
H44	H	1.231723	-1.078825	-0.464737
N45	N	1.580714	-0.567594	-0.936772
H46	H	1.576074	-0.634369	-0.892619
H47	H	1.625586	-0.580082	-0.998610
N48	N	1.580540	-0.935201	-0.568227
H49	H	1.629449	-0.962035	-0.515342
H50	H	1.598169	-0.960843	-0.641665
H51	H	1.513121	-1.078257	-0.381626
N52	N	1.443990	-1.088488	-0.718793
H53	H	1.395223	-1.062774	-0.772391
H54	H	1.509967	-1.061533	-0.738958
N55	N	1.444244	-0.718389	-1.089698
H56	H	1.444123	-0.717698	-1.169889
H57	H	1.510462	-0.738136	-1.063245
N58	N	1.257297	-0.935599	-0.663378
H59	H	1.258192	-0.855411	-0.663280
H60	H	1.274421	-0.962458	-0.736525
H61	H	1.513184	-0.381263	-1.079888
N62	N	1.344264	-0.306578	-0.936866
H63	H	1.278290	-0.286374	-0.963724
H64	H	1.343888	-0.307638	-0.856683
N65	N	1.257486	-0.663348	-0.937047
H66	H	1.275384	-0.736625	-0.962909
H67	H	1.257504	-0.662394	-0.856863
N68	N	1.344009	-0.935881	-0.306853
H69	H	1.283792	-0.891294	-0.311963
H70	H	1.332148	-0.997855	-0.257632
H71	H	1.231810	-0.464383	-1.079893
