data_functionalizedCrystal
_audit_creation_method	'MofGen! by Chris Wilmer'
_symmetry_space_group_name_H-M	'P1'
_symmetry_Int_Tables_number	1
_symmetry_cell_setting	triclinic
loop_
_symmetry_equiv_pos_as_xyz
  x,y,z
_cell_length_a	10.654545
_cell_length_b	14.044220
_cell_length_c	12.503572
_cell_angle_alpha	86.156832
_cell_angle_beta	93.551952
_cell_angle_gamma	88.835978
loop_
_atom_site_label
_atom_site_type_symbol
_atom_site_fract_x
_atom_site_fract_y
_atom_site_fract_z
O1	O	1.687863	0.127772	0.089313
O2	O	1.323660	0.140469	0.089318
O3	O	1.500294	-0.003899	0.089305
O4	O	1.511229	0.272140	0.089326
O5	O	1.487012	0.006976	-0.089336
O6	O	1.310378	0.151345	-0.089323
O7	O	1.674581	0.138647	-0.089328
Cu8	Cu	1.491267	0.145989	-0.105637
Cu9	Cu	1.506974	0.133127	0.105627
O10	O	1.497947	0.283016	-0.089315
C11	C	1.270127	0.144976	-0.000002
C12	C	1.130404	0.142189	-0.000001
C13	C	1.057528	0.146805	-0.097379
C14	C	0.926243	0.144171	-0.097379
C15	C	0.940724	0.132308	0.097385
C16	C	1.072006	0.134935	0.097385
C17	C	0.741543	0.092229	-0.214375
C18	C	0.668660	0.096862	-0.311758
C19	C	0.701463	0.158437	-0.397730
C20	C	0.807145	0.215402	-0.386323
C21	C	0.880020	0.210777	-0.288939
C22	C	0.847220	0.149180	-0.202970
C23	C	1.256708	0.186885	0.214374
C24	C	1.329585	0.182267	0.311760
C25	C	1.296785	0.120698	0.397741
C26	C	1.191099	0.063746	0.386345
C27	C	1.118222	0.068364	0.288959
C28	C	1.151031	0.129932	0.202977
C29	C	1.488867	-0.033807	-0.000016
C30	C	1.474591	-0.139127	-0.000017
C31	C	1.448494	-0.331960	-0.000001
C32	C	1.549742	-0.388929	0.000001
C33	C	1.535221	-0.496229	0.000009
C34	C	1.463013	-0.224651	-0.000010
C35	C	1.728114	0.134141	-0.000006
C36	C	1.867838	0.136927	-0.000000
C37	C	1.509374	0.312924	0.000008
C38	C	1.523650	0.418243	0.000016
N39	N	1.480228	0.155035	-0.254228
C40	C	1.463991	0.168349	-0.473342
C41	C	1.534255	0.110763	-0.526675
C42	C	1.525221	0.118171	-0.648597
C43	C	1.473024	0.160942	-0.351409
N44	N	1.518022	0.124074	0.254218
H45	H	0.966060	0.257161	-0.279649
N46	N	1.155723	-0.002673	0.479075
H47	H	1.077715	-0.038050	0.457077
H48	H	1.138724	0.035637	0.542395
H49	H	1.601197	0.055899	-0.480767
H50	H	1.350915	-0.363770	0.000003
H51	H	1.415630	0.228655	0.321039
N52	N	0.842521	0.281817	-0.479055
H53	H	0.920524	0.317199	-0.457052
H54	H	0.771072	0.329122	-0.499793
N55	N	1.375329	0.241020	-0.534148
H56	H	1.424759	0.286072	-0.580800
H57	H	1.329709	0.278358	-0.481507
N58	N	0.622861	0.163425	-0.502766
H59	H	0.676719	0.145004	-0.562152
H60	H	0.588275	0.230624	-0.519475
N61	N	0.877722	0.124497	0.202411
H62	H	0.900126	0.181059	0.244990
H63	H	0.907362	0.063630	0.244895
N64	N	1.120517	0.154628	-0.202410
H65	H	1.054424	0.157151	-0.264097
H66	H	1.178284	0.097278	-0.206660
H67	H	0.582615	0.050474	-0.321039
H68	H	0.714834	0.042076	-0.144381
H69	H	1.032165	0.021989	0.279685
N70	N	1.375396	0.115723	0.502776
H71	H	1.409991	0.048535	0.519585
H72	H	1.321471	0.134192	0.562094
H73	H	1.283430	0.237019	0.144362
H74	H	1.647335	-0.357122	0.000071
