data_functionalizedCrystal
_audit_creation_method	'MofGen! by Chris Wilmer'
_symmetry_space_group_name_H-M	'P1'
_symmetry_Int_Tables_number	1
_symmetry_cell_setting	triclinic
loop_
_symmetry_equiv_pos_as_xyz
  x,y,z
_cell_length_a	11.792241
_cell_length_b	15.712078
_cell_length_c	14.750779
_cell_angle_alpha	106.501446
_cell_angle_beta	77.269352
_cell_angle_gamma	101.887282
loop_
_atom_site_label
_atom_site_type_symbol
_atom_site_fract_x
_atom_site_fract_y
_atom_site_fract_z
O1	O	0.640477	1.131129	-0.079861
O2	O	0.553908	0.879069	-0.079855
O3	O	0.434510	1.011218	-0.079851
O4	O	0.759874	0.998981	-0.079864
O5	O	0.400763	1.048574	0.079800
O6	O	0.520161	0.916426	0.079796
O7	O	0.606730	1.168486	0.079791
Zn8	Zn	0.558087	1.048387	0.105142
Zn9	Zn	0.602550	0.999168	-0.105206
O10	O	0.726128	1.036338	0.079787
C11	C	0.375033	1.029128	-0.000026
C12	C	0.248083	1.026827	-0.000027
C13	C	0.522892	0.865479	-0.000029
C14	C	0.480738	0.769326	-0.000026
C15	C	0.637747	1.182076	-0.000038
C16	C	0.679902	1.278227	-0.000046
C17	C	0.015653	1.022594	-0.000043
C18	C	0.144993	1.024946	-0.000034
C19	C	0.785605	1.018427	-0.000041
C20	C	0.912556	1.020726	-0.000046
N21	N	0.527745	1.081984	0.248698
C22	C	0.322005	1.643652	-0.000022
C23	C	0.361641	1.733999	-0.000024
C24	C	0.560247	1.714312	-0.000032
C25	C	0.520628	1.623960	-0.000034
C26	C	0.401506	1.588638	-0.000028
C27	C	0.600129	1.568946	-0.000041
C28	C	0.560512	1.478604	-0.000039
C29	C	0.441394	1.443275	-0.000030
C30	C	0.361889	1.498296	-0.000026
C31	C	0.719249	1.604272	-0.000040
C32	C	0.798750	1.549258	-0.000047
C33	C	0.759135	1.458912	-0.000051
C34	C	0.640018	1.423583	-0.000042
C35	C	0.838641	1.403892	-0.000055
C36	C	0.799024	1.313549	-0.000053
C37	C	0.600401	1.333241	-0.000040
N38	N	0.632887	0.965578	-0.248763
C39	C	0.717580	0.871746	0.600510
C40	C	0.696328	0.895295	0.701010
C41	C	0.590668	1.012337	0.700976
C42	C	0.611907	0.988795	0.600474
C43	C	0.675364	0.918499	0.550249
C44	C	0.569691	1.035548	0.550213
C45	C	0.590933	1.012010	0.449720
C46	C	0.654391	0.941720	0.399488
C47	C	0.696606	0.894962	0.449756
C48	C	0.506241	1.105847	0.600440
C49	C	0.464025	1.152601	0.550179
C50	C	0.485260	1.129059	0.449684
C51	C	0.548718	1.058768	0.399452
C52	C	0.443045	1.175817	0.399416
C53	C	0.464287	1.152280	0.298923
C54	C	0.569960	1.035231	0.298959
H55	H	0.503402	1.304478	-0.000045
H56	H	0.769243	0.814498	0.559615
H57	H	0.730712	0.857217	0.741928
Cl58	Cl	0.948499	1.593671	-0.000056
Cl59	Cl	0.212132	1.453884	-0.000016
H60	H	0.539004	1.069574	0.741881
Cl61	Cl	0.988386	1.448311	-0.000052
Cl62	Cl	0.391585	1.329702	-0.000019
H63	H	0.391387	1.233058	0.440323
Cl64	Cl	0.411218	1.211060	0.235736
Cl65	Cl	0.898967	1.244386	-0.000053
Cl66	Cl	0.649722	0.946848	0.235815
H67	H	0.488953	1.125011	0.682268
Cl68	Cl	0.384256	1.240971	0.613326
H69	H	0.225006	1.614889	-0.000027
Cl70	Cl	0.709996	1.758725	-0.000041
Cl71	Cl	0.261683	1.803158	-0.000015
Cl72	Cl	0.681102	0.912133	0.273152
H73	H	0.751501	1.677836	-0.000038
H74	H	0.748269	0.837714	0.408861
