data_functionalizedCrystal
_audit_creation_method	'MofGen! by Chris Wilmer'
_symmetry_space_group_name_H-M	'P1'
_symmetry_Int_Tables_number	1
_symmetry_cell_setting	triclinic
loop_
_symmetry_equiv_pos_as_xyz
  x,y,z
_cell_length_a	17.019282
_cell_length_b	23.532357
_cell_length_c	16.098538
_cell_angle_alpha	92.699547
_cell_angle_beta	91.140572
_cell_angle_gamma	83.109667
loop_
_atom_site_label
_atom_site_type_symbol
_atom_site_fract_x
_atom_site_fract_y
_atom_site_fract_z
O1	O	1.045799	0.072729	0.005763
O2	O	1.545799	0.572729	0.505763
O3	O	0.816901	0.081386	-0.010662
O4	O	1.316901	0.581386	0.489338
O5	O	0.938272	-0.005835	-0.001936
O6	O	1.438272	0.494165	0.498064
O7	O	0.924428	0.159950	-0.002963
O8	O	1.424428	0.659950	0.497037
O9	O	0.931182	-0.000760	0.136068
O10	O	1.431182	0.499240	0.636068
O11	O	0.809811	0.086461	0.127341
O12	O	1.309811	0.586461	0.627341
O13	O	1.038709	0.077804	0.143766
O14	O	1.538709	0.577804	0.643766
Zn15	Zn	0.923135	0.082938	0.157465
Zn16	Zn	1.423135	0.582938	0.657465
Zn17	Zn	0.932476	0.076252	-0.024360
Zn18	Zn	1.432476	0.576252	0.475640
O19	O	0.917338	0.165025	0.135040
O20	O	1.417338	0.665025	0.635040
C21	C	0.784078	0.083496	0.056239
C22	C	1.284078	0.583496	0.556239
C23	C	0.696837	0.082217	0.049980
C24	C	1.196837	0.582217	0.549980
C25	C	0.651991	0.084381	0.122267
C26	C	1.151991	0.584381	0.622267
C27	C	0.570021	0.083170	0.116388
C28	C	1.070021	0.583170	0.616388
C29	C	0.532897	0.079799	0.038221
C30	C	1.032897	0.579799	0.538221
C31	C	0.577749	0.077633	-0.034071
C32	C	1.077749	0.577633	0.465929
C33	C	0.659719	0.078840	-0.028191
C34	C	1.159719	0.578840	0.471809
C35	C	0.285596	0.076013	0.016705
C36	C	0.785596	0.576013	0.516705
C37	C	0.203620	0.074808	0.010831
C38	C	0.703620	0.574808	0.510831
C39	C	0.195897	0.080344	0.161290
C40	C	0.695897	0.580344	0.661290
C41	C	0.277868	0.081554	0.167163
C42	C	0.777868	0.581554	0.667163
C43	C	0.322714	0.079385	0.094871
C44	C	0.822714	0.579385	0.594871
C45	C	0.449110	0.078563	0.032210
C46	C	0.949110	0.578563	0.532210
C47	C	0.406500	0.080617	0.100883
C48	C	0.906500	0.580617	0.600883
C49	C	0.934381	-0.024516	0.067044
C50	C	1.434381	0.475484	0.567044
C51	C	0.933339	-0.087740	0.066977
C52	C	1.433339	0.412260	0.566977
C53	C	0.930669	-0.482558	-0.008762
C54	C	1.430669	0.017442	0.491238
C55	C	0.929680	-0.541964	-0.008838
C56	C	1.429680	-0.041964	0.491162
O57	O	0.932428	-0.575036	-0.072853
O58	O	1.432428	-0.075036	0.427147
N59	N	0.925324	-0.568911	0.066351
N60	N	1.425324	-0.068911	0.566351
C61	C	0.921950	-0.536450	0.141620
C62	C	1.421950	-0.036450	0.641620
O63	O	0.918154	-0.564826	0.205568
O64	O	1.418154	-0.064826	0.705568
C65	C	0.922934	-0.477045	0.141695
C66	C	1.422934	0.022955	0.641695
C67	C	0.927298	-0.450101	0.066501
C68	C	1.427298	0.049899	0.566501
C69	C	0.935032	-0.455614	-0.083950
C70	C	1.435032	0.044386	0.416050
C71	C	0.936023	-0.396213	-0.083874
C72	C	1.436023	0.103787	0.416126
C73	C	0.932651	-0.363756	-0.008610
C74	C	1.432651	0.136244	0.491390
C75	C	0.928289	-0.390700	0.066577
C76	C	1.428289	0.109300	0.566577
C77	C	0.919554	-0.444584	0.216963
C78	C	1.419554	0.055416	0.716963
C79	C	0.920538	-0.385175	0.217031
C80	C	1.420538	0.114825	0.717031
C81	C	0.924902	-0.358231	0.141837
C82	C	1.424902	0.141769	0.641837
C83	C	0.925908	-0.298841	0.141917
C84	C	1.425908	0.201159	0.641917
N85	N	0.930264	-0.271894	0.066728
N86	N	1.430264	0.228106	0.566728
C87	C	0.933635	-0.304351	-0.008536
C88	C	1.433635	0.195649	0.491464
C89	C	0.919883	-0.661204	0.141458
C90	C	1.419883	-0.161204	0.641458
C91	C	0.918904	-0.720608	0.141385
C92	C	1.418904	-0.220608	0.641385
C93	C	0.926632	-0.726118	-0.009074
C94	C	1.426632	-0.226118	0.490926
C95	C	0.927616	-0.666713	-0.009000
C96	C	1.427616	-0.166713	0.491000
C97	C	0.924238	-0.634256	0.066269
C98	C	1.424238	-0.134256	0.566269
C99	C	0.935717	-0.179604	-0.008370
C100	C	1.435717	0.320396	0.491630
C101	C	0.936711	-0.120197	-0.008287
C102	C	1.436711	0.379803	0.491713
C103	C	0.928978	-0.114693	0.142171
C104	C	1.428978	0.385307	0.642171
C105	C	0.927989	-0.174094	0.142089
C106	C	1.427989	0.325906	0.642089
C107	C	0.931355	-0.206548	0.066812
C108	C	1.431355	0.293452	0.566812
O109	O	0.923159	-0.265732	0.205900
O110	O	1.423159	0.234268	0.705900
O111	O	0.937420	-0.275966	-0.072473
O112	O	1.437420	0.224034	0.427527
C113	C	1.071533	0.075694	0.076864
C114	C	1.571533	0.575694	0.576864
C115	C	1.158774	0.076972	0.083117
C116	C	1.658774	0.576972	0.583117
C117	C	0.921230	0.183706	0.066059
C118	C	1.421230	0.683706	0.566059
C119	C	0.922272	0.246930	0.066120
C120	C	1.422272	0.746930	0.566120
N121	N	0.916765	0.087501	0.281556
N122	N	1.416765	0.587501	0.781556
N123	N	0.938851	0.071684	-0.148451
N124	N	1.438851	0.571684	0.351549
C125	C	0.968299	0.050494	0.328846
C126	C	1.468299	0.550494	0.828846
C127	C	0.963850	0.053692	0.415715
C128	C	1.463850	0.553692	0.915715
C129	C	0.907872	0.093899	0.455293
C130	C	1.407872	0.593899	0.955293
C131	C	0.856333	0.130908	0.407996
C132	C	1.356333	0.630908	0.907996
C133	C	0.860778	0.127707	0.321129
C134	C	1.360778	0.627707	0.821129
C135	C	0.891758	0.105492	0.717384
C136	C	1.391758	0.605492	1.217384
C137	C	0.887318	0.108691	0.804259
C138	C	1.387318	0.608691	1.304259
C139	C	0.994835	0.031474	0.811972
C140	C	1.494835	0.531474	1.311972
C141	C	0.999278	0.028279	0.725102
C142	C	1.499278	0.528279	1.225102
C143	C	0.947737	0.065286	0.677813
C144	C	1.447737	0.565286	1.177813
C145	C	0.903325	0.097170	0.544087
C146	C	1.403325	0.597170	1.044087
C147	C	0.952280	0.062012	0.589020
C148	C	1.452280	0.562012	1.089020
H149	H	0.436730	0.083359	0.164525
H150	H	0.936730	0.583359	0.664525
C151	C	0.930333	-0.761831	-0.091867
C152	C	1.430333	-0.261831	0.408133
N153	N	0.933119	-0.788732	-0.154223
N154	N	1.433119	-0.288732	0.345777
H155	H	0.857748	0.129908	0.576319
H156	H	1.357748	0.629908	1.076319
H157	H	0.938454	-0.206021	-0.069668
H158	H	1.438454	0.293979	0.430332
H159	H	0.841731	0.141435	0.836478
H160	H	1.341731	0.641435	1.336478
C161	C	0.408265	0.074859	-0.053771
C162	C	0.908265	0.574859	0.446229
N163	N	0.377498	0.072067	-0.118533
N164	N	0.877498	0.572067	0.381467
H165	H	0.818814	0.157841	0.282625
H166	H	1.318814	0.657841	0.782625
H167	H	0.917775	-0.358750	0.278324
H168	H	1.417775	0.141250	0.778324
H169	H	0.915363	-0.742542	0.202616
H170	H	1.415363	-0.242542	0.702616
C171	C	0.536910	0.073924	-0.120055
C172	C	1.036910	0.573924	0.379945
N173	N	0.506151	0.071131	-0.184821
N174	N	1.006151	0.571131	0.315179
H175	H	0.931168	-0.644779	-0.070229
H176	H	1.431168	-0.144779	0.429771
C177	C	0.692819	0.088089	0.208257
C178	C	1.192819	0.588089	0.708257
N179	N	0.723569	0.090879	0.273027
N180	N	1.223569	0.590879	0.773027
H181	H	0.917134	-0.634781	0.202755
H182	H	1.417134	-0.134781	0.702755
H183	H	0.696231	0.077079	-0.087055
H184	H	1.196231	0.577079	0.412945
H185	H	1.013885	0.017756	0.296629
H186	H	1.513885	0.517756	0.796629
H187	H	0.997855	0.029273	0.556793
H188	H	1.497855	0.529273	1.056793
C189	C	0.520691	0.085564	0.195910
C190	C	1.020691	0.585564	0.695910
N191	N	0.483536	0.087372	0.255809
N192	N	0.983536	0.587372	0.755809
H193	H	1.044860	-0.004461	0.692880
H194	H	1.544860	0.495539	1.192880
H195	H	0.849792	0.135625	0.678888
H196	H	1.349792	0.635625	1.178888
H197	H	0.924443	-0.196033	0.203318
H198	H	1.424443	0.303967	0.703318
C199	C	0.794749	0.175131	0.451534
C200	C	1.294749	0.675131	0.951534
N201	N	0.748362	0.208441	0.484326
N202	N	1.248362	0.708441	0.984326
H203	H	0.926237	-0.088256	0.203450
H204	H	1.426237	0.411744	0.703450
H205	H	0.940266	-0.098263	-0.069521
H206	H	1.440266	0.401737	0.430479
C207	C	0.940814	-0.366582	-0.166594
C208	C	1.440814	0.133418	0.333406
N209	N	0.944419	-0.344267	-0.228904
N210	N	1.444419	0.155733	0.271096
H211	H	0.308089	0.084297	0.230814
H212	H	0.808089	0.584297	0.730814
C213	C	0.938775	-0.491311	-0.166751
C214	C	1.438775	0.008689	0.333249
N215	N	0.941612	-0.518196	-0.229121
N216	N	1.441612	-0.018196	0.270879
H217	H	0.916002	-0.466511	0.278194
H218	H	1.416002	0.033489	0.778194
H219	H	1.005812	0.023558	0.454219
H220	H	1.505812	0.523558	0.954219
C221	C	1.051520	-0.009235	0.863996
C222	C	1.551520	0.490765	1.363996
N223	N	1.094215	-0.039900	0.903181
N224	N	1.594215	0.460100	1.403181
H225	H	0.159375	0.082109	0.220146
H226	H	0.659375	0.582109	0.720146
H227	H	0.322100	0.074245	-0.042161
H228	H	0.822100	0.574245	0.457839
C229	C	0.162786	0.071099	-0.075162
C230	C	0.662786	0.571099	0.424838
N231	N	0.132029	0.068307	-0.139929
N232	N	0.632029	0.568307	0.360071
