data_functionalizedCrystal
_audit_creation_method	'MofGen! by Chris Wilmer'
_symmetry_space_group_name_H-M	'P1'
_symmetry_Int_Tables_number	1
_symmetry_cell_setting	triclinic
loop_
_symmetry_equiv_pos_as_xyz
  x,y,z
_cell_length_a	33.510554
_cell_length_b	33.509711
_cell_length_c	33.506470
_cell_angle_alpha	60.004186
_cell_angle_beta	60.008358
_cell_angle_gamma	59.994760
loop_
_atom_site_label
_atom_site_type_symbol
_atom_site_fract_x
_atom_site_fract_y
_atom_site_fract_z
O1	O	0.055430	-0.583081	0.487524
O2	O	0.020931	-0.453975	0.392819
O3	O	0.102693	-0.535652	0.392731
O4	O	-0.026332	-0.501404	0.487613
O5	O	0.129823	-0.508526	0.419767
O6	O	0.048062	-0.426850	0.419856
O7	O	0.082561	-0.555956	0.514561
Cu8	Cu	0.067789	-0.488926	0.469677
Cu9	Cu	0.035703	-0.521005	0.437703
O10	O	0.000799	-0.474279	0.514649
N11	N	0.090357	-0.466366	0.492168
N12	N	0.013139	-0.543569	0.415212
C13	C	0.143028	-0.279707	0.544737
C14	C	0.143165	-0.413746	0.678712
C15	C	0.143043	-0.413725	0.544739
C16	C	0.277090	-0.413694	0.544637
C17	C	0.157791	-0.323929	0.559462
C18	C	0.157869	-0.398994	0.634489
C19	C	0.232865	-0.398963	0.559407
C20	C	0.157801	-0.398982	0.559463
C21	C	0.124237	-0.223419	0.525994
C22	C	0.124262	-0.432490	0.525997
C23	C	0.176583	-0.380217	0.578205
C24	C	0.358938	-0.399566	0.501510
C25	C	0.410104	-0.416609	0.484423
C26	C	0.410135	-0.499402	0.515995
C27	C	0.358969	-0.482358	0.533084
C28	C	0.136554	-0.197822	0.475693
C29	C	0.119469	-0.146653	0.458657
C30	C	0.077755	-0.146680	0.542223
C31	C	0.094840	-0.197850	0.559260
C32	C	0.073954	-0.420144	0.538396
C33	C	0.056884	-0.437203	0.521352
C34	C	0.140427	-0.478952	0.479524
C35	C	0.157498	-0.461894	0.496561
C36	C	0.074158	-0.420182	0.760618
C37	C	0.057149	-0.437256	0.811786
C38	C	0.140732	-0.479014	0.811717
C39	C	0.157740	-0.461942	0.760547
C40	C	0.124452	-0.432525	0.734999
C41	C	0.333372	-0.432439	0.525839
C42	C	-0.020612	-0.577650	0.170305
C43	C	-0.020943	-0.788098	0.380897
C44	C	-0.020912	-0.577638	0.380991
C45	C	-0.231336	-0.577418	0.380585
C46	C	-0.129735	-0.611383	0.346870
C47	C	-0.054722	-0.611464	0.347017
C48	C	-0.073450	-0.630202	0.328195
C49	C	-0.087616	-0.712029	0.371239
C50	C	-0.070599	-0.763199	0.388315
C51	C	0.012191	-0.763282	0.356872
C52	C	-0.004828	-0.712113	0.339795
C53	C	-0.155381	-0.623711	0.397158
C54	C	-0.206547	-0.606601	0.414133
C55	C	-0.206417	-0.564839	0.330529
C56	C	-0.155251	-0.581949	0.313554
C57	C	-0.067051	-0.561160	0.334643
C58	C	-0.050026	-0.544131	0.351759
C59	C	-0.008343	-0.627704	0.393612
C60	C	-0.025368	-0.644736	0.376502
C61	C	-0.066922	-0.561168	0.246303
C62	C	-0.049794	-0.544141	0.195134
C63	C	-0.008048	-0.627719	0.195183
C64	C	-0.025175	-0.644745	0.246352
C65	C	-0.054614	-0.611468	0.271911
C66	C	-0.054732	-0.686488	0.346980
C67	C	-0.002117	-0.558258	0.114025
C68	C	-0.002879	-0.844379	0.399940
C69	C	-0.002504	-0.558243	0.399473
C70	C	-0.287615	-0.558285	0.398601
N71	N	0.434975	-0.466279	0.491900
O72	O	0.591199	-0.470749	0.375150
O73	O	0.591395	-0.565767	0.504116
O74	O	0.591311	-0.565550	0.422329
O75	O	0.591283	-0.470966	0.456937
O76	O	0.510024	-0.538522	0.449509
O77	O	0.510108	-0.538739	0.531297
O78	O	0.509913	-0.443721	0.402330
Cu79	Cu	0.502588	-0.488762	0.469295
Cu80	Cu	0.598719	-0.520726	0.437151
O81	O	0.509997	-0.443938	0.484117
N82	N	0.666332	-0.543209	0.414541
N83	N	0.090323	-0.121809	0.492157
O84	O	-0.026342	0.034503	0.487582
O85	O	0.102626	0.034543	0.392540
O86	O	0.020797	0.034507	0.392812
O87	O	0.055487	0.034539	0.487310
O88	O	0.047933	-0.046785	0.419900
O89	O	0.129763	-0.046749	0.419628
O90	O	0.000794	-0.046789	0.514670
Cu91	Cu	0.067756	-0.054192	0.469623
Cu92	Cu	0.035664	0.041946	0.437588
O93	O	0.082623	-0.046753	0.514399
N94	N	0.013091	0.109564	0.415054
N95	N	0.090671	-0.466416	0.836606
O96	O	0.086120	-0.583065	0.992910
O97	O	-0.008880	-0.454051	0.992954
O98	O	-0.008658	-0.535864	0.992931
O99	O	0.085897	-0.501252	0.992933
O100	O	0.018407	-0.508749	0.911642
O101	O	0.018185	-0.426936	0.911665
O102	O	0.113185	-0.555949	0.911621
Cu103	Cu	0.068156	-0.488967	0.904221
Cu104	Cu	0.036148	-0.521034	1.000355
O105	O	0.112963	-0.474136	0.911644
N106	N	0.013633	-0.543590	1.067970
C107	C	0.031262	-0.424144	0.393290
C108	C	0.132513	-0.525291	0.393180
C109	C	0.072229	-0.585787	0.514090
C110	C	-0.029022	-0.484640	0.514200
C111	C	0.550775	-0.565338	0.533954
C112	C	0.550672	-0.565070	0.432670
C113	C	0.550530	-0.444149	0.372492
C114	C	0.550635	-0.444418	0.473776
C115	C	0.132408	-0.005998	0.392963
C116	C	0.031106	-0.006142	0.393333
C117	C	-0.029021	-0.006147	0.514213
C118	C	0.072314	-0.006104	0.513878
C119	C	-0.008430	-0.424240	0.952316
C120	C	-0.008150	-0.525550	0.952271
C121	C	0.112735	-0.585760	0.952260
C122	C	0.112461	-0.484444	0.952286
H123	H	0.047048	-0.396226	0.739820
C124	C	0.550725	-0.404814	0.483585
C125	C	0.592515	-0.391756	0.450268
C126	C	0.592618	-0.355279	0.459293
H127	H	0.522387	-0.376992	0.479964
H128	H	0.550794	-0.416755	0.515929
H129	H	0.592441	-0.379813	0.417932
H130	H	0.620860	-0.419566	0.453883
H131	H	0.592688	-0.367220	0.491638
H132	H	0.564279	-0.327461	0.455672
H133	H	0.620974	-0.346418	0.436693
H134	H	-0.066059	-0.006159	0.544050
H135	H	0.023891	-0.387055	0.363546
H136	H	0.142166	-0.477036	0.952281
H137	H	-0.066081	-0.477343	0.543993
C138	C	0.021305	-0.006233	0.353720
C139	C	0.054610	-0.048048	0.340683
C140	C	0.045604	-0.048147	0.304188
H141	H	-0.011035	-0.006271	0.365623
H142	H	0.024952	0.022101	0.325900
H143	H	0.050958	-0.076376	0.368498
H144	H	0.086953	-0.048019	0.328772
H145	H	0.049251	-0.019813	0.276367
H146	H	0.013263	-0.048184	0.316094
H147	H	0.068202	-0.076516	0.295334
H148	H	0.016194	-0.427197	0.832639
C149	C	0.550826	-0.605171	0.583317
C150	C	0.550842	-0.646933	0.583259
C151	C	0.550884	-0.683635	0.628724
H152	H	0.579179	-0.612900	0.589297
H153	H	0.522483	-0.594012	0.608219
H154	H	0.579183	-0.658091	0.558364
H155	H	0.522491	-0.639220	0.577287
H156	H	0.522541	-0.672475	0.653626
H157	H	0.579238	-0.691359	0.634700
H158	H	0.550891	-0.711973	0.628692
C159	C	0.082047	-0.635282	0.553702
C160	C	0.093427	-0.671799	0.537005
C161	C	0.102467	-0.717399	0.573485
H162	H	0.108718	-0.641278	0.561340
H163	H	0.053783	-0.635448	0.582135
H164	H	0.121688	-0.671635	0.508581
H165	H	0.066762	-0.665819	0.529371
H166	H	0.074203	-0.717565	0.601918
H167	H	0.129137	-0.723390	0.581121
H168	H	0.110185	-0.742181	0.562163
H169	H	0.550685	-0.594783	0.425263
C170	C	0.181963	-0.535104	0.353520
C171	C	0.212101	-0.582797	0.371103
C172	C	0.257659	-0.591852	0.334585
H173	H	0.177754	-0.531468	0.325733
H174	H	0.196639	-0.512532	0.344613
H175	H	0.197428	-0.605362	0.380003
H176	H	0.216325	-0.586445	0.398886
H177	H	0.272335	-0.569281	0.325678
H178	H	0.253444	-0.588214	0.306800
H179	H	0.278114	-0.624211	0.346511
H180	H	-0.038255	-0.387188	0.952329
C181	C	0.082160	-0.005997	0.553452
C182	C	0.048878	0.035826	0.566482
C183	C	0.057939	0.035943	0.602931
H184	H	0.078530	-0.034317	0.581287
H185	H	0.114514	-0.005960	0.541496
H186	H	0.016532	0.035784	0.578440
H187	H	0.052503	0.064152	0.538658
H188	H	0.090293	0.035981	0.590975
H189	H	0.054309	0.007622	0.630763
H190	H	0.035362	0.064322	0.611773
C191	C	0.550372	-0.404387	0.323111
C192	C	0.508535	-0.393190	0.314488
C193	C	0.508376	-0.356568	0.269001
H194	H	0.550327	-0.375968	0.323012
H195	H	0.578688	-0.415563	0.298201
H196	H	0.480226	-0.382013	0.339391
H197	H	0.508571	-0.421598	0.314577
H198	H	0.536691	-0.367744	0.244091
H199	H	0.508332	-0.328153	0.268906
H200	H	0.479992	-0.348970	0.263142
C201	C	0.176951	-0.510966	0.839367
C202	C	0.224638	-0.518131	0.805980
C203	C	0.258014	-0.547573	0.831433
H204	H	0.172117	-0.495391	0.859332
H205	H	0.172082	-0.541658	0.859312
H206	H	0.229504	-0.487444	0.786044
H207	H	0.229487	-0.533711	0.786015
H208	H	0.253146	-0.578265	0.851378
H209	H	0.253176	-0.531995	0.851397
H210	H	0.290373	-0.552442	0.808784
C211	C	0.181713	-0.005655	0.353131
C212	C	0.211867	-0.005534	0.370585
C213	C	0.257288	-0.005211	0.333903
H214	H	0.196514	-0.033932	0.344092
H215	H	0.177269	0.022768	0.325447
H216	H	0.216313	-0.033953	0.398260
H217	H	0.197082	0.022741	0.379620
H218	H	0.252844	0.023212	0.306219
H219	H	0.272084	-0.033488	0.324867
H220	H	0.277751	-0.005124	0.345739
C221	C	-0.047725	-0.535498	0.952300
C222	C	-0.058835	-0.574821	0.994094
C223	C	-0.095284	-0.584003	0.994134
H224	H	-0.076209	-0.507286	0.952326
H225	H	-0.036425	-0.543273	0.923953
H226	H	-0.070136	-0.567043	1.022434
H227	H	-0.030362	-0.603040	0.994078
H228	H	-0.083984	-0.591778	0.965787
H229	H	-0.123765	-0.555788	0.994158
H230	H	-0.102823	-0.610687	1.022488
C231	C	0.212343	-0.475411	0.732709
C232	C	0.224558	-0.500992	0.703342
C233	C	0.274854	-0.513412	0.677698
H234	H	0.220772	-0.446508	0.712707
H235	H	0.229748	-0.495396	0.755240
H236	H	0.207160	-0.481007	0.680814
H237	H	0.216142	-0.529900	0.723332
H238	H	0.292259	-0.533398	0.700228
H239	H	0.283278	-0.484508	0.657698
H240	H	0.283149	-0.530774	0.657772
C241	C	0.037790	-0.388202	0.570324
C242	C	-0.009920	-0.381029	0.577518
C243	C	-0.043247	-0.351600	0.606924
H244	H	0.042669	-0.403790	0.601009
H245	H	0.042664	-0.357511	0.554700
H246	H	-0.014792	-0.411714	0.593143
H247	H	-0.014815	-0.365435	0.546843
H248	H	-0.038374	-0.320909	0.591300
H249	H	-0.038364	-0.367192	0.637606
H250	H	-0.075622	-0.346726	0.611805
C251	C	0.152437	-0.635203	0.952264
C252	C	0.134919	-0.665377	0.952268
C253	C	0.171477	-0.710928	0.952277
H254	H	0.180224	-0.630984	0.923922
H255	H	0.161324	-0.649859	0.980620
H256	H	0.126039	-0.650724	0.923915
H257	H	0.107137	-0.669610	0.980609
H258	H	0.180364	-0.725584	0.980632
H259	H	0.199262	-0.706704	0.923934
H260	H	0.159595	-0.731408	0.952284
H261	H	0.167497	-0.502899	0.455559
C262	C	0.002269	-0.423734	0.534715
C263	C	-0.010013	-0.398137	0.492019
C264	C	-0.060320	-0.385715	0.504309
H265	H	-0.006160	-0.452637	0.552055
H266	H	-0.015098	-0.403760	0.554670
H267	H	0.007348	-0.418111	0.472072
H268	H	-0.001596	-0.369228	0.474672
H269	H	-0.077687	-0.365741	0.524264
H270	H	-0.068745	-0.414620	0.521651
H271	H	-0.068660	-0.368342	0.475343
H272	H	0.338156	-0.509129	0.552896
C273	C	0.212132	-0.475263	0.482999
C274	C	0.233142	-0.457855	0.432097
C275	C	0.283468	-0.470165	0.419584
H276	H	0.217602	-0.460898	0.497312
H277	H	0.226550	-0.509790	0.494720
H278	H	0.218728	-0.423335	0.420381
H279	H	0.227685	-0.472217	0.417772
H280	H	0.297887	-0.504692	0.431305
H281	H	0.288934	-0.455800	0.433900
H282	H	0.297731	-0.458360	0.385046
C283	C	0.437838	-0.553621	0.523926
C284	C	0.404498	-0.578765	0.548901
C285	C	0.430002	-0.628713	0.556220
H286	H	0.457779	-0.558426	0.493209
H287	H	0.457810	-0.565642	0.542677
H288	H	0.384534	-0.566748	0.530150
H289	H	0.384556	-0.573974	0.579623
H290	H	0.449975	-0.640735	0.574971
H291	H	0.449942	-0.633513	0.525501
H292	H	0.407385	-0.645780	0.573170
C293	C	0.437839	-0.380881	0.457920
C294	C	0.425359	-0.346417	0.416049
C295	C	0.450904	-0.313502	0.391616
H296	H	0.429493	-0.364654	0.478911
H297	H	0.471982	-0.398162	0.448748
H298	H	0.391224	-0.329138	0.425222
H299	H	0.433706	-0.362630	0.395046
H300	H	0.485047	-0.330782	0.382444
H301	H	0.442556	-0.297278	0.412611
H302	H	0.442444	-0.290117	0.363202
C303	C	0.331119	-0.345359	0.493573
C304	C	0.301723	-0.327797	0.465952
C305	C	0.276097	-0.277864	0.458623
H306	H	0.311139	-0.340555	0.524288
H307	H	0.353660	-0.328201	0.476614
H308	H	0.279185	-0.344950	0.482911
H309	H	0.321691	-0.332588	0.435232
H310	H	0.298637	-0.260706	0.441664
H311	H	0.256119	-0.273065	0.489340
H312	H	0.256152	-0.265941	0.439878
H313	H	0.160490	-0.218637	0.448603
H314	H	0.053825	-0.125861	0.569312
C315	C	0.132910	-0.118946	0.404024
C316	C	0.162322	-0.152291	0.378538
C317	C	0.174717	-0.126788	0.328210
H318	H	0.103999	-0.098991	0.395595
H319	H	0.150287	-0.098985	0.395599
H320	H	0.144945	-0.172244	0.386959
H321	H	0.191239	-0.172247	0.386952
H322	H	0.192094	-0.106828	0.319785
H323	H	0.145804	-0.106834	0.319786
H324	H	0.194678	-0.149409	0.310912
H325	H	-0.090949	-0.534065	0.310634
H326	H	-0.059824	-0.503179	0.174290
C327	C	0.081435	-0.225551	0.613891
C328	C	0.052042	-0.192203	0.639375
C329	C	0.039688	-0.217705	0.689703
H330	H	0.064056	-0.245522	0.622358
H331	H	0.110375	-0.245495	0.622280
H332	H	0.023107	-0.172268	0.630990
H333	H	0.069411	-0.172231	0.630923
H334	H	0.068628	-0.237649	0.698092
H335	H	0.022311	-0.237675	0.698165
H336	H	0.019748	-0.195083	0.707000
H337	H	0.015913	-0.654818	0.174378
C338	C	-0.011878	-0.699366	0.274130
C339	C	-0.029264	-0.720396	0.261640
C340	C	-0.017030	-0.770709	0.287223
H341	H	0.022632	-0.713834	0.265821
H342	H	-0.026307	-0.704762	0.308268
H343	H	-0.014833	-0.715003	0.227509
H344	H	-0.063773	-0.705942	0.269950
H345	H	-0.031459	-0.776105	0.321361
H346	H	0.017480	-0.785172	0.278912
H347	H	-0.028828	-0.784983	0.278756
C348	C	-0.063327	-0.489511	0.338223
C349	C	-0.045839	-0.468494	0.287328
C350	C	-0.058070	-0.418183	0.274838
H351	H	-0.097842	-0.475030	0.349883
H352	H	-0.048964	-0.484121	0.352609
H353	H	-0.060203	-0.473881	0.272947
H354	H	-0.011325	-0.482961	0.275655
H355	H	-0.043708	-0.412792	0.289224
H356	H	-0.092585	-0.403706	0.286502
H357	H	-0.046202	-0.403917	0.240306
C358	C	0.023503	-0.663907	0.425634
C359	C	0.030645	-0.711604	0.432812
C360	C	0.059973	-0.744968	0.462315
H361	H	0.054207	-0.659091	0.410102
H362	H	0.007843	-0.659005	0.456318
H363	H	0.046306	-0.716504	0.402134
H364	H	-0.000050	-0.716436	0.448350
H365	H	0.044313	-0.740066	0.492999
H366	H	0.090675	-0.740148	0.446780
H367	H	0.064819	-0.777334	0.467193
H368	H	-0.015331	-0.685697	0.386578
C369	C	0.030942	-0.684443	0.313399
C370	C	0.065462	-0.696933	0.271551
C371	C	0.098424	-0.671459	0.247225
H372	H	0.013725	-0.650291	0.304206
H373	H	0.047109	-0.692851	0.334477
H374	H	0.049296	-0.688521	0.250477
H375	H	0.082691	-0.731081	0.280730
H376	H	0.114592	-0.679867	0.268303
H377	H	0.081203	-0.637308	0.238036
H378	H	0.121852	-0.679933	0.218831
C379	C	0.066353	-0.791195	0.349145
C380	C	0.074216	-0.841474	0.369304
C381	C	0.124101	-0.867202	0.362200
H382	H	0.084285	-0.782891	0.315144
H383	H	0.076924	-0.782851	0.364663
H384	H	0.063650	-0.849815	0.353785
H385	H	0.056296	-0.849793	0.403306
H386	H	0.134673	-0.858858	0.377717
H387	H	0.142029	-0.858894	0.328198
H388	H	0.129442	-0.901319	0.375880
C389	C	-0.106391	-0.790843	0.414732
C390	C	-0.153745	-0.757449	0.417412
C391	C	-0.186736	-0.782897	0.441780
H392	H	-0.097921	-0.810837	0.397370
H393	H	-0.105125	-0.810759	0.446812
H394	H	-0.155009	-0.737541	0.385337
H395	H	-0.162231	-0.737454	0.434777
H396	H	-0.185469	-0.802814	0.473860
H397	H	-0.178260	-0.802891	0.424415
H398	H	-0.218869	-0.760244	0.443605
H399	H	-0.090896	-0.534066	0.267110
H400	H	-0.134607	-0.647683	0.424287
C401	C	-0.234308	-0.620063	0.468754
C402	C	-0.201010	-0.649514	0.494297
C403	C	-0.226564	-0.661933	0.544613
H404	H	-0.254271	-0.591160	0.477196
H405	H	-0.254261	-0.637421	0.477118
H406	H	-0.181065	-0.632156	0.485936
H407	H	-0.181045	-0.678423	0.485870
H408	H	-0.246517	-0.679292	0.552978
H409	H	-0.246527	-0.633028	0.553050
H410	H	-0.203975	-0.681921	0.561951
C411	C	-0.234036	-0.532874	0.294282
C412	C	-0.200624	-0.525738	0.246606
C413	C	-0.226048	-0.496288	0.213203
H414	H	-0.254002	-0.548431	0.299098
H415	H	-0.253976	-0.502173	0.299143
H416	H	-0.180693	-0.556433	0.241747
H417	H	-0.180658	-0.510174	0.241775
H418	H	-0.245988	-0.465587	0.218064
H419	H	-0.246013	-0.511849	0.218023
H420	H	-0.203382	-0.491439	0.180851
C421	C	-0.141773	-0.684140	0.378930
C422	C	-0.148552	-0.654760	0.333516
C423	C	-0.198434	-0.629053	0.340578
H424	H	-0.158980	-0.706619	0.395796
H425	H	-0.153803	-0.664141	0.397656
H426	H	-0.136528	-0.674757	0.314798
H427	H	-0.131357	-0.632272	0.316642
H428	H	-0.210464	-0.609054	0.359304
H429	H	-0.215636	-0.651536	0.357445
H430	H	-0.203039	-0.609113	0.309766
H431	H	-0.134369	-0.571905	0.272603
