data_functionalizedCrystal
_audit_creation_method	'MofGen! by Chris Wilmer'
_symmetry_space_group_name_H-M	'P1'
_symmetry_Int_Tables_number	1
_symmetry_cell_setting	triclinic
loop_
_symmetry_equiv_pos_as_xyz
  x,y,z
_cell_length_a	31.640172
_cell_length_b	31.640172
_cell_length_c	31.640172
_cell_angle_alpha	59.996622
_cell_angle_beta	60.004780
_cell_angle_gamma	90.008361
loop_
_atom_site_label
_atom_site_type_symbol
_atom_site_fract_x
_atom_site_fract_y
_atom_site_fract_z
Zr1	Zr	0.407238	-0.055408	0.462542
O2	O	0.339751	-0.122906	0.550726
O3	O	0.427918	-0.034717	0.374370
O4	O	0.427918	-0.122895	0.462548
O5	O	0.339761	0.034829	0.462539
O6	O	0.497475	-0.122886	0.462539
O7	O	0.339751	-0.034728	0.462548
O8	O	0.497475	0.034848	0.304805
O9	O	0.339760	-0.122905	0.620273
O10	O	0.488657	-0.025885	0.410625
O11	O	0.436755	0.026018	0.410625
O12	O	0.436755	-0.077800	0.514443
O13	O	0.384852	-0.025898	0.514443
Zr14	Zr	0.518189	0.055542	0.462514
Zr15	Zr	0.518173	-0.055393	0.462528
Zr16	Zr	0.407253	0.055527	0.462528
Zr17	Zr	0.407253	-0.055407	0.573462
Zr18	Zr	0.518173	0.055541	0.351594
O19	O	0.497509	0.034851	0.550686
O20	O	0.497487	-0.122885	0.550706
O21	O	0.339773	0.034830	0.550706
O22	O	0.585676	0.123040	0.374330
O23	O	0.585654	-0.034696	0.374350
O24	O	0.427940	0.123019	0.374350
O25	O	0.585666	-0.034695	0.462517
O26	O	0.497509	0.123029	0.462508
O27	O	0.427952	0.123020	0.462517
O28	O	0.585675	0.034862	0.462508
O29	O	0.427939	-0.122893	0.620262
O30	O	0.497487	0.123027	0.304794
O31	O	0.585666	0.123039	0.304783
O32	O	0.585654	0.034860	0.304794
O33	O	0.339773	-0.034726	0.620262
O34	O	0.427952	-0.034715	0.620251
O35	O	0.488672	0.077934	0.410612
O36	O	0.540574	0.026031	0.410612
O37	O	0.488672	-0.025884	0.514430
O38	O	0.436769	0.026019	0.514430
C39	C	0.323950	0.000048	0.462545
C40	C	0.276855	0.000042	0.462551
C41	C	0.462694	0.000065	0.323784
C42	C	0.462688	0.000065	0.276695
C43	C	0.462732	0.138830	0.462510
C44	C	0.462739	0.185925	0.462504
C45	C	0.011941	0.027177	0.408330
C46	C	-0.165044	0.027187	0.408320
O47	O	-0.164888	0.050253	0.362231
N48	N	-0.214266	0.000087	0.462511
C49	C	-0.219241	-0.027015	0.516709
O50	O	-0.265169	-0.050060	0.562802
C51	C	-0.042257	-0.027022	0.516719
C52	C	0.006965	0.000076	0.462524
C53	C	0.061161	0.054272	0.354140
C54	C	0.105404	0.054267	0.354143
C55	C	0.100428	0.027166	0.408337
C56	C	0.051209	0.000071	0.462527
C57	C	-0.047232	-0.054120	0.570917
C58	C	-0.002981	-0.054118	0.570914
C59	C	0.046241	-0.027021	0.516719
C60	C	0.090476	-0.027035	0.516724
N61	N	0.139698	0.000065	0.462533
C62	C	0.144674	0.027165	0.408339
C63	C	-0.312159	-0.027010	0.516701
C64	C	-0.356405	-0.027009	0.516698
C65	C	-0.302204	0.027193	0.408308
C66	C	-0.257957	0.027189	0.408311
C67	C	-0.262936	0.000090	0.462509
C68	C	0.237586	0.027152	0.408349
C69	C	0.281831	0.027143	0.408357
C70	C	0.227627	-0.027057	0.516747
C71	C	0.183386	-0.027050	0.516739
C72	C	0.188369	0.000058	0.462536
O73	O	0.090359	-0.050084	0.562789
O74	O	0.190606	0.050217	0.362253
C75	C	-0.032302	0.027182	0.408327
C76	C	-0.081522	0.000086	0.462518
C77	C	-0.086498	-0.027015	0.516712
C78	C	-0.125768	0.000087	0.462516
C79	C	-0.120791	0.027188	0.408322
C80	C	-0.071569	0.054288	0.354130
C81	C	-0.027326	0.054283	0.354133
C82	C	-0.135720	-0.054115	0.570903
C83	C	-0.179961	-0.054108	0.570896
C84	C	-0.174985	-0.027007	0.516702
C85	C	0.601477	0.000085	0.462510
C86	C	0.648572	0.000092	0.462504
C87	C	0.462694	-0.138696	0.462545
C88	C	0.462687	-0.185791	0.462551
C89	C	0.435610	0.450832	0.516725
C90	C	0.435599	0.627817	0.516736
O91	O	0.412539	0.627656	0.562824
N92	N	0.462693	0.677046	0.462544
C93	C	0.489788	0.682028	0.408346
O94	O	0.512828	0.727961	0.362253
C95	C	0.489795	0.505043	0.408336
C96	C	0.462704	0.455815	0.462532
C97	C	0.408521	0.401606	0.570916
C98	C	0.408526	0.357362	0.570913
C99	C	0.435621	0.362345	0.516719
C100	C	0.462710	0.411572	0.462528
C101	C	0.516887	0.510026	0.354139
C102	C	0.516885	0.465774	0.354141
C103	C	0.489795	0.416546	0.408337
C104	C	0.489809	0.372311	0.408331
N105	N	0.462716	0.323082	0.462523
C106	C	0.435622	0.318099	0.516717
C107	C	0.489783	0.774945	0.408355
C108	C	0.489782	0.819192	0.408357
C109	C	0.435592	0.764977	0.516747
C110	C	0.435597	0.720731	0.516744
C111	C	0.462689	0.725716	0.462547
C112	C	0.435635	0.225187	0.516706
C113	C	0.435645	0.180942	0.516698
C114	C	0.489832	0.235160	0.408309
C115	C	0.489825	0.279401	0.408316
C116	C	0.462723	0.274411	0.462520
O117	O	0.512853	0.372433	0.362267
O118	O	0.412576	0.272162	0.562803
C119	C	0.435605	0.495075	0.516729
C120	C	0.462694	0.544302	0.462538
C121	C	0.489788	0.549285	0.408344
C122	C	0.462693	0.588548	0.462540
C123	C	0.435599	0.583565	0.516734
C124	C	0.408505	0.534336	0.570926
C125	C	0.408511	0.490092	0.570922
C126	C	0.516881	0.598514	0.354152
C127	C	0.516874	0.642755	0.354160
C128	C	0.489780	0.637772	0.408354
C129	C	0.489816	-0.027021	-0.015347
C130	C	0.489827	-0.027021	-0.192343
O131	O	0.512887	-0.050043	-0.215247
N132	N	0.462734	0.000071	-0.214472
C133	C	0.435639	0.027167	-0.192352
O134	O	0.412599	0.050215	-0.215240
C135	C	0.435631	0.027170	-0.015360
C136	C	0.462722	0.000072	0.006771
C137	C	0.516905	-0.054116	0.006784
C138	C	0.516900	-0.054118	0.051032
C139	C	0.489806	-0.027025	0.073150
C140	C	0.462717	0.000070	0.051020
C141	C	0.408540	0.054269	0.006756
C142	C	0.408541	0.054268	0.051006
C143	C	0.435632	0.027170	0.073137
C144	C	0.435617	0.027161	0.117386
N145	N	0.462711	0.000069	0.139515
C146	C	0.489805	-0.027024	0.117397
C147	C	0.435644	0.027163	-0.285274
C148	C	0.435645	0.027162	-0.329521
C149	C	0.489834	-0.027025	-0.329510
C150	C	0.489829	-0.027027	-0.285259
C151	C	0.462737	0.000072	-0.263145
C152	C	0.489791	-0.027027	0.210323
C153	C	0.489782	-0.027028	0.254577
C154	C	0.435595	0.027161	0.254559
C155	C	0.435602	0.027161	0.210311
C156	C	0.462704	0.000066	0.188193
O157	O	0.412574	0.050176	0.140313
O158	O	0.512850	-0.050059	0.140283
C159	C	0.489821	-0.027019	-0.059595
C160	C	0.462732	0.000076	-0.081726
C161	C	0.435638	0.027169	-0.059608
C162	C	0.462733	0.000075	-0.125973
C163	C	0.489828	-0.027018	-0.148091
C164	C	0.516921	-0.054110	-0.125962
C165	C	0.516916	-0.054112	-0.081713
C166	C	0.408545	0.054261	-0.081737
C167	C	0.408552	0.054260	-0.125985
C168	C	0.435646	0.027167	-0.148103
C169	C	0.462732	0.000068	0.601272
C170	C	0.462739	0.000069	0.648361
C171	C	0.601457	0.000084	0.323766
C172	C	0.648546	0.000090	0.276672
C173	C	0.462713	0.138829	0.323766
C174	C	0.462713	0.185923	0.276672
C175	C	0.601477	0.138847	0.323749
C176	C	0.648572	0.185948	0.276648
C177	C	0.323950	-0.138713	0.601307
C178	C	0.276855	-0.185814	0.648408
C179	C	0.323969	0.000050	0.601290
C180	C	0.276880	0.000044	0.648384
C181	C	0.462713	-0.138695	0.601290
C182	C	0.462713	-0.185789	0.648384
C183	C	0.643559	-0.027012	0.254562
C184	C	0.687800	-0.027017	0.210318
C185	C	0.737026	0.000083	0.188181
C186	C	0.742012	0.027186	0.210295
C187	C	0.697772	0.027187	0.254541
C188	C	0.489814	0.235144	0.254549
C189	C	0.489812	0.279398	0.210305
C190	C	0.462712	0.274431	0.188181
C191	C	0.435609	0.225205	0.210309
C192	C	0.435608	0.180952	0.254555
C193	C	0.697785	0.180974	0.254529
C194	C	0.742040	0.225226	0.210280
C195	C	0.737081	0.274451	0.188147
C196	C	0.687862	0.279424	0.210270
C197	C	0.643608	0.235172	0.254522
C198	C	0.227641	-0.180840	0.670532
C199	C	0.183386	-0.225092	0.714795
C200	C	0.188346	-0.274317	0.736931
C201	C	0.237564	-0.279290	0.714804
C202	C	0.281818	-0.235039	0.670545
C203	C	0.281867	0.027141	0.670498
C204	C	0.237627	0.027134	0.714754
C205	C	0.188400	0.000032	0.736893
C206	C	0.183414	-0.027068	0.714777
C207	C	0.227654	-0.027064	0.670525
C208	C	0.489817	-0.180806	0.670493
C209	C	0.489828	-0.225052	0.714738
C210	C	0.462730	-0.274281	0.736875
C211	C	0.435624	-0.279264	0.714761
C212	C	0.435618	-0.235018	0.670515
H213	H	0.321910	0.049211	0.364223
H214	H	0.462739	-0.310304	0.772904
H215	H	0.511888	0.319486	0.364186
H216	H	0.241652	0.049227	0.364212
Cl217	Cl	0.704050	0.061266	0.282326
H218	H	0.145480	0.076331	0.310011
Cl219	Cl	0.401545	0.218969	0.182488
H220	H	-0.316221	-0.049081	0.560837
H221	H	0.511881	0.239198	0.272557
H222	H	0.462717	0.310469	0.152153
Cl223	Cl	0.523889	0.341276	0.182495
H224	H	0.143314	-0.221033	0.732803
H225	H	0.413534	0.049218	0.272578
Cl226	Cl	0.523902	-0.218775	0.742532
H227	H	0.413578	0.049221	-0.347530
Cl228	Cl	0.803901	0.061255	0.182456
Cl229	Cl	0.401539	0.119076	0.282358
Cl230	Cl	0.704034	0.119096	0.282348
Cl231	Cl	0.792720	0.330077	0.132514
Cl232	Cl	0.067430	0.088348	0.286001
H233	H	0.413544	-0.239083	0.652518
H234	H	0.782112	0.221168	0.192271
Cl235	Cl	0.523840	-0.061098	0.282398
H236	H	0.413531	0.760927	0.560874
H237	H	0.413562	-0.319352	0.732792
H238	H	0.683832	0.319509	0.192243
Cl239	Cl	0.221381	-0.061116	0.584873
Cl240	Cl	0.550980	-0.088171	-0.153774
Cl241	Cl	0.792638	0.000077	0.132555
H242	H	0.386487	0.076325	-0.143997
Cl243	Cl	0.550946	0.604788	0.286016
Cl244	Cl	-0.196082	0.061257	0.340178
H245	H	-0.298159	0.049257	0.364182
H246	H	0.386483	0.076325	-0.063735
Cl247	Cl	-0.418280	-0.061084	0.584832
Cl248	Cl	-0.109103	-0.088183	0.639052
H249	H	0.603538	0.239229	0.272525
Cl250	Cl	0.581679	-0.061088	0.282385
H251	H	-0.007041	-0.076180	0.615050
H252	H	0.683730	-0.049087	0.192319
H253	H	0.321946	0.049214	0.652476
Cl254	Cl	0.221392	-0.118963	0.642713
Cl255	Cl	0.132706	-0.329944	0.792571
Cl256	Cl	0.243791	-0.341177	0.742636
Cl257	Cl	0.374450	0.428210	0.639057
Cl258	Cl	0.121506	-0.061126	0.584871
H259	H	0.241696	0.049205	0.732753
Cl260	Cl	0.034549	0.088351	0.285998
Cl261	Cl	-0.065322	0.088356	0.286001
H262	H	0.386455	0.397539	0.615050
H263	H	0.152381	0.000033	0.772926
H264	H	0.321889	-0.239095	0.652532
Cl265	Cl	0.550931	0.571905	0.286003
Cl266	Cl	0.121525	-0.061134	0.742613
Cl267	Cl	-0.241838	-0.088178	0.639034
H268	H	0.538946	0.469840	0.310006
H269	H	0.511884	-0.140724	0.652476
Cl270	Cl	-0.141987	-0.088189	0.639040
Cl271	Cl	0.401586	0.119055	0.584834
Cl272	Cl	0.401567	0.218907	0.584849
H273	H	0.386465	0.317282	0.615044
Cl274	Cl	0.401538	0.658847	0.584878
Cl275	Cl	0.221376	-0.061128	0.642726
Cl276	Cl	0.550961	-0.088183	0.078845
Cl277	Cl	0.523845	0.881075	0.340223
H278	H	0.511893	0.239208	0.364186
Cl279	Cl	0.374446	0.528080	0.639054
Cl280	Cl	0.550933	0.704640	0.286022
Cl281	Cl	0.523847	0.781223	0.340214
H282	H	0.511861	-0.049089	0.192318
H283	H	0.511889	-0.049092	-0.267243
Cl284	Cl	0.550967	-0.088184	-0.021010
H285	H	0.511894	-0.049086	-0.347525
H286	H	0.386480	0.076335	-0.011256
Cl287	Cl	0.401581	0.061233	-0.257481
H288	H	0.413536	0.049219	0.192298
Cl289	Cl	0.374480	0.088337	0.078803
H290	H	0.538975	-0.076177	-0.063698
