data_functionalizedCrystal
_audit_creation_method	'MofGen! by Chris Wilmer'
_symmetry_space_group_name_H-M	'P1'
_symmetry_Int_Tables_number	1
_symmetry_cell_setting	triclinic
loop_
_symmetry_equiv_pos_as_xyz
  x,y,z
_cell_length_a	14.971486
_cell_length_b	9.730223
_cell_length_c	14.971486
_cell_angle_alpha	90.001545
_cell_angle_beta	83.614129
_cell_angle_gamma	89.995250
loop_
_atom_site_label
_atom_site_type_symbol
_atom_site_fract_x
_atom_site_fract_y
_atom_site_fract_z
O1	O	1.186940	0.114132	0.116559
O2	O	1.686940	0.614132	0.616559
O3	O	0.926539	0.114170	0.130518
O4	O	1.426539	0.614170	0.630518
O5	O	1.063719	0.114140	-0.006662
O6	O	1.563719	0.614140	0.493338
O7	O	1.049760	0.114162	0.253738
O8	O	1.549760	0.614162	0.753738
O9	O	1.063717	-0.114439	-0.006658
O10	O	1.563717	0.385561	0.493342
O11	O	0.926538	-0.114410	0.130521
O12	O	1.426538	0.385590	0.630521
O13	O	1.186938	-0.114447	0.116562
O14	O	1.686938	0.385553	0.616562
Zn15	Zn	1.056738	-0.150721	0.123542
Zn16	Zn	1.556738	0.349279	0.623542
Zn17	Zn	1.056740	0.150443	0.123538
Zn18	Zn	1.556740	0.650443	0.623538
O19	O	1.049758	-0.114418	0.253742
O20	O	1.549758	0.385582	0.753742
C21	C	0.893214	-0.000115	0.129895
C22	C	1.393214	0.499885	0.629895
C23	C	0.793917	-0.000101	0.128024
C24	C	1.293917	0.499899	0.628024
N25	N	1.056743	-0.356257	0.123545
N26	N	1.556743	0.143743	0.623545
C27	C	0.736692	-0.000096	0.208614
C28	C	1.236692	0.499904	0.708614
C29	C	0.643392	-0.000117	0.206850
C30	C	1.143392	0.499883	0.706850
C31	C	0.607320	-0.000133	0.124497
C32	C	1.107320	0.499867	0.624497
C33	C	0.664552	-0.000141	0.043902
C34	C	1.164552	0.499859	0.543902
C35	C	0.757850	-0.000131	0.045666
C36	C	1.257850	0.499869	0.545666
C37	C	0.470090	-0.000161	0.040231
C38	C	0.970090	0.499839	0.540231
C39	C	0.376786	-0.000169	0.038466
C40	C	0.876786	0.499831	0.538466
C41	C	0.355632	-0.000147	0.201415
C42	C	0.855632	0.499853	0.701415
C43	C	0.448930	-0.000136	0.203179
C44	C	0.948930	0.499864	0.703179
C45	C	0.506156	-0.000143	0.122584
C46	C	1.006156	0.499857	0.622584
C47	C	1.117501	-0.428196	0.062822
C48	C	1.617501	0.071804	0.562822
C49	C	1.117499	-0.572079	0.062811
C50	C	1.617499	-0.072079	0.562811
C51	C	0.995977	-0.572071	0.184254
C52	C	1.495977	-0.072071	0.684254
C53	C	0.995975	-0.428191	0.184259
C54	C	1.495975	0.071809	0.684259
C55	C	1.178269	-0.356262	0.002108
C56	C	1.678269	0.143738	0.502108
C57	C	1.239033	-0.428202	-0.058619
C58	C	1.739033	0.071798	0.441381
C59	C	1.239030	-0.572085	-0.058630
C60	C	1.739030	-0.072085	0.441370
C61	C	1.178264	-0.644028	0.002086
C62	C	1.678264	-0.144028	0.502086
C63	C	1.220263	-0.000159	0.117185
C64	C	1.720263	0.499841	0.617185
C65	C	1.319561	-0.000164	0.119056
C66	C	1.819561	0.499836	0.619056
C67	C	1.063094	-0.000149	-0.039985
C68	C	1.563094	0.499851	0.460015
C69	C	1.061223	-0.000148	-0.139282
C70	C	1.561223	0.499852	0.360718
N71	N	1.056742	0.355980	0.123528
N72	N	1.556742	0.855980	0.623528
C73	C	1.141812	-0.000160	-0.196507
C74	C	1.641812	0.499840	0.303493
C75	C	1.140049	-0.000146	-0.289807
C76	C	1.640049	0.499854	0.210193
C77	C	1.057696	-0.000129	-0.325879
C78	C	1.557696	0.499871	0.174121
C79	C	0.977101	-0.000112	-0.268646
C80	C	1.477101	0.499888	0.231354
C81	C	0.978865	-0.000117	-0.175349
C82	C	1.478865	0.499883	0.324651
C83	C	0.973430	-0.000107	-0.463109
C84	C	1.473430	0.499893	0.036891
C85	C	0.971665	-0.000105	-0.556413
C86	C	1.471665	0.499895	-0.056413
C87	C	1.134614	-0.000136	-0.577567
C88	C	1.634614	0.499864	-0.077567
C89	C	1.136378	-0.000141	-0.484269
C90	C	1.636378	0.499859	0.015731
C91	C	1.055782	-0.000126	-0.427043
C92	C	1.555782	0.499874	0.072957
C93	C	1.050384	-0.000125	0.287065
C94	C	1.550384	0.499875	0.787065
C95	C	1.052254	-0.000118	0.386362
C96	C	1.552254	0.499882	0.886362
H97	H	0.766054	-0.000083	0.275675
H98	H	1.266054	0.499917	0.775675
H99	H	0.946499	-0.369617	0.233705
H100	H	1.446499	0.130383	0.733705
H101	H	0.910047	-0.000090	-0.298024
H102	H	1.410047	0.499910	0.201976
F103	F	0.626159	-0.000167	-0.043745
F104	F	1.126159	0.499833	0.456255
F105	F	0.294727	-0.000143	0.287192
F106	F	0.794727	0.499857	0.787192
H107	H	0.904606	-0.000114	-0.585780
H108	H	1.404606	0.499886	-0.085780
H109	H	1.200238	-0.000144	-0.624165
H110	H	1.700238	0.499856	-0.124165
H111	H	0.946504	-0.630657	0.233687
H112	H	1.446504	-0.130657	0.733687
F113	F	1.225824	-0.000162	-0.350707
F114	F	1.725824	0.499838	0.149293
F115	F	1.224028	-0.000155	-0.445880
F116	F	1.724028	0.499845	0.054120
H117	H	0.478296	-0.000111	0.270239
H118	H	0.978296	0.499889	0.770239
F119	F	0.818754	-0.000141	-0.040108
F120	F	1.318754	0.499859	0.459892
F121	F	0.893090	-0.000099	-0.114445
F122	F	1.393090	0.499901	0.385555
H123	H	0.907800	-0.000092	-0.416517
H124	H	1.407800	0.499908	0.083483
F125	F	0.338397	-0.000221	-0.049183
F126	F	0.838397	0.499779	0.450817
H127	H	0.516682	-0.000168	-0.025399
H128	H	1.016682	0.499832	0.474601
H129	H	1.178278	-0.239106	0.002113
H130	H	1.678278	0.260894	0.502113
F131	F	0.582492	-0.000106	0.292625
F132	F	1.082492	0.499894	0.792625
F133	F	1.303694	-0.351634	-0.123241
F134	F	1.803694	0.148366	0.376759
H135	H	1.288501	-0.630656	-0.108082
H136	H	1.788501	-0.130656	0.391918
F137	F	1.178259	-0.797163	0.002062
F138	F	1.678259	-0.297163	0.502062
F139	F	1.229465	-0.000191	-0.158125
F140	F	1.729465	0.499809	0.341875
