data_functionalizedCrystal
_audit_creation_method	'MofGen! by Chris Wilmer'
_symmetry_space_group_name_H-M	'P1'
_symmetry_Int_Tables_number	1
_symmetry_cell_setting	triclinic
loop_
_symmetry_equiv_pos_as_xyz
  x,y,z
_cell_length_a	19.805407
_cell_length_b	25.639240
_cell_length_c	19.805399
_cell_angle_alpha	89.964092
_cell_angle_beta	89.980427
_cell_angle_gamma	90.032757
loop_
_atom_site_label
_atom_site_type_symbol
_atom_site_fract_x
_atom_site_fract_y
_atom_site_fract_z
Zn1	Zn	1.034706	-0.208163	-0.382680
Zn2	Zn	1.284706	0.041837	-0.132680
Zn3	Zn	1.534706	0.291837	0.117320
Zn4	Zn	1.784706	0.541837	0.367320
Zn5	Zn	1.034608	-0.295597	-0.269476
Zn6	Zn	1.284608	-0.045597	-0.019476
Zn7	Zn	1.534608	0.204403	0.230524
Zn8	Zn	1.784608	0.454403	0.480524
Zn9	Zn	0.921520	-0.208177	-0.269505
Zn10	Zn	1.171520	0.041823	-0.019505
Zn11	Zn	1.421520	0.291823	0.230495
Zn12	Zn	1.671520	0.541823	0.480495
Zn13	Zn	0.921471	-0.295569	-0.382623
Zn14	Zn	1.171471	-0.045569	-0.132623
Zn15	Zn	1.421471	0.204431	0.117377
Zn16	Zn	1.671471	0.454431	0.367377
O17	O	0.978076	-0.251877	-0.326071
O18	O	1.228076	-0.001877	-0.076071
O19	O	1.478076	0.248123	0.173929
O20	O	1.728076	0.498123	0.423929
O21	O	1.129409	-0.219767	-0.367676
O22	O	1.379409	0.030233	-0.117676
O23	O	1.629409	0.280233	0.132324
O24	O	1.879409	0.530233	0.382324
O25	O	1.019586	-0.284018	-0.174763
O26	O	1.269586	-0.034018	0.075237
O27	O	1.519586	0.215982	0.325237
O28	O	1.769586	0.465982	0.575237
O29	O	0.936596	-0.135010	-0.284555
O30	O	1.186596	0.114990	-0.034555
O31	O	1.436596	0.364990	0.215445
O32	O	1.686596	0.614990	0.465445
O33	O	1.129338	-0.284004	-0.284505
O34	O	1.379338	-0.034004	-0.034505
O35	O	1.629338	0.215996	0.215495
O36	O	1.879338	0.465996	0.465495
O37	O	1.019753	-0.135000	-0.367704
O38	O	1.269753	0.115000	-0.117704
O39	O	1.519753	0.365000	0.132296
O40	O	1.769753	0.615000	0.382296
O41	O	0.936501	-0.219791	-0.174785
O42	O	1.186501	0.030209	0.075215
O43	O	1.436501	0.280209	0.325215
O44	O	1.686501	0.530209	0.575215
O45	O	0.826797	-0.219764	-0.284498
O46	O	1.076797	0.030236	-0.034498
O47	O	1.326797	0.280236	0.215502
O48	O	1.576797	0.530236	0.465502
O49	O	0.936513	-0.283957	-0.477347
O50	O	1.186513	-0.033957	-0.227347
O51	O	1.436513	0.216043	0.022653
O52	O	1.686513	0.466043	0.272653
O53	O	0.826761	-0.283971	-0.367605
O54	O	1.076761	-0.033971	-0.117605
O55	O	1.326761	0.216029	0.132395
O56	O	1.576761	0.466029	0.382395
O57	O	1.019705	-0.219740	-0.477389
O58	O	1.269705	0.030260	-0.227389
O59	O	1.519705	0.280260	0.022611
O60	O	1.769705	0.530260	0.272611
O61	O	1.019539	-0.368758	-0.284448
O62	O	1.269539	-0.118758	-0.034448
O63	O	1.519539	0.131242	0.215552
O64	O	1.769539	0.381242	0.465552
O65	O	0.936418	-0.368738	-0.367577
O66	O	1.186418	-0.118738	-0.117577
O67	O	1.436418	0.131262	0.132423
O68	O	1.686418	0.381262	0.382423
C69	C	0.802220	-0.251867	-0.326049
C70	C	1.052220	-0.001867	-0.076049
C71	C	1.302220	0.248133	0.173951
C72	C	1.552220	0.498133	0.423951
C73	C	0.726988	-0.251875	-0.326056
C74	C	0.976988	-0.001875	-0.076056
C75	C	1.226988	0.248125	0.173944
C76	C	1.476988	0.498125	0.423944
C77	C	0.691643	-0.285357	-0.369259
C78	C	0.941643	-0.035357	-0.119259
C79	C	1.191643	0.214643	0.130741
C80	C	1.441643	0.464643	0.380741
C81	C	0.620955	-0.285358	-0.369269
C82	C	0.870955	-0.035358	-0.119269
C83	C	1.120955	0.214642	0.130731
C84	C	1.370955	0.464642	0.380731
C85	C	0.585613	-0.251879	-0.326071
C86	C	0.835613	-0.001879	-0.076071
C87	C	1.085613	0.248121	0.173929
C88	C	1.335613	0.498121	0.423929
C89	C	0.620963	-0.218393	-0.282865
C90	C	0.870963	0.031607	-0.032865
C91	C	1.120963	0.281607	0.217135
C92	C	1.370963	0.531607	0.467135
C93	C	0.691650	-0.218390	-0.282860
C94	C	0.941650	0.031610	-0.032860
C95	C	1.191650	0.281610	0.217140
C96	C	1.441650	0.531610	0.467140
C97	C	0.335890	-0.218404	-0.282888
C98	C	0.585890	0.031596	-0.032888
C99	C	0.835890	0.281596	0.217112
C100	C	1.085890	0.531596	0.467112
C101	C	0.265198	-0.218411	-0.282895
C102	C	0.515198	0.031589	-0.032895
C103	C	0.765198	0.281589	0.217105
C104	C	1.015198	0.531589	0.467105
C105	C	0.265194	-0.285373	-0.369297
C106	C	0.515194	-0.035373	-0.119297
C107	C	0.765194	0.214627	0.130703
C108	C	1.015194	0.464627	0.380703
C109	C	0.335881	-0.285370	-0.369291
C110	C	0.585881	-0.035370	-0.119291
C111	C	0.835881	0.214630	0.130709
C112	C	1.085881	0.464630	0.380709
C113	C	0.371225	-0.251882	-0.326089
C114	C	0.621225	-0.001882	-0.076089
C115	C	0.871225	0.248118	0.173911
C116	C	1.121225	0.498118	0.423911
C117	C	0.447874	-0.251881	-0.326080
C118	C	0.697874	-0.001881	-0.076080
C119	C	0.947874	0.248119	0.173920
C120	C	1.197874	0.498119	0.423920
C121	C	0.508966	-0.251883	-0.326076
C122	C	0.758966	-0.001883	-0.076076
C123	C	1.008966	0.248117	0.173924
C124	C	1.258966	0.498117	0.423924
C125	C	0.977981	-0.387719	-0.326018
C126	C	1.227981	-0.137719	-0.076018
C127	C	1.477981	0.112281	0.173982
C128	C	1.727981	0.362281	0.423982
C129	C	0.978002	-0.445833	-0.326018
C130	C	1.228002	-0.195833	-0.076018
C131	C	1.478002	0.054167	0.173982
C132	C	1.728002	0.304167	0.423982
C133	C	1.021398	-0.806152	-0.369445
C134	C	1.271398	-0.556152	-0.119445
C135	C	1.521398	-0.306152	0.130555
C136	C	1.771398	-0.056152	0.380555
C137	C	1.021418	-0.860757	-0.369459
C138	C	1.271418	-0.610757	-0.119459
C139	C	1.521418	-0.360757	0.130541
C140	C	1.771418	-0.110757	0.380541
O141	O	1.058201	-0.888956	-0.406328
O142	O	1.308201	-0.638956	-0.156328
O143	O	1.558201	-0.388956	0.093672
O144	O	1.808201	-0.138956	0.343672
N145	N	0.978170	-0.888116	-0.326136
N146	N	1.228170	-0.638116	-0.076136
N147	N	1.478170	-0.388116	0.173864
N148	N	1.728170	-0.138116	0.423864
C149	C	0.934895	-0.860868	-0.282802
C150	C	1.184895	-0.610868	-0.032802
C151	C	1.434895	-0.360868	0.217198
C152	C	1.684895	-0.110868	0.467198
O153	O	0.898112	-0.889153	-0.245955
O154	O	1.148112	-0.639153	0.004045
O155	O	1.398112	-0.389153	0.254045
O156	O	1.648112	-0.139153	0.504045
C157	C	0.934873	-0.806264	-0.282792
C158	C	1.184873	-0.556264	-0.032792
C159	C	1.434873	-0.306264	0.217208
C160	C	1.684873	-0.056264	0.467208
C161	C	0.978128	-0.778908	-0.326113
C162	C	1.228128	-0.528908	-0.076113
C163	C	1.478128	-0.278908	0.173887
C164	C	1.728128	-0.028908	0.423887
C165	C	1.064649	-0.778796	-0.412762
C166	C	1.314649	-0.528796	-0.162762
C167	C	1.564649	-0.278796	0.087238
C168	C	1.814649	-0.028796	0.337238
C169	C	1.064629	-0.724195	-0.412748
C170	C	1.314629	-0.474195	-0.162748
C171	C	1.564629	-0.224195	0.087252
C172	C	1.814629	0.025805	0.337252
C173	C	1.021359	-0.696951	-0.369415
C174	C	1.271359	-0.446951	-0.119415
C175	C	1.521359	-0.196951	0.130585
C176	C	1.771359	0.053049	0.380585
C177	C	0.978108	-0.724307	-0.326098
C178	C	1.228108	-0.474307	-0.076098
C179	C	1.478108	-0.224307	0.173902
C180	C	1.728108	0.025693	0.423902
C181	C	0.891595	-0.779017	-0.239462
C182	C	1.141595	-0.529017	0.010538
C183	C	1.391595	-0.279017	0.260538
C184	C	1.641595	-0.029017	0.510538
C185	C	0.891575	-0.724410	-0.239456
C186	C	1.141575	-0.474410	0.010544
C187	C	1.391575	-0.224410	0.260544
C188	C	1.641575	0.025590	0.510544
C189	C	0.934830	-0.697054	-0.282777
C190	C	1.184830	-0.447054	-0.032777
C191	C	1.434830	-0.197054	0.217223
C192	C	1.684830	0.052946	0.467223
C193	C	0.934819	-0.642463	-0.282751
C194	C	1.184819	-0.392463	-0.032751
C195	C	1.434819	-0.142463	0.217249
C196	C	1.684819	0.107537	0.467249
N197	N	0.978066	-0.615104	-0.326073
N198	N	1.228066	-0.365104	-0.076073
N199	N	1.478066	-0.115104	0.173927
N200	N	1.728066	0.134896	0.423927
C201	C	1.021336	-0.642348	-0.369406
C202	C	1.271336	-0.392348	-0.119406
C203	C	1.521336	-0.142348	0.130594
C204	C	1.771336	0.107652	0.380594
C205	C	0.934946	-0.975538	-0.282827
C206	C	1.184946	-0.725538	-0.032827
C207	C	1.434946	-0.475538	0.217173
C208	C	1.684946	-0.225538	0.467173
C209	C	0.934972	-1.030140	-0.282833
C210	C	1.184972	-0.780140	-0.032833
C211	C	1.434972	-0.530140	0.217167
C212	C	1.684972	-0.280140	0.467167
C213	C	1.021493	-1.030026	-0.369491
C214	C	1.271493	-0.780026	-0.119491
C215	C	1.521493	-0.530026	0.130509
C216	C	1.771493	-0.280026	0.380509
C217	C	1.021470	-0.975422	-0.369481
C218	C	1.271470	-0.725422	-0.119481
C219	C	1.521470	-0.475422	0.130519
C220	C	1.771470	-0.225422	0.380519
C221	C	0.978193	-0.948179	-0.326149
C222	C	1.228193	-0.698179	-0.076149
C223	C	1.478193	-0.448179	0.173851
C224	C	1.728193	-0.198179	0.423851
C225	C	1.021293	-0.527683	-0.369371
C226	C	1.271293	-0.277683	-0.119371
C227	C	1.521293	-0.027683	0.130629
C228	C	1.771293	0.222317	0.380629
C229	C	1.021272	-0.473077	-0.369350
C230	C	1.271272	-0.223077	-0.119350
C231	C	1.521272	0.026923	0.130650
C232	C	1.771272	0.276923	0.380650
C233	C	0.934748	-0.473197	-0.282695
C234	C	1.184748	-0.223197	-0.032695
C235	C	1.434748	0.026803	0.217305
C236	C	1.684748	0.276803	0.467305
C237	C	0.934772	-0.527798	-0.282713
C238	C	1.184772	-0.277798	-0.032713
C239	C	1.434772	-0.027798	0.217287
C240	C	1.684772	0.222202	0.467287
C241	C	0.978046	-0.555039	-0.326056
C242	C	1.228046	-0.305039	-0.076056
C243	C	1.478046	-0.055039	0.173944
C244	C	1.728046	0.194961	0.423944
O245	O	0.898053	-0.614229	-0.245903
O246	O	1.148053	-0.364229	0.004097
O247	O	1.398053	-0.114229	0.254097
O248	O	1.648053	0.135771	0.504097
O249	O	1.058108	-0.614056	-0.406253
O250	O	1.308108	-0.364056	-0.156253
O251	O	1.558108	-0.114056	0.093747
O252	O	1.808108	0.135944	0.343747
C253	C	1.154619	-0.251887	-0.326093
C254	C	1.404619	-0.001887	-0.076093
C255	C	1.654619	0.248113	0.173907
C256	C	1.904619	0.498113	0.423907
C257	C	1.229851	-0.251891	-0.326103
C258	C	1.479851	-0.001891	-0.076103
C259	C	1.729851	0.248109	0.173897
C260	C	1.979851	0.498109	0.423897
C261	C	0.978114	-0.251844	-0.502614
C262	C	1.228114	-0.001844	-0.252614
C263	C	1.478114	0.248156	-0.002614
C264	C	1.728114	0.498156	0.247386
C265	C	0.978131	-0.251830	-0.577846
C266	C	1.228131	-0.001830	-0.327846
C267	C	1.478131	0.248170	-0.077846
C268	C	1.728131	0.498170	0.172154
C269	C	0.978191	-0.115504	-0.326139
C270	C	1.228191	0.134496	-0.076139
C271	C	1.478191	0.384496	0.173861
C272	C	1.728191	0.634496	0.423861
C273	C	0.978240	-0.057389	-0.326168
C274	C	1.228240	0.192611	-0.076168
C275	C	1.478240	0.442611	0.173832
C276	C	1.728240	0.692611	0.423832
C277	C	1.021450	-0.218390	-0.613213
C278	C	1.271450	0.031610	-0.363213
C279	C	1.521450	0.281610	-0.113213
C280	C	1.771450	0.531610	0.136787
C281	C	1.021457	-0.218375	-0.683902
C282	C	1.271457	0.031625	-0.433902
C283	C	1.521457	0.281625	-0.183902
C284	C	1.771457	0.531625	0.066098
C285	C	0.978147	-0.251802	-0.719221
C286	C	1.228147	-0.001802	-0.469221
C287	C	1.478147	0.248198	-0.219221
C288	C	1.728147	0.498198	0.030779
C289	C	0.934823	-0.285243	-0.683849
C290	C	1.184823	-0.035243	-0.433849
C291	C	1.434823	0.214757	-0.183849
C292	C	1.684823	0.464757	0.066151
C293	C	0.934813	-0.285255	-0.613162
C294	C	1.184813	-0.035255	-0.363162
C295	C	1.434813	0.214745	-0.113162
C296	C	1.684813	0.464745	0.136838
C297	C	0.934861	-0.285194	-0.968923
C298	C	1.184861	-0.035194	-0.718923
C299	C	1.434861	0.214806	-0.468923
C300	C	1.684861	0.464806	-0.218923
C301	C	0.934876	-0.285181	-1.039615
C302	C	1.184876	-0.035181	-0.789615
C303	C	1.434876	0.214819	-0.539615
C304	C	1.684876	0.464819	-0.289615
C305	C	1.021505	-0.218314	-1.039662
C306	C	1.271505	0.031686	-0.789662
C307	C	1.521505	0.281686	-0.539662
C308	C	1.771505	0.531686	-0.289662
C309	C	1.021495	-0.218326	-0.968975
C310	C	1.271495	0.031674	-0.718975
C311	C	1.521495	0.281674	-0.468975
C312	C	1.771495	0.531674	-0.218975
C313	C	0.978169	-0.251765	-0.933609
C314	C	1.228169	-0.001765	-0.683609
C315	C	1.478169	0.248235	-0.433609
C316	C	1.728169	0.498235	-0.183609
C317	C	0.978161	-0.251780	-0.856960
C318	C	1.228161	-0.001780	-0.606960
C319	C	1.478161	0.248220	-0.356960
C320	C	1.728161	0.498220	-0.106960
C321	C	0.978158	-0.251790	-0.795869
C322	C	1.228158	-0.001790	-0.545869
C323	C	1.478158	0.248210	-0.295869
C324	C	1.728158	0.498210	-0.045869
C325	C	0.978078	-0.251872	-0.150215
C326	C	1.228078	-0.001872	0.099785
C327	C	1.478078	0.248128	0.349785
C328	C	1.728078	0.498128	0.599785
C329	C	0.978193	-0.251738	-0.074983
C330	C	1.228193	-0.001738	0.175017
C331	C	1.478193	0.248262	0.425017
C332	C	1.728193	0.498262	0.675017
H333	H	0.236409	-0.312639	-0.404477
H334	H	0.486409	-0.062639	-0.154477
H335	H	0.736409	0.187361	0.095523
H336	H	0.986409	0.437361	0.345523
H337	H	0.364653	-0.312634	-0.404465
H338	H	0.614653	-0.062634	-0.154465
H339	H	0.864653	0.187366	0.095535
H340	H	1.114653	0.437366	0.345535
H341	H	0.592180	-0.312624	-0.404449
H342	H	0.842180	-0.062624	-0.154449
H343	H	1.092180	0.187376	0.095551
H344	H	1.342180	0.437376	0.345551
H345	H	0.899756	-1.052409	-0.247550
H346	H	1.149756	-0.802409	0.002450
H347	H	1.399756	-0.552409	0.252450
H348	H	1.649756	-0.302409	0.502450
O349	O	1.068128	-0.945920	-0.416202
O350	O	1.318128	-0.695920	-0.166202
O351	O	1.568128	-0.445920	0.083798
O352	O	1.818128	-0.195920	0.333798
H353	H	1.056493	-0.956376	-0.469315
H354	H	1.306493	-0.706376	-0.219315
H355	H	1.556493	-0.456376	0.030685
H356	H	1.806493	-0.206376	0.280685
O357	O	0.582838	-0.182296	-0.236261
O358	O	0.832838	0.067704	0.013739
O359	O	1.082838	0.317704	0.263739
O360	O	1.332838	0.567704	0.513739
H361	H	0.550649	-0.155730	-0.266614
H362	H	0.800649	0.094270	-0.016614
H363	H	1.050649	0.344270	0.233386
H364	H	1.300649	0.594270	0.483386
H365	H	0.899605	-0.312402	-1.068370
H366	H	1.149605	-0.062402	-0.818370
H367	H	1.399605	0.187598	-0.568370
H368	H	1.649605	0.437598	-0.318370
O369	O	0.373993	-0.182290	-0.236278
O370	O	0.623993	0.067710	0.013722
O371	O	0.873993	0.317710	0.263722
O372	O	1.123993	0.567710	0.513722
H373	H	0.406224	-0.155708	-0.266626
H374	H	0.656224	0.094292	-0.016626
H375	H	0.906224	0.344292	0.233374
H376	H	1.156224	0.594292	0.483374
O377	O	0.888098	-0.321244	-0.930802
O378	O	1.138098	-0.071244	-0.680802
O379	O	1.388098	0.178756	-0.430802
O380	O	1.638098	0.428756	-0.180802
H381	H	0.899649	-0.362283	-0.944341
H382	H	1.149649	-0.112283	-0.694341
H383	H	1.399649	0.137717	-0.444341
H384	H	1.649649	0.387717	-0.194341
O385	O	0.888082	-0.321320	-0.575018
O386	O	1.138082	-0.071320	-0.325018
O387	O	1.388082	0.178680	-0.075018
O388	O	1.638082	0.428680	0.174982
H389	H	0.918340	-0.347929	-0.542797
H390	H	1.168340	-0.097929	-0.292797
H391	H	1.418340	0.152071	-0.042797
H392	H	1.668340	0.402071	0.207203
O393	O	1.068161	-1.059417	-0.416233
O394	O	1.318161	-0.809417	-0.166233
O395	O	1.568161	-0.559417	0.083767
O396	O	1.818161	-0.309417	0.333767
H397	H	1.056517	-1.048909	-0.469341
H398	H	1.306517	-0.798909	-0.219341
H399	H	1.556517	-0.548909	0.030659
H400	H	1.806517	-0.298909	0.280659
O401	O	0.888279	-0.946154	-0.236075
O402	O	1.138279	-0.696154	0.013925
O403	O	1.388279	-0.446154	0.263925
O404	O	1.638279	-0.196154	0.513925
H405	H	0.858221	-0.974357	-0.205949
H406	H	1.108221	-0.724357	0.044051
H407	H	1.358221	-0.474357	0.294051
H408	H	1.608221	-0.224357	0.544051
H409	H	1.099884	-0.800972	-0.448053
H410	H	1.349884	-0.550972	-0.198053
H411	H	1.599884	-0.300972	0.051947
H412	H	1.849884	-0.050972	0.301947
O413	O	0.227074	-0.182295	-0.236307
O414	O	0.477074	0.067705	0.013693
O415	O	0.727074	0.317705	0.263693
O416	O	0.977074	0.567705	0.513693
H417	H	0.263526	-0.159004	-0.206270
H418	H	0.513526	0.090996	0.043730
H419	H	0.763526	0.340996	0.293730
H420	H	1.013526	0.590996	0.543730
O421	O	0.729778	-0.182283	-0.236254
O422	O	0.979778	0.067717	0.013746
O423	O	1.229778	0.317717	0.263746
O424	O	1.479778	0.567717	0.513746
H425	H	0.693328	-0.159008	-0.206210
H426	H	0.943328	0.090992	0.043790
H427	H	1.193328	0.340992	0.293790
H428	H	1.443328	0.590992	0.543790
O429	O	1.068233	-0.182245	-1.077811
O430	O	1.318233	0.067755	-0.827811
O431	O	1.568233	0.317755	-0.577811
O432	O	1.818233	0.567755	-0.327811
H433	H	1.098352	-0.159008	-1.041375
H434	H	1.348352	0.090992	-0.791375
H435	H	1.598352	0.340992	-0.541375
H436	H	1.848352	0.590992	-0.291375
H437	H	0.899557	-0.312458	-0.712612
H438	H	1.149557	-0.062458	-0.462612
H439	H	1.399557	0.187542	-0.212612
H440	H	1.649557	0.437542	0.037388
H441	H	0.856372	-0.801281	-0.204186
H442	H	1.106372	-0.551281	0.045814
H443	H	1.356372	-0.301281	0.295814
H444	H	1.606372	-0.051281	0.545814
H445	H	1.056498	-0.450806	-0.404627
H446	H	1.306498	-0.200806	-0.154627
H447	H	1.556498	0.049194	0.095373
H448	H	1.806498	0.299194	0.345373
H449	H	1.056734	-0.191146	-0.712695
H450	H	1.306734	0.058854	-0.462695
H451	H	1.556734	0.308854	-0.212695
H452	H	1.806734	0.558854	0.037305
O453	O	0.888080	-0.443803	-0.235963
O454	O	1.138080	-0.193803	0.014037
O455	O	1.388080	0.056197	0.264037
O456	O	1.638080	0.306197	0.514037
H457	H	0.899722	-0.454301	-0.182852
H458	H	1.149722	-0.204301	0.067148
H459	H	1.399722	0.045699	0.317148
H460	H	1.649722	0.295699	0.567148
H461	H	1.056527	-0.549856	-0.404669
H462	H	1.306527	-0.299856	-0.154669
H463	H	1.556527	-0.049856	0.095331
H464	H	1.806527	0.200144	0.345331
O465	O	1.068163	-0.182336	-0.575119
O466	O	1.318163	0.067664	-0.325119
O467	O	1.568163	0.317664	-0.075119
O468	O	1.818163	0.567664	0.174881
H469	H	1.098282	-0.159078	-0.611591
H470	H	1.348282	0.090922	-0.361591
H471	H	1.598282	0.340922	-0.111591
H472	H	1.848282	0.590922	0.138409
H473	H	1.056765	-0.191108	-0.940221
H474	H	1.306765	0.058892	-0.690221
H475	H	1.556765	0.308892	-0.440221
H476	H	1.806765	0.558892	-0.190221
O477	O	1.111293	-0.694692	-0.459461
O478	O	1.361293	-0.444692	-0.209461
O479	O	1.611293	-0.194692	0.040539
O480	O	1.861293	0.055308	0.290539
H481	H	1.141381	-0.722818	-0.489590
H482	H	1.391381	-0.472818	-0.239590
H483	H	1.641381	-0.222818	0.010410
H484	H	1.891381	0.027182	0.260410
H485	H	0.720414	-0.312622	-0.404434
H486	H	0.970414	-0.062622	-0.154434
H487	H	1.220414	0.187378	0.095566
H488	H	1.470414	0.437378	0.345566
H489	H	0.856332	-0.702231	-0.204172
H490	H	1.106332	-0.452231	0.045828
H491	H	1.356332	-0.202231	0.295828
H492	H	1.606332	0.047769	0.545828
H493	H	0.899555	-0.550072	-0.247433
H494	H	1.149555	-0.300072	0.002567
H495	H	1.399555	-0.050072	0.252567
H496	H	1.649555	0.199928	0.502567
