data_functionalizedCrystal
_audit_creation_method	'MofGen! by Chris Wilmer'
_symmetry_space_group_name_H-M	'P1'
_symmetry_Int_Tables_number	1
_symmetry_cell_setting	triclinic
loop_
_symmetry_equiv_pos_as_xyz
  x,y,z
_cell_length_a	16.974885
_cell_length_b	16.992695
_cell_length_c	15.455313
_cell_angle_alpha	92.847427
_cell_angle_beta	90.969048
_cell_angle_gamma	87.023153
loop_
_atom_site_label
_atom_site_type_symbol
_atom_site_fract_x
_atom_site_fract_y
_atom_site_fract_z
O1	O	1.055362	0.099990	0.001883
O2	O	0.826686	0.111961	-0.014157
O3	O	0.940107	-0.008168	-0.006194
O4	O	0.941941	0.220120	-0.006080
O5	O	0.933619	-0.001327	0.137612
O6	O	0.820198	0.118803	0.129650
O7	O	1.048874	0.106832	0.145689
Cu8	Cu	0.933944	0.113442	0.150800
Cu9	Cu	0.941616	0.105351	-0.019268
O10	O	0.935453	0.226962	0.137727
C11	C	0.794046	0.114801	0.055685
C12	C	0.706455	0.113059	0.049541
C13	C	0.213798	0.102824	0.006487
C14	C	0.296098	0.104461	0.012271
C15	C	0.333703	0.109015	0.093552
C16	C	0.289004	0.111923	0.169055
C17	C	0.206706	0.110280	0.163270
C18	C	0.579458	0.114324	0.119259
C19	C	0.661762	0.115969	0.125038
C20	C	0.668851	0.108505	-0.031747
C21	C	0.586550	0.106867	-0.037524
C22	C	0.541859	0.109772	0.037978
N23	N	0.417827	0.110691	0.099467
N24	N	0.457737	0.108090	0.032063
C25	C	0.934504	-0.033966	0.065543
C26	C	0.927467	-0.121025	0.065050
C27	C	0.995367	-0.171115	0.069813
C28	C	0.988751	-0.252916	0.069341
C29	C	0.914233	-0.284627	0.064111
C30	C	0.846328	-0.234532	0.059345
C31	C	0.852946	-0.152732	0.059811
C32	C	0.886806	-0.528286	0.062175
C33	C	0.880193	-0.610093	0.061712
C34	C	1.022617	-0.628472	0.071707
C35	C	1.029227	-0.546669	0.072177
C36	C	0.961323	-0.496581	0.067407
N37	N	0.907468	-0.368241	0.063631
N38	N	0.968089	-0.412969	0.067881
C39	C	1.081514	0.103992	0.075846
C40	C	1.169105	0.105734	0.081984
C41	C	0.941056	0.252759	0.065987
C42	C	0.948093	0.339818	0.066476
N43	N	0.928553	0.119132	0.270417
N44	N	0.947013	0.099655	-0.138884
C45	C	0.976757	0.068115	0.319196
C46	C	0.972688	0.072426	0.409718
C47	C	0.920418	0.127757	0.451461
C48	C	0.872209	0.178776	0.402676
C49	C	0.876274	0.174461	0.312155
C50	C	0.902869	0.146359	0.721810
C51	C	0.898808	0.150672	0.812338
C52	C	0.999287	0.044320	0.819373
C53	C	1.003352	0.040014	0.728851
C54	C	0.955139	0.091030	0.680074
N55	N	0.916260	0.132166	0.543989
N56	N	0.959294	0.086616	0.587547
H57	H	0.183186	0.099121	-0.059702
O58	O	0.773990	-0.265432	0.054152
C59	C	0.769255	-0.315724	-0.020905
H60	H	0.831212	-0.337138	-0.041468
H61	H	0.733709	-0.368560	-0.006594
H62	H	0.739016	-0.282142	-0.075344
O63	O	0.339559	0.101501	-0.061040
C64	C	0.392043	0.034383	-0.062045
H65	H	0.368481	-0.011424	-0.019075
H66	H	0.397679	0.008329	-0.131201
H67	H	0.452410	0.051969	-0.036671
H68	H	1.011940	0.030883	0.449433
O69	O	0.163197	0.113210	0.236546
C70	C	0.110736	0.180346	0.237570
H71	H	0.099934	0.199483	0.168531
H72	H	0.052410	0.165506	0.266754
H73	H	0.137441	0.230335	0.278252
H74	H	0.555938	0.103158	-0.103713
O75	O	1.046188	-0.005279	0.866626
C76	C	1.093175	-0.055057	0.810370
H77	H	1.098993	-0.025974	0.746045
H78	H	1.154187	-0.065610	0.840874
H79	H	1.064342	-0.113839	0.798702
H80	H	0.705247	0.106140	-0.093217
H81	H	1.077901	-0.669262	0.075589
H82	H	0.863613	0.187900	0.682103
O83	O	0.847953	0.204438	0.852748
C84	C	0.806281	0.248551	0.790287
H85	H	0.806270	0.213325	0.725561
H86	H	0.742916	0.261570	0.812097
H87	H	0.835956	0.306429	0.782697
O88	O	0.821389	0.232420	0.443317
C89	C	0.767763	0.192779	0.492088
H90	H	0.794683	0.132149	0.507582
H91	H	0.754498	0.228510	0.555010
H92	H	0.710744	0.185625	0.453111
H93	H	0.797654	-0.111949	0.055932
H94	H	0.837020	0.216003	0.272440
H95	H	1.056047	-0.145302	0.074077
H96	H	0.692377	0.119683	0.191231
O97	O	0.535956	0.117243	0.192534
C98	C	0.483489	0.184375	0.193562
H99	H	0.472687	0.203517	0.124525
H100	H	0.425164	0.169527	0.222741
H101	H	0.510188	0.234364	0.234250
O102	O	0.325629	0.116240	0.247964
C103	C	0.377664	0.049552	0.256344
H104	H	0.394625	0.023934	0.189261
H105	H	0.432989	0.067550	0.293513
H106	H	0.347459	0.003246	0.293035
H107	H	1.044042	-0.293696	0.073221
O108	O	1.053830	-0.014076	0.688383
C109	C	1.010625	-0.065034	0.633142
H110	H	0.951710	-0.034345	0.615229
H111	H	1.045549	-0.080875	0.571807
H112	H	0.999680	-0.121089	0.667720
H113	H	1.089907	-0.520857	0.076436
H114	H	0.819508	-0.635907	0.057467
H115	H	0.831512	-0.487514	0.058291
H116	H	1.019325	0.023062	0.285215
