data_functionalizedCrystal
_audit_creation_method	'MofGen! by Chris Wilmer'
_symmetry_space_group_name_H-M	'P1'
_symmetry_Int_Tables_number	1
_symmetry_cell_setting	triclinic
loop_
_symmetry_equiv_pos_as_xyz
  x,y,z
_cell_length_a	16.625547
_cell_length_b	16.625546
_cell_length_c	14.908308
_cell_angle_alpha	86.735930
_cell_angle_beta	86.726217
_cell_angle_gamma	90.022405
loop_
_atom_site_label
_atom_site_type_symbol
_atom_site_fract_x
_atom_site_fract_y
_atom_site_fract_z
Zn1	Zn	1.206347	-0.347302	0.510175
Zn2	Zn	1.706347	0.152698	1.010175
Zn3	Zn	1.214037	-0.474368	0.359314
Zn4	Zn	1.714037	0.025632	0.859314
Zn5	Zn	1.079295	-0.339553	0.359323
Zn6	Zn	1.579295	0.160447	0.859323
Zn7	Zn	1.071483	-0.482092	0.510110
Zn8	Zn	1.571483	0.017908	1.010110
O9	O	1.142791	-0.410829	0.434731
O10	O	1.642791	0.089171	0.934731
O11	O	1.320199	-0.364167	0.490186
O12	O	1.820199	0.135833	0.990186
O13	O	1.202651	-0.450009	0.233075
O14	O	1.702651	0.049991	0.733075
O15	O	1.096200	-0.227750	0.379365
O16	O	1.596200	0.272250	0.879365
O17	O	1.325848	-0.457522	0.379349
O18	O	1.825848	0.042478	0.879349
O19	O	1.189545	-0.233443	0.490195
O20	O	1.689545	0.266557	0.990195
O21	O	1.103657	-0.350961	0.233082
O22	O	1.603657	0.149039	0.733082
O23	O	0.965428	-0.358451	0.379302
O24	O	1.465428	0.141549	0.879302
O25	O	1.082885	-0.470688	0.636359
O26	O	1.582885	0.029312	1.136359
O27	O	0.959688	-0.463174	0.490085
O28	O	1.459688	0.036826	0.990085
O29	O	1.181969	-0.371658	0.636407
O30	O	1.681969	0.128342	1.136407
O31	O	1.195076	-0.588223	0.379287
O32	O	1.695076	-0.088223	0.879287
O33	O	1.090342	-0.593899	0.490076
O34	O	1.590342	-0.093899	0.990076
C35	C	0.933302	-0.410811	0.434688
C36	C	1.433302	0.089189	0.934688
C37	C	0.843681	-0.410824	0.434691
C38	C	1.343681	0.089176	0.934691
C39	C	1.142716	-0.620318	0.434693
C40	C	1.642716	-0.120318	0.934693
C41	C	1.142757	-0.709939	0.434707
C42	C	1.642757	-0.209939	0.934707
C43	C	1.142893	-1.038120	0.434801
C44	C	1.642893	-0.538120	0.934801
C45	C	1.142852	-0.946810	0.434777
C46	C	1.642852	-0.446810	0.934777
C47	C	1.142824	-0.874033	0.434753
C48	C	1.642824	-0.374033	0.934753
C49	C	1.142785	-0.782717	0.434731
C50	C	1.642785	-0.282717	0.934731
C51	C	0.770898	-0.410826	0.434702
C52	C	1.270898	0.089174	0.934702
C53	C	0.679588	-0.410831	0.434725
C54	C	1.179588	0.089169	0.934725
C55	C	0.606811	-0.410840	0.434748
C56	C	1.106811	0.089160	0.934748
C57	C	0.515495	-0.410847	0.434770
C58	C	1.015495	0.089153	0.934770
C59	C	1.353097	-0.410847	0.434774
C60	C	1.853097	0.089153	0.934774
C61	C	1.442718	-0.410855	0.434792
C62	C	1.942718	0.089145	0.934792
C63	C	1.130698	-0.422899	0.670031
C64	C	1.630698	0.077101	1.170031
C65	C	1.125545	-0.428042	0.770302
C66	C	1.625545	0.071958	1.270302
C67	C	1.142886	-0.200523	0.434788
C68	C	1.642886	0.299477	0.934788
C69	C	1.142927	-0.110903	0.434813
C70	C	1.642927	0.389097	0.934813
C71	C	1.154883	-0.398748	0.200346
C72	C	1.654883	0.101252	0.700346
C73	C	1.160192	-0.393377	0.100075
C74	C	1.660192	0.106623	0.600075
C75	C	1.219035	-0.334568	0.958773
C76	C	1.719035	0.165432	1.458773
C77	C	1.214196	-0.339398	1.052987
C78	C	1.714196	0.160602	1.552987
C79	C	1.111023	-0.442528	1.052944
C80	C	1.611023	0.057472	1.552944
C81	C	1.115862	-0.437698	0.958731
C82	C	1.615862	0.062302	1.458731
C83	C	1.169871	-0.383717	0.911648
C84	C	1.669871	0.116283	1.411648
C85	C	1.174714	-0.378892	0.817433
C86	C	1.674714	0.121108	1.317433
C87	C	1.071538	-0.482016	0.817393
C88	C	1.571538	0.017984	1.317393
C89	C	1.066698	-0.486846	0.911606
C90	C	1.566698	0.013154	1.411606
H91	H	1.263015	-0.290619	0.920438
H92	H	1.763015	0.209381	1.420438
H93	H	1.022724	-0.530794	0.949953
H94	H	1.522724	-0.030794	1.449953
C95	C	1.268280	-0.285337	1.104825
C96	C	1.768280	0.214663	1.604825
C97	C	1.262960	-0.290645	1.208456
C98	C	1.762960	0.209355	1.708456
C99	C	1.317045	-0.236580	1.260294
C100	C	1.817045	0.263420	1.760294
C101	C	1.376450	-0.177207	1.208501
C102	C	1.876450	0.322793	1.708501
C103	C	1.381772	-0.171896	1.104864
C104	C	1.881772	0.328104	1.604864
C105	C	1.327687	-0.225961	1.053026
C106	C	1.827687	0.274039	1.553026
H107	H	1.218982	-0.334599	1.246801
H108	H	1.718982	0.165401	1.746801
H109	H	1.313105	-0.240512	1.337013
H110	H	1.813105	0.259488	1.837013
H111	H	1.416487	-0.137184	1.246875
H112	H	1.916487	0.362816	1.746875
H113	H	1.425750	-0.127942	1.066519
H114	H	1.925750	0.372058	1.566519
H115	H	1.331627	-0.222029	0.976307
H116	H	1.831627	0.277971	1.476307
H117	H	1.218692	-0.334939	0.779100
H118	H	1.718692	0.165061	1.279100
H119	H	1.031506	-0.522039	0.779014
H120	H	1.531506	-0.022039	1.279014
H121	H	1.067051	-0.486475	1.091295
H122	H	1.567051	0.013525	1.591295
