data_functionalizedCrystal
_audit_creation_method	'MofGen! by Chris Wilmer'
_symmetry_space_group_name_H-M	'P1'
_symmetry_Int_Tables_number	1
_symmetry_cell_setting	triclinic
loop_
_symmetry_equiv_pos_as_xyz
  x,y,z
_cell_length_a	19.121102
_cell_length_b	21.295418
_cell_length_c	21.295411
_cell_angle_alpha	89.975438
_cell_angle_beta	87.545010
_cell_angle_gamma	87.582679
loop_
_atom_site_label
_atom_site_type_symbol
_atom_site_fract_x
_atom_site_fract_y
_atom_site_fract_z
Zn1	Zn	1.073683	-0.291758	-0.396931
Zn2	Zn	1.573683	0.208242	0.103069
Zn3	Zn	1.073595	-0.397019	-0.291660
Zn4	Zn	1.573595	0.102981	0.208340
Zn5	Zn	0.956239	-0.287273	-0.287191
Zn6	Zn	1.456239	0.212727	0.212809
Zn7	Zn	0.956192	-0.392493	-0.392409
Zn8	Zn	1.456192	0.107507	0.107591
O9	O	1.014927	-0.342136	-0.342048
O10	O	1.514927	0.157864	0.157952
O11	O	1.171955	-0.309492	-0.386729
O12	O	1.671955	0.190508	0.113271
O13	O	1.058010	-0.382479	-0.202977
O14	O	1.558010	0.117521	0.297023
O15	O	0.971874	-0.199781	-0.301770
O16	O	1.471874	0.300219	0.198230
O17	O	1.171890	-0.386827	-0.309388
O18	O	1.671890	0.113173	0.190612
O19	O	1.058160	-0.203076	-0.382395
O20	O	1.558160	0.296924	0.117605
O21	O	0.971789	-0.301849	-0.199694
O22	O	1.471789	0.198151	0.300306
O23	O	0.857949	-0.297460	-0.297385
O24	O	1.357949	0.202540	0.202615
O25	O	0.971795	-0.379113	-0.481099
O26	O	1.471795	0.120887	0.018901
O27	O	0.857915	-0.374765	-0.374688
O28	O	1.357915	0.125235	0.125312
O29	O	1.058115	-0.305103	-0.484421
O30	O	1.558115	0.194897	0.015579
O31	O	1.057965	-0.484506	-0.305003
O32	O	1.557965	0.015494	0.194997
O33	O	0.971710	-0.481181	-0.379022
O34	O	1.471710	0.018819	0.120978
C35	C	0.832448	-0.335135	-0.335062
C36	C	1.332448	0.164865	0.164938
C37	C	0.754382	-0.332155	-0.332088
C38	C	1.254382	0.167845	0.167912
C39	C	1.014842	-0.505684	-0.342021
C40	C	1.514842	-0.005684	0.157979
C41	C	1.014870	-0.575654	-0.342034
C42	C	1.514870	-0.075654	0.157966
C43	C	0.717708	-0.371065	-0.370875
C44	C	1.217708	0.128935	0.129125
C45	C	0.644357	-0.368256	-0.368084
C46	C	1.144357	0.131744	0.131916
C47	C	0.607682	-0.326542	-0.326502
C48	C	1.107682	0.173458	0.173498
C49	C	0.644362	-0.287628	-0.287713
C50	C	1.144362	0.212372	0.212287
C51	C	0.717711	-0.290434	-0.290508
C52	C	1.217711	0.209566	0.209492
C53	C	0.386214	-0.316052	-0.316056
C54	C	0.886214	0.183948	0.183944
C55	C	0.312859	-0.313251	-0.313263
C56	C	0.812859	0.186749	0.186737
C57	C	0.312859	-0.393878	-0.393635
C58	C	0.812859	0.106122	0.106365
C59	C	0.386210	-0.396683	-0.396423
C60	C	0.886210	0.103317	0.103577
C61	C	0.422884	-0.357767	-0.357637
C62	C	0.922884	0.142233	0.142363
C63	C	0.532706	-0.323672	-0.323647
C64	C	1.032706	0.176328	0.176353
C65	C	0.497859	-0.360634	-0.360496
C66	C	0.997859	0.139366	0.139504
C67	C	1.059943	-1.076779	-0.384113
C68	C	1.559943	-0.576779	0.115887
C69	C	1.059923	-1.011036	-0.384103
C70	C	1.559923	-0.511036	0.115897
C71	C	1.015023	-0.976499	-0.342091
C72	C	1.515023	-0.476499	0.157909
C73	C	0.970153	-1.007711	-0.300075
C74	C	1.470153	-0.507711	0.199925
C75	C	0.970180	-1.073453	-0.300083
C76	C	1.470180	-0.573453	0.199917
N77	N	0.953505	-0.870973	-0.334851
N78	N	1.453505	-0.370973	0.165149
N79	N	0.953482	-0.808521	-0.334847
N80	N	1.453482	-0.308521	0.165153
C81	C	1.014940	-0.778421	-0.342064
C82	C	1.514940	-0.278421	0.157936
N83	N	1.076425	-0.813133	-0.349297
N84	N	1.576425	-0.313133	0.150703
N85	N	1.076447	-0.875591	-0.349304
N86	N	1.576447	-0.375591	0.150696
C87	C	1.014989	-0.905212	-0.342077
C88	C	1.514989	-0.405212	0.157923
C89	C	1.059789	-0.675931	-0.384062
C90	C	1.559789	-0.175931	0.115938
C91	C	1.059769	-0.610186	-0.384047
C92	C	1.559769	-0.110186	0.115953
C93	C	0.969993	-0.606862	-0.300023
C94	C	1.469993	-0.106862	0.199977
C95	C	0.970019	-0.672605	-0.300035
C96	C	1.470019	-0.172605	0.199965
C97	C	1.014915	-0.707136	-0.342058
C98	C	1.514915	-0.207136	0.157942
C99	C	1.198119	-0.349165	-0.349061
C100	C	1.698119	0.150835	0.150939
C101	C	1.276185	-0.352160	-0.352050
C102	C	1.776185	0.147840	0.147950
C103	C	1.014960	-0.342104	-0.506239
C104	C	1.514960	0.157896	-0.006239
C105	C	1.014973	-0.342090	-0.576208
C106	C	1.514973	0.157910	-0.076208
C107	C	1.015032	-0.177950	-0.342089
C108	C	1.515032	0.322050	0.157911
C109	C	1.015077	-0.107983	-0.342106
C110	C	1.515077	0.392017	0.157894
C111	C	1.059947	-0.383946	-1.077379
C112	C	1.559947	0.116054	-0.577379
C113	C	1.059934	-0.383966	-1.011636
C114	C	1.559934	0.116034	-0.511636
C115	C	1.015040	-0.341994	-0.977050
C116	C	1.515040	0.158006	-0.477050
C117	C	0.970142	-0.300011	-1.008212
C118	C	1.470142	0.199989	-0.508212
C119	C	0.970151	-0.299997	-1.073953
C120	C	1.470151	0.200003	-0.573953
N121	N	1.009673	-0.286709	-0.873636
N122	N	1.509673	0.213291	-0.373636
N123	N	1.009668	-0.286725	-0.811184
N124	N	1.509668	0.213275	-0.311184
C125	C	1.015009	-0.342036	-0.778974
C126	C	1.515009	0.157964	-0.278974
N127	N	1.020368	-0.397332	-0.811575
N128	N	1.520368	0.102668	-0.311575
N129	N	1.020376	-0.397316	-0.874033
N130	N	1.520376	0.102684	-0.374033
C131	C	1.015025	-0.342005	-0.905764
C132	C	1.515025	0.157995	-0.405764
C133	C	1.059887	-0.384041	-0.676534
C134	C	1.559887	0.115959	-0.176534
C135	C	1.059869	-0.384061	-0.610790
C136	C	1.559869	0.115939	-0.110790
C137	C	0.970080	-0.300101	-0.607366
C138	C	1.470080	0.199899	-0.107366
C139	C	0.970094	-0.300086	-0.673109
C140	C	1.470094	0.199914	-0.173109
C141	C	1.015001	-0.342055	-0.707689
C142	C	1.515001	0.157945	-0.207689
C143	C	1.014935	-0.342124	-0.178496
C144	C	1.514935	0.157876	0.321504
C145	C	1.015058	-0.341966	-0.108533
C146	C	1.515058	0.158034	0.391467
H147	H	0.747563	-0.405035	-0.404734
H148	H	1.247563	0.094965	0.095266
H149	H	0.933437	-0.578742	-0.265813
H150	H	1.433437	-0.078742	0.234187
H151	H	1.096512	-0.418123	-1.105531
H152	H	1.596512	0.081877	-0.605531
C153	C	0.604018	-0.411072	-0.410741
C154	C	1.104018	0.088928	0.089259
N155	N	0.573635	-0.443327	-0.442869
N156	N	1.073635	0.056673	0.057131
C157	C	0.920816	-1.107778	-0.253873
C158	C	1.420816	-0.607778	0.246127
N159	N	0.883633	-1.133632	-0.219068
N160	N	1.383633	-0.633632	0.280932
C161	C	1.109181	-0.713917	-0.430283
C162	C	1.609181	-0.213917	0.069717
N163	N	1.146385	-0.742526	-0.465096
N164	N	1.646385	-0.242526	0.034904
C165	C	0.758053	-0.247632	-0.247837
C166	C	1.258053	0.252368	0.252163
N167	N	0.788438	-0.215391	-0.215697
N168	N	1.288438	0.284609	0.284303
C169	C	0.426547	-0.442575	-0.442164
C170	C	0.926547	0.057425	0.057836
N171	N	0.456929	-0.477144	-0.476614
N172	N	0.956929	0.022856	0.023386
H173	H	0.416065	-0.284368	-0.284469
H174	H	0.916065	0.215632	0.215531
H175	H	1.096451	-0.418216	-0.704691
H176	H	1.596451	0.081784	-0.204691
C177	C	0.920693	-0.253933	-0.569325
C178	C	1.420693	0.246067	-0.069325
N179	N	0.883493	-0.219159	-0.540669
N180	N	1.383493	0.280841	-0.040669
C181	C	1.109137	-0.575862	-0.430254
C182	C	1.609137	-0.075862	0.069746
N183	N	1.146324	-0.550009	-0.465057
N184	N	1.646324	-0.050009	0.034943
C185	C	0.920761	-0.969718	-0.253863
C186	C	1.420761	-0.469718	0.246137
N187	N	0.883559	-0.941102	-0.219054
N188	N	1.383559	-0.441102	0.280946
C189	C	1.109343	-1.114759	-0.430330
C190	C	1.609343	-0.614759	0.069670
N191	N	1.146556	-1.143367	-0.465137
N192	N	1.646556	-0.643367	0.034863
H193	H	0.933480	-0.698012	-0.265830
H194	H	1.433480	-0.198012	0.234170
H195	H	0.933543	-0.265898	-0.698475
H196	H	1.433543	0.234102	-0.198475
H197	H	0.933596	-0.265810	-1.099318
H198	H	1.433596	0.234190	-0.599318
H199	H	0.502837	-0.289709	-0.289789
H200	H	1.002837	0.210291	0.210211
C201	C	0.272513	-0.436678	-0.436302
C202	C	0.772513	0.063322	0.063698
N203	N	0.242123	-0.468914	-0.468443
N204	N	0.742123	0.031086	0.031557
H205	H	0.527722	-0.394595	-0.394355
H206	H	1.027722	0.105405	0.105645
C207	C	1.109276	-0.976704	-0.430321
C208	C	1.609276	-0.476704	0.069679
N209	N	1.146446	-0.950847	-0.465135
N210	N	1.646446	-0.450847	0.034865
H211	H	1.096499	-0.418145	-0.986266
H212	H	1.596499	0.081855	-0.486266
H213	H	0.283001	-0.279274	-0.279406
H214	H	0.783001	0.220726	0.220594
H215	H	1.096420	-0.418253	-0.585425
H216	H	1.596420	0.081747	-0.085425
H217	H	0.614495	-0.253661	-0.253859
H218	H	1.114495	0.246339	0.246141
H219	H	0.933587	-0.265838	-0.980047
H220	H	1.433587	0.234162	-0.480047
