data_functionalizedCrystal
_audit_creation_method	'MofGen! by Chris Wilmer'
_symmetry_space_group_name_H-M	'P1'
_symmetry_Int_Tables_number	1
_symmetry_cell_setting	triclinic
loop_
_symmetry_equiv_pos_as_xyz
  x,y,z
_cell_length_a	25.639242
_cell_length_b	25.639239
_cell_length_c	25.639234
_cell_angle_alpha	89.978894
_cell_angle_beta	89.980236
_cell_angle_gamma	90.034213
loop_
_atom_site_label
_atom_site_type_symbol
_atom_site_fract_x
_atom_site_fract_y
_atom_site_fract_z
Zn1	Zn	0.799213	-0.208265	-0.295742
Zn2	Zn	1.132546	0.125069	0.037591
Zn3	Zn	1.465879	0.458402	0.370924
Zn4	Zn	0.799140	-0.295687	-0.208307
Zn5	Zn	1.132473	0.037646	0.125027
Zn6	Zn	1.465806	0.370980	0.458360
Zn7	Zn	0.711793	-0.208261	-0.208306
Zn8	Zn	1.045126	0.125073	0.125027
Zn9	Zn	1.378459	0.458406	0.458360
Zn10	Zn	0.711734	-0.295664	-0.295696
Zn11	Zn	1.045067	0.037669	0.037637
Zn12	Zn	1.378401	0.371003	0.370970
O13	O	0.755470	-0.251969	-0.252013
O14	O	1.088803	0.081364	0.081320
O15	O	1.422136	0.414698	0.414654
O16	O	0.872368	-0.219873	-0.284163
O17	O	1.205702	0.113461	0.049170
O18	O	1.539035	0.446794	0.382504
O19	O	0.787547	-0.284098	-0.135141
O20	O	1.120880	0.049236	0.198192
O21	O	1.454214	0.382569	0.531525
O22	O	0.723444	-0.135096	-0.219924
O23	O	1.056777	0.198237	0.113409
O24	O	1.390111	0.531571	0.446743
O25	O	0.872315	-0.284102	-0.219924
O26	O	1.205648	0.049232	0.113409
O27	O	1.538981	0.382565	0.446742
O28	O	0.787671	-0.135099	-0.284163
O29	O	1.121005	0.198234	0.049171
O30	O	1.454338	0.531568	0.382504
O31	O	0.723373	-0.219866	-0.135141
O32	O	1.056707	0.113468	0.198192
O33	O	1.390040	0.446801	0.531526
O34	O	0.638620	-0.219844	-0.219880
O35	O	0.971953	0.113490	0.113454
O36	O	1.305286	0.446823	0.446787
O37	O	0.723344	-0.284062	-0.368868
O38	O	1.056678	0.049271	-0.035534
O39	O	1.390011	0.382604	0.297799
O40	O	0.638577	-0.284058	-0.284085
O41	O	0.971910	0.049275	0.049249
O42	O	1.305243	0.382608	0.382582
O43	O	0.787614	-0.219850	-0.368901
O44	O	1.120948	0.113483	-0.035568
O45	O	1.454281	0.446816	0.297765
O46	O	0.787490	-0.368849	-0.219880
O47	O	1.120824	-0.035516	0.113453
O48	O	1.454157	0.297818	0.446787
O49	O	0.723274	-0.368832	-0.284085
O50	O	1.056607	-0.035499	0.049248
O51	O	1.389940	0.297834	0.382582
C52	C	0.619627	-0.251948	-0.251977
C53	C	0.952961	0.081385	0.081356
C54	C	1.286294	0.414718	0.414689
C55	C	0.561513	-0.251952	-0.251975
C56	C	0.894847	0.081381	0.081359
C57	C	1.228180	0.414714	0.414692
C58	C	0.201137	-0.285462	-0.285413
C59	C	0.534470	0.047872	0.047920
C60	C	0.867803	0.381205	0.381254
C61	C	0.146532	-0.285465	-0.285421
C62	C	0.479866	0.047868	0.047912
C63	C	0.813199	0.381202	0.381246
O64	O	0.118284	-0.313930	-0.313821
O65	O	0.451617	0.019403	0.019512
O66	O	0.784951	0.352737	0.352845
N67	N	0.119231	-0.251983	-0.252047
N68	N	0.452564	0.081350	0.081286
N69	N	0.785897	0.414683	0.414620
C70	C	0.146536	-0.218493	-0.218666
C71	C	0.479870	0.114840	0.114667
C72	C	0.813203	0.448174	0.448000
O73	O	0.118300	-0.190014	-0.190280
O74	O	0.451634	0.143319	0.143053
O75	O	0.784967	0.476652	0.476387
C76	C	0.201140	-0.218487	-0.218661
C77	C	0.534473	0.114846	0.114672
C78	C	0.867806	0.448179	0.448006
C79	C	0.228438	-0.251975	-0.252034
C80	C	0.561772	0.081359	0.081300
C81	C	0.895105	0.414692	0.414633
C82	C	0.228435	-0.318946	-0.318783
C83	C	0.561769	0.014387	0.014550
C84	C	0.895102	0.347721	0.347884
C85	C	0.283036	-0.318943	-0.318774
C86	C	0.616369	0.014390	0.014559
C87	C	0.949703	0.347723	0.347893
C88	C	0.310338	-0.285456	-0.285395
C89	C	0.643671	0.047877	0.047939
C90	C	0.977004	0.381210	0.381272
C91	C	0.283039	-0.251972	-0.252024
C92	C	0.616372	0.081361	0.081309
C93	C	0.949706	0.414694	0.414642
C94	C	0.228444	-0.184995	-0.185283
C95	C	0.561777	0.148339	0.148050
C96	C	0.895111	0.481672	0.481383
C97	C	0.283051	-0.184992	-0.185281
C98	C	0.616385	0.148341	0.148052
C99	C	0.949718	0.481675	0.481385
C100	C	0.310350	-0.218479	-0.218654
C101	C	0.643683	0.114854	0.114680
C102	C	0.977017	0.448187	0.448013
C103	C	0.364941	-0.218483	-0.218636
C104	C	0.698275	0.114851	0.114697
C105	C	1.031608	0.448184	0.448031
N106	N	0.392243	-0.251964	-0.252010
N107	N	0.725576	0.081369	0.081323
N108	N	1.058909	0.414703	0.414656
C109	C	0.364941	-0.285451	-0.285389
C110	C	0.698274	0.047882	0.047944
C111	C	1.031608	0.381216	0.381277
C112	C	0.031866	-0.218506	-0.218680
C113	C	0.365199	0.114827	0.114653
C114	C	0.698532	0.448160	0.447986
C115	C	-0.022737	-0.218514	-0.218683
C116	C	0.310597	0.114819	0.114651
C117	C	0.643930	0.448153	0.447984
C118	C	-0.022737	-0.285485	-0.285438
C119	C	0.310596	0.047848	0.047895
C120	C	0.643930	0.381181	0.381228
C121	C	0.031866	-0.285480	-0.285433
C122	C	0.365200	0.047853	0.047900
C123	C	0.698533	0.381187	0.381234
C124	C	0.059167	-0.251988	-0.252054
C125	C	0.392501	0.081346	0.081279
C126	C	0.725834	0.414679	0.414612
C127	C	0.479606	-0.285443	-0.285368
C128	C	0.812939	0.047890	0.047966
C129	C	1.146273	0.381224	0.381299
C130	C	0.534211	-0.285439	-0.285354
C131	C	0.867545	0.047894	0.047979
C132	C	1.200878	0.381228	0.381313
C133	C	0.534207	-0.218466	-0.218601
C134	C	0.867540	0.114867	0.114733
C135	C	1.200874	0.448201	0.448066
C136	C	0.479606	-0.218472	-0.218612
C137	C	0.812940	0.114862	0.114721
C138	C	1.146273	0.448195	0.448055
C139	C	0.452307	-0.251962	-0.252000
C140	C	0.785641	0.081371	0.081334
C141	C	1.118974	0.414705	0.414667
O142	O	0.393224	-0.190030	-0.190252
O143	O	0.726557	0.143303	0.143082
O144	O	1.059891	0.476636	0.476415
O145	O	0.393184	-0.313920	-0.313776
O146	O	0.726517	0.019413	0.019558
O147	O	1.059850	0.352747	0.352891
C148	C	0.755382	-0.387812	-0.251989
C149	C	1.088715	-0.054478	0.081344
C150	C	1.422049	0.278855	0.414678
C151	C	0.755392	-0.445926	-0.251996
C152	C	1.088725	-0.112592	0.081337
C153	C	1.422059	0.220741	0.414670
C154	C	0.788995	-0.806285	-0.218638
C155	C	1.122328	-0.472952	0.114695
C156	C	1.455661	-0.139618	0.448028
C157	C	0.789015	-0.860889	-0.218645
C158	C	1.122348	-0.527556	0.114688
C159	C	1.455682	-0.194223	0.448021
O160	O	0.817494	-0.889123	-0.190257
O161	O	1.150827	-0.555789	0.143076
O162	O	1.484160	-0.222456	0.476410
N163	N	0.755562	-0.888208	-0.252048
N164	N	1.088895	-0.554875	0.081286
N165	N	1.422228	-0.221541	0.414619
C166	C	0.722090	-0.860920	-0.285449
C167	C	1.055423	-0.527586	0.047885
C168	C	1.388756	-0.194253	0.381218
O169	O	0.693637	-0.889171	-0.313861
O170	O	1.026971	-0.555837	0.019472
O171	O	1.360304	-0.222504	0.352806
C172	C	0.722073	-0.806317	-0.285444
C173	C	1.055406	-0.472983	0.047889
C174	C	1.388739	-0.139650	0.381223
C175	C	0.755524	-0.779000	-0.252036
C176	C	1.088858	-0.445667	0.081298
C177	C	1.422191	-0.112334	0.414631
C178	C	0.822444	-0.778969	-0.185233
C179	C	1.155777	-0.445635	0.148100
C180	C	1.489111	-0.112302	0.481433
C181	C	0.822423	-0.724368	-0.185226
C182	C	1.155756	-0.391035	0.148108
C183	C	1.489090	-0.057702	0.481441
C184	C	0.788952	-0.697084	-0.218623
C185	C	1.122286	-0.363751	0.114710
C186	C	1.455619	-0.030417	0.448043
C187	C	0.755503	-0.724400	-0.252028
C188	C	1.088836	-0.391067	0.081305
C189	C	1.422170	-0.057733	0.414638
C190	C	0.688604	-0.779029	-0.318847
C191	C	1.021937	-0.445696	0.014486
C192	C	1.355270	-0.112363	0.347819
C193	C	0.688590	-0.724422	-0.318840
C194	C	1.021923	-0.391089	0.014493
C195	C	1.355256	-0.057756	0.347827
C196	C	0.722041	-0.697106	-0.285432
C197	C	1.055375	-0.363773	0.047901
C198	C	1.388708	-0.030439	0.381235
C199	C	0.722012	-0.642515	-0.285418
C200	C	1.055345	-0.309182	0.047915
C201	C	1.388678	0.024152	0.381249
N202	N	0.755465	-0.615196	-0.252016
N203	N	1.088798	-0.281863	0.081317
N204	N	1.422131	0.051471	0.414651
C205	C	0.788935	-0.642481	-0.218618
C206	C	1.122269	-0.309147	0.114715
C207	C	1.455602	0.024186	0.448048
C208	C	0.722129	-0.975590	-0.285457
C209	C	1.055463	-0.642257	0.047877
C210	C	1.388796	-0.308924	0.381210
C211	C	0.722143	-1.030193	-0.285459
C212	C	1.055477	-0.696859	0.047874
C213	C	1.388810	-0.363526	0.381207
C214	C	0.789069	-1.030158	-0.218656
C215	C	1.122403	-0.696825	0.114677
C216	C	1.455736	-0.363492	0.448010
C217	C	0.789052	-0.975555	-0.218652
C218	C	1.122385	-0.642222	0.114682
C219	C	1.455719	-0.308888	0.448015
C220	C	0.755582	-0.948272	-0.252055
C221	C	1.088916	-0.614938	0.081279
C222	C	1.422249	-0.281605	0.414612
C223	C	0.788888	-0.527815	-0.218605
C224	C	1.122221	-0.194482	0.114728
C225	C	1.455555	0.138851	0.448062
C226	C	0.788862	-0.473210	-0.218599
C227	C	1.122196	-0.139877	0.114735
C228	C	1.455529	0.193457	0.448068
C229	C	0.721939	-0.473249	-0.285403
C230	C	1.055272	-0.139916	0.047930
C231	C	1.388605	0.193417	0.381263
C232	C	0.721962	-0.527850	-0.285408
C233	C	1.055296	-0.194517	0.047926
C234	C	1.388629	0.138817	0.381259
C235	C	0.755441	-0.555132	-0.252007
C236	C	1.088774	-0.221798	0.081327
C237	C	1.422108	0.111535	0.414660
O238	O	0.693549	-0.614247	-0.313793
O239	O	1.026882	-0.280913	0.019540
O240	O	1.360215	0.052420	0.352873
O241	O	0.817388	-0.614223	-0.190216
O242	O	1.150721	-0.280890	0.143117
O243	O	1.484054	0.052444	0.476451
C244	C	0.891843	-0.251990	-0.252049
C245	C	1.225176	0.081343	0.081285
C246	C	1.558509	0.414677	0.414618
C247	C	0.949957	-0.251999	-0.252064
C248	C	1.283290	0.081334	0.081269
C249	C	1.616623	0.414668	0.414603
C250	C	0.755481	-0.251954	-0.388386
C251	C	1.088814	0.081379	-0.055053
C252	C	1.422148	0.414712	0.278281
C253	C	0.755486	-0.251948	-0.446500
C254	C	1.088819	0.081385	-0.113167
C255	C	1.422152	0.414719	0.220167
C256	C	0.755572	-0.115596	-0.252048
C257	C	1.088906	0.217737	0.081285
C258	C	1.422239	0.551071	0.414618
C259	C	0.755616	-0.057482	-0.252064
C260	C	1.088949	0.275851	0.081270
C261	C	1.422283	0.609185	0.414603
C262	C	0.722055	-0.285317	-0.697670
C263	C	1.055388	0.048016	-0.364337
C264	C	1.388722	0.381349	-0.031004
C265	C	0.722046	-0.285329	-0.643066
C266	C	1.055379	0.048004	-0.309733
C267	C	1.388713	0.381338	0.023601
O268	O	0.693572	-0.313753	-0.614810
O269	O	1.026905	0.019580	-0.281476
O270	O	1.360239	0.352913	0.051857
N271	N	0.755506	-0.251906	-0.615774
N272	N	1.088839	0.081428	-0.282441
N273	N	1.422172	0.414761	0.050893
C274	C	0.788973	-0.218465	-0.643089
C275	C	1.122306	0.114869	-0.309756
C276	C	1.455640	0.448202	0.023578
O277	O	0.817432	-0.190036	-0.614861
O278	O	1.150765	0.143297	-0.281528
O279	O	1.484098	0.476631	0.051806
C280	C	0.788979	-0.218451	-0.697692
C281	C	1.122312	0.114883	-0.364359
C282	C	1.455646	0.448216	-0.031026
C283	C	0.755521	-0.251880	-0.724982
C284	C	1.088854	0.081453	-0.391648
C285	C	1.422188	0.414787	-0.058315
C286	C	0.688599	-0.318744	-0.724960
C287	C	1.021933	0.014590	-0.391626
C288	C	1.355266	0.347923	-0.058293
C289	C	0.688609	-0.318732	-0.779560
C290	C	1.021943	0.014601	-0.446227
C291	C	1.355276	0.347934	-0.112894
C292	C	0.722075	-0.285295	-0.806871
C293	C	1.055408	0.048038	-0.473538
C294	C	1.388742	0.381372	-0.140205
C295	C	0.755531	-0.251869	-0.779582
C296	C	1.088864	0.081465	-0.446249
C297	C	1.422198	0.414798	-0.112916
C298	C	0.822443	-0.185007	-0.725007
C299	C	1.155777	0.148326	-0.391673
C300	C	1.489110	0.481659	-0.058340
C301	C	0.822446	-0.184996	-0.779614
C302	C	1.155780	0.148338	-0.446280
C303	C	1.489113	0.481671	-0.112947
C304	C	0.788988	-0.218425	-0.806903
C305	C	1.122321	0.114908	-0.473570
C306	C	1.455655	0.448242	-0.140236
C307	C	0.789007	-0.218420	-0.861494
C308	C	1.122340	0.114913	-0.528161
C309	C	1.455673	0.448247	-0.194827
N310	N	0.755547	-0.251843	-0.888786
N311	N	1.088880	0.081490	-0.555453
N312	N	1.422214	0.414823	-0.222119
C313	C	0.722081	-0.285281	-0.861475
C314	C	1.055415	0.048052	-0.528141
C315	C	1.388748	0.381386	-0.194808
C316	C	0.788957	-0.218496	-0.528418
C317	C	1.122290	0.114837	-0.195085
C318	C	1.455623	0.448171	0.138248
C319	C	0.788954	-0.218512	-0.473816
C320	C	1.122287	0.114821	-0.140483
C321	C	1.455620	0.448154	0.192851
C322	C	0.722026	-0.285376	-0.473797
C323	C	1.055359	0.047957	-0.140463
C324	C	1.388693	0.381290	0.192870
C325	C	0.722032	-0.285362	-0.528400
C326	C	1.055365	0.047971	-0.195067
C327	C	1.388699	0.381304	0.138267
C328	C	0.755497	-0.251919	-0.555710
C329	C	1.088830	0.081414	-0.222377
C330	C	1.422164	0.414747	0.110956
C331	C	0.722105	-0.285255	-0.976140
C332	C	1.055438	0.048078	-0.642807
C333	C	1.388772	0.381411	-0.309473
C334	C	0.722120	-0.285243	-1.030745
C335	C	1.055453	0.048091	-0.697412
C336	C	1.388786	0.381424	-0.364079
C337	C	0.789045	-0.218377	-1.030760
C338	C	1.122378	0.114957	-0.697427
C339	C	1.455712	0.448290	-0.364093
C340	C	0.789033	-0.218391	-0.976159
C341	C	1.122366	0.114942	-0.642826
C342	C	1.455700	0.448276	-0.309493
C343	C	0.755559	-0.251832	-0.948851
C344	C	1.088892	0.081501	-0.615517
C345	C	1.422225	0.414835	-0.282184
O346	O	0.817465	-0.190009	-0.889785
O347	O	1.150798	0.143324	-0.556452
O348	O	1.484131	0.476658	-0.223118
O349	O	0.693622	-0.313700	-0.889709
O350	O	1.026956	0.019634	-0.556376
O351	O	1.360289	0.352967	-0.223043
C352	C	0.755489	-0.251946	-0.116170
C353	C	1.088822	0.081387	0.217163
C354	C	1.422155	0.414721	0.550496
C355	C	0.755585	-0.251805	-0.058057
C356	C	1.088919	0.081528	0.275277
C357	C	1.422252	0.414862	0.608610
H358	H	-0.044976	-0.312751	-0.312619
H359	H	0.288357	0.020583	0.020714
H360	H	0.621691	0.353916	0.354047
C361	C	0.796350	-0.148083	-0.914757
C362	C	1.129683	0.185250	-0.581424
C363	C	1.463016	0.518583	-0.248090
C364	C	0.825816	-0.181657	-0.946154
C365	C	1.159150	0.151676	-0.612821
C366	C	1.492483	0.485010	-0.279487
H367	H	0.819058	-0.125407	-0.896233
H368	H	1.152392	0.207926	-0.562899
H369	H	1.485725	0.541260	-0.229566
H370	H	0.773598	-0.128072	-0.936058
H371	H	1.106932	0.205262	-0.602725
H372	H	1.440265	0.538595	-0.269391
H373	H	0.776414	-0.168003	-0.890680
H374	H	1.109747	0.165330	-0.557347
H375	H	1.443081	0.498664	-0.224014
H376	H	0.845749	-0.161737	-0.970233
H377	H	1.179082	0.171596	-0.636900
H378	H	1.512416	0.504930	-0.303566
H379	H	0.848577	-0.201670	-0.924851
H380	H	1.181910	0.131663	-0.591518
H381	H	1.515243	0.464996	-0.258184
C382	C	0.344462	-0.326301	-0.389090
C383	C	0.677795	0.007032	-0.055757
C384	C	1.011129	0.340366	0.277576
C385	C	0.313038	-0.355747	-0.355466
C386	C	0.646371	-0.022414	-0.022132
C387	C	0.979705	0.310920	0.311201
H388	H	0.362983	-0.349023	-0.411743
H389	H	0.696316	-0.015690	-0.078409
H390	H	1.029649	0.317644	0.254924
H391	H	0.323179	-0.303552	-0.409124
H392	H	0.656513	0.029781	-0.075791
H393	H	0.989846	0.363115	0.257542
H394	H	0.368541	-0.306364	-0.369206
H395	H	0.701875	0.026969	-0.035872
H396	H	1.035208	0.360302	0.297461
H397	H	0.288956	-0.375681	-0.375350
H398	H	0.622289	-0.042348	-0.042017
H399	H	0.955622	0.290986	0.291317
H400	H	0.334322	-0.378505	-0.335429
H401	H	0.667656	-0.045172	-0.002096
H402	H	1.000989	0.288161	0.331237
H403	H	0.816212	-0.191264	-0.550651
H404	H	1.149546	0.142070	-0.217318
H405	H	1.482879	0.475403	0.116015
H406	H	0.206227	-0.157727	-0.158106
H407	H	0.539560	0.175606	0.175227
H408	H	0.872894	0.508940	0.508560
C409	C	0.829830	-0.840436	-0.114948
C410	C	1.163163	-0.507103	0.218385
C411	C	1.496496	-0.173770	0.551719
C412	C	0.859257	-0.808976	-0.148555
C413	C	1.192590	-0.475643	0.184779
C414	C	1.525924	-0.142309	0.518112
H415	H	0.852563	-0.858967	-0.092314
H416	H	1.185897	-0.525633	0.241019
H417	H	1.519230	-0.192300	0.574353
H418	H	0.807077	-0.819178	-0.094893
H419	H	1.140411	-0.485844	0.238440
H420	H	1.473744	-0.152511	0.571774
H421	H	0.809897	-0.864508	-0.134847
H422	H	1.143230	-0.531174	0.198487
H423	H	1.476564	-0.197841	0.531820
H424	H	0.879187	-0.784902	-0.128656
H425	H	1.212520	-0.451569	0.204677
H426	H	1.545853	-0.118235	0.538011
H427	H	0.882019	-0.830236	-0.168611
H428	H	1.215352	-0.496903	0.164722
H429	H	1.548685	-0.163570	0.498055
C430	C	0.847954	-0.096474	-0.708247
C431	C	1.181287	0.236860	-0.374914
C432	C	1.514620	0.570193	-0.041580
C433	C	0.859217	-0.148249	-0.695027
C434	C	1.192550	0.185085	-0.361694
C435	C	1.525884	0.518418	-0.028361
H436	H	0.870655	-0.073777	-0.689739
H437	H	1.203989	0.259556	-0.356406
H438	H	1.537322	0.592890	-0.023073
H439	H	0.852740	-0.091698	-0.744674
H440	H	1.186074	0.241636	-0.411341
H441	H	1.519407	0.574969	-0.078007
H442	H	0.812827	-0.088832	-0.699285
H443	H	1.146161	0.244502	-0.365951
H444	H	1.479494	0.577835	-0.032618
H445	H	0.894342	-0.155892	-0.703993
H446	H	1.227676	0.177441	-0.370660
H447	H	1.561009	0.510775	-0.037327
H448	H	0.854435	-0.153027	-0.658592
H449	H	1.187768	0.180306	-0.325259
H450	H	1.521101	0.513640	0.008075
H451	H	0.457379	-0.191205	-0.191436
H452	H	0.790712	0.142129	0.141897
H453	H	1.124045	0.475462	0.475230
C454	C	0.093236	-0.355819	-0.292571
C455	C	0.426570	-0.022485	0.040763
C456	C	0.759903	0.310848	0.374096
C457	C	0.061870	-0.322287	-0.322120
C458	C	0.395203	0.011047	0.011213
C459	C	0.728537	0.344380	0.344546
H460	H	0.111754	-0.378544	-0.315223
H461	H	0.445088	-0.045210	0.018111
H462	H	0.778421	0.288123	0.351444
H463	H	0.117314	-0.335875	-0.272699
H464	H	0.450647	-0.002542	0.060634
H465	H	0.783980	0.330791	0.393968
H466	H	0.071911	-0.375785	-0.269756
H467	H	0.405244	-0.042451	0.063577
H468	H	0.738578	0.290882	0.396911
H469	H	0.083196	-0.302318	-0.344932
H470	H	0.416529	0.031015	-0.011599
H471	H	0.749862	0.364349	0.321734
H472	H	0.037790	-0.342232	-0.342001
H473	H	0.371123	-0.008899	-0.008667
H474	H	0.704457	0.324434	0.324666
H475	H	0.556446	-0.191204	-0.191422
H476	H	0.889779	0.142130	0.141911
H477	H	1.223112	0.475463	0.475244
C478	C	0.892792	-0.177720	-0.841033
C479	C	1.226126	0.155613	-0.507699
C480	C	1.559459	0.488947	-0.174366
C481	C	0.859233	-0.148235	-0.809634
C482	C	1.192567	0.185099	-0.476301
C483	C	1.525900	0.518432	-0.142967
H484	H	0.915500	-0.155025	-0.859567
H485	H	1.248834	0.178308	-0.526234
H486	H	1.582167	0.511642	-0.192900
H487	H	0.912770	-0.200502	-0.819731
H488	H	1.246104	0.132831	-0.486398
H489	H	1.579437	0.466165	-0.153064
H490	H	0.872864	-0.197623	-0.865100
H491	H	1.206197	0.135710	-0.531767
H492	H	1.539530	0.469043	-0.198433
H493	H	0.879162	-0.128334	-0.785564
H494	H	1.212495	0.204999	-0.452230
H495	H	1.545828	0.538332	-0.118897
H496	H	0.839253	-0.125444	-0.830937
H497	H	1.172587	0.207890	-0.497604
H498	H	1.505920	0.541223	-0.164271
C499	C	0.818764	-0.188673	-1.114477
C500	C	1.152097	0.144661	-0.781143
C501	C	1.485431	0.477994	-0.447810
C502	C	0.825828	-0.181622	-1.060788
C503	C	1.159162	0.151711	-0.727455
C504	C	1.492495	0.485045	-0.394121
H505	H	0.841469	-0.165977	-1.133014
H506	H	1.174802	0.167356	-0.799681
H507	H	1.508136	0.500689	-0.466348
H508	H	0.826394	-0.223797	-1.123417
H509	H	1.159728	0.109536	-0.790083
H510	H	1.493061	0.442869	-0.456750
H511	H	0.783638	-0.181016	-1.123411
H512	H	1.116972	0.152317	-0.790077
H513	H	1.450305	0.485650	-0.456744
H514	H	0.860953	-0.189282	-1.051853
H515	H	1.194287	0.144051	-0.718520
H516	H	1.527620	0.477385	-0.385187
H517	H	0.818202	-0.146490	-1.051844
H518	H	1.151535	0.186844	-0.718511
H519	H	1.484868	0.520177	-0.385178
C520	C	0.233934	-0.385147	-0.384758
C521	C	0.567268	-0.051814	-0.051425
C522	C	0.900601	0.281519	0.281909
C523	C	0.198432	-0.355762	-0.355475
C524	C	0.531765	-0.022429	-0.022141
C525	C	0.865098	0.310904	0.311192
H526	H	0.215413	-0.407882	-0.407406
H527	H	0.548746	-0.074548	-0.074073
H528	H	0.882079	0.258785	0.259260
H529	H	0.255248	-0.362392	-0.404796
H530	H	0.588581	-0.029059	-0.071463
H531	H	0.921915	0.304275	0.261871
H532	H	0.255214	-0.405103	-0.361929
H533	H	0.588548	-0.071770	-0.028596
H534	H	0.921881	0.261564	0.304738
H535	H	0.177154	-0.335803	-0.378304
H536	H	0.510487	-0.002470	-0.044970
H537	H	0.843821	0.330863	0.288363
H538	H	0.177109	-0.378520	-0.335435
H539	H	0.510442	-0.045187	-0.002102
H540	H	0.843776	0.288146	0.331231
H541	H	0.694870	-0.953379	-0.312656
H542	H	1.028203	-0.620046	0.020677
H543	H	1.361536	-0.286712	0.354011
C544	C	0.528718	-0.351637	-0.351344
C545	C	0.862052	-0.018303	-0.018011
C546	C	1.195385	0.315030	0.315323
C547	C	0.564217	-0.322248	-0.322043
C548	C	0.897551	0.011085	0.011291
C549	C	1.230884	0.344419	0.344624
H550	H	0.547242	-0.374357	-0.373996
H551	H	0.880576	-0.041024	-0.040662
H552	H	1.213909	0.292310	0.292671
H553	H	0.507401	-0.371604	-0.328531
H554	H	0.840734	-0.038270	0.004802
H555	H	1.174067	0.295063	0.338136
H556	H	0.507442	-0.328879	-0.371385
H557	H	0.840775	0.004454	-0.038051
H558	H	1.174109	0.337787	0.295282
H559	H	0.585491	-0.345006	-0.301999
H560	H	0.918825	-0.011672	0.031334
H561	H	1.252158	0.321661	0.364668
H562	H	0.585544	-0.302280	-0.344858
H563	H	0.918877	0.031054	-0.011525
H564	H	1.252211	0.364387	0.321808
H565	H	0.816204	-0.191296	-0.451602
H566	H	1.149538	0.142037	-0.118268
H567	H	1.482871	0.475370	0.215065
H568	H	0.457386	-0.312713	-0.312556
H569	H	0.790719	0.020620	0.020777
H570	H	1.124052	0.353954	0.354110
C571	C	0.093239	-0.211135	-0.148350
C572	C	0.426573	0.122199	0.184983
C573	C	0.759906	0.455532	0.518316
C574	C	0.061874	-0.181696	-0.181981
C575	C	0.395207	0.151638	0.151352
C576	C	0.728541	0.484971	0.484685
H577	H	0.111765	-0.188408	-0.125697
H578	H	0.445099	0.144925	0.207636
H579	H	0.778432	0.478258	0.540970
H580	H	0.071917	-0.233886	-0.128317
H581	H	0.405250	0.099448	0.205016
H582	H	0.738583	0.432781	0.538349
H583	H	0.117314	-0.231069	-0.168230
H584	H	0.450648	0.102264	0.165103
H585	H	0.783981	0.435597	0.498437
H586	H	0.037796	-0.161764	-0.162101
H587	H	0.371130	0.171570	0.171232
H588	H	0.704463	0.504903	0.504565
H589	H	0.083199	-0.158936	-0.202016
H590	H	0.416532	0.174398	0.131317
H591	H	0.749866	0.507731	0.464651
H592	H	0.661361	-0.801261	-0.346049
H593	H	0.994695	-0.467927	-0.012716
H594	H	1.328028	-0.134594	0.320617
H595	H	0.694686	-0.451026	-0.312594
H596	H	1.028019	-0.117692	0.020740
H597	H	1.361353	0.215641	0.354073
H598	H	-0.044959	-0.191250	-0.191502
H599	H	0.288375	0.142083	0.141831
H600	H	0.621708	0.475416	0.475165
H601	H	0.305277	-0.157715	-0.158103
H602	H	0.638610	0.175619	0.175230
H603	H	0.971943	0.508952	0.508564
C604	C	0.855021	-0.478669	-0.152568
C605	C	1.188355	-0.145336	0.180766
C606	C	1.521688	0.187997	0.514099
C607	C	0.825637	-0.443185	-0.181876
C608	C	1.158971	-0.109852	0.151457
C609	C	1.492304	0.223482	0.484790
H610	H	0.877726	-0.460133	-0.129901
H611	H	1.211059	-0.126800	0.203432
H612	H	1.544393	0.206533	0.536766
H613	H	0.832264	-0.499997	-0.132548
H614	H	1.165597	-0.166664	0.200785
H615	H	1.498930	0.166670	0.534119
H616	H	0.875009	-0.499937	-0.175379
H617	H	1.208342	-0.166603	0.157954
H618	H	1.541676	0.166730	0.491287
H619	H	0.805647	-0.421920	-0.159064
H620	H	1.138980	-0.088587	0.174269
H621	H	1.472313	0.244746	0.507602
H622	H	0.848398	-0.421848	-0.201897
H623	H	1.181731	-0.088515	0.131436
H624	H	1.515065	0.244818	0.464769
C625	C	0.655866	-0.351468	-0.479249
C626	C	0.989199	-0.018135	-0.145916
C627	C	1.322532	0.315198	0.187418
C628	C	0.685235	-0.322129	-0.443770
C629	C	1.018568	0.011204	-0.110436
C630	C	1.351902	0.344537	0.222897
H631	H	0.633157	-0.374158	-0.460709
H632	H	0.966490	-0.040825	-0.127376
H633	H	1.299823	0.292508	0.205957
H634	H	0.635888	-0.328681	-0.500545
H635	H	0.969221	0.004652	-0.167212
H636	H	1.302554	0.337985	0.166122
H637	H	0.678636	-0.371470	-0.500548
H638	H	1.011969	-0.038136	-0.167215
H639	H	1.345303	0.295197	0.166118
H640	H	0.662465	-0.302125	-0.422472
H641	H	0.995798	0.031208	-0.089139
H642	H	1.329131	0.364542	0.244194
H643	H	0.705214	-0.344919	-0.422464
H644	H	1.038548	-0.011586	-0.089131
H645	H	1.371881	0.321747	0.244202
C646	C	0.859267	-0.589133	-0.211424
C647	C	1.192601	-0.255800	0.121909
C648	C	1.525934	0.077533	0.455243
C649	C	0.825696	-0.557792	-0.181894
C650	C	1.159030	-0.224459	0.151440
C651	C	1.492363	0.108875	0.484773
H652	H	0.881994	-0.607635	-0.188759
H653	H	1.215327	-0.274301	0.144574
H654	H	1.548660	0.059032	0.477908
H655	H	0.839353	-0.613225	-0.231307
H656	H	1.172686	-0.279891	0.102027
H657	H	1.506019	0.053442	0.435360
H658	H	0.879230	-0.567793	-0.234227
H659	H	1.212563	-0.234459	0.099106
H660	H	1.545897	0.098874	0.432439
H661	H	0.805731	-0.579133	-0.159093
H662	H	1.139064	-0.245800	0.174241
H663	H	1.472398	0.087534	0.507574
H664	H	0.845613	-0.533698	-0.162002
H665	H	1.178947	-0.200365	0.171331
H666	H	1.512280	0.132969	0.504665
C667	C	0.888584	-0.729836	-0.119205
C668	C	1.221917	-0.396503	0.214128
C669	C	1.555251	-0.063169	0.547462
C670	C	0.859202	-0.694347	-0.148510
C671	C	1.192536	-0.361014	0.184823
C672	C	1.525869	-0.027681	0.518157
H673	H	0.911295	-0.711304	-0.096541
H674	H	1.244628	-0.377970	0.236792
H675	H	1.577961	-0.044637	0.570125
H676	H	0.865825	-0.751160	-0.099182
H677	H	1.199159	-0.417826	0.234151
H678	H	1.532492	-0.084493	0.567485
H679	H	0.908565	-0.751107	-0.142019
H680	H	1.241898	-0.417774	0.191314
H681	H	1.575232	-0.084440	0.524647
H682	H	0.839218	-0.673079	-0.125696
H683	H	1.172551	-0.339745	0.207638
H684	H	1.505885	-0.006412	0.540971
H685	H	0.881964	-0.673014	-0.168534
H686	H	1.215297	-0.339681	0.164799
H687	H	1.548630	-0.006348	0.498132
H688	H	0.816292	-0.953318	-0.191448
H689	H	1.149625	-0.619984	0.141885
H690	H	1.482958	-0.286651	0.475218
H691	H	0.694787	-0.312583	-0.550615
H692	H	1.028120	0.020750	-0.217282
H693	H	1.361454	0.354084	0.116051
C694	C	0.818877	-1.113851	-0.189076
C695	C	1.152211	-0.780518	0.144257
C696	C	1.485544	-0.447184	0.477591
C697	C	0.825908	-1.060157	-0.181991
C698	C	1.159242	-0.726823	0.151342
C699	C	1.492575	-0.393490	0.484676
H700	H	0.841634	-1.132371	-0.166456
H701	H	1.174967	-0.799037	0.166877
H702	H	1.508300	-0.465704	0.500210
H703	H	0.783775	-1.122854	-0.181344
H704	H	1.117109	-0.789521	0.151989
H705	H	1.450442	-0.456188	0.485323
H706	H	0.826464	-1.122744	-0.224233
H707	H	1.159797	-0.789411	0.109101
H708	H	1.493130	-0.456077	0.442434
H709	H	0.818318	-1.051263	-0.146835
H710	H	1.151652	-0.717930	0.186498
H711	H	1.484985	-0.384597	0.519831
H712	H	0.861018	-1.051150	-0.189719
H713	H	1.194352	-0.717817	0.143614
H714	H	1.527685	-0.384483	0.476947
C715	C	0.655990	-1.024728	-0.351490
C716	C	0.989324	-0.691395	-0.018157
C717	C	1.322657	-0.358062	0.315177
C718	C	0.685369	-1.060215	-0.322180
C719	C	1.018703	-0.726881	0.011154
C720	C	1.352036	-0.393548	0.344487
H721	H	0.633291	-1.043263	-0.374164
H722	H	0.966624	-0.709929	-0.040830
H723	H	1.299958	-0.376596	0.292503
H724	H	0.636002	-1.003464	-0.328684
H725	H	0.969335	-0.670131	0.004649
H726	H	1.302668	-0.336798	0.337983
H727	H	0.678755	-1.003397	-0.371507
H728	H	1.012089	-0.670064	-0.038174
H729	H	1.345422	-0.336731	0.295159
H730	H	0.662604	-1.081543	-0.302159
H731	H	0.995938	-0.748210	0.031174
H732	H	1.329271	-0.414877	0.364507
H733	H	0.705359	-1.081488	-0.344989
H734	H	1.038693	-0.748155	-0.011655
H735	H	1.372026	-0.414821	0.321678
C736	C	0.622444	-0.729945	-0.384880
C737	C	0.955777	-0.396612	-0.051547
C738	C	1.289111	-0.063278	0.281787
C739	C	0.651798	-0.694433	-0.355559
C740	C	0.985131	-0.361100	-0.022226
C741	C	1.318465	-0.027767	0.311108
H742	H	0.599729	-0.711431	-0.407545
H743	H	0.933062	-0.378097	-0.074212
H744	H	1.266396	-0.044764	0.259121
H745	H	0.645220	-0.751210	-0.404901
H746	H	0.978553	-0.417876	-0.071568
H747	H	1.311887	-0.084543	0.261765
H748	H	0.602468	-0.751273	-0.362076
H749	H	0.935802	-0.417940	-0.028743
H750	H	1.269135	-0.084606	0.304591
H751	H	0.671776	-0.673108	-0.378363
H752	H	1.005110	-0.339774	-0.045029
H753	H	1.338443	-0.006441	0.288304
H754	H	0.629019	-0.673160	-0.335536
H755	H	0.962352	-0.339826	-0.002202
H756	H	1.295686	-0.006493	0.331131
H757	H	0.661344	-0.345972	-0.702729
H758	H	0.994678	-0.012639	-0.369395
H759	H	1.328011	0.320694	-0.036062
C760	C	0.655810	-0.522396	-0.351442
C761	C	0.989143	-0.189063	-0.018108
C762	C	1.322477	0.144270	0.315225
C763	C	0.685192	-0.557879	-0.322130
C764	C	1.018526	-0.224546	0.011204
C765	C	1.351859	0.108788	0.344537
H766	H	0.633115	-0.540933	-0.374118
H767	H	0.966449	-0.207600	-0.040784
H768	H	1.299782	0.125733	0.292549
H769	H	0.635816	-0.501136	-0.328637
H770	H	0.969150	-0.167802	0.004697
H771	H	1.302483	0.165531	0.338030
H772	H	0.678573	-0.501061	-0.371457
H773	H	1.011907	-0.167728	-0.038123
H774	H	1.345240	0.165605	0.295210
H775	H	0.662429	-0.579211	-0.302112
H776	H	0.995762	-0.245878	0.031222
H777	H	1.329096	0.087455	0.364555
H778	H	0.705187	-0.579148	-0.344938
H779	H	1.038521	-0.245815	-0.011604
H780	H	1.371854	0.087518	0.321729
C781	C	0.692419	-0.314929	-1.114437
C782	C	1.025752	0.018404	-0.781104
C783	C	1.359085	0.351737	-0.447771
C784	C	0.685343	-0.321993	-1.060742
C785	C	1.018676	0.011340	-0.727408
C786	C	1.352010	0.344673	-0.394075
H787	H	0.669718	-0.337620	-1.132953
H788	H	1.003051	-0.004287	-0.799620
H789	H	1.336385	0.329046	-0.466286
H790	H	0.684790	-0.279803	-1.123391
H791	H	1.018124	0.053531	-0.790057
H792	H	1.351457	0.386864	-0.456724
H793	H	0.727546	-0.322583	-1.123384
H794	H	1.060880	0.010750	-0.790051
H795	H	1.394213	0.344084	-0.456717
H796	H	0.650216	-0.314336	-1.051794
H797	H	0.983550	0.018998	-0.718461
H798	H	1.316883	0.352331	-0.385127
H799	H	0.692968	-0.357128	-1.051784
H800	H	1.026301	-0.023795	-0.718451
H801	H	1.359635	0.309539	-0.385118
H802	H	0.694842	-0.312481	-0.953912
H803	H	1.028176	0.020852	-0.620578
H804	H	1.361509	0.354185	-0.287245
C805	C	0.622449	-0.384817	-0.774039
C806	C	0.955783	-0.051484	-0.440706
C807	C	1.289116	0.281849	-0.107373
C808	C	0.651824	-0.355473	-0.809552
C809	C	0.985157	-0.022139	-0.476218
C810	C	1.318491	0.311194	-0.142885
H811	H	0.599735	-0.407496	-0.792553
H812	H	0.933068	-0.074163	-0.459220
H813	H	1.266402	0.259170	-0.125887
H814	H	0.645212	-0.404826	-0.752748
H815	H	0.978545	-0.071492	-0.419415
H816	H	1.311879	0.261841	-0.086081
H817	H	0.602472	-0.362029	-0.752738
H818	H	0.935805	-0.028696	-0.419405
H819	H	1.269139	0.304638	-0.086072
H820	H	0.671804	-0.378261	-0.830850
H821	H	1.005138	-0.044928	-0.497517
H822	H	1.338471	0.288406	-0.164184
H823	H	0.629058	-0.335463	-0.830852
H824	H	0.962392	-0.002130	-0.497519
H825	H	1.295725	0.331204	-0.164186
