data_functionalizedCrystal
_audit_creation_method	'MofGen! by Chris Wilmer'
_symmetry_space_group_name_H-M	'P1'
_symmetry_Int_Tables_number	1
_symmetry_cell_setting	triclinic
loop_
_symmetry_equiv_pos_as_xyz
  x,y,z
_cell_length_a	15.298068
_cell_length_b	16.625546
_cell_length_c	15.296720
_cell_angle_alpha	99.642470
_cell_angle_beta	88.354818
_cell_angle_gamma	99.681772
loop_
_atom_site_label
_atom_site_type_symbol
_atom_site_fract_x
_atom_site_fract_y
_atom_site_fract_z
Zn1	Zn	1.253380	-0.239861	-0.727351
Zn2	Zn	1.278643	-0.348150	-0.580877
Zn3	Zn	1.132260	-0.232027	-0.555519
Zn4	Zn	1.106872	-0.393352	-0.701898
O5	O	1.192789	-0.303347	-0.641411
O6	O	1.379307	-0.238588	-0.729186
O7	O	1.280422	-0.310550	-0.454952
O8	O	1.148379	-0.120232	-0.578353
O9	O	1.397867	-0.318147	-0.621572
O10	O	1.237365	-0.125988	-0.704597
O11	O	1.172875	-0.225235	-0.436322
O12	O	1.006316	-0.269065	-0.553671
O13	O	1.105109	-0.395187	-0.827835
O14	O	0.987664	-0.387590	-0.661215
O15	O	1.212748	-0.282418	-0.846535
O16	O	1.255805	-0.466980	-0.596890
O17	O	1.129606	-0.500190	-0.685804
C18	C	0.965208	-0.332383	-0.601930
C19	C	0.867844	-0.344828	-0.585061
C20	C	0.554679	-0.214606	-0.761981
C21	C	0.646156	-0.202916	-0.777836
C22	C	0.701583	-0.238393	-0.729643
C23	C	0.665523	-0.285561	-0.665594
C24	C	0.574036	-0.297257	-0.649742
C25	C	0.720939	-0.321044	-0.617404
C26	C	0.684880	-0.368213	-0.553355
C27	C	0.593402	-0.379906	-0.537506
C28	C	0.537975	-0.344429	-0.585698
C29	C	0.812426	-0.309348	-0.633256
C30	C	0.831783	-0.392000	-0.521017
C31	C	0.740306	-0.403689	-0.505162
C32	C	1.192712	-0.512842	-0.641360
C33	C	1.192754	-0.602460	-0.641381
C34	C	1.192892	-0.930633	-0.641499
C35	C	1.192850	-0.839326	-0.641468
C36	C	1.192822	-0.766549	-0.641440
C37	C	1.192782	-0.675237	-0.641410
C38	C	1.421258	-0.274199	-0.681047
C39	C	1.518618	-0.261778	-0.697937
C40	C	1.153279	-0.344718	-0.869852
C41	C	1.136442	-0.362348	-0.967200
C42	C	1.192886	-0.093035	-0.641486
C43	C	1.192928	-0.003412	-0.641517
C44	C	1.313156	-0.177198	-1.280555
C45	C	1.328981	-0.160635	-1.189093
C46	C	1.280847	-0.211062	-1.133615
C47	C	1.216887	-0.278055	-1.169609
C48	C	1.201066	-0.294624	-1.261081
C49	C	1.168757	-0.328487	-1.114141
C50	C	1.104797	-0.395481	-1.150134
C51	C	1.088978	-0.412046	-1.241598
C52	C	1.137111	-0.361620	-1.297075
C53	C	1.184578	-0.311918	-1.022669
C54	C	1.072488	-0.429344	-1.003195
C55	C	1.056663	-0.445907	-1.094657
C56	C	1.232195	-0.262073	-0.413868
C57	C	1.249202	-0.244194	-0.316550
H58	H	0.876911	-0.420892	-0.481778
C59	C	0.437343	-0.357284	-0.568260
N60	N	0.361546	-0.366965	-0.555128
H61	H	1.124231	-0.375102	-1.371552
C62	C	1.399327	-0.086938	-1.149505
N63	N	1.452313	-0.031423	-1.119687
H64	H	1.352344	-0.136152	-1.325733
H65	H	0.564044	-0.418321	-0.485359
C66	C	0.986307	-0.519598	-1.134262
N67	N	0.933313	-0.575100	-1.164093
C68	C	0.493707	-0.175575	-0.814974
N69	N	0.447783	-0.146169	-0.854887
H70	H	1.036904	-0.466603	-1.270902
C71	C	1.019535	-0.484816	-0.942172
N72	N	0.979656	-0.526594	-0.896205
H73	H	1.236654	-0.257371	-0.993372
C74	C	0.700627	-0.455578	-0.434713
N75	N	0.670740	-0.494661	-0.381651
H76	H	0.841777	-0.270942	-0.685405
C77	C	0.802211	-0.225524	-0.747078
N78	N	0.878009	-0.215824	-0.760208
H79	H	0.675509	-0.164515	-0.829988
C80	C	1.298250	-0.192833	-1.033003
N81	N	1.311356	-0.179097	-0.957218
