data_functionalizedCrystal
_audit_creation_method	'MofGen! by Chris Wilmer'
_symmetry_space_group_name_H-M	'P1'
_symmetry_Int_Tables_number	1
_symmetry_cell_setting	triclinic
loop_
_symmetry_equiv_pos_as_xyz
  x,y,z
_cell_length_a	16.994748
_cell_length_b	25.639242
_cell_length_c	25.639233
_cell_angle_alpha	90.022166
_cell_angle_beta	90.007353
_cell_angle_gamma	89.999852
loop_
_atom_site_label
_atom_site_type_symbol
_atom_site_fract_x
_atom_site_fract_y
_atom_site_fract_z
Zn1	Zn	-0.314218	0.799350	0.295784
Zn2	Zn	0.185782	1.299350	0.795784
Zn3	Zn	-0.446103	0.799326	0.208365
Zn4	Zn	0.053897	1.299326	0.708365
Zn5	Zn	-0.314207	0.711926	0.208348
Zn6	Zn	0.185793	1.211926	0.708348
Zn7	Zn	-0.446074	0.711924	0.295755
Zn8	Zn	0.053926	1.211924	0.795755
O9	O	-0.380150	0.755631	0.252063
O10	O	0.119850	1.255631	0.752063
O11	O	-0.331730	0.872512	0.284207
O12	O	0.168270	1.372512	0.784207
O13	O	-0.428614	0.787723	0.135198
O14	O	0.071386	1.287723	0.635198
O15	O	-0.203827	0.723534	0.219951
O16	O	0.296173	1.223534	0.719951
O17	O	-0.428625	0.872494	0.219981
O18	O	0.071375	1.372494	0.719981
O19	O	-0.203835	0.787764	0.284190
O20	O	0.296165	1.287764	0.784190
O21	O	-0.331710	0.723511	0.135185
O22	O	0.168290	1.223511	0.635185
O23	O	-0.331682	0.638761	0.219923
O24	O	0.168318	1.138761	0.719923
O25	O	-0.428575	0.723530	0.368924
O26	O	0.071425	1.223530	0.868924
O27	O	-0.428564	0.638759	0.284141
O28	O	0.071436	1.138759	0.784141
O29	O	-0.331702	0.787762	0.368945
O30	O	0.168298	1.287762	0.868945
O31	O	-0.556480	0.787721	0.219953
O32	O	-0.056480	1.287721	0.719953
O33	O	-0.556459	0.723507	0.284158
O34	O	-0.056459	1.223507	0.784158
C35	C	-0.380119	0.619789	0.252028
C36	C	0.119881	1.119789	0.752028
C37	C	-0.380125	0.561675	0.252025
C38	C	0.119875	1.061675	0.752025
C39	C	-0.174410	0.755648	0.252070
C40	C	0.325590	1.255648	0.752070
C41	C	-0.085088	0.755658	0.252073
C42	C	0.414912	1.255658	0.752073
C43	C	-0.585090	0.755617	0.252053
C44	C	-0.085090	1.255617	0.752053
C45	C	-0.674412	0.755628	0.252037
C46	C	-0.174412	1.255628	0.752037
C47	C	-0.430681	0.201320	0.285470
C48	C	0.069319	0.701320	0.785470
C49	C	-0.430686	0.146715	0.285478
C50	C	0.069314	0.646715	0.785478
O51	O	-0.473632	0.118485	0.313884
O52	O	0.026368	0.618485	0.813884
N53	N	-0.380172	0.119392	0.252097
N54	N	0.119828	0.619392	0.752097
C55	C	-0.329644	0.146676	0.218710
C56	C	0.170356	0.646676	0.718710
O57	O	-0.286678	0.118422	0.190318
O58	O	0.213322	0.618422	0.690318
C59	C	-0.329636	0.201280	0.218705
C60	C	0.170364	0.701280	0.718705
C61	C	-0.380159	0.228600	0.252084
C62	C	0.119841	0.728600	0.752084
C63	C	-0.481199	0.228640	0.318847
C64	C	0.018801	0.728640	0.818847
C65	C	-0.481195	0.283241	0.318837
C66	C	0.018805	0.783241	0.818837
C67	C	-0.430673	0.310521	0.285452
C68	C	0.069327	0.810521	0.785452
C69	C	-0.380155	0.283201	0.252075
C70	C	0.119845	0.783201	0.752075
C71	C	-0.279105	0.228563	0.185320
C72	C	0.220895	0.728563	0.685320
C73	C	-0.279101	0.283170	0.185318
C74	C	0.220899	0.783170	0.685318
C75	C	-0.329624	0.310490	0.218697
C76	C	0.170376	0.810490	0.718697
C77	C	-0.329629	0.365081	0.218680
C78	C	0.170371	0.865081	0.718680
N79	N	-0.380143	0.392404	0.252060
N80	N	0.119857	0.892404	0.752060
C81	C	-0.430665	0.365124	0.285446
C82	C	0.069335	0.865124	0.785446
C83	C	-0.329664	0.032006	0.218724
C84	C	0.170336	0.532006	0.718724
C85	C	-0.329676	-0.022596	0.218726
C86	C	0.170324	0.477404	0.718726
C87	C	-0.430717	-0.022554	0.285495
C88	C	0.069283	0.477446	0.785495
C89	C	-0.430709	0.032050	0.285490
C90	C	0.069291	0.532050	0.785490
C91	C	-0.380178	0.059329	0.252105
C92	C	0.119822	0.559329	0.752105
C93	C	-0.430653	0.479789	0.285424
C94	C	0.069347	0.979789	0.785424
C95	C	-0.430647	0.534395	0.285411
C96	C	0.069353	1.034395	0.785411
C97	C	-0.329604	0.534347	0.218644
C98	C	0.170396	1.034347	0.718644
C99	C	-0.329612	0.479747	0.218655
C100	C	0.170388	0.979747	0.718655
C101	C	-0.380140	0.452469	0.252050
C102	C	0.119860	0.952469	0.752050
O103	O	-0.286702	0.393346	0.190290
O104	O	0.213298	0.893346	0.690290
O105	O	-0.473617	0.393385	0.313838
O106	O	0.026383	0.893385	0.813838
Zn107	Zn	0.185776	0.799250	0.208255
Zn108	Zn	0.685776	1.299250	0.708255
Zn109	Zn	0.185800	0.712028	0.295825
Zn110	Zn	0.685800	1.212028	0.795825
Zn111	Zn	0.053939	0.799451	0.295683
Zn112	Zn	0.553939	1.299451	0.795683
Zn113	Zn	0.053885	0.711848	0.208426
Zn114	Zn	0.553885	1.211848	0.708426
O115	O	0.119850	0.755644	0.252047
O116	O	0.619850	1.255644	0.752047
O117	O	0.296160	0.787671	0.219859
O118	O	0.796160	1.287671	0.719859
O119	O	0.168341	0.723784	0.368971
O120	O	0.668341	1.223784	0.868971
O121	O	0.071439	0.872589	0.283954
O122	O	0.571439	1.372589	0.783954
O123	O	0.296178	0.723590	0.284196
O124	O	0.796178	1.223590	0.784196
O125	O	0.168300	0.872442	0.219722
O126	O	0.668300	1.372442	0.719722
O127	O	0.071463	0.788013	0.368867
O128	O	0.571463	1.288013	0.868867
O129	O	-0.056450	0.787838	0.284120
O130	O	0.443550	1.287838	0.784120
O131	O	0.071348	0.723283	0.135239
O132	O	0.571348	1.223283	0.635239
O133	O	-0.056489	0.723477	0.220013
O134	O	0.443511	1.223477	0.720013
O135	O	0.168247	0.787497	0.135113
O136	O	0.668247	1.287497	0.635113
O137	O	0.168289	0.638839	0.284362
O138	O	0.668289	1.138839	0.784362
O139	O	0.071371	0.638707	0.220151
O140	O	0.571371	1.138707	0.720151
C141	C	-0.380137	0.755648	0.388436
C142	C	0.119863	1.255648	0.888436
C143	C	-0.380131	0.755656	0.446550
C144	C	0.119869	1.255656	0.946550
C145	C	-0.380182	0.892004	0.252099
C146	C	0.119818	1.392004	0.752099
C147	C	-0.380196	0.950119	0.252114
C148	C	0.119804	1.450119	0.752114
C149	C	-0.380107	0.755645	0.116221
C150	C	0.119893	1.255645	0.616221
C151	C	-0.379891	0.755739	0.058107
C152	C	0.120109	1.255739	0.558107
C153	C	-0.329539	0.789143	0.806930
C154	C	0.170461	1.289143	1.306930
C155	C	-0.329517	0.789150	0.861534
C156	C	0.170483	1.289150	1.361534
O157	O	-0.286595	0.817580	0.889785
O158	O	0.213405	1.317580	1.389785
N159	N	-0.379946	0.755713	0.888833
N160	N	0.120054	1.255713	1.388833
C161	C	-0.430394	0.722264	0.861524
C162	C	0.069606	1.222264	1.361524
O163	O	-0.473285	0.693824	0.889758
O164	O	0.026715	1.193824	1.389758
C165	C	-0.430411	0.722255	0.806921
C166	C	0.069589	1.222255	1.306921
C167	C	-0.379985	0.755698	0.779625
C168	C	0.120015	1.255698	1.279625
C169	C	-0.279115	0.822583	0.779634
C170	C	0.220885	1.322583	1.279634
C171	C	-0.279138	0.822577	0.725033
C172	C	0.220862	1.322577	1.225033
C173	C	-0.329585	0.789132	0.697729
C174	C	0.170415	1.289132	1.197729
C175	C	-0.380008	0.755692	0.725025
C176	C	0.119992	1.255692	1.225025
C177	C	-0.480855	0.688804	0.779613
C178	C	0.019145	1.188804	1.279613
C179	C	-0.480868	0.688798	0.725006
C180	C	0.019132	1.188798	1.225006
C181	C	-0.430441	0.722241	0.697711
C182	C	0.069559	1.222241	1.197711
C183	C	-0.430477	0.722241	0.643119
C184	C	0.069523	1.222241	1.143119
N185	N	-0.380048	0.755677	0.615821
N186	N	0.119952	1.255677	1.115821
C187	C	-0.329602	0.789123	0.643125
C188	C	0.170398	1.289123	1.143125
C189	C	-0.430353	0.722284	0.976195
C190	C	0.069647	1.222284	1.476195
C191	C	-0.430340	0.722295	1.030797
C192	C	0.069660	1.222295	1.530797
C193	C	-0.329462	0.789180	1.030803
C194	C	0.170538	1.289180	1.530803
C195	C	-0.329479	0.789172	0.976200
C196	C	0.170521	1.289172	1.476200
C197	C	-0.379924	0.755721	0.948896
C198	C	0.120076	1.255721	1.448896
C199	C	-0.329655	0.789108	0.528460
C200	C	0.170345	1.289108	1.028460
C201	C	-0.329684	0.789101	0.473855
C202	C	0.170316	1.289101	0.973855
C203	C	-0.430560	0.722214	0.473854
C204	C	0.069440	1.222214	0.973854
C205	C	-0.430533	0.722223	0.528454
C206	C	0.069467	1.222223	1.028454
C207	C	-0.380074	0.755672	0.555756
C208	C	0.119926	1.255672	1.055756
O209	O	-0.473375	0.693824	0.614834
O210	O	0.026625	1.193824	1.114834
O211	O	-0.286711	0.817553	0.614885
O212	O	0.213289	1.317553	1.114885
C213	C	0.119829	0.619802	0.252292
C214	C	0.619829	1.119802	0.752292
C215	C	0.119843	0.561688	0.252412
C216	C	0.619843	1.061688	0.752412
C217	C	0.119789	0.755347	0.115674
C218	C	0.619789	1.255347	0.615674
C219	C	0.119763	0.755221	0.057560
C220	C	0.619763	1.255221	0.557560
C221	C	0.119873	0.892017	0.251803
C222	C	0.619873	1.392017	0.751803
C223	C	0.119883	0.950131	0.251699
C224	C	0.619883	1.450131	0.751699
C225	C	0.119954	0.755976	0.387889
C226	C	0.619954	1.255976	0.887889
C227	C	0.120128	0.756247	0.446003
C228	C	0.620128	1.256247	0.946003
C229	C	0.170356	0.534481	0.285872
C230	C	0.670356	1.034481	0.785872
C231	C	0.170385	0.479877	0.285985
C232	C	0.670385	0.979877	0.785985
C233	C	0.119896	0.452481	0.252639
C234	C	0.619896	0.952481	0.752639
C235	C	0.069380	0.479691	0.219175
C236	C	0.569380	0.979691	0.719175
C237	C	0.069356	0.534294	0.219060
C238	C	0.569356	1.034294	0.719060
C239	C	0.170201	0.788598	0.030201
C240	C	0.670201	1.288598	0.530201
C241	C	0.170177	0.788490	-0.024403
C242	C	0.670177	1.288490	0.475597
C243	C	0.119717	0.755001	-0.051647
C244	C	0.619717	1.255001	0.448353
C245	C	0.069273	0.721622	-0.024284
C246	C	0.569273	1.221622	0.475716
C247	C	0.069294	0.721733	0.030319
C248	C	0.569294	1.221733	0.530319
C249	C	0.069451	0.977501	0.285093
C250	C	0.569451	1.477501	0.785093
C251	C	0.069445	1.032105	0.284995
C252	C	0.569445	1.532105	0.784995
C253	C	0.119875	1.059338	0.251506
C254	C	0.619875	1.559338	0.751506
C255	C	0.170308	1.031964	0.218109
C256	C	0.670308	1.531964	0.718109
C257	C	0.170310	0.977361	0.218204
C258	C	0.670310	1.477361	0.718204
C259	C	0.069405	0.789575	0.473217
C260	C	0.569405	1.289575	0.973217
C261	C	0.069569	0.789840	0.527821
C262	C	0.569569	1.289840	1.027821
C263	C	0.120452	0.756774	0.555209
C264	C	0.620452	1.256774	1.055209
C265	C	0.171180	0.723444	0.527991
C266	C	0.671180	1.223444	1.027991
C267	C	0.171020	0.723182	0.473388
C268	C	0.671020	1.223182	0.973388
H269	H	-0.471792	0.556636	0.312593
H270	H	0.028208	1.056636	0.812593
H271	H	0.212323	0.696040	0.451235
H272	H	0.712323	1.196040	0.951235
Cl273	Cl	0.005882	0.679766	0.064707
Cl274	Cl	0.505882	1.179766	0.564707
Cl275	Cl	-0.494223	-0.056859	0.327472
Cl276	Cl	0.005777	0.443141	0.827472
H277	H	0.119926	0.408019	0.252736
H278	H	0.619926	0.908019	0.752736
H279	H	0.028217	0.556442	0.191814
H280	H	0.528217	1.056442	0.691814
Cl281	Cl	0.005787	0.831741	0.562027
Cl282	Cl	0.505787	1.331741	1.062027
Cl283	Cl	-0.494176	0.445506	0.327406
Cl284	Cl	0.005824	0.945506	0.827406
H285	H	0.119866	1.103800	0.251434
H286	H	0.619866	1.603800	0.751434
Cl287	Cl	0.233838	0.568911	0.327796
Cl288	Cl	0.733838	1.068911	0.827796
H289	H	0.119707	0.754916	-0.096109
H290	H	0.619707	1.254916	0.403891
H291	H	-0.288620	0.816336	0.451633
H292	H	0.211380	1.316336	0.951633
H293	H	0.211297	0.815868	0.052376
H294	H	0.711297	1.315868	0.552376
H295	H	0.120574	0.756992	0.599670
H296	H	0.620574	1.256992	1.099670
H297	H	0.028274	0.457377	0.192026
H298	H	0.528274	0.957377	0.692026
H299	H	-0.288472	0.556569	0.191460
H300	H	0.211528	1.056569	0.691460
Cl301	Cl	-0.493931	0.680183	0.562770
Cl302	Cl	0.006069	1.180183	1.062770
H303	H	-0.288564	0.816344	0.550683
H304	H	0.211436	1.316344	1.050683
H305	H	0.212607	0.696522	0.550299
H306	H	0.712607	1.196522	1.050299
H307	H	0.027976	0.816508	0.450925
H308	H	0.527976	1.316508	0.950925
H309	H	-0.288543	-0.044836	0.191540
H310	H	0.211457	0.455164	0.691540
Cl311	Cl	0.233600	0.830454	-0.058791
Cl312	Cl	0.733600	1.330454	0.441209
Cl313	Cl	-0.493749	0.680259	1.065105
Cl314	Cl	0.006251	1.180259	1.565105
Cl315	Cl	0.233722	0.942959	0.176223
Cl316	Cl	0.733722	1.442959	0.676223
Cl317	Cl	-0.493972	0.680169	0.439517
Cl318	Cl	0.006028	1.180169	0.939517
H319	H	0.028190	0.694357	-0.046474
H320	H	0.528190	1.194357	0.453526
H321	H	0.028386	0.955335	0.312366
H322	H	0.528386	1.455335	0.812366
Cl323	Cl	0.233705	1.066207	0.176014
Cl324	Cl	0.733705	1.566207	0.676014
Cl325	Cl	-0.544723	0.194355	0.360823
Cl326	Cl	-0.044723	0.694355	0.860823
Cl327	Cl	-0.544709	0.317578	0.360806
Cl328	Cl	-0.044709	0.817578	0.860806
H329	H	-0.471848	0.054290	0.312671
H330	H	0.028152	0.554290	0.812671
H331	H	0.211521	0.457730	0.313237
H332	H	0.711521	0.957730	0.813237
Cl333	Cl	-0.266140	0.066294	0.176745
Cl334	Cl	0.233860	0.566294	0.676745
H335	H	-0.238074	0.849808	0.702814
H336	H	0.261926	1.349808	1.202814
Cl337	Cl	-0.266110	0.445400	0.176684
Cl338	Cl	0.233890	0.945400	0.676684
Cl339	Cl	0.006041	1.066507	0.326986
Cl340	Cl	0.506041	1.566507	0.826986
H341	H	-0.238032	0.849818	0.801860
H342	H	0.261968	1.349818	1.301860
H343	H	-0.237966	0.206328	0.158138
H344	H	0.262034	0.706328	0.658138
H345	H	-0.288416	0.816403	0.953979
H346	H	0.211584	1.316403	1.453979
Cl347	Cl	-0.215572	0.317460	0.143346
Cl348	Cl	0.284428	0.817460	0.643346
H349	H	-0.288384	0.816412	1.053045
H350	H	0.211616	1.316412	1.553045
Cl351	Cl	-0.493783	0.680232	0.941876
Cl352	Cl	0.006217	1.180232	1.441876
Cl353	Cl	-0.544256	0.646761	0.813915
Cl354	Cl	-0.044256	1.146761	1.313915
H355	H	-0.521939	0.661552	0.702779
H356	H	-0.021939	1.161552	1.202779
