data_functionalizedCrystal
_audit_creation_method	'MofGen! by Chris Wilmer'
_symmetry_space_group_name_H-M	'P1'
_symmetry_Int_Tables_number	1
_symmetry_cell_setting	triclinic
loop_
_symmetry_equiv_pos_as_xyz
  x,y,z
_cell_length_a	17.077404
_cell_length_b	29.839131
_cell_length_c	17.077396
_cell_angle_alpha	89.968087
_cell_angle_beta	89.980499
_cell_angle_gamma	90.041645
loop_
_atom_site_label
_atom_site_type_symbol
_atom_site_fract_x
_atom_site_fract_y
_atom_site_fract_z
Zn1	Zn	1.199954	-0.178851	-0.443824
Zn2	Zn	1.199818	-0.253981	-0.312550
Zn3	Zn	1.068685	-0.178866	-0.312572
Zn4	Zn	1.068611	-0.253955	-0.443774
O5	O	1.134267	-0.216413	-0.378180
O6	O	1.309782	-0.188821	-0.426422
O7	O	1.182398	-0.244035	-0.202706
O8	O	1.086186	-0.115997	-0.330013
O9	O	1.309683	-0.244020	-0.329976
O10	O	1.182628	-0.115986	-0.426443
O11	O	1.086055	-0.188848	-0.202722
O12	O	0.958829	-0.188822	-0.329964
O13	O	1.086059	-0.243974	-0.553627
O14	O	0.958774	-0.243989	-0.426358
O15	O	1.182556	-0.188796	-0.553664
O16	O	1.182325	-0.316845	-0.329927
O17	O	1.085928	-0.316825	-0.426336
C18	C	0.930319	-0.216405	-0.378158
C19	C	0.843069	-0.216412	-0.378168
C20	C	1.134125	-0.333136	-0.378141
C21	C	1.134136	-0.383070	-0.378151
C22	C	0.802071	-0.245181	-0.428279
C23	C	0.720091	-0.245182	-0.428292
C24	C	0.679110	-0.216416	-0.378188
C25	C	0.720114	-0.187644	-0.328074
C26	C	0.802093	-0.187641	-0.328066
C27	C	0.549244	-0.187653	-0.328093
C28	C	0.467259	-0.187657	-0.328100
C29	C	0.467242	-0.245194	-0.428319
C30	C	0.549221	-0.245191	-0.428311
C31	C	0.590219	-0.216420	-0.378196
C32	C	1.184552	-0.692711	-0.328053
C33	C	1.184649	-0.880384	-0.328083
O34	O	1.227402	-0.904647	-0.285459
N35	N	1.134430	-0.903855	-0.378239
C36	C	1.084186	-0.880405	-0.428394
O37	O	1.041479	-0.904675	-0.471061
C38	C	1.084094	-0.692733	-0.428367
C39	C	1.134311	-0.669264	-0.378203
C40	C	1.234766	-0.669242	-0.277893
C41	C	1.234738	-0.622327	-0.277883
C42	C	1.184497	-0.598880	-0.328033
C43	C	1.134283	-0.622349	-0.378193
C44	C	1.033855	-0.669284	-0.478526
C45	C	1.033837	-0.622363	-0.478516
C46	C	1.084055	-0.598894	-0.428352
C47	C	1.084014	-0.551987	-0.428332
N48	N	1.134233	-0.528516	-0.378177
C49	C	1.184475	-0.551962	-0.328027
C50	C	1.084237	-0.978936	-0.428404
C51	C	1.084259	-1.025854	-0.428410
C52	C	1.184723	-1.025829	-0.328100
C53	C	1.184697	-0.978911	-0.328090
C54	C	1.134457	-0.955465	-0.378248
C55	C	1.184412	-0.453437	-0.328009
C56	C	1.184378	-0.406517	-0.328001
C57	C	1.083917	-0.406545	-0.428314
C58	C	1.083948	-0.453461	-0.428319
C59	C	1.134202	-0.476905	-0.378164
O60	O	1.041290	-0.527695	-0.470941
O61	O	1.227188	-0.527685	-0.285378
C62	C	1.184580	-0.739627	-0.328063
C63	C	1.134366	-0.763095	-0.378223
C64	C	1.084125	-0.739649	-0.428373
C65	C	1.134388	-0.810013	-0.378229
C66	C	1.184630	-0.833460	-0.328079
C67	C	1.234849	-0.809989	-0.277923
C68	C	1.234822	-0.763073	-0.277913
C69	C	1.033905	-0.763120	-0.478529
C70	C	1.033937	-0.810035	-0.478534
C71	C	1.084178	-0.833482	-0.428384
C72	C	1.339011	-0.216422	-0.378202
C73	C	1.426261	-0.216425	-0.378212
C74	C	1.134314	-0.216380	-0.582924
C75	C	1.134335	-0.216366	-0.670174
C76	C	1.134431	-0.099235	-0.378236
C77	C	1.134500	-0.049300	-0.378260
C78	C	1.184582	-0.187632	-0.711185
C79	C	1.184592	-0.187617	-0.793165
C80	C	1.134357	-0.216339	-0.834134
C81	C	1.084104	-0.245074	-0.793117
C82	C	1.084091	-0.245086	-0.711138
C83	C	1.084135	-0.245047	-0.963987
C84	C	1.084149	-0.245035	-1.045972
C85	C	1.184636	-0.187578	-1.046014
C86	C	1.184624	-0.187590	-0.964035
C87	C	1.134371	-0.216326	-0.923025
C88	C	1.134265	-0.216414	-0.174232
C89	C	1.134397	-0.216301	-0.086983
H90	H	0.835432	-0.268607	-0.469077
H91	H	1.225534	-0.164205	-0.930681
C92	C	1.229258	-0.162030	-1.171697
C93	C	1.239862	-0.155983	-1.091090
H94	H	1.263347	-0.142523	-1.199526
H95	H	1.240714	-0.192208	-1.185122
H96	H	1.176522	-0.155453	-1.185111
H97	H	1.292597	-0.162563	-1.077675
H98	H	1.228412	-0.125798	-1.077660
C99	C	0.641457	-0.251503	-0.533864
C100	C	0.594269	-0.276810	-0.483386
H101	H	0.669271	-0.271023	-0.567863
H102	H	0.609510	-0.231957	-0.563954
H103	H	0.677603	-0.234370	-0.504007
H104	H	0.558120	-0.293940	-0.513243
H105	H	0.626219	-0.296363	-0.453293
H106	H	1.043242	-0.268422	-1.079326
C107	C	0.927771	-0.162088	-0.283559
C108	C	0.847162	-0.156018	-0.272983
H109	H	0.955593	-0.142561	-0.249556
H110	H	0.941163	-0.192260	-0.271969
H111	H	0.941227	-0.155551	-0.336324
H112	H	0.833706	-0.162558	-0.220219
H113	H	0.833765	-0.125839	-0.284567
C114	C	0.341570	-0.270744	-0.472847
C115	C	0.422180	-0.276817	-0.483412
H116	H	0.313750	-0.290265	-0.506861
H117	H	0.328105	-0.277281	-0.420093
H118	H	0.328186	-0.240566	-0.484437
H119	H	0.435565	-0.306994	-0.471817
H120	H	0.435650	-0.270284	-0.536179
H121	H	1.275756	-0.829087	-0.237087
C122	C	1.073096	-0.305526	-0.618903
C123	C	1.028864	-0.276672	-0.666048
H124	H	1.038998	-0.325022	-0.591062
H125	H	1.107268	-0.322707	-0.650882
H126	H	1.103011	-0.288414	-0.582781
H127	H	0.998953	-0.293783	-0.702174
H128	H	0.994679	-0.259489	-0.634066
C129	C	1.222916	-0.111565	-0.685992
C130	C	1.239801	-0.156059	-0.666156
H131	H	1.257003	-0.092072	-0.658191
H132	H	1.230116	-0.107450	-0.740679
H133	H	1.170180	-0.104997	-0.672545
H134	H	1.292536	-0.162628	-0.679608
H135	H	1.232607	-0.160176	-0.611457
C136	C	1.195590	-0.127164	-0.885367
C137	C	1.239822	-0.156026	-0.838237
H138	H	1.229688	-0.107657	-0.913185
H139	H	1.165687	-0.144266	-0.921501
H140	H	1.161408	-0.109991	-0.853374
H141	H	1.274001	-0.173202	-0.870230
H142	H	1.269739	-0.138923	-0.802098
H143	H	0.433895	-0.164227	-0.287311
H144	H	1.275713	-0.743969	-0.237065
C145	C	0.984836	-0.301858	-0.972176
C146	C	1.028915	-0.276644	-0.918907
H147	H	0.950757	-0.321370	-0.944343
H148	H	0.954826	-0.282282	-1.004144
H149	H	1.019032	-0.319028	-1.004159
H150	H	0.994719	-0.259471	-0.886927
H151	H	1.058927	-0.296222	-0.886925
C152	C	0.541030	-0.130788	-0.229014
C153	C	0.594311	-0.156032	-0.272997
H154	H	0.568855	-0.111272	-0.194995
H155	H	0.509097	-0.113625	-0.263269
H156	H	0.509014	-0.150347	-0.198938
H157	H	0.626324	-0.136473	-0.303078
H158	H	0.626257	-0.173196	-0.238738
H159	H	1.225632	-1.044928	-0.287266
H160	H	0.686741	-0.164221	-0.287283
H161	H	1.043199	-0.268458	-0.826480
H162	H	0.992958	-0.688384	-0.519372
H163	H	0.686714	-0.268609	-0.469097
H164	H	1.225271	-0.387410	-0.287148
H165	H	1.225336	-0.472520	-0.287169
C166	C	1.039289	-0.334630	-0.472837
C167	C	1.028697	-0.380766	-0.483441
H168	H	1.005204	-0.318715	-0.506878
H169	H	1.027820	-0.326972	-0.420090
H170	H	1.092026	-0.326914	-0.484366
H171	H	0.975961	-0.388483	-0.471906
H172	H	1.040160	-0.388428	-0.536199
H173	H	1.275632	-0.603222	-0.237037
C174	C	0.934637	-0.805335	-0.577698
C175	C	0.978734	-0.835829	-0.533682
H176	H	0.900567	-0.821258	-0.611749
H177	H	0.904618	-0.787070	-0.543465
H178	H	0.968824	-0.787000	-0.607741
H179	H	0.944548	-0.854161	-0.503635
H180	H	1.008755	-0.854101	-0.567920
H181	H	1.275683	-0.688328	-0.237055
H182	H	1.225588	-0.959805	-0.287243
H183	H	1.043360	-1.044958	-0.469252
C184	C	0.984925	-0.983683	-0.527547
C185	C	1.028998	-0.953168	-0.483534
H186	H	0.950817	-0.967775	-0.561575
H187	H	1.019118	-1.001949	-0.557607
H188	H	0.954939	-1.002014	-0.493305
H189	H	1.058988	-0.934839	-0.517775
H190	H	0.994801	-0.934894	-0.453471
H191	H	0.992926	-0.603275	-0.519363
H192	H	1.043059	-0.472570	-0.469170
H193	H	0.992994	-0.744033	-0.519368
