data_functionalizedCrystal
_audit_creation_method	'MofGen! by Chris Wilmer'
_symmetry_space_group_name_H-M	'P1'
_symmetry_Int_Tables_number	1
_symmetry_cell_setting	triclinic
loop_
_symmetry_equiv_pos_as_xyz
  x,y,z
_cell_length_a	6.817900
_cell_length_b	15.185311
_cell_length_c	16.255661
_cell_angle_alpha	95.125321
_cell_angle_beta	103.488922
_cell_angle_gamma	104.261569
loop_
_atom_site_label
_atom_site_type_symbol
_atom_site_fract_x
_atom_site_fract_y
_atom_site_fract_z
V1	V	-4.030591	-0.126490	-0.264121
O2	O	-4.014027	0.005323	-0.258838
O3	O	-3.985933	-0.250083	-0.262560
O4	O	-3.982104	-0.124876	-0.379201
O5	O	-4.017883	-0.120750	-0.141389
V6	V	-4.513745	-0.110685	-0.249411
O7	O	-4.292658	-0.161161	-0.296387
O8	O	-4.701876	-0.076014	-0.217145
O9	O	-4.335197	0.012907	-0.250972
O10	O	-4.647706	-0.242498	-0.254694
O11	O	-4.643850	-0.116425	-0.372143
O12	O	-4.339026	-0.112299	-0.134331
C13	C	-3.831847	-0.280201	-0.258457
C14	C	-3.876620	-0.381242	-0.257948
C15	C	-4.025416	-0.795280	-0.178292
C16	C	-4.106671	-0.821656	-0.333354
C17	C	-4.064577	-0.726722	-0.333828
C18	C	-4.002902	-0.666062	-0.256532
C19	C	-3.983322	-0.700337	-0.178763
C20	C	-4.084173	-0.692440	-0.411596
C21	C	-4.042080	-0.597501	-0.412073
C22	C	-3.980390	-0.536839	-0.334776
C23	C	-3.960808	-0.571119	-0.257003
C24	C	-3.899134	-0.510460	-0.179707
C25	C	-3.879537	-0.544737	-0.101934
C26	C	-3.921632	-0.639675	-0.101466
C27	C	-3.938295	-0.441901	-0.335244
C28	C	-3.857040	-0.415516	-0.180179
C29	C	-3.826961	-0.120487	-0.407243
C30	C	-3.868625	-0.119985	-0.501323
C31	C	-3.778998	-0.113989	-0.724130
C32	C	-3.937787	-0.191378	-0.793759
C33	C	-3.944981	-0.119044	-0.673570
C34	C	-3.860455	-0.040769	-0.771576
C35	C	-4.018721	-0.118131	-0.839951
C36	C	-4.103254	-0.196502	-0.741969
C37	C	-4.025858	-0.045825	-0.719771
C38	C	-4.184784	-0.123236	-0.789380
C39	C	-3.902496	-0.119571	-0.577721
C40	C	-4.061223	-0.117611	-0.935799
C41	C	-4.152625	0.043021	-0.255073
C42	C	-4.087090	0.144061	-0.255587
C43	C	-4.157511	-0.116691	-0.106285
C44	C	-4.095085	-0.117189	-0.012204
H45	H	-4.009455	-0.823193	-0.114970
C46	C	-4.417122	-0.128544	-0.827695
H47	H	-4.503349	-0.183881	-0.817793
H48	H	-4.449090	-0.077357	-0.801370
H49	H	-4.442268	-0.127690	-0.887574
H50	H	-3.806808	-0.366132	-0.117234
H51	H	-3.829328	-0.495336	-0.039000
C52	C	-4.174515	-0.888377	-0.418372
H53	H	-4.196771	-0.949827	-0.406953
H54	H	-4.300899	-0.881199	-0.453016
H55	H	-4.067698	-0.875277	-0.447595
C56	C	-3.900099	-0.677383	-0.015926
H57	H	-3.934025	-0.742613	-0.026718
H58	H	-3.759917	-0.653447	0.018565
H59	H	-3.993119	-0.659368	0.013142
C60	C	-4.241377	-0.285511	-0.723963
H61	H	-4.325742	-0.322313	-0.776632
H62	H	-4.154480	-0.318652	-0.693628
H63	H	-4.329153	-0.270478	-0.690530
H64	H	-4.134414	-0.741836	-0.474526
H65	H	-4.058035	-0.569601	-0.475400
H66	H	-4.062565	0.015716	-0.687541
C67	C	-3.959844	-0.404198	-0.420783
H68	H	-4.002598	-0.453921	-0.466749
H69	H	-4.061698	-0.370670	-0.426896
H70	H	-3.828502	-0.364752	-0.421483
H71	H	-3.607127	-0.110180	-0.695642
H72	H	-3.901002	-0.252916	-0.825966
H73	H	-3.758202	0.025030	-0.785056
