data_functionalizedCrystal
_audit_creation_method	'MofGen! by Chris Wilmer'
_symmetry_space_group_name_H-M	'P1'
_symmetry_Int_Tables_number	1
_symmetry_cell_setting	triclinic
loop_
_symmetry_equiv_pos_as_xyz
  x,y,z
_cell_length_a	15.995350
_cell_length_b	23.532407
_cell_length_c	15.072220
_cell_angle_alpha	89.994175
_cell_angle_beta	89.991149
_cell_angle_gamma	83.170526
loop_
_atom_site_label
_atom_site_type_symbol
_atom_site_fract_x
_atom_site_fract_y
_atom_site_fract_z
O1	O	1.110385	0.073404	-0.073717
O2	O	0.866535	0.082469	-0.073736
O3	O	0.995813	-0.004967	-0.073710
O4	O	0.981107	0.160840	-0.073743
O5	O	0.995781	-0.004962	0.073856
O6	O	0.866503	0.082474	0.073829
O7	O	1.110354	0.073409	0.073848
Zn8	Zn	0.988423	0.077942	0.097268
Zn9	Zn	0.988465	0.077935	-0.097155
O10	O	0.981075	0.160845	0.073822
C11	C	0.835327	0.082096	0.000044
C12	C	0.742386	0.080973	0.000038
C13	C	0.404672	0.076938	0.000057
C14	C	0.452624	0.014668	0.000399
C15	C	0.549305	0.015792	0.000060
C16	C	0.572216	0.078939	0.000048
C17	C	0.530892	0.109650	-0.084222
C18	C	0.434269	0.108086	-0.084286
C19	C	0.433883	0.109378	0.083523
C20	C	0.530828	0.109363	0.084631
C21	C	0.666904	0.080074	0.000040
C22	C	0.309984	0.075805	0.000059
C23	C	0.995423	-0.026182	0.000075
C24	C	0.994297	-0.089404	0.000082
C25	C	1.063739	-0.488239	0.000039
C26	C	1.062693	-0.547644	0.000032
O27	O	1.127067	-0.584141	0.000004
N28	N	0.985837	-0.570566	0.000027
C29	C	0.910022	-0.534080	0.000019
O30	O	0.844554	-0.559031	0.000013
C31	C	0.911069	-0.474677	0.000019
C32	C	0.987930	-0.451758	0.000034
C33	C	1.140594	-0.465320	0.000052
C34	C	1.141640	-0.405920	0.000061
C35	C	1.065830	-0.369439	0.000056
C36	C	0.988975	-0.392358	0.000042
C37	C	0.835255	-0.438192	0.000005
C38	C	0.836308	-0.378785	0.000005
C39	C	0.913169	-0.355867	0.000020
C40	C	0.914212	-0.296477	0.000046
N41	N	0.991068	-0.273555	0.000051
C42	C	1.066877	-0.310036	0.000056
C43	C	0.907829	-0.658831	0.000016
C44	C	0.906781	-0.718233	0.000022
C45	C	1.059453	-0.731793	0.000034
C46	C	1.060500	-0.672389	0.000034
C47	C	0.984685	-0.635909	0.000022
C48	C	1.069067	-0.185291	0.000075
C49	C	1.070106	-0.125885	0.000087
C50	C	0.917435	-0.112330	0.000071
C51	C	0.916396	-0.171731	0.000063
C52	C	0.992219	-0.208210	0.000062
O53	O	0.849872	-0.259945	0.000070
O54	O	1.132335	-0.285076	0.000051
C55	C	1.141561	0.073781	0.000066
C56	C	1.234502	0.074905	0.000067
C57	C	0.981465	0.182060	0.000035
C58	C	0.982591	0.245281	0.000023
N59	N	0.988401	0.077946	0.229957
N60	N	0.988494	0.077927	-0.229844
C61	C	0.988463	0.077933	0.589158
C62	C	0.919059	0.124562	0.551537
C63	C	0.919216	0.124732	0.448711
C64	C	0.988431	0.077940	0.410954
C65	C	1.075688	0.090918	0.448249
C66	C	1.075299	0.091250	0.551107
C67	C	0.971391	0.018188	0.551269
C68	C	0.969383	0.018587	0.448405
C69	C	0.988419	0.077942	0.310241
C70	C	0.988482	0.077932	0.689872
H71	H	0.401641	0.153804	-0.088119
H72	H	0.774569	-0.349085	-0.000006
H73	H	1.128547	0.057860	0.423791
C74	C	1.095718	0.150112	0.583501
C75	C	1.179974	0.171313	0.558107
C76	C	1.200391	0.230177	0.590495
C77	C	1.136553	0.267842	0.648278
C78	C	1.052292	0.246642	0.673676
C79	C	1.031874	0.187777	0.641287
H80	H	1.227235	0.143431	0.515330
H81	H	1.262767	0.245871	0.571694
H82	H	1.151667	0.311417	0.672254
H83	H	1.005030	0.274524	0.716453
H84	H	0.969498	0.172084	0.660089
C85	C	1.152472	-0.225413	0.000081
C86	C	1.215565	-0.222838	0.076721
C87	C	1.298968	-0.262960	0.076734
C88	C	1.319278	-0.305656	0.000108
C89	C	1.256184	-0.308232	-0.076538
C90	C	1.172780	-0.268110	-0.076551
H91	H	1.200531	-0.191231	0.133449
H92	H	1.345674	-0.261053	0.133473
H93	H	1.381018	-0.335356	0.000118
H94	H	1.271217	-0.339839	-0.133266
H95	H	1.126074	-0.270017	-0.133290
C96	C	0.750701	-0.463387	-0.000016
C97	C	0.687847	-0.449618	0.076596
C98	C	0.603286	-0.474809	0.076573
C99	C	0.581580	-0.513771	-0.000062
C100	C	0.644436	-0.527542	-0.076680
C101	C	0.728997	-0.502350	-0.076657
H102	H	0.703914	-0.420775	0.133331
H103	H	0.556757	-0.464615	0.133291
H104	H	0.518983	-0.532419	-0.000079
H105	H	0.628369	-0.556385	-0.133416
H106	H	0.775526	-0.512545	-0.133375
C107	C	0.831128	0.114296	0.584989
C108	C	0.753059	0.154876	0.556559
C109	C	0.665125	0.144610	0.590018
C110	C	0.655260	0.093763	0.651907
C111	C	0.733332	0.053179	0.680340
C112	C	0.821265	0.063445	0.646881
H113	H	0.760359	0.192519	0.510742
H114	H	0.607331	0.174653	0.568970
H115	H	0.590166	0.086163	0.676675
H116	H	0.726031	0.015536	0.726157
H117	H	0.879059	0.033402	0.667929
C118	C	0.427851	-0.018962	0.082031
C119	C	0.363777	0.009705	0.149383
C120	C	0.338993	-0.023927	0.231015
C121	C	0.378284	-0.086225	0.245294
C122	C	0.442363	-0.114895	0.177941
C123	C	0.467146	-0.081263	0.096309
H124	H	0.334688	0.055825	0.138814
H125	H	0.291558	-0.002703	0.280874
H126	H	0.359938	-0.111121	0.305723
H127	H	0.471452	-0.161015	0.188510
H128	H	0.514582	-0.102487	0.046449
H129	H	1.091182	0.133993	0.422473
C130	C	1.147352	0.047391	0.585003
C131	C	1.127769	-0.002793	0.644010
C132	C	1.199932	-0.046517	0.678031
C133	C	1.291678	-0.040058	0.653045
C134	C	1.311266	0.010127	0.594035
C135	C	1.239103	0.053852	0.560014
H136	H	1.059849	-0.007576	0.662509
H137	H	1.185431	-0.083668	0.721714
H138	H	1.345097	-0.072426	0.678230
H139	H	1.379185	0.014911	0.575536
H140	H	1.253603	0.091003	0.516331
H141	H	0.905198	0.008737	0.424031
H142	H	0.909172	0.005708	0.577257
C143	C	1.033286	-0.030489	0.413694
C144	C	1.104203	-0.017470	0.350454
C145	C	1.168114	-0.066545	0.315743
C146	C	1.161108	-0.128638	0.344273
C147	C	1.090188	-0.141660	0.407516
C148	C	1.026277	-0.092585	0.442227
H149	H	1.109393	0.028498	0.329332
H150	H	1.220614	-0.056905	0.268926
H151	H	1.208419	-0.164966	0.318578
H152	H	1.084999	-0.187628	0.428638
H153	H	0.973777	-0.102225	0.489044
C154	C	1.039765	-0.028693	0.584138
C155	C	1.015017	-0.078961	0.639818
C156	C	1.083392	-0.125836	0.672692
C157	C	1.176515	-0.122444	0.649886
C158	C	1.201268	-0.072174	0.594202
C159	C	1.132893	-0.025298	0.561328
H160	H	0.946077	-0.081474	0.656704
H161	H	1.065068	-0.163049	0.713913
H162	H	1.227131	-0.157144	0.674221
H163	H	1.270207	-0.069661	0.577317
H164	H	1.151217	0.011915	0.520108
C165	C	0.587972	-0.016824	0.081662
C166	C	0.683720	-0.022191	0.097334
C167	C	0.722383	-0.054811	0.178937
C168	C	0.665299	-0.082064	0.244868
C169	C	0.569545	-0.076698	0.229198
C170	C	0.530882	-0.044078	0.147595
H171	H	0.725982	-0.002016	0.048526
H172	H	0.793266	-0.058784	0.190536
H173	H	0.693919	-0.106212	0.305276
H174	H	0.527283	-0.096873	0.278006
H175	H	0.459999	-0.040106	0.135995
H176	H	0.853809	-0.190392	0.000076
C177	C	0.831569	0.114297	0.414645
C178	C	0.795047	0.058695	0.439155
C179	C	0.707393	0.048265	0.405097
C180	C	0.656261	0.093437	0.346529
C181	C	0.692783	0.149042	0.322015
C182	C	0.780437	0.159472	0.356074
H183	H	0.832898	0.025253	0.482514
H184	H	0.680358	0.007102	0.423244
H185	H	0.591375	0.085715	0.321317
H186	H	0.654932	0.182484	0.278657
H187	H	0.807472	0.200636	0.337927
C188	C	0.587237	-0.017039	-0.081683
C189	C	0.529545	-0.044359	-0.146858
C190	C	0.567477	-0.077188	-0.228607
C191	C	0.663100	-0.082698	-0.245180
C192	C	0.720798	-0.055377	-0.180003
C193	C	0.682866	-0.022547	-0.098254
H194	H	0.458754	-0.040281	-0.134591
H195	H	0.524765	-0.097413	-0.276855
H196	H	0.691179	-0.107000	-0.305695
H197	H	0.791589	-0.059454	-0.192270
H198	H	0.725578	-0.002322	-0.050006
C199	C	0.933537	0.184116	0.586425
C200	C	0.864993	0.219282	0.641953
C201	C	0.879489	0.278833	0.676842
C202	C	0.962529	0.303217	0.656204
C203	C	1.031078	0.268051	0.600674
C204	C	1.016582	0.208500	0.565784
H205	H	0.803518	0.201231	0.657233
H206	H	0.828744	0.304865	0.717950
H207	H	0.973259	0.347300	0.682032
H208	H	1.092554	0.286102	0.585394
H209	H	1.067328	0.182468	0.524677
C210	C	0.933873	0.184626	0.415439
C211	C	0.945478	0.232449	0.482462
C212	C	0.960137	0.292345	0.449190
C213	C	0.963192	0.304419	0.348897
C214	C	0.951588	0.256594	0.281868
C215	C	0.936928	0.196698	0.315139
H216	H	0.943216	0.223513	0.556711
H217	H	0.968727	0.327748	0.498810
H218	H	0.974044	0.348758	0.324267
H219	H	0.953849	0.265531	0.207619
H220	H	0.928338	0.161295	0.265520
C221	C	0.549451	0.172325	-0.088476
C222	C	0.602472	0.196405	-0.015305
C223	C	0.621032	0.259079	-0.019556
C224	C	0.586570	0.297673	-0.096980
C225	C	0.533545	0.273594	-0.170157
C226	C	0.514986	0.210919	-0.165906
H227	H	0.627986	0.167834	0.042014
H228	H	0.660285	0.276904	0.034615
H229	H	0.600309	0.344068	-0.100127
H230	H	0.508031	0.302164	-0.227476
H231	H	0.475733	0.193094	-0.220077
H232	H	1.123087	-0.653734	0.000045
C233	C	0.551059	0.171576	0.091494
C234	C	0.598612	0.190814	0.172904
C235	C	0.618842	0.253029	0.179757
C236	C	0.591520	0.296006	0.105201
C237	C	0.543965	0.276769	0.023785
C238	C	0.523735	0.214554	0.016932
H239	H	0.618839	0.158999	0.228100
H240	H	0.654046	0.267270	0.240027
H241	H	0.606496	0.342061	0.110274
H242	H	0.523737	0.308583	-0.031411
H243	H	0.488531	0.200313	-0.043338
C244	C	0.390461	0.171401	0.084288
C245	C	0.328801	0.192535	0.009585
C246	C	0.285375	0.254555	0.010342
C247	C	0.303608	0.295441	0.085802
C248	C	0.365271	0.274307	0.160511
C249	C	0.408697	0.212287	0.159754
H250	H	0.315301	0.162269	-0.046280
H251	H	0.239728	0.270200	-0.044963
H252	H	0.271461	0.341352	0.086362
H253	H	0.378771	0.304574	0.216376
H254	H	0.454344	0.196643	0.215059
C255	C	1.154659	-0.100676	0.000098
C256	C	1.217476	-0.114450	0.076726
C257	C	1.302025	-0.089244	0.076734
C258	C	1.323757	-0.050264	0.000115
C259	C	1.260939	-0.036488	-0.076519
C260	C	1.176389	-0.061694	-0.076527
H261	H	1.201389	-0.143308	0.133449
H262	H	1.348527	-0.099442	0.133464
H263	H	1.386346	-0.031605	0.000121
H264	H	1.277025	-0.007631	-0.133242
H265	H	1.129887	-0.051496	-0.133257
H266	H	0.433249	-0.010110	-0.059692
H267	H	1.202331	-0.495018	0.000053
H268	H	0.416160	0.085686	-0.147271
H269	H	0.559457	0.088316	-0.146929
H270	H	0.413503	0.089023	0.147397
H271	H	0.558318	0.086945	0.146973
H272	H	1.204228	-0.387266	0.000069
H273	H	1.121181	-0.761507	0.000034
H274	H	0.844194	-0.736887	0.000026
H275	H	0.846088	-0.629131	0.000014
H276	H	0.855713	-0.082617	0.000070
