data_functionalizedCrystal
_audit_creation_method	'MofGen! by Chris Wilmer'
_symmetry_space_group_name_H-M	'P1'
_symmetry_Int_Tables_number	1
_symmetry_cell_setting	triclinic
loop_
_symmetry_equiv_pos_as_xyz
  x,y,z
_cell_length_a	13.339070
_cell_length_b	13.930277
_cell_length_c	13.262508
_cell_angle_alpha	74.086216
_cell_angle_beta	99.430496
_cell_angle_gamma	90.007456
loop_
_atom_site_label
_atom_site_type_symbol
_atom_site_fract_x
_atom_site_fract_y
_atom_site_fract_z
O1	O	1.344489	-0.057697	0.526822
O2	O	1.049673	-0.039647	0.457673
O3	O	1.204502	-0.009347	0.341620
O4	O	1.189659	-0.087998	0.642874
O5	O	1.204481	-0.169006	0.341611
O6	O	1.049651	-0.199306	0.457663
O7	O	1.344467	-0.217357	0.526812
Zn8	Zn	1.197056	-0.233681	0.492236
Zn9	Zn	1.197084	-0.023323	0.492249
O10	O	1.189638	-0.247657	0.642865
C11	C	1.011924	-0.116428	0.445988
C12	C	0.899476	-0.107339	0.411171
N13	N	1.197044	-0.377245	0.492229
C14	C	0.535815	-0.178002	0.681888
C15	C	0.641465	-0.186539	0.714604
C16	C	0.705973	-0.166740	0.638748
C17	C	0.664821	-0.138401	0.530172
C18	C	0.559161	-0.129856	0.497453
C19	C	0.729319	-0.118594	0.454313
C20	C	0.688167	-0.090255	0.345737
C21	C	0.582517	-0.081712	0.313023
C22	C	0.518009	-0.101511	0.388879
C23	C	0.834979	-0.127140	0.487032
C24	C	0.858325	-0.078994	0.302597
C25	C	0.752675	-0.070456	0.269881
C26	C	1.128523	-0.842929	0.543608
C27	C	1.265673	-0.816080	0.440890
C28	C	1.265661	-0.715582	0.440883
C29	C	1.197080	-0.678754	0.492241
C30	C	1.128511	-0.742423	0.543606
C31	C	1.334236	-0.651908	0.389528
C32	C	1.334228	-0.551404	0.389520
C33	C	1.265641	-0.514572	0.440872
C34	C	1.197068	-0.578248	0.492238
C35	C	1.128486	-0.541420	0.543596
C36	C	1.059908	-0.605093	0.594956
C37	C	1.059924	-0.705592	0.594958
C38	C	1.265625	-0.414073	0.440871
C39	C	1.128474	-0.440914	0.543594
C40	C	1.382216	-0.140574	0.538497
C41	C	1.494663	-0.149657	0.573314
C42	C	1.203661	-0.078902	0.302271
C43	C	1.201176	-0.048288	0.185032
N44	N	1.197104	0.120243	0.492250
C45	C	1.194117	-0.310122	-0.145480
C46	C	1.196444	-0.338887	-0.035330
C47	C	1.197627	-0.266240	0.019766
C48	C	1.196482	-0.164823	-0.035299
C49	C	1.194147	-0.136055	-0.145462
C50	C	1.197657	-0.092172	0.019784
C51	C	1.196512	0.009244	-0.035281
C52	C	1.194178	0.038007	-0.145432
C53	C	1.192994	-0.034640	-0.200528
C54	C	1.199993	-0.120940	0.129947
C55	C	1.200023	0.053127	0.129965
C56	C	1.197696	0.081891	0.019815
C57	C	1.190478	-0.178099	0.682214
C58	C	1.192964	-0.208707	0.799453
H59	H	0.868473	-0.150217	0.575435
H60	H	0.719154	-0.047374	0.181476
H61	H	1.193236	0.120587	-0.190265
O62	O	0.685836	-0.217113	0.831706
H63	H	0.733416	-0.157080	0.851034
H64	H	0.910848	-0.062867	0.240828
O65	O	1.196437	0.191275	-0.039586
H66	H	1.265843	0.224696	-0.007726
O67	O	1.190488	-0.003614	-0.319337
H68	H	1.120931	0.044347	-0.359109
H69	H	1.193146	-0.369260	-0.190351
H70	H	1.200916	-0.203514	0.174769
H71	H	1.199521	-0.289666	0.109455
O72	O	1.201303	0.131495	0.189374
H73	H	1.203131	0.094453	0.275225
O74	O	0.466245	-0.199363	0.763698
H75	H	0.385865	-0.188666	0.722703
H76	H	0.791997	-0.173691	0.665392
H77	H	1.072623	-0.410936	0.585411
H78	H	0.431980	-0.094561	0.362247
O79	O	0.985922	-0.565364	0.650329
H80	H	0.997433	-0.484781	0.641684
H81	H	0.549016	-0.058626	0.224614
H82	H	1.004090	-0.757440	0.636775
H83	H	1.072684	-0.894773	0.585421
O84	O	1.339643	-0.855794	0.385499
H85	H	1.328128	-0.936374	0.394126
O86	O	1.197698	-0.448266	0.024056
H87	H	1.128299	-0.481684	-0.007824
O88	O	1.408205	-0.691625	0.334139
H89	H	1.396683	-0.772203	0.342760
O90	O	1.408178	-0.482726	0.334114
H91	H	1.455861	-0.525219	0.298395
H92	H	1.321465	-0.362237	0.399060
