data_functionalizedCrystal
_audit_creation_method	'MofGen! by Chris Wilmer'
_symmetry_space_group_name_H-M	'P1'
_symmetry_Int_Tables_number	1
_symmetry_cell_setting	triclinic
loop_
_symmetry_equiv_pos_as_xyz
  x,y,z
_cell_length_a	18.215407
_cell_length_b	12.645330
_cell_length_c	18.215399
_cell_angle_alpha	89.976970
_cell_angle_beta	89.980167
_cell_angle_gamma	90.018140
loop_
_atom_site_label
_atom_site_type_symbol
_atom_site_fract_x
_atom_site_fract_y
_atom_site_fract_z
Zn1	Zn	1.125109	-0.422038	-0.416141
Zn2	Zn	1.375109	-0.172038	-0.166141
Zn3	Zn	1.625109	0.077962	0.083859
Zn4	Zn	1.875109	0.327962	0.333859
Zn5	Zn	1.125033	-0.599320	-0.293085
Zn6	Zn	1.375033	-0.349320	-0.043085
Zn7	Zn	1.625033	-0.099320	0.206915
Zn8	Zn	1.875033	0.150680	0.456915
Zn9	Zn	1.002041	-0.422072	-0.293088
Zn10	Zn	1.252041	-0.172072	-0.043088
Zn11	Zn	1.502041	0.077928	0.206912
Zn12	Zn	1.752041	0.327928	0.456912
Zn13	Zn	1.002023	-0.599261	-0.416110
Zn14	Zn	1.252023	-0.349261	-0.166110
Zn15	Zn	1.502023	-0.099261	0.083890
Zn16	Zn	1.752023	0.150739	0.333890
O17	O	1.063551	-0.510673	-0.354606
O18	O	1.313551	-0.260673	-0.104606
O19	O	1.563551	-0.010673	0.145394
O20	O	1.813551	0.239327	0.395394
O21	O	1.228083	-0.445565	-0.399829
O22	O	1.478083	-0.195565	-0.149829
O23	O	1.728083	0.054435	0.100171
O24	O	1.978083	0.304435	0.350171
O25	O	1.108693	-0.575847	-0.190101
O26	O	1.358693	-0.325847	0.059899
O27	O	1.608693	-0.075847	0.309899
O28	O	1.858693	0.174153	0.559899
O29	O	1.018406	-0.273720	-0.309426
O30	O	1.268406	-0.023720	-0.059426
O31	O	1.518406	0.226280	0.190574
O32	O	1.768406	0.476280	0.440574
O33	O	1.228027	-0.575813	-0.309421
O34	O	1.478027	-0.325813	-0.059421
O35	O	1.728027	-0.075813	0.190579
O36	O	1.978027	0.174187	0.440579
O37	O	1.108823	-0.273695	-0.399832
O38	O	1.358823	-0.023695	-0.149832
O39	O	1.608823	0.226305	0.100168
O40	O	1.858823	0.476305	0.350168
O41	O	1.018332	-0.445624	-0.190104
O42	O	1.268332	-0.195624	0.059896
O43	O	1.518332	0.054376	0.309896
O44	O	1.768332	0.304376	0.559896
O45	O	0.899055	-0.445566	-0.309396
O46	O	1.149055	-0.195566	-0.059396
O47	O	1.399055	0.054434	0.190604
O48	O	1.649055	0.304434	0.440604
O49	O	1.018374	-0.575713	-0.519099
O50	O	1.268374	-0.325713	-0.269099
O51	O	1.518374	-0.075713	-0.019099
O52	O	1.768374	0.174287	0.230901
O53	O	0.899041	-0.575746	-0.399780
O54	O	1.149041	-0.325746	-0.149780
O55	O	1.399041	-0.075746	0.100220
O56	O	1.649041	0.174254	0.350220
O57	O	1.108805	-0.445507	-0.519121
O58	O	1.358805	-0.195507	-0.269121
O59	O	1.608805	0.054493	-0.019121
O60	O	1.858805	0.304493	0.230879
O61	O	1.108675	-0.747659	-0.309391
O62	O	1.358675	-0.497659	-0.059391
O63	O	1.608675	-0.247659	0.190609
O64	O	1.858675	0.002341	0.440609
O65	O	1.018300	-0.747616	-0.399777
O66	O	1.268300	-0.497616	-0.149777
O67	O	1.518300	-0.247616	0.100223
O68	O	1.768300	0.002384	0.350223
C69	C	0.872345	-0.510654	-0.354585
C70	C	1.122345	-0.260654	-0.104585
C71	C	1.372345	-0.010654	0.145415
C72	C	1.622345	0.239346	0.395415
C73	C	0.790546	-0.510672	-0.354594
C74	C	1.040546	-0.260672	-0.104594
C75	C	1.290546	-0.010672	0.145406
C76	C	1.540546	0.239328	0.395406
C77	C	0.602364	-0.578563	-0.401597
C78	C	0.852364	-0.328563	-0.151597
C79	C	1.102364	-0.078563	0.098403
C80	C	1.352364	0.171437	0.348403
C81	C	0.525506	-0.578567	-0.401606
C82	C	0.775506	-0.328567	-0.151606
C83	C	1.025506	-0.078567	0.098394
C84	C	1.275506	0.171433	0.348394
C85	C	0.525490	-0.442801	-0.307631
C86	C	0.775490	-0.192801	-0.057631
C87	C	1.025490	0.057199	0.192369
C88	C	1.275490	0.307199	0.442369
C89	C	0.602348	-0.442793	-0.307626
C90	C	0.852348	-0.192793	-0.057626
C91	C	1.102348	0.057207	0.192374
C92	C	1.352348	0.307207	0.442374
C93	C	0.640783	-0.510680	-0.354608
C94	C	0.890783	-0.260680	-0.104608
C95	C	1.140783	-0.010680	0.145392
C96	C	1.390783	0.239320	0.395392
C97	C	0.487067	-0.510692	-0.354622
C98	C	0.737067	-0.260692	-0.104622
C99	C	0.987067	-0.010692	0.145378
C100	C	1.237067	0.239308	0.395378
C101	C	0.403733	-0.510695	-0.354632
C102	C	0.653733	-0.260695	-0.104632
C103	C	0.903733	-0.010695	0.145368
C104	C	1.153733	0.239305	0.395368
C105	C	0.724122	-0.510676	-0.354600
C106	C	0.974122	-0.260676	-0.104600
C107	C	1.224122	-0.010676	0.145400
C108	C	1.474122	0.239324	0.395400
C109	C	1.063498	-0.786102	-0.354596
C110	C	1.313498	-0.536102	-0.104596
C111	C	1.563498	-0.286102	0.145404
C112	C	1.813498	-0.036102	0.395404
C113	C	1.063542	-0.903932	-0.354616
C114	C	1.313542	-0.653932	-0.104616
C115	C	1.563542	-0.403932	0.145384
C116	C	1.813542	-0.153932	0.395384
C117	C	1.006922	-1.071513	-0.411653
C118	C	1.256922	-0.821513	-0.161653
C119	C	1.506922	-0.571513	0.088347
C120	C	1.756922	-0.321513	0.338347
C121	C	1.006632	-0.948954	-0.411470
C122	C	1.256632	-0.698954	-0.161470
C123	C	1.506632	-0.448954	0.088530
C124	C	1.756632	-0.198954	0.338530
C125	C	1.042549	-0.948523	-0.277058
C126	C	1.292549	-0.698523	-0.027058
C127	C	1.542549	-0.448523	0.222942
C128	C	1.792549	-0.198523	0.472942
C129	C	1.042203	-1.071122	-0.277404
C130	C	1.292203	-0.821122	-0.027404
C131	C	1.542203	-0.571122	0.222596
C132	C	1.792203	-0.321122	0.472596
C133	C	1.141502	-1.071022	-0.374509
C134	C	1.391502	-0.821022	-0.124509
C135	C	1.641502	-0.571022	0.125491
C136	C	1.891502	-0.321022	0.375491
C137	C	1.141024	-0.948415	-0.376205
C138	C	1.391024	-0.698415	-0.126205
C139	C	1.641024	-0.448415	0.123795
C140	C	1.891024	-0.198415	0.373795
C141	C	1.255504	-0.510692	-0.354628
C142	C	1.505504	-0.260692	-0.104628
C143	C	1.755504	-0.010692	0.145372
C144	C	2.005504	0.239308	0.395372
C145	C	1.337303	-0.510700	-0.354637
C146	C	1.587303	-0.260700	-0.104637
C147	C	1.837303	-0.010700	0.145363
C148	C	2.087303	0.239300	0.395363
C149	C	1.063596	-0.510600	-0.546559
C150	C	1.313596	-0.260600	-0.296559
C151	C	1.563596	-0.010600	-0.046559
C152	C	1.813596	0.239400	0.203441
C153	C	1.063615	-0.510568	-0.628358
C154	C	1.313615	-0.260568	-0.378358
C155	C	1.563615	-0.010568	-0.128358
C156	C	1.813615	0.239432	0.121642
C157	C	1.063625	-0.234167	-0.354633
C158	C	1.313625	0.015833	-0.104633
C159	C	1.563625	0.265833	0.145367
C160	C	1.813625	0.515833	0.395367
C161	C	1.063657	-0.116337	-0.354644
C162	C	1.313657	0.133663	-0.104644
C163	C	1.563657	0.383663	0.145356
C164	C	1.813657	0.633663	0.395356
C165	C	1.110720	-0.442707	-0.816565
C166	C	1.360720	-0.192707	-0.566565
C167	C	1.610720	0.057293	-0.316565
C168	C	1.860720	0.307293	-0.066565
C169	C	1.110728	-0.442676	-0.893424
C170	C	1.360728	-0.192676	-0.643424
C171	C	1.610728	0.057324	-0.393424
C172	C	1.860728	0.307324	-0.143424
C173	C	1.016563	-0.578266	-0.893389
C174	C	1.266563	-0.328266	-0.643389
C175	C	1.516563	-0.078266	-0.393389
C176	C	1.766563	0.171734	-0.143389
C177	C	1.016551	-0.578290	-0.816532
C178	C	1.266551	-0.328290	-0.566532
C179	C	1.516551	-0.078290	-0.316532
C180	C	1.766551	0.171710	-0.066532
C181	C	1.063634	-0.510513	-0.778122
C182	C	1.313634	-0.260513	-0.528122
C183	C	1.563634	-0.010513	-0.278122
C184	C	1.813634	0.239487	-0.028122
C185	C	1.063654	-0.510457	-0.931838
C186	C	1.313654	-0.260457	-0.681838
C187	C	1.563654	-0.010457	-0.431838
C188	C	1.813654	0.239543	-0.181838
C189	C	1.063663	-0.510424	-1.015172
C190	C	1.313663	-0.260424	-0.765172
C191	C	1.563663	-0.010424	-0.515172
C192	C	1.813663	0.239576	-0.265172
C193	C	1.063624	-0.510544	-0.694783
C194	C	1.313624	-0.260544	-0.444783
C195	C	1.563624	-0.010544	-0.194783
C196	C	1.813624	0.239456	0.055217
C197	C	1.063549	-0.510669	-0.163400
C198	C	1.313549	-0.260669	0.086600
C199	C	1.563549	-0.010669	0.336600
C200	C	1.813549	0.239331	0.586600
C201	C	1.063672	-0.510401	-0.081602
C202	C	1.313672	-0.260401	0.168398
C203	C	1.563672	-0.010401	0.418398
C204	C	1.813672	0.239599	0.668398
H205	H	0.494229	-0.633842	-0.439871
H206	H	0.744229	-0.383842	-0.189871
H207	H	0.994229	-0.133842	0.060129
H208	H	1.244229	0.116158	0.310129
O209	O	0.643827	-0.651759	-0.452279
O210	O	0.893827	-0.401759	-0.202279
O211	O	1.143827	-0.151759	0.047721
O212	O	1.393827	0.098241	0.297721
H213	H	0.629058	-0.734943	-0.439577
H214	H	0.879058	-0.484943	-0.189577
H215	H	1.129058	-0.234943	0.060423
H216	H	1.379058	0.015057	0.310423
O217	O	1.024239	-1.110749	-0.487996
O218	O	1.274239	-0.860749	-0.237996
O219	O	1.524239	-0.610749	0.012004
O220	O	1.774239	-0.360749	0.262004
H221	H	1.035249	-1.042306	-0.524551
H222	H	1.285249	-0.792306	-0.274551
H223	H	1.535249	-0.542306	-0.024551
H224	H	1.785249	-0.292306	0.225449
H225	H	1.183771	-1.100007	-0.332986
H226	H	1.433771	-0.850007	-0.082986
H227	H	1.683771	-0.600007	0.167014
H228	H	1.933771	-0.350007	0.417014
O229	O	0.965787	-0.651368	-0.934822
O230	O	1.215787	-0.401368	-0.684822
O231	O	1.465787	-0.151368	-0.434822
O232	O	1.715787	0.098632	-0.184822
H233	H	0.933037	-0.698513	-0.895175
H234	H	1.183037	-0.448513	-0.645175
H235	H	1.433037	-0.198513	-0.395175
H236	H	1.683037	0.051487	-0.145175
H237	H	1.160652	-1.101868	-0.430103
H238	H	1.410652	-0.851868	-0.180103
H239	H	1.660652	-0.601868	0.069897
H240	H	1.910652	-0.351868	0.319897
O241	O	0.484037	-0.369616	-0.256935
O242	O	0.734037	-0.119616	-0.006935
O243	O	0.984037	0.130384	0.243065
O244	O	1.234037	0.380384	0.493065
H245	H	0.424138	-0.381042	-0.264819
H246	H	0.674138	-0.131042	-0.014819
H247	H	0.924138	0.118958	0.235181
H248	H	1.174138	0.368958	0.485181
O249	O	0.643793	-0.369589	-0.256932
O250	O	0.893793	-0.119589	-0.006932
O251	O	1.143793	0.130411	0.243068
O252	O	1.393793	0.380411	0.493068
H253	H	0.604156	-0.322401	-0.224252
H254	H	0.854156	-0.072401	0.025748
H255	H	1.104156	0.177599	0.275748
H256	H	1.354156	0.427599	0.525748
O257	O	0.965740	-0.651406	-0.775071
O258	O	1.215740	-0.401406	-0.525071
O259	O	1.465740	-0.151406	-0.275071
O260	O	1.715740	0.098594	-0.025071
H261	H	0.978329	-0.734612	-0.789802
H262	H	1.228329	-0.484612	-0.539802
H263	H	1.478329	-0.234612	-0.289802
H264	H	1.728329	0.015388	-0.039802
O265	O	1.023984	-0.909036	-0.487663
O266	O	1.273984	-0.659036	-0.237663
O267	O	1.523984	-0.409036	0.012337
O268	O	1.773984	-0.159036	0.262337
H269	H	1.078954	-0.938059	-0.504547
H270	H	1.328954	-0.688059	-0.254547
H271	H	1.578954	-0.438059	-0.004547
H272	H	1.828954	-0.188059	0.245453
O273	O	0.930949	-1.112421	-0.394444
O274	O	1.180949	-0.862421	-0.144444
O275	O	1.430949	-0.612421	0.105556
O276	O	1.680949	-0.362421	0.355556
H277	H	0.933422	-1.164538	-0.345463
H278	H	1.183422	-0.914538	-0.095463
H279	H	1.433422	-0.664538	0.154537
H280	H	1.683422	-0.414538	0.404537
O281	O	1.161999	-0.909792	-0.451808
O282	O	1.411999	-0.659792	-0.201808
O283	O	1.661999	-0.409792	0.048192
O284	O	1.911999	-0.159792	0.298192
H285	H	1.170377	-0.978640	-0.488645
H286	H	1.420377	-0.728640	-0.238645
H287	H	1.670377	-0.478640	0.011355
H288	H	1.920377	-0.228640	0.261355
H289	H	0.948921	-0.919719	-0.398309
H290	H	1.198921	-0.669719	-0.148309
H291	H	1.448921	-0.419719	0.101691
H292	H	1.698921	-0.169719	0.351691
O293	O	0.966830	-1.109144	-0.255115
O294	O	1.216830	-0.859144	-0.005115
O295	O	1.466830	-0.609144	0.244885
O296	O	1.716830	-0.359144	0.494885
H297	H	0.925509	-1.078823	-0.294631
H298	H	1.175509	-0.828823	-0.044631
H299	H	1.425509	-0.578823	0.205369
H300	H	1.675509	-0.328823	0.455369
O301	O	1.094551	-1.110417	-0.219213
O302	O	1.344551	-0.860417	0.030787
O303	O	1.594551	-0.610417	0.280787
O304	O	1.844551	-0.360417	0.530787
H305	H	1.119997	-1.041851	-0.190946
H306	H	1.369997	-0.791851	0.059054
H307	H	1.619997	-0.541851	0.309054
H308	H	1.869997	-0.291851	0.559054
H309	H	1.149055	-0.387515	-0.785294
H310	H	1.399055	-0.137515	-0.535294
H311	H	1.649055	0.112485	-0.285294
H312	H	1.899055	0.362485	-0.035294
H313	H	1.082562	-0.919362	-0.233421
H314	H	1.332562	-0.669362	0.016579
H315	H	1.582562	-0.419362	0.266579
H316	H	1.832562	-0.169362	0.516579
O317	O	0.967956	-0.907990	-0.254358
O318	O	1.217956	-0.657990	-0.004358
O319	O	1.467956	-0.407990	0.245642
O320	O	1.717956	-0.157990	0.495642
H321	H	0.945715	-0.856102	-0.298185
H322	H	1.195715	-0.606102	-0.048185
H323	H	1.445715	-0.356102	0.201815
H324	H	1.695715	-0.106102	0.451815
H325	H	1.185520	-0.917762	-0.337706
H326	H	1.435520	-0.667762	-0.087706
H327	H	1.685520	-0.417762	0.162294
H328	H	1.935520	-0.167762	0.412294
O329	O	1.161518	-0.369550	-0.934891
O330	O	1.411518	-0.119550	-0.684891
O331	O	1.661518	0.130450	-0.434891
O332	O	1.911518	0.380450	-0.184891
H333	H	1.194257	-0.322434	-0.895267
H334	H	1.444257	-0.072434	-0.645267
H335	H	1.694257	0.177566	-0.395267
H336	H	1.944257	0.427566	-0.145267
