data_functionalizedCrystal
_audit_creation_method	'MofGen! by Chris Wilmer'
_symmetry_space_group_name_H-M	'P1'
_symmetry_Int_Tables_number	1
_symmetry_cell_setting	triclinic
loop_
_symmetry_equiv_pos_as_xyz
  x,y,z
_cell_length_a	16.974867
_cell_length_b	8.965430
_cell_length_c	10.489746
_cell_angle_alpha	89.998467
_cell_angle_beta	83.965477
_cell_angle_gamma	86.354149
loop_
_atom_site_label
_atom_site_type_symbol
_atom_site_fract_x
_atom_site_fract_y
_atom_site_fract_z
O1	O	-1.050063	0.002568	-0.162504
O2	O	-0.819977	-0.025177	-0.183221
O3	O	-0.940253	-0.010662	0.012822
O4	O	-0.929787	-0.011946	-0.358547
O5	O	-0.940239	0.237415	0.012803
O6	O	-0.819963	0.222900	-0.183240
O7	O	-1.050049	0.250646	-0.162523
Cu8	Cu	-0.935005	0.259424	-0.172883
Cu9	Cu	-0.935021	-0.033956	-0.172861
O10	O	-0.929773	0.236131	-0.358566
C11	C	-0.790508	0.095309	-0.182444
C12	C	-0.702719	0.084723	-0.180086
C13	C	-0.208564	0.010518	-0.166768
C14	C	-0.291051	0.020485	-0.168984
C15	C	-0.332278	0.160696	-0.170112
C16	C	-0.291015	0.290949	-0.169011
C17	C	-0.208530	0.280981	-0.166786
C18	C	-0.578971	0.205009	-0.176759
C19	C	-0.661461	0.214967	-0.178988
C20	C	-0.661491	-0.055499	-0.178960
C21	C	-0.579004	-0.065455	-0.176742
C22	C	-0.537749	0.064798	-0.175634
N23	N	-0.416593	0.170887	-0.172381
N24	N	-0.453436	0.054606	-0.173356
N25	N	-0.934999	0.465773	-0.172898
C26	C	-0.879356	0.556364	-0.263534
C27	C	-0.950946	0.664409	-0.288157
C28	C	-0.863435	0.653859	-0.148292
C29	C	-1.006625	0.571633	-0.197579
C30	C	-0.919067	0.561069	-0.057664
C31	C	-0.990707	0.669075	-0.082238
C32	C	-0.079518	0.130164	-0.163303
C33	C	-0.167306	0.140761	-0.165671
C34	C	-0.939455	0.113281	0.060331
C35	C	-0.937087	0.112994	0.201921
N36	N	-0.935018	0.759695	-0.172859
C37	C	-0.930571	0.112185	-0.406075
C38	C	-0.932939	0.112461	-0.547664
C39	C	-0.859158	0.103579	0.353483
C40	C	-0.898126	-0.014035	0.276748
C41	C	-0.898131	0.230552	0.276771
C42	C	-0.971877	-0.005257	0.377465
C43	C	-0.971870	0.239438	0.377493
C44	C	-1.010893	0.121801	0.300808
H45	H	-0.695025	0.329150	-0.179915
Cl46	Cl	-0.971775	0.734397	-0.438585
H47	H	-0.866985	-0.121199	0.232763
H48	H	-0.545392	0.311071	-0.175839
Cl49	Cl	-1.019907	0.404894	0.445446
H50	H	-0.905555	0.515702	0.039739
Cl51	Cl	-1.110016	0.133654	0.264657
H52	H	-1.003008	-0.105027	0.421271
Cl53	Cl	-0.156664	0.444724	-0.165394
H54	H	-1.067166	0.535415	-0.218490
Cl55	Cl	-0.850014	0.384401	0.208882
Cl56	Cl	-0.760109	0.091452	0.390011
H57	H	-0.324640	-0.085574	-0.169870
Cl58	Cl	-0.156743	-0.165758	-0.165360
H59	H	-0.832347	0.507102	-0.340248
H60	H	-0.695091	-0.161544	-0.179860
H61	H	-0.324590	0.405113	-0.169921
H62	H	-0.545443	-0.179630	-0.175822
Cl63	Cl	-1.063446	0.744742	0.036131
Cl64	Cl	-0.769986	0.710067	-0.116183
