data_functionalizedCrystal
_audit_creation_method	'MofGen! by Chris Wilmer'
_symmetry_space_group_name_H-M	'P1'
_symmetry_Int_Tables_number	1
_symmetry_cell_setting	triclinic
loop_
_symmetry_equiv_pos_as_xyz
  x,y,z
_cell_length_a	18.266242
_cell_length_b	14.044220
_cell_length_c	14.044220
_cell_angle_alpha	93.188878
_cell_angle_beta	89.993114
_cell_angle_gamma	89.996046
loop_
_atom_site_label
_atom_site_type_symbol
_atom_site_fract_x
_atom_site_fract_y
_atom_site_fract_z
O1	O	0.060806	-1.277174	-0.230170
O2	O	0.060824	-1.000503	-0.221864
O3	O	0.060808	-1.134686	-0.087681
O4	O	0.060822	-1.142991	-0.364352
O5	O	-0.060954	-1.134660	-0.087671
O6	O	-0.060938	-1.000477	-0.221854
O7	O	-0.060956	-1.277149	-0.230160
Zn8	Zn	-0.080279	-1.138809	-0.226006
Zn9	Zn	0.080148	-1.138843	-0.226018
O10	O	-0.060940	-1.142966	-0.364343
C11	C	-0.000054	-0.964868	-0.218223
C12	C	-0.000047	-0.858725	-0.207379
C13	C	-0.000073	-1.131037	-0.052054
C14	C	-0.000073	-1.120193	0.054088
N15	N	-0.189766	-1.138793	-0.225997
C16	C	-0.228082	-1.198233	-0.166614
C17	C	-0.304727	-1.198239	-0.166610
C18	C	-0.343053	-1.138815	-0.226006
C19	C	-0.304728	-1.079363	-0.285393
C20	C	-0.228084	-1.079352	-0.285388
N21	N	-0.463381	-1.133806	-0.309456
N22	N	-0.536189	-1.133822	-0.309458
C23	C	-0.573975	-1.138843	-0.226022
N24	N	-0.536203	-1.143866	-0.142584
N25	N	-0.463389	-1.143855	-0.142583
C26	C	-0.426160	-1.138820	-0.226017
C27	C	-0.695399	-1.198292	-0.166630
C28	C	-0.772045	-1.198291	-0.166625
C29	C	-0.772044	-1.079420	-0.285416
C30	C	-0.695399	-1.079416	-0.285413
C31	C	-0.657081	-1.138857	-0.226022
N32	N	0.189634	-1.138865	-0.226020
C33	C	-0.000076	-1.312783	-0.233800
C34	C	-0.000078	-1.418926	-0.244645
C35	C	-0.000063	-0.664388	-0.187553
C36	C	-0.000062	-0.613258	-0.264467
C37	C	-0.000071	-0.505122	-0.253435
C38	C	-0.000054	-0.772534	-0.198583
C39	C	-0.000057	-1.146614	-0.399969
C40	C	-0.000052	-1.157459	-0.506112
C41	C	-0.000061	-1.100366	0.248426
C42	C	-0.000064	-1.177281	0.299556
C43	C	-0.000057	-1.166249	0.407692
C44	C	-0.000068	-1.111397	0.140280
H45	H	-0.196886	-1.246631	-0.118252
H46	H	-0.803248	-1.031032	-0.333773
H47	H	-0.000055	-0.650697	-0.338600
H48	H	-0.000054	-1.026239	0.285863
N49	N	-0.000081	-0.617429	-0.094557
N50	N	-0.051411	-0.562643	-0.069759
H51	H	-0.051422	-0.529468	-0.004081
N52	N	-0.343865	-1.258961	-0.105941
N53	N	-0.309644	-1.312023	-0.052916
H54	H	-0.337283	-1.354908	-0.010067
H55	H	-0.196887	-1.030947	-0.333745
N56	N	-0.343884	-1.018662	-0.346052
N57	N	-0.412315	-1.018679	-0.346049
H58	H	-0.439970	-0.975804	-0.388888
N59	N	-0.656263	-1.258882	-0.105832
N60	N	-0.690488	-1.311859	-0.052721
H61	H	-0.662851	-1.354603	-0.009732
N62	N	-0.000075	-1.270276	0.252582
N63	N	-0.000083	-1.279224	0.163531
H64	H	-0.000093	-1.344899	0.130350
H65	H	-0.664200	-1.031019	-0.333772
N66	N	-0.811175	-1.259009	-0.105949
N67	N	-0.776950	-1.312070	-0.052928
H68	H	-0.804585	-1.354953	-0.010073
