data_functionalizedCrystal
_audit_creation_method	'MofGen! by Chris Wilmer'
_symmetry_space_group_name_H-M	'P1'
_symmetry_Int_Tables_number	1
_symmetry_cell_setting	triclinic
loop_
_symmetry_equiv_pos_as_xyz
  x,y,z
_cell_length_a	13.635800
_cell_length_b	9.582889
_cell_length_c	9.652882
_cell_angle_alpha	89.497191
_cell_angle_beta	67.746527
_cell_angle_gamma	68.792702
loop_
_atom_site_label
_atom_site_type_symbol
_atom_site_fract_x
_atom_site_fract_y
_atom_site_fract_z
V1	V	-2.084652	0.206451	0.466333
O2	O	-2.056531	-0.010543	0.457738
O3	O	-2.079658	0.409957	0.462872
O4	O	-2.082531	0.203002	0.669840
O5	O	-2.053639	0.197844	0.249337
V6	V	-2.321116	0.180528	0.440411
O7	O	-2.226901	0.263315	0.523194
O8	O	-2.403965	0.123665	0.383550
O9	O	-2.214506	-0.022977	0.443872
O10	O	-2.407935	0.397523	0.449006
O11	O	-2.410827	0.189136	0.657407
O12	O	-2.211633	0.183977	0.236904
V13	V	-1.821109	0.180528	0.440411
O14	O	-1.852122	0.189136	0.657407
O15	O	-1.823229	0.183977	0.236904
O16	O	-1.826102	-0.022977	0.443872
O17	O	-1.849229	0.397523	0.449006
V18	V	-1.584644	0.206451	0.466333
O19	O	-1.678859	0.123665	0.383550
O20	O	-1.501795	0.263315	0.523194
O21	O	-1.694127	0.203002	0.669840
O22	O	-1.494933	0.197844	0.249337
O23	O	-1.497826	-0.010543	0.457738
O24	O	-1.691254	0.409957	0.462872
C25	C	-2.006117	0.459575	0.455445
C26	C	-2.042825	0.625942	0.453973
C27	C	-2.009780	0.195583	0.719452
C28	C	-2.048815	0.194109	0.885819
C29	C	-2.119719	-0.072588	0.451294
C30	C	-2.072631	-0.238953	0.452777
C31	C	-1.895979	0.191402	0.187284
C32	C	-1.856942	0.192869	0.020916
C33	C	-2.119540	0.191412	1.187286
C34	C	-2.080511	0.192908	1.020922
C35	C	-1.899645	-0.072588	0.451295
C36	C	-1.862940	-0.238953	0.452781
C37	C	-1.789706	0.195582	0.719452
C38	C	-1.839122	0.194107	0.885818
C39	C	-1.786042	0.459576	0.455448
C40	C	-1.833132	0.625944	0.453981
