data_functionalizedCrystal
_audit_creation_method	'MofGen! by Chris Wilmer'
_symmetry_space_group_name_H-M	'P1'
_symmetry_Int_Tables_number	1
_symmetry_cell_setting	triclinic
loop_
_symmetry_equiv_pos_as_xyz
  x,y,z
_cell_length_a	6.817900
_cell_length_b	14.858565
_cell_length_c	14.858572
_cell_angle_alpha	94.729590
_cell_angle_beta	104.524003
_cell_angle_gamma	104.523916
loop_
_atom_site_label
_atom_site_type_symbol
_atom_site_fract_x
_atom_site_fract_y
_atom_site_fract_z
V1	V	-4.043562	-0.129256	-0.290221
V2	V	-3.793562	0.120744	-0.040221
V3	V	-3.543562	0.370744	0.209779
V4	V	-3.293562	0.620744	0.459779
O5	O	-4.025385	0.005609	-0.284429
O6	O	-3.775385	0.255609	-0.034429
O7	O	-3.525385	0.505609	0.215571
O8	O	-3.275385	0.755609	0.465571
O9	O	-4.000128	-0.255713	-0.288492
O10	O	-3.750128	-0.005713	-0.038492
O11	O	-3.500128	0.244287	0.211508
O12	O	-3.250128	0.494287	0.461508
O13	O	-4.000132	-0.127532	-0.416679
O14	O	-3.750132	0.122468	-0.166679
O15	O	-3.500132	0.372468	0.083321
O16	O	-3.250132	0.622468	0.333321
O17	O	-4.025382	-0.123460	-0.155355
O18	O	-3.775382	0.126540	0.094645
O19	O	-3.525382	0.376540	0.344645
O20	O	-3.275382	0.626540	0.594645
V21	V	-4.525902	-0.113093	-0.274059
V22	V	-4.275902	0.136907	-0.024059
V23	V	-4.025902	0.386907	0.225941
V24	V	-3.775902	0.636907	0.475941
O25	O	-4.307414	-0.164710	-0.325674
O26	O	-4.057414	0.085290	-0.075674
O27	O	-3.807414	0.335290	0.174326
O28	O	-3.557414	0.585290	0.424326
O29	O	-4.712247	-0.077639	-0.238606
O30	O	-4.462247	0.172361	0.011394
O31	O	-4.212247	0.422361	0.261394
O32	O	-3.962247	0.672361	0.511394
O33	O	-4.346128	0.013364	-0.275787
O34	O	-4.096128	0.263364	-0.025787
O35	O	-3.846128	0.513364	0.224213
O36	O	-3.596128	0.763364	0.474213
O37	O	-4.661475	-0.247958	-0.279850
O38	O	-4.411475	0.002042	-0.029850
O39	O	-4.161475	0.252042	0.220150
O40	O	-3.911475	0.502042	0.470150
O41	O	-4.661479	-0.118889	-0.408924
O42	O	-4.411479	0.131111	-0.158924
O43	O	-4.161479	0.381111	0.091076
O44	O	-3.911479	0.631111	0.341076
O45	O	-4.346125	-0.114817	-0.147600
O46	O	-4.096125	0.135183	0.102400
O47	O	-3.846125	0.385183	0.352400
O48	O	-3.596125	0.635183	0.602400
C49	C	-3.846177	-0.286533	-0.283980
C50	C	-3.596177	-0.036533	-0.033980
C51	C	-3.346177	0.213467	0.216020
C52	C	-3.096177	0.463467	0.466020
C53	C	-3.891985	-0.389915	-0.283410
C54	C	-3.641985	-0.139915	-0.033410
C55	C	-3.391985	0.110085	0.216590
C56	C	-3.141985	0.360085	0.466590
C57	C	-4.059649	-0.768482	-0.281335
C58	C	-3.809649	-0.518482	-0.031335
C59	C	-3.559649	-0.268482	0.218665
C60	C	-3.309649	-0.018482	0.468665
C61	C	-4.012991	-0.663153	-0.281912
C62	C	-3.762991	-0.413153	-0.031912
C63	C	-3.512991	-0.163153	0.218088
C64	C	-3.262991	0.086847	0.468088
C65	C	-3.975818	-0.579202	-0.282372
C66	C	-3.725818	-0.329202	-0.032372
C67	C	-3.475818	-0.079202	0.217628
C68	C	-3.225818	0.170798	0.467628
C69	C	-3.929158	-0.473866	-0.282950
C70	C	-3.679158	-0.223866	-0.032950
C71	C	-3.429158	0.026134	0.217050
C72	C	-3.179158	0.276134	0.467050
C73	C	-3.846180	-0.123023	-0.447494
C74	C	-3.596180	0.126977	-0.197494
C75	C	-3.346180	0.376977	0.052506
C76	C	-3.096180	0.626977	0.302506
C77	C	-3.891987	-0.122450	-0.550876
C78	C	-3.641987	0.127550	-0.300876
C79	C	-3.391987	0.377550	-0.050876
C80	C	-3.141987	0.627550	0.199124
C81	C	-4.059645	-0.120357	-0.929439
C82	C	-3.809645	0.129643	-0.679439
C83	C	-3.559645	0.379643	-0.429439
C84	C	-3.309645	0.629643	-0.179439
C85	C	-4.012989	-0.120940	-0.824111
C86	C	-3.762989	0.129060	-0.574111
C87	C	-3.512989	0.379060	-0.324111
C88	C	-3.262989	0.629060	-0.074111
C89	C	-3.975817	-0.121405	-0.740161
C90	C	-3.725817	0.128595	-0.490161
C91	C	-3.475817	0.378595	-0.240161
C92	C	-3.225817	0.628595	0.009839
C93	C	-3.929159	-0.121985	-0.634826
C94	C	-3.679159	0.128015	-0.384826
C95	C	-3.429159	0.378015	-0.134826
C96	C	-3.179159	0.628015	0.115174
C97	C	-4.163422	0.044179	-0.280296
C98	C	-3.913422	0.294179	-0.030296
C99	C	-3.663422	0.544179	0.219704
C100	C	-3.413422	0.794179	0.469704
C101	C	-4.096853	0.147560	-0.280873
C102	C	-3.846853	0.397560	-0.030873
C103	C	-3.596853	0.647560	0.219127
C104	C	-3.346853	0.897560	0.469127
C105	C	-4.163419	-0.119329	-0.116781
C106	C	-3.913419	0.130671	0.133219
C107	C	-3.663419	0.380671	0.383219
C108	C	-3.413419	0.630671	0.633219
C109	C	-4.096850	-0.119897	-0.013398
C110	C	-3.846850	0.130103	0.236602
C111	C	-3.596850	0.380103	0.486602
C112	C	-3.346850	0.630103	0.736602
