data_functionalizedCrystal
_audit_creation_method	'MofGen! by Chris Wilmer'
_symmetry_space_group_name_H-M	'P1'
_symmetry_Int_Tables_number	1
_symmetry_cell_setting	triclinic
loop_
_symmetry_equiv_pos_as_xyz
  x,y,z
_cell_length_a	19.805407
_cell_length_b	19.076808
_cell_length_c	19.805398
_cell_angle_alpha	87.674457
_cell_angle_beta	89.985905
_cell_angle_gamma	92.320774
loop_
_atom_site_label
_atom_site_type_symbol
_atom_site_fract_x
_atom_site_fract_y
_atom_site_fract_z
Zn1	Zn	1.023887	-0.280294	-0.371852
Zn2	Zn	1.273887	-0.030294	-0.121852
Zn3	Zn	1.523887	0.219706	0.128148
Zn4	Zn	1.773887	0.469706	0.378148
Zn5	Zn	1.019264	-0.397995	-0.254113
Zn6	Zn	1.269264	-0.147995	-0.004113
Zn7	Zn	1.519264	0.102005	0.245887
Zn8	Zn	1.769264	0.352005	0.495887
Zn9	Zn	0.910709	-0.280304	-0.258679
Zn10	Zn	1.160709	-0.030304	-0.008679
Zn11	Zn	1.410709	0.219696	0.241321
Zn12	Zn	1.660709	0.469696	0.491321
Zn13	Zn	0.906122	-0.397956	-0.367265
Zn14	Zn	1.156122	-0.147956	-0.117265
Zn15	Zn	1.406122	0.102044	0.132735
Zn16	Zn	1.656122	0.352044	0.382735
O17	O	0.964995	-0.339137	-0.312977
O18	O	1.214995	-0.089137	-0.062977
O19	O	1.464995	0.160863	0.187023
O20	O	1.714995	0.410863	0.437023
O21	O	1.117990	-0.295919	-0.356242
O22	O	1.367990	-0.045919	-0.106242
O23	O	1.617990	0.204081	0.143758
O24	O	1.867990	0.454081	0.393758
O25	O	1.004849	-0.382404	-0.160002
O26	O	1.254849	-0.132404	0.089998
O27	O	1.504849	0.117596	0.339998
O28	O	1.754849	0.367596	0.589998
O29	O	0.929576	-0.181807	-0.277522
O30	O	1.179576	0.068193	-0.027522
O31	O	1.429576	0.318193	0.222478
O32	O	1.679576	0.568193	0.472478
O33	O	1.114594	-0.382394	-0.269740
O34	O	1.364594	-0.132394	-0.019740
O35	O	1.614594	0.117606	0.230260
O36	O	1.864594	0.367606	0.480260
O37	O	1.012728	-0.181799	-0.360670
O38	O	1.262728	0.068201	-0.110670
O39	O	1.512728	0.318201	0.139330
O40	O	1.762728	0.568201	0.389330
O41	O	0.925094	-0.295937	-0.163356
O42	O	1.175094	-0.045937	0.086644
O43	O	1.425094	0.204063	0.336644
O44	O	1.675094	0.454063	0.586644
O45	O	0.815384	-0.295899	-0.273075
O46	O	1.065384	-0.045899	-0.023075
O47	O	1.315384	0.204101	0.226925
O48	O	1.565384	0.454101	0.476925
O49	O	0.921759	-0.382327	-0.462591
O50	O	1.171759	-0.132327	-0.212591
O51	O	1.421759	0.117673	0.037409
O52	O	1.671759	0.367673	0.287409
O53	O	0.812014	-0.382337	-0.352852
O54	O	1.062014	-0.132337	-0.102852
O55	O	1.312014	0.117663	0.147148
O56	O	1.562014	0.367663	0.397148
O57	O	1.008280	-0.295881	-0.465961
O58	O	1.258280	-0.045881	-0.215961
O59	O	1.508280	0.204119	0.034039
O60	O	1.758280	0.454119	0.284039
O61	O	1.000401	-0.496486	-0.265293
O62	O	1.250401	-0.246486	-0.015293
O63	O	1.500401	0.003514	0.234707
O64	O	1.750401	0.253514	0.484707
O65	O	0.917276	-0.496457	-0.348425
O66	O	1.167276	-0.246457	-0.098425
O67	O	1.417276	0.003543	0.151575
O68	O	1.667276	0.253543	0.401575
C69	C	0.789140	-0.339115	-0.312962
C70	C	1.039140	-0.089115	-0.062962
C71	C	1.289140	0.160885	0.187038
C72	C	1.539140	0.410885	0.437038
C73	C	0.713908	-0.339123	-0.312971
C74	C	0.963908	-0.089123	-0.062971
C75	C	1.213908	0.160877	0.187029
C76	C	1.463908	0.410877	0.437029
C77	C	0.680330	-0.294175	-0.358075
C78	C	0.930330	-0.044175	-0.108075
C79	C	1.180330	0.205825	0.141925
C80	C	1.430330	0.455825	0.391925
C81	C	0.609641	-0.294179	-0.358077
C82	C	0.859641	-0.044179	-0.108077
C83	C	1.109641	0.205821	0.141923
C84	C	1.359641	0.455821	0.391923
C85	C	0.572532	-0.339134	-0.312978
C86	C	0.822532	-0.089134	-0.062978
C87	C	1.072532	0.160866	0.187022
C88	C	1.322532	0.410866	0.437022
C89	C	0.606115	-0.384084	-0.267869
C90	C	0.856115	-0.134084	-0.017869
C91	C	1.106115	0.115916	0.232131
C92	C	1.356115	0.365916	0.482131
C93	C	0.676802	-0.384076	-0.267864
C94	C	0.926802	-0.134076	-0.017864
C95	C	1.176802	0.115924	0.232136
C96	C	1.426802	0.365924	0.482136
C97	C	0.321040	-0.384116	-0.267889
C98	C	0.571040	-0.134116	-0.017889
C99	C	0.821040	0.115884	0.232111
C100	C	1.071040	0.365884	0.482111
C101	C	0.250348	-0.384122	-0.267899
C102	C	0.500348	-0.134122	-0.017899
C103	C	0.750348	0.115878	0.232101
C104	C	1.000348	0.365878	0.482101
C105	C	0.253879	-0.294218	-0.358102
C106	C	0.503879	-0.044218	-0.108102
C107	C	0.753879	0.205782	0.141898
C108	C	1.003879	0.455782	0.391898
C109	C	0.324567	-0.294210	-0.358097
C110	C	0.574567	-0.044210	-0.108097
C111	C	0.824567	0.205790	0.141903
C112	C	1.074567	0.455790	0.391903
C113	C	0.358144	-0.339157	-0.312986
C114	C	0.608144	-0.089157	-0.062986
C115	C	0.858144	0.160843	0.187014
C116	C	1.108144	0.410843	0.437014
C117	C	0.434792	-0.339152	-0.312983
C118	C	0.684792	-0.089152	-0.062983
C119	C	0.934792	0.160848	0.187017
C120	C	1.184792	0.410848	0.437017
C121	C	0.495884	-0.339144	-0.312984
C122	C	0.745884	-0.089144	-0.062984
C123	C	0.995884	0.160856	0.187016
C124	C	1.245884	0.410856	0.437016
C125	C	0.957857	-0.522011	-0.305880
C126	C	1.207857	-0.272011	-0.055880
C127	C	1.457857	-0.022011	0.194120
C128	C	1.707857	0.227989	0.444120
C129	C	0.954866	-0.600245	-0.302867
C130	C	1.204866	-0.350245	-0.052867
C131	C	1.454866	-0.100245	0.197133
C132	C	1.704866	0.149755	0.447133
C133	C	0.996720	-0.636935	-0.344776
C134	C	1.246720	-0.386935	-0.094776
C135	C	1.496720	-0.136935	0.155224
C136	C	1.746720	0.113065	0.405224
C137	C	0.993907	-0.710444	-0.341946
C138	C	1.243907	-0.460444	-0.091946
C139	C	1.493907	-0.210444	0.158054
C140	C	1.743907	0.039556	0.408054
C141	C	0.949241	-0.747262	-0.297202
C142	C	1.199241	-0.497262	-0.047202
C143	C	1.449241	-0.247262	0.202798
C144	C	1.699241	0.002738	0.452798
C145	C	0.907382	-0.710566	-0.255291
C146	C	1.157382	-0.460566	-0.005291
C147	C	1.407382	-0.210566	0.244709
C148	C	1.657382	0.039434	0.494709
C149	C	0.910193	-0.637059	-0.258125
C150	C	1.160193	-0.387059	-0.008125
C151	C	1.410193	-0.137059	0.241875
C152	C	1.660193	0.112941	0.491875
C153	C	0.936193	-0.967113	-0.284083
C154	C	1.186193	-0.717113	-0.034083
C155	C	1.436193	-0.467113	0.215917
C156	C	1.686193	-0.217113	0.465917
C157	C	0.933386	-1.040626	-0.281250
C158	C	1.183386	-0.790626	-0.031250
C159	C	1.433386	-0.540626	0.218750
C160	C	1.683386	-0.290626	0.468750
C161	C	1.019911	-1.040498	-0.367906
C162	C	1.269911	-0.790498	-0.117906
C163	C	1.519911	-0.540498	0.132094
C164	C	1.769911	-0.290498	0.382094
C165	C	1.022720	-0.966989	-0.370734
C166	C	1.272720	-0.716989	-0.120734
C167	C	1.522720	-0.466989	0.129266
C168	C	1.772720	-0.216989	0.379266
C169	C	0.980859	-0.930300	-0.328825
C170	C	1.230859	-0.680300	-0.078825
C171	C	1.480859	-0.430300	0.171175
C172	C	1.730859	-0.180300	0.421175
N173	N	0.946365	-0.822400	-0.294306
N174	N	1.196365	-0.572400	-0.044306
N175	N	1.446365	-0.322400	0.205694
N176	N	1.696365	-0.072400	0.455694
N177	N	0.983731	-0.855164	-0.331725
N178	N	1.233731	-0.605164	-0.081725
N179	N	1.483731	-0.355164	0.168275
N180	N	1.733731	-0.105164	0.418275
C181	C	1.141537	-0.339160	-0.312993
C182	C	1.391537	-0.089160	-0.062993
C183	C	1.641537	0.160840	0.187007
C184	C	1.891537	0.410840	0.437007
C185	C	1.216769	-0.339170	-0.313000
C186	C	1.466769	-0.089170	-0.063000
C187	C	1.716769	0.160830	0.187000
C188	C	1.966769	0.410830	0.437000
C189	C	0.965023	-0.339098	-0.489522
C190	C	1.215023	-0.089098	-0.239522
C191	C	1.465023	0.160902	0.010478
C192	C	1.715023	0.410902	0.260478
C193	C	0.965035	-0.339082	-0.564754
C194	C	1.215035	-0.089082	-0.314754
C195	C	1.465035	0.160918	-0.064754
C196	C	1.715035	0.410918	0.185246
C197	C	0.972180	-0.155550	-0.320117
C198	C	1.222180	0.094450	-0.070117
C199	C	1.472180	0.344450	0.179883
C200	C	1.722180	0.594450	0.429883
C201	C	0.975241	-0.077316	-0.323160
C202	C	1.225241	0.172684	-0.073160
C203	C	1.475241	0.422684	0.176840
C204	C	1.725241	0.672684	0.426840
C205	C	1.010174	-0.293945	-1.028306
C206	C	1.260174	-0.043945	-0.778306
C207	C	1.510174	0.206055	-0.528306
C208	C	1.760174	0.456055	-0.278306
C209	C	1.010162	-0.293966	-0.957617
C210	C	1.260162	-0.043966	-0.707617
C211	C	1.510162	0.206034	-0.457617
C212	C	1.760162	0.456034	-0.207617
C213	C	0.965109	-0.338984	-0.920520
C214	C	1.215109	-0.088984	-0.670520
C215	C	1.465109	0.161016	-0.420520
C216	C	1.715109	0.411016	-0.170520
C217	C	0.920068	-0.383988	-0.954116
C218	C	1.170068	-0.133988	-0.704116
C219	C	1.420068	0.116012	-0.454116
C220	C	1.670068	0.366012	-0.204116
C221	C	0.920083	-0.383969	-1.024804
C222	C	1.170083	-0.133969	-0.774804
C223	C	1.420083	0.116031	-0.524804
C224	C	1.670083	0.366031	-0.274804
C225	C	0.920006	-0.384064	-0.669040
C226	C	1.170006	-0.134064	-0.419040
C227	C	1.420006	0.115936	-0.169040
C228	C	1.670006	0.365936	0.080960
C229	C	0.919993	-0.384078	-0.598347
C230	C	1.169993	-0.134078	-0.348347
C231	C	1.419993	0.115922	-0.098347
C232	C	1.669993	0.365922	0.151653
C233	C	1.010085	-0.294061	-0.601853
C234	C	1.260085	-0.044061	-0.351853
C235	C	1.510085	0.205939	-0.101853
C236	C	1.760085	0.455939	0.148147
C237	C	1.010100	-0.294043	-0.672540
C238	C	1.260100	-0.044043	-0.422540
C239	C	1.510100	0.205957	-0.172540
C240	C	1.760100	0.455957	0.077460
C241	C	0.965063	-0.339049	-0.706130
C242	C	1.215063	-0.089049	-0.456130
C243	C	1.465063	0.160951	-0.206130
C244	C	1.715063	0.410951	0.043870
C245	C	0.965077	-0.339026	-0.782779
C246	C	1.215077	-0.089026	-0.532779
C247	C	1.465077	0.160974	-0.282779
C248	C	1.715077	0.410974	-0.032779
C249	C	0.965091	-0.339004	-0.843872
C250	C	1.215091	-0.089004	-0.593872
C251	C	1.465091	0.160996	-0.343872
C252	C	1.715091	0.410996	-0.093872
C253	C	0.965008	-0.339125	-0.137122
C254	C	1.215008	-0.089125	0.112878
C255	C	1.465008	0.160875	0.362878
C256	C	1.715008	0.410875	0.612878
C257	C	0.965135	-0.338944	-0.061897
C258	C	1.215135	-0.088944	0.188103
C259	C	1.465135	0.161056	0.438103
C260	C	1.715135	0.411056	0.688103
H261	H	0.704141	-0.420677	-0.231135
H262	H	0.954141	-0.170677	0.018865
H263	H	1.204141	0.079323	0.268865
H264	H	1.454141	0.329323	0.518865
H265	H	1.046785	-0.257382	-0.702741
H266	H	1.296785	-0.007382	-0.452741
H267	H	1.546785	0.242618	-0.202741
H268	H	1.796785	0.492618	0.047259
H269	H	0.226533	-0.257618	-0.394832
H270	H	0.476533	-0.007618	-0.144832
H271	H	0.726533	0.242382	0.105168
H272	H	0.976533	0.492382	0.355168
H273	H	0.582305	-0.257579	-0.394807
H274	H	0.832305	-0.007579	-0.144807
H275	H	1.082305	0.242421	0.105193
H276	H	1.332305	0.492421	0.355193
Br277	Br	1.071206	-0.232976	-0.556263
Br278	Br	1.321206	0.017024	-0.306263
Br279	Br	1.571206	0.267024	-0.056263
Br280	Br	1.821206	0.517024	0.193737
Br281	Br	0.879371	-0.917331	-0.227215
Br282	Br	1.129371	-0.667331	0.022785
Br283	Br	1.379371	-0.417331	0.272785
Br284	Br	1.629371	-0.167331	0.522785
Br285	Br	0.846755	-0.760533	-0.194575
Br286	Br	1.096755	-0.510533	0.055425
Br287	Br	1.346755	-0.260533	0.305425
Br288	Br	1.596755	-0.010533	0.555425
Br289	Br	1.071291	-0.232896	-0.912031
Br290	Br	1.321291	0.017104	-0.662031
Br291	Br	1.571291	0.267104	-0.412031
Br292	Br	1.821291	0.517104	-0.162031
Br293	Br	0.858926	-0.445087	-0.903771
Br294	Br	1.108926	-0.195087	-0.653771
Br295	Br	1.358926	0.054913	-0.403771
Br296	Br	1.608926	0.304913	-0.153771
H297	H	0.883409	-0.420613	-1.052153
H298	H	1.133409	-0.170613	-0.802153
H299	H	1.383409	0.079387	-0.552153
H300	H	1.633409	0.329387	-0.302153
H301	H	0.710539	-0.257569	-0.394802
H302	H	0.960539	-0.007569	-0.144802
H303	H	1.210539	0.242431	0.105198
H304	H	1.460539	0.492431	0.355198
H305	H	0.883301	-0.420736	-0.568144
H306	H	1.133301	-0.170736	-0.318144
H307	H	1.383301	0.079264	-0.068144
H308	H	1.633301	0.329264	0.181856
H309	H	1.033095	-0.606962	-0.381208
H310	H	1.283095	-0.356962	-0.131208
H311	H	1.533095	-0.106962	0.118792
H312	H	1.783095	0.143038	0.368792
H313	H	1.046858	-0.257282	-1.058506
H314	H	1.296858	-0.007282	-0.808506
H315	H	1.546858	0.242718	-0.558506
H316	H	1.796858	0.492718	-0.308506
Br317	Br	0.374926	-0.233202	-0.419309
Br318	Br	0.624926	0.016798	-0.169309
Br319	Br	0.874926	0.266798	0.080691
Br320	Br	1.124926	0.516798	0.330691
Br321	Br	0.199985	-0.445137	-0.206688
Br322	Br	0.449985	-0.195137	0.043312
Br323	Br	0.699985	0.054863	0.293312
Br324	Br	0.949985	0.304863	0.543312
Br325	Br	1.076718	-1.090293	-0.424781
Br326	Br	1.326718	-0.840293	-0.174781
Br327	Br	1.576718	-0.590293	0.075219
Br328	Br	1.826718	-0.340293	0.325219
H329	H	0.348370	-0.420715	-0.231157
H330	H	0.598370	-0.170715	0.018843
H331	H	0.848370	0.079285	0.268843
H332	H	1.098370	0.329285	0.518843
H333	H	0.575895	-0.420684	-0.231145
H334	H	0.825895	-0.170684	0.018855
H335	H	1.075895	0.079316	0.268855
H336	H	1.325895	0.329316	0.518855
Br337	Br	1.050701	-0.760235	-0.398838
Br338	Br	1.300701	-0.510235	-0.148838
Br339	Br	1.550701	-0.260235	0.101162
Br340	Br	1.800701	-0.010235	0.351162
Br341	Br	0.858888	-0.445149	-0.714616
Br342	Br	1.108888	-0.195149	-0.464616
Br343	Br	1.358888	0.054851	-0.214616
Br344	Br	1.608888	0.304851	0.035384
Br345	Br	1.083341	-0.917027	-0.431459
Br346	Br	1.333341	-0.667027	-0.181459
Br347	Br	1.583341	-0.417027	0.068541
Br348	Br	1.833341	-0.167027	0.318541
Br349	Br	0.872769	-1.090593	-0.220518
Br350	Br	1.122769	-0.840593	0.029482
Br351	Br	1.372769	-0.590593	0.279482
Br352	Br	1.622769	-0.340593	0.529482
Br353	Br	0.853385	-0.587264	-0.201248
Br354	Br	1.103385	-0.337264	0.048752
Br355	Br	1.353385	-0.087264	0.298752
Br356	Br	1.603385	0.162736	0.548752
