data_functionalizedCrystal
_audit_creation_method	'MofGen! by Chris Wilmer'
_symmetry_space_group_name_H-M	'P1'
_symmetry_Int_Tables_number	1
_symmetry_cell_setting	triclinic
loop_
_symmetry_equiv_pos_as_xyz
  x,y,z
_cell_length_a	16.959453
_cell_length_b	18.215407
_cell_length_c	18.215399
_cell_angle_alpha	89.980167
_cell_angle_beta	90.028024
_cell_angle_gamma	89.979564
loop_
_atom_site_label
_atom_site_type_symbol
_atom_site_fract_x
_atom_site_fract_y
_atom_site_fract_z
Zn1	Zn	-0.314680	-1.125097	0.416115
Zn2	Zn	0.185320	-0.625097	0.916115
Zn3	Zn	-0.446866	-1.125016	0.293049
Zn4	Zn	0.053134	-0.625016	0.793049
Zn5	Zn	-0.314706	-1.002030	0.293063
Zn6	Zn	0.185294	-0.502030	0.793063
Zn7	Zn	-0.446822	-1.002006	0.416074
Zn8	Zn	0.053178	-0.502006	0.916074
O9	O	-0.380768	-1.063537	0.354575
O10	O	0.119232	-0.563537	0.854575
O11	O	-0.332222	-1.228070	0.399802
O12	O	0.167778	-0.728070	0.899802
O13	O	-0.429364	-1.108677	0.190067
O14	O	0.070636	-0.608677	0.690067
O15	O	-0.204092	-1.018399	0.309409
O16	O	0.295908	-0.518399	0.809409
O17	O	-0.429339	-1.228011	0.309386
O18	O	0.070661	-0.728011	0.809386
O19	O	-0.204073	-1.108816	0.399815
O20	O	0.295927	-0.608816	0.899815
O21	O	-0.332267	-1.018320	0.190077
O22	O	0.167733	-0.518320	0.690077
O23	O	-0.332224	-0.899042	0.309369
O24	O	0.167776	-0.399042	0.809369
O25	O	-0.429264	-1.018358	0.519064
O26	O	0.070736	-0.518358	1.019064
O27	O	-0.429289	-0.899025	0.399745
O28	O	0.070711	-0.399025	0.899745
O29	O	-0.332180	-1.108793	0.519094
O30	O	0.167820	-0.608793	1.019094
O31	O	-0.557471	-1.108655	0.309345
O32	O	-0.057471	-0.608655	0.809345
O33	O	-0.557438	-1.018280	0.399731
O34	O	-0.057438	-0.518280	0.899731
C35	C	-0.380755	-0.872331	0.354554
C36	C	0.119245	-0.372331	0.854554
C37	C	-0.380768	-0.790532	0.354563
C38	C	0.119232	-0.290532	0.854563
C39	C	-0.380714	-1.063582	0.546528
C40	C	0.119286	-0.563582	1.046528
C41	C	-0.380691	-1.063601	0.628327
C42	C	0.119309	-0.563601	1.128327
C43	C	-0.586135	-1.063476	0.354548
C44	C	-0.086135	-0.563476	0.854548
C45	C	-0.673991	-1.063517	0.354561
C46	C	-0.173991	-0.563517	0.854561
C47	C	-1.045398	-1.110678	0.401739
C48	C	-0.545398	-0.610678	0.901739
C49	C	-1.045535	-1.016602	0.307521
C50	C	-0.545535	-0.516602	0.807521
C51	C	-0.962989	-1.016575	0.307504
C52	C	-0.462989	-0.516575	0.807504
C53	C	-0.921644	-1.063599	0.354606
C54	C	-0.421644	-0.563599	0.854606
C55	C	-0.962845	-1.110650	0.401725
C56	C	-0.462845	-0.610650	0.901725
C57	C	-0.921782	-0.969519	0.260392
C58	C	-0.421782	-0.469519	0.760392
C59	C	-0.839231	-0.969489	0.260374
C60	C	-0.339231	-0.469489	0.760374
C61	C	-0.797885	-1.016518	0.307472
C62	C	-0.297885	-0.516518	0.807472
C63	C	-0.839091	-1.063571	0.354592
C64	C	-0.339091	-0.563571	0.854592
C65	C	-0.797745	-1.110595	0.401694
C66	C	-0.297745	-0.610595	0.901694
C67	C	-0.838950	-1.157654	0.448811
C68	C	-0.338950	-0.657654	0.948811
C69	C	-0.921498	-1.157678	0.448823
C70	C	-0.421498	-0.657678	0.948823
C71	C	-0.715336	-1.016493	0.307460
C72	C	-0.215336	-0.516493	0.807460
C73	C	-0.715192	-1.110568	0.401680
C74	C	-0.215192	-0.610568	0.901680
C75	C	-0.174600	-1.063619	0.354619
C76	C	0.325400	-0.563619	0.854619
C77	C	-0.086744	-1.063654	0.354637
C78	C	0.413256	-0.563654	0.854637
C79	C	-0.380783	-1.255490	0.354597
C80	C	0.119217	-0.755490	0.854597
C81	C	-0.380789	-1.337289	0.354606
C82	C	0.119211	-0.837289	0.854606
C83	C	-0.431389	-0.602348	0.401562
C84	C	0.068611	-0.102348	0.901562
C85	C	-0.431392	-0.525490	0.401571
C86	C	0.068608	-0.025490	0.901571
C87	C	-0.330162	-0.525478	0.307605
C88	C	0.169838	-0.025478	0.807605
C89	C	-0.330156	-0.602335	0.307600
C90	C	0.169844	-0.102335	0.807600
C91	C	-0.380774	-0.640768	0.354577
C92	C	0.119226	-0.140768	0.854577
C93	C	-0.380783	-0.487052	0.354591
C94	C	0.119217	0.012948	0.854591
C95	C	-0.380785	-0.403719	0.354601
C96	C	0.119215	0.096281	0.854601
C97	C	-0.380771	-0.724107	0.354569
C98	C	0.119229	-0.224107	0.854569
C99	C	-0.380766	-1.063535	0.163369
C100	C	0.119234	-0.563535	0.663369
C101	C	-0.380566	-1.063658	0.081571
C102	C	0.119434	-0.563658	0.581571
C103	C	-0.330092	-1.110707	0.816538
C104	C	0.169908	-0.610707	1.316538
C105	C	-0.330069	-1.110716	0.893397
C106	C	0.169931	-0.610716	1.393397
C107	C	-0.431167	-1.016547	0.893354
C108	C	0.068833	-0.516547	1.393354
C109	C	-0.431186	-1.016535	0.816497
C110	C	0.068814	-0.516535	1.316497
C111	C	-0.380649	-1.063619	0.778091
C112	C	0.119351	-0.563619	1.278091
C113	C	-0.380608	-1.063640	0.931807
C114	C	0.119392	-0.563640	1.431807
C115	C	-0.380583	-1.063649	1.015141
C116	C	0.119417	-0.563649	1.515141
C117	C	-0.380673	-1.063609	0.694752
C118	C	0.119327	-0.563609	1.194752
H119	H	-0.681534	-1.148864	0.440034
H120	H	-0.181534	-0.648864	0.940034
H121	H	-0.472606	-0.494211	0.439832
H122	H	0.027394	0.005789	0.939832
H123	H	-0.288899	-1.149058	0.924698
H124	H	0.211101	-0.649058	1.424698
C125	C	-0.486760	-0.964765	0.935603
C126	C	0.013240	-0.464765	1.435603
H127	H	-0.479515	-0.971521	0.986883
H128	H	0.020485	-0.471521	1.486883
H129	H	-0.475196	-0.915320	0.923002
H130	H	0.024804	-0.415320	1.423002
H131	H	-0.539874	-0.975521	0.922994
H132	H	-0.039874	-0.475521	1.422994
H133	H	-0.472355	-0.978185	0.785192
H134	H	0.027645	-0.478185	1.285192
H135	H	-0.955054	-1.195990	0.487184
H136	H	-0.455054	-0.695990	0.987184
C137	C	-0.793465	-1.209377	0.500619
C138	C	-0.293465	-0.709377	1.000619
H139	H	-0.738402	-1.202619	0.493858
H140	H	-0.238402	-0.702619	0.993858
H141	H	-0.806965	-1.198588	0.550059
H142	H	-0.306965	-0.698588	1.050059
H143	H	-0.806956	-1.258838	0.489890
H144	H	-0.306956	-0.758838	0.989890
H145	H	-1.079203	-0.978314	0.269176
H146	H	-0.579203	-0.478314	0.769176
C147	C	-1.090714	-1.162441	0.453563
C148	C	-0.590714	-0.662441	0.953563
H149	H	-1.054265	-1.190445	0.481607
H150	H	-0.554265	-0.690445	0.981607
H151	H	-1.122920	-1.134287	0.485608
H152	H	-0.622920	-0.634287	0.985608
H153	H	-1.122906	-1.194537	0.425438
H154	H	-0.622906	-0.694537	0.925438
C155	C	-0.967261	-0.917803	0.208581
C156	C	-0.467261	-0.417803	0.708581
H157	H	-1.022325	-0.924568	0.215330
H158	H	-0.522325	-0.424568	0.715330
H159	H	-0.953771	-0.868343	0.219298
H160	H	-0.453771	-0.368343	0.719298
H161	H	-0.953756	-0.928605	0.159140
H162	H	-0.453756	-0.428605	0.659140
H163	H	-0.805688	-0.931173	0.222008
H164	H	-0.305688	-0.431173	0.722008
H165	H	-0.681792	-0.978175	0.269101
H166	H	-0.181792	-0.478175	0.769101
C167	C	-0.487064	-0.644626	0.453235
C168	C	0.012936	-0.144626	0.953235
H169	H	-0.479819	-0.695903	0.446498
H170	H	0.020181	-0.195903	0.946498
H171	H	-0.475567	-0.632056	0.502702
H172	H	0.024433	-0.132056	1.002702
H173	H	-0.540160	-0.632008	0.442371
H174	H	-0.040160	-0.132008	0.942371
H175	H	-0.288952	-0.494176	0.269356
H176	H	0.211048	0.005824	0.769356
H177	H	-0.288934	-0.633618	0.269339
H178	H	0.211066	-0.133618	0.769339
H179	H	-0.288940	-1.149044	0.785271
H180	H	0.211060	-0.649044	1.285271
