data_functionalizedCrystal
_audit_creation_method	'MofGen! by Chris Wilmer'
_symmetry_space_group_name_H-M	'P1'
_symmetry_Int_Tables_number	1
_symmetry_cell_setting	triclinic
loop_
_symmetry_equiv_pos_as_xyz
  x,y,z
_cell_length_a	14.044220
_cell_length_b	14.853558
_cell_length_c	13.930277
_cell_angle_alpha	89.993309
_cell_angle_beta	90.003087
_cell_angle_gamma	91.589994
loop_
_atom_site_label
_atom_site_type_symbol
_atom_site_fract_x
_atom_site_fract_y
_atom_site_fract_z
O1	O	-0.123724	1.206176	-0.079817
O2	O	-0.138477	0.944884	-0.079821
O3	O	0.006889	1.071608	-0.079815
O4	O	-0.269091	1.079452	-0.079823
O5	O	0.006892	1.071589	0.079847
O6	O	-0.138474	0.944865	0.079840
O7	O	-0.123721	1.206157	0.079845
Zn8	Zn	-0.131097	1.075508	0.105192
Zn9	Zn	-0.131101	1.075533	-0.105169
O10	O	-0.269087	1.079433	0.079838
C11	C	-0.137809	0.911233	0.000009
C12	C	-0.135810	0.810990	0.000007
C13	C	-0.134875	0.763907	-0.087028
C14	C	-0.134860	0.763883	0.087042
C15	C	-0.132978	0.669700	0.087043
C16	C	-0.132042	0.622616	0.000008
C17	C	-0.132989	0.669715	-0.087029
C18	C	-0.132021	0.622594	0.174079
C19	C	-0.130137	0.528406	0.174084
C20	C	-0.129208	0.481320	0.087047
C21	C	-0.130156	0.528425	0.000007
C22	C	-0.129221	0.481341	-0.087028
C23	C	-0.130176	0.528444	-0.174070
C24	C	-0.132061	0.622629	-0.174065
C25	C	-0.127324	0.387134	0.087043
C26	C	-0.127335	0.387149	-0.087029
C27	C	-0.304408	1.082876	0.000006
C28	C	-0.409647	1.093118	0.000003
C29	C	-0.602332	1.111842	0.000008
C30	C	-0.659872	1.039203	0.000007
C31	C	-0.767089	1.049621	0.000010
C32	C	-0.495105	1.101425	0.000005
C33	C	0.042209	1.068165	0.000015
C34	C	0.147448	1.057923	0.000012
C35	C	-0.124390	1.239808	0.000012
C36	C	-0.126388	1.340050	0.000008
N37	N	-0.131094	1.075497	0.248758
N38	N	-0.131097	1.075551	-0.248735
C39	C	-0.195444	1.019416	0.701025
C40	C	-0.066751	1.131675	0.701000
C41	C	-0.066748	1.131664	0.600504
C42	C	-0.131095	1.075529	0.550264
C43	C	-0.195445	1.019405	0.600520
C44	C	-0.002406	1.187794	0.550241
C45	C	-0.002401	1.187786	0.449739
C46	C	-0.066744	1.131646	0.399497
C47	C	-0.131096	1.075518	0.449759
C48	C	-0.195443	1.019383	0.399519
C49	C	-0.259791	0.963250	0.449779
C50	C	-0.259788	0.963264	0.550278
C51	C	-0.066747	1.131632	0.298998
C52	C	-0.195444	1.019372	0.299014
H53	H	-0.126555	0.348787	0.157911
Cl54	Cl	-0.136035	0.823075	0.196451
H55	H	-0.628611	0.969190	0.000007
H56	H	-0.132774	0.660937	0.244938
H57	H	-0.129409	0.490096	-0.244934
Cl58	Cl	-0.650594	1.219930	0.000015
H59	H	-0.132837	0.660989	-0.244930
Cl60	Cl	-0.136076	0.823118	-0.196446
H61	H	-0.247840	0.973656	0.258115
Cl62	Cl	-0.340687	0.892689	0.386610
Cl63	Cl	-0.128949	0.469199	0.283505
H64	H	0.049995	1.233491	0.408824
H65	H	-0.312179	0.917564	0.591206
Cl66	Cl	-0.276332	0.948848	0.764204
Cl67	Cl	0.014133	1.202249	0.764156
H68	H	0.049979	1.233503	0.591150
H69	H	-0.126579	0.348820	-0.157905
Cl70	Cl	0.014136	1.202199	0.235821
