data_functionalizedCrystal
_audit_creation_method	'MofGen! by Chris Wilmer'
_symmetry_space_group_name_H-M	'P1'
_symmetry_Int_Tables_number	1
_symmetry_cell_setting	triclinic
loop_
_symmetry_equiv_pos_as_xyz
  x,y,z
_cell_length_a	23.532407
_cell_length_b	10.654550
_cell_length_c	9.130313
_cell_angle_alpha	90.004369
_cell_angle_beta	89.998183
_cell_angle_gamma	83.666804
loop_
_atom_site_label
_atom_site_type_symbol
_atom_site_fract_x
_atom_site_fract_y
_atom_site_fract_z
O1	O	-0.756252	-0.152438	-0.121616
O2	O	-0.590532	-0.174495	-0.121659
O3	O	-0.677202	0.019393	-0.121628
O4	O	-0.669582	-0.346327	-0.121648
O5	O	-0.677196	0.019399	0.121971
O6	O	-0.590526	-0.174489	0.121940
O7	O	-0.756246	-0.152433	0.121983
Cu8	Cu	-0.673386	-0.163461	0.144204
Cu9	Cu	-0.673393	-0.163467	-0.143880
O10	O	-0.669576	-0.346321	0.121951
C11	C	-0.676640	0.066176	0.000171
C12	C	-0.674966	0.205567	0.000168
C13	C	-0.569310	-0.173931	0.000135
C14	C	-0.506082	-0.172242	0.000119
C15	C	-0.777469	-0.152997	0.000185
C16	C	-0.840697	-0.154686	0.000192
C17	C	-0.107657	-0.276389	0.000179
C18	C	-0.048247	-0.274820	0.000188
O19	O	-0.012131	-0.371366	0.000236
N20	N	-0.024869	-0.159554	0.000192
C21	C	-0.060906	-0.045849	0.000202
O22	O	-0.035567	0.052339	0.000208
C23	C	-0.120315	-0.047419	0.000203
C24	C	-0.143689	-0.162693	0.000185
C25	C	-0.131031	-0.391654	0.000162
C26	C	-0.190438	-0.393222	0.000150
C27	C	-0.226470	-0.279525	0.000156
C28	C	-0.203095	-0.164261	0.000173
C29	C	-0.156351	0.066285	0.000224
C30	C	-0.215764	0.064705	0.000226
C31	C	-0.239138	-0.050569	0.000207
C32	C	-0.298534	-0.052133	0.000166
N33	N	-0.321911	-0.167399	0.000162
C34	C	-0.285879	-0.281095	0.000157
C35	C	0.063858	-0.042560	0.000202
C36	C	0.123266	-0.040989	0.000190
C37	C	0.135922	-0.269961	0.000179
C38	C	0.076512	-0.271531	0.000180
C39	C	0.040481	-0.157827	0.000198
C40	C	-0.410637	-0.284380	0.000131
C41	C	-0.470049	-0.285938	0.000113
C42	C	-0.482700	-0.056967	0.000132
C43	C	-0.423293	-0.055408	0.000142
C44	C	-0.387262	-0.169125	0.000147
O45	O	-0.334684	0.044362	0.000125
O46	O	-0.311227	-0.379267	0.000171
C47	C	-0.670138	-0.393104	0.000149
C48	C	-0.671812	-0.532494	0.000142
N49	N	-0.673385	-0.163455	0.346826
C50	C	-0.725996	0.286669	0.000181
C51	C	-0.724419	0.417640	0.000163
C52	C	-0.620779	0.386393	0.000125
C53	C	-0.622356	0.255425	0.000133
N54	N	-0.673398	-0.163462	-0.346503
C55	C	-0.711775	-0.077637	0.423492
C56	C	-0.711781	-0.077637	0.576829
C57	C	-0.635003	-0.249285	0.576821
C58	C	-0.634995	-0.249278	0.423486
H59	H	-0.381308	-0.376980	0.000139
H60	H	-0.245099	0.157299	0.000242
H61	H	-0.743041	-0.007755	0.639246
H62	H	0.057486	-0.365397	0.000173
O63	O	-0.569711	0.434980	-0.000091
C64	C	-0.565696	0.509768	-0.126273
H65	H	-0.610452	0.542948	-0.168323
H66	H	-0.542656	0.595256	-0.097907
H67	H	-0.540733	0.451579	-0.214623
H68	H	-0.765973	0.483669	0.000170
H69	H	0.034524	0.050038	0.000203
H70	H	-0.743033	-0.007754	0.361079
H71	H	-0.603748	-0.319161	0.639253
O72	O	-0.597680	-0.332770	0.349230
C73	C	-0.563792	-0.408506	0.449769
H74	H	-0.587148	-0.409678	0.559066
H75	H	-0.555494	-0.508887	0.405444
H76	H	-0.521332	-0.368200	0.466095
O77	O	-0.572820	0.176505	0.000315
C78	C	-0.570621	0.099842	0.126495
H79	H	-0.615847	0.093796	0.168577
H80	H	-0.549803	0.001128	0.098112
H81	H	-0.544434	0.142607	0.214826
H82	H	-0.489077	-0.379812	0.000097
O83	O	-0.213066	-0.505285	-0.000054
C84	C	-0.194697	-0.574529	-0.126236
H85	H	-0.153368	-0.540806	-0.168294
H86	H	-0.186858	-0.679205	-0.097864
H87	H	-0.229010	-0.559572	-0.214580
O88	O	-0.095977	-0.502027	-0.000048
C89	C	-0.061246	-0.507992	-0.126237
H90	H	-0.057831	-0.408359	-0.168278
H91	H	-0.016794	-0.555367	-0.097882
H92	H	-0.081028	-0.565072	-0.214588
O93	O	0.145900	0.071068	-0.000004
C94	C	0.127545	0.140309	-0.126184
H95	H	0.086214	0.106603	-0.168254
H96	H	0.119714	0.244988	-0.097804
H97	H	0.161863	0.125330	-0.214522
H98	H	0.165270	-0.362539	0.000181
H99	H	-0.512048	0.035602	0.000131
H100	H	-0.137331	0.160153	0.000240
H101	H	-0.404261	0.038457	0.000136
H102	H	-0.768834	0.246079	0.000207
