data_functionalizedCrystal
_audit_creation_method	'MofGen! by Chris Wilmer'
_symmetry_space_group_name_H-M	'P1'
_symmetry_Int_Tables_number	1
_symmetry_cell_setting	triclinic
loop_
_symmetry_equiv_pos_as_xyz
  x,y,z
_cell_length_a	14.519709
_cell_length_b	13.596369
_cell_length_c	14.971486
_cell_angle_alpha	90.006197
_cell_angle_beta	83.647137
_cell_angle_gamma	89.999709
loop_
_atom_site_label
_atom_site_type_symbol
_atom_site_fract_x
_atom_site_fract_y
_atom_site_fract_z
O1	O	1.223798	0.081664	0.117252
O2	O	1.723798	0.581664	0.617252
O3	O	0.955313	0.081694	0.131060
O4	O	1.455313	0.581694	0.631060
O5	O	1.096752	0.081671	-0.006040
O6	O	1.596752	0.581671	0.493960
O7	O	1.082360	0.081687	0.254352
O8	O	1.582360	0.581687	0.754352
O9	O	1.096738	-0.081912	-0.006047
O10	O	1.596738	0.418088	0.493953
O11	O	0.955299	-0.081889	0.131053
O12	O	1.455299	0.418111	0.631053
O13	O	1.223784	-0.081919	0.117245
O14	O	1.723784	0.418081	0.617245
Zn15	Zn	1.089539	-0.107876	0.124148
Zn16	Zn	1.589539	0.392124	0.624148
Zn17	Zn	1.089558	0.107651	0.124157
Zn18	Zn	1.589558	0.607651	0.624157
O19	O	1.082346	-0.081896	0.254345
O20	O	1.582346	0.418104	0.754345
C21	C	0.920947	-0.000094	0.130413
C22	C	1.420947	0.499906	0.630413
C23	C	0.818567	-0.000082	0.128485
C24	C	1.318567	0.499918	0.628485
N25	N	1.089533	-0.254968	0.124141
N26	N	1.589533	0.245032	0.624141
C27	C	0.443675	-0.000128	0.121386
C28	C	0.943675	0.499872	0.621386
C29	C	0.547982	-0.000115	0.123357
C30	C	1.047982	0.499885	0.623357
C31	C	0.631118	-0.000104	0.124935
C32	C	1.131118	0.499896	0.624935
C33	C	0.735431	-0.000093	0.126907
C34	C	1.235431	0.499907	0.626907
C35	C	1.089557	-0.656259	0.124158
C36	C	1.589557	-0.156259	0.624158
C37	C	1.089548	-0.544608	0.124156
C38	C	1.589548	-0.044608	0.624156
C39	C	1.089546	-0.455617	0.124150
C40	C	1.589546	0.044383	0.624150
C41	C	1.089535	-0.343959	0.124147
C42	C	1.589535	0.156041	0.624147
C43	C	1.258151	-0.000129	0.117892
C44	C	1.758151	0.499871	0.617892
C45	C	1.360531	-0.000134	0.119820
C46	C	1.860531	0.499866	0.619820
C47	C	1.096101	-0.000120	-0.039369
C48	C	1.596101	0.499880	0.460631
C49	C	1.094172	-0.000119	-0.138667
C50	C	1.594172	0.499881	0.361333
N51	N	1.089571	0.254743	0.124157
N52	N	1.589571	0.754743	0.624157
C53	C	1.177264	-0.000129	-0.195845
C54	C	1.677264	0.499871	0.304155
C55	C	1.175446	-0.000119	-0.289146
C56	C	1.675446	0.499881	0.210854
C57	C	1.090536	-0.000106	-0.325266
C58	C	1.590536	0.499894	0.174734
C59	C	1.007438	-0.000093	-0.268080
C60	C	1.507438	0.499907	0.231920
C61	C	1.009257	-0.000096	-0.174781
C62	C	1.509257	0.499904	0.325219
C63	C	1.003653	-0.000089	-0.462545
C64	C	1.503653	0.499911	0.037455
C65	C	1.001834	-0.000088	-0.555850
C66	C	1.501834	0.499912	-0.055850
C67	C	1.169842	-0.000112	-0.576909
C68	C	1.669842	0.499888	-0.076909
C69	C	1.171661	-0.000115	-0.483610
C70	C	1.671661	0.499885	0.016390
C71	C	1.088563	-0.000104	-0.426431
C72	C	1.588563	0.499896	0.073569
C73	C	1.082996	-0.000103	0.287674
C74	C	1.582996	0.499897	0.787674
C75	C	1.084925	-0.000098	0.386972
C76	C	1.584925	0.499902	0.886972
H77	H	1.246407	-0.000146	-0.166444
H78	H	1.746407	0.499854	0.333556
H79	H	0.941595	-0.000087	-0.128227
H80	H	1.441595	0.499913	0.371773
F81	F	1.263883	-0.000131	-0.349996
F82	F	1.763883	0.499869	0.150004
F83	F	1.262032	-0.000126	-0.445171
F84	F	1.762032	0.499874	0.054829
H85	H	1.237504	-0.000118	-0.623470
H86	H	1.737504	0.499882	-0.123470
F87	F	0.911463	-0.000075	-0.594289
F88	F	1.411463	0.499925	-0.094289
H89	H	0.938303	-0.000076	-0.297496
H90	H	1.438303	0.499924	0.202504
H91	H	0.935985	-0.000077	-0.415991
H92	H	1.435985	0.499923	0.084009
