data_functionalizedCrystal
_audit_creation_method	'MofGen! by Chris Wilmer'
_symmetry_space_group_name_H-M	'P1'
_symmetry_Int_Tables_number	1
_symmetry_cell_setting	triclinic
loop_
_symmetry_equiv_pos_as_xyz
  x,y,z
_cell_length_a	18.101398
_cell_length_b	29.839131
_cell_length_c	18.101390
_cell_angle_alpha	89.964306
_cell_angle_beta	89.977223
_cell_angle_gamma	90.036686
loop_
_atom_site_label
_atom_site_type_symbol
_atom_site_fract_x
_atom_site_fract_y
_atom_site_fract_z
Zn1	Zn	1.132057	-0.178893	-0.418824
Zn2	Zn	1.465390	0.154440	-0.085491
Zn3	Zn	1.798723	0.487773	0.247843
Zn4	Zn	1.131934	-0.254029	-0.294976
Zn5	Zn	1.465267	0.079304	0.038357
Zn6	Zn	1.798600	0.412638	0.371690
Zn7	Zn	1.008219	-0.178908	-0.294985
Zn8	Zn	1.341552	0.154426	0.038348
Zn9	Zn	1.674886	0.487759	0.371682
Zn10	Zn	1.008144	-0.253991	-0.418765
Zn11	Zn	1.341477	0.079343	-0.085431
Zn12	Zn	1.674811	0.412676	0.247902
O13	O	1.070088	-0.216455	-0.356888
O14	O	1.403422	0.116878	-0.023554
O15	O	1.736755	0.450212	0.309779
O16	O	1.235673	-0.188870	-0.402416
O17	O	1.569006	0.144463	-0.069083
O18	O	1.902340	0.477796	0.264250
O19	O	1.115502	-0.244086	-0.191344
O20	O	1.448836	0.089248	0.141989
O21	O	1.782169	0.422581	0.475322
O22	O	1.024729	-0.116038	-0.311441
O23	O	1.358062	0.217295	0.021892
O24	O	1.691396	0.550628	0.355226
O25	O	1.235583	-0.244072	-0.311426
O26	O	1.568916	0.089261	0.021907
O27	O	1.902249	0.422595	0.355241
O28	O	1.115712	-0.116028	-0.402425
O29	O	1.449045	0.217305	-0.069092
O30	O	1.782379	0.550639	0.264242
O31	O	1.024610	-0.188894	-0.191351
O32	O	1.357943	0.144439	0.141982
O33	O	1.691276	0.477772	0.475316
O34	O	0.904576	-0.188857	-0.311384
O35	O	1.237909	0.144476	0.021950
O36	O	1.571243	0.477809	0.355283
O37	O	1.024601	-0.244007	-0.522406
O38	O	1.357935	0.089326	-0.189072
O39	O	1.691268	0.422660	0.144261
O40	O	0.904521	-0.244021	-0.402324
O41	O	1.237854	0.089312	-0.068991
O42	O	1.571188	0.422646	0.264343
O43	O	1.115640	-0.188833	-0.522449
O44	O	1.448973	0.144500	-0.189116
O45	O	1.782306	0.477833	0.144218
O46	O	1.115430	-0.316891	-0.311369
O47	O	1.448763	0.016442	0.021965
O48	O	1.782096	0.349776	0.355298
O49	O	1.024482	-0.316863	-0.402315
O50	O	1.357815	0.016470	-0.068982
O51	O	1.691149	0.349804	0.264351
C52	C	0.877678	-0.216437	-0.356849
C53	C	1.211011	0.116896	-0.023516
C54	C	1.544344	0.450230	0.309818
C55	C	0.795364	-0.216440	-0.356850
C56	C	1.128697	0.116893	-0.023517
C57	C	1.462030	0.450227	0.309817
C58	C	0.496273	-0.216468	-0.356912
C59	C	0.829606	0.116865	-0.023579
C60	C	1.162939	0.450199	0.309755
C61	C	0.527608	-0.181587	-0.299974
C62	C	0.860941	0.151746	0.033359
C63	C	1.194274	0.485080	0.366693
C64	C	0.613226	-0.181681	-0.299731
C65	C	0.946559	0.151653	0.033602
C66	C	1.279893	0.484986	0.366936
C67	C	0.644655	-0.216454	-0.356881
C68	C	0.977989	0.116880	-0.023548
C69	C	1.311322	0.450213	0.309785
C70	C	0.613524	-0.263779	-0.335553
C71	C	0.946857	0.069554	-0.002219
C72	C	1.280190	0.402888	0.331114
C73	C	0.527879	-0.263585	-0.335157
C74	C	0.861212	0.069748	-0.001824
C75	C	1.194545	0.403081	0.331510
C76	C	0.527889	-0.204435	-0.435313
C77	C	0.861222	0.128899	-0.101979
C78	C	1.194555	0.462232	0.231354
C79	C	0.613540	-0.203381	-0.434885
C80	C	0.946873	0.129952	-0.101551
C81	C	1.280207	0.463286	0.231782
C82	C	0.728515	-0.216448	-0.356865
C83	C	1.061848	0.116885	-0.023532
C84	C	1.395181	0.450218	0.309802
C85	C	0.412413	-0.216476	-0.356926
C86	C	0.745746	0.116857	-0.023593
C87	C	1.079080	0.450190	0.309740
C88	C	1.069955	-0.333178	-0.356851
C89	C	1.403288	0.000156	-0.023517
C90	C	1.736621	0.333489	0.309816
C91	C	1.069965	-0.383112	-0.356860
C92	C	1.403298	-0.049779	-0.023526
C93	C	1.736632	0.283555	0.309807
C94	C	1.117531	-0.692757	-0.309601
C95	C	1.450864	-0.359424	0.023733
C96	C	1.784197	-0.026091	0.357066
C97	C	1.117622	-0.880430	-0.309629
C98	C	1.450956	-0.547097	0.023704
C99	C	1.784289	-0.213764	0.357037
O100	O	1.157958	-0.904697	-0.269420
O101	O	1.491292	-0.571364	0.063914
O102	O	1.824625	-0.238030	0.397247
N103	N	1.070242	-0.903897	-0.356943
N104	N	1.403575	-0.570564	-0.023610
N105	N	1.736908	-0.237230	0.309723
C106	C	1.022839	-0.880443	-0.404257
C107	C	1.356172	-0.547109	-0.070924
C108	C	1.689505	-0.213776	0.262410
O109	O	0.982546	-0.904709	-0.444506
O110	O	1.315880	-0.571375	-0.111173
O111	O	1.649213	-0.238042	0.222160
C112	C	1.022751	-0.692771	-0.404231
C113	C	1.356085	-0.359437	-0.070898
C114	C	1.689418	-0.026104	0.262435
C115	C	1.070130	-0.669306	-0.356909
C116	C	1.403463	-0.335973	-0.023576
C117	C	1.736796	-0.002640	0.309758
C118	C	1.164906	-0.669293	-0.262283
C119	C	1.498239	-0.335960	0.071051
C120	C	1.831572	-0.002626	0.404384
C121	C	1.164880	-0.622378	-0.262273
C122	C	1.498213	-0.289044	0.071060
C123	C	1.831546	0.044289	0.404393
C124	C	1.117478	-0.598927	-0.309582
C125	C	1.450812	-0.265593	0.023752
C126	C	1.784145	0.067740	0.357085
C127	C	1.070104	-0.622391	-0.356899
C128	C	1.403437	-0.289057	-0.023566
C129	C	1.736770	0.044276	0.309767
C130	C	0.975353	-0.669317	-0.451548
C131	C	1.308686	-0.335984	-0.118215
C132	C	1.642019	-0.002650	0.215119
C133	C	0.975336	-0.622396	-0.451539
C134	C	1.308670	-0.289063	-0.118206
C135	C	1.642003	0.044271	0.215128
C136	C	1.022715	-0.598932	-0.404217
C137	C	1.356048	-0.265598	-0.070883
C138	C	1.689381	0.067735	0.262450
C139	C	1.022676	-0.552024	-0.404198
C140	C	1.356010	-0.218691	-0.070865
C141	C	1.689343	0.114642	0.262468
N142	N	1.070057	-0.528558	-0.356884
N143	N	1.403390	-0.195224	-0.023551
N144	N	1.736723	0.138109	0.309782
C145	C	1.117458	-0.552009	-0.309576
C146	C	1.450791	-0.218675	0.023757
C147	C	1.784124	0.114658	0.357091
C148	C	1.022887	-0.978973	-0.404266
C149	C	1.356220	-0.645640	-0.070933
C150	C	1.689553	-0.312307	0.262401
C151	C	1.022907	-1.025891	-0.404272
C152	C	1.356241	-0.692558	-0.070938
C153	C	1.689574	-0.359224	0.262395
C154	C	1.117692	-1.025876	-0.309645
C155	C	1.451025	-0.692542	0.023689
C156	C	1.784359	-0.359209	0.357022
C157	C	1.117667	-0.978957	-0.309636
C158	C	1.451000	-0.645624	0.023697
C159	C	1.784334	-0.312290	0.357031
C160	C	1.070267	-0.955507	-0.356952
C161	C	1.403600	-0.622173	-0.023619
C162	C	1.736934	-0.288840	0.309715
C163	C	1.117399	-0.453483	-0.309559
C164	C	1.450732	-0.120150	0.023774
C165	C	1.784065	0.213184	0.357108
C166	C	1.117366	-0.406563	-0.309551
C167	C	1.450699	-0.073230	0.023782
C168	C	1.784033	0.260103	0.357115
C169	C	1.022585	-0.406583	-0.404181
C170	C	1.355918	-0.073250	-0.070847
C171	C	1.689251	0.260084	0.262486
C172	C	1.022614	-0.453498	-0.404186
C173	C	1.355947	-0.120165	-0.070852
C174	C	1.689281	0.213168	0.262481
C175	C	1.070027	-0.476947	-0.356872
C176	C	1.403360	-0.143614	-0.023539
C177	C	1.736694	0.189719	0.309794
O178	O	0.982367	-0.527729	-0.444393
O179	O	1.315701	-0.194396	-0.111059
O180	O	1.649034	0.138938	0.222274
O181	O	1.157756	-0.527734	-0.269344
O182	O	1.491089	-0.194401	0.063989
O183	O	1.824422	0.138932	0.397323
C184	C	1.117557	-0.739673	-0.309610
C185	C	1.450890	-0.406340	0.023723
C186	C	1.784224	-0.073006	0.357056
C187	C	1.070182	-0.763137	-0.356928
C188	C	1.403515	-0.429804	-0.023595
C189	C	1.736849	-0.096471	0.309739
C190	C	1.022781	-0.739686	-0.404237
C191	C	1.356114	-0.406353	-0.070903
C192	C	1.689448	-0.073019	0.262430
C193	C	1.070203	-0.810055	-0.356934
C194	C	1.403536	-0.476722	-0.023600
C195	C	1.736869	-0.143388	0.309733
C196	C	1.117604	-0.833506	-0.309625
C197	C	1.450937	-0.500173	0.023708
C198	C	1.784271	-0.166839	0.357041
C199	C	1.164984	-0.810039	-0.262311
C200	C	1.498318	-0.476706	0.071022
C201	C	1.831651	-0.143373	0.404355
C202	C	1.164958	-0.763124	-0.262302
C203	C	1.498291	-0.429791	0.071031
C204	C	1.831625	-0.096457	0.404365
C205	C	0.975401	-0.763153	-0.451550
C206	C	1.308734	-0.429819	-0.118217
C207	C	1.642067	-0.096486	0.215116
C208	C	0.975430	-0.810068	-0.451556
C209	C	1.308763	-0.476735	-0.118222
C210	C	1.642097	-0.143402	0.215111
C211	C	1.022831	-0.833519	-0.404247
C212	C	1.356164	-0.500186	-0.070914
C213	C	1.689498	-0.166853	0.262419
C214	C	1.263250	-0.216474	-0.356927
C215	C	1.596583	0.116860	-0.023593
C216	C	1.929917	0.450193	0.309740
C217	C	1.345564	-0.216482	-0.356943
C218	C	1.678898	0.116852	-0.023610
C219	C	2.012231	0.450185	0.309723
C220	C	1.070126	-0.216414	-0.550050
C221	C	1.403459	0.116919	-0.216716
C222	C	1.736793	0.450252	0.116617
C223	C	1.070142	-0.216397	-0.632364
C224	C	1.403475	0.116936	-0.299030
C225	C	1.736809	0.450270	0.034303
C226	C	1.070243	-0.099277	-0.356941
C227	C	1.403576	0.234057	-0.023607
C228	C	1.736909	0.567390	0.309726
C229	C	1.070308	-0.049342	-0.356963
C230	C	1.403642	0.283991	-0.023630
C231	C	1.736975	0.617324	0.309703
C232	C	1.070168	-0.216383	-0.783072
C233	C	1.403502	0.116950	-0.449739
C234	C	1.736835	0.450284	-0.116405
C235	C	1.127449	-0.181666	-0.814453
C236	C	1.460782	0.151668	-0.481120
C237	C	1.794116	0.485001	-0.147787
C238	C	1.127688	-0.181760	-0.900072
C239	C	1.461022	0.151573	-0.566738
C240	C	1.794355	0.484907	-0.233405
C241	C	1.070194	-0.216368	-0.931455
C242	C	1.403528	0.116965	-0.598121
C243	C	1.736861	0.450298	-0.264788
C244	C	1.091056	-0.263754	-0.900342
C245	C	1.424389	0.069579	-0.567009
C246	C	1.757723	0.402912	-0.233676
C247	C	1.091457	-0.263562	-0.814697
C248	C	1.424790	0.069772	-0.481364
C249	C	1.758123	0.403105	-0.148031
C250	C	0.991887	-0.204125	-0.814623
C251	C	1.325220	0.129209	-0.481290
C252	C	1.658554	0.462542	-0.147957
C253	C	0.992322	-0.203072	-0.900275
C254	C	1.325656	0.130261	-0.566941
C255	C	1.658989	0.463595	-0.233608
C256	C	1.070208	-0.216363	-1.015314
C257	C	1.403541	0.116970	-0.681981
C258	C	1.736875	0.450304	-0.348648
C259	C	1.070157	-0.216391	-0.699213
C260	C	1.403490	0.116942	-0.365879
C261	C	1.736823	0.450275	-0.032546
C262	C	1.070093	-0.216463	-0.164477
C263	C	1.403427	0.116870	0.168856
C264	C	1.736760	0.450203	0.502190
C265	C	1.070221	-0.216354	-0.082163
C266	C	1.403554	0.116979	0.251170
C267	C	1.736888	0.450312	0.584503
H268	H	0.633894	-0.168555	-0.450967
H269	H	0.967227	0.164779	-0.117634
H270	H	1.300560	0.498112	0.215700
N271	N	1.038584	-0.299007	-0.787189
N272	N	1.371917	0.034327	-0.453855
N273	N	1.705251	0.367660	-0.120522
H274	H	1.066364	-0.321578	-0.756260
H275	H	1.399697	0.011755	-0.422927
H276	H	1.733030	0.345089	-0.089593
H277	H	0.998863	-0.284467	-0.756211
H278	H	1.332196	0.048866	-0.422877
H279	H	1.665530	0.382200	-0.089544
H280	H	0.507623	-0.229841	-0.477737
H281	H	0.840957	0.103493	-0.144403
H282	H	1.174290	0.436826	0.188930
N283	N	0.966638	-0.159138	-0.786038
N284	N	1.299971	0.174196	-0.452705
N285	N	1.633305	0.507529	-0.119371
H286	H	1.003012	-0.135259	-0.801655
H287	H	1.336345	0.198074	-0.468322
H288	H	1.669678	0.531407	-0.134989
H289	H	0.916300	-0.151976	-0.806977
H290	H	1.249633	0.181357	-0.473644
H291	H	1.582967	0.514690	-0.140311
N292	N	0.971750	-0.953687	-0.455298
N293	N	1.305083	-0.620353	-0.121964
N294	N	1.638416	-0.287020	0.211369
H295	H	0.937440	-0.934253	-0.425164
H296	H	1.270773	-0.600920	-0.091830
H297	H	1.604106	-0.267587	0.241503
H298	H	1.001859	-0.934215	-0.489643
H299	H	1.335192	-0.600882	-0.156309
H300	H	1.668526	-0.267548	0.177024
N301	N	0.971482	-0.156880	-0.927221
N302	N	1.304815	0.176453	-0.593887
N303	N	1.638149	0.509787	-0.260554
H304	H	0.924241	-0.158693	-0.956743
H305	H	1.257574	0.174640	-0.623409
H306	H	1.590907	0.507974	-0.290076
H307	H	0.963979	-0.136403	-0.883455
H308	H	1.297312	0.196930	-0.550121
H309	H	1.630645	0.530263	-0.216788
H310	H	0.506058	-0.189452	-0.242218
H311	H	0.839391	0.143881	0.091115
H312	H	1.172724	0.477214	0.424448
H313	H	0.947393	-0.226498	-0.921634
H314	H	1.280726	0.106836	-0.588301
H315	H	1.614060	0.440169	-0.254968
H316	H	1.185702	-0.189882	-0.920573
H317	H	1.519035	0.143451	-0.587239
H318	H	1.852369	0.476784	-0.253906
N319	N	0.640475	-0.299138	-0.388751
N320	N	0.973809	0.034195	-0.055417
N321	N	1.307142	0.367529	0.277916
H322	H	0.596764	-0.313735	-0.413716
H323	H	0.930097	0.019598	-0.080383
H324	H	1.263431	0.352931	0.252950
H325	H	0.673221	-0.284759	-0.427248
H326	H	1.006555	0.048574	-0.093915
H327	H	1.339888	0.381908	0.239419
N328	N	0.971793	-1.051193	-0.455303
N329	N	1.305127	-0.717859	-0.121970
N330	N	1.638460	-0.384526	0.211363
H331	H	0.983260	-1.042996	-0.508226
H332	H	1.316593	-0.709663	-0.174893
H333	H	1.649926	-0.376330	0.158441
H334	H	0.979014	-1.084467	-0.448072
H335	H	1.312347	-0.751133	-0.114739
H336	H	1.645681	-0.417800	0.218595
N337	N	1.216116	-0.835335	-0.211287
N338	N	1.549449	-0.502002	0.122047
N339	N	1.882783	-0.168668	0.455380
H340	H	1.204646	-0.827203	-0.158358
H341	H	1.537979	-0.493870	0.174975
H342	H	1.871313	-0.160536	0.508308
H343	H	1.208917	-0.868609	-0.218539
H344	H	1.542251	-0.535276	0.114794
H345	H	1.875584	-0.201943	0.448127
H346	H	1.185126	-0.189694	-0.792944
H347	H	1.518459	0.143640	-0.459611
H348	H	1.851792	0.476973	-0.126277
H349	H	0.507048	-0.146386	-0.313196
H350	H	0.840381	0.186947	0.020137
H351	H	1.173714	0.520280	0.353470
H352	H	0.634937	-0.226935	-0.479582
H353	H	0.968270	0.106399	-0.146248
H354	H	1.301603	0.439732	0.187085
N355	N	1.168471	-0.381255	-0.258511
N356	N	1.501804	-0.047922	0.074822
N357	N	1.835137	0.285411	0.408156
H358	H	1.198505	-0.403234	-0.228547
H359	H	1.531838	-0.069901	0.104786
H360	H	1.865171	0.263433	0.438120
H361	H	1.202713	-0.361756	-0.288689
H362	H	1.536046	-0.028423	0.044644
H363	H	1.869379	0.304910	0.377977
N364	N	1.168777	-0.953654	-0.258601
N365	N	1.502110	-0.620321	0.074732
N366	N	1.835443	-0.286988	0.408065
H367	H	1.203071	-0.934158	-0.288730
H368	H	1.536404	-0.600825	0.044603
H369	H	1.869738	-0.267492	0.377937
H370	H	1.138647	-0.934244	-0.224255
H371	H	1.471980	-0.600911	0.109078
H372	H	1.805314	-0.267577	0.442411
H373	H	1.050620	-0.290324	-0.920666
H374	H	1.383953	0.043009	-0.587333
H375	H	1.717287	0.376343	-0.254000
H376	H	1.203509	-0.688382	-0.223758
H377	H	1.536843	-0.355049	0.109575
H378	H	1.870176	-0.021715	0.442908
H379	H	0.936769	-0.688414	-0.490080
H380	H	1.270102	-0.355080	-0.156746
H381	H	1.603435	-0.021747	0.176587
H382	H	0.633679	-0.189636	-0.241637
H383	H	0.967012	0.143697	0.091696
H384	H	1.300345	0.477031	0.425029
H385	H	1.156009	-0.472569	-0.271034
H386	H	1.489342	-0.139236	0.062300
H387	H	1.822675	0.194097	0.395633
H388	H	0.983989	-0.387482	-0.442696
H389	H	1.317322	-0.054148	-0.109363
H390	H	1.650655	0.279185	0.223970
H391	H	0.634937	-0.274160	-0.278857
H392	H	0.968270	0.059173	0.054476
H393	H	1.301603	0.392506	0.387810
N394	N	0.499352	-0.159517	-0.461019
N395	N	0.832686	0.173816	-0.127686
N396	N	1.166019	0.507149	0.205647
H397	H	0.443656	-0.160452	-0.463979
H398	H	0.776989	0.172882	-0.130645
H399	H	1.110323	0.506215	0.202688
H400	H	0.515001	-0.135561	-0.424864
H401	H	0.848334	0.197773	-0.091531
H402	H	1.181667	0.531106	0.241802
H403	H	0.949213	-0.229409	-0.794325
H404	H	1.282547	0.103924	-0.460991
H405	H	1.615880	0.437258	-0.127658
H406	H	1.148671	-0.273930	-0.794732
H407	H	1.482004	0.059404	-0.461398
H408	H	1.815337	0.392737	-0.128065
H409	H	0.634277	-0.146587	-0.313101
H410	H	0.967610	0.186746	0.020233
H411	H	1.300943	0.520080	0.353566
N412	N	1.168816	-1.051177	-0.258620
N413	N	1.502149	-0.717844	0.074713
N414	N	1.835482	-0.384510	0.408047
H415	H	1.203118	-1.070611	-0.288762
H416	H	1.536451	-0.737278	0.044571
H417	H	1.869785	-0.403944	0.377905
H418	H	1.198785	-1.029170	-0.228652
H419	H	1.532118	-0.695836	0.104681
H420	H	1.865452	-0.362503	0.438015
N421	N	0.501361	-0.277101	-0.259240
N422	N	0.834694	0.056232	0.074093
N423	N	1.168027	0.389566	0.407427
H424	H	0.545307	-0.283128	-0.226346
H425	H	0.878640	0.050205	0.106987
H426	H	1.211973	0.383539	0.440321
H427	H	0.470740	-0.252102	-0.237447
H428	H	0.804074	0.081232	0.095886
H429	H	1.137407	0.414565	0.429219
H430	H	1.114656	-0.146629	-0.921110
H431	H	1.447990	0.186704	-0.587777
H432	H	1.781323	0.520037	-0.254443
N433	N	0.500402	-0.299175	-0.387685
N434	N	0.833735	0.034158	-0.054352
N435	N	1.167068	0.367491	0.278981
H436	H	0.519086	-0.292580	-0.439141
H437	H	0.852420	0.040753	-0.105807
H438	H	1.185753	0.374087	0.227526
H439	H	0.519112	-0.329453	-0.371209
H440	H	0.852446	0.003881	-0.037876
H441	H	1.185779	0.337214	0.295458
H442	H	0.936738	-0.603305	-0.490072
H443	H	1.270072	-0.269972	-0.156738
H444	H	1.603405	0.063362	0.176595
N445	N	1.215991	-0.597073	-0.211244
N446	N	1.549325	-0.263740	0.122090
N447	N	1.882658	0.069594	0.455423
H448	H	1.246024	-0.619054	-0.181284
H449	H	1.579357	-0.285721	0.152049
H450	H	1.912691	0.047612	0.485383
H451	H	1.250235	-0.577578	-0.241429
H452	H	1.583568	-0.244245	0.091905
H453	H	1.916901	0.089089	0.425238
H454	H	0.984037	-0.472604	-0.442722
H455	H	1.317370	-0.139271	-0.109388
H456	H	1.650704	0.194063	0.223945
N457	N	0.924319	-0.835374	-0.502593
N458	N	1.257652	-0.502040	-0.169259
N459	N	1.590986	-0.168707	0.164074
H460	H	0.894290	-0.813394	-0.532558
H461	H	1.227623	-0.480060	-0.199225
H462	H	1.560956	-0.146727	0.134108
H463	H	0.954452	-0.854806	-0.536901
H464	H	1.287786	-0.521473	-0.203568
H465	H	1.621119	-0.188139	0.129765
H466	H	1.203538	-0.744023	-0.223768
H467	H	1.536871	-0.410689	0.109566
H468	H	1.870205	-0.077356	0.442899
H469	H	0.936802	-0.744062	-0.490076
H470	H	1.270135	-0.410729	-0.156742
H471	H	1.603468	-0.077396	0.176591
N472	N	1.110407	-0.134987	-0.787202
N473	N	1.443740	0.198346	-0.453869
N474	N	1.777074	0.531680	-0.120536
H475	H	1.065391	-0.135890	-0.754248
H476	H	1.398725	0.197444	-0.420915
H477	H	1.732058	0.530777	-0.087582
H478	H	1.153974	-0.123120	-0.758363
H479	H	1.487307	0.210213	-0.425030
H480	H	1.820640	0.543547	-0.091697
N481	N	1.166012	-0.277728	-0.928773
N482	N	1.499345	0.055605	-0.595440
N483	N	1.832678	0.388938	-0.262106
H484	H	1.186563	-0.253436	-0.961798
H485	H	1.519896	0.079897	-0.628464
H486	H	1.853229	0.413231	-0.295131
H487	H	1.200506	-0.282658	-0.885691
H488	H	1.533839	0.050676	-0.552358
H489	H	1.867173	0.384009	-0.219025
