data_functionalizedCrystal
_audit_creation_method	'MofGen! by Chris Wilmer'
_symmetry_space_group_name_H-M	'P1'
_symmetry_Int_Tables_number	1
_symmetry_cell_setting	triclinic
loop_
_symmetry_equiv_pos_as_xyz
  x,y,z
_cell_length_a	19.188930
_cell_length_b	19.188924
_cell_length_c	10.268362
_cell_angle_alpha	89.992651
_cell_angle_beta	89.981535
_cell_angle_gamma	83.143372
loop_
_atom_site_label
_atom_site_type_symbol
_atom_site_fract_x
_atom_site_fract_y
_atom_site_fract_z
O1	O	0.926143	0.087168	-0.108725
O2	O	1.426143	0.587168	0.391275
O3	O	0.722831	0.098903	-0.108636
O4	O	1.222831	0.598903	0.391364
O5	O	0.830357	-0.008620	-0.108668
O6	O	1.330357	0.491380	0.391332
O7	O	0.818617	0.194692	-0.108693
O8	O	1.318617	0.694692	0.391307
O9	O	0.830347	-0.008625	0.107933
O10	O	1.330347	0.491375	0.607933
O11	O	0.722822	0.098898	0.107964
O12	O	1.222822	0.598898	0.607964
O13	O	0.926133	0.087164	0.107876
O14	O	1.426133	0.587164	0.607876
Cu15	Cu	0.824477	0.093031	0.127698
Cu16	Cu	1.324477	0.593031	0.627698
Cu17	Cu	0.824488	0.093036	-0.128458
Cu18	Cu	1.324488	0.593036	0.371542
O19	O	0.818608	0.194687	0.107907
O20	O	1.318608	0.694687	0.607907
C21	C	0.696815	0.098521	-0.000324
C22	C	1.196815	0.598521	0.499676
C23	C	0.619311	0.097380	-0.000290
C24	C	1.119311	0.597380	0.499710
C25	C	0.574385	0.160471	-0.000318
C26	C	1.074385	0.660471	0.499682
C27	C	0.501562	0.159399	-0.000333
C28	C	1.001562	0.659399	0.499667
C29	C	0.473667	0.095233	-0.000345
C30	C	0.973667	0.595233	0.499655
C31	C	0.518602	0.032134	-0.000309
C32	C	1.018602	0.532134	0.499691
C33	C	0.591424	0.033207	-0.000282
C34	C	1.091424	0.533207	0.499718
N35	N	0.365691	0.046187	-0.074110
N36	N	0.865691	0.546187	0.425890
N37	N	0.296512	0.045172	-0.074138
N38	N	0.796512	0.545172	0.425862
C39	C	0.254258	0.091995	-0.000424
C40	C	0.754258	0.591995	0.499576
N41	N	0.283795	0.139882	0.073304
N42	N	0.783795	0.639882	0.573304
N43	N	0.352979	0.140900	0.073327
N44	N	0.852979	0.640900	0.573327
C45	C	0.394704	0.094062	-0.000373
C46	C	0.894704	0.594062	0.499627
C47	C	0.130368	0.153928	-0.000466
C48	C	0.630368	0.653928	0.499534
C49	C	0.057543	0.152854	-0.000472
C50	C	0.557543	0.652854	0.499528
C51	C	0.074585	0.025586	-0.000461
C52	C	0.574585	0.525586	0.499539
C53	C	0.147409	0.026663	-0.000442
C54	C	0.647409	0.526663	0.499558
C55	C	0.175295	0.090835	-0.000450
C56	C	0.675295	0.590835	0.499550
C57	C	0.829973	-0.034634	-0.000366
C58	C	1.329973	0.465366	0.499634
C59	C	0.828834	-0.112138	-0.000362
C60	C	1.328834	0.387862	0.499638
C61	C	0.828307	-0.148535	-0.118431
C62	C	1.328307	0.351465	0.381569
C63	C	0.827227	-0.221358	-0.118441
C64	C	1.327227	0.278642	0.381559
C65	C	0.826688	-0.257783	-0.000374
C66	C	1.326688	0.242217	0.499626
C67	C	0.827211	-0.221377	0.117710
C68	C	1.327211	0.278623	0.617710
C69	C	0.828283	-0.148555	0.117717
C70	C	1.328283	0.351445	0.617717
N71	N	0.864732	-0.377448	0.087483
N72	N	1.364732	0.122552	0.587483
N73	N	0.863714	-0.446626	0.087469
N74	N	1.363714	0.053374	0.587469
C75	C	0.823454	-0.477192	-0.000385
C76	C	1.323454	0.022808	0.499615
N77	N	0.784258	-0.435967	-0.088246
N78	N	1.284258	0.064033	0.411754
N79	N	0.785279	-0.366783	-0.088235
N80	N	1.285279	0.133217	0.411765
C81	C	0.825524	-0.336746	-0.000368
C82	C	1.325524	0.163254	0.499632
C83	C	0.821756	-0.592551	-0.118473
C84	C	1.321756	-0.092551	0.381527
C85	C	0.820671	-0.665375	-0.118477
C86	C	1.320671	-0.165375	0.381523
C87	C	0.820661	-0.665394	0.117677
C88	C	1.320661	-0.165394	0.617677
C89	C	0.821739	-0.592571	0.117678
C90	C	1.321739	-0.092571	0.617678
C91	C	0.822289	-0.556154	-0.000400
C92	C	1.322289	-0.056154	0.499600
C93	C	0.952149	0.087546	-0.000439
C94	C	1.452149	0.587546	0.499561
C95	C	1.029654	0.088687	-0.000482
C96	C	1.529654	0.588687	0.499518
C97	C	0.818992	0.220700	-0.000397
C98	C	1.318992	0.720700	0.499603
C99	C	0.820131	0.298205	-0.000410
C100	C	1.320131	0.798205	0.499590
N101	N	0.824474	0.093027	0.307863
N102	N	1.324474	0.593027	0.807863
N103	N	0.824496	0.093035	-0.308624
N104	N	1.324496	0.593035	0.191376
C105	C	0.824484	0.093035	0.573534
C106	C	1.324484	0.593035	1.073534
C107	C	0.824476	0.093032	0.425696
C108	C	1.324476	0.593032	0.925696
H109	H	0.020965	0.204232	-0.000487
H110	H	0.520965	0.704232	0.499513
C111	C	0.043910	-0.044995	-0.000482
C112	C	0.543910	0.455005	0.499518
H113	H	-0.005895	-0.036600	-0.000512
H114	H	0.494105	0.463400	0.499488
H115	H	0.059324	-0.070970	0.075054
H116	H	0.559324	0.429030	0.575054
H117	H	0.059366	-0.070958	-0.076023
H118	H	0.559366	0.429042	0.423977
H119	H	0.183988	-0.024713	-0.000426
H120	H	0.683988	0.475287	0.499574
C121	C	0.452132	0.228800	-0.000370
C122	C	0.952132	0.728800	0.499630
H123	H	0.404768	0.218968	-0.000378
H124	H	0.904768	0.718968	0.499622
H125	H	0.460586	0.255120	-0.075905
H126	H	0.960586	0.755120	0.424095
H127	H	0.460541	0.255123	0.075172
H128	H	0.960541	0.755123	0.575172
C129	C	0.822322	-0.552530	0.247552
C130	C	1.322322	-0.052530	0.747552
H131	H	0.823032	-0.503942	0.230647
H132	H	1.323032	-0.003942	0.730647
H133	H	0.862849	-0.569917	0.296055
H134	H	1.362849	-0.069917	0.796055
H135	H	0.781431	-0.559019	0.296075
H136	H	1.281431	-0.059019	0.796075
C137	C	0.820089	-0.705411	-0.248360
C138	C	1.320089	-0.205411	0.251640
H139	H	0.820576	-0.673291	-0.318677
H140	H	1.320576	-0.173291	0.181323
H141	H	0.778963	-0.728366	-0.253260
H142	H	1.278963	-0.228366	0.246740
H143	H	0.860380	-0.739270	-0.253282
H144	H	1.360380	-0.239270	0.246718
C145	C	0.828900	-0.108479	-0.248312
C146	C	1.328900	0.391521	0.251688
H147	H	0.828425	-0.140589	-0.318632
H148	H	1.328425	0.359411	0.181368
H149	H	0.870023	-0.085516	-0.253242
H150	H	1.370023	0.414484	0.246758
H151	H	0.788605	-0.074624	-0.253197
H152	H	1.288605	0.425376	0.246803
C153	C	0.161047	0.224514	-0.000462
C154	C	0.661047	0.724514	0.499538
H155	H	0.123858	0.261936	-0.000462
H156	H	0.623858	0.761936	0.499538
H157	H	0.189119	0.227580	-0.075988
H158	H	0.689119	0.727580	0.424012
H159	H	0.189082	0.227575	0.075089
H160	H	0.689082	0.727575	0.575089
H161	H	0.826794	-0.250997	-0.214590
H162	H	1.326794	0.249003	0.285410
H163	H	0.828709	-0.118921	0.213866
H164	H	1.328709	0.381079	0.713866
C165	C	0.605058	0.231058	-0.000304
C166	C	1.105058	0.731058	0.499696
H167	H	0.567867	0.268479	-0.000309
H168	H	1.067867	0.768479	0.499691
H169	H	0.633135	0.234128	-0.075821
H170	H	1.133135	0.734128	0.424179
H171	H	0.633086	0.234118	0.075255
H172	H	1.133086	0.734118	0.575255
H173	H	0.826769	-0.251039	0.213841
H174	H	1.326769	0.248961	0.713841
C175	C	0.820062	-0.705452	0.247548
C176	C	1.320062	-0.205452	0.747548
H177	H	0.819350	-0.754036	0.230637
H178	H	1.319350	-0.254036	0.730637
H179	H	0.779529	-0.688069	0.296076
H180	H	1.279529	-0.188069	0.796076
H181	H	0.860947	-0.698975	0.296049
H182	H	1.360947	-0.198975	0.796049
C183	C	0.640844	-0.036196	-0.000266
C184	C	1.140844	0.463804	0.499734
H185	H	0.613804	-0.074567	-0.000282
H186	H	1.113804	0.425433	0.499718
H187	H	0.669590	-0.038426	0.075272
H188	H	1.169590	0.461574	0.575272
H189	H	0.669622	-0.038418	-0.075804
H190	H	1.169622	0.461582	0.424196
H191	H	0.495885	-0.020111	-0.000336
H192	H	0.995885	0.479889	0.499664
H193	H	0.822200	-0.562899	-0.214619
H194	H	1.322200	-0.062899	0.285381
