data_functionalizedCrystal
_audit_creation_method	'MofGen! by Chris Wilmer'
_symmetry_space_group_name_H-M	'P1'
_symmetry_Int_Tables_number	1
_symmetry_cell_setting	triclinic
loop_
_symmetry_equiv_pos_as_xyz
  x,y,z
_cell_length_a	18.050591
_cell_length_b	18.050589
_cell_length_c	17.077396
_cell_angle_alpha	89.975358
_cell_angle_beta	89.975554
_cell_angle_gamma	90.024669
loop_
_atom_site_label
_atom_site_type_symbol
_atom_site_fract_x
_atom_site_fract_y
_atom_site_fract_z
Zn1	Zn	1.135327	-0.295730	-0.443967
Zn2	Zn	1.135227	-0.419927	-0.312710
Zn3	Zn	1.011136	-0.295748	-0.312704
Zn4	Zn	1.011094	-0.419875	-0.443922
O5	O	1.073196	-0.357820	-0.378326
O6	O	1.239238	-0.312219	-0.426577
O7	O	1.118742	-0.403484	-0.202862
O8	O	1.027669	-0.191821	-0.330132
O9	O	1.239165	-0.403466	-0.330143
O10	O	1.118912	-0.191808	-0.426571
O11	O	1.027573	-0.312250	-0.202858
O12	O	0.907206	-0.312199	-0.330089
O13	O	1.027598	-0.403377	-0.553775
O14	O	0.907175	-0.403395	-0.426494
O15	O	1.118871	-0.312169	-0.553808
O16	O	1.118702	-0.523845	-0.330099
O17	O	1.027501	-0.523806	-0.426500
C18	C	0.880244	-0.357794	-0.378287
C19	C	0.797698	-0.357800	-0.378288
C20	C	0.548868	-0.308157	-0.325987
C21	C	0.598305	-0.290068	-0.397624
C22	C	0.500578	-0.357838	-0.378353
C23	C	0.598222	-0.375873	-0.306688
C24	C	0.646563	-0.357818	-0.378317
C25	C	0.548928	-0.339715	-0.450028
C26	C	0.548840	-0.425551	-0.359043
C27	C	0.598256	-0.407488	-0.430730
C28	C	0.416480	-0.357848	-0.378372
C29	C	0.730659	-0.357808	-0.378306
C30	C	1.073106	-0.550772	-0.378313
C31	C	1.073136	-0.633318	-0.378333
C32	C	1.023590	-0.832774	-0.430738
C33	C	1.005487	-0.882215	-0.359107
C34	C	1.073209	-0.784448	-0.378344
C35	C	1.091349	-0.882089	-0.449983
C36	C	1.073278	-0.930433	-0.378360
C37	C	1.055070	-0.832801	-0.306675
C38	C	1.140964	-0.832671	-0.397599
C39	C	1.122886	-0.882089	-0.325919
C40	C	1.073167	-0.700350	-0.378335
C41	C	1.073320	-1.014530	-0.378360
C42	C	1.266902	-0.357847	-0.378366
C43	C	1.349447	-0.357858	-0.378383
C44	C	1.073241	-0.357765	-0.583070
C45	C	1.073260	-0.357742	-0.670320
C46	C	1.073306	-0.164114	-0.378356
C47	C	1.073353	-0.081568	-0.378369
C48	C	1.120788	-0.310245	-0.711329
C49	C	1.120797	-0.310221	-0.793309
C50	C	1.073281	-0.357697	-0.834280
C51	C	1.025748	-0.405195	-0.793265
C52	C	1.025736	-0.405216	-0.711286
C53	C	1.025778	-0.405150	-0.964135
C54	C	1.025791	-0.405131	-1.046120
C55	C	1.120839	-0.310156	-1.046158
C56	C	1.120827	-0.310176	-0.964179
C57	C	1.073295	-0.357676	-0.923171
C58	C	1.073194	-0.357821	-0.174378
C59	C	1.073319	-0.357635	-0.087129
H60	H	0.619803	-0.449494	-0.475050
O61	O	1.036840	-0.807122	-0.234336
C62	C	1.088920	-0.832851	-0.179164
H63	H	1.142995	-0.846943	-0.210271
H64	H	1.099507	-0.787914	-0.133633
H65	H	1.066371	-0.884499	-0.148974
H66	H	1.164877	-0.903606	-0.281566
H67	H	0.527098	-0.482807	-0.342700
O68	O	0.973406	-0.807059	-0.483532
C69	C	0.937835	-0.867387	-0.520077
H70	H	0.941687	-0.918272	-0.480730
H71	H	0.877118	-0.853159	-0.530574
H72	H	0.965934	-0.879512	-0.578479
H73	H	1.106664	-0.903740	-0.510561
H74	H	0.987061	-0.443818	-0.930749
O75	O	0.522901	-0.257965	-0.273340
C76	C	0.478922	-0.205026	-0.312360
H77	H	0.457278	-0.229605	-0.369421
H78	H	0.430200	-0.188828	-0.273484
H79	H	0.513725	-0.153837	-0.325728
H80	H	0.987098	-0.443789	-1.079476
O81	O	1.209242	-0.806720	-0.417185
C82	C	1.228126	-0.831802	-0.492778
H83	H	1.175487	-0.845705	-0.526590
H84	H	1.259977	-0.786548	-0.525004
H85	H	1.264182	-0.883433	-0.487868
O86	O	0.979628	-0.451416	-0.832976
C87	C	0.995824	-0.525442	-0.812949
H88	H	1.024361	-0.527000	-0.753433
H89	H	0.942207	-0.558736	-0.810124
H90	H	1.034000	-0.550450	-0.859092
O91	O	0.623967	-0.394001	-0.234346
C92	C	0.598817	-0.341473	-0.179351
H93	H	0.546839	-0.313219	-0.202672
H94	H	0.585462	-0.370523	-0.121760
H95	H	0.643811	-0.298203	-0.169150
O96	O	0.979676	-0.451392	-0.671357
C97	C	1.021929	-0.499384	-0.623955
H98	H	1.078223	-0.473201	-0.611701
H99	H	0.991669	-0.509343	-0.566293
H100	H	1.030060	-0.554415	-0.655538
O101	O	1.166970	-0.264057	-0.671655
C102	C	1.208932	-0.222143	-0.725434
H103	H	1.178522	-0.219554	-0.783863
H104	H	1.216884	-0.163636	-0.701761
H105	H	1.265321	-0.249343	-0.734165
H106	H	1.159500	-0.271546	-0.826695
H107	H	1.159522	-0.271521	-0.930823
H108	H	0.527365	-0.324385	-0.510636
O109	O	0.937175	-0.908269	-0.339787
C110	C	0.909648	-0.952304	-0.401437
H111	H	0.957853	-0.973898	-0.438028
H112	H	0.877325	-1.001060	-0.376206
H113	H	0.871507	-0.917563	-0.439928
O114	O	0.624198	-0.221700	-0.416967
C115	C	0.599024	-0.169494	-0.361642
H116	H	0.585119	-0.198963	-0.304436
H117	H	0.644224	-0.126606	-0.350701
H118	H	0.547376	-0.140699	-0.385051
O119	O	1.166933	-0.264027	-1.086111
C120	C	1.156764	-0.274194	-1.167253
H121	H	1.099441	-0.298511	-1.178427
H122	H	1.161828	-0.218555	-1.198414
H123	H	1.200798	-0.313734	-1.190532
