data_functionalizedCrystal
_audit_creation_method	'MofGen! by Chris Wilmer'
_symmetry_space_group_name_H-M	'P1'
_symmetry_Int_Tables_number	1
_symmetry_cell_setting	triclinic
loop_
_symmetry_equiv_pos_as_xyz
  x,y,z
_cell_length_a	12.970454
_cell_length_b	14.560438
_cell_length_c	14.560438
_cell_angle_alpha	60.000361
_cell_angle_beta	90.000065
_cell_angle_gamma	60.000800
loop_
_atom_site_label
_atom_site_type_symbol
_atom_site_fract_x
_atom_site_fract_y
_atom_site_fract_z
Zr1	Zr	-0.135289	1.005291	0.884754
O2	O	-0.299908	1.196890	0.738107
O3	O	-0.084827	0.813691	0.929708
O4	O	-0.299914	1.005293	0.929708
O5	O	0.084847	1.005288	0.738108
O6	O	-0.299915	1.005296	1.080846
O7	O	-0.084821	1.005289	0.738108
O8	O	0.084836	0.662555	1.080847
O9	O	-0.299904	1.348028	0.738107
O10	O	-0.063303	0.892502	1.061674
O11	O	0.063319	0.892499	0.948882
O12	O	-0.189918	1.118085	0.948881
O13	O	-0.063296	1.118083	0.836089
Zr14	Zr	0.135309	1.005295	1.125802
Zr15	Zr	-0.135291	1.005296	1.125801
Zr16	Zr	0.135311	1.005290	0.884755
Zr17	Zr	-0.135284	1.246339	0.884754
Zr18	Zr	0.135304	0.764247	1.125802
O19	O	0.084847	1.196895	1.080848
O20	O	-0.299911	1.196896	1.080846
O21	O	0.084851	1.196889	0.738109
O22	O	0.299928	0.813696	1.272449
O23	O	-0.084831	0.813698	1.272447
O24	O	0.299931	0.813690	0.929710
O25	O	-0.084827	1.005298	1.272448
O26	O	0.299934	1.005293	1.080848
O27	O	0.299935	1.005290	0.929710
O28	O	0.084841	1.005298	1.272448
O29	O	-0.299906	1.348032	0.929708
O30	O	0.299926	0.662554	1.080848
O31	O	0.299924	0.662558	1.272449
O32	O	0.084833	0.662559	1.272448
O33	O	-0.084814	1.348027	0.738108
O34	O	-0.084816	1.348031	0.929709
O35	O	0.189938	0.892501	1.061675
O36	O	0.063316	0.892503	1.174467
O37	O	-0.063299	1.118087	1.061674
O38	O	0.063323	1.118084	0.948882
C39	C	0.000004	0.703779	1.005277
C40	C	0.000001	0.601448	1.005277
C41	C	-0.066094	0.553374	1.064151
C42	C	-0.066082	0.457214	1.064156
C43	C	0.066122	0.457217	0.946403
C44	C	0.066117	0.553368	0.946406
C45	C	-0.338469	1.005295	1.005277
C46	C	-0.453346	1.005295	1.005276
C47	C	0.338489	1.005292	1.005279
C48	C	0.453366	1.005291	1.005280
C49	C	0.000013	1.005288	0.703764
C50	C	0.000014	1.005286	0.601433
C51	C	0.000016	1.306807	1.005279
C52	C	0.000018	1.409138	1.005279
C53	C	0.066101	0.887543	0.516069
C54	C	0.066102	0.887535	0.612225
C55	C	-0.066089	1.123052	0.494476
C56	C	-0.066097	1.123059	0.398322
C57	C	0.000007	1.005299	1.306792
C58	C	0.000005	1.005300	1.409123
C59	C	0.000000	0.703785	1.306792
C60	C	-0.000003	0.601456	1.409123
C61	C	0.338483	0.703778	1.005279
C62	C	0.453357	0.601446	1.005279
C63	C	0.338480	0.703783	1.306793
C64	C	0.453353	0.601454	1.409124
C65	C	-0.338460	1.306803	0.703763
C66	C	-0.453333	1.409133	0.601432
C67	C	0.000020	1.306801	0.703764
C68	C	0.000023	1.409131	0.601433
C69	C	-0.338463	1.306808	1.005277
C70	C	-0.453337	1.409140	1.005277
C71	C	0.507308	0.636656	0.922004
C72	C	0.615234	0.540518	0.921982
C73	C	0.669214	0.409172	1.005240
C74	C	0.615254	0.373963	1.088519
C75	C	0.507324	0.470099	1.088536
C76	C	0.507296	0.470123	1.457188
C77	C	0.615220	0.373958	1.553350
C78	C	0.669204	0.409127	1.601442
C79	C	0.615251	0.540471	1.553374
C80	C	0.507324	0.636633	1.457218
C81	C	-0.507286	1.540463	0.553376
C82	C	-0.615234	1.636628	0.457236
C83	C	-0.669221	1.601458	0.409147
C84	C	-0.615263	1.470114	0.457211
C85	C	-0.507322	1.373953	0.553355
C86	C	-0.507283	1.540470	0.922009
C87	C	-0.615209	1.636635	0.922005
C88	C	-0.669194	1.601467	1.005265
C89	C	-0.615239	1.470123	1.088541
C90	C	-0.507309	1.373961	1.088549
C91	C	-0.066096	0.553378	1.398324
C92	C	-0.066103	0.457237	1.494479
C93	C	0.066085	0.457255	1.612227
C94	C	0.066084	0.553402	1.516074
H95	H	0.119946	0.592509	0.898463
H96	H	-0.463399	1.267027	1.156354
O97	O	-0.130408	0.599963	1.294518
C98	C	-0.188718	0.536884	1.305611
H99	H	-0.201806	0.497272	1.391412
H100	H	-0.284728	0.609005	1.236652
H101	H	-0.126774	0.453371	1.297740
H102	H	0.119924	0.791645	0.699302
O103	O	-0.667884	1.436196	1.169299
C104	C	-0.774697	1.549245	1.151434
H105	H	-0.812358	1.633922	1.059423
H106	H	-0.850947	1.532643	1.173229
H107	H	-0.747160	1.572584	1.207201
H108	H	-0.119926	1.218957	0.311236
O109	O	-0.774168	1.694996	0.315836
C110	C	-0.873020	1.772768	0.339675
H111	H	-0.831740	1.765948	0.413750
H112	H	-0.931090	1.878034	0.262782
H113	H	-0.936163	1.737213	0.361768
H114	H	-0.119925	0.418098	1.485676
H115	H	0.463416	0.743567	1.418089
O116	O	0.455078	0.435789	1.410491
C117	C	0.544244	0.361655	1.378031
H118	H	0.643547	0.315512	1.429201
H119	H	0.533802	0.282197	1.393897
H120	H	0.527484	0.427305	1.284748
H121	H	0.463370	0.743599	0.854202
H122	H	0.119923	0.791657	0.524870
O123	O	0.130268	0.410383	1.716203
C124	C	0.116075	0.315232	1.798757
H125	H	0.091736	0.273175	1.761293
H126	H	0.208073	0.234348	1.872900
H127	H	0.036944	0.361228	1.828835
O128	O	0.455124	0.435662	1.169553
C129	C	0.525906	0.299117	1.243012
H130	H	0.625789	0.255015	1.239018
H131	H	0.529955	0.268638	1.332617
H132	H	0.479212	0.263285	1.216803
O133	O	-0.130121	0.600049	1.121427
C134	C	-0.045267	0.576529	1.204082
H135	H	0.041727	0.564567	1.179334
H136	H	-0.093218	0.661930	1.211213
H137	H	-0.015693	0.484074	1.288532
H138	H	-0.659236	1.441497	0.418043
H139	H	-0.463397	1.267019	0.592470
O140	O	0.130403	0.599927	1.526761
C141	C	0.188716	0.536913	1.641775
H142	H	0.201811	0.439452	1.693063
H143	H	0.284724	0.520358	1.655165
H144	H	0.126771	0.599974	1.670101
O145	O	-0.130201	0.410498	1.121507
C146	C	-0.081593	0.354864	1.236441
H147	H	-0.033196	0.398305	1.246074
H148	H	-0.162039	0.375949	1.272506
H149	H	-0.010242	0.245354	1.283681
O150	O	-0.455075	1.574765	0.840959
C151	C	-0.544270	1.648857	0.734392
H152	H	-0.643562	1.695036	0.739437
H153	H	-0.533823	1.728285	0.670747
H154	H	-0.527551	1.583167	0.706817
H155	H	-0.119905	1.218927	0.485695
O156	O	0.130598	0.410290	0.889441
C157	C	0.259602	0.354679	0.932801
H158	H	0.282892	0.325947	1.022509
H159	H	0.319424	0.264808	0.932772
H160	H	0.280805	0.428310	0.878187
H161	H	0.659155	0.569211	0.854165
O162	O	-0.667435	1.764146	0.410665
C163	C	-0.596636	1.774552	0.473739
H164	H	-0.496750	1.681589	0.521818
H165	H	-0.592598	1.860557	0.414607
H166	H	-0.643309	1.789927	0.535792
O167	O	0.774161	0.315673	1.005426
C168	C	0.873037	0.237901	1.107020
H169	H	0.831782	0.244665	1.174303
H170	H	0.931139	0.132646	1.135361
H171	H	0.936143	0.273500	1.093549
H172	H	-0.659126	1.743574	0.854187
H173	H	0.659222	0.267008	1.156305
H174	H	0.659138	0.267020	1.592469
H175	H	0.757086	0.330813	1.679737
H176	H	0.659220	0.569088	1.592546
H177	H	-0.463340	1.569124	0.592514
H178	H	-0.757080	1.679781	1.005243
