data_functionalizedCrystal
_audit_creation_method	'MofGen! by Chris Wilmer'
_symmetry_space_group_name_H-M	'P1'
_symmetry_Int_Tables_number	1
_symmetry_cell_setting	triclinic
loop_
_symmetry_equiv_pos_as_xyz
  x,y,z
_cell_length_a	19.288864
_cell_length_b	12.837942
_cell_length_c	17.766277
_cell_angle_alpha	89.994736
_cell_angle_beta	89.976791
_cell_angle_gamma	88.982593
loop_
_atom_site_label
_atom_site_type_symbol
_atom_site_fract_x
_atom_site_fract_y
_atom_site_fract_z
O1	O	0.930181	0.129276	-0.062838
O2	O	1.430181	0.629276	0.437162
O3	O	0.729111	0.146715	-0.062786
O4	O	1.229111	0.646715	0.437214
O5	O	0.825187	-0.012886	-0.062806
O6	O	1.325187	0.487114	0.437194
O7	O	0.834104	0.288878	-0.062818
O8	O	1.334104	0.788878	0.437182
O9	O	0.825168	-0.012894	0.062382
O10	O	1.325168	0.487106	0.562382
O11	O	0.729091	0.146707	0.062402
O12	O	1.229091	0.646707	0.562402
O13	O	0.930161	0.129268	0.062351
O14	O	1.430161	0.629268	0.562351
Cu15	Cu	0.829625	0.137987	0.073807
Cu16	Cu	1.329625	0.637987	0.573807
Cu17	Cu	0.829647	0.137996	-0.074243
Cu18	Cu	1.329647	0.637996	0.425757
O19	O	0.834085	0.288870	0.062371
O20	O	1.334085	0.788870	0.562371
C21	C	0.703186	0.146150	-0.000185
C22	C	1.203186	0.646150	0.499815
C23	C	0.625968	0.144466	-0.000166
C24	C	1.125968	0.644466	0.499834
C25	C	0.587666	0.238113	-0.000181
C26	C	1.087666	0.738113	0.499819
C27	C	0.515111	0.236530	-0.000189
C28	C	1.015111	0.736530	0.499811
C29	C	0.480860	0.141295	-0.000197
C30	C	0.980860	0.641295	0.499803
C31	C	0.519171	0.047636	-0.000178
C32	C	1.019171	0.547636	0.499822
C33	C	0.591725	0.049221	-0.000162
C34	C	1.091725	0.549221	0.499838
C35	C	0.367493	0.066433	-0.044079
C36	C	0.867493	0.566433	0.455921
C37	C	0.294941	0.064852	-0.044099
C38	C	0.794941	0.564852	0.455901
C39	C	0.257081	0.136402	-0.000243
C40	C	0.757081	0.636402	0.499757
C41	C	0.291782	0.209552	0.043625
C42	C	0.791782	0.709552	0.543625
C43	C	0.364335	0.211137	0.043640
C44	C	0.864335	0.711137	0.543640
C45	C	0.402188	0.139566	-0.000214
C46	C	0.902188	0.639566	0.499786
C47	C	0.140106	0.228340	-0.000266
C48	C	0.640106	0.728340	0.499734
C49	C	0.067550	0.226753	-0.000270
C50	C	0.567550	0.726753	0.499730
C51	C	0.071611	0.037857	-0.000265
C52	C	0.571611	0.537857	0.499735
C53	C	0.144166	0.039446	-0.000254
C54	C	0.644166	0.539446	0.499746
C55	C	0.178409	0.134690	-0.000258
C56	C	0.678409	0.634690	0.499742
C57	C	0.822165	-0.051497	-0.000212
C58	C	1.322165	0.448503	0.499788
C59	C	0.813181	-0.166532	-0.000211
C60	C	1.313181	0.333468	0.499789
C61	C	0.921187	-0.407995	-0.000254
C62	C	1.421187	0.092005	0.499746
C63	C	0.912748	-0.516081	-0.000253
C64	C	1.412748	-0.016081	0.499747
C65	C	0.787867	-0.490793	-0.000213
C66	C	1.287867	0.009207	0.499787
C67	C	0.796305	-0.382707	-0.000214
C68	C	1.296305	0.117293	0.499786
C69	C	0.862967	-0.341312	-0.000233
C70	C	1.362967	0.158688	0.499767
C71	C	0.871405	-0.233223	-0.000229
C72	C	1.371405	0.266777	0.499771
C73	C	0.746524	-0.207938	-0.000195
C74	C	1.246524	0.292062	0.499805
C75	C	0.738086	-0.316024	-0.000194
C76	C	1.238086	0.183976	0.499806
C77	C	0.956086	0.129833	-0.000252
C78	C	1.456086	0.629833	0.499748
C79	C	1.033304	0.131518	-0.000276
C80	C	1.533304	0.631518	0.499724
C81	C	0.837107	0.327480	-0.000225
C82	C	1.337107	0.827480	0.499775
C83	C	0.846091	0.442515	-0.000231
C84	C	1.346091	0.942515	0.499769
N85	N	0.829614	0.137979	0.177938
N86	N	1.329614	0.637979	0.677938
N87	N	0.829663	0.137996	-0.178373
N88	N	1.329663	0.637996	0.321627
C89	C	0.872174	0.067342	0.217316
C90	C	1.372174	0.567342	0.717316
C91	C	0.872178	0.067338	0.296118
C92	C	1.372178	0.567338	0.796118
C93	C	0.829629	0.137988	0.335538
C94	C	1.329629	0.637988	0.835538
C95	C	0.787060	0.208630	0.296151
C96	C	1.287060	0.708630	0.796151
C97	C	0.787052	0.208626	0.217350
C98	C	1.287052	0.708626	0.717350
C99	C	0.826778	0.232410	0.460374
C100	C	1.326778	0.732410	0.960374
C101	C	0.826790	0.232416	0.539173
C102	C	1.326790	0.732416	1.039173
C103	C	0.829648	0.138000	0.578584
C104	C	1.329648	0.638000	1.078584
C105	C	0.832508	0.043575	0.539188
C106	C	1.332508	0.543575	1.039188
C107	C	0.832501	0.043571	0.460387
C108	C	1.332501	0.543571	0.960387
C109	C	0.829632	0.138000	0.420984
C110	C	1.329632	0.638000	0.920984
C111	C	0.872215	0.067352	0.703409
C112	C	1.372215	0.567352	1.203409
C113	C	0.872213	0.067346	0.782212
C114	C	1.372213	0.567346	1.282212
C115	C	0.787100	0.208647	0.782243
C116	C	1.287100	0.708647	1.282243
C117	C	0.787097	0.208645	0.703442
C118	C	1.287097	0.708645	1.203442
C119	C	0.829658	0.137998	0.664029
C120	C	1.329658	0.637998	1.164029
H121	H	0.398313	0.008166	-0.079797
H122	H	0.898313	0.508166	0.420203
H123	H	0.824438	0.309300	0.428291
H124	H	1.324438	0.809300	0.928291
H125	H	0.834835	-0.033307	0.571275
H126	H	1.334835	0.466693	1.071275
H127	H	0.906828	0.009816	0.185228
H128	H	1.406828	0.509816	0.685228
N129	N	0.741148	0.284827	0.174880
N130	N	1.241148	0.784827	0.674880
H131	H	0.770715	0.330611	0.142168
H132	H	1.270715	0.830611	0.642168
H133	H	0.707788	0.245268	0.142250
H134	H	1.207788	0.745268	0.642250
N135	N	0.633039	-0.051790	-0.000157
N136	N	1.133039	0.448210	0.499843
H137	H	0.684197	-0.036334	-0.000149
H138	H	1.184197	0.463666	0.499851
H139	H	0.621221	-0.093314	0.046251
H140	H	1.121221	0.406686	0.546251
N141	N	0.482235	-0.055083	-0.000177
N142	N	0.982235	0.444917	0.499823
H143	H	0.430460	-0.041878	-0.000190
H144	H	0.930460	0.458122	0.499810
H145	H	0.495829	-0.096052	-0.046579
H146	H	0.995829	0.403948	0.453421
H147	H	0.834828	-0.033313	0.428314
H148	H	1.334828	0.466687	0.928314
N149	N	0.683726	-0.136012	-0.000178
N150	N	1.183726	0.363988	0.499822
H151	H	0.640219	-0.178641	-0.000165
H152	H	1.140219	0.321359	0.499835
H153	H	0.684503	-0.090626	0.046233
H154	H	1.184503	0.409374	0.546233
N155	N	0.943301	-0.188575	-0.000250
N156	N	1.443301	0.311425	0.499750
H157	H	0.939815	-0.109983	-0.000243
H158	H	1.439815	0.390017	0.499757
H159	H	0.969085	-0.213001	0.046151
H160	H	1.469085	0.286999	0.546151
H161	H	0.683812	-0.349743	-0.000181
H162	H	1.183812	0.150257	0.499819
H163	H	0.975465	-0.374291	-0.000262
H164	H	1.475465	0.125709	0.499738
N165	N	0.026214	0.327744	-0.000277
N166	N	0.526214	0.827744	0.499723
H167	H	-0.003998	0.331270	0.046129
H168	H	0.496002	0.831270	0.546129
H169	H	0.058946	0.388281	-0.000304
H170	H	0.558946	0.888281	0.499696
H171	H	0.043725	-0.039685	-0.000319
H172	H	0.543725	0.460315	0.499681
N173	N	0.975539	-0.588011	-0.000272
N174	N	1.475539	-0.088011	0.499728
H175	H	1.004311	-0.574722	-0.046687
H176	H	1.504311	-0.074722	0.453313
H177	H	1.004246	-0.574702	0.046158
H178	H	1.504246	-0.074702	0.546158
H179	H	0.167988	0.305893	-0.000258
H180	H	0.667988	0.805893	0.499742
N181	N	0.185483	-0.061560	-0.000238
N182	N	0.685483	0.438440	0.499762
H183	H	0.152778	-0.122133	-0.000243
H184	H	0.652778	0.377867	0.499757
H185	H	0.215702	-0.065017	-0.046638
H186	H	0.715702	0.434983	0.453362
N187	N	0.257514	-0.014039	-0.091409
N188	N	0.757514	0.485961	0.408591
H189	H	0.269966	-0.004119	-0.146135
H190	H	0.769966	0.495881	0.353865
H191	H	0.271712	-0.086638	-0.074960
H192	H	0.771712	0.413362	0.425040
H193	H	0.733594	-0.524517	-0.000206
H194	H	1.233594	-0.024517	0.499794
N195	N	0.918115	-0.008843	0.660892
N196	N	1.418115	0.491157	1.160892
H197	H	0.945074	-0.053599	0.697799
H198	H	1.445074	0.446401	1.197799
H199	H	0.888499	-0.054555	0.628214
H200	H	1.388499	0.445445	1.128214
H201	H	0.906869	0.009819	0.814274
H202	H	1.406869	0.509819	1.314274
N203	N	0.918081	-0.008854	0.338603
N204	N	1.418081	0.491146	0.838603
H205	H	0.945041	-0.053610	0.301678
H206	H	1.445041	0.446390	0.801678
H207	H	0.951403	0.030713	0.371275
H208	H	1.451403	0.530713	0.871275
N209	N	0.741201	0.284843	0.824749
N210	N	1.241201	0.784843	1.324749
H211	H	0.747661	0.274126	0.880645
H212	H	1.247661	0.774126	1.380645
H213	H	0.754082	0.358331	0.810964
H214	H	1.254082	0.858331	1.310964
N215	N	0.741192	0.284832	0.660963
N216	N	1.241192	0.784832	1.160963
H217	H	0.714236	0.329588	0.697891
H218	H	1.214236	0.829588	1.197891
H219	H	0.770800	0.330545	0.628246
H220	H	1.270800	0.830545	1.128246
N221	N	0.823700	0.334253	0.581662
N222	N	1.323700	0.834253	1.081662
H223	H	0.865149	0.377325	0.567920
H224	H	1.365149	0.877325	1.067920
H225	H	0.779711	0.373650	0.567949
H226	H	1.279711	0.873650	1.067949
N227	N	0.741163	0.284827	0.338663
N228	N	1.241163	0.784827	0.838663
H229	H	0.747627	0.274113	0.394558
H230	H	1.247627	0.774113	0.894558
H231	H	0.754043	0.358314	0.324874
H232	H	1.254043	0.858314	0.824874
H233	H	0.615542	0.315668	-0.000186
H234	H	1.115542	0.815668	0.499814
H235	H	0.483920	0.312791	-0.000200
H236	H	0.983920	0.812791	0.499800
H237	H	0.392586	0.270694	0.079361
H238	H	0.892586	0.770694	0.579361
H239	H	0.260958	0.267814	0.079337
H240	H	0.760958	0.767814	0.579337
