data_functionalizedCrystal
_audit_creation_method	'MofGen! by Chris Wilmer'
_symmetry_space_group_name_H-M	'P1'
_symmetry_Int_Tables_number	1
_symmetry_cell_setting	triclinic
loop_
_symmetry_equiv_pos_as_xyz
  x,y,z
_cell_length_a	14.908571
_cell_length_b	12.645330
_cell_length_c	14.908308
_cell_angle_alpha	93.270889
_cell_angle_beta	89.824947
_cell_angle_gamma	93.277388
loop_
_atom_site_label
_atom_site_type_symbol
_atom_site_fract_x
_atom_site_fract_y
_atom_site_fract_z
Zn1	Zn	1.345246	0.553222	0.587613
Zn2	Zn	1.353812	0.720900	0.437262
Zn3	Zn	1.203563	0.532861	0.428609
Zn4	Zn	1.194840	0.719640	0.578914
O5	O	1.274365	0.631656	0.508099
O6	O	1.472208	0.584514	0.574930
O7	O	1.341117	0.687962	0.310289
O8	O	1.222424	0.387220	0.449721
O9	O	1.478501	0.707705	0.464468
O10	O	1.326518	0.402180	0.566540
O11	O	1.230730	0.549810	0.303932
O12	O	1.076581	0.548589	0.441286
O13	O	1.207556	0.705559	0.705893
O14	O	1.070172	0.685815	0.551714
O15	O	1.318059	0.583292	0.712284
O16	O	1.332658	0.869074	0.456033
O17	O	1.215861	0.868149	0.560104
C18	C	1.040751	0.614857	0.494617
C19	C	0.940809	0.607697	0.488871
C20	C	0.746390	0.737337	0.592907
C21	C	0.652485	0.730613	0.587511
C22	C	0.659092	0.587521	0.472688
C23	C	0.752997	0.594245	0.478084
C24	C	0.796643	0.669156	0.538195
C25	C	0.890550	0.675884	0.543586
C26	C	0.897155	0.532788	0.428768
C27	C	0.803250	0.526064	0.423372
C28	C	1.274266	0.907078	0.508085
C29	C	1.274303	1.024912	0.508113
C30	C	1.201080	1.191971	0.573816
C31	C	1.200755	1.069373	0.573571
C32	C	1.254120	1.061612	0.411877
C33	C	1.253658	1.184206	0.412277
C34	C	1.368130	1.200393	0.537905
C35	C	1.367442	1.077878	0.539942
C36	C	1.508892	0.648521	0.521635
C37	C	1.608833	0.655708	0.527403
C38	C	1.260879	0.646556	0.742626
C39	C	1.255132	0.652906	0.842567
C40	C	1.274457	1.355159	0.508137
C41	C	1.274415	1.237328	0.508157
C42	C	1.287851	0.616740	0.274489
C43	C	1.293772	0.610104	0.174558
C44	C	1.359397	0.537497	1.037023
C45	C	1.354000	0.543460	1.130927
C46	C	1.238936	0.670788	1.124279
C47	C	1.244334	0.664825	1.030375
C48	C	1.304567	0.598179	0.986751
C49	C	1.309968	0.592222	0.892846
C50	C	1.194901	0.719544	0.886200
C51	C	1.189504	0.725507	0.980103
H52	H	0.623539	0.526525	0.423755
F53	F	1.412356	0.478873	1.184427
F54	F	0.936999	0.755613	0.607557
H55	H	0.767700	0.465071	0.374434
H56	H	1.189897	0.725048	1.159815
F57	F	1.374075	0.521295	0.846418
F58	F	1.439460	1.238912	0.475496
H59	H	0.938081	0.477272	0.384215
H60	H	1.131176	1.034048	0.553430
H61	H	1.140462	0.779766	1.015635
F62	F	0.792843	0.817071	0.656872
F63	F	1.164329	1.213468	0.380169
F64	F	1.322048	1.023641	0.345869
F65	F	1.423508	0.466579	0.990593
F66	F	1.320824	1.223026	0.345762
H67	H	1.150256	0.768959	0.845258
H68	H	1.212749	1.044859	0.644758
F69	F	1.165774	1.013401	0.379337
F70	F	1.393583	1.248573	0.628448
F71	F	0.599005	0.803178	0.645746
H72	H	1.382762	1.054570	0.610794
H73	H	1.212906	1.227027	0.645226
F74	F	1.110687	1.224477	0.547808
F75	F	1.442060	1.038986	0.482561
