data_functionalizedCrystal
_audit_creation_method	'MofGen! by Chris Wilmer'
_symmetry_space_group_name_H-M	'P1'
_symmetry_Int_Tables_number	1
_symmetry_cell_setting	triclinic
loop_
_symmetry_equiv_pos_as_xyz
  x,y,z
_cell_length_a	29.839135
_cell_length_b	29.839131
_cell_length_c	29.839125
_cell_angle_alpha	90.017709
_cell_angle_beta	90.015488
_cell_angle_gamma	90.043950
loop_
_atom_site_label
_atom_site_type_symbol
_atom_site_fract_x
_atom_site_fract_y
_atom_site_fract_z
Zn1	Zn	0.686720	-0.178886	0.254047
Zn2	Zn	0.686652	-0.253998	0.178917
Zn3	Zn	0.611602	-0.178886	0.178925
Zn4	Zn	0.611550	-0.253993	0.254014
O5	O	0.649131	-0.216441	0.216476
O6	O	0.749578	-0.188852	0.244092
O7	O	0.676690	-0.244036	0.116051
O8	O	0.621617	-0.116019	0.188908
O9	O	0.749528	-0.244036	0.188894
O10	O	0.676805	-0.116019	0.244099
O11	O	0.621551	-0.188852	0.116057
O12	O	0.548728	-0.188847	0.188876
O13	O	0.621528	-0.244028	0.316886
O14	O	0.548690	-0.244028	0.244043
O15	O	0.676755	-0.188847	0.316910
O16	O	0.676639	-0.316865	0.188862
O17	O	0.621462	-0.316861	0.244035
C18	C	0.532408	-0.216437	0.216457
C19	C	0.482474	-0.216447	0.216459
C20	C	0.172854	-0.187750	0.245260
C21	C	-0.014819	-0.187753	0.245273
O22	O	-0.039065	-0.163344	0.269738
N23	N	-0.038311	-0.216441	0.216492
C24	C	-0.014882	-0.245129	0.187705
O25	O	-0.039169	-0.269527	0.163223
C26	C	0.172791	-0.245123	0.187690
C27	C	0.196280	-0.216436	0.216475
C28	C	0.196343	-0.159065	0.274042
C29	C	0.243258	-0.159066	0.274040
C30	C	0.266684	-0.187752	0.245256
C31	C	0.243195	-0.216437	0.216474
C32	C	0.196219	-0.273808	0.158901
C33	C	0.243140	-0.273803	0.158899
C34	C	0.266630	-0.245116	0.187684
C35	C	0.313537	-0.245125	0.187688
N36	N	0.337029	-0.216437	0.216468
C37	C	0.313602	-0.187750	0.245252
C38	C	-0.113412	-0.245130	0.187715
C39	C	-0.160330	-0.245133	0.187720
C40	C	-0.160265	-0.187756	0.245287
C41	C	-0.113346	-0.187756	0.245284
C42	C	-0.089921	-0.216442	0.216495
C43	C	0.412128	-0.187755	0.245246
C44	C	0.459048	-0.187760	0.245243
C45	C	0.458978	-0.245135	0.187675
C46	C	0.412063	-0.245132	0.187679
C47	C	0.388639	-0.216438	0.216467
O48	O	0.337811	-0.269518	0.163231
O49	O	0.337898	-0.163349	0.269724
C50	C	0.125938	-0.187749	0.245262
C51	C	0.102449	-0.216434	0.216479
C52	C	0.125875	-0.245120	0.187695
C53	C	0.055531	-0.216436	0.216483
C54	C	0.032105	-0.187749	0.245267
C55	C	0.055596	-0.159061	0.274048
C56	C	0.102512	-0.159062	0.274046
C57	C	0.102384	-0.273808	0.158915
C58	C	0.055468	-0.273805	0.158919
C59	C	0.032042	-0.245119	0.187703
C60	C	0.649050	-0.333163	0.216454
C61	C	0.649056	-0.383098	0.216459
C62	C	0.677914	-0.692730	0.187789
C63	C	0.677969	-0.880403	0.187807
O64	O	0.702441	-0.904659	0.163413
N65	N	0.649224	-0.903883	0.216510
C66	C	0.620465	-0.880441	0.245213
O67	O	0.596020	-0.904718	0.269630
C68	C	0.620412	-0.692769	0.245197
C69	C	0.649156	-0.669292	0.216489
C70	C	0.706656	-0.669253	0.159084
C71	C	0.706640	-0.622338	0.159078
C72	C	0.677882	-0.598900	0.187778
C73	C	0.649140	-0.622377	0.216483
C74	C	0.591656	-0.669328	0.273902
C75	C	0.591646	-0.622407	0.273897
C76	C	0.620390	-0.598930	0.245188
C77	C	0.620367	-0.552023	0.245177
N78	N	0.649112	-0.528543	0.216474
C79	C	0.677869	-0.551982	0.187774
C80	C	0.620494	-0.978972	0.245218
C81	C	0.620507	-1.025889	0.245222
C82	C	0.678012	-1.025849	0.187816
C83	C	0.677997	-0.978930	0.187811
C84	C	0.649239	-0.955492	0.216515
C85	C	0.677834	-0.453456	0.187764
C86	C	0.677814	-0.406536	0.187759
C87	C	0.620311	-0.406581	0.245167
C88	C	0.620329	-0.453497	0.245170
C89	C	0.649094	-0.476933	0.216467
O90	O	0.595912	-0.527738	0.269561
O91	O	0.702318	-0.527697	0.163367
C92	C	0.677930	-0.739646	0.187795
C93	C	0.649188	-0.763123	0.216501
C94	C	0.620430	-0.739684	0.245200
C95	C	0.649200	-0.810041	0.216504
C96	C	0.677958	-0.833479	0.187804
C97	C	0.706703	-0.810000	0.159101
C98	C	0.706687	-0.763084	0.159095
C99	C	0.591685	-0.763164	0.273904
C100	C	0.591703	-0.810079	0.273907
C101	C	0.620461	-0.833518	0.245207
C102	C	0.766309	-0.216445	0.216495
C103	C	0.816244	-0.216446	0.216504
C104	C	0.649143	-0.216437	0.333654
C105	C	0.649148	-0.216435	0.383589
C106	C	0.649225	-0.099262	0.216508
C107	C	0.649265	-0.049328	0.216522
C108	C	0.649145	-0.216412	0.099753
C109	C	0.649227	-0.216288	0.049819
C110	C	0.677935	-0.187627	0.693248
C111	C	0.677957	-0.187589	0.880921
O112	O	0.702400	-0.163138	0.905199
N113	N	0.649208	-0.216315	0.904374
C114	C	0.620449	-0.245050	0.880906
O115	O	0.595993	-0.269479	0.905160
C116	C	0.620425	-0.245086	0.693234
C117	C	0.649179	-0.216361	0.669783
C118	C	0.706687	-0.158905	0.669797
C119	C	0.706683	-0.158916	0.622882
C120	C	0.677927	-0.187650	0.599417
C121	C	0.649175	-0.216373	0.622868
C122	C	0.591663	-0.273819	0.669766
C123	C	0.591659	-0.273824	0.622845
C124	C	0.620414	-0.245100	0.599395
C125	C	0.620415	-0.245119	0.552487
N126	N	0.649164	-0.216393	0.529034
C127	C	0.677920	-0.187659	0.552499
C128	C	0.620464	-0.245030	0.979437
C129	C	0.620471	-0.245022	1.026354
C130	C	0.677979	-0.187560	1.026366
C131	C	0.677974	-0.187571	0.979448
C132	C	0.649214	-0.216304	0.955984
C133	C	0.677910	-0.187685	0.453973
C134	C	0.677904	-0.187701	0.407054
C135	C	0.620395	-0.245161	0.407046
C136	C	0.620402	-0.245147	0.453961
C137	C	0.649161	-0.216406	0.477424
O138	O	0.595982	-0.269553	0.528180
O139	O	0.702366	-0.163226	0.528237
C140	C	0.677939	-0.187616	0.740163
C141	C	0.649187	-0.216338	0.763614
C142	C	0.620431	-0.245072	0.740149
C143	C	0.649194	-0.216330	0.810532
C144	C	0.677950	-0.187596	0.833997
C145	C	0.706699	-0.158870	0.810544
C146	C	0.706695	-0.158881	0.763628
C147	C	0.591682	-0.273798	0.763602
C148	C	0.591689	-0.273785	0.810518
C149	C	0.620445	-0.245050	0.833983
H150	H	0.121633	-0.135702	0.297485
H151	H	0.036515	-0.135705	0.297486
H152	H	0.036347	-0.297170	0.135480
H153	H	0.730104	-0.135503	0.688898
H154	H	0.568265	-0.297198	0.744502
H155	H	0.597097	-1.045000	0.268595
H156	H	0.597061	-0.268417	1.045444
H157	H	0.701258	-0.472532	0.164392
O158	O	0.127648	-0.304749	0.127867
H159	H	0.103426	-0.324697	0.107859
O160	O	0.560656	-0.694643	0.304869
H161	H	0.540665	-0.670455	0.324827
H162	H	0.701388	-0.164180	0.960357
H163	H	0.177102	-0.297168	0.135460
H164	H	0.596925	-0.472613	0.268548
O165	O	0.708820	-0.381214	0.156798
H166	H	0.728823	-0.405397	0.136847
O167	O	0.589375	-0.276147	0.381733
H168	H	0.609458	-0.299008	0.360353
O169	O	0.737649	-0.597019	0.128120
H170	H	0.757650	-0.621205	0.108172
O171	O	0.737672	-0.694530	0.128123
H172	H	0.757650	-0.670316	0.108163
H173	H	0.177274	-0.135702	0.297482
O174	O	0.709003	-0.953609	0.156852
H175	H	0.729002	-0.977794	0.136900
H176	H	0.262211	-0.297163	0.135454
H177	H	-0.179451	-0.268497	0.164285
O178	O	0.560698	-0.835400	0.304871
H179	H	0.568380	-0.826372	0.340135
H180	H	0.392937	-0.268496	0.164245
H181	H	0.701427	-1.044940	0.164447
O182	O	0.484249	-0.276071	0.156625
H183	H	0.520819	-0.271244	0.161458
H184	H	-0.094224	-0.164396	0.268723
H185	H	0.597044	-0.268431	0.960336
O186	O	0.589296	-0.381297	0.276123
H187	H	0.594122	-0.344729	0.271298
O188	O	0.737694	-0.737765	0.128136
H189	H	0.757694	-0.761952	0.108186
H190	H	-0.094343	-0.268491	0.164271
H191	H	0.596991	-0.268541	0.473056
O192	O	0.708987	-0.156558	1.051678
H193	H	0.704153	-0.161376	1.088242
H194	H	0.568248	-0.297209	0.688852
O195	O	0.737731	-0.835284	0.128154
H196	H	0.732914	-0.871852	0.132990
H197	H	0.568233	-0.297218	0.603743
H198	H	0.730110	-0.135491	0.744539
H199	H	0.478171	-0.164399	0.268685
O200	O	0.589465	-0.953694	0.276169
H201	H	0.569476	-0.977908	0.296120
H202	H	0.568229	-0.603326	0.297273
H203	H	0.730115	-0.135475	0.829657
O204	O	0.560657	-0.737886	0.304850
H205	H	0.540669	-0.762099	0.324803
O206	O	0.708919	-0.156718	0.381759
H207	H	0.728911	-0.136733	0.405961
O208	O	0.708931	-0.156691	0.479277
H209	H	0.728924	-0.136726	0.455082
H210	H	0.730097	-0.135525	0.603793
O211	O	0.386871	-0.156808	0.276298
H212	H	0.365510	-0.133914	0.256237
H213	H	0.568274	-0.297180	0.829607
H214	H	0.262379	-0.135705	0.297480
O215	O	-0.185535	-0.156809	0.276329
H216	H	-0.222105	-0.161630	0.271490
