data_functionalizedCrystal
_audit_creation_method	'MofGen! by Chris Wilmer'
_symmetry_space_group_name_H-M	'P1'
_symmetry_Int_Tables_number	1
_symmetry_cell_setting	triclinic
loop_
_symmetry_equiv_pos_as_xyz
  x,y,z
_cell_length_a	10.540510
_cell_length_b	10.540510
_cell_length_c	14.586319
_cell_angle_alpha	89.998684
_cell_angle_beta	89.996246
_cell_angle_gamma	84.513311
loop_
_atom_site_label
_atom_site_type_symbol
_atom_site_fract_x
_atom_site_fract_y
_atom_site_fract_z
O1	O	1.685888	0.178721	-0.076241
O2	O	2.185888	0.678721	0.423759
O3	O	1.316469	0.195617	-0.076241
O4	O	1.816469	0.695617	0.423759
O5	O	1.509626	0.002459	-0.076240
O6	O	2.009626	0.502459	0.423760
O7	O	1.492731	0.371879	-0.076241
O8	O	1.992731	0.871879	0.423759
O9	O	1.509613	0.002456	0.076241
O10	O	2.009613	0.502456	0.576241
O11	O	1.316455	0.195614	0.076240
O12	O	1.816455	0.695614	0.576240
O13	O	1.685875	0.178718	0.076240
O14	O	2.185875	0.678718	0.576240
Cu15	Cu	1.501164	0.187166	0.090163
Cu16	Cu	2.001164	0.687166	0.590163
Cu17	Cu	1.501180	0.187169	-0.090163
Cu18	Cu	2.001180	0.687169	0.409837
O19	O	1.492717	0.371876	0.076240
O20	O	1.992717	0.871876	0.576240
C21	C	1.269159	0.194356	-0.000000
C22	C	1.769159	0.694356	0.500000
C23	C	1.128209	0.190589	-0.000001
C24	C	1.628209	0.690589	0.499999
C25	C	1.508361	-0.044846	-0.000002
C26	C	2.008361	0.455154	0.499998
C27	C	1.504594	-0.185795	-0.000007
C28	C	2.004594	0.314205	0.499993
C29	C	0.910739	0.324775	-0.000351
C30	C	1.410739	0.824775	0.499649
C31	C	1.057334	0.328793	-0.000002
C32	C	1.557334	0.828793	0.499998
C33	C	1.083449	0.119841	0.087071
C34	C	1.583449	0.619841	0.587071
C35	C	0.936688	0.116801	0.087139
C36	C	1.436688	0.616801	0.587139
C37	C	0.936898	0.113926	-0.086260
C38	C	1.436898	0.613926	0.413740
C39	C	1.083239	0.120482	-0.087406
C40	C	1.583239	0.620482	0.412594
C41	C	1.638780	-0.403265	0.000342
C42	C	2.138780	0.096735	0.500342
C43	C	1.642798	-0.256670	-0.000006
C44	C	2.142798	0.243330	0.499994
C45	C	1.433854	-0.230545	-0.087079
C46	C	1.933854	0.269455	0.412921
C47	C	1.430815	-0.377305	-0.087148
C48	C	1.930815	0.122695	0.412852
C49	C	1.427922	-0.377117	0.086252
C50	C	1.927922	0.122883	0.586252
C51	C	1.434477	-0.230777	0.087398
C52	C	1.934477	0.269223	0.587398
C53	C	1.733185	0.179979	-0.000002
C54	C	2.233185	0.679979	0.499998
C55	C	1.874135	0.183746	-0.000008
C56	C	2.374135	0.683746	0.499992
C57	C	1.493983	0.419181	-0.000001
C58	C	1.993983	0.919181	0.499999
C59	C	1.497750	0.560130	-0.000001
C60	C	1.997750	1.060130	0.499999
N61	N	1.501162	0.187162	0.216995
N62	N	2.001162	0.687162	0.716995
N63	N	1.501192	0.187162	-0.216995
N64	N	2.001192	0.687162	0.283005
C65	C	1.586721	0.101661	0.452001
C66	C	2.086721	0.601661	0.952001
C67	C	1.586724	0.101658	0.547982
C68	C	2.086724	0.601658	1.047982
C69	C	1.415624	0.272667	0.547992
C70	C	1.915624	0.772667	1.047992
C71	C	1.415615	0.272663	0.452012
C72	C	1.915615	0.772663	0.952012
C73	C	1.501171	0.187162	0.404019
C74	C	2.001171	0.687162	0.904019
C75	C	1.501183	0.187163	0.595980
C76	C	2.001183	0.687163	1.095980
C77	C	1.501186	0.187160	0.700047
C78	C	2.001186	0.687160	1.200047
C79	C	1.501166	0.187163	0.299946
C80	C	2.001166	0.687163	0.799946
H81	H	1.086680	0.384141	-0.062421
H82	H	1.586680	0.884141	0.437579
H83	H	1.656386	0.032035	0.587047
H84	H	2.156386	0.532035	1.087047
H85	H	1.692617	-0.445227	0.062786
H86	H	2.192617	0.054773	0.562786
H87	H	1.111857	0.171958	-0.151821
H88	H	1.611857	0.671958	0.348179
H89	H	1.692318	-0.446775	-0.061749
H90	H	2.192318	0.053225	0.438251
H91	H	1.479170	-0.417525	-0.152235
H92	H	1.979170	0.082475	0.347765
F93	F	1.324551	0.363664	0.400942
F94	F	1.824551	0.863664	0.900942
F95	F	1.295709	-0.407352	-0.092318
F96	F	1.795709	0.092648	0.407682
H97	H	1.332111	-0.183145	-0.090317
H98	H	1.832111	0.316855	0.409683
F99	F	1.484938	-0.432675	0.172515
F100	F	1.984938	0.067325	0.672515
F101	F	1.501746	-0.193379	0.171595
F102	F	2.001746	0.306621	0.671595
F103	F	1.302590	-0.166632	0.094272
F104	F	1.802590	0.333368	0.594272
F105	F	1.292295	-0.406055	0.087020
F106	F	1.792295	0.093945	0.587020
H107	H	0.867221	0.378307	0.061739
H108	H	1.367221	0.878307	0.561739
F109	F	0.855903	0.395158	-0.081971
F110	F	1.355903	0.895158	0.418029
H111	H	1.345968	0.342283	0.587077
H112	H	1.845968	0.842283	1.087077
H113	H	1.656384	0.032039	0.412928
H114	H	2.156384	0.532039	0.912928
H115	H	1.085727	0.384475	0.062519
H116	H	1.585727	0.884475	0.562519
H117	H	0.913704	0.013433	0.091094
H118	H	1.413704	0.513433	0.591094
F119	F	0.884104	0.179999	0.172211
F120	F	1.384104	0.679999	0.672211
F121	F	1.147380	-0.011406	-0.094277
F122	F	1.647380	0.488594	0.405723
F123	F	1.715574	-0.219542	-0.081732
F124	F	2.215574	0.280458	0.418268
F125	F	1.715117	-0.218317	0.081587
F126	F	2.215117	0.281683	0.581587
F127	F	1.145393	-0.013150	0.091303
F128	F	1.645393	0.486850	0.591303
F129	F	1.123760	0.184056	0.171770
F130	F	1.623760	0.684056	0.671770
H131	H	1.482992	-0.199692	-0.151878
H132	H	1.982992	0.300308	0.348122
H133	H	0.894351	0.157511	-0.152257
H134	H	1.394351	0.657511	0.347743
F135	F	0.907963	-0.021701	-0.087028
F136	F	1.407963	0.478299	0.412972
