data_functionalizedCrystal
_audit_creation_method	'MofGen! by Chris Wilmer'
_symmetry_space_group_name_H-M	'P1'
_symmetry_Int_Tables_number	1
_symmetry_cell_setting	triclinic
loop_
_symmetry_equiv_pos_as_xyz
  x,y,z
_cell_length_a	12.594516
_cell_length_b	12.594517
_cell_length_c	12.594510
_cell_angle_alpha	90.025612
_cell_angle_beta	89.967679
_cell_angle_gamma	89.989009
loop_
_atom_site_label
_atom_site_type_symbol
_atom_site_fract_x
_atom_site_fract_y
_atom_site_fract_z
Zn1	Zn	-0.423789	-1.627265	-0.602003
Zn2	Zn	-0.601819	-1.627156	-0.424030
Zn3	Zn	-0.423839	-1.449269	-0.424017
Zn4	Zn	-0.601711	-1.449251	-0.601946
O5	O	-0.512789	-1.538235	-0.512999
O6	O	-0.447430	-1.776196	-0.578423
O7	O	-0.578275	-1.603522	-0.275083
O8	O	-0.274886	-1.472934	-0.447646
O9	O	-0.578227	-1.776117	-0.447668
O10	O	-0.274850	-1.603707	-0.578411
O11	O	-0.447514	-1.472829	-0.275073
O12	O	-0.447409	-1.300321	-0.447591
O13	O	-0.578043	-1.472903	-0.750900
O14	O	-0.578091	-1.300308	-0.578315
O15	O	-0.447325	-1.603689	-0.750941
O16	O	-0.750750	-1.603504	-0.447613
O17	O	-0.750671	-1.472797	-0.578327
C18	C	-0.512745	-1.261694	-0.512946
C19	C	-0.512751	-1.143389	-0.512949
C20	C	-0.441570	-1.074112	-0.441978
C21	C	-0.538656	-1.003301	-0.415796
C22	C	-0.415695	-1.003401	-0.539132
C23	C	-0.609888	-1.074136	-0.486716
C24	C	-0.486862	-1.074242	-0.610097
C25	C	-0.584014	-1.003463	-0.583952
C26	C	-0.789330	-1.538166	-0.512989
C27	C	-0.907636	-1.538233	-0.513020
C28	C	-0.976884	-1.467135	-0.584065
C29	C	-1.047758	-1.441202	-0.486940
C30	C	-1.047561	-1.564263	-0.610162
C31	C	-0.976951	-1.512249	-0.415843
C32	C	-0.976748	-1.635355	-0.539130
C33	C	-1.047590	-1.609459	-0.441938
C34	C	-0.235169	-1.538334	-0.513033
C35	C	-0.116863	-1.538377	-0.513047
C36	C	-0.512666	-1.538306	-0.790620
C37	C	-0.512614	-1.538336	-0.908926
C38	C	-0.512814	-0.815856	-0.513033
C39	C	-0.512770	-0.934162	-0.512998
C40	C	-0.441511	-1.609491	-0.978201
C41	C	-0.415450	-1.512415	-1.048984
C42	C	-0.538601	-1.635469	-1.048943
C43	C	-0.486503	-1.441208	-0.978150
C44	C	-0.609699	-1.564326	-0.978102
C45	C	-0.583674	-1.467183	-1.048853
C46	C	-0.512835	-1.538227	-0.236458
C47	C	-0.512587	-1.538403	-0.118153
H48	H	-0.464919	-1.105426	-0.692209
N49	N	-0.937906	-1.391593	-0.659328
N50	N	-0.881052	-1.421663	-0.734966
H51	H	-0.853519	-1.368311	-0.788115
N52	N	-0.566206	-1.738472	-1.087964
N53	N	-0.571378	-1.754789	-1.185729
H54	H	-0.590867	-1.827537	-1.213286
H55	H	-0.691999	-1.105078	-0.464499
N56	N	-1.086493	-1.591803	-0.713199
N57	N	-1.144565	-1.528460	-0.762805
H58	H	-1.172060	-1.547901	-0.835577
N59	N	-0.566156	-0.964183	-0.312773
N60	N	-0.646728	-0.907401	-0.301054
H61	H	-0.666145	-0.879774	-0.228292
N62	N	-0.312716	-0.964421	-0.566878
N63	N	-0.234259	-0.987063	-0.510518
H64	H	-0.161528	-0.959536	-0.530104
H65	H	-0.644287	-0.972637	-0.643990
H66	H	-0.381442	-1.105133	-0.381894
H67	H	-0.381347	-1.669559	-0.947175
N68	N	-1.086320	-1.684966	-0.366515
N69	N	-1.142986	-1.760647	-0.396679
H70	H	-1.170343	-1.813970	-0.343410
N71	N	-1.086875	-1.338239	-0.459247
N72	N	-1.064238	-1.259784	-0.515632
H73	H	-1.091861	-1.187064	-0.496081
N74	N	-0.938194	-1.484569	-0.312778
N75	N	-0.840467	-1.479995	-0.296145
H76	H	-0.813091	-1.460436	-0.223360
N77	N	-0.937601	-1.738286	-0.566873
N78	N	-0.960145	-1.777886	-0.655045
H79	H	-0.932497	-1.850582	-0.674650
N80	N	-0.312435	-1.484870	-1.088031
N81	N	-0.234039	-1.541356	-1.065405
H82	H	-0.161282	-1.521909	-1.092978
N83	N	-0.458800	-1.338168	-0.939296
N84	N	-0.454306	-1.321519	-0.841554
H85	H	-0.434739	-1.248749	-0.814109
H86	H	-0.643792	-1.406969	-1.079679
N87	N	-0.712681	-1.591921	-0.939023
N88	N	-0.752327	-1.680043	-0.961657
H89	H	-0.825060	-1.699543	-0.934057
