data_functionalizedCrystal
_audit_creation_method	'MofGen! by Chris Wilmer'
_symmetry_space_group_name_H-M	'P1'
_symmetry_Int_Tables_number	1
_symmetry_cell_setting	triclinic
loop_
_symmetry_equiv_pos_as_xyz
  x,y,z
_cell_length_a	12.594517
_cell_length_b	12.594516
_cell_length_c	10.686551
_cell_angle_alpha	94.403300
_cell_angle_beta	94.390391
_cell_angle_gamma	90.016010
loop_
_atom_site_label
_atom_site_type_symbol
_atom_site_fract_x
_atom_site_fract_y
_atom_site_fract_z
Zn1	Zn	1.673462	-0.377505	0.713304
Zn2	Zn	2.173462	0.122495	1.213304
Zn3	Zn	1.659689	-0.569183	0.502313
Zn4	Zn	2.159689	-0.069183	1.002313
Zn5	Zn	1.481803	-0.391217	0.502340
Zn6	Zn	1.981803	0.108783	1.002340
Zn7	Zn	1.495447	-0.555443	0.713279
Zn8	Zn	1.995447	-0.055443	1.213279
O9	O	1.577600	-0.473337	0.607809
O10	O	2.077600	0.026663	1.107809
O11	O	1.820581	-0.402943	0.685314
O12	O	2.320581	0.097057	1.185314
O13	O	1.624618	-0.557064	0.325737
O14	O	2.124618	-0.057064	0.825737
O15	O	1.507282	-0.240451	0.530346
O16	O	2.007282	0.259549	1.030346
O17	O	1.810461	-0.543768	0.530300
O18	O	2.310461	-0.043768	1.030300
O19	O	1.648093	-0.230377	0.685340
O20	O	2.148093	0.269623	1.185340
O21	O	1.493926	-0.426313	0.325756
O22	O	1.993926	0.073687	0.825756
O23	O	1.334668	-0.412990	0.530322
O24	O	1.834668	0.087010	1.030322
O25	O	1.530535	-0.520351	0.889862
O26	O	2.030535	-0.020351	1.389862
O27	O	1.344691	-0.533647	0.685299
O28	O	1.844691	-0.033647	1.185299
O29	O	1.661322	-0.389620	0.889880
O30	O	2.161322	0.110380	1.389880
O31	O	1.637847	-0.716307	0.530276
O32	O	2.137847	-0.216307	1.030276
O33	O	1.517179	-0.706213	0.685273
O34	O	2.017179	-0.206213	1.185273
C35	C	1.301059	-0.473316	0.607812
C36	C	1.801059	0.026684	1.107812
C37	C	1.182756	-0.473331	0.607843
C38	C	1.682756	0.026669	1.107843
C39	C	1.577530	-0.749879	0.607796
C40	C	2.077530	-0.249879	1.107796
C41	C	1.577600	-0.868182	0.607833
C42	C	2.077600	-0.368182	1.107833
C43	C	1.048212	-0.539095	0.691979
C44	C	1.548212	-0.039095	1.191979
C45	C	1.111524	-0.572463	0.576816
C46	C	1.611524	-0.072463	1.076816
C47	C	1.121014	-0.440012	0.722993
C48	C	1.621014	0.059988	1.222993
C49	C	1.035276	-0.506790	0.492581
C50	C	1.535276	-0.006790	0.992581
C51	C	1.044765	-0.374289	0.638837
C52	C	1.544765	0.125711	1.138837
C53	C	1.108041	-0.407624	0.523595
C54	C	1.608041	0.092376	1.023595
C55	C	1.511958	-0.931987	0.692077
C56	C	2.011958	-0.431987	1.192077
C57	C	1.478568	-1.010311	0.576938
C58	C	1.978568	-0.510311	1.076938
C59	C	1.611088	-1.000656	0.722992
C60	C	2.111088	-0.500656	1.222992
C61	C	1.544154	-0.944951	0.492634
C62	C	2.044154	-0.444951	0.992634
C63	C	1.676725	-0.935285	0.638765
C64	C	2.176725	-0.435285	1.138765
C65	C	1.643367	-1.013582	0.523547
C66	C	2.143367	-0.513582	1.023547
C67	C	1.855221	-0.473359	0.607807
C68	C	2.355221	0.026641	1.107807
C69	C	1.973526	-0.473368	0.607806
C70	C	2.473526	0.026632	1.107806
C71	C	1.598987	-0.451924	0.936936
C72	C	2.098987	0.048076	1.436936
C73	C	1.608100	-0.442799	1.077191
C74	C	2.108100	0.057201	1.577191
C75	C	1.577702	-0.195714	0.607849
C76	C	2.077702	0.304286	1.107849
C77	C	1.577745	-0.077407	0.607866
C78	C	2.077745	0.422593	1.107866
C79	C	1.556358	-0.494590	0.279962
C80	C	2.056358	0.005410	0.779962
C81	C	1.547451	-0.503416	0.139708
C82	C	2.047451	-0.003416	0.639708
H83	H	1.021757	-0.594746	0.763056
H84	H	1.521757	-0.094746	1.263056
F85	F	1.149943	-0.681960	0.542519
F86	F	1.649943	-0.181960	1.042519
H87	H	1.760470	-0.902372	0.664956
H88	H	2.260470	-0.402372	1.164956
H89	H	1.515793	-0.920365	0.395232
H90	H	2.015793	-0.420365	0.895232
F91	F	1.369080	-1.053298	0.542747
F92	F	1.869080	-0.553298	1.042747
H93	H	1.015355	-0.290536	0.665110
H94	H	1.515355	0.209464	1.165110
F95	F	1.169920	-0.403156	0.850296
F96	F	1.669920	0.096844	1.350296
F97	F	0.986546	-0.543773	0.365239
F98	F	1.486546	-0.043773	0.865239
H99	H	1.456332	-0.896344	0.763215
H100	H	1.956332	-0.396344	1.263215
H101	H	1.134288	-0.352031	0.452346
H102	H	1.634288	0.147969	0.952346
F103	F	1.470471	-0.580379	1.069422
F104	F	1.970471	-0.080379	1.569422
H105	H	1.698935	-1.049039	0.452237
H106	H	2.198935	-0.549039	0.952237
F107	F	1.648031	-1.032966	0.850265
F108	F	2.148031	-0.532966	1.350265
H109	H	1.667005	-0.383921	1.130973
H110	H	2.167005	0.116079	1.630973
