data_functionalizedCrystal
_audit_creation_method	'MofGen! by Chris Wilmer'
_symmetry_space_group_name_H-M	'P1'
_symmetry_Int_Tables_number	1
_symmetry_cell_setting	triclinic
loop_
_symmetry_equiv_pos_as_xyz
  x,y,z
_cell_length_a	31.640172
_cell_length_b	16.704494
_cell_length_c	16.704495
_cell_angle_alpha	54.477050
_cell_angle_beta	85.840806
_cell_angle_gamma	63.425212
loop_
_atom_site_label
_atom_site_type_symbol
_atom_site_fract_x
_atom_site_fract_y
_atom_site_fract_z
Zr1	Zr	0.436762	0.878459	-0.150429
O2	O	0.379056	1.045921	-0.287223
O3	O	0.451076	0.711005	-0.102519
O4	O	0.462364	0.878451	-0.278584
O5	O	0.362705	0.878479	0.020928
O6	O	0.531920	0.878434	-0.278565
O7	O	0.367768	0.878476	-0.111158
O8	O	0.511727	0.578905	0.036382
O9	O	0.382898	1.178008	-0.294020
O10	O	0.513169	0.779865	-0.089291
O11	O	0.457481	0.779880	0.009270
O12	O	0.470772	0.977025	-0.198023
O13	O	0.415084	0.977040	-0.099462
Zr14	Zr	0.539621	0.878437	0.060264
Zr15	Zr	0.547696	0.878432	-0.150399
Zr16	Zr	0.428687	0.878463	0.060234
Zr17	Zr	0.442889	1.089122	-0.161268
Zr18	Zr	0.533494	0.667774	0.071103
O19	O	0.525307	1.045890	0.012354
O20	O	0.536790	1.045883	-0.287181
O21	O	0.367574	1.045928	0.012313
O22	O	0.597327	0.710974	0.197059
O23	O	0.608809	0.710968	-0.102477
O24	O	0.439593	0.711012	0.197017
O25	O	0.613679	0.878417	-0.111093
O26	O	0.514019	0.878445	0.188419
O27	O	0.444463	0.878461	0.188401
O28	O	0.608615	0.878420	0.020994
O29	O	0.471075	1.177987	-0.293996
O30	O	0.505308	0.578909	0.203832
O31	O	0.593485	0.578887	0.203855
O32	O	0.599904	0.578884	0.036406
O33	O	0.376479	1.178012	-0.126571
O34	O	0.464656	1.177990	-0.126547
O35	O	0.505611	0.779870	0.107859
O36	O	0.561299	0.779855	0.009298
O37	O	0.518902	0.977015	-0.099435
O38	O	0.463214	0.977030	-0.000874
C39	C	0.480528	0.614940	-0.031524
C40	C	0.477928	0.525508	-0.026922
C41	C	0.349431	0.878481	-0.045119
C42	C	0.302336	0.878492	-0.045132
C43	C	0.531190	0.357424	-0.121167
C44	C	0.528748	0.273395	-0.116846
C45	C	0.470604	0.273413	-0.013954
C46	C	0.473046	0.357442	-0.018275
C47	C	0.503340	0.399446	-0.071884
C48	C	0.505779	0.483483	-0.076211
C49	C	0.447638	0.483493	0.026687
C50	C	0.445196	0.399464	0.031008
C51	C	0.032457	0.775521	0.011695
C52	C	-0.144530	0.775502	0.011716
O53	O	-0.148596	0.687975	0.060022
N54	N	-0.188790	0.878417	-0.045043
C55	C	-0.188803	0.981344	-0.101805
O56	O	-0.230510	1.068878	-0.150073
C57	C	-0.011817	0.981362	-0.101819
C58	C	0.032443	0.878441	-0.045065
C59	C	0.076715	0.672608	0.068446
C60	C	0.120959	0.672614	0.068436
C61	C	0.120945	0.775533	0.011675
C62	C	0.076687	0.878446	-0.045075
C63	C	-0.011831	1.084288	-0.158575
C64	C	0.032420	1.084283	-0.158572
C65	C	0.076680	0.981362	-0.101818
C66	C	0.120916	0.981371	-0.101846
N67	N	0.165177	0.878457	-0.045087
C68	C	0.165191	0.775538	0.011673
C69	C	-0.281721	0.981327	-0.101795
C70	C	-0.325967	0.981322	-0.101794
C71	C	-0.281691	0.775480	0.011729
C72	C	-0.237444	0.775486	0.011721
C73	C	-0.237461	0.878412	-0.045037
C74	C	0.258104	0.775558	0.011647
C75	C	0.302350	0.775573	0.011629
C76	C	0.258070	0.981414	-0.101889
C77	C	0.213828	0.981400	-0.101876
C78	C	0.213848	0.878463	-0.045099
O79	O	0.125019	1.068852	-0.150117
O80	O	0.206902	0.688016	0.059952
C81	C	-0.011787	0.775516	0.011706
C82	C	-0.056045	0.878429	-0.045045
C83	C	-0.056059	0.981348	-0.101805
C84	C	-0.100291	0.878424	-0.045043
C85	C	-0.100277	0.775505	0.011717
C86	C	-0.056017	0.672591	0.068476
C87	C	-0.011773	0.672596	0.068466
C88	C	-0.100320	1.084262	-0.158564
C89	C	-0.144562	1.084248	-0.158550
C90	C	-0.144548	0.981329	-0.101790
C91	C	0.626953	0.878414	-0.045045
C92	C	0.674047	0.878403	-0.045033
C93	C	0.498293	0.878442	-0.308590
C94	C	0.501721	0.878440	-0.398022
C95	C	0.495855	1.141955	-0.058641
C96	C	0.498455	1.231387	-0.063242
C97	C	0.431512	0.878475	-0.566107
C98	C	0.434731	0.878473	-0.650137
C99	C	0.511376	0.878443	-0.650116
C100	C	0.508157	0.878444	-0.566086
C101	C	0.468224	0.878459	-0.524084
C102	C	0.465007	0.878453	-0.440049
C103	C	0.541650	0.878430	-0.440034
C104	C	0.544869	0.878428	-0.524063
C105	C	0.478090	0.878454	0.218425
C106	C	0.474662	0.878456	0.307857
C107	C	0.619289	0.614907	-0.031487
C108	C	0.663783	0.525464	-0.026873
C109	C	0.470427	0.614946	0.231983
C110	C	0.464398	0.525516	0.326017
C111	C	0.609188	0.614913	0.232020
C112	C	0.650253	0.525471	0.326066
C113	C	0.367195	1.141983	-0.322185
C114	C	0.326130	1.231424	-0.416231
C115	C	0.357094	1.141988	-0.058678
C116	C	0.312600	1.231432	-0.063292
C117	C	0.505956	1.141949	-0.322148
C118	C	0.511985	1.231379	-0.416182
C119	C	0.659554	0.483465	-0.076177
C120	C	0.701358	0.399436	-0.071862
C121	C	0.747388	0.357400	-0.018236
C122	C	0.751616	0.399406	0.031069
C123	C	0.709814	0.483440	0.026748
C124	C	0.486690	0.483513	0.421647
C125	C	0.481023	0.399496	0.510009
C126	C	0.453067	0.357477	0.502739
C127	C	0.430773	0.399488	0.407099
C128	C	0.436437	0.483510	0.318739
C129	C	0.698611	0.483461	0.318784
C130	C	0.737201	0.399433	0.407141
C131	C	0.727432	0.357411	0.502781
C132	C	0.679070	0.399430	0.510061
C133	C	0.640481	0.483462	0.421704
C134	C	0.277772	1.273444	-0.408949
C135	C	0.239183	1.357498	-0.497308
C136	C	0.248952	1.399525	-0.592948
C137	C	0.297314	1.357501	-0.600228
C138	C	0.335903	1.273454	-0.511870
C139	C	0.316829	1.273439	-0.013997
C140	C	0.275028	1.357492	-0.018336
C141	C	0.228997	1.399531	-0.071965
C142	C	0.224769	1.357520	-0.121266
C143	C	0.266571	1.273474	-0.116932
C144	C	0.539944	1.273372	-0.408879
C145	C	0.545618	1.357389	-0.497225
C146	C	0.523330	1.399419	-0.592873
C147	C	0.495370	1.357419	-0.600174
C148	C	0.489699	1.273397	-0.511828
H149	H	0.530444	0.517685	-0.119866
H150	H	0.404836	0.878489	-0.684351
H151	H	0.758858	0.288987	0.574719
Cl152	Cl	0.280354	1.410282	0.043654
Cl153	Cl	0.579689	0.536258	0.430878
H154	H	0.706574	0.517663	0.240917
H155	H	0.448459	0.289062	0.574696
H156	H	0.408011	0.365264	0.401194
Cl157	Cl	0.408412	0.536296	0.198522
Cl158	Cl	0.809487	0.346544	0.098486
Cl159	Cl	0.561571	0.878442	-0.702936
H160	H	0.420534	0.365249	0.074659
Cl161	Cl	0.265479	1.220628	-0.288727
Cl162	Cl	0.797994	0.346622	0.397965
Cl163	Cl	0.666797	0.346588	0.630303
Cl164	Cl	0.569267	0.410243	-0.188571
Cl165	Cl	0.521838	0.536316	0.430814
H166	H	0.199808	1.391700	-0.491360
Cl167	Cl	0.200435	1.505183	-0.704018
Cl168	Cl	0.396694	1.220630	-0.521043
H169	H	0.305263	1.391729	-0.678108
Cl170	Cl	0.799935	0.251753	-0.012810
H171	H	0.432492	0.878460	-0.405849
H172	H	0.354306	1.239217	0.029680
Cl173	Cl	0.530463	1.505052	-0.703927
Cl174	Cl	0.467348	1.410279	-0.720426
Cl175	Cl	0.176451	1.505187	-0.077401
H176	H	0.499181	0.365301	0.587875
H177	H	0.187286	1.391761	-0.164930
H178	H	0.466930	1.239216	-0.517789
H179	H	0.445947	0.239186	0.029706
H180	H	0.551427	0.239182	-0.156975
Cl181	Cl	0.261245	1.220668	-0.178903
Cl182	Cl	0.567969	1.220550	-0.288646
Cl183	Cl	0.601693	0.536298	-0.143605
H184	H	0.577381	0.878421	-0.558273
Cl185	Cl	0.715137	0.536220	0.088746
Cl186	Cl	0.580767	1.410179	-0.488023
H187	H	0.398999	0.878476	-0.531902
H188	H	0.338388	0.691758	0.057848
Cl189	Cl	0.258137	0.646149	0.083021
Cl190	Cl	0.412620	0.536335	0.088636
H191	H	0.156994	0.588805	0.114647
Cl192	Cl	0.043863	0.543202	0.139820
H193	H	0.076734	0.588795	0.114672
H194	H	-0.201409	0.691678	0.057944
H195	H	0.571545	0.878412	-0.405806
H196	H	-0.281686	0.691679	0.057940
H197	H	-0.281742	1.065146	-0.148021
Cl198	Cl	-0.381603	1.110715	-0.173159
H199	H	0.697906	0.365244	-0.112013
H200	H	-0.047862	1.168098	-0.204790
Cl201	Cl	0.158187	1.110788	-0.173244
Cl202	Cl	0.032395	1.213685	-0.229927
Cl203	Cl	-0.200200	1.213649	-0.229908
Cl204	Cl	0.258062	1.110791	-0.173225
H205	H	-0.056012	0.588790	0.114686
H206	H	-0.100339	1.168073	-0.204788
