data_functionalizedCrystal
_audit_creation_method	'MofGen! by Chris Wilmer'
_symmetry_space_group_name_H-M	'P1'
_symmetry_Int_Tables_number	1
_symmetry_cell_setting	triclinic
loop_
_symmetry_equiv_pos_as_xyz
  x,y,z
_cell_length_a	10.654550
_cell_length_b	15.944551
_cell_length_c	9.130313
_cell_angle_alpha	89.994529
_cell_angle_beta	89.999724
_cell_angle_gamma	83.991834
loop_
_atom_site_label
_atom_site_type_symbol
_atom_site_fract_x
_atom_site_fract_y
_atom_site_fract_z
O1	O	1.666313	0.117977	-0.121694
O2	O	2.166313	0.617977	0.378306
O3	O	1.300689	0.129217	-0.121721
O4	O	1.800689	0.629217	0.378279
O5	O	1.493485	0.001379	-0.121693
O6	O	1.993485	0.501379	0.378307
O7	O	1.473517	0.245814	-0.121721
O8	O	1.973517	0.745814	0.378279
O9	O	1.493472	0.001376	0.121906
O10	O	1.993472	0.501376	0.621906
O11	O	1.300676	0.129213	0.121878
O12	O	1.800676	0.629213	0.621878
O13	O	1.666300	0.117973	0.121905
O14	O	2.166300	0.617973	0.621905
Cu15	Cu	1.483487	0.123592	0.144134
Cu16	Cu	1.983487	0.623592	0.644134
Cu17	Cu	1.483502	0.123597	-0.143950
Cu18	Cu	1.983502	0.623597	0.356050
O19	O	1.473503	0.245810	0.121878
O20	O	1.973503	0.745810	0.621878
C21	C	1.253895	0.128389	0.000075
C22	C	1.753895	0.628389	0.500075
C23	C	1.114484	0.125920	0.000065
C24	C	1.614484	0.625920	0.500065
C25	C	1.034024	0.201189	0.000061
C26	C	1.534024	0.701189	0.500061
C27	C	0.903034	0.198863	0.000087
C28	C	1.403034	0.698863	0.500087
C29	C	0.932975	0.045995	0.000115
C30	C	1.432975	0.545995	0.500115
C31	C	1.063963	0.048321	0.000100
C32	C	1.563963	0.548321	0.500100
C33	C	1.492650	-0.029921	0.000106
C34	C	1.992650	0.470079	0.500106
C35	C	1.490165	-0.123182	0.000107
C36	C	1.990165	0.376818	0.500107
C37	C	1.364720	-0.338764	0.000077
C38	C	1.864720	0.161236	0.500077
C39	C	1.422966	-0.399446	0.120191
C40	C	1.922966	0.100554	0.620191
C41	C	1.485668	-0.293933	0.000095
C42	C	1.985668	0.206067	0.500095
C43	C	1.423007	-0.399426	-0.119979
C44	C	1.923007	0.100574	0.380021
C45	C	1.481317	-0.458871	0.000078
C46	C	1.981317	0.041129	0.500078
C47	C	1.543947	-0.353387	0.120308
C48	C	2.043947	0.146613	0.620308
C49	C	1.543972	-0.353360	-0.119969
C50	C	2.043972	0.146640	0.380031
C51	C	1.602306	-0.414024	0.000173
C52	C	2.102306	0.085976	0.500173
C53	C	1.488172	-0.198917	0.000107
C54	C	1.988172	0.301083	0.500107
C55	C	1.478822	-0.553887	0.000077
C56	C	1.978822	-0.053887	0.500077
C57	C	1.713094	0.118800	0.000106
C58	C	2.213094	0.618800	0.500106
C59	C	1.852505	0.121269	0.000106
C60	C	2.352505	0.621269	0.500106
C61	C	1.474339	0.277110	0.000075
C62	C	1.974339	0.777110	0.500075
C63	C	1.476824	0.370371	0.000065
C64	C	1.976824	0.870371	0.500065
N65	N	1.483485	0.123589	0.346757
N66	N	1.983485	0.623589	0.846757
N67	N	1.483514	0.123594	-0.346572
N68	N	1.983514	0.623594	0.153428
C69	C	1.568884	0.067007	0.423421
C70	C	2.068884	0.567007	0.923421
C71	C	1.568896	0.067007	0.576758
C72	C	2.068896	0.567007	1.076758
C73	C	1.398106	0.180179	0.576753
C74	C	1.898106	0.680179	1.076753
C75	C	1.398089	0.180174	0.423419
C76	C	1.898089	0.680174	0.923419
H77	H	1.129477	-0.012976	0.000108
H78	H	1.629477	0.487024	0.500108
H79	H	1.595090	-0.332933	-0.221513
H80	H	2.095090	0.167067	0.278487
H81	H	1.075154	0.264375	0.000044
H82	H	1.575154	0.764375	0.500044
H83	H	1.595055	-0.333102	0.221966
H84	H	2.095055	0.166898	0.721966
H85	H	1.702787	-0.446601	0.000249
H86	H	2.202787	0.053399	0.500249
H87	H	0.891824	-0.017184	0.000152
H88	H	1.391824	0.482816	0.500152
H89	H	1.264327	-0.306038	0.000190
H90	H	1.764327	0.193962	0.500190
C91	C	1.353856	-0.427019	0.257356
C92	C	1.853856	0.072981	0.757356
H93	H	1.269457	-0.401007	0.257206
H94	H	1.769457	0.098993	0.757206
H95	H	1.396004	-0.410493	0.342649
H96	H	1.896004	0.089507	0.842649
H97	H	1.353446	-0.486571	0.256812
H98	H	1.853446	0.013429	0.756812
C99	C	1.662812	0.004768	0.339090
C100	C	2.162812	0.504768	0.839090
H101	H	1.650584	0.012874	0.236789
H102	H	2.150584	0.512874	0.736789
H103	H	1.649187	-0.051379	0.364233
H104	H	2.149187	0.448621	0.864233
H105	H	1.746623	0.014424	0.364211
H106	H	2.246623	0.514424	0.864211
H107	H	1.371841	-0.419797	-0.221532
H108	H	1.871841	0.080203	0.278468
H109	H	1.638433	0.020931	0.639173
H110	H	2.138433	0.520931	1.139173
H111	H	1.328580	0.226250	0.639186
H112	H	1.828580	0.726250	1.139186
C113	C	1.304157	0.242422	0.339076
C114	C	1.804157	0.742422	0.839076
H115	H	1.316373	0.234309	0.236777
H116	H	1.816373	0.734309	0.736777
H117	H	1.317799	0.298567	0.364186
H118	H	1.817799	0.798567	0.864186
H119	H	1.220344	0.232776	0.364215
H120	H	1.720344	0.732776	0.864215
C121	C	0.814533	0.281659	0.000071
C122	C	1.314533	0.781659	0.500071
H123	H	0.863387	0.328204	0.000038
H124	H	1.363387	0.828204	0.500038
H125	H	0.762818	0.283935	0.085025
H126	H	1.262818	0.783935	0.585025
H127	H	0.762808	0.283925	-0.084882
H128	H	1.262808	0.783925	0.415118
