data_functionalizedCrystal
_audit_creation_method	'MofGen! by Chris Wilmer'
_symmetry_space_group_name_H-M	'P1'
_symmetry_Int_Tables_number	1
_symmetry_cell_setting	triclinic
loop_
_symmetry_equiv_pos_as_xyz
  x,y,z
_cell_length_a	13.897449
_cell_length_b	13.897448
_cell_length_c	19.076919
_cell_angle_alpha	92.272955
_cell_angle_beta	92.279427
_cell_angle_gamma	90.018519
loop_
_atom_site_label
_atom_site_type_symbol
_atom_site_fract_x
_atom_site_fract_y
_atom_site_fract_z
Zn1	Zn	1.452744	-0.405928	-0.397986
Zn2	Zn	1.459132	-0.560754	-0.280295
Zn3	Zn	1.297927	-0.399478	-0.280302
Zn4	Zn	1.291417	-0.567183	-0.397947
O5	O	1.375305	-0.483336	-0.339132
O6	O	1.588573	-0.426475	-0.382387
O7	O	1.443145	-0.533971	-0.181807
O8	O	1.318514	-0.265353	-0.295932
O9	O	1.593265	-0.540225	-0.295920
O10	O	1.432258	-0.270092	-0.382394
O11	O	1.324708	-0.415481	-0.181812
O12	O	1.162082	-0.421715	-0.295894
O13	O	1.307420	-0.551182	-0.496441
O14	O	1.157300	-0.544927	-0.382327
O15	O	1.425947	-0.432709	-0.496470
O16	O	1.436833	-0.696588	-0.295882
O17	O	1.313614	-0.701311	-0.382321
C18	C	1.124692	-0.483320	-0.339108
C19	C	1.017478	-0.483337	-0.339114
C20	C	0.930407	-0.483341	-0.339126
C21	C	0.821174	-0.483349	-0.339147
C22	C	1.375236	-0.733949	-0.339112
C23	C	1.375293	-0.841164	-0.339127
C24	C	1.375392	-1.037461	-0.339171
C25	C	1.375334	-0.928227	-0.339148
C26	C	1.626897	-0.483353	-0.339157
C27	C	1.734110	-0.483360	-0.339168
C28	C	1.365245	-0.493382	-0.522706
C29	C	1.360958	-0.497663	-0.600935
C30	C	1.375400	-0.231745	-0.339168
C31	C	1.375440	-0.124532	-0.339183
C32	C	1.420651	-0.437995	-0.637703
C33	C	1.416611	-0.442014	-0.711207
C34	C	1.352883	-0.505707	-0.747941
C35	C	1.293183	-0.565378	-0.711168
C36	C	1.297219	-0.561353	-0.637666
C37	C	1.334191	-0.524352	-0.967769
C38	C	1.330162	-0.528375	-1.041276
C39	C	1.453590	-0.405009	-1.041310
C40	C	1.457624	-0.400994	-0.967806
C41	C	1.397921	-0.460661	-0.931039
N42	N	1.348754	-0.509818	-0.823074
N43	N	1.402045	-0.456544	-0.855908
C44	C	1.385381	-0.473259	-0.156272
C45	C	1.389855	-0.468706	-0.078044
H46	H	1.472549	-0.386132	-0.607799
H47	H	1.465222	-0.393427	-0.741140
H48	H	1.285591	-0.572952	-0.937842
C49	C	1.519247	-0.339367	-1.081759
N50	N	1.568697	-0.289918	-1.112226
H51	H	1.278264	-0.580243	-1.071184
H52	H	1.509521	-0.349131	-0.937901
H53	H	1.241290	-0.617234	-0.741083
C54	C	1.231553	-0.626995	-0.597221
N55	N	1.182090	-0.676437	-0.566760
