data_functionalizedCrystal
_audit_creation_method	'MofGen! by Chris Wilmer'
_symmetry_space_group_name_H-M	'P1'
_symmetry_Int_Tables_number	1
_symmetry_cell_setting	triclinic
loop_
_symmetry_equiv_pos_as_xyz
  x,y,z
_cell_length_a	11.792254
_cell_length_b	12.837942
_cell_length_c	11.295483
_cell_angle_alpha	94.530417
_cell_angle_beta	85.866389
_cell_angle_gamma	89.513769
loop_
_atom_site_label
_atom_site_type_symbol
_atom_site_fract_x
_atom_site_fract_y
_atom_site_fract_z
O1	O	1.528219	0.135289	-0.099023
O2	O	1.199365	0.149928	-0.099026
O3	O	1.356499	-0.008335	-0.099017
O4	O	1.371084	0.293552	-0.099032
O5	O	1.342695	0.005544	0.099033
O6	O	1.185561	0.163807	0.099024
O7	O	1.514415	0.149169	0.099027
Cu8	Cu	1.348728	0.157755	0.117109
Cu9	Cu	1.365052	0.141341	-0.117108
O10	O	1.357280	0.307431	0.099018
C11	C	1.150078	0.155945	-0.000001
C12	C	1.023786	0.153185	-0.000002
C13	C	1.344671	-0.040044	0.000007
C14	C	1.329977	-0.155204	0.000005
C15	C	1.506624	-0.395164	-0.000019
C16	C	1.492824	-0.503368	-0.000021
C17	C	1.288577	-0.479820	-0.000010
C18	C	1.302377	-0.371615	-0.000008
C19	C	1.411404	-0.329292	-0.000010
C20	C	1.425204	-0.221085	0.000000
C21	C	1.220958	-0.197539	0.000002
C22	C	1.207158	-0.305743	0.000000
C23	C	0.921222	0.150942	-0.000007
C24	C	0.792551	0.148138	-0.000008
C25	C	1.563701	0.143151	-0.000001
C26	C	1.689995	0.145910	-0.000008
C27	C	1.369109	0.339140	-0.000009
C28	C	1.383803	0.454300	-0.000015
N29	N	1.337254	0.169299	0.281845
N30	N	1.376534	0.129789	-0.281844
C31	C	1.459121	0.046633	0.531141
C32	C	1.450459	0.055364	0.655804
C33	C	1.311263	0.195486	0.655836
C34	C	1.319925	0.186755	0.531173
C35	C	1.393858	0.112327	0.468830
C36	C	1.402525	0.103602	0.344164
C37	C	1.263323	0.243718	0.344199
C38	C	1.254661	0.252450	0.468862
H39	H	1.513979	-0.186627	0.000003
C40	C	1.087238	-0.352305	0.000011
H41	H	1.092653	-0.426181	0.000016
H42	H	1.052341	-0.334569	-0.069046
H43	H	1.042737	-0.324898	0.069092
H44	H	1.210185	0.297214	0.293451
H45	H	1.143423	-0.143892	0.000019
H46	H	1.462728	0.043001	0.293405
C47	C	1.540445	-0.035229	0.462559
H48	H	1.578072	-0.073107	0.517525
H49	H	1.595130	-0.001029	0.413914
H50	H	1.498294	-0.082070	0.413942
C51	C	1.522252	-0.016897	0.724342
H52	H	1.567527	-0.062467	0.669354
H53	H	1.473352	-0.056919	0.772986
H54	H	1.570190	0.024118	0.772958
C55	C	1.626544	-0.348604	-0.000012
H56	H	1.681279	-0.403334	-0.000020
H57	H	1.631356	-0.302045	0.069053
H58	H	1.640988	-0.311721	-0.069085
C59	C	1.229943	0.277346	0.724428
H60	H	1.234138	0.273135	0.807596
H61	H	1.154349	0.264189	0.704014
H62	H	1.251191	0.345223	0.704002
H63	H	1.194463	0.313045	0.519637
H64	H	1.199813	-0.514300	-0.000021
C65	C	1.597565	-0.575824	-0.000023
H66	H	1.664469	-0.535116	-0.000016
H67	H	1.601239	-0.623363	-0.069086
H68	H	1.591614	-0.613684	0.069051
