data_functionalizedCrystal
_audit_creation_method	'MofGen! by Chris Wilmer'
_symmetry_space_group_name_H-M	'P1'
_symmetry_Int_Tables_number	1
_symmetry_cell_setting	triclinic
loop_
_symmetry_equiv_pos_as_xyz
  x,y,z
_cell_length_a	13.897449
_cell_length_b	19.121449
_cell_length_c	13.897441
_cell_angle_alpha	92.472241
_cell_angle_beta	90.023394
_cell_angle_gamma	87.585897
loop_
_atom_site_label
_atom_site_type_symbol
_atom_site_fract_x
_atom_site_fract_y
_atom_site_fract_z
Zn1	Zn	1.491023	-0.279572	0.529069
Zn2	Zn	1.824356	0.053761	0.862402
Zn3	Zn	2.157689	0.387095	1.195736
Zn4	Zn	1.497773	-0.397034	0.360888
Zn5	Zn	1.831107	-0.063701	0.694221
Zn6	Zn	2.164440	0.269633	1.027554
Zn7	Zn	1.329714	-0.279605	0.367778
Zn8	Zn	1.663047	0.053729	0.701111
Zn9	Zn	1.996380	0.387062	1.034444
Zn10	Zn	1.336548	-0.396987	0.522136
Zn11	Zn	1.669881	-0.063654	0.855469
Zn12	Zn	2.003214	0.269680	1.188802
O13	O	1.413764	-0.338299	0.444968
O14	O	1.747098	-0.004966	0.778301
O15	O	2.080431	0.328367	1.111634
O16	O	1.626900	-0.295160	0.506777
O17	O	1.960233	0.038174	0.840111
O18	O	2.293567	0.371507	1.173444
O19	O	1.475445	-0.381490	0.226818
O20	O	1.808779	-0.048157	0.560151
O21	O	2.142112	0.285177	0.893485
O22	O	1.345426	-0.181317	0.394958
O23	O	1.678760	0.152016	0.728292
O24	O	2.012093	0.485350	1.061625
O25	O	1.631860	-0.381459	0.383215
O26	O	1.965193	-0.048125	0.716549
O27	O	2.298527	0.285208	1.049882
O28	O	1.463939	-0.181293	0.513458
O29	O	1.797273	0.152040	0.846792
O30	O	2.130606	0.485373	1.180125
O31	O	1.351972	-0.295215	0.231880
O32	O	1.685306	0.038118	0.565214
O33	O	2.018639	0.371452	0.898547
O34	O	1.195638	-0.295170	0.388236
O35	O	1.528972	0.038164	0.721569
O36	O	1.862305	0.371497	1.054902
O37	O	1.357074	-0.381378	0.658039
O38	O	1.690407	-0.048045	0.991372
O39	O	2.023740	0.285288	1.324706
O40	O	1.200659	-0.381410	0.501642
O41	O	1.533992	-0.048077	0.834975
O42	O	1.867326	0.285257	1.168308
O43	O	1.470566	-0.295114	0.663133
O44	O	1.803899	0.038219	0.996466
O45	O	2.137233	0.371553	1.329799
O46	O	1.482072	-0.495311	0.376493
O47	O	1.815405	-0.161978	0.709826
O48	O	2.148738	0.171356	1.043159
O49	O	1.363620	-0.495276	0.494961
O50	O	1.696953	-0.161943	0.828294
O51	O	2.030286	0.171390	1.161627
C52	C	1.163149	-0.338289	0.444935
C53	C	1.496483	-0.004955	0.778268
C54	C	1.829816	0.328378	1.111601
C55	C	1.055936	-0.338301	0.444942
C56	C	1.389269	-0.004968	0.778276
C57	C	1.722603	0.328366	1.111609
C58	C	0.968867	-0.338303	0.444958
C59	C	1.302200	-0.004970	0.778292
C60	C	1.635533	0.328363	1.111625
C61	C	0.859634	-0.338308	0.444987
C62	C	1.192968	-0.004975	0.778321
C63	C	1.526301	0.328358	1.111654
C64	C	1.424346	-0.520777	0.434248
C65	C	1.757679	-0.187444	0.767581
C66	C	2.091013	0.145889	1.100914
C67	C	1.428961	-0.598842	0.429694
C68	C	1.762295	-0.265509	0.763027
C69	C	2.095628	0.067824	1.096361
C70	C	1.369416	-0.635525	0.489184
C71	C	1.702749	-0.302192	0.822517
C72	C	2.036082	0.031142	1.155850
C73	C	1.373756	-0.708875	0.484901
C74	C	1.707090	-0.375542	0.818234
C75	C	2.040423	-0.042208	1.151568
C76	C	1.437648	-0.745541	0.421133
C77	C	1.770981	-0.412208	0.754466
C78	C	2.104315	-0.078875	1.087800
C79	C	1.497196	-0.708854	0.361637
C80	C	1.830529	-0.375520	0.694970
C81	C	2.163863	-0.042187	1.028304
C82	C	1.492850	-0.635505	0.365915
C83	C	1.826183	-0.302171	0.699249
C84	C	2.159516	0.031162	1.032582
C85	C	1.453854	-0.967007	0.405128
C86	C	1.787187	-0.633674	0.738461
C87	C	2.120520	-0.300341	1.071794
C88	C	1.458197	-1.040361	0.400856
C89	C	1.791531	-0.707028	0.734189
C90	C	2.124864	-0.373695	1.067522
C91	C	1.334756	-1.040378	0.524119
C92	C	1.668089	-0.707044	0.857452
C93	C	2.001423	-0.373711	1.190786
C94	C	1.330420	-0.967027	0.528396
C95	C	1.663753	-0.633694	0.861729
C96	C	1.997086	-0.300361	1.195063
C97	C	1.389964	-0.930346	0.468896
C98	C	1.723297	-0.597013	0.802230
C99	C	2.056631	-0.263679	1.135563
C100	C	1.442088	-0.820517	0.416756
C101	C	1.775422	-0.487184	0.750090
C102	C	2.108755	-0.153850	1.083423
C103	C	1.385518	-0.855372	0.473269
C104	C	1.718851	-0.522038	0.806602
C105	C	2.052185	-0.188705	1.139936
C106	C	1.665358	-0.338311	0.445001
C107	C	1.998691	-0.004977	0.778335
C108	C	2.332025	0.328356	1.111668
C109	C	1.772572	-0.338316	0.445016
C110	C	2.105905	-0.004982	0.778349
C111	C	2.439239	0.328351	1.111682
C112	C	1.413829	-0.338237	0.696564
C113	C	1.747162	-0.004904	1.029898
C114	C	2.080496	0.328429	1.363231
C115	C	1.413857	-0.338211	0.803780
C116	C	1.747190	-0.004878	1.137113
C117	C	2.080523	0.328456	1.470447
C118	C	1.403168	-0.155109	0.455750
C119	C	1.736501	0.178224	0.789084
C120	C	2.069834	0.511558	1.122417
C121	C	1.398652	-0.077044	0.460345
C122	C	1.731985	0.256289	0.793679
C123	C	2.065318	0.589623	1.127012
C124	C	1.413752	-0.338311	0.194353
C125	C	1.747086	-0.004977	0.527686
C126	C	2.080419	0.328356	0.861019
C127	C	1.413900	-0.338139	0.087149
C128	C	1.747233	-0.004806	0.420483
C129	C	2.080567	0.328527	0.753816
C130	C	1.413880	-0.338163	1.000078
C131	C	1.747214	-0.004830	1.333411
C132	C	2.080547	0.328503	1.666745
C133	C	1.413864	-0.338192	0.890844
C134	C	1.747198	-0.004858	1.224177
C135	C	2.080531	0.328475	1.557510
H136	H	1.317393	-0.605676	0.541115
H137	H	1.650726	-0.272343	0.874448
H138	H	1.984059	0.060991	1.207781
N139	N	1.270523	-1.079943	0.588274
N140	N	1.603857	-0.746610	0.921608
N141	N	1.937190	-0.413276	1.254941
H142	H	1.229388	-1.045584	0.629318
H143	H	1.562721	-0.712251	0.962651
H144	H	1.896055	-0.378918	1.295984
H145	H	1.311558	-1.110326	0.631182
H146	H	1.644891	-0.776993	0.964515
H147	H	1.978224	-0.443660	1.297848
N148	N	1.566105	-0.748406	0.292862
N149	N	1.899438	-0.415073	0.626196
N150	N	2.232771	-0.081740	0.959529
H151	H	1.634257	-0.735586	0.308653
H152	H	1.967590	-0.402252	0.641987
H153	H	2.300924	-0.068919	0.975320
H154	H	1.550324	-0.735677	0.224696
H155	H	1.883657	-0.402344	0.558029
H156	H	2.216991	-0.069010	0.891362
H157	H	1.510231	-1.070213	0.348929
H158	H	1.843565	-0.736880	0.682262
H159	H	2.176898	-0.403546	1.015595
H160	H	1.541337	-0.605638	0.317471
H161	H	1.874670	-0.272305	0.650805
H162	H	2.208003	0.061028	0.984138
H163	H	1.502339	-0.937147	0.356682
H164	H	1.835672	-0.603814	0.690016
H165	H	2.169006	-0.270480	1.023349
N166	N	1.316605	-0.815823	0.542038
N167	N	1.649939	-0.482490	0.875371
N168	N	1.983272	-0.149157	1.208705
H169	H	1.353981	-0.785339	0.588547
H170	H	1.687314	-0.452005	0.921880
H171	H	2.020647	-0.118672	1.255214
H172	H	1.279553	-0.850231	0.579016
H173	H	1.612887	-0.516897	0.912349
H174	H	1.946220	-0.183564	1.245682
N175	N	1.309544	-0.748447	0.549069
N176	N	1.642878	-0.415113	0.882402
N177	N	1.976211	-0.081780	1.215736
H178	H	1.266668	-0.778930	0.508050
H179	H	1.600002	-0.445597	0.841383
H180	H	1.933335	-0.112263	1.174717
H181	H	1.268474	-0.714050	0.590113
H182	H	1.601807	-0.380716	0.923446
H183	H	1.935141	-0.047383	1.256779
N184	N	1.261503	-0.927481	0.597169
N185	N	1.594836	-0.594148	0.930502
N186	N	1.928169	-0.260815	1.263836
H187	H	1.224435	-0.961851	0.634204
H188	H	1.557769	-0.628517	0.967537
H189	H	1.891102	-0.295184	1.300871
H190	H	1.215088	-0.897103	0.559627
H191	H	1.548422	-0.563769	0.892961
H192	H	1.881755	-0.230436	1.226294
N193	N	1.510991	-0.860074	0.347979
N194	N	1.844324	-0.526740	0.681312
N195	N	2.177657	-0.193407	1.014646
H196	H	1.557463	-0.890458	0.385451
H197	H	1.890797	-0.557125	0.718784
H198	H	2.224130	-0.223792	1.052118
H199	H	1.547996	-0.825670	0.310949
H200	H	1.881329	-0.492336	0.644282
H201	H	2.214662	-0.159003	0.977616
