data_functionalizedCrystal
_audit_creation_method	'MofGen! by Chris Wilmer'
_symmetry_space_group_name_H-M	'P1'
_symmetry_Int_Tables_number	1
_symmetry_cell_setting	triclinic
loop_
_symmetry_equiv_pos_as_xyz
  x,y,z
_cell_length_a	10.654554
_cell_length_b	10.654550
_cell_length_c	9.130313
_cell_angle_alpha	89.996938
_cell_angle_beta	90.002082
_cell_angle_gamma	95.514176
loop_
_atom_site_label
_atom_site_type_symbol
_atom_site_fract_x
_atom_site_fract_y
_atom_site_fract_z
O1	O	1.667833	-0.176425	0.121801
O2	O	1.302356	-0.193225	0.121802
O3	O	1.493498	-0.002086	0.121796
O4	O	1.476691	-0.367564	0.121807
O5	O	1.493490	-0.002081	-0.121803
O6	O	1.302348	-0.193220	-0.121797
O7	O	1.667826	-0.176420	-0.121798
Cu8	Cu	1.485086	-0.184820	-0.144040
Cu9	Cu	1.485095	-0.184826	0.144044
O10	O	1.476684	-0.367559	-0.121792
C11	C	1.255554	-0.191988	0.000003
C12	C	1.116111	-0.188294	0.000003
C13	C	1.492260	0.044714	-0.000002
C14	C	1.488568	0.184158	0.000003
C15	C	0.905602	-0.297367	0.000010
C16	C	1.036624	-0.300839	0.000010
C17	C	1.064571	-0.072269	0.000011
C18	C	0.933552	-0.068799	0.000021
C19	C	0.889469	-0.429330	0.000003
C20	C	1.020490	-0.432802	0.000003
C21	C	1.714627	-0.177657	0.000004
C22	C	1.854070	-0.181351	0.000013
N23	N	1.485089	-0.184815	-0.346663
C24	C	1.477922	-0.414360	0.000009
C25	C	1.481613	-0.553803	0.000013
C26	C	1.601109	0.263642	-0.000002
C27	C	1.597633	0.394663	0.000009
C28	C	1.369064	0.366703	0.000022
C29	C	1.372541	0.235684	0.000023
C30	C	1.733072	0.279785	-0.000016
C31	C	1.729595	0.410806	-0.000006
C32	C	1.408270	-0.107930	-0.423340
C33	C	1.408273	-0.107936	-0.576677
C34	C	1.561924	-0.261714	-0.576645
C35	C	1.561914	-0.261714	-0.423311
C36	C	1.319565	-0.019143	-0.423360
C37	C	1.319568	-0.019149	-0.576697
N38	N	1.485102	-0.184821	0.346666
H39	H	1.129300	0.019366	0.000020
H40	H	0.843815	-0.469197	-0.105173
H41	H	1.779314	0.452567	-0.101950
H42	H	0.847726	-0.479061	0.101946
H43	H	0.891601	0.025672	0.000043
H44	H	1.624456	-0.324332	-0.360886
C45	C	1.068637	-0.489587	0.142090
C46	C	1.045932	-0.427134	0.290619
C47	C	1.094077	-0.483912	0.432707
C48	C	1.164928	-0.603142	0.426266
C49	C	1.187636	-0.665601	0.277731
C50	C	1.139491	-0.608824	0.135643
H51	H	0.993481	-0.338867	0.295392
H52	H	1.077266	-0.437674	0.542662
H53	H	1.200568	-0.645172	0.531448
H54	H	1.240087	-0.753869	0.272958
H55	H	1.156301	-0.655061	0.025688
H56	H	1.624470	-0.324325	-0.639071
C57	C	1.802793	0.240105	0.137696
C58	C	1.855481	0.340491	0.248722
C59	C	1.925199	0.300810	0.386430
C60	C	1.942228	0.160743	0.413113
C61	C	1.889538	0.060347	0.302084
C62	C	1.819821	0.100029	0.164375
H63	H	1.842876	0.444185	0.228973
H64	H	1.964203	0.375130	0.468621
H65	H	1.993837	0.131368	0.515053
H66	H	1.902143	-0.043347	0.321833
H67	H	1.780817	0.025709	0.082184
C68	C	1.185754	-0.060841	-0.367145
C69	C	1.075320	0.015649	-0.407911
C70	C	0.941513	-0.026049	-0.351696
C71	C	0.918141	-0.144238	-0.254716
C72	C	1.028578	-0.220736	-0.213945
C73	C	1.162385	-0.179037	-0.270160
H74	H	1.092618	0.103146	-0.479706
H75	H	0.859760	0.030580	-0.381878
H76	H	0.819089	-0.175106	-0.213102
H77	H	1.011280	-0.308233	-0.142150
H78	H	1.244138	-0.235666	-0.239979
C79	C	1.372936	0.108613	-0.359113
C80	C	1.509075	0.161792	-0.394491
C81	C	1.562439	0.289554	-0.330250
C82	C	1.479663	0.364137	-0.230631
C83	C	1.343516	0.310959	-0.195247
C84	C	1.290152	0.183197	-0.259488
H85	H	1.570358	0.106581	-0.468240
H86	H	1.663224	0.328919	-0.356444
H87	H	1.519166	0.458714	-0.183076
H88	H	1.282233	0.366170	-0.121499
H89	H	1.189367	0.143832	-0.233295
H90	H	1.049848	-0.484390	-0.101953
H91	H	1.274599	0.408672	0.000039
H92	H	1.775090	0.244160	-0.105197
H93	H	1.350495	0.079892	-0.618316
H94	H	1.224981	-0.058612	-0.624262
H95	H	1.280899	0.170972	0.000047
H96	H	1.769479	0.456446	0.105173
