data_functionalizedCrystal
_audit_creation_method	'MofGen! by Chris Wilmer'
_symmetry_space_group_name_H-M	'P1'
_symmetry_Int_Tables_number	1
_symmetry_cell_setting	triclinic
loop_
_symmetry_equiv_pos_as_xyz
  x,y,z
_cell_length_a	14.519709
_cell_length_b	13.596369
_cell_length_c	14.519709
_cell_angle_alpha	89.993066
_cell_angle_beta	96.319855
_cell_angle_gamma	89.999709
loop_
_atom_site_label
_atom_site_type_symbol
_atom_site_fract_x
_atom_site_fract_y
_atom_site_fract_z
O1	O	-1.223868	-0.081665	0.120893
O2	O	-0.723868	0.418335	0.620893
O3	O	-0.955392	-0.081696	0.135129
O4	O	-0.455392	0.418304	0.635129
O5	O	-1.096748	-0.081671	-0.006227
O6	O	-0.596748	0.418329	0.493773
O7	O	-1.082512	-0.081690	0.262249
O8	O	-0.582512	0.418310	0.762249
O9	O	-1.096734	0.081912	-0.006235
O10	O	-0.596734	0.581912	0.493765
O11	O	-0.955377	0.081887	0.135122
O12	O	-0.455377	0.581887	0.635122
O13	O	-1.223854	0.081917	0.120885
O14	O	-0.723854	0.581917	0.620885
Zn15	Zn	-1.089614	0.107875	0.128002
Zn16	Zn	-0.589614	0.607875	0.628002
Zn17	Zn	-1.089632	-0.107653	0.128012
Zn18	Zn	-0.589632	0.392347	0.628012
O19	O	-1.082498	0.081893	0.262242
O20	O	-0.582498	0.581893	0.762242
C21	C	-0.921025	0.000092	0.134462
C22	C	-0.421025	0.500092	0.634462
C23	C	-0.818643	0.000081	0.132474
C24	C	-0.318643	0.500081	0.632474
N25	N	-1.089608	0.254966	0.127995
N26	N	-0.589608	0.754966	0.627995
C27	C	-1.096078	0.000121	-0.040591
C28	C	-0.596078	0.500121	0.459409
C29	C	-1.094090	0.000121	-0.142972
C30	C	-0.594090	0.500121	0.357028
C31	C	-1.258221	0.000128	0.121553
C32	C	-0.758221	0.500128	0.621553
C33	C	-1.360602	0.000132	0.123541
C34	C	-0.860602	0.500132	0.623541
C35	C	-0.443748	0.000126	0.125154
C36	C	0.056252	0.500126	0.625154
C37	C	-0.548056	0.000113	0.127187
C38	C	-0.048056	0.500113	0.627187
C39	C	-0.631192	0.000102	0.128814
C40	C	-0.131192	0.500102	0.628814
C41	C	-0.735507	0.000091	0.130847
C42	C	-0.235507	0.500091	0.630847
N43	N	-1.089645	-0.254745	0.128012
N44	N	-0.589645	0.245255	0.628012
C45	C	-1.089631	0.656257	0.128013
C46	C	-0.589631	1.156257	0.628013
C47	C	-1.089622	0.544606	0.128011
C48	C	-0.589622	1.044606	0.628011
C49	C	-1.089620	0.455615	0.128005
C50	C	-0.589620	0.955615	0.628005
C51	C	-1.089610	0.343957	0.128001
C52	C	-0.589610	0.843957	0.628001
C53	C	-1.086770	0.000095	-0.517868
C54	C	-0.586770	0.500095	-0.017868
C55	C	-1.088803	0.000102	-0.413560
C56	C	-0.588803	0.500102	0.086440
C57	C	-1.090430	0.000109	-0.330423
C58	C	-0.590430	0.500109	0.169577
C59	C	-1.092463	0.000114	-0.226109
C60	C	-0.592463	0.500114	0.273891
C61	C	-1.083168	0.000099	0.296605
C62	C	-0.583168	0.500099	0.796605
C63	C	-1.085156	0.000092	0.398987
C64	C	-0.585156	0.500092	0.898987
