data_functionalizedCrystal
_audit_creation_method	'MofGen! by Chris Wilmer'
_symmetry_space_group_name_H-M	'P1'
_symmetry_Int_Tables_number	1
_symmetry_cell_setting	triclinic
loop_
_symmetry_equiv_pos_as_xyz
  x,y,z
_cell_length_a	18.215407
_cell_length_b	12.759400
_cell_length_c	18.215399
_cell_angle_alpha	90.021909
_cell_angle_beta	90.017368
_cell_angle_gamma	90.011727
loop_
_atom_site_label
_atom_site_type_symbol
_atom_site_fract_x
_atom_site_fract_y
_atom_site_fract_z
Zn1	Zn	1.125126	-0.418349	0.416098
Zn2	Zn	1.375126	-0.168349	0.666098
Zn3	Zn	1.625126	0.081651	0.916098
Zn4	Zn	1.875126	0.331651	1.166098
Zn5	Zn	1.125057	-0.594046	0.293045
Zn6	Zn	1.375057	-0.344046	0.543045
Zn7	Zn	1.625057	-0.094046	0.793045
Zn8	Zn	1.875057	0.155954	1.043045
Zn9	Zn	1.002059	-0.418374	0.293051
Zn10	Zn	1.252059	-0.168374	0.543051
Zn11	Zn	1.502059	0.081626	0.793051
Zn12	Zn	1.752059	0.331626	1.043051
Zn13	Zn	1.002047	-0.593978	0.416075
Zn14	Zn	1.252047	-0.343978	0.666075
Zn15	Zn	1.502047	-0.093978	0.916075
Zn16	Zn	1.752047	0.156022	1.166075
O17	O	1.063572	-0.506187	0.354567
O18	O	1.313572	-0.256187	0.604567
O19	O	1.563572	-0.006187	0.854567
O20	O	1.813572	0.243813	1.104567
O21	O	1.228101	-0.441673	0.399782
O22	O	1.478101	-0.191673	0.649782
O23	O	1.728101	0.058327	0.899782
O24	O	1.978101	0.308327	1.149782
O25	O	1.108717	-0.570782	0.190062
O26	O	1.358717	-0.320782	0.440062
O27	O	1.608717	-0.070782	0.690062
O28	O	1.858717	0.179218	0.940062
O29	O	1.018417	-0.271350	0.309386
O30	O	1.268417	-0.021350	0.559386
O31	O	1.518417	0.228650	0.809386
O32	O	1.768417	0.478650	1.059386
O33	O	1.228051	-0.570757	0.309376
O34	O	1.478051	-0.320757	0.559376
O35	O	1.728051	-0.070757	0.809376
O36	O	1.978051	0.179243	1.059376
O37	O	1.108835	-0.271331	0.399788
O38	O	1.358835	-0.021331	0.649788
O39	O	1.608835	0.228669	0.899788
O40	O	1.858835	0.478669	1.149788
O41	O	1.018351	-0.441716	0.190066
O42	O	1.268351	-0.191716	0.440066
O43	O	1.518351	0.058284	0.690066
O44	O	1.768351	0.308284	0.940066
O45	O	0.899073	-0.441650	0.309363
O46	O	1.149073	-0.191650	0.559363
O47	O	1.399073	0.058350	0.809363
O48	O	1.649073	0.308350	1.059363
O49	O	1.018398	-0.570642	0.519063
O50	O	1.268398	-0.320642	0.769063
O51	O	1.518398	-0.070642	1.019063
O52	O	1.768398	0.179358	1.269063
O53	O	0.899065	-0.570666	0.399749
O54	O	1.149065	-0.320666	0.649749
O55	O	1.399065	-0.070666	0.899749
O56	O	1.649065	0.179334	1.149749
O57	O	1.108824	-0.441608	0.519080
O58	O	1.358824	-0.191608	0.769080
O59	O	1.608824	0.058392	1.019080
O60	O	1.858824	0.308392	1.269080
O61	O	1.108706	-0.741058	0.309353
O62	O	1.358706	-0.491058	0.559353
O63	O	1.608706	-0.241058	0.809353
O64	O	1.858706	0.008942	1.059353
O65	O	1.018331	-0.741008	0.399743
O66	O	1.268331	-0.491008	0.649743
O67	O	1.518331	-0.241008	0.899743
O68	O	1.768331	0.008992	1.149743
C69	C	0.872366	-0.506154	0.354555
C70	C	1.122366	-0.256154	0.604555
C71	C	1.372366	-0.006154	0.854555
C72	C	1.622366	0.243846	1.104555
C73	C	0.790567	-0.506166	0.354566
C74	C	1.040567	-0.256166	0.604566
C75	C	1.290567	-0.006166	0.854566
C76	C	1.540567	0.243834	1.104566
C77	C	0.602399	-0.439090	0.401716
C78	C	0.852399	-0.189090	0.651716
C79	C	1.102399	0.060910	0.901716
C80	C	1.352399	0.310910	1.151716
C81	C	0.525540	-0.439099	0.401718
C82	C	0.775540	-0.189099	0.651718
C83	C	1.025540	0.060901	0.901718
C84	C	1.275540	0.310901	1.151718
C85	C	0.525498	-0.573313	0.307432
C86	C	0.775498	-0.323313	0.557432
C87	C	1.025498	-0.073313	0.807432
C88	C	1.275498	0.176687	1.057432
C89	C	0.602355	-0.573298	0.307427
C90	C	0.852355	-0.323298	0.557427
C91	C	1.102355	-0.073298	0.807427
C92	C	1.352355	0.176702	1.057427
C93	C	0.640804	-0.506188	0.354572
C94	C	0.890804	-0.256188	0.604572
C95	C	1.140804	-0.006188	0.854572
C96	C	1.390804	0.243812	1.104572
C97	C	0.487088	-0.506212	0.354581
C98	C	0.737088	-0.256212	0.604581
C99	C	0.987088	-0.006212	0.854581
C100	C	1.237088	0.243788	1.104581
C101	C	0.403754	-0.506222	0.354583
C102	C	0.653754	-0.256222	0.604583
C103	C	0.903754	-0.006222	0.854583
C104	C	1.153754	0.243778	1.104583
C105	C	0.724143	-0.506176	0.354569
C106	C	0.974143	-0.256176	0.604569
C107	C	1.224143	-0.006176	0.854569
C108	C	1.474143	0.243824	1.104569
C109	C	1.063530	-0.779154	0.354561
C110	C	1.313530	-0.529154	0.604561
C111	C	1.563530	-0.279154	0.854561
C112	C	1.813530	-0.029154	1.104561
C113	C	1.063579	-0.895931	0.354583
C114	C	1.313579	-0.645931	0.604583
C115	C	1.563579	-0.395931	0.854583
C116	C	1.813579	-0.145931	1.104583
C117	C	1.016511	-0.950805	0.401611
C118	C	1.266511	-0.700805	0.651611
C119	C	1.516511	-0.450805	0.901611
C120	C	1.766511	-0.200805	1.151611
C121	C	1.016550	-1.060529	0.401618
C122	C	1.266550	-0.810529	0.651618
C123	C	1.516550	-0.560529	0.901618
C124	C	1.766550	-0.310529	1.151618
C125	C	1.110732	-1.060495	0.307566
C126	C	1.360732	-0.810495	0.557566
C127	C	1.610732	-0.560495	0.807566
C128	C	1.860732	-0.310495	1.057566
C129	C	1.110689	-0.950773	0.307556
C130	C	1.360689	-0.700773	0.557556
C131	C	1.610689	-0.450773	0.807556
C132	C	1.860689	-0.200773	1.057556
C133	C	0.969402	-0.895963	0.448638
C134	C	1.219402	-0.645963	0.698638
C135	C	1.469402	-0.395963	0.948638
C136	C	1.719402	-0.145963	1.198638
C137	C	0.922330	-0.950838	0.495672
C138	C	1.172330	-0.700838	0.745672
C139	C	1.422330	-0.450838	0.995672
C140	C	1.672330	-0.200838	1.245672
C141	C	0.922369	-1.060562	0.495679
C142	C	1.172369	-0.810562	0.745679
C143	C	1.422369	-0.560562	0.995679
C144	C	1.672369	-0.310562	1.245679
C145	C	0.969480	-1.115411	0.448652
C146	C	1.219480	-0.865411	0.698652
C147	C	1.469480	-0.615411	0.948652
C148	C	1.719480	-0.365411	1.198652
C149	C	1.255525	-0.506220	0.354581
C150	C	1.505525	-0.256220	0.604581
C151	C	1.755525	-0.006220	0.854581
C152	C	2.005525	0.243780	1.104581
C153	C	1.337324	-0.506234	0.354586
C154	C	1.587324	-0.256234	0.604586
C155	C	1.837324	-0.006234	0.854586
C156	C	2.087324	0.243766	1.104586
C157	C	1.063617	-0.506114	0.546520
C158	C	1.313617	-0.256114	0.796520
C159	C	1.563617	-0.006114	1.046520
C160	C	1.813617	0.243886	1.296520
C161	C	1.063636	-0.506083	0.628319
C162	C	1.313636	-0.256083	0.878319
C163	C	1.563636	-0.006083	1.128319
C164	C	1.813636	0.243917	1.378319
C165	C	1.063635	-0.232154	0.354590
C166	C	1.313635	0.017846	0.604590
C167	C	1.563635	0.267846	0.854590
C168	C	1.813635	0.517846	1.104590
C169	C	1.063662	-0.115377	0.354600
C170	C	1.313662	0.134623	0.604600
C171	C	1.563662	0.384623	0.854600
C172	C	1.813662	0.634623	1.104600
C173	C	1.063570	-0.506183	0.163361
C174	C	1.313570	-0.256183	0.413361
C175	C	1.563570	-0.006183	0.663361
C176	C	1.813570	0.243817	0.913361
C177	C	1.063694	-0.505918	0.081563
C178	C	1.313694	-0.255918	0.331563
C179	C	1.563694	-0.005918	0.581563
C180	C	1.813694	0.244082	0.831563
C181	C	1.110738	-0.438832	0.816523
C182	C	1.360738	-0.188832	1.066523
C183	C	1.610738	0.061168	1.316523
C184	C	1.860738	0.311168	1.566523
C185	C	1.110747	-0.438802	0.893382
C186	C	1.360747	-0.188802	1.143382
C187	C	1.610747	0.061198	1.393382
C188	C	1.860747	0.311198	1.643382
C189	C	1.016587	-0.573172	0.893353
C190	C	1.266587	-0.323172	1.143353
C191	C	1.516587	-0.073172	1.393353
C192	C	1.766587	0.176828	1.643353
C193	C	1.016575	-0.573197	0.816496
C194	C	1.266575	-0.323197	1.066496
C195	C	1.516575	-0.073197	1.316496
C196	C	1.766575	0.176803	1.566496
C197	C	1.063655	-0.506028	0.778083
C198	C	1.313655	-0.256028	1.028083
C199	C	1.563655	-0.006028	1.278083
C200	C	1.813655	0.243972	1.528083
C201	C	1.063675	-0.505973	0.931799
C202	C	1.313675	-0.255973	1.181799
C203	C	1.563675	-0.005973	1.431799
C204	C	1.813675	0.244027	1.681799
C205	C	1.063684	-0.505940	1.015133
C206	C	1.313684	-0.255940	1.265133
C207	C	1.563684	-0.005940	1.515133
C208	C	1.813684	0.244060	1.765133
C209	C	1.063645	-0.506059	0.694744
C210	C	1.313645	-0.256059	0.944744
C211	C	1.563645	-0.006059	1.194744
C212	C	1.813645	0.243941	1.444744
H213	H	0.494184	-0.627952	0.269048
H214	H	0.744184	-0.377952	0.519048
H215	H	0.994184	-0.127952	0.769048
H216	H	1.244184	0.122048	1.019048
O217	O	0.969365	-0.777619	0.448622
O218	O	1.219365	-0.527619	0.698622
O219	O	1.469365	-0.277619	0.948622
O220	O	1.719365	-0.027619	1.198622
H221	H	0.954515	-0.748755	0.393095
H222	H	1.204515	-0.498755	0.643095
H223	H	1.454515	-0.248755	0.893095
H224	H	1.704515	0.001245	1.143095
H225	H	1.149085	-0.384083	0.924677
H226	H	1.399085	-0.134083	1.174677
H227	H	1.649085	0.115917	1.424677
H228	H	1.899085	0.365917	1.674677
O229	O	0.871518	-0.891675	0.546383
O230	O	1.121518	-0.641675	0.796383
O231	O	1.371518	-0.391675	1.046383
O232	O	1.621518	-0.141675	1.296383
H233	H	0.813774	-0.912795	0.533704
H234	H	1.063774	-0.662795	0.783704
H235	H	1.313774	-0.412795	1.033704
H236	H	1.563774	-0.162795	1.283704
H237	H	0.633701	-0.384442	0.440103
H238	H	0.883701	-0.134442	0.690103
H239	H	1.133701	0.115558	0.940103
H240	H	1.383701	0.365558	1.190103
O241	O	1.161472	-0.891592	0.256842
O242	O	1.411472	-0.641592	0.506842
O243	O	1.661472	-0.391592	0.756842
O244	O	1.911472	-0.141592	1.006842
H245	H	1.198869	-0.841542	0.289819
H246	H	1.448869	-0.591542	0.539819
H247	H	1.698869	-0.341542	0.789819
H248	H	1.948869	-0.091542	1.039819
H249	H	0.978229	-0.627915	0.785197
H250	H	1.228229	-0.377915	1.035197
H251	H	1.478229	-0.127915	1.285197
H252	H	1.728229	0.122085	1.535197
O253	O	0.871602	-1.119754	0.546402
O254	O	1.121602	-0.869754	0.796402
O255	O	1.371602	-0.619754	1.046402
O256	O	1.621602	-0.369754	1.296402
H257	H	0.838843	-1.063181	0.579102
H258	H	1.088843	-0.813181	0.829102
H259	H	1.338843	-0.563181	1.079102
H260	H	1.588843	-0.313181	1.329102
O261	O	0.484114	-0.366732	0.452566
O262	O	0.734114	-0.116732	0.702566
O263	O	0.984114	0.133268	0.952566
O264	O	1.234114	0.383268	1.202566
H265	H	0.523765	-0.320072	0.485349
H266	H	0.773765	-0.070072	0.735349
H267	H	1.023765	0.179928	0.985349
H268	H	1.273765	0.429928	1.235349
O269	O	0.969522	-1.233758	0.448650
O270	O	1.219522	-0.983758	0.698650
O271	O	1.469522	-0.733758	0.948650
O272	O	1.719522	-0.483758	1.198650
H273	H	0.984380	-1.262641	0.504169
H274	H	1.234380	-1.012641	0.754169
H275	H	1.484380	-0.762641	1.004169
H276	H	1.734380	-0.512641	1.254169
O277	O	0.643787	-0.645667	0.256575
O278	O	0.893787	-0.395667	0.506575
O279	O	1.143787	-0.145667	0.756575
O280	O	1.393787	0.104333	1.006575
H281	H	0.604141	-0.692344	0.223799
H282	H	0.854141	-0.442344	0.473799
H283	H	1.104141	-0.192344	0.723799
H284	H	1.354141	0.057656	0.973799
O285	O	1.161562	-1.119646	0.256867
O286	O	1.411562	-0.869646	0.506867
O287	O	1.661562	-0.619646	0.756867
O288	O	1.911562	-0.369646	1.006867
H289	H	1.153695	-1.205162	0.264786
H290	H	1.403695	-0.955162	0.514786
H291	H	1.653695	-0.705162	0.764786
H292	H	1.903695	-0.455162	1.014786
H293	H	1.149071	-0.384137	0.785250
H294	H	1.399071	-0.134137	1.035250
H295	H	1.649071	0.115863	1.285250
H296	H	1.899071	0.365863	1.535250
O297	O	0.965810	-0.645618	0.934783
O298	O	1.215810	-0.395618	1.184783
O299	O	1.465810	-0.145618	1.434783
O300	O	1.715810	0.104382	1.684783
H301	H	0.973731	-0.634319	0.994685
H302	H	1.223731	-0.384319	1.244685
H303	H	1.473731	-0.134319	1.494685
H304	H	1.723731	0.115681	1.744685
