data_functionalizedCrystal
_audit_creation_method	'MofGen! by Chris Wilmer'
_symmetry_space_group_name_H-M	'P1'
_symmetry_Int_Tables_number	1
_symmetry_cell_setting	triclinic
loop_
_symmetry_equiv_pos_as_xyz
  x,y,z
_cell_length_a	8.559649
_cell_length_b	14.971486
_cell_length_c	14.048226
_cell_angle_alpha	90.001501
_cell_angle_beta	89.995035
_cell_angle_gamma	103.303603
loop_
_atom_site_label
_atom_site_type_symbol
_atom_site_fract_x
_atom_site_fract_y
_atom_site_fract_z
O1	O	0.208203	-1.172520	-0.079048
O2	O	0.233135	-0.910393	-0.079073
O3	O	-0.011889	-1.064550	-0.079057
O4	O	0.453227	-1.018363	-0.079064
O5	O	-0.011903	-1.064535	0.079264
O6	O	0.233121	-0.910377	0.079248
O7	O	0.208188	-1.172505	0.079274
Zn8	Zn	0.220652	-1.041438	0.104398
Zn9	Zn	0.220671	-1.041459	-0.104197
O10	O	0.453212	-1.018347	0.079258
C11	C	0.232013	-0.877137	0.000084
C12	C	0.228672	-0.778072	0.000074
C13	C	-0.071419	-1.068043	0.000102
C14	C	-0.248779	-1.078461	0.000098
C15	C	0.209310	-1.205760	0.000114
C16	C	0.212652	-1.304826	0.000118
C17	C	0.512743	-1.014855	0.000096
C18	C	0.690103	-1.004436	0.000094
N19	N	0.220638	-1.041431	0.246758
C20	C	0.372617	-0.710872	0.000074
C21	C	0.369468	-0.617791	0.000088
C22	C	0.222372	-0.591911	0.000096
C23	C	0.078416	-0.659119	0.000099
C24	C	0.081566	-0.752198	0.000092
C25	C	0.071859	-0.465111	0.000113
C26	C	0.068707	-0.372025	0.000118
C27	C	0.359760	-0.330704	0.000108
C28	C	0.362910	-0.423783	0.000101
C29	C	0.218954	-0.490984	0.000103
N30	N	0.220673	-1.041474	-0.246558
C31	C	0.112186	-1.109708	0.296583
C32	C	0.112186	-1.109714	0.396241
C33	C	0.220645	-1.041446	0.446072
C34	C	0.329102	-0.973163	0.396240
C35	C	0.329094	-0.973153	0.296584
C36	C	0.329114	-0.973188	0.603954
C37	C	0.329124	-0.973197	0.703617
C38	C	0.112205	-1.109748	0.703611
C39	C	0.112197	-1.109739	0.603955
C40	C	0.220657	-1.041456	0.554130
H41	H	-0.226536	-0.933089	0.000090
H42	H	-0.332149	-1.149813	0.000112
C43	C	0.534436	-0.739330	0.000066
N44	N	0.656324	-0.760760	0.000065
H45	H	0.417405	-0.917554	0.256017
H46	H	0.486682	-0.563079	0.000086
H47	H	0.417407	-0.917573	0.436818
C48	C	0.448426	-0.898095	0.758429
N49	N	0.538284	-0.841525	0.799713
C50	C	0.524723	-0.452248	0.000096
N51	N	0.646603	-0.473687	0.000098
C52	C	-0.007131	-1.184809	0.241779
N53	N	-0.097010	-1.241375	0.200503
C54	C	-0.086503	-0.539031	0.000111
N55	N	-0.205778	-0.594708	0.000103
C56	C	-0.093106	-0.343560	0.000129
N57	N	-0.214986	-0.322121	0.000137
H58	H	-0.041353	-0.638040	0.000120
C59	C	-0.007159	-1.184806	0.451044
N60	N	-0.097069	-1.241361	0.492321
C61	C	-0.007108	-1.184858	0.758421
N62	N	-0.096968	-1.241429	0.799708
H63	H	0.476974	-0.275983	0.000111
C64	C	0.448409	-0.898064	0.549149
N65	N	0.538260	-0.841482	0.507869
H66	H	-0.035649	-0.806913	0.000092
H67	H	0.023889	-1.165332	0.563383
