data_functionalizedCrystal
_audit_creation_method	'MofGen! by Chris Wilmer'
_symmetry_space_group_name_H-M	'P1'
_symmetry_Int_Tables_number	1
_symmetry_cell_setting	triclinic
loop_
_symmetry_equiv_pos_as_xyz
  x,y,z
_cell_length_a	13.897449
_cell_length_b	16.625545
_cell_length_c	13.897441
_cell_angle_alpha	89.969815
_cell_angle_beta	89.978743
_cell_angle_gamma	90.026384
loop_
_atom_site_label
_atom_site_type_symbol
_atom_site_fract_x
_atom_site_fract_y
_atom_site_fract_z
Zn1	Zn	1.474630	-0.320966	-0.545446
Zn2	Zn	1.974630	0.179034	-0.045446
Zn3	Zn	1.474507	-0.455814	-0.384146
Zn4	Zn	1.974507	0.044186	0.115854
Zn5	Zn	1.313325	-0.321001	-0.384157
Zn6	Zn	1.813325	0.178999	0.115843
Zn7	Zn	1.313278	-0.455762	-0.545391
Zn8	Zn	1.813278	0.044238	-0.045391
O9	O	1.393935	-0.388386	-0.464785
O10	O	1.893935	0.111614	0.035215
O11	O	1.609595	-0.338861	-0.524068
O12	O	2.109595	0.161139	-0.024068
O13	O	1.453095	-0.437967	-0.249165
O14	O	1.953095	0.062033	0.250835
O15	O	1.334793	-0.208164	-0.405580
O16	O	1.834793	0.291836	0.094420
O17	O	1.609505	-0.437933	-0.405561
O18	O	2.109505	0.062067	0.094439
O19	O	1.453303	-0.208138	-0.524078
O20	O	1.953303	0.291862	-0.024078
O21	O	1.334674	-0.338920	-0.249174
O22	O	1.834674	0.161080	0.250826
O23	O	1.178337	-0.338870	-0.405526
O24	O	1.678337	0.161130	0.094474
O25	O	1.334714	-0.437845	-0.680380
O26	O	1.834714	0.062155	-0.180380
O27	O	1.178303	-0.437879	-0.523984
O28	O	1.678303	0.062121	-0.023984
O29	O	1.453258	-0.338811	-0.680420
O30	O	1.953258	0.161189	-0.180420
O31	O	1.453050	-0.568639	-0.405508
O32	O	1.953050	-0.068639	0.094492
O33	O	1.334595	-0.568601	-0.523974
O34	O	1.834595	-0.068601	-0.023974
C35	C	1.143321	-0.388373	-0.464751
C36	C	1.643321	0.111627	0.035249
C37	C	1.036107	-0.388387	-0.464760
C38	C	1.536107	0.111613	0.035240
C39	C	0.949037	-0.388390	-0.464776
C40	C	1.449037	0.111610	0.035224
C41	C	0.839804	-0.388396	-0.464805
C42	C	1.339804	0.111604	0.035195
C43	C	1.393830	-0.597877	-0.464754
C44	C	1.893830	-0.097877	0.035246
C45	C	1.393874	-0.687498	-0.464774
C46	C	1.893874	-0.187498	0.035226
C47	C	1.393911	-0.760280	-0.464793
C48	C	1.893911	-0.260280	0.035207
C49	C	1.393967	-0.851589	-0.464814
C50	C	1.893967	-0.351589	0.035186
C51	C	1.394017	-0.924365	-0.464826
C52	C	1.894017	-0.424365	0.035174
C53	C	1.394072	-1.015679	-0.464846
C54	C	1.894072	-0.515679	0.035154
C55	C	1.645528	-0.388399	-0.464819
C56	C	2.145528	0.111601	0.035181
C57	C	1.752742	-0.388404	-0.464834
C58	C	2.252742	0.111596	0.035166
C59	C	1.393994	-0.388318	-0.716378
C60	C	1.893994	0.111682	-0.216378
C61	C	1.394019	-0.388289	-0.823592
C62	C	1.894019	0.111711	-0.323592
C63	C	1.394066	-0.178077	-0.464836
C64	C	1.894066	0.321923	0.035164
C65	C	1.394123	-0.088456	-0.464858
C66	C	1.894123	0.411544	0.035142
C67	C	1.394039	-0.388266	-0.910662
C68	C	1.894039	0.111734	-0.410662
C69	C	1.394067	-0.388230	-1.019894
C70	C	1.894067	0.111770	-0.519894
C71	C	1.393932	-0.388395	-0.214170
C72	C	1.893932	0.111605	0.285830
C73	C	1.394093	-0.388197	-0.106957
C74	C	1.894093	0.111803	0.393043
