data_functionalizedCrystal
_audit_creation_method	'MofGen! by Chris Wilmer'
_symmetry_space_group_name_H-M	'P1'
_symmetry_Int_Tables_number	1
_symmetry_cell_setting	triclinic
loop_
_symmetry_equiv_pos_as_xyz
  x,y,z
_cell_length_a	27.440280
_cell_length_b	14.560438
_cell_length_c	14.560438
_cell_angle_alpha	89.999999
_cell_angle_beta	59.992707
_cell_angle_gamma	60.000360
loop_
_atom_site_label
_atom_site_type_symbol
_atom_site_fract_x
_atom_site_fract_y
_atom_site_fract_z
Zr1	Zr	0.533483	0.884717	-0.120704
O2	O	0.635163	0.738059	-0.267380
O3	O	0.431804	0.929681	-0.075718
O4	O	0.533485	0.929669	-0.267353
O5	O	0.533481	0.738075	0.075396
O6	O	0.533485	1.080808	-0.267356
O7	O	0.533482	0.738071	-0.075745
O8	O	0.351597	1.080829	0.075444
O9	O	0.715369	0.738053	-0.267404
O10	O	0.473626	1.061644	-0.056560
O11	O	0.473625	0.948854	0.056236
O12	O	0.593341	0.948840	-0.169389
O13	O	0.593339	0.836049	-0.056592
Zr14	Zr	0.533482	1.125773	0.120344
Zr15	Zr	0.533484	1.125767	-0.120708
Zr16	Zr	0.533481	0.884723	0.120348
Zr17	Zr	0.661403	0.884708	-0.120742
Zr18	Zr	0.405562	1.125782	0.120382
O19	O	0.635161	1.080809	0.075358
O20	O	0.635164	1.080800	-0.267387
O21	O	0.635160	0.738068	0.075365
O22	O	0.431802	1.272431	0.267020
O23	O	0.431805	1.272422	-0.075725
O24	O	0.431801	0.929689	0.267027
O25	O	0.533484	1.272415	-0.075756
O26	O	0.533480	1.080821	0.266993
O27	O	0.533480	0.929682	0.266996
O28	O	0.533482	1.272419	0.075385
O29	O	0.715369	0.929656	-0.267408
O30	O	0.351595	1.080834	0.267048
O31	O	0.351596	1.272436	0.267044
O32	O	0.351598	1.272432	0.075440
O33	O	0.715367	0.738058	-0.075800
O34	O	0.715368	0.929660	-0.075804
O35	O	0.473624	1.061650	0.169029
O36	O	0.473625	1.174441	0.056232
O37	O	0.593340	1.061636	-0.056596
O38	O	0.593339	0.948845	0.056200
C39	C	0.373475	1.005256	-0.000132
C40	C	0.319170	1.005260	-0.000116
C41	C	0.533482	0.703729	-0.000174
C42	C	0.533481	0.601397	-0.000172
C43	C	0.026672	0.921974	-0.083489
C44	C	-0.024345	0.921973	-0.083501
O45	O	-0.013152	0.851180	-0.154350
N46	N	-0.094050	1.005241	-0.000224
C47	C	-0.112737	1.088521	0.083063
O48	O	-0.176711	1.159348	0.153894
C49	C	-0.061721	1.088526	0.083069
C50	C	0.007984	1.005246	-0.000206
C51	C	0.096373	0.838702	-0.166758
C52	C	0.147387	0.838702	-0.166745
C53	C	0.128699	0.921974	-0.083462
C54	C	0.058997	1.005246	-0.000193
C55	C	-0.080409	1.171810	0.166351
C56	C	-0.029385	1.171808	0.166349
C57	C	0.040320	1.088528	0.083074
C58	C	0.091323	1.088518	0.083103
N59	N	0.161027	1.005250	-0.000174
C60	C	0.179715	0.921978	-0.083456
C61	C	-0.219872	1.088507	0.083043
C62	C	-0.270889	1.088499	0.083042
C63	C	-0.182493	0.921952	-0.083523
C64	C	-0.131476	0.921956	-0.083517
C65	C	-0.150168	1.005239	-0.000234
C66	C	0.286844	0.921983	-0.083422
C67	C	0.337858	0.921988	-0.083398
C68	C	0.249457	1.088538	0.083163
C69	C	0.198448	1.088531	0.083144
C70	C	0.217146	1.005248	-0.000158
O71	O	0.080181	1.159278	0.153914
O72	O	0.243689	0.851172	-0.154284
C73	C	0.533483	0.457160	0.083082
C74	C	0.533479	0.553315	0.083093
C75	C	0.533480	0.553325	-0.083447
C76	C	0.533479	0.457176	-0.083452
C77	C	0.693490	1.005234	-0.000228
C78	C	0.747795	1.005230	-0.000244
C79	C	0.533485	1.005237	-0.301699
C80	C	0.533486	1.005235	-0.404032
C81	C	0.533483	1.306761	-0.000186
C82	C	0.533483	1.409093	-0.000188
C83	C	0.595975	0.946353	-0.511004
C84	C	0.595971	0.946366	-0.607153
C85	C	0.470985	1.064144	-0.489345
C86	C	0.470989	1.064137	-0.393198
C87	C	0.533480	1.005253	0.301339
C88	C	0.533479	1.005255	0.403672
C89	C	0.373476	1.306772	-0.000138
C90	C	0.319171	1.409108	-0.000123
C91	C	0.373472	1.005264	0.301388
C92	C	0.319166	1.005270	0.403737
C93	C	0.373473	1.306780	0.301382
C94	C	0.319167	1.409118	0.403729
C95	C	0.693492	0.703710	-0.301742
C96	C	0.747798	0.601371	-0.404089
C97	C	0.693489	0.703717	-0.000222
C98	C	0.747794	0.601382	-0.000237
C99	C	0.693493	1.005226	-0.301748
C100	C	0.747799	1.005219	-0.404097
C101	C	0.293669	1.398288	-0.059003
C102	C	0.242651	1.494434	-0.059012
C103	C	0.217132	1.601399	-0.000134
C104	C	0.242639	1.612218	0.058748
C105	C	0.293659	1.516073	0.058749
C106	C	0.293663	1.064152	0.510688
C107	C	0.242644	1.064154	0.606865
C108	C	0.217125	1.005280	0.596089
C109	C	0.242633	0.946391	0.489127
C110	C	0.293655	0.946383	0.392952
C111	C	0.293665	1.516063	0.392914
C112	C	0.242646	1.612230	0.489071
C113	C	0.217127	1.601450	0.596042
C114	C	0.242634	1.494494	0.606855
C115	C	0.293655	1.398329	0.510699
C116	C	0.773306	0.494427	-0.393274
C117	C	0.824341	0.398260	-0.489431
C118	C	0.849863	0.409040	-0.596402
C119	C	0.824353	0.515996	-0.607215
C120	C	0.773322	0.612160	-0.511059
C121	C	0.773301	0.612202	0.058633
C122	C	0.824333	0.516056	0.058616
C123	C	0.849854	0.409091	-0.000266
C124	C	0.824345	0.398272	-0.059143
C125	C	0.773317	0.494417	-0.059131
C126	C	0.773301	1.064105	-0.393285
C127	C	0.824321	1.064121	-0.489444
C128	C	0.849840	1.005244	-0.596413
C129	C	0.824333	0.946357	-0.607223
C130	C	0.773311	0.946348	-0.511066
H131	H	0.394616	0.854164	-0.151210
H132	H	0.646863	0.898391	-0.519832
H133	H	0.752554	0.699237	-0.519879
C134	C	0.402244	1.128913	-0.275519
N135	N	0.350466	1.177703	-0.186884
C136	C	0.745241	0.729856	0.123406
N137	N	0.724113	0.818470	0.172190
H138	H	0.420103	1.112099	-0.480537
C139	C	0.214597	1.482508	-0.123777
N140	N	0.193466	1.473523	-0.172556
C141	C	0.321695	0.881619	0.275308
N142	N	0.342812	0.832837	0.186699
C143	C	0.321731	1.527949	0.275254
N144	N	0.342871	1.536911	0.186635
H145	H	0.845102	0.311181	-0.480604
C146	C	0.160993	1.005311	0.701896
N147	N	0.118711	1.005345	0.781594
H148	H	-0.137159	1.239626	0.234162
H149	H	0.314446	1.311200	-0.106963
H150	H	0.314412	1.311254	0.519521
C151	C	0.214552	0.881640	0.477292
N152	N	0.193395	0.832876	0.468381
C153	C	0.161003	1.707151	-0.000139
N154	N	0.118724	1.786800	-0.000141
C155	C	0.745245	0.482541	-0.275614
N156	N	0.724117	0.473579	-0.186995
C157	C	0.214588	1.128951	0.724513
N158	N	0.193456	1.177761	0.813122
C159	C	0.745273	0.881548	-0.522978
N160	N	0.724159	0.832734	-0.531959
H161	H	0.646856	0.898420	-0.694251
C162	C	0.852379	0.527982	0.123398
N163	N	0.873499	0.536967	0.172195
H164	H	0.891404	0.330812	-0.000266
H165	H	0.221884	1.699310	0.480246
H166	H	0.221854	1.699322	0.106684
H167	H	0.533477	0.592450	0.150900
H168	H	0.314416	1.524899	0.106703
C169	C	-0.347562	1.180113	0.174651
N170	N	-0.405312	1.249128	0.243648
H171	H	0.314435	1.112094	0.519484
H172	H	0.845132	0.311168	-0.107083
H173	H	0.752551	0.485591	-0.107067
C174	C	0.745235	1.128886	-0.275626
N175	N	0.724096	1.177689	-0.187008
C176	C	0.852373	1.128897	-0.477527
N177	N	0.873501	1.177686	-0.468549
C178	C	0.905967	1.005263	-0.702180
N179	N	0.948244	1.005278	-0.781839
H180	H	0.175582	1.679762	0.674329
H181	H	0.845119	0.898421	-0.694331
H182	H	0.221848	1.485733	0.693964
H183	H	0.845139	0.524760	-0.694323
C184	C	0.307422	0.830362	-0.175051
N185	N	0.322921	0.761346	-0.244061
H186	H	0.533478	0.592483	-0.151240
H187	H	0.204140	0.770895	-0.234565
H188	H	-0.074722	0.854136	-0.151321
C189	C	0.116946	0.747077	-0.258374
N190	N	0.132448	0.678051	-0.327376
H191	H	0.891415	0.330727	-0.674689
H192	H	-0.167284	0.854151	-0.151340
H193	H	-0.044613	1.239629	0.234169
C194	C	0.121770	1.180129	0.174763
N195	N	0.064018	1.249126	0.243770
C196	C	-0.240445	1.180121	0.174677
N197	N	-0.255943	1.249123	0.243697
H198	H	0.533485	0.418014	0.150882
C199	C	0.228913	1.180141	0.174762
N200	N	0.213440	1.249144	0.243747
H201	H	0.533477	0.418040	-0.151261
