data_functionalizedCrystal
_audit_creation_method	'MofGen! by Chris Wilmer'
_symmetry_space_group_name_H-M	'P1'
_symmetry_Int_Tables_number	1
_symmetry_cell_setting	triclinic
loop_
_symmetry_equiv_pos_as_xyz
  x,y,z
_cell_length_a	10.489741
_cell_length_b	17.038272
_cell_length_c	9.565339
_cell_angle_alpha	89.999972
_cell_angle_beta	89.999100
_cell_angle_gamma	87.825365
loop_
_atom_site_label
_atom_site_type_symbol
_atom_site_fract_x
_atom_site_fract_y
_atom_site_fract_z
O1	O	1.704376	0.110370	-0.116175
O2	O	1.334150	0.120730	-0.116197
O3	O	1.517063	0.001722	-0.116175
O4	O	1.521463	0.229378	-0.116197
O5	O	1.517048	0.001729	0.116345
O6	O	1.334135	0.120738	0.116323
O7	O	1.704362	0.110377	0.116345
Zn8	Zn	1.519246	0.115558	0.153252
Zn9	Zn	1.519265	0.115549	-0.153103
O10	O	1.521449	0.229385	0.116324
C11	C	1.286537	0.119951	0.000061
C12	C	1.144689	0.117610	0.000053
C13	C	1.069466	0.041889	0.000073
C14	C	0.980692	0.077655	-0.114572
C15	C	0.980714	0.077680	0.114675
C16	C	1.057783	0.153408	-0.114687
C17	C	1.057813	0.153423	0.114662
C18	C	0.969072	0.189244	-0.000011
C19	C	1.513053	-0.027426	0.000085
C20	C	1.501111	-0.114288	0.000084
C21	C	1.610749	-0.163767	0.000092
C22	C	1.599521	-0.245383	0.000078
C23	C	1.478654	-0.277518	0.000066
C24	C	1.369007	-0.228032	0.000054
C25	C	1.380237	-0.146418	0.000058
C26	C	1.438983	-0.523505	0.000044
C27	C	1.427762	-0.605126	0.000045
C28	C	1.658277	-0.622471	0.000066
C29	C	1.669495	-0.540855	0.000078
C30	C	1.559849	-0.491376	0.000059
C31	C	1.467174	-0.360942	0.000056
C32	C	1.571330	-0.407954	0.000059
C33	C	1.751974	0.111156	0.000085
C34	C	1.893822	0.113497	0.000084
C35	C	1.525458	0.258533	0.000061
C36	C	1.537400	0.345395	0.000053
N37	N	1.519242	0.115565	0.362331
N38	N	1.519279	0.115536	-0.362183
C39	C	1.434621	0.170584	0.453524
C40	C	1.551599	0.186413	0.546708
C41	C	1.402315	0.099741	0.546703
C42	C	1.636281	0.131430	0.453464
C43	C	1.486918	0.044727	0.453450
C44	C	1.603976	0.060527	0.546592
H45	H	1.091612	0.185419	-0.211720
H46	H	1.113334	-0.020359	-0.000064
N47	N	1.271311	0.082027	0.600944
H48	H	1.246220	0.028938	0.565563
H49	H	1.272576	0.081686	0.706518
N50	N	1.339927	0.232260	0.399367
H51	H	1.251815	0.220866	0.434742
H52	H	1.364635	0.285717	0.433299
H53	H	0.946687	0.045613	-0.211492
N54	N	1.102890	0.195820	0.243065
H55	H	1.199019	0.197535	0.241633
H56	H	1.064748	0.251143	0.243917
N57	N	0.935693	0.035234	0.243063
H58	H	0.972429	-0.020425	0.242958
H59	H	0.965029	0.063337	0.329579
H60	H	1.709172	-0.137610	0.000110
N61	N	0.911309	0.271781	-0.000105
H62	H	0.815209	0.269749	0.000721
H63	H	0.940693	0.300578	0.085645
H64	H	1.688801	-0.285666	0.000087
N65	N	1.261995	-0.093039	0.000055
H66	H	1.209656	-0.103445	-0.086143
H67	H	1.209744	-0.103470	0.086305
N68	N	1.450639	-0.034587	0.399144
H69	H	1.362238	-0.046481	0.433001
H70	H	1.451793	-0.034079	0.293571
H71	H	1.767918	-0.514697	0.000088
N72	N	1.297392	-0.639788	0.000030
H73	H	1.229634	-0.596060	0.000014
H74	H	1.287731	-0.673274	-0.086168
N75	N	1.320727	-0.470145	0.000029
H76	H	1.242458	-0.502890	0.000028
H77	H	1.320357	-0.435905	0.086227
N78	N	1.238641	-0.262687	0.000032
H79	H	1.248161	-0.321897	0.000036
H80	H	1.190268	-0.244632	0.086226
N81	N	1.701692	-0.373300	0.000084
H82	H	1.711501	-0.339821	-0.086105
H83	H	1.711379	-0.339866	0.086343
N84	N	1.336816	-0.395608	0.000059
H85	H	1.288378	-0.377617	0.086256
H86	H	1.288483	-0.377604	-0.086192
H87	H	1.747544	-0.662765	0.000079
N88	N	1.587858	0.265745	0.600972
H89	H	1.523876	0.307282	0.567128
H90	H	1.588436	0.264921	0.706546
N91	N	1.767328	0.149232	0.399458
H92	H	1.766497	0.149156	0.293873
H93	H	1.791871	0.202537	0.434307
H94	H	1.675636	0.013985	0.587199
