data_functionalizedCrystal
_audit_creation_method	'MofGen! by Chris Wilmer'
_symmetry_space_group_name_H-M	'P1'
_symmetry_Int_Tables_number	1
_symmetry_cell_setting	triclinic
loop_
_symmetry_equiv_pos_as_xyz
  x,y,z
_cell_length_a	9.565339
_cell_length_b	15.995363
_cell_length_c	15.995350
_cell_angle_alpha	83.494885
_cell_angle_beta	89.997621
_cell_angle_gamma	89.992702
loop_
_atom_site_label
_atom_site_type_symbol
_atom_site_fract_x
_atom_site_fract_y
_atom_site_fract_z
O1	O	-0.116151	-1.110969	-0.107971
O2	O	-0.116175	-0.867195	-0.121288
O3	O	-0.116161	-0.995746	0.007258
O4	O	-0.116165	-0.982419	-0.236516
O5	O	0.116359	-0.995755	0.007253
O6	O	0.116345	-0.867204	-0.121293
O7	O	0.116369	-1.110978	-0.107976
Zn8	Zn	0.153275	-0.989092	-0.114636
Zn9	Zn	-0.153080	-0.989081	-0.114628
O10	O	0.116355	-0.982427	-0.236522
C11	C	0.000082	-0.836005	-0.120738
C12	C	0.000072	-0.743055	-0.119082
N13	N	0.362354	-0.989106	-0.114640
C14	C	0.000106	-0.405310	-0.113135
C15	C	0.000626	-0.452744	-0.021585
C16	C	0.000091	-0.549433	-0.023242
C17	C	0.000090	-0.572869	-0.116085
C18	C	-0.132685	-0.531777	-0.161236
C19	C	-0.132785	-0.435142	-0.158932
C20	C	0.131634	-0.434813	-0.160830
C21	C	0.133378	-0.531758	-0.160813
C22	C	0.000076	-0.667566	-0.117757
C23	C	0.000111	-0.310612	-0.111466
C24	C	0.453526	-1.048577	-0.055197
C25	C	0.546689	-0.972917	-0.038931
C26	C	0.546747	-1.064741	-0.130854
C27	C	0.453465	-0.913408	-0.098337
C28	C	0.453515	-1.005282	-0.190293
C29	C	0.546635	-0.929567	-0.174059
N30	N	0.637840	-0.989087	-0.114625
C31	C	0.000113	-0.142170	-0.108515
C32	C	0.000124	-0.235124	-0.110138
C33	C	0.000096	-0.995199	0.038450
C34	C	0.000088	-0.993548	0.131401
C35	C	0.000095	-0.982974	-0.267714
C36	C	0.000094	-0.984626	-0.360665
C37	C	0.000092	-0.987615	0.469148
C38	C	-0.000438	-0.896064	0.421718
C39	C	0.000086	-0.897716	0.325028
C40	C	0.000090	-0.990558	0.301588
C41	C	0.132872	-1.035719	0.342660
C42	C	0.132983	-1.033419	0.439296
C43	C	-0.131436	-1.035301	0.439660
C44	C	-0.133190	-1.035279	0.342715
C45	C	0.000093	-0.992226	0.206890
C46	C	0.000099	-0.985950	0.563846
H47	H	0.095845	-0.434225	0.015009
N48	N	-0.119905	-0.850163	0.444968
N49	N	-0.206050	-0.884384	0.496769
H50	H	-0.290431	-0.851967	0.513193
H51	H	0.412663	-0.849422	-0.084545
H52	H	0.094245	-0.859638	0.441312
N53	N	0.256847	-0.996394	0.307068
N54	N	0.342766	-1.038079	0.269930
H55	H	0.430322	-1.010302	0.244795
H56	H	-0.132325	-1.102801	0.471418
N57	N	0.402142	-1.022482	-0.270541
N58	N	0.485959	-1.035390	-0.327648
H59	H	0.449676	-1.047545	-0.384324
H60	H	0.587618	-0.959221	0.025053
N61	N	0.140589	-1.117740	0.479742
N62	N	0.242726	-1.163193	0.466519
H63	H	0.248109	-1.222743	0.495081
N64	N	-0.119522	-0.584370	0.021590
N65	N	-0.202873	-0.537333	0.054195
H66	H	-0.287357	-0.562005	0.085858
H67	H	0.587259	-0.879212	-0.224326
H68	H	0.587721	-1.128712	-0.144574
H69	H	-0.094066	-0.433146	0.014845
N70	N	-0.256667	-0.567378	-0.121925
N71	N	-0.279306	-0.644575	-0.119539
H72	H	-0.366871	-0.669722	-0.091781
N73	N	0.139101	-1.121278	0.324914
N74	N	0.241280	-1.146350	0.285883
H75	H	0.245679	-1.206776	0.273345
N76	N	-0.257301	-0.412177	-0.117619
N77	N	-0.343522	-0.467492	-0.090684
H78	H	-0.431465	-0.451278	-0.061505
N79	N	-0.119322	-0.853178	0.289384
N80	N	-0.203628	-0.820652	0.335913
H81	H	-0.287961	-0.789191	0.310743
N82	N	0.119693	-0.852892	0.290077
N83	N	0.203047	-0.820295	0.337105
H84	H	0.287527	-0.788636	0.312422
H85	H	0.095270	-0.577865	0.012250
N86	N	0.257499	-0.992115	0.462246
N87	N	0.343711	-0.965183	0.406920
H88	H	0.431654	-0.936010	0.423124
N89	N	0.132788	-0.394982	-0.245511
N90	N	0.129455	-0.438604	-0.305564
H91	H	0.130262	-0.410471	-0.365368
H92	H	-0.138810	-0.402894	-0.226146
N93	N	-0.257696	-0.997763	0.465442
N94	N	-0.281127	-0.994281	0.541850
H95	H	-0.370294	-0.967764	0.560061
N96	N	-0.256413	-0.993904	0.308472
N97	N	-0.246222	-0.931711	0.253978
H98	H	-0.333246	-0.902487	0.229788
H99	H	0.231604	-0.559078	-0.127852
N100	N	0.402224	-1.111618	0.007881
N101	N	0.433805	-1.187109	0.005262
H102	H	0.397570	-1.231630	0.049810
N103	N	-0.138881	-0.549482	-0.246808
N104	N	-0.042124	-0.525956	-0.296510
H105	H	-0.046496	-0.538460	-0.356946
N106	N	0.257879	-0.409050	-0.123281
N107	N	0.252443	-0.368626	-0.060905
H108	H	0.341596	-0.350429	-0.034378
N109	N	0.143430	-0.551039	-0.245746
N110	N	0.052109	-0.595588	-0.274826
H111	H	0.059198	-0.609206	-0.334814
N112	N	-0.143251	-1.120206	0.323421
N113	N	-0.051941	-1.149287	0.278851
H114	H	-0.059040	-1.209269	0.265220
