data_functionalizedCrystal
_audit_creation_method	'MofGen! by Chris Wilmer'
_symmetry_space_group_name_H-M	'P1'
_symmetry_Int_Tables_number	1
_symmetry_cell_setting	triclinic
loop_
_symmetry_equiv_pos_as_xyz
  x,y,z
_cell_length_a	8.559649
_cell_length_b	11.026607
_cell_length_c	7.088929
_cell_angle_alpha	82.408099
_cell_angle_beta	95.325015
_cell_angle_gamma	89.182341
loop_
_atom_site_label
_atom_site_type_symbol
_atom_site_fract_x
_atom_site_fract_y
_atom_site_fract_z
O1	O	2.096118	-0.026458	-0.158957
O2	O	1.648469	0.034577	-0.158966
O3	O	1.835194	-0.169136	-0.158955
O4	O	1.909394	0.177256	-0.158968
O5	O	1.860132	-0.196415	0.159021
O6	O	1.673407	0.007298	0.159011
O7	O	2.121056	-0.053737	0.159019
Cu8	Cu	1.899509	-0.025710	0.188049
Cu9	Cu	1.870017	0.006551	-0.187995
O10	O	1.934332	0.149977	0.159009
C11	C	1.602739	0.025563	0.000021
C12	C	1.429319	0.039332	0.000018
C13	C	1.833974	-0.226711	0.000030
C14	C	1.793166	-0.357621	0.000023
C15	C	1.905841	-0.441927	0.000022
C16	C	1.863667	-0.577231	0.000014
C17	C	2.166786	-0.044723	0.000028
C18	C	2.340205	-0.058490	0.000019
C19	C	1.935551	0.207551	0.000019
C20	C	1.976358	0.338463	0.000014
N21	N	1.920263	-0.048402	0.452538
N22	N	1.849272	0.029232	-0.452485
H23	H	1.372932	0.133621	0.000004
O24	O	2.058169	-0.408575	-0.000318
C25	C	2.292420	-0.403279	-0.165001
C26	C	2.119909	-0.441085	-0.164872
H27	H	2.342397	-0.429572	-0.298009
H28	H	2.299370	-0.300097	-0.165124
H29	H	2.363240	-0.452260	-0.031870
H30	H	2.048983	-0.392190	-0.297981
H31	H	2.113078	-0.544281	-0.164649
O32	O	1.640795	-0.390874	0.000268
C33	C	1.406590	-0.396301	0.165048
C34	C	1.579129	-0.358559	0.164988
H35	H	1.356691	-0.370213	0.298230
H36	H	1.335633	-0.347256	0.032066
H37	H	1.399750	-0.499469	0.164947
H38	H	1.586117	-0.255409	0.165157
H39	H	1.650008	-0.407692	0.297958
H40	H	1.396583	-0.152772	0.000013
O41	O	1.711410	-0.610820	0.000089
C42	C	1.530545	-0.776288	-0.000052
C43	C	1.703036	-0.738419	-0.000090
H44	H	1.523715	-0.879449	-0.000237
H45	H	1.480499	-0.750212	0.133052
H46	H	1.459704	-0.727211	-0.133093
H47	H	1.774004	-0.787476	0.132861
H48	H	1.752958	-0.764470	-0.133282
O49	O	2.128699	-0.628199	-0.000317
C50	C	2.362959	-0.622922	-0.164979
C51	C	2.190442	-0.660714	-0.164866
H52	H	2.412940	-0.649217	-0.297983
H53	H	2.369923	-0.519740	-0.165098
H54	H	2.433768	-0.671909	-0.031844
H55	H	2.119529	-0.611812	-0.297979
H56	H	2.183598	-0.763908	-0.164648
O57	O	1.761694	0.125352	0.450207
C58	C	1.725121	0.344586	0.388688
C59	C	1.824459	0.235842	0.498988
H60	H	1.775809	0.433942	0.428117
H61	H	1.726836	0.342830	0.228456
H62	H	1.599092	0.337479	0.427934
H63	H	1.950532	0.242877	0.459903
H64	H	1.822612	0.237635	0.659193
H65	H	1.993858	-0.128853	0.534198
