data_functionalizedCrystal
_audit_creation_method	'MofGen! by Chris Wilmer'
_symmetry_space_group_name_H-M	'P1'
_symmetry_Int_Tables_number	1
_symmetry_cell_setting	triclinic
loop_
_symmetry_equiv_pos_as_xyz
  x,y,z
_cell_length_a	14.519731
_cell_length_b	9.065218
_cell_length_c	7.540329
_cell_angle_alpha	90.001345
_cell_angle_beta	89.996092
_cell_angle_gamma	95.647631
loop_
_atom_site_label
_atom_site_type_symbol
_atom_site_fract_x
_atom_site_fract_y
_atom_site_fract_z
O1	O	1.225272	-0.193541	-0.147479
O2	O	1.725272	0.306459	0.352521
O3	O	0.956964	-0.216283	-0.147481
O4	O	1.456964	0.283717	0.352519
O5	O	1.096664	0.009834	-0.147476
O6	O	1.596664	0.509834	0.352524
O7	O	1.085572	-0.419658	-0.147484
O8	O	1.585572	0.080342	0.352516
O9	O	1.096653	0.009834	0.147489
O10	O	1.596653	0.509834	0.647489
O11	O	0.956953	-0.216282	0.147484
O12	O	1.456953	0.283718	0.647484
O13	O	1.225261	-0.193540	0.147486
O14	O	1.725261	0.306460	0.647486
Cu15	Cu	1.091106	-0.204911	0.174418
Cu16	Cu	1.591106	0.295089	0.674418
Cu17	Cu	1.091119	-0.204912	-0.174413
Cu18	Cu	1.591119	0.295088	0.325587
O19	O	1.085561	-0.419657	0.147482
O20	O	1.585561	0.080343	0.647482
C21	C	0.922591	-0.215217	0.000001
C22	C	1.422591	0.284783	0.500001
C23	C	0.820188	-0.212024	0.000000
C24	C	1.320188	0.287976	0.500000
C25	C	0.737025	-0.209429	-0.000007
C26	C	1.237025	0.290571	0.499993
C27	C	0.632692	-0.206187	-0.000007
C28	C	1.132692	0.293813	0.499993
C29	C	0.549534	-0.203614	-0.000007
C30	C	1.049534	0.296386	0.499993
C31	C	0.445195	-0.200372	-0.000011
C32	C	0.945195	0.299628	0.499989
C33	C	1.095592	0.064801	0.000003
C34	C	1.595592	0.564801	0.500003
C35	C	1.092405	0.228584	-0.000005
C36	C	1.592405	0.728584	0.499995
C37	C	1.259634	-0.194606	-0.000000
C38	C	1.759634	0.305394	0.500000
C39	C	1.362037	-0.197799	-0.000011
C40	C	1.862037	0.302201	0.499989
C41	C	1.086633	-0.474624	-0.000002
C42	C	1.586633	0.025376	0.499998
C43	C	1.089820	-0.638408	-0.000005
C44	C	1.589820	-0.138408	0.499995
N45	N	1.091104	-0.204910	0.419766
N46	N	1.591104	0.295090	0.919766
N47	N	1.091120	-0.204909	0.580239
N48	N	1.591120	0.295091	1.080239
