data_functionalizedCrystal
_audit_creation_method	'MofGen! by Chris Wilmer'
_symmetry_space_group_name_H-M	'P1'
_symmetry_Int_Tables_number	1
_symmetry_cell_setting	triclinic
loop_
_symmetry_equiv_pos_as_xyz
  x,y,z
_cell_length_a	15.944493
_cell_length_b	15.944493
_cell_length_c	14.421503
_cell_angle_alpha	90.010165
_cell_angle_beta	89.992936
_cell_angle_gamma	83.475044
loop_
_atom_site_label
_atom_site_type_symbol
_atom_site_fract_x
_atom_site_fract_y
_atom_site_fract_z
O1	O	1.114537	0.108091	-0.077087
O2	O	0.869978	0.121499	-0.077090
O3	O	0.998961	-0.007484	-0.077096
O4	O	0.985554	0.237075	-0.077081
O5	O	0.998940	-0.007465	0.077127
O6	O	0.869957	0.121518	0.077133
O7	O	1.114516	0.108111	0.077136
Cu8	Cu	0.992234	0.114816	0.091217
Cu9	Cu	0.992260	0.114793	-0.091170
O10	O	0.985532	0.237094	0.077142
C11	C	0.838673	0.120961	0.000021
C12	C	0.745424	0.119318	0.000019
C13	C	0.509649	0.195240	0.000023
C14	C	0.459088	0.154308	0.076065
C15	C	0.574704	0.116273	0.000021
C16	C	0.459114	0.154270	-0.075987
C17	C	0.409795	0.113339	0.000018
C18	C	0.525372	0.075362	0.076125
C19	C	0.525401	0.075336	-0.075995
C20	C	0.474873	0.034346	0.000065
C21	C	0.669704	0.117966	0.000023
C22	C	0.314798	0.111640	0.000023
C23	C	0.998403	-0.038769	0.000011
C24	C	0.996760	-0.132018	-0.000000
C25	C	1.072682	-0.367793	0.000018
C26	C	1.031751	-0.418362	-0.076022
C27	C	0.993716	-0.302738	0.000011
C28	C	1.031711	-0.418320	0.076030
C29	C	0.990781	-0.467647	0.000026
C30	C	0.952805	-0.352079	-0.076092
C31	C	0.952777	-0.352033	0.076029
C32	C	0.911788	-0.402569	-0.000030
C33	C	0.995408	-0.207739	0.000002
C34	C	0.989082	-0.562644	0.000029
C35	C	1.145821	0.108649	0.000023
C36	C	1.239069	0.110292	0.000019
C37	C	0.986091	0.268379	0.000033
C38	C	0.987734	0.361627	0.000038
N39	N	0.992223	0.114832	0.219498
N40	N	0.992278	0.114771	-0.219452
C41	C	0.932570	0.174447	0.469154
C42	C	1.008469	0.190739	0.530959
C43	C	0.992243	0.114812	0.408659
C44	C	0.916364	0.098539	0.530948
C45	C	0.992256	0.114794	0.591381
C46	C	1.068180	0.131141	0.469103
C47	C	0.976025	0.038909	0.469087
C48	C	1.051979	0.055169	0.530864
C49	C	0.992234	0.114824	0.303398
C50	C	0.992273	0.114781	0.696640
H51	H	0.430135	0.187664	0.140356
H52	H	0.962272	-0.025252	0.441889
O53	O	1.071604	-0.452785	-0.152742
C54	C	1.101764	-0.388486	-0.206155
H55	H	1.109633	-0.331904	-0.159931
H56	H	1.165306	-0.413029	-0.237955
H57	H	1.054745	-0.368532	-0.263770
H58	H	0.525258	0.263261	0.000099
H59	H	0.554198	0.042042	0.140476
O60	O	1.112358	-0.004919	0.562952
C61	C	1.192209	0.012537	0.531249
H62	H	1.189795	0.082544	0.514011
H63	H	1.241322	-0.004385	0.587640
H64	H	1.210079	-0.026430	0.466461
H65	H	0.919448	-0.323057	0.140317
H66	H	0.843715	-0.418021	-0.000073
O67	O	0.559916	0.035701	-0.152789
C68	C	0.525976	0.077547	-0.232803
H69	H	0.501352	0.145477	-0.214577
H70	H	0.577206	0.077302	-0.287983
H71	H	0.471928	0.043702	-0.260550
H72	H	0.430177	0.187627	-0.140266
H73	H	1.065067	-0.447250	0.140312
O74	O	0.913001	-0.317840	-0.152903
C75	C	0.883598	-0.382362	-0.206631
H76	H	0.876013	-0.439124	-0.160596
H77	H	0.820044	-0.358263	-0.238665
H78	H	0.930959	-0.401871	-0.264076
O79	O	0.456472	-0.046874	0.000272
C80	C	0.490550	-0.088184	0.080533
H81	H	0.499757	-0.039399	0.136318
H82	H	0.445441	-0.133329	0.107073
H83	H	0.554005	-0.125226	0.063111
H84	H	0.852189	0.084784	0.558116
H85	H	0.882158	0.224919	0.442059
H86	H	1.140702	-0.352179	-0.000057
O87	O	1.024730	0.267303	0.563501
C88	C	0.956560	0.302357	0.618649
H89	H	0.920385	0.249729	0.645744
H90	H	0.981575	0.337628	0.679628
H91	H	0.912597	0.348059	0.575170
O92	O	1.144680	0.147727	0.436684
C93	C	1.143735	0.147581	0.338924
H94	H	1.075862	0.160739	0.313363
H95	H	1.182091	0.198580	0.311952
H96	H	1.172487	0.083307	0.312405
