data_functionalizedCrystal
_audit_creation_method	'MofGen! by Chris Wilmer'
_symmetry_space_group_name_H-M	'P1'
_symmetry_Int_Tables_number	1
_symmetry_cell_setting	triclinic
loop_
_symmetry_equiv_pos_as_xyz
  x,y,z
_cell_length_a	16.992694
_cell_length_b	10.967829
_cell_length_c	16.053802
_cell_angle_alpha	80.477515
_cell_angle_beta	87.249047
_cell_angle_gamma	87.623462
loop_
_atom_site_label
_atom_site_type_symbol
_atom_site_fract_x
_atom_site_fract_y
_atom_site_fract_z
O1	O	1.046843	0.257191	-0.106324
O2	O	0.818523	0.254315	-0.105935
O3	O	0.936728	0.076458	-0.080330
O4	O	0.928638	0.435048	-0.131930
O5	O	0.930221	0.086205	0.057126
O6	O	0.812017	0.264061	0.031521
O7	O	1.040336	0.266938	0.031131
Zn8	Zn	0.925143	0.267047	0.053150
Zn9	Zn	0.933716	0.254206	-0.127954
O10	O	0.922131	0.444795	0.005526
C11	C	0.786012	0.255489	-0.036678
C12	C	0.698834	0.244453	-0.035100
C13	C	0.649897	0.350928	-0.050421
C14	C	0.567982	0.340553	-0.048916
C15	C	0.535007	0.223701	-0.032097
C16	C	0.583950	0.117219	-0.016772
C17	C	0.665862	0.127596	-0.018271
C18	C	0.290882	0.180693	-0.025886
C19	C	0.208963	0.170324	-0.024391
C20	C	0.193001	0.393660	-0.056533
C21	C	0.274916	0.404026	-0.058035
C22	C	0.323852	0.297544	-0.042706
N23	N	0.451278	0.213093	-0.030561
N24	N	0.407579	0.308153	-0.044236
C25	C	0.932395	0.035236	-0.004971
C26	C	0.929166	-0.102116	0.014787
C27	C	0.931098	-0.168395	-0.047611
C28	C	0.927761	-0.310355	-0.027191
C29	C	1.072847	0.265763	-0.038127
C30	C	1.160026	0.276799	-0.039711
C31	C	0.926465	0.486017	-0.069835
C32	C	0.929693	0.623368	-0.089598
N33	N	0.919298	0.275811	0.176749
N34	N	0.939567	0.245432	-0.251551
C35	C	0.969613	0.200164	0.231333
C36	C	0.965532	0.206306	0.317856
C37	C	0.911139	0.288104	0.349791
C38	C	0.860818	0.363755	0.295200
C39	C	0.864896	0.357605	0.208680
C40	C	0.893325	0.314933	0.607338
C41	C	0.889252	0.321080	0.693864
C42	C	0.993966	0.163629	0.716515
C43	C	0.998042	0.157492	0.629991
C44	C	0.947719	0.233138	0.575408
N45	N	0.906967	0.294388	0.438230
N46	N	0.951887	0.226847	0.486972
H47	H	0.705707	0.040892	-0.005796
C48	C	0.935262	-0.311336	-0.182196
H49	H	0.936036	-0.371329	-0.218695
H50	H	0.982225	-0.266109	-0.191802
H51	H	0.890948	-0.256297	-0.193220
H52	H	0.925038	-0.150469	0.083326
C53	C	0.514155	0.457675	-0.065771
H54	H	0.545527	0.528752	-0.076013
H55	H	0.479609	0.461677	-0.017921
H56	H	0.484131	0.454865	-0.113793
C57	C	0.139175	0.510783	-0.073389
H58	H	0.170546	0.581859	-0.083626
H59	H	0.104625	0.514782	-0.025541
H60	H	0.109154	0.507975	-0.121414
C61	C	1.057870	0.067507	0.594870
H62	H	1.087248	0.023324	0.639772
H63	H	1.092682	0.112817	0.554243
H64	H	1.030586	0.010846	0.568937
C65	C	0.809553	0.440817	0.148633
H66	H	0.819766	0.425432	0.092533
H67	H	0.818414	0.525159	0.150811
H68	H	0.756326	0.423176	0.165505
C69	C	1.029446	0.110183	0.196212
H70	H	1.058821	0.066002	0.241117
H71	H	1.064259	0.155491	0.155587
H72	H	1.002163	0.053521	0.170280
H73	H	1.006502	0.144707	0.362299
C74	C	1.049311	0.080412	0.776554
H75	H	1.082291	0.030821	0.745142
H76	H	1.018851	0.028554	0.818120
H77	H	1.080946	0.130526	0.803431
C78	C	0.686163	0.479466	-0.068922
H79	H	0.645282	0.541391	-0.077824
H80	H	0.720047	0.484760	-0.118109
H81	H	0.715521	0.491555	-0.022235
C82	C	0.829374	0.410992	0.729001
H83	H	0.799970	0.455136	0.684107
H84	H	0.856610	0.467675	0.754955
H85	H	0.794582	0.365602	0.769615
H86	H	0.301759	0.499178	-0.071741
H87	H	0.182118	0.075165	-0.010694
C88	C	0.837978	0.398152	0.547307
H89	H	0.805007	0.447756	0.578719
H90	H	0.806344	0.348047	0.520428
H91	H	0.868441	0.450017	0.505740
H92	H	0.816526	0.430352	0.321207
H93	H	0.330716	0.093987	-0.013403
H94	H	0.557094	0.022076	-0.003066
C95	C	0.922188	-0.375654	0.065406
H96	H	0.921403	-0.315661	0.101906
H97	H	0.966492	-0.430701	0.076434
H98	H	0.875216	-0.420869	0.075005
C99	C	0.936670	-0.103086	-0.140202
H100	H	0.938187	-0.016240	-0.141779
H101	H	0.891999	-0.121448	-0.168688
H102	H	0.983275	-0.131268	-0.167259
