data_functionalizedCrystal
_audit_creation_method	'MofGen! by Chris Wilmer'
_symmetry_space_group_name_H-M	'P1'
_symmetry_Int_Tables_number	1
_symmetry_cell_setting	triclinic
loop_
_symmetry_equiv_pos_as_xyz
  x,y,z
_cell_length_a	19.188930
_cell_length_b	10.489741
_cell_length_c	8.965430
_cell_angle_alpha	90.001157
_cell_angle_beta	90.004696
_cell_angle_gamma	83.841978
loop_
_atom_site_label
_atom_site_type_symbol
_atom_site_fract_x
_atom_site_fract_y
_atom_site_fract_z
O1	O	-0.098497	-1.691851	-0.123966
O2	O	-0.107743	-1.320449	-0.123991
O3	O	-0.001536	-1.516868	-0.123949
O4	O	-0.204704	-1.495432	-0.124008
O5	O	-0.001543	-1.516851	0.124130
O6	O	-0.107750	-1.320432	0.124088
O7	O	-0.098504	-1.691834	0.124113
Cu8	Cu	-0.103128	-1.506132	0.146752
Cu9	Cu	-0.103120	-1.506151	-0.146630
O10	O	-0.204711	-1.495415	0.124070
C11	C	-0.107048	-1.272924	0.000046
C12	C	-0.104959	-1.131341	0.000037
C13	C	0.024476	-1.516165	0.000095
C14	C	0.101994	-1.514081	0.000108
C15	C	-0.230723	-1.496118	0.000023
C16	C	-0.308242	-1.498202	0.000001
C17	C	0.146146	-1.629334	0.000123
C18	C	0.218983	-1.627376	0.000099
C19	C	0.247665	-1.510159	0.000090
C20	C	0.203503	-1.394892	0.000066
C21	C	0.130668	-1.396853	0.000075
N22	N	0.356268	-1.420556	0.084510
N23	N	0.425459	-1.418701	0.084504
C24	C	0.467113	-1.504244	0.000059
N25	N	0.436964	-1.591732	-0.084362
N26	N	0.367767	-1.593591	-0.084350
C27	C	0.326642	-1.508020	0.000079
C28	C	0.590244	-1.617382	0.000046
C29	C	0.663081	-1.615419	0.000012
C30	C	0.647600	-1.382932	-0.000005
C31	C	0.574764	-1.384898	0.000013
C32	C	0.546090	-1.502126	0.000046
C33	C	-0.099199	-1.739359	0.000073
C34	C	-0.101288	-1.880941	0.000071
N35	N	-0.103133	-1.506127	0.353101
C36	C	-0.037383	-1.064712	0.000071
C37	C	-0.069302	-0.971880	-0.122251
C38	C	-0.069325	-0.971897	0.122336
C39	C	-0.136906	-1.040374	-0.122386
C40	C	-0.136919	-1.040401	0.122310
C41	C	-0.168887	-0.947595	-0.000041
N42	N	-0.103109	-1.506166	-0.352979
C43	C	-0.152234	-1.415262	0.450387
C44	C	-0.166361	-1.530443	0.549804
C45	C	-0.089012	-1.390995	0.549812
C46	C	-0.117292	-1.621366	0.450329
C47	C	-0.039916	-1.481842	0.450328
C48	C	-0.054016	-1.597106	0.549700
H49	H	0.254938	-1.721231	0.000105
H50	H	-0.224498	-0.896927	-0.000124
C51	C	0.002092	-1.701040	0.608255
H52	H	-0.008047	-1.782752	0.574006
H53	H	0.046873	-1.684470	0.572688
H54	H	0.002052	-1.700034	0.714211
H55	H	0.094719	-1.302998	0.000064
C56	C	0.032266	-1.454009	0.391236
H57	H	0.042220	-1.372114	0.425237
H58	H	0.067251	-1.517731	0.426716
H59	H	0.031851	-1.454976	0.285284
H60	H	0.699030	-1.709275	0.000016
C61	C	0.114608	-1.758279	0.000132
H62	H	0.151340	-1.826640	0.000122
H63	H	0.086519	-1.763878	0.086640
H64	H	0.086516	-1.763879	-0.086392
H65	H	0.670952	-1.287492	-0.000019
C66	C	-0.175516	-1.081486	0.261996
H67	H	-0.151443	-1.058321	0.348834
H68	H	-0.221968	-1.039773	0.262864
H69	H	-0.176932	-1.171727	0.260486
C70	C	-0.030691	-0.930906	0.262043
H71	H	0.016025	-0.971436	0.261893
H72	H	-0.030009	-0.840492	0.261532
H73	H	-0.054247	-0.955531	0.348896
H74	H	0.226861	-1.299453	0.000056
C75	C	-0.072883	-1.259445	0.608829
H76	H	-0.107821	-1.194976	0.574803
H77	H	-0.072562	-1.260626	0.714774
H78	H	-0.028317	-1.241563	0.573285
C79	C	-0.238564	-1.558221	0.608855
H80	H	-0.273409	-1.493569	0.574864
H81	H	-0.248929	-1.639398	0.573336
H82	H	-0.237901	-1.558801	0.714807
H83	H	0.566896	-1.712836	0.000065
H84	H	0.538814	-1.291047	0.000010
H85	H	0.018169	-1.115644	-0.000065
C86	C	-0.175512	-1.081152	-0.262230
H87	H	-0.176589	-1.171485	-0.261408
H88	H	-0.222085	-1.039983	-0.262559
H89	H	-0.151673	-1.057163	-0.348999
H90	H	-0.040706	-0.941512	-0.225651
H91	H	-0.193796	-1.338490	0.406782
H92	H	-0.129289	-1.718768	0.406814
