data_functionalizedCrystal
_audit_creation_method	'MofGen! by Chris Wilmer'
_symmetry_space_group_name_H-M	'P1'
_symmetry_Int_Tables_number	1
_symmetry_cell_setting	triclinic
loop_
_symmetry_equiv_pos_as_xyz
  x,y,z
_cell_length_a	14.853567
_cell_length_b	15.944551
_cell_length_c	13.930277
_cell_angle_alpha	89.994493
_cell_angle_beta	89.995755
_cell_angle_gamma	83.566834
loop_
_atom_site_label
_atom_site_type_symbol
_atom_site_fract_x
_atom_site_fract_y
_atom_site_fract_z
O1	O	1.196228	0.109664	-0.079767
O2	O	0.933751	0.122728	-0.079783
O3	O	1.072157	-0.006071	-0.079766
O4	O	1.057822	0.238463	-0.079784
O5	O	1.072138	-0.006073	0.079896
O6	O	0.933732	0.122725	0.079878
O7	O	1.196208	0.109662	0.079895
Zn8	Zn	1.064967	0.116193	0.105236
Zn9	Zn	1.064993	0.116197	-0.105125
O10	O	1.057803	0.238460	0.079878
C11	C	0.900154	0.122135	0.000045
C12	C	0.800072	0.120361	0.000039
C13	C	1.071552	-0.037367	0.000065
C14	C	1.069768	-0.130615	0.000065
C15	C	0.387646	0.036354	0.000067
C16	C	0.366169	0.189369	0.000055
C17	C	0.460201	0.191037	0.000051
C18	C	0.517960	0.115362	0.000055
C19	C	0.481687	0.038019	0.000061
C20	C	0.496480	0.268379	0.000035
C21	C	0.590517	0.270050	0.000031
C22	C	0.648278	0.194374	0.000041
C23	C	0.612000	0.117028	0.000049
C24	C	0.669759	0.041353	0.000052
C25	C	0.633483	-0.035994	0.000066
C26	C	0.539448	-0.037657	0.000071
C27	C	0.742313	0.196036	0.000036
C28	C	0.763800	0.043018	0.000046
C29	C	0.979713	-0.345572	0.000047
C30	C	1.021522	-0.406544	0.078772
C31	C	1.066541	-0.301344	0.000058
C32	C	1.021562	-0.406524	-0.078642
C33	C	1.063416	-0.466260	0.000046
C34	C	1.108373	-0.361088	0.078848
C35	C	1.108401	-0.361062	-0.078636
C36	C	1.150273	-0.422017	0.000109
C37	C	1.068338	-0.206340	0.000065
C38	C	1.061626	-0.561263	0.000046
C39	C	1.229806	0.110255	0.000064
C40	C	1.329887	0.112029	0.000064
C41	C	1.058407	0.269756	0.000044
C42	C	1.060191	0.363004	0.000038
N43	N	1.064957	0.116190	0.248803
N44	N	1.065010	0.116193	-0.248691
C45	C	1.003704	0.173206	0.701064
C46	C	1.126306	0.059181	0.701049
C47	C	1.126295	0.059178	0.600553
C48	C	1.064989	0.116191	0.550308
C49	C	1.003693	0.173207	0.600559
C50	C	1.187596	0.002169	0.550295
C51	C	1.187588	0.002164	0.449793
C52	C	1.126277	0.059174	0.399546
C53	C	1.064978	0.116192	0.449803
C54	C	1.003672	0.173205	0.399558
C55	C	0.942368	0.230220	0.449814
C56	C	0.942382	0.230217	0.550312
C57	C	1.126263	0.059177	0.299047
C58	C	1.003661	0.173206	0.299053
H59	H	0.680523	-0.097609	0.000062
O60	O	1.152051	-0.337290	0.158440
C61	C	1.106446	-0.360978	0.241205
H62	H	1.065360	-0.415069	0.222861
H63	H	1.059068	-0.304784	0.268345
C64	C	1.226591	-0.323259	0.342260
C65	C	1.176135	-0.389699	0.319732
H66	H	1.269577	-0.340972	0.390702
H67	H	1.257315	-0.307297	0.286501
H68	H	1.187100	-0.276436	0.364871
H69	H	1.215624	-0.436516	0.297111
H70	H	1.145419	-0.405670	0.375490
H71	H	0.509903	-0.100629	0.000105
O72	O	0.977560	-0.430533	0.158096
C73	C	0.887678	-0.391212	0.157826
H74	H	0.866764	-0.372988	0.081218
H75	H	0.882949	-0.332142	0.204480
C76	C	0.849822	-0.475059	0.292085
C77	C	0.824132	-0.452682	0.197992
H78	H	0.810623	-0.512974	0.316865
H79	H	0.910378	-0.501548	0.292270
H80	H	0.845881	-0.425828	0.330951
H81	H	0.828084	-0.501911	0.159124
H82	H	0.763575	-0.426202	0.197801
H83	H	0.319136	0.250981	0.000044
O84	O	1.236340	-0.461449	0.000333
C85	C	1.281764	-0.438269	0.083431
H86	H	1.229999	-0.416422	0.141178
H87	H	1.323743	-0.384734	0.065403
C88	C	1.408178	-0.541608	0.049626
C89	C	1.344600	-0.514783	0.120554
H90	H	1.446942	-0.588804	0.072524
H91	H	1.377577	-0.557224	-0.006361
H92	H	1.443152	-0.496989	0.034609
H93	H	1.309620	-0.559398	0.135561
H94	H	1.375196	-0.499177	0.176545
O95	O	0.944191	0.228702	0.749767
C96	C	0.958855	0.311880	0.725218
H97	H	0.993605	0.311838	0.652246
H98	H	1.003725	0.337935	0.781775
C99	C	0.824638	0.367651	0.810199
C100	C	0.867312	0.367600	0.720570
H101	H	0.768171	0.402023	0.807336
H102	H	0.814760	0.311613	0.826742
H103	H	0.862039	0.389362	0.857320
H104	H	0.829916	0.345879	0.673453
H105	H	0.877181	0.423636	0.704019
H106	H	0.620045	0.333030	0.000019
O107	O	1.185770	0.003834	0.750001
C108	C	1.172654	0.016077	0.849481
H109	H	1.100984	0.047350	0.863217
H110	H	1.223684	0.058295	0.877981
C111	C	1.274234	-0.108234	0.884221
C112	C	1.186205	-0.069830	0.901092
H113	H	1.282597	-0.161224	0.916059
H114	H	1.283074	-0.116481	0.817200
H115	H	1.316749	-0.073044	0.907971
H116	H	1.143692	-0.105015	0.877331
H117	H	1.177359	-0.061591	0.968111
O118	O	1.246921	-0.053411	0.400975
C119	C	1.198477	-0.105312	0.343026
H120	H	1.128017	-0.071835	0.327884
H121	H	1.192154	-0.167281	0.381946
C122	C	1.335819	-0.164637	0.266202
C123	C	1.249282	-0.123517	0.247598
H124	H	1.367159	-0.175870	0.207340
H125	H	1.368458	-0.129673	0.305246
H126	H	1.330538	-0.216273	0.298638
H127	H	1.254564	-0.071878	0.215175
H128	H	1.216645	-0.158473	0.208547
H129	H	1.145102	-0.340890	-0.145191
O130	O	0.977626	-0.430421	-0.158016
C131	C	0.887734	-0.391127	-0.157706
H132	H	0.883407	-0.331734	-0.111619
H133	H	0.840972	-0.436431	-0.126985
C134	C	0.863866	-0.440182	-0.317728
C135	C	0.858553	-0.367231	-0.261130
H136	H	0.845863	-0.425445	-0.381525
H137	H	0.924427	-0.466659	-0.317936
H138	H	0.824898	-0.477929	-0.292116
H139	H	0.897529	-0.329490	-0.286735
H140	H	0.797998	-0.340747	-0.260929
H141	H	0.953734	0.219631	0.258150
O142	O	0.882695	0.285567	0.401107
C143	C	0.793454	0.271746	0.425651
H144	H	0.793562	0.239369	0.498625
H145	H	0.765579	0.229885	0.369095
C146	C	0.733346	0.396695	0.340658
C147	C	0.733478	0.356936	0.430289
H148	H	0.696349	0.449244	0.343515
H149	H	0.793469	0.406006	0.324119
H150	H	0.710120	0.361803	0.293537
H151	H	0.756715	0.391824	0.477406
H152	H	0.673358	0.347633	0.446837
H153	H	0.892471	0.276637	0.591236
H154	H	1.237514	-0.044246	0.591208
H155	H	0.907643	-0.312344	0.000121
O156	O	0.819867	-0.030517	-0.000123
C157	C	0.803402	-0.077478	-0.082793
H158	H	0.771265	-0.033170	-0.140590
H159	H	0.755516	-0.126149	-0.064085
C160	C	0.932987	-0.177300	-0.049307
C161	C	0.893523	-0.122879	-0.120297
H162	H	0.988576	-0.205309	-0.072440
H163	H	0.944078	-0.145664	0.006392
H164	H	0.893073	-0.217851	-0.033724
H165	H	0.933432	-0.082323	-0.135870
H166	H	0.882441	-0.154509	-0.175999
O167	O	0.777703	0.271088	-0.000019
C168	C	0.873086	0.256333	0.000007
H169	H	0.895162	0.190807	-0.030211
H170	H	0.899256	0.260434	0.076605
C171	C	0.884990	0.403668	-0.025500
C172	C	0.912104	0.323192	-0.062622
H173	H	0.909059	0.444912	-0.064128
H174	H	0.820728	0.413610	-0.025514
H175	H	0.906800	0.407074	0.038331
H176	H	0.890284	0.319784	-0.126447
H177	H	0.976363	0.313251	-0.062620
H178	H	1.176179	0.012760	0.258134
H179	H	0.449447	0.329989	0.000023
H180	H	0.358106	-0.026620	0.000082
