data_functionalizedCrystal
_audit_creation_method	'MofGen! by Chris Wilmer'
_symmetry_space_group_name_H-M	'P1'
_symmetry_Int_Tables_number	1
_symmetry_cell_setting	triclinic
loop_
_symmetry_equiv_pos_as_xyz
  x,y,z
_cell_length_a	21.295418
_cell_length_b	25.639233
_cell_length_c	21.295417
_cell_angle_alpha	89.979137
_cell_angle_beta	90.046319
_cell_angle_gamma	89.967403
loop_
_atom_site_label
_atom_site_type_symbol
_atom_site_fract_x
_atom_site_fract_y
_atom_site_fract_z
Zn1	Zn	0.962287	-0.295880	-0.250420
Zn2	Zn	0.962209	-0.208441	-0.355671
Zn3	Zn	0.857030	-0.208428	-0.250448
Zn4	Zn	0.856979	-0.295815	-0.355684
O5	O	0.909626	-0.252141	-0.303056
O6	O	1.050366	-0.284314	-0.264364
O7	O	0.948246	-0.135274	-0.341719
O8	O	0.871046	-0.220051	-0.162355
O9	O	1.050309	-0.220073	-0.341691
O10	O	0.948378	-0.284301	-0.162334
O11	O	0.870972	-0.135265	-0.264412
O12	O	0.768934	-0.219988	-0.264426
O13	O	0.870959	-0.368989	-0.341715
O14	O	0.768896	-0.284191	-0.341742
O15	O	0.948328	-0.369037	-0.264378
O16	O	0.948197	-0.220010	-0.443762
O17	O	0.870884	-0.284203	-0.443772
C18	C	0.746075	-0.252081	-0.303089
C19	C	0.676107	-0.252068	-0.303118
C20	C	0.643237	-0.285448	-0.343430
C21	C	0.577494	-0.285472	-0.343415
C22	C	0.544624	-0.252105	-0.303094
C23	C	0.577502	-0.218723	-0.262774
C24	C	0.643243	-0.218704	-0.262786
N25	N	0.441359	-0.206376	-0.298166
N26	N	0.378907	-0.206395	-0.298158
C27	C	0.346549	-0.252161	-0.303054
N28	N	0.379002	-0.297908	-0.307970
N29	N	0.441459	-0.297888	-0.307981
C30	C	0.473339	-0.252122	-0.303076
C31	C	0.242394	-0.285569	-0.343351
C32	C	0.176650	-0.285594	-0.343331
C33	C	0.176659	-0.218840	-0.262694
C34	C	0.242402	-0.218820	-0.262710
C35	C	0.275265	-0.252184	-0.303042
C36	C	0.909647	-0.388514	-0.303045
C37	C	0.909655	-0.446628	-0.303040
C38	C	0.949992	-0.807022	-0.262651
C39	C	0.950000	-0.861626	-0.262634
O40	O	0.984245	-0.889889	-0.228367
N41	N	0.909725	-0.888911	-0.302892
C42	C	0.869434	-0.861589	-0.343167
O43	O	0.835177	-0.889810	-0.377408
C44	C	0.869424	-0.806985	-0.343181
C45	C	0.909706	-0.779703	-0.302924
C46	C	0.990271	-0.779740	-0.222397
C47	C	0.990264	-0.725140	-0.222415
C48	C	0.949978	-0.697821	-0.262688
C49	C	0.909699	-0.725103	-0.302942
C50	C	0.829131	-0.779664	-0.383452
C51	C	0.829123	-0.725057	-0.383462
C52	C	0.869406	-0.697775	-0.343204
C53	C	0.869406	-0.643184	-0.343233
N54	N	0.909682	-0.615899	-0.302974
C55	C	0.949968	-0.643218	-0.262701
C56	C	0.869459	-0.976259	-0.343134
C57	C	0.869472	-1.030862	-0.343124
C58	C	0.950037	-1.030896	-0.262590
C59	C	0.950026	-0.976292	-0.262603
C60	C	0.909734	-0.948975	-0.302875
C61	C	0.949950	-0.528552	-0.262744
C62	C	0.949941	-0.473947	-0.262767
C63	C	0.869374	-0.473918	-0.343299
C64	C	0.869385	-0.528518	-0.343278
C65	C	0.909675	-0.555834	-0.302995
O66	O	0.835177	-0.614886	-0.377480
O67	O	0.984213	-0.614989	-0.228460
C68	C	1.073817	-0.252202	-0.303023
C69	C	1.143785	-0.252228	-0.303009
C70	C	0.909544	-0.252112	-0.466608
C71	C	0.909566	-0.252117	-0.536576
C72	C	0.909642	-0.116299	-0.303021
C73	C	0.909756	-0.058185	-0.302849
C74	C	0.949858	-0.218726	-0.569416
C75	C	0.949888	-0.218738	-0.635158
C76	C	0.909614	-0.252135	-0.668058
C77	C	0.869319	-0.285533	-0.635210
C78	C	0.869295	-0.285524	-0.569468
N79	N	0.854546	-0.256101	-0.771340
N80	N	0.854570	-0.256107	-0.833791
C81	C	0.909684	-0.252165	-0.866133
N82	N	0.964774	-0.248208	-0.833663
N83	N	0.964749	-0.248200	-0.771206
C84	C	0.909636	-0.252149	-0.739343
C85	C	0.950012	-0.218785	-0.970259
C86	C	0.950043	-0.218801	-1.036002
C87	C	0.869468	-0.285593	-1.036052
C88	C	0.869443	-0.285580	-0.970310
C89	C	0.909714	-0.252174	-0.937417
C90	C	0.909726	-0.252182	-0.138866
C91	C	0.909769	-0.252199	-0.068897
H92	H	0.550727	-0.312656	-0.376241
O93	O	0.989217	-0.949768	-0.223583
C94	C	1.074172	-0.888126	-0.215096
C95	C	1.029840	-0.918138	-0.259363
H96	H	1.107018	-0.862537	-0.244006
H97	H	1.103012	-0.917011	-0.186322
H98	H	1.045270	-0.862583	-0.182179
H99	H	1.058693	-0.943681	-0.292318
H100	H	1.000998	-0.889224	-0.288093
H101	H	0.269153	-0.312739	-0.376189
H102	H	0.149897	-0.191675	-0.229861
H103	H	0.149889	-0.312779	-0.376157
O104	O	0.830209	-0.317943	-0.537467
C105	C	0.794434	-0.347503	-0.436211
C106	C	0.838742	-0.310772	-0.472375
H107	H	0.801308	-0.341710	-0.383578
H108	H	0.805460	-0.389687	-0.449046
H109	H	0.743695	-0.338277	-0.449242
H110	H	0.889496	-0.319951	-0.459364
H111	H	0.827662	-0.268598	-0.459537
O112	O	0.830176	-0.318024	-0.667068
C113	C	0.750233	-0.384252	-0.660181
C114	C	0.794538	-0.347487	-0.624025
H115	H	0.721399	-0.408074	-0.625396
H116	H	0.779092	-0.411658	-0.690892
H117	H	0.717374	-0.360209	-0.691029
H118	H	0.827406	-0.371487	-0.593142
H119	H	0.765640	-0.320079	-0.593353
O120	O	0.989218	-0.186456	-1.068003
C121	C	1.025061	-0.156950	-1.169257
C122	C	0.980639	-0.193586	-1.133095
H123	H	1.018131	-0.162694	-1.221891
H124	H	1.075796	-0.166239	-1.156270
H125	H	1.014112	-0.114762	-1.156376
H126	H	0.991532	-0.235786	-1.145956
H127	H	0.929918	-0.184252	-1.146085
O128	O	0.545548	-0.186251	-0.223699
C129	C	0.471233	-0.115711	-0.215094
C130	C	0.507390	-0.152444	-0.259422
H131	H	0.440364	-0.088376	-0.243958
H132	H	0.505996	-0.091811	-0.186296
H133	H	0.440539	-0.139783	-0.182203
H134	H	0.538086	-0.128413	-0.292351
H135	H	0.472594	-0.176347	-0.288176
H136	H	0.836676	-1.053070	-0.375912
O137	O	0.274237	-0.186341	-0.223535
C138	C	0.267306	-0.120157	-0.143526
C139	C	0.231174	-0.156904	-0.187874
H140	H	0.232506	-0.096356	-0.114673
H141	H	0.298008	-0.092730	-0.172353
H142	H	0.298161	-0.144212	-0.110687
H143	H	0.200286	-0.132891	-0.220722
H144	H	0.200512	-0.184333	-0.159008
O145	O	0.830325	-0.318085	-1.067906
C146	C	0.750379	-0.384310	-1.061017
C147	C	0.794685	-0.347545	-1.024862
H148	H	0.721543	-0.408130	-1.026232
H149	H	0.779238	-0.411719	-1.091725
H150	H	0.717522	-0.360267	-1.091868
H151	H	0.827550	-0.371545	-0.993977
H152	H	0.765786	-0.320134	-0.994193
O153	O	0.988952	-0.186208	-0.537536
C154	C	1.019556	-0.097300	-0.517417
C155	C	0.975251	-0.134066	-0.553572
H156	H	1.008485	-0.055135	-0.530359
H157	H	1.070320	-0.106494	-0.530295
H158	H	1.012633	-0.103054	-0.464791
H159	H	0.982118	-0.128332	-0.606207
H160	H	0.924503	-0.124862	-0.540642
H161	H	0.670005	-0.191521	-0.229957
O162	O	0.989108	-0.186323	-0.667006
C163	C	1.096203	-0.161059	-0.687073
C164	C	1.051863	-0.197794	-0.650954
H165	H	1.146950	-0.170327	-0.674118
H166	H	1.085222	-0.118879	-0.674178
H167	H	1.089258	-0.166800	-0.739705
H168	H	1.058783	-0.192099	-0.598314
H169	H	1.062855	-0.239960	-0.663902
H170	H	0.836647	-0.954020	-0.375932
H171	H	0.982805	-0.191585	-0.943476
O172	O	0.989092	-0.447527	-0.223599
C173	C	1.069029	-0.453334	-0.143745
C174	C	1.024715	-0.483316	-0.188060
H175	H	1.097851	-0.482256	-0.115009
H176	H	1.040176	-0.427776	-0.110801
H177	H	1.101898	-0.427766	-0.172656
H178	H	0.991837	-0.508912	-0.159199
H179	H	1.053607	-0.508841	-0.221006
H180	H	0.982756	-0.550787	-0.229939
O181	O	0.830387	-0.318068	-0.938378
C182	C	0.821827	-0.388618	-0.864090
C183	C	0.866131	-0.351863	-0.900224
H184	H	0.850708	-0.415943	-0.833224
H185	H	0.793057	-0.412528	-0.898867
H186	H	0.788908	-0.364563	-0.833394
H187	H	0.899087	-0.375877	-0.930921
H188	H	0.894856	-0.327951	-0.865413
H189	H	1.023065	-0.702932	-0.189632
O190	O	0.675062	-0.317909	-0.382624
C191	C	0.668112	-0.384096	-0.462632
C192	C	0.631991	-0.347368	-0.418269
H193	H	0.633305	-0.407915	-0.491472
H194	H	0.698931	-0.411507	-0.433817
H195	H	0.698850	-0.360024	-0.495482
H196	H	0.601219	-0.371398	-0.385410
H197	H	0.601212	-0.319956	-0.447122
H198	H	1.023077	-0.801977	-0.189598
H199	H	0.982838	-1.053148	-0.229796
O200	O	0.790027	-0.806095	-0.422646
C201	C	0.759416	-0.822777	-0.529728
C202	C	0.803735	-0.792806	-0.485407
H203	H	0.770491	-0.812053	-0.580480
H204	H	0.708656	-0.812005	-0.518730
H205	H	0.766318	-0.866497	-0.522780
H206	H	0.796888	-0.749080	-0.492330
H207	H	0.854478	-0.803622	-0.496416
O208	O	0.790074	-0.698461	-0.422616
C209	C	0.781550	-0.636826	-0.507652
C210	C	0.825839	-0.666905	-0.463340
H211	H	0.810449	-0.611314	-0.540597
H212	H	0.748660	-0.611216	-0.478801
H213	H	0.752749	-0.665715	-0.536393
H214	H	0.854682	-0.638053	-0.434589
H215	H	0.858688	-0.692523	-0.492227
O216	O	0.830201	-0.554942	-0.382407
C217	C	0.750318	-0.549139	-0.462315
C218	C	0.794656	-0.519154	-0.418027
H219	H	0.721578	-0.520217	-0.491134
H220	H	0.717378	-0.574675	-0.433442
H221	H	0.779210	-0.574728	-0.495187
H222	H	0.765815	-0.493536	-0.385146
H223	H	0.827597	-0.493651	-0.446939
H224	H	0.836576	-0.451665	-0.376090
