data_functionalizedCrystal
_audit_creation_method	'MofGen! by Chris Wilmer'
_symmetry_space_group_name_H-M	'P1'
_symmetry_Int_Tables_number	1
_symmetry_cell_setting	triclinic
loop_
_symmetry_equiv_pos_as_xyz
  x,y,z
_cell_length_a	19.188933
_cell_length_b	19.188930
_cell_length_c	10.868271
_cell_angle_alpha	89.989749
_cell_angle_beta	89.997098
_cell_angle_gamma	83.145175
loop_
_atom_site_label
_atom_site_type_symbol
_atom_site_fract_x
_atom_site_fract_y
_atom_site_fract_z
O1	O	0.926144	0.087174	-0.102295
O2	O	0.722833	0.098907	-0.102308
O3	O	0.830355	-0.008615	-0.102277
O4	O	0.818621	0.194696	-0.102326
O5	O	0.830346	-0.008619	0.102367
O6	O	0.722824	0.098903	0.102336
O7	O	0.926135	0.087170	0.102350
Zn8	Zn	0.824478	0.093036	0.134835
Zn9	Zn	0.824490	0.093042	-0.134793
O10	O	0.818612	0.194692	0.102319
C11	C	0.696817	0.098525	0.000013
C12	C	0.619313	0.097384	0.000009
C13	C	0.066062	0.089241	-0.111528
C14	C	0.138886	0.090309	-0.111533
C15	C	0.175299	0.090844	0.000018
C16	C	0.138883	0.090293	0.111583
C17	C	0.066061	0.089218	0.111585
N18	N	0.284315	0.132261	0.083041
N19	N	0.353493	0.133284	0.083032
C20	C	0.394707	0.094082	0.000020
N21	N	0.364130	0.053827	-0.083002
N22	N	0.294945	0.052808	-0.082996
C23	C	0.254262	0.092009	0.000029
C24	C	0.510079	0.095786	-0.111543
C25	C	0.582905	0.096850	-0.111544
C26	C	0.582900	0.096841	0.111575
C27	C	0.510076	0.095770	0.111572
C28	C	0.473669	0.095246	0.000010
C29	C	0.829971	-0.034628	0.000049
C30	C	0.828830	-0.112132	0.000059
C31	C	0.891921	-0.157056	0.000069
C32	C	0.890849	-0.229880	0.000049
C33	C	0.826683	-0.257777	0.000044
C34	C	0.763584	-0.212843	0.000027
C35	C	0.764658	-0.140021	0.000035
N36	N	0.777633	-0.365783	0.069686
N37	N	0.776618	-0.434962	0.069681
C38	C	0.823445	-0.477185	0.000019
N39	N	0.871337	-0.447618	-0.069623
N40	N	0.872355	-0.378433	-0.069613
C41	C	0.825512	-0.336739	0.000035
C42	C	0.885378	-0.601073	0.000006
C43	C	0.884304	-0.673898	-0.000021
C44	C	0.757037	-0.656860	-0.000031
C45	C	0.758113	-0.584037	-0.000016
C46	C	0.822286	-0.556148	0.000008
C47	C	0.952150	0.087553	0.000026
C48	C	1.029655	0.088694	0.000022
C49	C	0.818997	0.220705	-0.000010
C50	C	0.820137	0.298210	-0.000029
N51	N	0.824475	0.093032	0.318849
N52	N	0.824498	0.093040	-0.318807
C53	C	0.824486	0.093040	0.569855
C54	C	0.824478	0.093038	0.430177
H55	H	0.612548	0.097290	-0.202385
N56	N	0.470806	0.095218	-0.231863
H57	H	0.504924	0.095722	-0.302534
H58	H	0.446382	0.051502	-0.236714
N59	N	0.954588	-0.570986	0.000030
H60	H	0.982226	-0.587366	-0.075832
H61	H	0.945633	-0.518041	0.000092
H62	H	0.168535	0.090758	-0.202373
H63	H	0.706738	-0.547459	-0.000017
H64	H	0.036418	0.088775	0.202425
N65	N	0.622163	0.097410	0.231895
H66	H	0.673821	0.098172	0.214969
H67	H	0.603642	0.140493	0.280605
H68	H	0.480432	0.095327	0.202409
H69	H	0.713280	-0.103444	0.000027
H70	H	0.944175	-0.134354	0.000085
N71	N	0.952354	-0.722358	-0.000010
H72	H	0.980369	-0.713397	-0.075859
H73	H	0.980294	-0.713397	0.075914
H74	H	0.036425	0.088811	-0.202371
N75	N	0.687827	-0.686938	-0.000050
H76	H	0.696720	-0.739888	-0.000058
H77	H	0.660223	-0.670501	0.075812
H78	H	0.168535	0.090727	0.202409
N79	N	0.958899	-0.278345	0.000058
H80	H	0.999714	-0.249627	0.000072
H81	H	0.961216	-0.308938	0.075921
H82	H	0.711340	-0.235562	0.000020
