data_functionalizedCrystal
_audit_creation_method	'MofGen! by Chris Wilmer'
_symmetry_space_group_name_H-M	'P1'
_symmetry_Int_Tables_number	1
_symmetry_cell_setting	triclinic
loop_
_symmetry_equiv_pos_as_xyz
  x,y,z
_cell_length_a	19.188930
_cell_length_b	27.732048
_cell_length_c	17.666332
_cell_angle_alpha	89.988553
_cell_angle_beta	89.976766
_cell_angle_gamma	82.893716
loop_
_atom_site_label
_atom_site_type_symbol
_atom_site_fract_x
_atom_site_fract_y
_atom_site_fract_z
O1	O	0.925765	0.060348	-0.063200
O2	O	1.425765	0.560348	0.436800
O3	O	0.722402	0.068472	-0.063149
O4	O	1.222402	0.568472	0.436851
O5	O	0.830399	-0.005968	-0.063161
O6	O	1.330399	0.494032	0.436839
O7	O	0.817767	0.134787	-0.063187
O8	O	1.317767	0.634787	0.436813
O9	O	0.830380	-0.005971	0.062735
O10	O	1.330380	0.494029	0.562735
O11	O	0.722383	0.068468	0.062748
O12	O	1.222383	0.568468	0.562748
O13	O	0.925746	0.060344	0.062697
O14	O	1.425746	0.560344	0.562697
Cu15	Cu	0.824063	0.064406	0.074218
Cu16	Cu	1.324063	0.564406	0.574218
Cu17	Cu	0.824085	0.064410	-0.074670
Cu18	Cu	1.324085	0.564410	0.425330
O19	O	0.817748	0.134783	0.062710
O20	O	1.317748	0.634783	0.562710
C21	C	0.696383	0.068207	-0.000194
C22	C	1.196383	0.568207	0.499806
C23	C	0.618883	0.067417	-0.000174
C24	C	1.118883	0.567417	0.499826
C25	C	0.573681	0.111096	-0.000194
C26	C	1.073681	0.611096	0.499806
C27	C	0.500862	0.110354	-0.000202
C28	C	1.000862	0.610354	0.499798
C29	C	0.473249	0.065931	-0.000205
C30	C	0.973249	0.565931	0.499795
C31	C	0.518461	0.022246	-0.000181
C32	C	1.018461	0.522246	0.499819
C33	C	0.591278	0.022990	-0.000165
C34	C	1.091278	0.522990	0.499835
N35	N	0.365491	0.031976	-0.043078
N36	N	0.865491	0.531976	0.456922
N37	N	0.296317	0.031273	-0.043094
N38	N	0.796317	0.531273	0.456906
C39	C	0.253854	0.063689	-0.000251
C40	C	0.753854	0.563689	0.499749
N41	N	0.283177	0.096841	0.042600
N42	N	0.783177	0.596841	0.542600
N43	N	0.352357	0.097546	0.042613
N44	N	0.852357	0.597546	0.542613
C45	C	0.394291	0.065120	-0.000222
C46	C	0.894291	0.565120	0.499778
C47	C	0.129692	0.106566	-0.000279
C48	C	0.629692	0.606566	0.499721
C49	C	0.056872	0.105822	-0.000282
C50	C	0.556872	0.605822	0.499718
C51	C	0.074473	0.017714	-0.000269
C52	C	0.574473	0.517714	0.499731
C53	C	0.147292	0.018459	-0.000258
C54	C	0.647292	0.518459	0.499742
C55	C	0.174897	0.062886	-0.000267
C56	C	0.674897	0.562886	0.499733
C57	C	0.830125	-0.023977	-0.000211
C58	C	1.330125	0.476023	0.499789
C59	C	0.829326	-0.077635	-0.000204
C60	C	1.329326	0.422365	0.499796
C61	C	0.888119	-0.416270	-0.000258
C62	C	1.388119	0.083730	0.499742
C63	C	0.885157	-0.617939	-0.000268
C64	C	1.385157	-0.117939	0.499732
O65	O	0.938918	-0.649030	-0.000314
O66	O	1.438918	-0.149030	0.499686
N67	N	0.821118	-0.637258	-0.000251
N68	N	1.321118	-0.137258	0.499749
C69	C	0.757816	-0.606157	-0.000237
C70	C	1.257816	-0.106157	0.499763
O71	O	0.703280	-0.627217	-0.000231
O72	O	1.203280	-0.127217	0.499769
C73	C	0.760780	-0.404489	-0.000233
C74	C	1.260780	0.095511	0.499767
C75	C	0.824822	-0.385173	-0.000242
C76	C	1.324822	0.114827	0.499758
C77	C	0.952156	-0.396953	-0.000268
C78	C	1.452156	0.103047	0.499732
C79	C	0.952896	-0.346539	-0.000261
C80	C	1.452896	0.153461	0.499739
C81	C	0.889599	-0.315441	-0.000245
C82	C	1.389599	0.184559	0.499755
C83	C	0.825562	-0.334759	-0.000235
C84	C	1.325562	0.165241	0.499765
C85	C	0.697478	-0.373389	-0.000224
C86	C	1.197478	0.126611	0.499776
C87	C	0.698225	-0.322969	-0.000225
C88	C	1.198225	0.177031	0.499775
C89	C	0.762267	-0.303653	-0.000234
C90	C	1.262267	0.196347	0.499766
C91	C	0.763005	-0.253247	-0.000212
C92	C	1.263005	0.246753	0.499788
N93	N	0.827043	-0.233928	-0.000229
N94	N	1.327043	0.266072	0.499771
C95	C	0.890340	-0.265025	-0.000245
C96	C	1.390340	0.234975	0.499755
C97	C	0.756265	-0.712036	-0.000238
C98	C	1.256265	-0.212036	0.499762
C99	C	0.755524	-0.762452	-0.000238
C100	C	1.255524	-0.262452	0.499762
C101	C	0.882865	-0.774231	-0.000270
C102	C	1.382865	-0.274231	0.499730
C103	C	0.883605	-0.723813	-0.000265
C104	C	1.383605	-0.223813	0.499735
C105	C	0.820303	-0.692716	-0.000254
C106	C	1.320303	-0.192716	0.499746
C107	C	0.891889	-0.159151	-0.000231
C108	C	1.391889	0.340849	0.499769
C109	C	0.892623	-0.108732	-0.000221
C110	C	1.392623	0.391268	0.499779
C111	C	0.765283	-0.096958	-0.000193
C112	C	1.265283	0.403042	0.499807
C113	C	0.764549	-0.147373	-0.000198
C114	C	1.264549	0.352627	0.499802
C115	C	0.827857	-0.178468	-0.000220
C116	C	1.327857	0.321532	0.499780
O117	O	0.709272	-0.222127	-0.000174
O118	O	1.209272	0.277873	0.499826
O119	O	0.944868	-0.243956	-0.000268
O120	O	1.444868	0.256044	0.499732
C121	C	0.887379	-0.466684	-0.000265
C122	C	1.387379	0.033316	0.499735
C123	C	0.823342	-0.486001	-0.000255
C124	C	1.323342	0.013999	0.499745
C125	C	0.760045	-0.454904	-0.000238
C126	C	1.260045	0.045096	0.499762
C127	C	0.822601	-0.536418	-0.000254
C128	C	1.322601	-0.036418	0.499746
C129	C	0.885898	-0.567515	-0.000271
C130	C	1.385898	-0.067515	0.499729
C131	C	0.949936	-0.548195	-0.000288
C132	C	1.449936	-0.048195	0.499712
C133	C	0.950676	-0.497781	-0.000281
C134	C	1.450676	0.002219	0.499719
C135	C	0.696007	-0.474223	-0.000222
C136	C	1.196007	0.025777	0.499778
C137	C	0.695272	-0.524638	-0.000227
C138	C	1.195272	-0.024638	0.499773
C139	C	0.758569	-0.555735	-0.000244
C140	C	1.258569	-0.055735	0.499756
C141	C	0.951765	0.060609	-0.000260
C142	C	1.451765	0.560609	0.499740
C143	C	1.029264	0.061399	-0.000285
C144	C	1.529264	0.561399	0.499715
C145	C	0.818023	0.152793	-0.000243
C146	C	1.318023	0.652793	0.499757
C147	C	0.818821	0.206450	-0.000254
C148	C	1.318821	0.706450	0.499746
N149	N	0.824052	0.064402	0.178937
N150	N	1.324052	0.564402	0.678937
N151	N	0.824101	0.064410	-0.179389
N152	N	1.324101	0.564410	0.320611
C153	C	0.871889	0.031456	0.218541
C154	C	1.371889	0.531456	0.718541
C155	C	0.871893	0.031454	0.297789
C156	C	1.371893	0.531454	0.797789
C157	C	0.824067	0.064406	0.337429
C158	C	1.324067	0.564406	0.837429
C159	C	0.776221	0.097354	0.297816
C160	C	1.276221	0.597354	0.797816
C161	C	0.776214	0.097352	0.218570
C162	C	1.276214	0.597352	0.718570
N163	N	0.814718	0.107196	0.461842
N164	N	1.314718	0.607196	0.961842
N165	N	0.814729	0.107196	0.537122
N166	N	1.314729	0.607196	1.037122
C167	C	0.824085	0.064412	0.576193
C168	C	1.324085	0.564412	1.076193
N169	N	0.833444	0.021627	0.537140
N170	N	1.333444	0.521627	1.037140
N171	N	0.833436	0.021628	0.461853
N172	N	1.333436	0.521628	0.961853
C173	C	0.824069	0.064411	0.423359
C174	C	1.324069	0.564411	0.923359
C175	C	0.871929	0.031462	0.701727
C176	C	1.371929	0.531462	1.201727
C177	C	0.871928	0.031459	0.780976
C178	C	1.371928	0.531459	1.280976
C179	C	0.776260	0.097363	0.781001
C180	C	1.276260	0.597363	1.281001
C181	C	0.776257	0.097361	0.701754
C182	C	1.276257	0.597361	1.201754
C183	C	0.824096	0.064411	0.662121
C184	C	1.324096	0.564411	1.162121
H185	H	0.464051	0.145923	-0.000216
H186	H	0.964051	0.645923	0.499784
C187	C	0.645338	0.163047	0.064508
C188	C	1.145338	0.663047	0.564508
C189	C	0.604035	0.159925	-0.000211
C190	C	1.104035	0.659925	0.499789
H191	H	0.664084	0.193190	0.064489
H192	H	1.164084	0.693190	0.564489
H193	H	0.617274	0.160937	0.108401
H194	H	1.117274	0.660937	0.608401
H195	H	0.682676	0.137133	0.064518
H196	H	1.182676	0.637133	0.564518
H197	H	0.566694	0.185838	-0.000218
H198	H	1.066694	0.685838	0.499782
H199	H	0.632101	0.162040	-0.044116
H200	H	1.132101	0.662040	0.455884
C201	C	0.913857	-0.052285	0.677262
C202	C	1.413857	0.447715	1.177262
C203	C	0.924503	-0.004743	0.658125
C204	C	1.424503	0.495257	1.158125
H205	H	0.946312	-0.074630	0.650331
H206	H	1.446312	0.425370	1.150331
H207	H	0.920727	-0.057016	0.730114
H208	H	1.420727	0.442984	1.230114
H209	H	0.867315	-0.057452	0.664305
H210	H	1.367315	0.442548	1.164305
H211	H	0.971044	0.000425	0.671086
H212	H	1.471044	0.500425	1.171086
H213	H	0.917639	-0.000011	0.605261
H214	H	1.417639	0.499989	1.105261
C215	C	0.019487	0.180688	-0.065031
C216	C	0.519487	0.680688	0.434969
C217	C	0.007182	0.153838	-0.000305
C218	C	0.507182	0.653838	0.499695
H219	H	-0.011194	0.210330	-0.065047
H220	H	0.488806	0.710330	0.434953
H221	H	0.066800	0.187486	-0.065020
H222	H	0.566800	0.687486	0.434980
H223	H	0.011188	0.162459	-0.108925
H224	H	0.511188	0.662459	0.391075
H225	H	0.015486	0.172066	0.043588
H226	H	0.515486	0.672066	0.543588
H227	H	-0.040142	0.147041	-0.000310
H228	H	0.459858	0.647041	0.499690
H229	H	0.495974	-0.013923	-0.000195
H230	H	0.995974	0.486077	0.499805
H231	H	0.910848	0.004625	0.330041
H232	H	1.410848	0.504625	0.830041
C233	C	0.637577	-0.596687	-0.000228
C234	C	1.137577	-0.096687	0.499772
C235	C	0.624870	-0.545868	-0.000218
C236	C	1.124870	-0.045868	0.499782
H237	H	0.594114	-0.609791	-0.000223
H238	H	1.094114	-0.109791	0.499777
H239	H	0.663621	-0.607360	-0.044133
H240	H	1.163621	-0.107360	0.455867
H241	H	0.663603	-0.607376	0.043673
H242	H	1.163603	-0.107376	0.543673
H243	H	0.598848	-0.535179	-0.044122
H244	H	1.098848	-0.035179	0.455878
H245	H	0.598815	-0.535191	0.043692
H246	H	1.098815	-0.035191	0.543692
C247	C	0.733763	0.126623	0.419307
C248	C	1.233763	0.626623	0.919307
C249	C	0.723652	0.133577	0.341386
C250	C	1.223652	0.633577	0.841386
H251	H	0.701309	0.148988	0.446203
H252	H	1.201309	0.648988	0.946203
H253	H	0.726531	0.094380	0.432308
H254	H	1.226531	0.594380	0.932308
H255	H	0.780306	0.131795	0.432256
H256	H	1.280306	0.631795	0.932256
H257	H	0.677111	0.128401	0.328435
H258	H	1.177111	0.628401	0.828435
H259	H	0.730878	0.165828	0.328379
H260	H	1.230878	0.665828	0.828379
C261	C	0.601360	-0.064176	-0.000157
C262	C	1.101360	0.435824	0.499843
C263	C	0.640970	-0.025025	-0.000152
C264	C	1.140970	0.474975	0.499848
H265	H	0.632040	-0.093818	-0.000155
H266	H	1.132040	0.406182	0.499845
H267	H	0.572574	-0.062636	0.043740
H268	H	1.072574	0.437364	0.543740
H269	H	0.572611	-0.062628	-0.044066
H270	H	1.072611	0.437372	0.455934
H271	H	0.669715	-0.026571	0.043760
H272	H	1.169715	0.473429	0.543760
H273	H	0.669768	-0.026566	-0.044053
H274	H	1.169768	0.473434	0.455947
H275	H	1.001475	-0.573524	-0.000298
H276	H	1.501475	-0.073524	0.499702
C277	C	0.630321	-0.705469	-0.000195
C278	C	1.130321	-0.205469	0.499805
C279	C	0.686677	-0.677858	-0.000216
C280	C	1.186677	-0.177858	0.499784
H281	H	0.587361	-0.684369	-0.000173
H282	H	1.087361	-0.184369	0.499827
H283	H	0.632687	-0.725370	-0.044097
H284	H	1.132687	-0.225370	0.455903
H285	H	0.632689	-0.725386	0.043709
H286	H	1.132689	-0.225386	0.543709
H287	H	0.684312	-0.657943	-0.044122
H288	H	1.184312	-0.157943	0.455878
H289	H	0.684310	-0.657948	0.043691
H290	H	1.184310	-0.157948	0.543691
C291	C	0.655091	0.125954	0.805450
C292	C	1.155091	0.625954	1.305450
C293	C	0.723686	0.133583	0.824565
C294	C	1.223686	0.633583	1.324565
H295	H	0.622633	0.148313	0.832351
H296	H	1.122633	0.648313	1.332351
H297	H	0.648247	0.130670	0.752592
H298	H	1.148247	0.630670	1.252592
H299	H	0.647870	0.093704	0.818457
H300	H	1.147870	0.593704	1.318457
H301	H	0.730908	0.165832	0.811552
H302	H	1.230908	0.665832	1.311552
H303	H	0.730533	0.128871	0.877435
H304	H	1.230533	0.628871	1.377435
H305	H	0.152169	0.142741	-0.000275
H306	H	0.652169	0.642741	0.499725
H307	H	0.051991	-0.018456	-0.000319
H308	H	0.551991	0.481544	0.499681
C309	C	0.157372	-0.068704	-0.000256
C310	C	0.657372	0.431296	0.499744
C311	C	0.196983	-0.029555	-0.000248
C312	C	0.696983	0.470445	0.499752
H313	H	0.188051	-0.098347	-0.000253
H314	H	0.688051	0.401653	0.499747
H315	H	0.128583	-0.067164	0.043639
H316	H	0.628583	0.432836	0.543639
H317	H	0.128626	-0.067156	-0.044168
H318	H	0.628626	0.432844	0.455832
H319	H	0.225726	-0.031101	0.043666
H320	H	0.725726	0.468899	0.543666
H321	H	0.225784	-0.031096	-0.044147
H322	H	0.725784	0.468904	0.455853
C323	C	1.018422	-0.125446	-0.000259
C324	C	1.518422	0.374554	0.499741
C325	C	0.963023	-0.087500	-0.000237
C326	C	1.463023	0.412500	0.499763
H327	H	1.061882	-0.112339	-0.000276
H328	H	1.561882	0.387661	0.499724
H329	H	1.015479	-0.144871	0.043640
H330	H	1.515479	0.355129	0.543640
H331	H	1.015482	-0.144859	-0.044166
H332	H	1.515482	0.355141	0.455834
H333	H	0.965961	-0.068089	0.043673
H334	H	1.465961	0.431911	0.543673
H335	H	0.965968	-0.068067	-0.044141
H336	H	1.465968	0.431933	0.455859
H337	H	0.943441	-0.184464	-0.000251
H338	H	1.443441	0.315536	0.499749
H339	H	0.737259	0.124181	0.186323
H340	H	1.237259	0.624181	0.686323
H341	H	0.644461	-0.448908	-0.000210
H342	H	1.144461	0.051092	0.499790
C343	C	0.734357	0.181113	0.677347
C344	C	1.234357	0.681113	1.177347
C345	C	0.723681	0.133583	0.658216
C346	C	1.223681	0.633583	1.158216
H347	H	0.701898	0.203475	0.650465
H348	H	1.201898	0.703475	1.150465
H349	H	0.727514	0.185826	0.730209
H350	H	1.227514	0.685826	1.230209
H351	H	0.780897	0.186275	0.664328
H352	H	1.280897	0.686275	1.164328
H353	H	0.677142	0.128419	0.671240
H354	H	1.177142	0.628419	1.171240
H355	H	0.730518	0.128868	0.605342
H356	H	1.230518	0.628868	1.105342
H357	H	0.910880	0.004628	0.813222
H358	H	1.410880	0.504628	1.313222
H359	H	1.005046	-0.330816	-0.000272
H360	H	1.505046	0.169184	0.499728
H361	H	1.003703	-0.422268	-0.000284
H362	H	1.503703	0.077732	0.499716
C363	C	0.958326	-0.673946	-0.065003
C364	C	1.458326	-0.173946	0.434997
C365	C	0.954000	-0.702581	-0.000282
C366	C	1.454000	-0.202581	0.499718
H367	H	1.001785	-0.660838	-0.065011
H368	H	1.501785	-0.160838	0.434989
H369	H	0.955397	-0.693366	-0.108895
H370	H	1.455397	-0.193366	0.391105
H371	H	0.920733	-0.648209	-0.064987
H372	H	1.420733	-0.148209	0.435013
H373	H	0.991589	-0.728320	-0.000301
H374	H	1.491589	-0.228320	0.499699
H375	H	0.956935	-0.683160	0.043621
H376	H	1.456935	-0.183160	0.543621
C377	C	0.571688	-0.356662	-0.000215
C378	C	1.071688	0.143338	0.499785
C379	C	0.627080	-0.394613	-0.000221
C380	C	1.127080	0.105387	0.499779
H381	H	0.528225	-0.369764	-0.000218
H382	H	1.028225	0.130236	0.499782
H383	H	0.574618	-0.337251	0.043688
H384	H	1.074618	0.162749	0.543688
H385	H	0.574649	-0.337236	-0.044118
H386	H	1.074649	0.162764	0.455882
H387	H	0.624121	-0.414036	0.043686
H388	H	1.124121	0.085964	0.543686
H389	H	0.624148	-0.414031	-0.044128
H390	H	1.124148	0.085969	0.455872
C391	C	0.955900	-0.837753	-0.065022
C392	C	1.455900	-0.337753	0.434978
C393	C	0.952444	-0.808418	-0.000298
C394	C	1.452444	-0.308418	0.499702
H395	H	0.998856	-0.858857	-0.065045
H396	H	1.498856	-0.358857	0.434955
H397	H	0.917657	-0.856468	-0.065002
H398	H	1.417657	-0.356468	0.434998
H399	H	0.953544	-0.817827	-0.108917
H400	H	1.453544	-0.317827	0.391083
H401	H	0.954796	-0.828344	0.043597
H402	H	1.454796	-0.328344	0.543597
H403	H	0.990699	-0.789700	-0.000311
H404	H	1.490699	-0.289700	0.499689
H405	H	0.703375	-0.778175	-0.000217
H406	H	1.203375	-0.278175	0.499783
H407	H	0.646676	-0.297652	-0.000217
H408	H	1.146676	0.202348	0.499783
H409	H	0.712400	-0.163101	-0.000170
H410	H	1.212400	0.336899	0.499830
H411	H	0.713749	-0.071630	-0.000177
H412	H	1.213749	0.428370	0.499823
C413	C	1.076468	-0.514503	-0.000319
C414	C	1.576468	-0.014503	0.499681
C415	C	1.021074	-0.476553	-0.000300
C416	C	1.521074	0.023447	0.499700
H417	H	1.119930	-0.501399	-0.000337
H418	H	1.619930	-0.001399	0.499663
H419	H	1.073521	-0.533926	0.043581
H420	H	1.573521	-0.033926	0.543581
H421	H	1.073524	-0.533916	-0.044225
H422	H	1.573524	-0.033916	0.455775
H423	H	1.024015	-0.457142	0.043609
H424	H	1.524015	0.042858	0.543609
H425	H	1.024022	-0.457122	-0.044205
H426	H	1.524022	0.042878	0.455795
H427	H	0.910840	0.004625	0.186275
H428	H	1.410840	0.504625	0.686275
