data_functionalizedCrystal
_audit_creation_method	'MofGen! by Chris Wilmer'
_symmetry_space_group_name_H-M	'P1'
_symmetry_Int_Tables_number	1
_symmetry_cell_setting	triclinic
loop_
_symmetry_equiv_pos_as_xyz
  x,y,z
_cell_length_a	19.077105
_cell_length_b	16.625545
_cell_length_c	19.076919
_cell_angle_alpha	87.727920
_cell_angle_beta	89.923776
_cell_angle_gamma	87.721938
loop_
_atom_site_label
_atom_site_type_symbol
_atom_site_fract_x
_atom_site_fract_y
_atom_site_fract_z
Zn1	Zn	1.058264	-0.390077	0.440420
Zn2	Zn	1.062901	-0.519720	0.322913
Zn3	Zn	0.945482	-0.379275	0.318213
Zn4	Zn	0.940723	-0.519233	0.435666
O5	O	1.001842	-0.452076	0.379303
O6	O	1.157211	-0.411998	0.428789
O7	O	1.051258	-0.496772	0.223959
O8	O	0.960493	-0.267879	0.334446
O9	O	1.160618	-0.507246	0.342457
O10	O	1.043354	-0.275815	0.424231
O11	O	0.964990	-0.393588	0.220505
O12	O	0.846519	-0.393117	0.329837
O13	O	0.952383	-0.506417	0.534628
O14	O	0.843023	-0.495944	0.416129
O15	O	1.038739	-0.411526	0.538120
O16	O	1.046644	-0.632484	0.337848
O17	O	0.956880	-0.632127	0.420687
C18	C	0.819274	-0.443306	0.371957
C19	C	0.741170	-0.439574	0.368832
C20	C	1.001767	-0.661562	0.379278
C21	C	1.001798	-0.751186	0.379293
C22	C	0.702678	-0.491432	0.412220
C23	C	0.629291	-0.487915	0.409287
C24	C	0.594397	-0.432544	0.362960
C25	C	0.632895	-0.380681	0.319570
C26	C	0.706281	-0.384194	0.322508
C27	C	0.375110	-0.416283	0.349368
C28	C	0.301719	-0.412775	0.346432
C29	C	0.298120	-0.520009	0.436150
C30	C	0.371507	-0.523521	0.439080
C31	C	0.409999	-0.471655	0.395693
N32	N	0.519384	-0.428950	0.359959
N33	N	0.485011	-0.475246	0.398698
C34	C	1.001825	-0.823970	0.379308
C35	C	1.001865	-0.915281	0.379325
C36	C	1.001901	-0.988060	0.379336
C37	C	1.001941	-1.079376	0.379352
C38	C	1.185123	-0.460881	0.386678
C39	C	1.263227	-0.464633	0.389820
C40	C	0.994513	-0.460122	0.562583
C41	C	0.991389	-0.463551	0.640686
C42	C	1.001937	-0.241773	0.379344
C43	C	1.001977	-0.152155	0.379362
C44	C	1.009184	-0.444005	0.196737
C45	C	1.012444	-0.440355	0.118640
C46	C	1.034881	-0.415760	0.679199
C47	C	1.031938	-0.418978	0.752584
C48	C	0.985506	-0.469993	0.787457
C49	C	0.942010	-0.517786	0.748939
C50	C	0.944950	-0.514563	0.675554
C51	C	0.971888	-0.484926	1.006738
C52	C	0.968952	-0.488147	1.080128
C53	C	1.058880	-0.389338	1.083768
C54	C	1.061819	-0.386123	1.010382
C55	C	1.018320	-0.433913	0.971871
N56	N	0.982498	-0.473285	0.862469
N57	N	1.021325	-0.430615	0.896860
H58	H	0.731083	-0.536524	0.449942
C59	C	0.586946	-0.544964	0.457009
C60	C	0.534310	-0.510140	0.510215
C61	C	0.491964	-0.567191	0.557938
C62	C	0.502254	-0.659066	0.552455
C63	C	0.554892	-0.693894	0.499246
C64	C	0.597238	-0.636843	0.451523
H65	H	0.526691	-0.442125	0.514276
H66	H	0.452998	-0.541409	0.597327
H67	H	0.470907	-0.701298	0.587782
H68	H	0.562511	-0.761909	0.495185
H69	H	0.636204	-0.662625	0.412135
C70	C	0.255779	-0.577052	0.483880
C71	C	0.175057	-0.573191	0.480656
C72	C	0.132716	-0.630234	0.528392
C73	C	0.171097	-0.691139	0.579351
C74	C	0.251823	-0.695003	0.582577
C75	C	0.294164	-0.637959	0.534842
H76	H	0.146641	-0.528104	0.442931
H77	H	0.072957	-0.627373	0.526003
H78	H	0.139754	-0.733365	0.614688
H79	H	0.280239	-0.740090	0.620302
H80	H	0.353923	-0.640820	0.537230
H81	H	0.931139	-0.529691	1.108518
C82	C	0.897113	-0.567142	0.633191
C83	C	0.929556	-0.629691	0.583956
C84	C	0.881715	-0.682271	0.541594
C85	C	0.801432	-0.672303	0.548468
C86	C	0.768985	-0.609752	0.597705
C87	C	0.816825	-0.557171	0.640066
H88	H	0.988990	-0.637072	0.578866
H89	H	0.905735	-0.728576	0.505146
H90	H	0.766018	-0.711226	0.517109
H91	H	0.709550	-0.602371	0.602795
H92	H	0.792805	-0.510867	0.676515
C93	C	0.263334	-0.351846	0.295485
C94	C	0.305670	-0.294783	0.247770
C95	C	0.267285	-0.233853	0.196831
C96	C	0.186563	-0.229986	0.193606
C97	C	0.144222	-0.287051	0.241323
C98	C	0.182608	-0.347981	0.292262
H99	H	0.365430	-0.297644	0.250155
H100	H	0.298629	-0.191610	0.161508
H101	H	0.158148	-0.184882	0.155898
H102	H	0.084463	-0.284190	0.238938
H103	H	0.151264	-0.390224	0.327585
H104	H	0.406441	-0.374056	0.314033
H105	H	0.604479	-0.335593	0.281853
H106	H	0.399912	-0.568612	0.476802
C107	C	0.748627	-0.327152	0.274779
C108	C	0.797881	-0.267661	0.307350
C109	C	0.840227	-0.210613	0.259623
C110	C	0.833319	-0.213057	0.179326
C111	C	0.784063	-0.272550	0.146751
C112	C	0.741717	-0.329597	0.194478
H113	H	0.802997	-0.265850	0.366794
H114	H	0.876690	-0.166573	0.283738
H115	H	0.864666	-0.170827	0.143996
H116	H	0.778947	-0.274361	0.087307
H117	H	0.705254	-0.373638	0.170363
C118	C	1.085957	-0.359642	0.640842
C119	C	1.079857	-0.268150	0.650720
C120	C	1.130933	-0.212029	0.612366
C121	C	1.188109	-0.247399	0.564134
C122	C	1.194211	-0.338895	0.554254
C123	C	1.143135	-0.395017	0.592608
H124	H	1.037530	-0.241963	0.686426
H125	H	1.126415	-0.144297	0.619680
H126	H	1.225918	-0.205855	0.535741
H127	H	1.236538	-0.365083	0.518548
H128	H	1.147653	-0.462749	0.585294
H129	H	1.067355	-0.380063	0.783938
C130	C	1.112894	-0.330005	0.972025
C131	C	1.160735	-0.277433	1.014387
C132	C	1.211815	-0.221318	0.976030
C133	C	1.215053	-0.217776	0.895310
C134	C	1.167210	-0.270350	0.852943
C135	C	1.116131	-0.326464	0.891300
H136	H	1.158340	-0.280054	1.074145
H137	H	1.247231	-0.182400	1.007393
H138	H	1.252865	-0.176237	0.866915
H139	H	1.169606	-0.267729	0.793185
H140	H	1.080715	-0.365383	0.859937
C141	C	0.890939	-0.573915	0.787290
C142	C	0.811463	-0.563068	0.773985
C143	C	0.760397	-0.619207	0.812332
C144	C	0.788806	-0.686193	0.863984
C145	C	0.868286	-0.697043	0.877293
C146	C	0.919353	-0.640904	0.838946
H147	H	0.790429	-0.513479	0.735746
H148	H	0.701560	-0.611175	0.802480
H149	H	0.751003	-0.727750	0.892371
H150	H	0.889320	-0.746632	0.915531
H151	H	0.978189	-0.648936	0.848797
H152	H	1.094293	-0.350428	1.115132
H153	H	0.936478	-0.523852	0.975391
