data_functionalizedCrystal
_audit_creation_method	'MofGen! by Chris Wilmer'
_symmetry_space_group_name_H-M	'P1'
_symmetry_Int_Tables_number	1
_symmetry_cell_setting	triclinic
loop_
_symmetry_equiv_pos_as_xyz
  x,y,z
_cell_length_a	16.109301
_cell_length_b	15.944551
_cell_length_c	14.586319
_cell_angle_alpha	89.995256
_cell_angle_beta	89.999213
_cell_angle_gamma	83.480109
loop_
_atom_site_label
_atom_site_type_symbol
_atom_site_fract_x
_atom_site_fract_y
_atom_site_fract_z
O1	O	1.103166	0.107966	-0.076184
O2	O	0.861108	0.121403	-0.076199
O3	O	0.988747	-0.007593	-0.076183
O4	O	0.975527	0.236961	-0.076200
O5	O	0.988738	-0.007595	0.076298
O6	O	0.861099	0.121401	0.076282
O7	O	1.103157	0.107964	0.076296
Cu8	Cu	0.982127	0.114682	0.090212
Cu9	Cu	0.982138	0.114685	-0.090114
O10	O	0.975518	0.236960	0.076280
C11	C	0.830129	0.120857	0.000039
C12	C	0.737833	0.119226	0.000034
C13	C	0.515584	0.191975	0.000040
C14	C	0.428863	0.190435	0.000046
C15	C	0.448688	0.037387	0.000053
C16	C	0.535407	0.038927	0.000053
C17	C	0.568853	0.116224	0.000042
C18	C	0.395412	0.113143	0.000047
C19	C	0.301386	0.111473	0.000054
C20	C	0.662885	0.117894	0.000037
C21	C	0.988194	-0.038887	0.000057
C22	C	0.986548	-0.132133	0.000058
C23	C	0.903499	-0.346962	0.000040
C24	C	0.942060	-0.407993	0.075225
C25	C	0.983572	-0.302858	0.000051
C26	C	0.942088	-0.407975	-0.075109
C27	C	0.980691	-0.467769	0.000040
C28	C	1.022155	-0.362660	0.075297
C29	C	1.022171	-0.362636	-0.075104
C30	C	1.060790	-0.423649	0.000099
C31	C	0.985229	-0.207856	0.000058
C32	C	0.979039	-0.562770	0.000039
C33	C	1.134136	0.108510	0.000056
C34	C	1.226432	0.110141	0.000055
C35	C	0.976071	0.268254	0.000038
C36	C	0.977717	0.361500	0.000031
N37	N	0.982126	0.114680	0.217044
N38	N	0.982146	0.114680	-0.216946
C39	C	1.038663	0.057580	0.452057
C40	C	1.038666	0.057578	0.548038
C41	C	0.925602	0.171783	0.548034
C42	C	0.925597	0.171780	0.452054
C43	C	0.982132	0.114680	0.404068
C44	C	0.982140	0.114680	0.596029
C45	C	0.982142	0.114679	0.700096
C46	C	0.982129	0.114680	0.299995
H47	H	0.837035	-0.313632	0.000111
H48	H	0.908189	-0.428091	0.138783
O49	O	0.587242	-0.034607	-0.000069
C50	C	0.637985	-0.038299	-0.079051
H51	H	0.642367	0.028374	-0.105381
H52	H	0.609459	-0.076655	-0.134349
C53	C	0.720645	-0.162470	-0.022719
C54	C	0.726033	-0.080581	-0.055054
H55	H	0.774956	-0.188555	-0.007920
H56	H	0.686457	-0.159985	0.030491
H57	H	0.696870	-0.194423	-0.068806
H58	H	0.749798	-0.048627	-0.008964
H59	H	0.760227	-0.083061	-0.108256
H60	H	0.879558	0.218278	0.412979
H61	H	1.084697	0.011082	0.587108
H62	H	0.421446	-0.025546	0.000067
O63	O	0.548174	0.267004	0.000157
C64	C	0.597726	0.272480	0.079138
H65	H	0.619324	0.206270	0.105468
H66	H	0.559414	0.309647	0.134436
C67	C	0.647906	0.399016	0.022806
C68	C	0.674439	0.317695	0.055141
H69	H	0.695225	0.426909	0.008006
H70	H	0.614519	0.395329	-0.030403
H71	H	0.615979	0.429977	0.068894
H72	H	0.706357	0.286732	0.009050
H73	H	0.707833	0.321378	0.108343
H74	H	0.879574	0.218274	0.587113
H75	H	1.127313	-0.456830	0.000145
O76	O	0.377237	0.264097	-0.000001
C77	C	0.425357	0.332646	0.000014
H78	H	0.490078	0.311309	-0.028854
H79	H	0.431534	0.356338	0.073165
C80	C	0.302656	0.430550	-0.024330
C81	C	0.382146	0.404346	-0.059794
H82	H	0.276001	0.474780	-0.061219
H83	H	0.270236	0.384368	-0.024337
H84	H	0.307815	0.450288	0.036628
H85	H	0.376985	0.384599	-0.120747
H86	H	0.414564	0.450526	-0.059799
H87	H	1.055990	-0.342682	0.138930
H88	H	1.056013	-0.342516	-0.138666
H89	H	0.908213	-0.428039	-0.138677
O90	O	1.093605	0.002029	0.405585
C91	C	1.143514	-0.048355	0.468528
H92	H	1.109431	-0.049309	0.536948
H93	H	1.205276	-0.021065	0.478727
C94	C	1.202502	-0.137794	0.347047
C95	C	1.160638	-0.138972	0.431079
H96	H	1.213069	-0.193691	0.323946
H97	H	1.168880	-0.103848	0.304640
H98	H	1.253965	-0.115049	0.355558
H99	H	1.109171	-0.161707	0.422565
H100	H	1.194252	-0.172924	0.473484
