data_functionalizedCrystal
_audit_creation_method	'MofGen! by Chris Wilmer'
_symmetry_space_group_name_H-M	'P1'
_symmetry_Int_Tables_number	1
_symmetry_cell_setting	triclinic
loop_
_symmetry_equiv_pos_as_xyz
  x,y,z
_cell_length_a	14.971506
_cell_length_b	17.699083
_cell_length_c	14.048226
_cell_angle_alpha	89.992674
_cell_angle_beta	89.993237
_cell_angle_gamma	83.452701
loop_
_atom_site_label
_atom_site_type_symbol
_atom_site_fract_x
_atom_site_fract_y
_atom_site_fract_z
O1	O	1.186597	0.098706	-0.079169
O2	O	0.926158	0.110502	-0.079170
O3	O	1.063735	-0.005567	-0.079161
O4	O	1.049019	0.214774	-0.079178
O5	O	1.063719	-0.005574	0.079160
O6	O	0.926142	0.110495	0.079151
O7	O	1.186580	0.098699	0.079152
Zn8	Zn	1.056358	0.104596	0.104289
Zn9	Zn	1.056380	0.104605	-0.104306
O10	O	1.049003	0.214768	0.079143
C11	C	0.892828	0.109968	-0.000009
C12	C	0.793537	0.108379	-0.000009
C13	C	0.355041	0.170503	-0.000024
C14	C	0.448336	0.171990	-0.000028
C15	C	0.505790	0.103795	-0.000019
C16	C	0.469945	0.034109	-0.000015
C17	C	0.376652	0.032623	-0.000017
C18	C	0.664398	0.037212	-0.000007
C19	C	0.757698	0.038698	-0.000002
C20	C	0.736082	0.176579	-0.000018
C21	C	0.642788	0.175093	-0.000020
C22	C	0.606950	0.105406	-0.000014
C23	C	1.063200	-0.033769	-0.000000
C24	C	1.061618	-0.117791	0.000000
C25	C	1.142373	-0.166208	0.000002
C26	C	1.140881	-0.245155	-0.000007
C27	C	1.058634	-0.275683	-0.000010
C28	C	0.977873	-0.227260	-0.000014
C29	C	0.979365	-0.148314	-0.000013
C30	C	0.971851	-0.545638	-0.000022
C31	C	0.970365	-0.624590	-0.000021
C32	C	1.133367	-0.642479	-0.000016
C33	C	1.134860	-0.563533	-0.000015
C34	C	1.054099	-0.515117	-0.000024
C35	C	1.055718	-0.429513	-0.000017
C36	C	1.057014	-0.361285	-0.000011
C37	C	1.219911	0.099233	-0.000011
C38	C	1.319202	0.100822	-0.000017
C39	C	1.049538	0.242969	-0.000020
C40	C	1.051120	0.326991	-0.000026
N41	N	1.056350	0.104589	0.246649
N42	N	1.056395	0.104605	-0.246667
C43	C	1.117288	0.053215	0.296471
C44	C	1.117294	0.053215	0.396129
C45	C	1.056366	0.104593	0.445963
C46	C	0.995421	0.155969	0.396134
C47	C	0.995411	0.155965	0.296478
C48	C	0.995447	0.155974	0.603848
C49	C	0.995457	0.155979	0.703511
C50	C	1.117330	0.053224	0.703499
C51	C	1.117320	0.053220	0.603843
C52	C	1.056376	0.104598	0.554021
H53	H	0.516732	-0.021416	-0.000012
F54	F	0.338510	-0.041541	-0.000010
H55	H	1.209348	-0.141359	0.000010
F56	F	0.930580	0.210655	0.550828
F57	F	0.930607	0.210662	0.756541
H58	H	0.945807	0.197799	0.436714
H59	H	0.906091	-0.506226	-0.000030
H60	H	0.910905	-0.252122	-0.000023
F61	F	1.226832	-0.296681	-0.000003
F62	F	1.222398	-0.531048	-0.000012
H63	H	1.166937	0.011389	0.563269
H64	H	1.199126	-0.681909	-0.000013
F65	F	0.293901	0.243086	-0.000026
F66	F	0.882821	-0.657078	-0.000026
F67	F	0.893415	-0.096785	-0.000017
H68	H	1.166914	0.011382	0.436694
H69	H	1.166907	0.011381	0.255903
F70	F	1.182191	-0.001454	0.756527
H71	H	0.477511	0.228731	-0.000042
F72	F	0.581643	0.247673	-0.000025
F73	F	0.818843	-0.033882	0.000002
F74	F	0.930550	0.210642	0.243455
H75	H	0.635222	-0.019534	-0.000007
F76	F	0.774224	0.250745	-0.000016
