data_functionalizedCrystal
_audit_creation_method	'MofGen! by Chris Wilmer'
_symmetry_space_group_name_H-M	'P1'
_symmetry_Int_Tables_number	1
_symmetry_cell_setting	triclinic
loop_
_symmetry_equiv_pos_as_xyz
  x,y,z
_cell_length_a	27.732048
_cell_length_b	19.288865
_cell_length_c	26.210047
_cell_angle_alpha	89.975066
_cell_angle_beta	90.015477
_cell_angle_gamma	97.110548
loop_
_atom_site_label
_atom_site_type_symbol
_atom_site_fract_x
_atom_site_fract_y
_atom_site_fract_z
O1	O	0.641187	-0.082661	0.042369
O2	O	1.141187	0.417339	0.542369
O3	O	0.500432	-0.095228	0.042385
O4	O	1.000432	0.404772	0.542385
O5	O	0.574877	0.012211	0.042367
O6	O	1.074877	0.512211	0.542367
O7	O	0.566742	-0.190101	0.042388
O8	O	1.066742	0.309899	0.542388
O9	O	0.574849	0.012240	-0.042492
O10	O	1.074849	0.512240	0.457508
O11	O	0.500404	-0.095199	-0.042473
O12	O	1.000404	0.404801	0.457527
O13	O	0.641160	-0.082632	-0.042489
O14	O	1.141160	0.417368	0.457511
Cu15	Cu	0.570780	-0.088912	-0.050229
Cu16	Cu	1.070780	0.411088	0.449771
Cu17	Cu	0.570812	-0.088948	0.050125
Cu18	Cu	1.070812	0.411052	0.550125
O19	O	0.566715	-0.190071	-0.042470
O20	O	1.066715	0.309929	0.457530
C21	C	0.482410	-0.094950	-0.000042
C22	C	0.982410	0.405050	0.499958
C23	C	0.428753	-0.094155	-0.000036
C24	C	0.928753	0.405845	0.499964
C25	C	0.090115	-0.152644	-0.000052
C26	C	0.590115	0.347356	0.499948
C27	C	-0.111554	-0.149697	-0.000057
C28	C	0.388446	0.350303	0.499943
O29	O	-0.142648	-0.203181	-0.000073
O30	O	0.357352	0.296819	0.499927
N31	N	-0.130870	-0.085990	-0.000063
N32	N	0.369130	0.414010	0.499937
C33	C	-0.099766	-0.023015	-0.000071
C34	C	0.400234	0.476985	0.499929
O35	O	-0.120823	0.031239	-0.000081
O36	O	0.379177	0.531239	0.499919
C37	C	0.101902	-0.025963	-0.000069
C38	C	0.601902	0.474037	0.499931
C39	C	0.121215	-0.089674	-0.000058
C40	C	0.621215	0.410326	0.499942
C41	C	0.109428	-0.216350	-0.000042
C42	C	0.609428	0.283650	0.499958
C43	C	0.159843	-0.217086	-0.000038
C44	C	0.659843	0.282914	0.499962
C45	C	0.190943	-0.154116	-0.000044
C46	C	0.690943	0.345884	0.499956
C47	C	0.171629	-0.090410	-0.000054
C48	C	0.671629	0.409590	0.499946
C49	C	0.133005	0.037011	-0.000081
C50	C	0.633005	0.537011	0.499919
C51	C	0.183425	0.036268	-0.000082
C52	C	0.683425	0.536268	0.499918
C53	C	0.202738	-0.027443	-0.000071
C54	C	0.702738	0.472557	0.499929
C55	C	0.253144	-0.028177	-0.000057
C56	C	0.753144	0.471823	0.499943
N57	N	0.272460	-0.091884	-0.000051
N58	N	0.772460	0.408116	0.499949
C59	C	0.241360	-0.154853	-0.000045
C60	C	0.741360	0.345147	0.499955
C61	C	-0.205644	-0.021472	-0.000070
C62	C	0.294356	0.478528	0.499930
C63	C	-0.256061	-0.020735	-0.000070
C64	C	0.243939	0.479265	0.499930
C65	C	-0.267846	-0.147417	-0.000057
C66	C	0.232154	0.352583	0.499943
C67	C	-0.217428	-0.148153	-0.000054
C68	C	0.282572	0.351847	0.499946
C69	C	-0.186328	-0.085179	-0.000064
C70	C	0.313672	0.414821	0.499936
C71	C	0.347234	-0.156395	-0.000036
C72	C	0.847234	0.343605	0.499964
C73	C	0.397653	-0.157125	-0.000030
C74	C	0.897653	0.342875	0.499970
C75	C	0.409433	-0.030444	-0.000045
C76	C	0.909433	0.469556	0.499955
C77	C	0.359018	-0.029713	-0.000049
C78	C	0.859018	0.470287	0.499951
C79	C	0.327919	-0.092694	-0.000046
C80	C	0.827919	0.407306	0.499954
O81	O	0.284266	0.025278	-0.000046
O82	O	0.784266	0.525278	0.499954
O83	O	0.262426	-0.209100	-0.000046
O84	O	0.762426	0.290900	0.499954
C85	C	0.039701	-0.151908	-0.000056
C86	C	0.539701	0.348092	0.499944
C87	C	0.020387	-0.088202	-0.000066
C88	C	0.520387	0.411798	0.499934
C89	C	0.051487	-0.025232	-0.000073
C90	C	0.551487	0.474768	0.499927
C91	C	-0.030030	-0.087465	-0.000066
C92	C	0.469970	0.412535	0.499934
C93	C	-0.061130	-0.150435	-0.000059
C94	C	0.438870	0.349565	0.499941
C95	C	-0.041814	-0.214142	-0.000054
C96	C	0.458186	0.285858	0.499946
C97	C	0.008600	-0.214878	-0.000050
C98	C	0.508600	0.285122	0.499950
C99	C	0.032171	0.038475	-0.000079
C100	C	0.532171	0.538475	0.499921
C101	C	-0.018244	0.039206	-0.000082
C102	C	0.481756	0.539206	0.499918
C103	C	-0.049344	-0.023764	-0.000076
C104	C	0.450656	0.476236	0.499924
C105	C	0.574601	0.038100	-0.000064
C106	C	1.074601	0.538100	0.499936
C107	C	0.573816	0.115199	-0.000068
C108	C	1.073816	0.615199	0.499932
C109	C	0.659181	-0.082910	-0.000061
C110	C	1.159181	0.417090	0.499939
C111	C	0.712839	-0.083705	-0.000063
C112	C	1.212839	0.416295	0.499937
N113	N	0.570761	-0.088887	-0.120813
N114	N	1.070761	0.411113	0.379187
C115	C	0.566990	-0.215961	-0.000039
C116	C	1.066990	0.284039	0.499961
C117	C	0.567776	-0.293059	-0.000031
C118	C	1.067776	0.206941	0.499969
C119	C	0.617496	0.160168	-0.000076
C120	C	1.117496	0.660168	0.499924
C121	C	0.616758	0.232610	-0.000068
C122	C	1.116758	0.732610	0.499932
C123	C	0.572337	0.260081	-0.000062
C124	C	1.072337	0.760081	0.499938
C125	C	0.528650	0.215102	-0.000052
C126	C	1.028650	0.715102	0.499948
C127	C	0.529390	0.142661	-0.000055
C128	C	1.029390	0.642661	0.499945
C129	C	0.537407	0.368161	-0.029782
C130	C	1.037407	0.868161	0.470218
C131	C	0.536669	0.440601	-0.029782
C132	C	1.036669	0.940601	0.470218
C133	C	0.570054	0.483512	-0.000051
C134	C	1.070054	0.983512	0.499949
C135	C	0.604186	0.453977	0.029675
C136	C	1.104186	0.953977	0.529675
C137	C	0.604925	0.381536	0.029672
C138	C	1.104925	0.881536	0.529672
C139	C	0.571530	0.338630	-0.000059
C140	C	1.071530	0.838630	0.499941
C141	C	0.612938	0.607032	-0.000049
C142	C	1.112938	1.107032	0.499951
C143	C	0.612198	0.679475	-0.000037
C144	C	1.112198	1.179475	0.499963
C145	C	0.524089	0.661966	-0.000027
C146	C	1.024089	1.161966	0.499973
C147	C	0.524830	0.589524	-0.000033
C148	C	1.024830	1.089524	0.499967
C149	C	0.569256	0.562062	-0.000046
C150	C	1.069256	1.062062	0.499954
C151	C	0.541581	-0.047078	-0.526792
C152	C	1.041581	0.452922	-0.026792
C153	C	0.541560	-0.047060	-0.313133
C154	C	1.041560	0.452940	0.186867
O155	O	0.516721	-0.011456	-0.285524
O156	O	1.016721	0.488544	0.214476
N157	N	0.570779	-0.088897	-0.286397
N158	N	1.070779	0.411103	0.213603
C159	C	0.600008	-0.130737	-0.313079
C160	C	1.100008	0.369263	0.186921
O161	O	0.624863	-0.166316	-0.285435
O162	O	1.124863	0.333684	0.214565
C163	C	0.600031	-0.130750	-0.526736
C164	C	1.100031	0.369250	-0.026736
C165	C	0.570807	-0.088916	-0.553470
C166	C	1.070807	0.411084	-0.053470
C167	C	0.512360	-0.005246	-0.553525
C168	C	1.012360	0.494754	-0.053525
C169	C	0.512363	-0.005254	-0.606937
C170	C	1.012363	0.494746	-0.106937
C171	C	0.541589	-0.047093	-0.633615
C172	C	1.041589	0.452907	-0.133615
C173	C	0.570810	-0.088924	-0.606881
C174	C	1.070810	0.411076	-0.106881
C175	C	0.629262	-0.172587	-0.553417
C176	C	1.129262	0.327413	-0.053417
C177	C	0.629266	-0.172585	-0.606835
C178	C	1.129266	0.327415	-0.106835
C179	C	0.600042	-0.130751	-0.633568
C180	C	1.100042	0.369249	-0.133568
C181	C	0.600039	-0.130771	-0.686970
C182	C	1.100039	0.369229	-0.186970
N183	N	0.570821	-0.088934	-0.713707
N184	N	1.070821	0.411066	-0.213707
C185	C	0.541595	-0.047095	-0.687029
C186	C	1.041595	0.452905	-0.187029
C187	C	0.599992	-0.130728	-0.200905
C188	C	1.099992	0.369272	0.299095
C189	C	0.599986	-0.130726	-0.147491
C190	C	1.099986	0.369274	0.352509
C191	C	0.541539	-0.047048	-0.147549
C192	C	1.041539	0.452952	0.352451
C193	C	0.541543	-0.047054	-0.200964
C194	C	1.041543	0.452946	0.299036
C195	C	0.570774	-0.088892	-0.227641
C196	C	1.070774	0.411108	0.272359
C197	C	0.541605	-0.047115	-0.799197
C198	C	1.041605	0.452885	-0.299197
C199	C	0.541610	-0.047128	-0.852613
C200	C	1.041610	0.452872	-0.352613
C201	C	0.600058	-0.130803	-0.852550
C202	C	1.100058	0.369197	-0.352550
C203	C	0.600052	-0.130793	-0.799138
C204	C	1.100052	0.369207	-0.299138
C205	C	0.570824	-0.088943	-0.772463
C206	C	1.070824	0.411057	-0.272463
O207	O	0.624870	-0.166350	-0.714613
O208	O	1.124870	0.333650	-0.214613
O209	O	0.516751	-0.011510	-0.714681
O210	O	1.016751	0.488490	-0.214681
C211	C	0.541578	-0.047070	-0.473380
C212	C	1.041578	0.452930	0.026620
C213	C	0.570799	-0.088901	-0.446647
C214	C	1.070799	0.411099	0.053353
C215	C	0.600025	-0.130740	-0.473325
C216	C	1.100025	0.369260	0.026675
C217	C	0.570793	-0.088899	-0.393233
C218	C	1.070793	0.411101	0.106767
C219	C	0.541568	-0.047060	-0.366555
C220	C	1.041568	0.452940	0.133445
C221	C	0.512349	-0.005223	-0.393291
C222	C	1.012349	0.494777	0.106709
C223	C	0.512352	-0.005231	-0.446702
C224	C	1.012352	0.494769	0.053298
C225	C	0.629244	-0.172577	-0.446588
C226	C	1.129244	0.327423	0.053412
C227	C	0.629237	-0.172566	-0.393177
C228	C	1.129237	0.327434	0.106823
C229	C	0.600012	-0.130727	-0.366499
C230	C	1.100012	0.369273	0.133501
N231	N	0.570835	-0.088967	0.120709
N232	N	1.070835	0.411033	0.620709
H233	H	0.413374	-0.209008	-0.000021
H234	H	0.913374	0.290992	0.499979
H235	H	0.492482	0.237473	-0.000046
H236	H	0.992482	0.737473	0.499954
Br237	Br	0.676044	0.293651	-0.000076
Br238	Br	1.176044	0.793651	0.499924
H239	H	0.649112	0.584671	-0.000057
H240	H	1.149112	1.084671	0.499943
H241	H	0.057489	0.089753	-0.000085
H242	H	0.557489	0.589753	0.499915
H243	H	0.510219	0.333227	-0.053996
H244	H	1.010219	0.833227	0.446004
Br245	Br	-0.084032	-0.299600	-0.000041
Br246	Br	0.415968	0.200400	0.499959
H247	H	0.632715	0.357491	0.053876
H248	H	1.132715	0.857491	0.553876
H249	H	0.653672	0.137813	-0.000085
H250	H	1.153672	0.637813	0.499915
Br251	Br	0.671485	0.740507	-0.000042
Br252	Br	1.171485	1.240507	0.499958
H253	H	0.631371	0.488914	0.053885
H254	H	1.131371	0.988914	0.553885
H255	H	0.117290	0.088891	-0.000090
H256	H	0.617290	0.588891	0.499910
H257	H	0.208745	0.087551	-0.000091
H258	H	0.708745	0.587551	0.499909
Br259	Br	0.472684	0.051554	-0.357074
Br260	Br	0.972684	0.551554	0.142926
Br261	Br	0.501876	0.009733	-0.111333
Br262	Br	1.001876	0.509733	0.388667
Br263	Br	-0.191223	-0.234621	-0.000039
Br264	Br	0.308777	0.265379	0.499961
H265	H	0.175562	-0.268966	-0.000029
H266	H	0.675562	0.231034	0.499971
Br267	Br	0.668910	-0.229365	-0.482786
Br268	Br	1.168910	0.270635	0.017214
Br269	Br	-0.282265	0.065733	-0.000069
Br270	Br	0.217735	0.565733	0.499931
Br271	Br	0.470104	0.081628	-0.000043
Br272	Br	0.970104	0.581628	0.499957
H273	H	-0.033963	0.091091	-0.000087
H274	H	0.466037	0.591091	0.499913
Br275	Br	0.472701	0.051526	-0.643209
Br276	Br	0.972701	0.551526	-0.143209
H277	H	0.487920	0.684331	-0.000020
H278	H	0.987920	1.184331	0.499980
Br279	Br	0.668895	-0.229358	-0.356903
Br280	Br	1.168895	0.270642	0.143097
H281	H	-0.293177	-0.198689	-0.000052
H282	H	0.206823	0.301311	0.499948
H283	H	0.517746	-0.012989	-0.222727
H284	H	1.017746	0.487011	0.277273
H285	H	0.517809	-0.013062	-0.874377
H286	H	1.017809	0.486938	-0.374377
Br287	Br	0.639637	-0.187521	-0.111217
Br288	Br	1.139637	0.312479	0.388783
Br289	Br	0.639665	-0.187516	-0.237102
Br290	Br	1.139665	0.312484	0.262898
H291	H	0.488555	0.028835	-0.468464
H292	H	0.988555	0.528835	0.031536
H293	H	0.343293	0.022166	-0.000050
H294	H	0.843293	0.522166	0.499950
Br295	Br	0.668941	-0.229364	-0.643036
Br296	Br	1.168941	0.270636	-0.143036
Br297	Br	0.501940	0.009685	-0.763003
Br298	Br	1.001940	0.509685	-0.263003
H299	H	0.623852	-0.164869	-0.874281
H300	H	1.123852	0.335131	-0.374281
H301	H	0.653061	-0.206651	-0.531660
H302	H	1.153061	0.293349	-0.031660
H303	H	0.488561	0.028827	-0.531810
H304	H	0.988561	0.528827	-0.031810
Br305	Br	-0.163444	0.064002	-0.000085
Br306	Br	0.336556	0.564002	0.499915
H307	H	0.434764	0.020825	-0.000048
H308	H	0.934764	0.520825	0.499952
Br309	Br	0.639720	-0.187559	-0.762856
Br310	Br	1.139720	0.312441	-0.262856
H311	H	0.321918	-0.207680	-0.000035
H312	H	0.821918	0.292320	0.499965
Br313	Br	0.034803	-0.301347	-0.000034
Br314	Br	0.534803	0.198653	0.499966
Br315	Br	0.465545	0.528490	-0.000023
Br316	Br	0.965545	1.028490	0.499977
H317	H	0.508876	0.464642	-0.053983
H318	H	1.008876	0.964642	0.446017
H319	H	0.084111	-0.267630	-0.000038
H320	H	0.584111	0.232370	0.499962
