data_functionalizedCrystal
_audit_creation_method	'MofGen! by Chris Wilmer'
_symmetry_space_group_name_H-M	'P1'
_symmetry_Int_Tables_number	1
_symmetry_cell_setting	triclinic
loop_
_symmetry_equiv_pos_as_xyz
  x,y,z
_cell_length_a	16.625548
_cell_length_b	29.839131
_cell_length_c	16.625539
_cell_angle_alpha	90.039748
_cell_angle_beta	90.020568
_cell_angle_gamma	90.036296
loop_
_atom_site_label
_atom_site_type_symbol
_atom_site_fract_x
_atom_site_fract_y
_atom_site_fract_z
Zn1	Zn	1.232609	-0.178840	0.455845
Zn2	Zn	1.232482	-0.253971	0.320985
Zn3	Zn	1.097771	-0.178857	0.321026
Zn4	Zn	1.097711	-0.253945	0.455775
O5	O	1.165143	-0.216403	0.388408
O6	O	1.345425	-0.188810	0.437968
O7	O	1.214584	-0.244025	0.208158
O8	O	1.115735	-0.115987	0.338956
O9	O	1.345331	-0.244008	0.338887
O10	O	1.214800	-0.115975	0.438007
O11	O	1.115612	-0.188839	0.208188
O12	O	0.984930	-0.188814	0.338888
O13	O	1.115634	-0.243964	0.568617
O14	O	0.984887	-0.243981	0.437888
O15	O	1.214743	-0.188785	0.568668
O16	O	1.214526	-0.316834	0.338820
O17	O	1.115511	-0.316815	0.437849
C18	C	0.955652	-0.216397	0.388385
C19	C	0.866031	-0.216405	0.388395
C20	C	0.537856	-0.216408	0.388429
C21	C	0.629164	-0.216406	0.388417
C22	C	0.701941	-0.216406	0.388411
C23	C	0.793255	-0.216404	0.388401
C24	C	1.165020	-0.333126	0.388340
C25	C	1.165041	-0.383060	0.388338
C26	C	1.216715	-0.692662	0.440057
C27	C	1.216803	-0.880335	0.440106
O28	O	1.260617	-0.904565	0.484029
N29	N	1.165280	-0.903845	0.388497
C30	C	1.113728	-0.880434	0.336877
O31	O	1.069901	-0.904737	0.292988
C32	C	1.113637	-0.692762	0.336833
C33	C	1.165169	-0.669254	0.388439
C34	C	1.268242	-0.669154	0.491660
C35	C	1.268223	-0.622239	0.491644
C36	C	1.216677	-0.598831	0.440026
C37	C	1.165150	-0.622339	0.388423
C38	C	1.062082	-0.669352	0.285217
C39	C	1.062063	-0.622431	0.285212
C40	C	1.113594	-0.598923	0.336818
C41	C	1.113584	-0.552016	0.336790
N42	N	1.165107	-0.528505	0.388398
C43	C	1.216653	-0.551913	0.440016
C44	C	1.113781	-0.978965	0.336902
C45	C	1.113805	-1.025882	0.336912
C46	C	1.216878	-1.025780	0.440142
C47	C	1.216858	-0.978861	0.440128
C48	C	1.165303	-0.955455	0.388511
C49	C	1.216609	-0.453387	0.439979
C50	C	1.216588	-0.406468	0.439956
C51	C	1.113511	-0.406574	0.336729
C52	C	1.113536	-0.453490	0.336749
C53	C	1.165087	-0.476895	0.388380
O54	O	1.069787	-0.527757	0.292896
O55	O	1.260461	-0.527602	0.483911
C56	C	1.216734	-0.739577	0.440073
C57	C	1.165208	-0.763085	0.388471
C58	C	1.113662	-0.739677	0.336852
C59	C	1.165231	-0.810003	0.388480
C60	C	1.216777	-0.833411	0.440099
C61	C	1.268300	-0.809901	0.491707
C62	C	1.268281	-0.762985	0.491691
C63	C	1.062139	-0.763187	0.285244
C64	C	1.062163	-0.810103	0.285263
C65	C	1.113709	-0.833511	0.336882
C66	C	1.375452	-0.216410	0.388431
C67	C	1.465073	-0.216413	0.388441
C68	C	1.165196	-0.216370	0.598717
C69	C	1.165218	-0.216355	0.688338
C70	C	1.165289	-0.099225	0.388494
C71	C	1.165351	-0.049290	0.388530
C72	C	1.165137	-0.216404	0.178917
C73	C	1.165271	-0.216292	0.089297
C74	C	1.165255	-0.216305	1.016514
C75	C	1.165243	-0.216320	0.925205
C76	C	1.165237	-0.216330	0.852429
C77	C	1.165224	-0.216345	0.761115
H78	H	1.258582	-0.472439	0.482027
H79	H	1.020201	-0.829239	0.243232
O80	O	1.011956	-0.740503	0.235134
C81	C	0.931588	-0.751992	0.252693
H82	H	0.929915	-0.786040	0.283709
H83	H	0.895473	-0.753650	0.194464
H84	H	0.904387	-0.725576	0.294102
O85	O	1.012093	-0.599645	0.235028
C86	C	1.058011	-0.572517	0.182965
H87	H	1.119097	-0.565441	0.211452
H88	H	1.025154	-0.539548	0.172117
H89	H	1.066910	-0.590626	0.123228
O90	O	1.266671	-0.383702	0.490167
C91	C	1.312181	-0.414428	0.535716
H92	H	1.279165	-0.447886	0.538484
H93	H	1.320740	-0.400839	0.599250
H94	H	1.373438	-0.419403	0.506249
O95	O	1.318442	-0.832574	0.541882
C96	C	1.363903	-0.801770	0.587453
H97	H	1.366717	-0.768339	0.554424
H98	H	1.427426	-0.815297	0.596128
H99	H	1.334329	-0.796764	0.648657
H100	H	1.258850	-1.044847	0.482171
O101	O	1.318302	-0.599476	0.541855
C102	C	1.363810	-0.630205	0.587398
H103	H	1.330791	-0.663663	0.590158
H104	H	1.372369	-0.616621	0.650934
H105	H	1.425066	-0.635180	0.557930
H106	H	1.071581	-0.472631	0.294720
O107	O	1.012131	-0.692202	0.235012
C108	C	1.058053	-0.719356	0.182984
H109	H	1.121558	-0.705194	0.178040
H110	H	1.028908	-0.719929	0.120914
H111	H	1.060829	-0.754901	0.207925
O112	O	1.266934	-0.956097	0.490340
C113	C	1.312447	-0.986825	0.535882
H114	H	1.279434	-1.020285	0.538640
H115	H	1.321003	-0.973240	0.599419
H116	H	1.373705	-0.991795	0.506414
O117	O	1.063677	-1.048646	0.286750
C118	C	1.018193	-1.017918	0.241179
H119	H	1.015373	-0.984461	0.274200
H120	H	0.954674	-1.031507	0.232522
H121	H	1.047752	-1.012941	0.179968
O122	O	1.318205	-0.691908	0.541890
C123	C	1.272300	-0.719057	0.593928
H124	H	1.208781	-0.704955	0.598851
H125	H	1.301434	-0.719539	0.656004
H126	H	1.269565	-0.754630	0.569011
H127	H	1.071546	-0.387508	0.294700
O128	O	1.063814	-0.956180	0.286715
C129	C	1.109735	-0.929051	0.234657
H130	H	1.170817	-0.921973	0.263152
H131	H	1.076877	-0.896082	0.223805
H132	H	1.118644	-0.947158	0.174921
O133	O	1.318420	-0.740133	0.541711
C134	C	1.370505	-0.712980	0.495857
H135	H	1.375529	-0.727142	0.432358
H136	H	1.432539	-0.712410	0.525080
H137	H	1.345567	-0.677434	0.493055
