data_functionalizedCrystal
_audit_creation_method	'MofGen! by Chris Wilmer'
_symmetry_space_group_name_H-M	'P1'
_symmetry_Int_Tables_number	1
_symmetry_cell_setting	triclinic
loop_
_symmetry_equiv_pos_as_xyz
  x,y,z
_cell_length_a	17.000371
_cell_length_b	23.532357
_cell_length_c	16.098678
_cell_angle_alpha	92.719562
_cell_angle_beta	87.494232
_cell_angle_gamma	79.213770
loop_
_atom_site_label
_atom_site_type_symbol
_atom_site_fract_x
_atom_site_fract_y
_atom_site_fract_z
O1	O	1.052356	0.023254	0.069262
O2	O	0.820455	0.043932	0.069266
O3	O	0.943420	-0.049664	0.069247
O4	O	0.929391	0.116850	0.069281
O5	O	0.950566	-0.055113	-0.069265
O6	O	0.827601	0.038483	-0.069245
O7	O	1.059503	0.017805	-0.069249
Zn8	Zn	0.944687	0.027279	-0.091239
Zn9	Zn	0.935271	0.034458	0.091255
O10	O	0.936537	0.111401	-0.069230
C11	C	0.794365	0.042318	0.000010
C12	C	0.705980	0.045621	0.000011
C13	C	0.946643	-0.073589	-0.000012
C14	C	0.945588	-0.136760	-0.000019
C15	C	0.674369	-0.005204	-0.000001
C16	C	0.591321	-0.002097	0.000006
C17	C	0.539884	0.051835	0.000018
C18	C	0.571499	0.102664	0.000033
C19	C	0.654546	0.099557	0.000032
C20	C	0.288640	0.063838	0.000027
C21	C	0.205588	0.066941	0.000025
C22	C	0.225415	-0.037820	-0.000001
C23	C	0.308463	-0.040923	-0.000007
C24	C	0.340071	0.009906	0.000012
C25	C	0.454995	0.055012	0.000023
C26	C	0.424958	0.006729	0.000014
C27	C	0.935068	-0.525494	0.075528
C28	C	0.934065	-0.584847	0.075533
O29	O	0.930206	-0.613012	0.139745
N30	N	0.937463	-0.617506	0.000031
C31	C	0.941856	-0.590807	-0.075480
O32	O	0.944654	-0.624035	-0.139699
C33	C	0.942853	-0.531454	-0.075484
C34	C	0.939463	-0.498800	0.000023
C35	C	0.931677	-0.492840	0.151028
C36	C	0.932681	-0.433491	0.151023
C37	C	0.937077	-0.406797	0.075518
C38	C	0.940468	-0.439451	0.000018
C39	C	0.947241	-0.504755	-0.150994
C40	C	0.948237	-0.445398	-0.150991
C41	C	0.944847	-0.412744	-0.075485
C42	C	0.945867	-0.353408	-0.075493
N43	N	0.942469	-0.320749	0.000009
C44	C	0.938074	-0.347444	0.075514
C45	C	0.939760	-0.715451	-0.075466
C46	C	0.938769	-0.774804	-0.075463
C47	C	0.930976	-0.768840	0.075550
C48	C	0.931973	-0.709487	0.075546
C49	C	0.936362	-0.682793	0.000036
C50	C	0.940185	-0.222807	0.075498
C51	C	0.941193	-0.163454	0.075486
C52	C	0.948981	-0.169423	-0.075526
C53	C	0.947977	-0.228771	-0.075515
C54	C	0.943576	-0.255462	0.000004
O55	O	0.949722	-0.325203	-0.139672
O56	O	0.935267	-0.314207	0.139723
C57	C	1.085592	0.019419	0.000008
C58	C	1.173978	0.016116	0.000013
C59	C	0.933315	0.135326	0.000030
C60	C	0.934369	0.198497	0.000043
N61	N	0.951118	0.022379	-0.215787
C62	C	0.898917	0.062092	-0.259384
C63	C	0.903439	0.058660	-0.346572
C64	C	0.960160	0.015513	-0.390161
C65	C	1.012367	-0.024202	-0.346557
C66	C	1.007848	-0.020767	-0.259371
C67	C	0.976533	0.003073	-0.653407
C68	C	0.981047	-0.000360	-0.740599
C69	C	0.872120	0.082504	-0.740608
C70	C	0.867603	0.085932	-0.653420
C71	C	0.919812	0.046219	-0.609824
C72	C	0.964782	0.012003	-0.479281
C73	C	0.915193	0.049732	-0.520706
N74	N	0.928846	0.039353	0.215803
H75	H	0.716244	-0.049121	-0.000015
Br76	Br	0.385182	0.128204	0.000044
H77	H	0.869014	0.084864	-0.485213
H78	H	0.938434	-0.136869	0.136975
Br79	Br	0.954192	-0.409174	-0.253476
Br80	Br	0.832597	0.112559	-0.405743
H81	H	0.529613	0.146576	0.000049
H82	H	0.680281	0.140943	0.000038
H83	H	0.852726	0.097225	-0.223900
Br84	Br	0.934210	-0.259021	0.177988
H85	H	0.821416	0.121066	-0.617932
H86	H	0.350338	-0.084840	-0.000021
H87	H	0.466841	-0.037182	0.000009
H88	H	1.027238	-0.035498	-0.776086
Br89	Br	0.951839	-0.549057	-0.253474
Br90	Br	1.047385	-0.050822	-0.594246
H91	H	0.929211	-0.682904	0.137030
Br92	Br	1.089352	-0.082757	-0.405710
Br93	Br	0.182514	-0.106798	-0.000024
Br94	Br	0.135781	0.140139	0.000030
Br95	Br	0.925006	-0.805079	0.178023
H96	H	0.829614	0.114836	-0.776112
H97	H	0.929918	-0.406908	0.212508
H98	H	0.928095	-0.514567	0.212517
H99	H	1.050356	-0.053105	-0.223875
H100	H	0.950745	-0.255361	-0.136999
Br101	Br	0.943389	-0.819116	-0.177940
Br102	Br	0.945723	-0.679231	-0.177954
Br103	Br	0.954948	-0.133183	-0.177993
H104	H	1.010964	-0.023129	-0.514778
H105	H	0.565588	-0.043483	-0.000003
H106	H	0.314364	0.105226	0.000047
