data_functionalizedCrystal
_audit_creation_method	'MofGen! by Chris Wilmer'
_symmetry_space_group_name_H-M	'P1'
_symmetry_Int_Tables_number	1
_symmetry_cell_setting	triclinic
loop_
_symmetry_equiv_pos_as_xyz
  x,y,z
_cell_length_a	16.959455
_cell_length_b	16.120484
_cell_length_c	16.959447
_cell_angle_alpha	92.866589
_cell_angle_beta	89.983056
_cell_angle_gamma	92.922454
loop_
_atom_site_label
_atom_site_type_symbol
_atom_site_fract_x
_atom_site_fract_y
_atom_site_fract_z
Zn1	Zn	1.192415	-0.331957	-0.462851
Zn2	Zn	1.185616	-0.471385	-0.337369
Zn3	Zn	1.060236	-0.331983	-0.330690
Zn4	Zn	1.053495	-0.471323	-0.469504
O5	O	1.122941	-0.401662	-0.400103
O6	O	1.302123	-0.350467	-0.446216
O7	O	1.168959	-0.452930	-0.225873
O8	O	1.083437	-0.215314	-0.342642
O9	O	1.297128	-0.452905	-0.354025
O10	O	1.180548	-0.215295	-0.439740
O11	O	1.076844	-0.350512	-0.220967
O12	O	0.948732	-0.350452	-0.349093
O13	O	1.071948	-0.452798	-0.579231
O14	O	0.943780	-0.452824	-0.451079
O15	O	1.174012	-0.350407	-0.574343
O16	O	1.162423	-0.588042	-0.360476
O17	O	1.065355	-0.587996	-0.457556
C18	C	0.917576	-0.401634	-0.400084
C19	C	0.829719	-0.401643	-0.400095
C20	C	0.460799	-0.348313	-0.347103
C21	C	0.455682	-0.455079	-0.453153
C22	C	0.538229	-0.455067	-0.453147
C23	C	0.582064	-0.401678	-0.400118
C24	C	0.543353	-0.348301	-0.347094
C25	C	0.576946	-0.508449	-0.506165
C26	C	0.659498	-0.508440	-0.506161
C27	C	0.703334	-0.455046	-0.453135
C28	C	0.664618	-0.401666	-0.400109
C29	C	0.708453	-0.348277	-0.347080
C30	C	0.669739	-0.294893	-0.294058
C31	C	0.587190	-0.294907	-0.294068
C32	C	0.785884	-0.455032	-0.453125
C33	C	0.791007	-0.348266	-0.347071
C34	C	1.112441	-0.618269	-0.410480
C35	C	1.108022	-0.710935	-0.414945
C36	C	1.099958	-0.880595	-0.423114
C37	C	1.146065	-0.921888	-0.377106
C38	C	1.141578	-1.016293	-0.381651
C39	C	1.104444	-0.786182	-0.418570
C40	C	1.329107	-0.401690	-0.400123
C41	C	1.416963	-0.401702	-0.400132
C42	C	1.122986	-0.401593	-0.606268
C43	C	1.123006	-0.401563	-0.694124
C44	C	1.133503	-0.184209	-0.389704
C45	C	1.138003	-0.091543	-0.385272
C46	C	1.075119	-0.348151	-1.063047
C47	C	1.171040	-0.454800	-1.068144
C48	C	1.171025	-0.454819	-0.985599
C49	C	1.123056	-0.401504	-0.941774
C50	C	1.075101	-0.348170	-0.980494
C51	C	1.218973	-0.508158	-0.946873
C52	C	1.218960	-0.508180	-0.864323
C53	C	1.170994	-0.454861	-0.820496
C54	C	1.123038	-0.401524	-0.859221
C55	C	1.075069	-0.348209	-0.815396
C56	C	1.027116	-0.294868	-0.854120
C57	C	1.027136	-0.294851	-0.936667
C58	C	1.170975	-0.454878	-0.737948
C59	C	1.075051	-0.348229	-0.732844
C60	C	1.122944	-0.401671	-0.194738
C61	C	1.123089	-0.401465	-0.106872
H62	H	0.555661	-0.251445	-0.250899
H63	H	0.541249	-0.551922	-0.549333
H64	H	1.188908	-0.886338	-0.334302
Br65	Br	0.729238	-0.222446	-0.222085
Br66	Br	0.408262	-0.275859	-0.275153
H67	H	1.057117	-0.916142	-0.465913
H68	H	1.035992	-0.304809	-0.697167
H69	H	0.988056	-0.251462	-0.818427
Br70	Br	0.396191	-0.527554	-0.525098
H71	H	0.691012	-0.551909	-0.549336
H72	H	0.817401	-0.498499	-0.496292
Br73	Br	0.962062	-0.222467	-0.989225
H74	H	1.258018	-0.551573	-0.982561
H75	H	1.036080	-0.304719	-1.094579
H76	H	1.210088	-0.498212	-1.103831
H77	H	1.258005	-0.551615	-0.832801
H78	H	1.210023	-0.498302	-0.706423
H79	H	0.826693	-0.304784	-0.303892
