data_functionalizedCrystal
_audit_creation_method	'MofGen! by Chris Wilmer'
_symmetry_space_group_name_H-M	'P1'
_symmetry_Int_Tables_number	1
_symmetry_cell_setting	triclinic
loop_
_symmetry_equiv_pos_as_xyz
  x,y,z
_cell_length_a	10.654550
_cell_length_b	10.654550
_cell_length_c	9.130313
_cell_angle_alpha	89.996647
_cell_angle_beta	89.999724
_cell_angle_gamma	84.484917
loop_
_atom_site_label
_atom_site_type_symbol
_atom_site_fract_x
_atom_site_fract_y
_atom_site_fract_z
O1	O	1.667839	0.176399	-0.121686
O2	O	1.302361	0.193205	-0.121712
O3	O	1.493503	0.002063	-0.121693
O4	O	1.476697	0.367541	-0.121705
O5	O	1.493490	0.002057	0.121906
O6	O	1.302348	0.193199	0.121886
O7	O	1.667826	0.176393	0.121913
Cu8	Cu	1.485086	0.184796	0.144142
Cu9	Cu	1.485101	0.184802	-0.143942
O10	O	1.476684	0.367535	0.121894
C11	C	1.255556	0.191968	0.000084
C12	C	1.116113	0.188276	0.000073
C13	C	1.492263	-0.044738	0.000104
C14	C	1.488571	-0.184181	0.000099
C15	C	1.036627	0.300818	0.000074
C16	C	0.905607	0.297341	0.000100
C17	C	0.933570	0.068772	0.000118
C18	C	1.064588	0.072250	0.000103
C19	C	1.601112	-0.263667	0.000112
C20	C	1.597636	-0.394688	0.000101
C21	C	1.369066	-0.366725	0.000072
C22	C	1.372544	-0.235706	0.000072
C23	C	1.733075	-0.279813	0.000135
C24	C	1.729599	-0.410834	0.000125
C25	C	1.714631	0.177630	0.000114
C26	C	1.854074	0.181322	0.000114
C27	C	1.477924	0.414336	0.000093
C28	C	1.481616	0.553779	0.000089
N29	N	1.485084	0.184790	0.346765
N30	N	1.485113	0.184798	-0.346564
C31	C	1.569751	0.100188	0.423425
C32	C	1.569763	0.100189	0.576762
C33	C	1.400437	0.269404	0.576765
C34	C	1.400420	0.269396	0.423431
H35	H	1.078574	0.395294	0.000061
C36	C	1.183668	0.341117	0.624016
C37	C	1.307383	0.362400	0.661047
H38	H	1.126223	0.398527	0.676056
H39	H	1.171546	0.353228	0.521738
H40	H	1.169331	0.257164	0.649165
H41	H	1.321724	0.446351	0.635888
H42	H	1.319511	0.350300	0.763348
H43	H	1.779315	-0.452596	0.102072
H44	H	1.331468	0.338290	0.361009
H45	H	1.769485	-0.456474	-0.105052
C46	C	0.917066	-0.127121	0.125360
C47	C	0.876929	-0.058761	0.000134
H48	H	0.882093	-0.205853	0.125366
H49	H	1.006461	-0.141153	0.125344
H50	H	0.889843	-0.080724	0.210298
H51	H	0.904160	-0.105154	-0.084805
H52	H	0.787516	-0.044733	0.000136
C53	C	0.891136	0.523618	0.000057
C54	C	0.818236	0.421051	0.000089
H55	H	0.837194	0.599993	0.000043
H56	H	0.942824	0.520225	0.084993
H57	H	0.942815	0.520204	-0.084904
H58	H	0.766563	0.424459	0.085057
H59	H	0.766526	0.424446	-0.084855
H60	H	1.129309	-0.019401	0.000107
H61	H	1.280902	-0.170993	0.000041
H62	H	1.274601	-0.408693	0.000048
C63	C	1.737110	-0.067083	0.438830
C64	C	1.662799	0.007179	0.339153
H65	H	1.794548	-0.124511	0.386803
H66	H	1.782743	-0.014381	0.498615
H67	H	1.684434	-0.112737	0.498655
H68	H	1.715476	0.052840	0.279335
H69	H	1.617164	-0.045529	0.279342
H70	H	1.784696	-0.250452	-0.101800
H71	H	1.775091	-0.244188	0.105319
H72	H	1.638704	0.031297	0.639175
