data_functionalizedCrystal
_audit_creation_method	'MofGen! by Chris Wilmer'
_symmetry_space_group_name_H-M	'P1'
_symmetry_Int_Tables_number	1
_symmetry_cell_setting	triclinic
loop_
_symmetry_equiv_pos_as_xyz
  x,y,z
_cell_length_a	19.077236
_cell_length_b	19.076808
_cell_length_c	19.076919
_cell_angle_alpha	90.121640
_cell_angle_beta	90.112677
_cell_angle_gamma	94.519737
loop_
_atom_site_label
_atom_site_type_symbol
_atom_site_fract_x
_atom_site_fract_y
_atom_site_fract_z
Zn1	Zn	1.048453	-0.255469	0.429870
Zn2	Zn	1.048749	-0.368252	0.307652
Zn3	Zn	0.935682	-0.255100	0.307665
Zn4	Zn	0.926207	-0.377641	0.419997
O5	O	0.989773	-0.314115	0.366296
O6	O	1.146971	-0.266655	0.417783
O7	O	1.037840	-0.349158	0.209493
O8	O	0.954483	-0.156664	0.328013
O9	O	1.147189	-0.349516	0.327990
O10	O	1.037335	-0.156935	0.417796
O11	O	0.954771	-0.266026	0.209503
O12	O	0.835946	-0.275130	0.318440
O13	O	0.938333	-0.365518	0.519467
O14	O	0.828985	-0.365160	0.400970
O15	O	1.028147	-0.275759	0.526720
O16	O	1.028652	-0.467982	0.318417
O17	O	0.938621	-0.474880	0.400957
C18	C	0.806931	-0.321124	0.358636
C19	C	0.728709	-0.324141	0.355375
C20	C	0.691842	-0.282491	0.400659
C21	C	0.618344	-0.285321	0.397589
C22	C	0.581715	-0.329806	0.349238
C23	C	0.618588	-0.371457	0.303949
C24	C	0.692084	-0.368623	0.307016
C25	C	0.361918	-0.342898	0.335042
C26	C	0.288416	-0.345731	0.331979
C27	C	0.288178	-0.259593	0.425619
C28	C	0.361676	-0.256766	0.428684
C29	C	0.398542	-0.298415	0.383393
N30	N	0.506589	-0.332702	0.346100
N31	N	0.473667	-0.295515	0.386528
C32	C	0.982659	-0.496966	0.358631
C33	C	0.979679	-0.575189	0.355377
C34	C	1.021380	-0.612022	0.400629
C35	C	1.018577	-0.685521	0.397574
C36	C	0.974076	-0.722186	0.349263
C37	C	0.932370	-0.685348	0.304009
C38	C	0.935170	-0.611851	0.307068
C39	C	0.961078	-0.941990	0.335099
C40	C	0.958283	-1.015493	0.332042
C41	C	1.044489	-1.015661	0.425608
C42	C	1.047288	-0.942162	0.428660
C43	C	1.005579	-0.905331	0.383409
N44	N	0.971212	-0.797313	0.346137
N45	N	1.008441	-0.830205	0.386539
C46	C	1.173328	-0.307079	0.373986
C47	C	1.251549	-0.304081	0.377263
C48	C	0.982150	-0.321727	0.549257
C49	C	0.978902	-0.324971	0.627224
C50	C	0.996933	-0.130550	0.374007
C51	C	0.999984	-0.052326	0.377294
C52	C	0.997408	-0.306481	0.184050
C53	C	1.000801	-0.303034	0.106097
C54	C	1.024134	-0.279764	0.667631
C55	C	1.021074	-0.282809	0.740889
C56	C	0.972783	-0.331065	0.773740
C57	C	0.927546	-0.376274	0.733328
C58	C	0.930604	-0.373225	0.660071
C59	C	0.958621	-0.345193	0.992429
C60	C	0.955568	-0.348241	1.065691
C61	C	1.049095	-0.254774	1.073247
C62	C	1.052152	-0.251732	0.999989
C63	C	1.006912	-0.296938	0.959583
N64	N	0.969655	-0.334181	0.848621
N65	N	1.010037	-0.293819	0.884703
H66	H	0.391925	-0.376812	0.298163
F67	F	0.248937	-0.215270	0.473816
H68	H	0.927118	-0.912008	0.298252
H69	H	0.722100	-0.402538	0.270141
H70	H	1.078445	-1.045657	0.462450
H71	H	0.258595	-0.381959	0.292605
H72	H	0.888224	-0.415563	0.760080
F73	F	0.910919	-1.054512	0.280618
H74	H	1.057621	-0.582174	0.439967
H75	H	1.052540	-0.715507	0.434417
H76	H	0.391494	-0.220544	0.468059
F77	F	1.097238	-0.206664	1.116255
H78	H	0.893763	-0.410031	0.627173
F79	F	0.579111	-0.240992	0.445788
F80	F	0.579603	-0.418798	0.252486
F81	F	0.904166	-0.399601	1.100651
H82	H	1.083524	-0.912311	0.467999
F83	F	1.069240	-0.234717	0.783890
H84	H	0.921793	-0.382013	0.959539
H85	H	0.896134	-0.715206	0.264675
F86	F	0.890785	-0.572651	0.258906
H87	H	1.091477	-0.212438	0.973247
F88	F	1.075535	-0.228406	0.632676
H89	H	0.721660	-0.246268	0.440033
