data_functionalizedCrystal
_audit_creation_method	'MofGen! by Chris Wilmer'
_symmetry_space_group_name_H-M	'P1'
_symmetry_Int_Tables_number	1
_symmetry_cell_setting	triclinic
loop_
_symmetry_equiv_pos_as_xyz
  x,y,z
_cell_length_a	14.519709
_cell_length_b	10.654550
_cell_length_c	13.596369
_cell_angle_alpha	89.995129
_cell_angle_beta	89.995349
_cell_angle_gamma	95.917476
loop_
_atom_site_label
_atom_site_type_symbol
_atom_site_fract_x
_atom_site_fract_y
_atom_site_fract_z
O1	O	1.224716	-0.164626	0.081661
O2	O	0.956340	-0.184013	0.081690
O3	O	1.096698	0.008479	0.081671
O4	O	1.084357	-0.357118	0.081680
O5	O	1.096696	0.008491	-0.081912
O6	O	0.956337	-0.184001	-0.081892
O7	O	1.224714	-0.164614	-0.081922
Zn8	Zn	1.090525	-0.174305	-0.107880
Zn9	Zn	1.090528	-0.174321	0.107648
O10	O	1.084355	-0.357106	-0.081903
C11	C	0.921974	-0.183103	-0.000097
C12	C	0.819579	-0.180396	-0.000086
C13	C	1.095791	0.055275	-0.000119
C14	C	1.093080	0.194692	-0.000115
N15	N	1.090530	-0.174294	-0.254972
C16	C	0.444631	-0.170428	-0.000131
C17	C	0.548954	-0.173196	-0.000118
C18	C	0.632102	-0.175412	-0.000107
C19	C	0.736431	-0.178180	-0.000096
C20	C	1.259079	-0.165524	-0.000132
C21	C	1.361475	-0.168231	-0.000137
C22	C	1.085262	-0.403901	-0.000111
C23	C	1.087973	-0.543318	-0.000108
C24	C	1.175721	0.274972	-0.000127
C25	C	1.173168	0.405968	-0.000120
C26	C	1.005326	0.376391	-0.000093
C27	C	1.007880	0.245397	-0.000093
C28	C	1.260921	0.224266	-0.000150
C29	C	1.343569	0.304548	-0.000163
C30	C	1.341016	0.435544	-0.000156
C31	C	1.255815	0.486259	-0.000135
N32	N	1.090531	-0.174323	0.254740
C33	C	1.090526	-0.174309	0.656031
C34	C	1.090524	-0.174317	0.544379
C35	C	1.090528	-0.174316	0.455389
C36	C	1.090527	-0.174324	0.343730
H37	H	1.263009	0.117604	-0.000158
C38	C	1.436134	0.249667	-0.000331
C39	C	1.486152	0.290494	-0.084481
C40	C	1.571434	0.239981	-0.084660
H41	H	1.425954	0.160157	-0.000384
H42	H	1.470246	0.277239	0.056683
H43	H	1.452047	0.262915	-0.141480
H44	H	1.496357	0.379997	-0.084446
H45	H	1.605546	0.267554	-0.027646
H46	H	1.561244	0.150474	-0.084710
H47	H	1.605384	0.267685	-0.141750
H48	H	1.408312	0.500907	-0.000156
C49	C	0.912920	0.431693	-0.000130
C50	C	0.928372	0.563595	-0.000160
C51	C	0.843269	0.614579	-0.000211
H52	H	0.878786	0.404286	0.056904
H53	H	0.878848	0.404225	-0.057194
H54	H	0.962430	0.591051	0.056898
H55	H	0.962493	0.591037	-0.057189
H56	H	0.809197	0.587112	-0.057275
H57	H	0.809141	0.587163	0.056823
H58	H	0.853742	0.704079	-0.000241
C59	C	0.918055	0.158435	-0.000128
C60	C	0.842894	0.230875	-0.000141
C61	C	0.760132	0.150809	-0.000180
H62	H	0.915439	0.106690	0.056904
H63	H	0.915509	0.106740	-0.057194
H64	H	0.845439	0.282548	0.056918
H65	H	0.845479	0.282618	-0.057169
H66	H	0.757586	0.099114	-0.057246
H67	H	0.757526	0.099067	0.056853
H68	H	0.709126	0.199947	-0.000198
H69	H	1.253743	0.592926	-0.000119
