data_functionalizedCrystal
_audit_creation_method	'MofGen! by Chris Wilmer'
_symmetry_space_group_name_H-M	'P1'
_symmetry_Int_Tables_number	1
_symmetry_cell_setting	triclinic
loop_
_symmetry_equiv_pos_as_xyz
  x,y,z
_cell_length_a	15.944545
_cell_length_b	15.944493
_cell_length_c	14.472310
_cell_angle_alpha	90.004804
_cell_angle_beta	89.989758
_cell_angle_gamma	83.485608
loop_
_atom_site_label
_atom_site_type_symbol
_atom_site_fract_x
_atom_site_fract_y
_atom_site_fract_z
O1	O	1.114516	0.108304	-0.076769
O2	O	0.869963	0.121666	-0.076782
O3	O	0.998943	-0.007293	-0.076783
O4	O	0.985536	0.237264	-0.076768
O5	O	0.998910	-0.007286	0.076899
O6	O	0.869930	0.121674	0.076900
O7	O	1.114483	0.108312	0.076913
Cu8	Cu	0.992203	0.114993	0.090939
Cu9	Cu	0.992242	0.114985	-0.090808
O10	O	0.985503	0.237271	0.076914
C11	C	0.838652	0.121116	0.000057
C12	C	0.745406	0.119456	0.000051
C13	C	0.474791	0.034560	0.000056
C14	C	0.525348	0.075494	0.075834
C15	C	0.409764	0.113535	0.000066
C16	C	0.525361	0.075508	-0.075685
C17	C	0.574677	0.116440	0.000057
C18	C	0.459092	0.154448	0.075907
C19	C	0.459102	0.154450	-0.075680
C20	C	0.509626	0.195442	0.000117
C21	C	0.314762	0.111860	0.000072
C22	C	0.669676	0.118122	0.000058
C23	C	0.998378	-0.038584	0.000054
C24	C	0.996735	-0.131833	0.000042
C25	C	1.072656	-0.367594	0.000064
C26	C	1.031731	-0.418165	-0.075711
C27	C	0.993691	-0.302554	0.000053
C28	C	1.031680	-0.418134	0.075807
C29	C	0.990757	-0.467463	0.000068
C30	C	0.952788	-0.351896	-0.075784
C31	C	0.952748	-0.351862	0.075802
C32	C	0.911766	-0.402400	0.000009
C33	C	0.995384	-0.207554	0.000044
C34	C	0.989058	-0.562460	0.000071
C35	C	1.145793	0.108862	0.000072
C36	C	1.239039	0.110522	0.000072
C37	C	0.986067	0.268562	0.000075
C38	C	0.987710	0.361811	0.000080
N39	N	0.992182	0.114999	0.218770
N40	N	0.992271	0.114972	-0.218639
C41	C	0.992241	0.114981	0.592861
C42	C	0.922995	0.183753	0.553695
C43	C	0.923155	0.184004	0.446607
C44	C	0.992211	0.114990	0.407270
C45	C	1.079851	0.134136	0.446113
C46	C	1.079462	0.134625	0.553235
C47	C	0.974630	0.026859	0.553384
C48	C	0.972619	0.027447	0.446256
C49	C	0.992199	0.114993	0.302382
C50	C	0.992259	0.114980	0.697749
H51	H	0.459152	-0.033454	0.000125
N52	N	1.073568	-0.454504	-0.156070
N53	N	1.034011	-0.494178	-0.212790
H54	H	1.063562	-0.519843	-0.269541
N55	N	0.561676	0.033665	-0.156052
N56	N	0.639553	0.028785	-0.169262
H57	H	0.665201	-0.000770	-0.226018
N58	N	1.073498	-0.454430	0.156174
N59	N	1.078362	-0.532303	0.169389
H60	H	1.107900	-0.557937	0.226146
N61	N	0.910999	-0.315740	-0.156234
N62	N	0.905563	-0.237811	-0.169239
H63	H	0.876052	-0.212273	-0.226057
H64	H	1.140674	-0.351967	-0.000009
N65	N	0.422787	0.196267	-0.156031
N66	N	0.431786	0.272048	-0.170280
H67	H	0.406137	0.301577	-0.227035
N68	N	0.896174	0.003793	0.587286
N69	N	0.829023	0.049773	0.570849
H70	H	0.773608	0.033491	0.594789
N71	N	0.841314	0.170103	0.413673
N72	N	0.783682	0.160137	0.469803
H73	H	0.725834	0.150477	0.446549
H74	H	0.919415	-0.322897	0.139864
N75	N	1.146042	0.074174	0.585726
N76	N	1.192652	0.031763	0.529285
H77	H	1.239677	-0.010927	0.552228
H78	H	0.857639	0.172533	0.579479
H79	H	1.132610	0.085378	0.420630
N80	N	0.826370	-0.421794	-0.000053
N81	N	0.778181	-0.397393	-0.065174
H82	H	0.717871	-0.411090	-0.065222
N83	N	0.891752	0.009202	0.414403
N84	N	0.885712	-0.055383	0.367016
H85	H	0.828599	-0.068268	0.344515
H86	H	0.934085	0.248779	0.580609
N87	N	0.937215	0.266055	0.414462
N88	N	0.946949	0.323311	0.471142
H89	H	0.956866	0.381268	0.448441
H90	H	1.094983	0.198892	0.578215
N91	N	1.099784	0.213837	0.412445
N92	N	1.049592	0.256670	0.359855
H93	H	1.063665	0.312961	0.336077
H94	H	1.019780	-0.026128	0.419481
N95	N	0.529046	0.280829	0.000192
N96	N	0.571366	0.306858	0.064685
H97	H	0.585081	0.367163	0.064745
N98	N	0.561628	0.033650	0.156194
N99	N	0.553678	-0.042475	0.169691
H100	H	0.579298	-0.072033	0.226443
N101	N	0.422918	0.196274	0.156349
N102	N	0.344984	0.201735	0.169348
H103	H	0.319432	0.231276	0.226157
H104	H	1.025128	-0.024319	0.578710
