data_functionalizedCrystal
_audit_creation_method	'MofGen! by Chris Wilmer'
_symmetry_space_group_name_H-M	'P1'
_symmetry_Int_Tables_number	1
_symmetry_cell_setting	triclinic
loop_
_symmetry_equiv_pos_as_xyz
  x,y,z
_cell_length_a	12.645330
_cell_length_b	14.908571
_cell_length_c	14.908803
_cell_angle_alpha	90.189116
_cell_angle_beta	86.710065
_cell_angle_gamma	93.285920
loop_
_atom_site_label
_atom_site_type_symbol
_atom_site_fract_x
_atom_site_fract_y
_atom_site_fract_z
Zn1	Zn	-0.553453	-1.345183	0.587601
Zn2	Zn	-0.053453	-0.845183	1.087601
Zn3	Zn	-0.721074	-1.353804	0.437252
Zn4	Zn	-0.221074	-0.853804	0.937252
Zn5	Zn	-0.533030	-1.203534	0.428600
Zn6	Zn	-0.033030	-0.703534	0.928600
Zn7	Zn	-0.719869	-1.194799	0.578901
Zn8	Zn	-0.219869	-0.694799	1.078901
O9	O	-0.631857	-1.274330	0.508089
O10	O	-0.131857	-0.774330	1.008089
O11	O	-0.584740	-1.472151	0.574919
O12	O	-0.084740	-0.972151	1.074919
O13	O	-0.688087	-1.341133	0.310281
O14	O	-0.188087	-0.841133	0.810281
O15	O	-0.387397	-1.222371	0.449712
O16	O	0.112603	-0.722371	0.949712
O17	O	-0.707890	-1.478485	0.464458
O18	O	-0.207890	-0.978485	0.964458
O19	O	-0.402402	-1.326441	0.566529
O20	O	0.097598	-0.826441	1.066529
O21	O	-0.549932	-1.230730	0.303924
O22	O	-0.049932	-0.730730	0.803924
O23	O	-0.548763	-1.076550	0.441276
O24	O	-0.048763	-0.576550	0.941276
O25	O	-0.705837	-1.207485	0.705879
O26	O	-0.205837	-0.707485	1.205879
O27	O	-0.686033	-1.070133	0.551702
O28	O	-0.186033	-0.570133	1.051702
O29	O	-0.583572	-1.317971	0.712270
O30	O	-0.083572	-0.817971	1.212270
O31	O	-0.869257	-1.332664	0.456022
O32	O	-0.369257	-0.832664	0.956022
O33	O	-0.868372	-1.215844	0.560091
O34	O	-0.368372	-0.715844	1.060091
C35	C	-0.615052	-1.040717	0.494607
C36	C	-0.115052	-0.540717	0.994607
C37	C	-0.607890	-0.940775	0.488861
C38	C	-0.107890	-0.440775	0.988861
C39	C	-0.907281	-1.274265	0.508072
C40	C	-0.407281	-0.774265	1.008072
C41	C	-1.025117	-1.274318	0.508100
C42	C	-0.525117	-0.774318	1.008100
C43	C	-0.646848	-1.260792	0.742611
C44	C	-0.146848	-0.760792	1.242611
C45	C	-0.653236	-1.255023	0.842551
C46	C	-0.153236	-0.755023	1.342551
C47	C	-1.192202	-1.201101	0.573801
C48	C	-0.692202	-0.701101	1.073801
C49	C	-1.069603	-1.200760	0.573556
C50	C	-0.569603	-0.700760	1.073556
C51	C	-1.061779	-1.254161	0.411865
C52	C	-0.561779	-0.754161	0.911865
C53	C	-1.184375	-1.253714	0.412264
C54	C	-0.684375	-0.753714	0.912264
C55	C	-1.200610	-1.368160	0.537890
C56	C	-0.700610	-0.868160	1.037890
C57	C	-1.078095	-1.367456	0.539929
C58	C	-0.578095	-0.867456	1.039929
C59	C	-0.355360	-1.274419	0.508126
C60	C	0.144640	-0.774419	1.008126
C61	C	-0.237534	-1.274456	0.508142
C62	C	0.262466	-0.774456	1.008142
C63	C	-0.648728	-1.508855	0.521624
C64	C	-0.148728	-1.008855	1.021624
C65	C	-0.655917	-1.608796	0.527391
C66	C	-0.155917	-1.108796	1.027391
C67	C	-0.737571	-0.746349	0.592895
C68	C	-0.237571	-0.246349	1.092895
C69	C	-0.730845	-0.652444	0.587499
C70	C	-0.230845	-0.152444	1.087499
C71	C	-0.587708	-0.659059	0.472678
C72	C	-0.087708	-0.159059	0.972678
C73	C	-0.594434	-0.752964	0.478074
C74	C	-0.094434	-0.252964	0.978074
C75	C	-0.669369	-0.796605	0.538183
C76	C	-0.169369	-0.296605	1.038183
C77	C	-0.676099	-0.890512	0.543574
C78	C	-0.176099	-0.390512	1.043574
C79	C	-0.532958	-0.897125	0.428758
C80	C	-0.032958	-0.397125	0.928758
C81	C	-0.526232	-0.803220	0.423363
C82	C	-0.026232	-0.303220	0.923363
C83	C	-0.537901	-1.359229	1.037005
C84	C	-0.037901	-0.859229	1.537005
C85	C	-0.543900	-1.353812	1.130908
C86	C	-0.043900	-0.853812	1.630908
C87	C	-0.671227	-1.238766	1.124260
C88	C	-0.171227	-0.738766	1.624260
C89	C	-0.665228	-1.244184	1.030357
C90	C	-0.165228	-0.744184	1.530357
C91	C	-0.598564	-1.304419	0.986734
C92	C	-0.098564	-0.804419	1.486734
C93	C	-0.592572	-1.309840	0.892830
C94	C	-0.092572	-0.809840	1.392830
C95	C	-0.719892	-1.194791	0.886183
C96	C	-0.219892	-0.694791	1.386183
C97	C	-0.725891	-1.189373	0.980085
C98	C	-0.225891	-0.689373	1.480085
C99	C	-0.616948	-1.287810	1.274478
C100	C	-0.116948	-0.787810	1.774478
C101	C	-0.610562	-1.293583	1.174538
C102	C	-0.110562	-0.793583	1.674538
H103	H	-1.045116	-1.212735	0.644743
H104	H	-0.545116	-0.712735	1.144743
C105	C	-1.022497	-1.324375	0.343640
C106	C	-0.522497	-0.824375	0.843640
N107	N	-0.992905	-1.377259	0.292254
N108	N	-0.492905	-0.877259	0.792254
C109	C	-0.820003	-0.794357	0.659011
C110	C	-0.320003	-0.294357	1.159011
N111	N	-0.882092	-0.830515	0.708813
N112	N	-0.382092	-0.330515	1.208813
C113	C	-0.505276	-0.611037	0.406572
C114	C	-0.005276	-0.111037	0.906572
N115	N	-0.443186	-0.574865	0.356782
N116	N	0.056814	-0.074865	0.856782
H117	H	-0.737117	-0.926043	0.592517
H118	H	-0.237117	-0.426043	1.092517
H119	H	-0.780164	-1.140330	1.015617
H120	H	-0.280164	-0.640330	1.515617
H121	H	-1.227286	-1.212915	0.645209
H122	H	-0.727286	-0.712915	1.145209
H123	H	-0.477424	-0.938054	0.384206
H124	H	0.022576	-0.438054	0.884206
C125	C	-0.786626	-1.134495	0.830876
C126	C	-0.286626	-0.634495	1.330876
N127	N	-0.836891	-1.089084	0.789218
N128	N	-0.336891	-0.589084	1.289218
C129	C	-0.519237	-1.376096	0.844845
C130	C	-0.019237	-0.876096	1.344845
N131	N	-0.463995	-1.425998	0.808706
N132	N	0.036005	-0.925998	1.308706
C133	C	-1.225754	-1.107679	0.546898
C134	C	-0.725754	-0.607679	1.046898
N135	N	-1.251022	-1.037314	0.526628
N136	N	-0.751022	-0.537314	1.026628
C137	C	-0.477170	-1.414111	1.186204
C138	C	0.022830	-0.914111	1.686204
N139	N	-0.426905	-1.459531	1.227853
N140	N	0.073095	-0.959531	1.727853
H141	H	-0.483627	-1.408279	1.001487
H142	H	0.016373	-0.908279	1.501487
H143	H	-0.725501	-1.189726	1.159794
H144	H	-0.225501	-0.689726	1.659794
H145	H	-1.034270	-1.131181	0.553416
H146	H	-0.534270	-0.631181	1.053416
H147	H	-1.054815	-1.382757	0.610779
H148	H	-0.554815	-0.882757	1.110779
C149	C	-0.805880	-0.597165	0.647679
C150	C	-0.305880	-0.097165	1.147679
N151	N	-0.862401	-0.555530	0.693009
N152	N	-0.362401	-0.055530	1.193009
H153	H	-1.206750	-1.185380	0.387699
H154	H	-0.706750	-0.685380	0.887699
H155	H	-1.214053	-1.305123	0.361380
H156	H	-0.714053	-0.805123	0.861380
H157	H	-1.048327	-1.424548	0.496024
H158	H	-0.548327	-0.924548	0.996024
H159	H	-0.465219	-0.767674	0.374426
H160	H	0.034781	-0.267674	0.874426
H161	H	-1.024881	-1.186573	0.386971
H162	H	-0.524881	-0.686573	0.886971
H163	H	-1.230049	-1.422744	0.490135
H164	H	-0.730049	-0.922744	0.990135
C165	C	-1.250439	-1.394448	0.631475
C166	C	-0.750439	-0.894448	1.131475
N167	N	-1.287969	-1.414238	0.701967
N168	N	-0.787969	-0.914238	1.201967
