data_functionalizedCrystal
_audit_creation_method	'MofGen! by Chris Wilmer'
_symmetry_space_group_name_H-M	'P1'
_symmetry_Int_Tables_number	1
_symmetry_cell_setting	triclinic
loop_
_symmetry_equiv_pos_as_xyz
  x,y,z
_cell_length_a	14.044220
_cell_length_b	8.965430
_cell_length_c	14.044220
_cell_angle_alpha	89.997796
_cell_angle_beta	86.811122
_cell_angle_gamma	89.992417
loop_
_atom_site_label
_atom_site_type_symbol
_atom_site_fract_x
_atom_site_fract_y
_atom_site_fract_z
O1	O	1.277158	0.123887	-0.230162
O2	O	1.777158	0.623887	0.269838
O3	O	1.000486	0.123924	-0.221856
O4	O	1.500486	0.623924	0.278144
O5	O	1.134669	0.123891	-0.087674
O6	O	1.634669	0.623891	0.412326
O7	O	1.142975	0.123920	-0.364345
O8	O	1.642975	0.623920	0.135655
O9	O	1.134676	-0.124188	-0.087679
O10	O	1.634676	0.375812	0.412321
O11	O	1.000494	-0.124155	-0.221862
O12	O	1.500494	0.375845	0.278138
O13	O	1.277165	-0.124192	-0.230167
O14	O	1.777165	0.375808	0.269833
Cu15	Cu	1.138830	-0.146825	-0.226015
Cu16	Cu	1.638830	0.353175	0.273985
Cu17	Cu	1.138821	0.146557	-0.226009
Cu18	Cu	1.638821	0.646557	0.273991
O19	O	1.142982	-0.124159	-0.364350
O20	O	1.642982	0.375841	0.135650
C21	C	0.964868	-0.000111	-0.218223
C22	C	1.464868	0.499889	0.281777
C23	C	0.858725	-0.000097	-0.207379
C24	C	1.358725	0.499903	0.292621
N25	N	1.138843	-0.353174	-0.226019
N26	N	1.638843	0.146826	0.273981
C27	C	0.664388	-0.000128	-0.187553
C28	C	1.164388	0.499872	0.312447
C29	C	0.613258	-0.000127	-0.264467
C30	C	1.113258	0.499873	0.235533
C31	C	0.505122	-0.000144	-0.253435
C32	C	1.005122	0.499856	0.246565
C33	C	0.772534	-0.000111	-0.198583
C34	C	1.272534	0.499889	0.301417
C35	C	1.200920	-0.450455	-0.163970
C36	C	1.700920	0.049545	0.336030
C37	C	1.113081	-0.549850	-0.138133
C38	C	1.613081	-0.049850	0.361867
C39	C	1.226643	-0.549907	-0.251792
C40	C	1.726643	-0.049907	0.248208
C41	C	1.050957	-0.450380	-0.200135
C42	C	1.550957	0.049620	0.299865
C43	C	1.164579	-0.450428	-0.313837
C44	C	1.664579	0.049572	0.186163
C45	C	1.076681	-0.549778	-0.288031
C46	C	1.576681	-0.049778	0.211969
C47	C	1.312783	-0.000154	-0.233800
C48	C	1.812783	0.499846	0.266200
C49	C	1.418926	-0.000158	-0.244645
C50	C	1.918926	0.499842	0.255355
C51	C	1.131037	-0.000148	-0.052054
C52	C	1.631037	0.499852	0.447946
C53	C	1.120193	-0.000149	0.054088
C54	C	1.620193	0.499851	0.554088
N55	N	1.138815	0.352906	-0.225998
N56	N	1.638815	0.852906	0.274002
C57	C	1.146614	-0.000116	-0.399969
C58	C	1.646614	0.499884	0.100031
C59	C	1.157459	-0.000106	-0.506112
C60	C	1.657459	0.499894	-0.006112
C61	C	1.100366	-0.000125	0.248426
C62	C	1.600366	0.499875	0.748426
C63	C	1.177281	-0.000130	0.299556
C64	C	1.677281	0.499870	0.799556
C65	C	1.166249	-0.000117	0.407692
C66	C	1.666249	0.499883	0.907692
C67	C	1.111397	-0.000138	0.140280
C68	C	1.611397	0.499862	0.640280
H69	H	0.626951	-0.000144	-0.113425
H70	H	1.126951	0.499856	0.386575
H71	H	1.251414	-0.000040	0.262117
H72	H	1.751414	0.499960	0.762117
N73	N	1.007055	-0.607211	-0.357520
N74	N	1.507055	-0.107211	0.142480
H75	H	1.025907	-0.569442	-0.423655
H76	H	1.525907	-0.069442	0.076345
H77	H	0.940803	-0.570799	-0.337842
H78	H	1.440803	-0.070799	0.162158
H79	H	1.253360	-0.406843	-0.111464
H80	H	1.753360	0.093157	0.388536
H81	H	1.186389	-0.406723	-0.388092
H82	H	1.686389	0.093277	0.111908
N83	N	1.325007	-0.607828	-0.280684
N84	N	1.825007	-0.107828	0.219316
H85	H	1.371850	-0.571699	-0.233772
H86	H	1.871850	-0.071699	0.266228
H87	H	1.344858	-0.570099	-0.346584
H88	H	1.844858	-0.070099	0.153416
N89	N	1.002171	-0.000131	0.298005
N90	N	1.502171	0.499869	0.798005
H91	H	0.966295	0.091828	0.278947
H92	H	1.466295	0.591828	0.778947
H93	H	1.008189	-0.000187	0.369331
H94	H	1.508189	0.499813	0.869331
H95	H	0.650697	-0.000112	-0.338600
H96	H	1.150697	0.499888	0.161400
H97	H	1.091296	-0.593523	-0.063857
H98	H	1.591296	-0.093523	0.436143
H99	H	0.976670	-0.406847	-0.178243
H100	H	1.476670	0.093153	0.321757
