data_functionalizedCrystal
_audit_creation_method	'MofGen! by Chris Wilmer'
_symmetry_space_group_name_H-M	'P1'
_symmetry_Int_Tables_number	1
_symmetry_cell_setting	triclinic
loop_
_symmetry_equiv_pos_as_xyz
  x,y,z
_cell_length_a	15.625950
_cell_length_b	19.188924
_cell_length_c	14.185499
_cell_angle_alpha	76.889377
_cell_angle_beta	120.545157
_cell_angle_gamma	83.721390
loop_
_atom_site_label
_atom_site_type_symbol
_atom_site_fract_x
_atom_site_fract_y
_atom_site_fract_z
O1	O	1.290580	0.018086	0.385884
O2	O	1.002320	0.048798	0.281058
O3	O	1.154775	-0.068764	0.336510
O4	O	1.138124	0.135648	0.330432
O5	O	1.199810	-0.103488	0.519725
O6	O	1.047354	0.014074	0.464273
O7	O	1.335614	-0.016638	0.569099
Cu8	Cu	1.195596	-0.004452	0.533415
Cu9	Cu	1.142338	0.036613	0.316742
O10	O	1.183159	0.100924	0.513647
C11	C	0.987958	0.033484	0.359255
C12	C	0.878070	0.039577	0.319294
C13	C	0.639279	-0.034959	0.687087
C14	C	0.536007	-0.029209	0.649487
C15	C	0.486964	0.008643	0.449772
C16	C	0.590232	0.002900	0.487355
C17	C	0.666383	-0.018902	0.606014
C18	C	0.617336	0.018957	0.406283
C19	C	0.720596	0.013211	0.443864
C20	C	0.796753	-0.008592	0.562518
C21	C	0.769643	-0.024648	0.643596
C22	C	0.541185	0.040753	0.287624
C23	C	0.568289	0.056810	0.206552
C24	C	0.671550	0.051069	0.244132
C25	C	0.747706	0.029266	0.362786
C26	C	0.698659	0.067125	0.163054
C27	C	0.801920	0.061379	0.200635
C28	C	0.850966	0.023520	0.400367
C29	C	1.176755	-0.112102	0.427923
C30	C	1.175141	-0.189501	0.427339
C31	C	1.149839	-0.206922	0.327194
C32	C	1.148306	-0.279643	0.326629
C33	C	1.172096	-0.334943	0.426222
C34	C	1.197396	-0.317515	0.526377
C35	C	1.198918	-0.244794	0.526936
N36	N	1.244311	-0.472245	0.520168
N37	N	1.242865	-0.541326	0.519631
C38	C	1.167508	-0.554049	0.424543
N39	N	1.093659	-0.495079	0.330000
N40	N	1.095109	-0.425992	0.330536
C41	C	1.170447	-0.413799	0.425627
C42	C	1.140540	-0.650320	0.323779
C43	C	1.139002	-0.723041	0.323215
C44	C	1.188103	-0.760914	0.522970
C45	C	1.189630	-0.688192	0.523527
C46	C	1.165853	-0.632899	0.423930
C47	C	1.349976	-0.001323	0.490900
C48	C	1.459861	-0.007415	0.530853
C49	C	1.161179	0.144263	0.422231
C50	C	1.162791	0.221663	0.422808
N51	N	1.233063	-0.033336	0.685814
C52	C	0.994788	0.150332	0.966796
C53	C	1.023175	0.128457	1.082143
C54	C	1.158201	0.024389	1.131217
C55	C	1.129822	0.046254	1.015871
C56	C	1.048116	0.109226	0.933669
C57	C	1.183150	0.005147	0.982743
C58	C	1.154776	0.027012	0.867409
C59	C	1.073075	0.089983	0.785201
C60	C	1.019742	0.131091	0.818334
C61	C	1.264861	-0.057822	1.064949
C62	C	1.318189	-0.098928	1.031822
C63	C	1.289811	-0.077066	0.916483
C64	C	1.208109	-0.014095	0.834276
C65	C	1.343143	-0.118173	0.883350
C66	C	1.314770	-0.096309	0.768015
C67	C	1.179735	0.007770	0.718941
N68	N	1.104868	0.065499	1.164342
H69	H	0.506274	0.074558	0.109939
Br70	Br	0.883884	0.235788	0.855225
H71	H	0.823986	0.074457	0.134617
Br72	Br	1.034572	0.119663	0.628675
Br73	Br	0.401049	0.048525	0.236622
Br74	Br	1.108267	-0.575275	0.188613
Br75	Br	0.908838	0.216547	0.706763
H76	H	1.224731	-0.026882	1.198159
Br77	Br	1.229670	-0.392562	0.661536
H78	H	1.113195	0.059044	0.652004
H79	H	0.912972	0.005778	0.496990
Br80	Br	1.117565	-0.131885	0.192026
Br81	Br	1.220380	-0.835956	0.658131
H82	H	0.979743	0.161937	1.109105
H83	H	0.880833	-0.013271	0.593115
Br84	Br	0.872998	-0.054224	0.804635
Br85	Br	1.223966	-0.664546	0.659444
H86	H	0.636645	0.084868	0.066442
Br87	Br	1.104649	-0.746682	0.187288
Br88	Br	1.303373	-0.087489	1.221478
H89	H	1.384718	-0.150199	1.098764
H90	H	1.358196	-0.129781	0.741045
H91	H	1.409676	-0.169442	0.950296
Br92	Br	1.233255	-0.221148	0.662856
Br93	Br	0.742633	-0.064535	0.848126
Br94	Br	1.113961	-0.303295	0.190707
H95	H	0.513944	-0.042270	0.715514
H96	H	0.424949	0.026390	0.353159
