data_functionalizedCrystal
_audit_creation_method	'MofGen! by Chris Wilmer'
_symmetry_space_group_name_H-M	'P1'
_symmetry_Int_Tables_number	1
_symmetry_cell_setting	triclinic
loop_
_symmetry_equiv_pos_as_xyz
  x,y,z
_cell_length_a	13.897449
_cell_length_b	29.839131
_cell_length_c	13.897441
_cell_angle_alpha	89.958174
_cell_angle_beta	89.981404
_cell_angle_gamma	90.036508
loop_
_atom_site_label
_atom_site_type_symbol
_atom_site_fract_x
_atom_site_fract_y
_atom_site_fract_z
Zn1	Zn	1.474565	-0.178828	-0.545299
Zn2	Zn	1.974565	0.321172	-0.045299
Zn3	Zn	1.474415	-0.253962	-0.383966
Zn4	Zn	1.974415	0.246038	0.116034
Zn5	Zn	1.313260	-0.178848	-0.384018
Zn6	Zn	1.813260	0.321152	0.115982
Zn7	Zn	1.313186	-0.253933	-0.545219
Zn8	Zn	1.813186	0.246067	-0.045219
O9	O	1.393857	-0.216393	-0.464626
O10	O	1.893857	0.283607	0.035374
O11	O	1.609527	-0.188798	-0.523910
O12	O	2.109527	0.311202	-0.023910
O13	O	1.453006	-0.244018	-0.248992
O14	O	1.953006	0.255982	0.251008
O15	O	1.334751	-0.115978	-0.405467
O16	O	1.834751	0.384022	0.094533
O17	O	1.609417	-0.243998	-0.405380
O18	O	2.109417	0.256002	0.094620
O19	O	1.453261	-0.115964	-0.523960
O20	O	1.953261	0.384036	-0.023960
O21	O	1.334606	-0.188832	-0.249029
O22	O	1.834606	0.311168	0.250971
O23	O	1.178268	-0.188805	-0.405389
O24	O	1.678268	0.311195	0.094611
O25	O	1.334625	-0.243950	-0.680211
O26	O	1.834625	0.256050	-0.180211
O27	O	1.178214	-0.243970	-0.523823
O28	O	1.678214	0.256030	-0.023823
O29	O	1.453189	-0.188771	-0.680270
O30	O	1.953189	0.311229	-0.180270
O31	O	1.452935	-0.316825	-0.405302
O32	O	1.952935	0.183175	0.094698
O33	O	1.334480	-0.316804	-0.523773
O34	O	1.834480	0.183196	-0.023773
C35	C	1.143242	-0.216387	-0.464604
C36	C	1.643242	0.283613	0.035396
C37	C	1.036028	-0.216395	-0.464617
C38	C	1.536028	0.283605	0.035383
C39	C	0.839733	-0.216397	-0.464642
C40	C	1.339733	0.283603	0.035358
C41	C	0.948966	-0.216394	-0.464626
C42	C	1.448966	0.283606	0.035374
C43	C	1.393709	-0.333115	-0.464544
C44	C	1.893709	0.166885	0.035456
C45	C	1.393735	-0.383050	-0.464542
C46	C	1.893735	0.116950	0.035458
C47	C	1.455551	-0.692651	-0.526413
C48	C	1.955551	-0.192651	-0.026413
C49	C	1.455656	-0.880324	-0.526471
C50	C	1.955656	-0.380324	-0.026471
O51	O	1.508070	-0.904552	-0.579015
O52	O	2.008070	-0.404552	-0.079015
N53	N	1.394020	-0.903835	-0.464733
N54	N	1.894020	-0.403835	0.035267
C55	C	1.332350	-0.880425	-0.402980
C56	C	1.832350	-0.380425	0.097020
O57	O	1.279920	-0.904729	-0.350476
O58	O	1.779920	-0.404729	0.149524
C59	C	1.332241	-0.692753	-0.402928
C60	C	1.832241	-0.192753	0.097072
C61	C	1.393887	-0.669244	-0.464663
C62	C	1.893887	-0.169244	0.035337
C63	C	1.517192	-0.669142	-0.588144
C64	C	2.017192	-0.169142	-0.088144
C65	C	1.517169	-0.622226	-0.588125
C66	C	2.017169	-0.122226	-0.088125
C67	C	1.455505	-0.598820	-0.526375
C68	C	1.955505	-0.098820	-0.026375
C69	C	1.393864	-0.622328	-0.464644
C70	C	1.893864	-0.122328	0.035356
C71	C	1.270566	-0.669344	-0.341181
C72	C	1.770566	-0.169344	0.158819
C73	C	1.270543	-0.622423	-0.341175
C74	C	1.770543	-0.122423	0.158825
C75	C	1.332189	-0.598914	-0.402910
C76	C	1.832189	-0.098914	0.097090
C77	C	1.332177	-0.552006	-0.402876
C78	C	1.832177	-0.052006	0.097124
N79	N	1.393813	-0.528495	-0.464614
N80	N	1.893813	-0.028495	0.035386
C81	C	1.455477	-0.551902	-0.526363
C82	C	1.955477	-0.051902	-0.026363
C83	C	1.332413	-0.978955	-0.403011
C84	C	1.832413	-0.478955	0.096989
C85	C	1.332441	-1.025873	-0.403022
C86	C	1.832441	-0.525873	0.096978
C87	C	1.455746	-1.025769	-0.526515
C88	C	1.955746	-0.525769	-0.026515
C89	C	1.455722	-0.978850	-0.526497
C90	C	1.955722	-0.478850	-0.026497
C91	C	1.394048	-0.955444	-0.464749
C92	C	1.894048	-0.455444	0.035251
C93	C	1.455424	-0.453376	-0.526319
C94	C	1.955424	0.046624	-0.026319
C95	C	1.455399	-0.406456	-0.526292
C96	C	1.955399	0.093544	-0.026292
C97	C	1.332090	-0.406565	-0.402803
C98	C	1.832090	0.093435	0.097197
C99	C	1.332119	-0.453481	-0.402827
C100	C	1.832119	0.046519	0.097173
C101	C	1.393789	-0.476885	-0.464592
C102	C	1.893789	0.023115	0.035408
O103	O	1.279783	-0.527749	-0.350366
O104	O	1.779783	-0.027749	0.149634
O105	O	1.507883	-0.527590	-0.578874
O106	O	2.007883	-0.027590	-0.078874
C107	C	1.455574	-0.739566	-0.526432
C108	C	1.955574	-0.239566	-0.026432
C109	C	1.393934	-0.763075	-0.464701
C110	C	1.893934	-0.263075	0.035299
C111	C	1.332270	-0.739668	-0.402951
C112	C	1.832270	-0.239668	0.097049
C113	C	1.393962	-0.809993	-0.464712
C114	C	1.893962	-0.309993	0.035288
C115	C	1.455626	-0.833399	-0.526462
C116	C	1.955626	-0.333399	-0.026462
C117	C	1.517261	-0.809888	-0.588200
C118	C	2.017261	-0.309888	-0.088200
C119	C	1.517238	-0.762973	-0.588181
C120	C	2.017238	-0.262973	-0.088181
C121	C	1.270634	-0.763179	-0.341213
C122	C	1.770634	-0.263179	0.158787
C123	C	1.270663	-0.810095	-0.341236
C124	C	1.770663	-0.310095	0.158764
C125	C	1.332327	-0.833502	-0.402986
C126	C	1.832327	-0.333502	0.097014
C127	C	1.645449	-0.216399	-0.464648
C128	C	2.145449	0.283601	0.035352
C129	C	1.752663	-0.216402	-0.464658
C130	C	2.252663	0.283598	0.035342
C131	C	1.393916	-0.216355	-0.716219
C132	C	1.893916	0.283645	-0.216219
C133	C	1.393941	-0.216339	-0.823433
C134	C	1.893941	0.283661	-0.323433
C135	C	1.394030	-0.099214	-0.464728
C136	C	1.894030	0.400786	0.035272
C137	C	1.394105	-0.049280	-0.464772
C138	C	1.894105	0.450720	0.035228
C139	C	1.393961	-0.216326	-0.910503
C140	C	1.893961	0.283674	-0.410503
C141	C	1.393988	-0.216306	-1.019735
C142	C	1.893988	0.283694	-0.519735
C143	C	1.393853	-0.216398	-0.214011
C144	C	1.893853	0.283602	0.285989
C145	C	1.394015	-0.216287	-0.106798
C146	C	1.894015	0.283713	0.393202
H147	H	1.505602	-0.387317	-0.576564
H148	H	2.005602	0.112683	-0.076564
O149	O	1.521938	-0.478618	-0.592932
O150	O	2.021938	0.021382	-0.092932
H151	H	1.597645	-0.469589	-0.576443
H152	H	2.097645	0.030411	-0.076443
O153	O	1.265964	-1.051224	-0.336418
O154	O	1.765964	-0.551224	0.163582
H155	H	1.276343	-1.087783	-0.346785
H156	H	1.776343	-0.587783	0.153215
H157	H	1.567364	-0.603088	-0.638398
H158	H	2.067364	-0.103088	-0.138398
O159	O	1.265653	-0.478843	-0.336226
O160	O	1.765653	0.021157	0.163774
H161	H	1.216565	-0.500224	-0.379357
H162	H	1.716565	-0.000224	0.120643
H163	H	1.220367	-0.688477	-0.290909
H164	H	1.720367	-0.188477	0.209091
H165	H	1.220317	-0.603368	-0.290893
H166	H	1.720317	-0.103368	0.209107
O167	O	1.583710	-0.694384	-0.654747
O168	O	2.083710	-0.194384	-0.154747
H169	H	1.626565	-0.670147	-0.697658
H170	H	2.126565	-0.170147	-0.197658
O171	O	1.522244	-1.051020	-0.593129
O172	O	2.022244	-0.551020	-0.093129
H173	H	1.571353	-1.072398	-0.550015
H174	H	2.071353	-0.572398	-0.050015
H175	H	1.282189	-0.959902	-0.352725
H176	H	1.782189	-0.459902	0.147275
H177	H	1.220465	-0.829232	-0.290955
H178	H	1.720465	-0.329232	0.209045
H179	H	1.505919	-0.959712	-0.576768
H180	H	2.005919	-0.459712	-0.076768
O181	O	1.265580	-0.381316	-0.336205
O182	O	1.765580	0.118684	0.163795
H183	H	1.275918	-0.344742	-0.346578
H184	H	1.775918	0.155258	0.153422
O185	O	1.583738	-0.737619	-0.654757
O186	O	2.083738	-0.237619	-0.154757
H187	H	1.626614	-0.761784	-0.697693
H188	H	2.126614	-0.261784	-0.197693
O189	O	1.204136	-0.737936	-0.274594
O190	O	1.704136	-0.237936	0.225406
H191	H	1.161295	-0.762171	-0.231664
H192	H	1.661295	-0.262171	0.268336
H193	H	1.567474	-0.828954	-0.638476
H194	H	2.067474	-0.328954	-0.138476
