data_functionalizedCrystal
_audit_creation_method	'MofGen! by Chris Wilmer'
_symmetry_space_group_name_H-M	'P1'
_symmetry_Int_Tables_number	1
_symmetry_cell_setting	triclinic
loop_
_symmetry_equiv_pos_as_xyz
  x,y,z
_cell_length_a	6.817900
_cell_length_b	16.418049
_cell_length_c	10.943624
_cell_angle_alpha	93.819405
_cell_angle_beta	108.838799
_cell_angle_gamma	103.389670
loop_
_atom_site_label
_atom_site_type_symbol
_atom_site_fract_x
_atom_site_fract_y
_atom_site_fract_z
V1	V	-4.087790	-0.115864	-0.403006
O2	O	-4.074541	0.005590	-0.394866
O3	O	-4.038505	-0.229761	-0.400699
O4	O	-4.066181	-0.114072	-0.578565
O5	O	-4.046673	-0.110899	-0.215769
V6	V	-4.568061	-0.101338	-0.380556
O7	O	-4.356181	-0.147728	-0.452251
O8	O	-4.749866	-0.069474	-0.331311
O9	O	-4.394139	0.012559	-0.382862
O10	O	-4.698706	-0.222792	-0.388695
O11	O	-4.726574	-0.106303	-0.567792
O12	O	-4.366463	-0.103130	-0.204997
C13	C	-3.882423	-0.257527	-0.394458
C14	C	-3.923593	-0.350638	-0.393742
C15	C	-4.201363	-0.569128	-0.398579
C16	C	-4.240036	-0.656617	-0.397918
C17	C	-3.873846	-0.648074	-0.384991
C18	C	-3.835181	-0.560587	-0.385662
C19	C	-3.998943	-0.521116	-0.392449
C20	C	-4.076282	-0.696092	-0.391118
C21	C	-4.118211	-0.790951	-0.390401
C22	C	-3.957012	-0.426250	-0.393168
C23	C	-3.917726	-0.109953	-0.621342
C24	C	-3.981336	-0.109241	-0.764865
C25	C	-3.827312	-0.104449	-0.841994
C26	C	-3.999661	-0.175581	-0.948263
C27	C	-3.922353	-0.036850	-0.914332
C28	C	-4.152880	-0.180440	-0.869258
C29	C	-4.075506	-0.041646	-0.835303
C30	C	-4.247988	-0.112798	-0.941543
C31	C	-4.213562	0.040320	-0.389100
C32	C	-4.151632	0.133431	-0.389824
C33	C	-4.178259	-0.107252	-0.162213
C34	C	-4.093887	-0.107959	-0.018688
H35	H	-3.670341	-0.521494	-0.380674
C36	C	-4.378945	-0.526199	-0.405689
C37	C	-4.312506	-0.464957	-0.294799
C38	C	-4.476054	-0.425404	-0.301299
H39	H	-4.408848	-0.499820	-0.481807
H40	H	-4.505054	-0.567293	-0.409180
H41	H	-4.186435	-0.423869	-0.291321
H42	H	-4.282620	-0.491314	-0.218665
H43	H	-4.602163	-0.466499	-0.304789
H44	H	-4.505945	-0.399031	-0.377421
H45	H	-4.431006	-0.383853	-0.226057
H46	H	-3.648932	-0.101014	-0.798532
H47	H	-4.426454	-0.116344	-0.984801
C48	C	-4.116896	0.033965	-0.769713
C49	C	-3.994905	0.108935	-0.791785
C50	C	-4.032932	0.178611	-0.731363
H51	H	-4.265302	0.031650	-0.805039
H52	H	-4.076993	0.032696	-0.678412
H53	H	-4.034820	0.110203	-0.883067
H54	H	-3.846491	0.111278	-0.756455
H55	H	-3.993030	0.177343	-0.640063
H56	H	-4.181341	0.176288	-0.766695
H57	H	-3.950154	0.229487	-0.746321
H58	H	-3.825512	0.023821	-0.934856
C59	C	-4.459888	-0.708816	-0.404821
C60	C	-4.547795	-0.770561	-0.516466
C61	C	-4.750336	-0.818656	-0.522874
H62	H	-4.445573	-0.735556	-0.329251
H63	H	-4.551983	-0.672814	-0.409028
H64	H	-4.455723	-0.806559	-0.512248
H65	H	-4.562163	-0.743844	-0.592055
H66	H	-4.842431	-0.782654	-0.527081
H67	H	-4.736000	-0.845391	-0.447299
H68	H	-4.810015	-0.860550	-0.598630
H69	H	-3.740521	-0.680221	-0.379462
H70	H	-4.249735	-0.241191	-0.848952
H71	H	-3.968259	-0.232203	-0.997434
