data_functionalizedCrystal
_audit_creation_method	'MofGen! by Chris Wilmer'
_symmetry_space_group_name_H-M	'P1'
_symmetry_Int_Tables_number	1
_symmetry_cell_setting	triclinic
loop_
_symmetry_equiv_pos_as_xyz
  x,y,z
_cell_length_a	14.853566
_cell_length_b	23.532407
_cell_length_c	13.930277
_cell_angle_alpha	89.990782
_cell_angle_beta	89.995631
_cell_angle_gamma	83.241546
loop_
_atom_site_label
_atom_site_type_symbol
_atom_site_fract_x
_atom_site_fract_y
_atom_site_fract_z
O1	O	1.195556	0.074349	-0.079778
O2	O	1.695556	0.574349	0.420222
O3	O	0.932999	0.083207	-0.079795
O4	O	1.432999	0.583207	0.420205
O5	O	1.072195	-0.004119	-0.079768
O6	O	1.572195	0.495881	0.420232
O7	O	1.056360	0.161675	-0.079804
O8	O	1.556360	0.661675	0.420196
O9	O	1.072176	-0.004121	0.079894
O10	O	1.572176	0.495879	0.579894
O11	O	0.932980	0.083205	0.079867
O12	O	1.432980	0.583205	0.579867
O13	O	1.195537	0.074347	0.079884
O14	O	1.695537	0.574347	0.579884
Zn15	Zn	1.064255	0.078776	0.105225
Zn16	Zn	1.564255	0.578776	0.605225
Zn17	Zn	1.064281	0.078779	-0.105136
Zn18	Zn	1.564281	0.578779	0.394864
O19	O	1.056341	0.161674	0.079858
O20	O	1.556341	0.661674	0.579858
C21	C	0.899405	0.082805	0.000034
C22	C	1.399405	0.582805	0.500034
C23	C	0.799335	0.081603	0.000029
C24	C	1.299335	0.581603	0.500029
C25	C	0.376216	0.076518	-0.086985
C26	C	0.876216	0.576518	0.413015
C27	C	0.376216	0.076517	0.087084
C28	C	0.876216	0.576517	0.587084
C29	C	0.470238	0.077646	0.087081
C30	C	0.970238	0.577646	0.587081
C31	C	0.517253	0.078212	0.000044
C32	C	1.017253	0.578212	0.500044
C33	C	0.470246	0.077649	-0.086991
C34	C	0.970246	0.577649	0.413009
C35	C	0.517251	0.078214	0.174114
C36	C	1.017251	0.578214	0.674114
C37	C	0.611278	0.079344	0.174114
C38	C	1.111278	0.579344	0.674114
C39	C	0.658296	0.079906	0.087076
C40	C	1.158296	0.579906	0.587076
C41	C	0.611283	0.079343	0.000038
C42	C	1.111283	0.579343	0.500038
C43	C	0.658298	0.079909	-0.087000
C44	C	1.158298	0.579909	0.413000
C45	C	0.611288	0.079341	-0.174039
C46	C	1.111288	0.579341	0.325961
C47	C	0.517263	0.078211	-0.174030
C48	C	1.017263	0.578211	0.325970
C49	C	0.752320	0.081036	0.087066
C50	C	1.252320	0.581036	0.587066
C51	C	0.752328	0.081040	-0.087006
C52	C	1.252328	0.581040	0.412994
C53	C	1.071782	-0.025338	0.000065
C54	C	1.571782	0.474662	0.500065
C55	C	1.070570	-0.088560	0.000073
C56	C	1.570570	0.411440	0.500073
C57	C	1.145339	-0.487337	0.000025
C58	C	1.645339	0.012663	0.500025
C59	C	1.144213	-0.546742	0.000017
C60	C	1.644213	-0.046742	0.500017
O61	O	1.213524	-0.583184	-0.000013
O62	O	1.713524	-0.083184	0.499987
N63	N	1.061461	-0.569729	0.000013
N64	N	1.561461	-0.069729	0.500013
C65	C	0.979830	-0.533308	0.000006
C66	C	1.479830	-0.033308	0.500006
O67	O	0.909340	-0.558315	0.000000
O68	O	1.409340	-0.058315	0.500000
C69	C	0.980957	-0.473904	0.000006
C70	C	1.480957	0.026096	0.500006
C71	C	1.063714	-0.450920	0.000021
C72	C	1.563714	0.049080	0.500021
C73	C	1.228089	-0.464353	0.000038
C74	C	1.728089	0.035647	0.500038
C75	C	1.229215	-0.404952	0.000047
C76	C	1.729215	0.095048	0.500047
C77	C	1.147591	-0.368535	0.000043
C78	C	1.647591	0.131465	0.500043
C79	C	1.064840	-0.391519	0.000030
C80	C	1.564840	0.108481	0.500030
C81	C	0.899327	-0.437483	-0.000008
C82	C	1.399327	0.062517	0.499992
C83	C	0.900462	-0.378076	-0.000008
C84	C	1.400462	0.121924	0.499992
C85	C	0.983219	-0.355092	0.000006
C86	C	1.483219	0.144908	0.500006
C87	C	0.984341	-0.295701	0.000035
C88	C	1.484341	0.204299	0.500035
N89	N	1.067093	-0.272714	0.000039
N90	N	1.567093	0.227286	0.500039
C91	C	1.148718	-0.309131	0.000044
C92	C	1.648718	0.190869	0.500044
C93	C	0.977469	-0.658060	0.000003
C94	C	1.477469	-0.158060	0.500003
C95	C	0.976341	-0.717463	0.000009
C96	C	1.476341	-0.217463	0.500009
C97	C	1.140724	-0.730894	0.000019
C98	C	1.640724	-0.230894	0.500019
C99	C	1.141851	-0.671490	0.000020
C100	C	1.641851	-0.171490	0.500020
C101	C	1.060221	-0.635073	0.000008
C102	C	1.560221	-0.135073	0.500008
C103	C	1.151076	-0.184384	0.000064
C104	C	1.651076	0.315616	0.500064
C105	C	1.152194	-0.124977	0.000077
C106	C	1.652194	0.375023	0.500077
C107	C	0.987812	-0.111552	0.000062
C108	C	1.487812	0.388448	0.500062
C109	C	0.986693	-0.170953	0.000054
C110	C	1.486693	0.329047	0.500054
C111	C	1.068332	-0.207369	0.000051
C112	C	1.568332	0.292631	0.500051
O113	O	0.915066	-0.259224	0.000062
O114	O	1.415066	0.240776	0.500062
O115	O	1.219196	-0.284115	0.000037
O116	O	1.719196	0.215885	0.500037
C117	C	1.229131	0.074750	0.000053
C118	C	1.729131	0.574750	0.500053
C119	C	1.329201	0.075952	0.000053
C120	C	1.829201	0.575952	0.500053
C121	C	1.056754	0.182892	0.000022
C122	C	1.556754	0.682892	0.500022
C123	C	1.057966	0.246115	0.000009
C124	C	1.557966	0.746115	0.500009
N125	N	1.064245	0.078774	0.248792
N126	N	1.564245	0.578774	0.748792
N127	N	1.064299	0.078776	-0.248702
N128	N	1.564299	0.578776	0.251298
C129	C	1.002643	0.117431	0.701049
C130	C	1.502643	0.617431	1.201049
C131	C	1.125944	0.040121	0.701042
C132	C	1.625944	0.540121	1.201042
C133	C	1.125933	0.040120	0.600546
C134	C	1.625933	0.540120	1.100546
C135	C	1.064277	0.078775	0.550297
C136	C	1.564277	0.578775	1.050297
C137	C	1.002632	0.117432	0.600544
C138	C	1.502632	0.617432	1.100544
C139	C	1.187583	0.001467	0.550292
C140	C	1.687583	0.501467	1.050292
C141	C	1.187576	0.001464	0.449790
C142	C	1.687576	0.501464	0.949790
C143	C	1.125915	0.040117	0.399539
C144	C	1.625915	0.540117	0.899539
C145	C	1.064266	0.078775	0.449792
C146	C	1.564266	0.578775	0.949792
C147	C	1.002610	0.117431	0.399543
C148	C	1.502610	0.617431	0.899543
C149	C	0.940957	0.156087	0.449794
C150	C	1.440957	0.656087	0.949794
C151	C	0.940971	0.156085	0.550293
C152	C	1.440971	0.656085	1.050293
C153	C	1.125901	0.040119	0.299041
C154	C	1.625901	0.540119	0.799041
C155	C	1.002599	0.117431	0.299038
C156	C	1.502599	0.617431	0.799038
H157	H	0.790601	0.081499	-0.157884
H158	H	1.290601	0.581499	0.342116
H159	H	1.294562	-0.493998	0.000038
H160	H	1.794562	0.006002	0.500038
H161	H	1.176146	0.008652	0.741958
H162	H	1.676146	0.508652	1.241958
H163	H	1.209239	-0.652781	0.000031
H164	H	1.709239	-0.152781	0.500031
H165	H	0.908952	-0.736171	0.000014
H166	H	1.408952	-0.236171	0.500014
H167	H	1.237786	-0.030002	0.591208
H168	H	1.737786	0.469998	1.091208
H169	H	0.478964	0.077757	0.244975
H170	H	0.978964	0.577757	0.744975
H171	H	0.952443	0.148903	0.741966
H172	H	1.452443	0.648903	1.241966
H173	H	1.237776	-0.030012	0.408882
H174	H	1.737776	0.469988	0.908882
H175	H	0.649579	0.079806	-0.244905
H176	H	1.149579	0.579806	0.255095
H177	H	0.831938	-0.456186	-0.000025
H178	H	1.331938	0.043814	0.499975
H179	H	0.890776	0.187558	0.591214
H180	H	1.390776	0.687558	1.091214
H181	H	0.649546	0.079805	0.244987
H182	H	1.149546	0.579805	0.744987
H183	H	0.337931	0.076059	0.157946
H184	H	0.837931	0.576059	0.657946
H185	H	0.478980	0.077749	-0.244892
H186	H	0.978980	0.577749	0.255108
H187	H	1.176102	0.008648	0.258131
H188	H	1.676102	0.508648	0.758131
H189	H	0.337937	0.076054	-0.157850
H190	H	0.837937	0.576054	0.342150
H191	H	1.207187	-0.760555	0.000019
H192	H	1.707187	-0.260555	0.500019
H193	H	0.910992	-0.628413	0.000001
H194	H	1.410992	-0.128413	0.500001
H195	H	0.833987	-0.348428	-0.000019
H196	H	1.333987	0.151572	0.499981
H197	H	1.219588	-0.106267	0.000091
H198	H	1.719588	0.393733	0.500091
H199	H	1.217555	-0.214027	0.000058
H200	H	1.717555	0.285973	0.500058
H201	H	0.790590	0.081504	0.157932
H202	H	1.290590	0.581504	0.657932
H203	H	1.296604	-0.386244	0.000055
H204	H	1.796604	0.113756	0.500055
H205	H	0.919305	-0.189667	0.000069
H206	H	1.419305	0.310333	0.500069
H207	H	0.921355	-0.081891	0.000062
H208	H	1.421355	0.418109	0.500062
H209	H	0.890760	0.187563	0.408870
H210	H	1.390760	0.687563	0.908870
H211	H	0.952388	0.148907	0.258132
H212	H	1.452388	0.648907	0.758132
