data_functionalizedCrystal
_audit_creation_method	'MofGen! by Chris Wilmer'
_symmetry_space_group_name_H-M	'P1'
_symmetry_Int_Tables_number	1
_symmetry_cell_setting	triclinic
loop_
_symmetry_equiv_pos_as_xyz
  x,y,z
_cell_length_a	10.654541
_cell_length_b	14.044190
_cell_length_c	9.730217
_cell_angle_alpha	89.991715
_cell_angle_beta	89.999932
_cell_angle_gamma	88.837853
loop_
_atom_site_label
_atom_site_type_symbol
_atom_site_fract_x
_atom_site_fract_y
_atom_site_fract_z
O1	O	1.681230	0.133219	-0.114265
O2	O	1.317027	0.145915	-0.114278
O3	O	1.493657	0.001546	-0.114245
O4	O	1.504600	0.277588	-0.114298
O5	O	1.493651	0.001545	0.114335
O6	O	1.317021	0.145914	0.114302
O7	O	1.681224	0.133218	0.114315
Zn8	Zn	1.499122	0.139566	0.150600
Zn9	Zn	1.499130	0.139567	-0.150564
O10	O	1.504594	0.277587	0.114282
C11	C	1.270133	0.144983	0.000010
C12	C	1.130409	0.142195	0.000006
C13	C	1.488867	-0.033800	0.000049
C14	C	1.474588	-0.139120	0.000061
C15	C	1.119792	0.314827	-0.000044
C16	C	1.048842	0.399829	-0.000075
C17	C	0.917560	0.397205	-0.000076
C18	C	0.857225	0.309568	-0.000042
C19	C	0.928175	0.224565	-0.000011
C20	C	1.059459	0.227200	-0.000015
C21	C	0.938792	0.051935	0.000049
C22	C	1.070074	0.054558	0.000040
C23	C	0.878457	-0.035701	0.000083
C24	C	0.949407	-0.120706	0.000104
C25	C	1.080697	-0.118077	0.000103
C26	C	1.141024	-0.030444	0.000071
C27	C	1.549754	-0.388913	0.000010
C28	C	1.448503	-0.331949	0.000015
C29	C	1.463021	-0.224649	0.000041
C30	C	1.535239	-0.496222	-0.000016
C31	C	1.728119	0.134150	0.000024
C32	C	1.867843	0.136938	0.000019
C33	C	1.509384	0.312933	-0.000015
C34	C	1.523663	0.418253	-0.000036
N35	N	1.499125	0.139564	0.356137
N36	N	1.499135	0.139562	-0.356100
C37	C	1.655605	0.011763	0.356157
C38	C	1.733853	-0.052135	0.428108
C39	C	1.733866	-0.052135	0.571987
C40	C	1.655619	0.011767	0.643920
C41	C	1.577371	0.075665	0.571970
C42	C	1.577369	0.075660	0.428087
C43	C	1.420887	0.203459	0.571950
C44	C	1.420879	0.203466	0.428070
C45	C	1.342640	0.267361	0.643883
C46	C	1.264396	0.331265	0.571933
C47	C	1.264388	0.331264	0.428044
C48	C	1.342630	0.267364	0.356120
H49	H	1.226688	0.316973	-0.000074
H50	H	1.342648	0.267354	0.761037
H51	H	1.097981	0.471182	-0.000099
H52	H	1.647332	-0.357098	0.000027
H53	H	1.200687	0.383286	0.630509
H54	H	1.200663	0.383293	0.369470
H55	H	1.655614	0.011765	0.239003
H56	H	0.859793	0.466421	-0.000091
H57	H	1.342635	0.267360	0.238965
H58	H	0.750328	0.307438	-0.000026
H59	H	1.350917	-0.363765	0.000004
H60	H	1.247920	-0.028295	0.000054
H61	H	0.771560	-0.037833	0.000090
H62	H	1.797578	-0.104169	0.630569
H63	H	0.900272	-0.192053	0.000131
H64	H	1.138457	-0.187297	0.000134
H65	H	1.797559	-0.104165	0.369527
H66	H	1.655623	0.011755	0.761075
