data_functionalizedCrystal
_audit_creation_method	'MofGen! by Chris Wilmer'
_symmetry_space_group_name_H-M	'P1'
_symmetry_Int_Tables_number	1
_symmetry_cell_setting	triclinic
loop_
_symmetry_equiv_pos_as_xyz
  x,y,z
_cell_length_a	18.215407
_cell_length_b	14.908520
_cell_length_c	18.215399
_cell_angle_alpha	86.730636
_cell_angle_beta	90.019833
_cell_angle_gamma	93.321174
loop_
_atom_site_label
_atom_site_type_symbol
_atom_site_fract_x
_atom_site_fract_y
_atom_site_fract_z
Zn1	Zn	1.108178	-0.359158	0.433017
Zn2	Zn	1.100989	-0.510027	0.317051
Zn3	Zn	0.985109	-0.359188	0.309966
Zn4	Zn	0.977982	-0.509977	0.440073
O5	O	1.043064	-0.434588	0.375027
O6	O	1.210208	-0.379180	0.417646
O7	O	1.085592	-0.490052	0.213128
O8	O	1.007425	-0.232939	0.320371
O9	O	1.204927	-0.490023	0.332446
O10	O	1.097843	-0.232917	0.410776
O11	O	1.000455	-0.379230	0.207923
O12	O	0.881180	-0.379182	0.327213
O13	O	0.995278	-0.489937	0.542120
O14	O	0.875943	-0.489966	0.422802
O15	O	1.090932	-0.379131	0.536936
O16	O	1.078681	-0.636266	0.339288
O17	O	0.988308	-0.636229	0.429672
C18	C	0.851859	-0.434572	0.375005
C19	C	0.770059	-0.434587	0.375014
C20	C	1.031961	-0.668981	0.386030
C21	C	1.027278	-0.769256	0.390762
C22	C	0.579154	-0.492363	0.424733
C23	C	0.502295	-0.492366	0.424742
C24	C	0.507726	-0.376828	0.325338
C25	C	0.584584	-0.376822	0.325333
C26	C	0.620295	-0.434594	0.375029
C27	C	0.466579	-0.434604	0.375044
C28	C	0.383245	-0.434606	0.375053
C29	C	0.703635	-0.434591	0.375021
C30	C	1.112681	-0.957660	0.305613
C31	C	1.108284	-1.051877	0.310057
C32	C	1.014091	-1.051908	0.404097
C33	C	1.018488	-0.957691	0.399653
C34	C	1.067784	-0.910570	0.350409
C35	C	1.072177	-0.816352	0.345962
C36	C	0.977988	-0.816385	0.440005
C37	C	0.973591	-0.910602	0.444449
C38	C	1.235017	-0.434604	0.375049
C39	C	1.316815	-0.434611	0.375059
C40	C	1.043112	-0.434526	0.566977
C41	C	1.043133	-0.434499	0.648775
C42	C	1.054231	-0.199279	0.363996
C43	C	1.058990	-0.099004	0.359296
C44	C	1.043062	-0.434585	0.183820
C45	C	1.043196	-0.434357	0.102011
C46	C	1.092959	-0.376748	0.834268
C47	C	1.092969	-0.376722	0.911126
C48	C	0.993364	-0.492110	0.916513
C49	C	0.993351	-0.492131	0.839656
C50	C	1.043153	-0.434452	0.798536
C51	C	1.043176	-0.434404	0.952250
C52	C	1.043186	-0.434376	1.035582
C53	C	1.043142	-0.434478	0.715198
H54	H	0.468801	-0.539406	0.465216
H55	H	0.478640	-0.329793	0.284876
O56	O	1.151801	-1.097735	0.266533
C57	C	1.107405	-1.152320	0.221520
H58	H	1.050944	-1.166462	0.248065
H59	H	1.101072	-1.116086	0.165249
C60	C	1.213079	-1.224422	0.179899
C61	C	1.143735	-1.241797	0.212506
H62	H	1.235490	-1.279614	0.174336
H63	H	1.242990	-1.187645	0.210224
H64	H	1.207792	-1.194225	0.133011
H65	H	1.149024	-1.271983	0.259397
H66	H	1.113826	-1.278582	0.182189
H67	H	0.608228	-0.539403	0.465200
O68	O	0.966226	-1.097829	0.451866
C69	C	0.971992	-1.191084	0.446195
H70	H	0.995532	-1.203964	0.390033
H71	H	1.009912	-1.217741	0.491144
C72	C	0.866357	-1.223722	0.524129
C73	C	0.895263	-1.239543	0.455147
H74	H	0.819027	-1.253615	0.529654
H75	H	0.862473	-1.160895	0.527953
H76	H	0.897964	-1.245936	0.561578
H77	H	0.863661	-1.217318	0.417699
H78	H	0.899139	-1.302368	0.451317
H79	H	0.618083	-0.329773	0.284858
H80	H	1.112315	-0.777987	0.305863
O81	O	1.160622	-0.912021	0.257758
C82	C	1.199289	-0.973788	0.219153
H83	H	1.198692	-1.040923	0.252465
H84	H	1.171895	-0.983882	0.163714
C85	C	1.280071	-0.854478	0.165957
C86	C	1.279343	-0.936932	0.206875
H87	H	1.329451	-0.831743	0.158380
H88	H	1.254019	-0.812863	0.191964
H89	H	1.257239	-0.862901	0.119763
H90	H	1.302166	-0.928506	0.253072
H91	H	1.305401	-0.978545	0.180876
O92	O	0.925804	-0.956479	0.492321
C93	C	0.965132	-1.010878	0.542475
H94	H	1.020266	-1.024949	0.517242
H95	H	0.974875	-0.974517	0.595307
C96	C	0.852739	-1.083127	0.590972
C97	C	0.920452	-1.100416	0.559978
H98	H	0.825178	-1.138357	0.601771
H99	H	0.826242	-1.046476	0.557184
H100	H	0.860868	-1.052824	0.634994
H101	H	0.912322	-1.130708	0.515952
H102	H	0.946947	-1.137075	0.593759
O103	O	0.934401	-0.770743	0.483629
C104	C	0.949375	-0.793671	0.558077
H105	H	0.974479	-0.862043	0.562859
H106	H	0.989667	-0.740579	0.580400
C107	C	0.846560	-0.714100	0.596913
C108	C	0.877388	-0.798080	0.602787
H109	H	0.802156	-0.716816	0.624494
H110	H	0.836473	-0.698650	0.546756
H111	H	0.880144	-0.669866	0.615514
H112	H	0.843808	-0.842310	0.584178
H113	H	0.887468	-0.813538	0.652942
H114	H	1.133509	-0.329780	0.800790
O115	O	1.141423	-0.320642	0.945720
C116	C	1.185360	-0.269724	0.892942
H117	H	1.186146	-0.306695	0.839889
H118	H	1.161660	-0.201208	0.881550
C119	C	1.263341	-0.211310	0.987504
C120	C	1.264312	-0.256722	0.922346
H121	H	1.312042	-0.203285	1.005642
H122	H	1.233739	-0.245611	1.023063
H123	H	1.243588	-0.154218	0.978002
H124	H	1.284056	-0.313817	0.931850
H125	H	1.293919	-0.222429	0.886789
O126	O	0.945064	-0.548112	0.956571
C127	C	0.955743	-0.535707	1.032068
H128	H	1.013940	-0.506161	1.041192
H129	H	0.914373	-0.487657	1.051620
C130	C	0.873197	-0.663266	1.064595
C131	C	0.944678	-0.626984	1.075802
H132	H	0.866368	-0.719568	1.091573
H133	H	0.866000	-0.671622	1.013731
H134	H	0.838730	-0.623215	1.080888
H135	H	0.979142	-0.667029	1.059500
H136	H	0.951880	-0.618636	1.126664
O137	O	0.944940	-0.548275	0.805059
C138	C	0.900980	-0.599170	0.857831
H139	H	0.930982	-0.602283	0.912770
H140	H	0.846655	-0.566129	0.864446
C141	C	0.848966	-0.691368	0.764849
C142	C	0.885818	-0.695198	0.832325
H143	H	0.839610	-0.750601	0.749116
H144	H	0.878581	-0.657077	0.729295
H145	H	0.803699	-0.663830	0.770371
H146	H	0.931087	-0.722725	0.826801
H147	H	0.856210	-0.729496	0.867878
