data_functionalizedCrystal
_audit_creation_method	'MofGen! by Chris Wilmer'
_symmetry_space_group_name_H-M	'P1'
_symmetry_Int_Tables_number	1
_symmetry_cell_setting	triclinic
loop_
_symmetry_equiv_pos_as_xyz
  x,y,z
_cell_length_a	12.759401
_cell_length_b	12.759399
_cell_length_c	12.759393
_cell_angle_alpha	90.028363
_cell_angle_beta	89.980316
_cell_angle_gamma	89.985354
loop_
_atom_site_label
_atom_site_type_symbol
_atom_site_fract_x
_atom_site_fract_y
_atom_site_fract_z
Zn1	Zn	1.606249	0.418229	-0.594038
Zn2	Zn	1.606141	0.593948	-0.418368
Zn3	Zn	1.430551	0.418281	-0.418374
Zn4	Zn	1.430537	0.593864	-0.594006
O5	O	1.518370	0.506081	-0.506196
O6	O	1.753256	0.441552	-0.570746
O7	O	1.582809	0.570702	-0.271348
O8	O	1.453909	0.271253	-0.441692
O9	O	1.753176	0.570652	-0.441682
O10	O	1.582994	0.271215	-0.570752
O11	O	1.453804	0.441640	-0.271352
O12	O	1.283528	0.441559	-0.441661
O13	O	1.453885	0.570509	-0.741031
O14	O	1.283518	0.570559	-0.570697
O15	O	1.582980	0.441471	-0.741055
O16	O	1.582796	0.740958	-0.441651
O17	O	1.453781	0.740896	-0.570691
C18	C	1.245402	0.506056	-0.506176
C19	C	1.128626	0.506071	-0.506193
C20	C	1.073738	0.438812	-0.439127
C21	C	0.964014	0.438837	-0.439141
C22	C	0.964075	0.573383	-0.573294
C23	C	1.073797	0.573362	-0.573275
C24	C	1.128567	0.371521	-0.372045
C25	C	1.073679	0.304256	-0.304975
C26	C	0.963955	0.304281	-0.304989
C27	C	0.909119	0.371571	-0.372072
C28	C	1.518303	0.779048	-0.506190
C29	C	1.518371	0.895824	-0.506222
C30	C	1.585623	0.950684	-0.439108
C31	C	1.585686	1.060408	-0.439147
C32	C	1.451236	1.060404	-0.573416
C33	C	1.451179	0.950682	-0.573382
C34	C	1.652815	0.895827	-0.371948
C35	C	1.720072	0.950686	-0.304828
C36	C	1.720135	1.060410	-0.304866
C37	C	1.652941	1.115275	-0.372025
C38	C	1.792403	0.506106	-0.506217
C39	C	1.909180	0.506116	-0.506226
C40	C	1.518443	0.505975	-0.780230
C41	C	1.518475	0.505929	-0.897007
C42	C	1.518461	1.232047	-0.506240
C43	C	1.518491	1.115271	-0.506295
C44	C	1.585704	0.438733	-0.951883
C45	C	1.585729	0.438695	-1.061607
C46	C	1.451293	0.573059	-1.061569
C47	C	1.451263	0.573091	-0.951847
C48	C	1.652915	0.371571	-0.897042
C49	C	1.720150	0.304370	-0.951918
C50	C	1.720175	0.304332	-1.061643
C51	C	1.652965	0.371495	-1.116491
C52	C	1.518357	0.506110	-0.233229
C53	C	1.518529	0.505859	-0.116453
H54	H	0.919269	0.249517	-0.250370
H55	H	1.652979	0.371447	-1.205835
H56	H	1.217910	0.371491	-0.372030
H57	H	0.819774	0.371591	-0.372073
N58	N	1.792679	1.119583	-0.232486
H59	H	1.835233	1.068179	-0.189939
H60	H	1.749962	1.165183	-0.183846
H61	H	1.652769	0.806484	-0.371906
H62	H	1.652904	0.371597	-0.807699
H63	H	0.919418	0.628165	-0.627912
H64	H	1.396573	0.627740	-1.106235
N65	N	1.378753	0.645564	-0.892650
H66	H	1.336185	0.688112	-0.944038
H67	H	1.421491	0.694200	-0.847118
N68	N	1.132828	0.231685	-0.232630
H69	H	1.113741	0.156644	-0.249079
H70	H	1.113679	0.248003	-0.157565
N71	N	1.792648	0.231943	-0.892769
H72	H	1.782440	0.242169	-0.814933
H73	H	1.867674	0.248316	-0.911965
N74	N	1.378760	1.119583	-0.645832
H75	H	1.303693	1.100557	-0.629441
H76	H	1.395112	1.100398	-0.720881
H77	H	1.653006	1.204620	-0.372059
H78	H	1.118488	0.628129	-0.627887
H79	H	1.774785	0.906010	-0.250155
N80	N	1.378650	0.891502	-0.645772
H81	H	1.336088	0.942901	-0.688317
H82	H	1.330029	0.846047	-0.602951
N83	N	1.792670	0.231838	-1.120834
H84	H	1.835236	0.189296	-1.069440
H85	H	1.841287	0.274587	-1.166362
