data_functionalizedCrystal
_audit_creation_method	'MofGen! by Chris Wilmer'
_symmetry_space_group_name_H-M	'P1'
_symmetry_Int_Tables_number	1
_symmetry_cell_setting	triclinic
loop_
_symmetry_equiv_pos_as_xyz
  x,y,z
_cell_length_a	13.897449
_cell_length_b	21.295417
_cell_length_c	13.897441
_cell_angle_alpha	89.965596
_cell_angle_beta	89.981404
_cell_angle_gamma	90.030982
loop_
_atom_site_label
_atom_site_type_symbol
_atom_site_fract_x
_atom_site_fract_y
_atom_site_fract_z
Zn1	Zn	1.474602	-0.250574	-0.545349
Zn2	Zn	1.474468	-0.355851	-0.384037
Zn3	Zn	1.313297	-0.250602	-0.384068
Zn4	Zn	1.313239	-0.355811	-0.545290
O5	O	1.393901	-0.303209	-0.464686
O6	O	1.609566	-0.264544	-0.523963
O7	O	1.453057	-0.341918	-0.249059
O8	O	1.334775	-0.162509	-0.405499
O9	O	1.609467	-0.341890	-0.405448
O10	O	1.453285	-0.162488	-0.523992
O11	O	1.334645	-0.264592	-0.249082
O12	O	1.178308	-0.264553	-0.405442
O13	O	1.334676	-0.341823	-0.680279
O14	O	1.178265	-0.341850	-0.523891
O15	O	1.453228	-0.264505	-0.680323
O16	O	1.453000	-0.443935	-0.405390
O17	O	1.334546	-0.443906	-0.523862
C18	C	1.143287	-0.303201	-0.464664
C19	C	1.036073	-0.303213	-0.464677
C20	C	1.393778	-0.466761	-0.464637
C21	C	1.393814	-0.536729	-0.464648
C22	C	0.839778	-0.303215	-0.464703
C23	C	0.949010	-0.303212	-0.464686
C24	C	1.455487	-0.569528	-0.526392
C25	C	1.455521	-0.635270	-0.526416
C26	C	1.393892	-0.668212	-0.464679
C27	C	1.332207	-0.635405	-0.402931
C28	C	1.332168	-0.569664	-0.402916
N29	N	1.386606	-0.771477	-0.380261
N30	N	1.386649	-0.833929	-0.380279
C31	C	1.394005	-0.866286	-0.464722
N32	N	1.401335	-0.833833	-0.549150
N33	N	1.401297	-0.771376	-0.549132
C34	C	1.393927	-0.739497	-0.464689
C35	C	1.455718	-0.970371	-0.526497
C36	C	1.455745	-1.036114	-0.526522
C37	C	1.332437	-1.036248	-0.403029
C38	C	1.332405	-0.970505	-0.403012
C39	C	1.394050	-0.937571	-0.464745
C40	C	1.645494	-0.303218	-0.464708
C41	C	1.752708	-0.303222	-0.464718
C42	C	1.393960	-0.303157	-0.716279
C43	C	1.393986	-0.303134	-0.823493
C44	C	1.394051	-0.139019	-0.464756
C45	C	1.394115	-0.069051	-0.464786
C46	C	1.394005	-0.303116	-0.910563
C47	C	1.394033	-0.303088	-1.019795
C48	C	1.393898	-0.303217	-0.214072
C49	C	1.394060	-0.303062	-0.106858
H50	H	1.505680	-0.542714	-0.576660
Br51	Br	1.539437	-1.080628	-0.610340
Br52	Br	1.539230	-0.679793	-0.610211
H53	H	1.282252	-1.063068	-0.352768
H54	H	1.282027	-0.662230	-0.352667
Br55	Br	1.248460	-0.525148	-0.319118
Br56	Br	1.539375	-0.925670	-0.610276
Br57	Br	1.248698	-0.925989	-0.319215
