data_functionalizedCrystal
_audit_creation_method	'MofGen! by Chris Wilmer'
_symmetry_space_group_name_H-M	'P1'
_symmetry_Int_Tables_number	1
_symmetry_cell_setting	triclinic
loop_
_symmetry_equiv_pos_as_xyz
  x,y,z
_cell_length_a	14.519709
_cell_length_b	15.944493
_cell_length_c	13.596369
_cell_angle_alpha	89.999885
_cell_angle_beta	90.000291
_cell_angle_gamma	83.577594
loop_
_atom_site_label
_atom_site_type_symbol
_atom_site_fract_x
_atom_site_fract_y
_atom_site_fract_z
O1	O	1.223651	0.110112	-0.081650
O2	O	1.473651	0.360112	0.168350
O3	O	1.723651	0.610112	0.418350
O4	O	1.973651	0.860112	0.668350
O5	O	0.955148	0.123079	-0.081679
O6	O	1.205148	0.373079	0.168321
O7	O	1.455148	0.623079	0.418321
O8	O	1.705148	0.873079	0.668321
O9	O	1.096759	-0.005672	-0.081672
O10	O	1.346759	0.244328	0.168328
O11	O	1.596759	0.494328	0.418328
O12	O	1.846759	0.744328	0.668328
O13	O	1.082039	0.238863	-0.081657
O14	O	1.332039	0.488863	0.168343
O15	O	1.582039	0.738863	0.418343
O16	O	1.832039	0.988863	0.668343
O17	O	1.096745	-0.005679	0.081911
O18	O	1.346745	0.244321	0.331911
O19	O	1.596745	0.494321	0.581911
O20	O	1.846745	0.744321	0.831911
O21	O	0.955134	0.123072	0.081904
O22	O	1.205134	0.373072	0.331904
O23	O	1.455134	0.623072	0.581904
O24	O	1.705134	0.873072	0.831904
O25	O	1.223637	0.110105	0.081933
O26	O	1.473637	0.360105	0.331933
O27	O	1.723637	0.610105	0.581933
O28	O	1.973637	0.860105	0.831933
Zn29	Zn	1.089383	0.116587	0.107891
Zn30	Zn	1.339383	0.366587	0.357891
Zn31	Zn	1.589383	0.616587	0.607891
Zn32	Zn	1.839383	0.866587	0.857891
Zn33	Zn	1.089402	0.116596	-0.107637
Zn34	Zn	1.339402	0.366596	0.142363
Zn35	Zn	1.589402	0.616596	0.392363
Zn36	Zn	1.839402	0.866596	0.642363
O37	O	1.082025	0.238856	0.081926
O38	O	1.332025	0.488856	0.331926
O39	O	1.582025	0.738856	0.581926
O40	O	1.832025	0.988856	0.831926
C41	C	0.920783	0.122471	0.000109
C42	C	1.170783	0.372471	0.250109
C43	C	1.420783	0.622471	0.500109
C44	C	1.670783	0.872471	0.750109
C45	C	0.818405	0.120660	0.000097
C46	C	1.068405	0.370660	0.250097
C47	C	1.318405	0.620660	0.500097
C48	C	1.568405	0.870660	0.750097
C49	C	0.443522	0.113994	0.000142
C50	C	0.693522	0.363994	0.250142
C51	C	0.943522	0.613994	0.500142
C52	C	1.193522	0.863994	0.750142
C53	C	0.547826	0.115845	0.000129
C54	C	0.797826	0.365845	0.250129
C55	C	1.047826	0.615845	0.500129
C56	C	1.297826	0.865845	0.750129
C57	C	0.630960	0.117327	0.000119
C58	C	0.880960	0.367327	0.250119
C59	C	1.130960	0.617327	0.500119
C60	C	1.380960	0.867327	0.750119
C61	C	0.735271	0.119178	0.000108
C62	C	0.985271	0.369178	0.250108
C63	C	1.235271	0.619178	0.500108
C64	C	1.485271	0.869178	0.750108
C65	C	1.096151	-0.036971	0.000115
C66	C	1.346151	0.213029	0.250115
C67	C	1.596151	0.463029	0.500115
C68	C	1.846151	0.713029	0.750115
C69	C	1.094347	-0.130222	0.000103
C70	C	1.344347	0.119778	0.250103
C71	C	1.594347	0.369778	0.500103
C72	C	1.844347	0.619778	0.750103
C73	C	1.177703	-0.365861	0.000130
C74	C	1.427703	-0.115861	0.250130
C75	C	1.677703	0.134139	0.500130
C76	C	1.927703	0.384139	0.750130
C77	C	1.132759	-0.416491	-0.080529
C78	C	1.382759	-0.166491	0.169471
C79	C	1.632759	0.083509	0.419471
C80	C	1.882759	0.333509	0.669471
C81	C	1.091005	-0.300948	0.000114
C82	C	1.341005	-0.050948	0.250114
C83	C	1.591005	0.199052	0.500114
C84	C	1.841005	0.449052	0.750114
C85	C	1.132725	-0.416474	0.080751
C86	C	1.382725	-0.166474	0.330751
C87	C	1.632725	0.083526	0.580751
C88	C	1.882725	0.333526	0.830751
C89	C	1.087783	-0.465863	0.000130
C90	C	1.337783	-0.215863	0.250130
C91	C	1.587783	0.034137	0.500130
C92	C	1.837783	0.284137	0.750130
C93	C	1.046085	-0.350350	-0.080611
C94	C	1.296085	-0.100350	0.169389
C95	C	1.546085	0.149650	0.419389
C96	C	1.796085	0.399650	0.669389
C97	C	1.046063	-0.350329	0.080741
C98	C	1.296063	-0.100329	0.330741
C99	C	1.546063	0.149671	0.580741
C100	C	1.796063	0.399671	0.830741
C101	C	1.001056	-0.400926	0.000062
C102	C	1.251056	-0.150926	0.250062
C103	C	1.501056	0.099074	0.500062
C104	C	1.751056	0.349074	0.750062
C105	C	1.092863	-0.205946	0.000105
C106	C	1.342863	0.044054	0.250105
C107	C	1.592863	0.294054	0.500105
C108	C	1.842863	0.544054	0.750105
C109	C	1.085918	-0.560862	0.000133
C110	C	1.335918	-0.310862	0.250133
C111	C	1.585918	-0.060862	0.500133
C112	C	1.835918	0.189138	0.750133
C113	C	1.258002	0.110713	0.000143
C114	C	1.508002	0.360713	0.250143
C115	C	1.758002	0.610713	0.500143
C116	C	2.008002	0.860713	0.750143
C117	C	1.360380	0.112524	0.000148
C118	C	1.610380	0.362524	0.250148
C119	C	1.860380	0.612524	0.500148
C120	C	2.110380	0.862524	0.750148
C121	C	1.082634	0.270155	0.000137
C122	C	1.332634	0.520155	0.250137
C123	C	1.582634	0.770155	0.500137
C124	C	1.832634	1.020155	0.750137
C125	C	1.084438	0.363406	0.000143
C126	C	1.334438	0.613406	0.250143
C127	C	1.584438	0.863406	0.500143
C128	C	1.834438	1.113406	0.750143
N129	N	1.089377	0.116581	0.254983
N130	N	1.339377	0.366581	0.504983
N131	N	1.589377	0.616581	0.754983
N132	N	1.839377	0.866581	1.004983
N133	N	1.089415	0.116596	-0.254729
N134	N	1.339415	0.366596	-0.004729
N135	N	1.589415	0.616596	0.245271
N136	N	1.839415	0.866596	0.495271
C137	C	1.089400	0.116597	0.656274
C138	C	1.339400	0.366597	0.906274
C139	C	1.589400	0.616597	1.156274
C140	C	1.839400	0.866597	1.406274
C141	C	1.089391	0.116596	0.544622
C142	C	1.339391	0.366596	0.794622
C143	C	1.589391	0.616596	1.044622
C144	C	1.839391	0.866596	1.294622
C145	C	1.089389	0.116590	0.455632
C146	C	1.339389	0.366590	0.705632
C147	C	1.589389	0.616590	0.955632
C148	C	1.839389	0.866590	1.205632
C149	C	1.089379	0.116587	0.343973
C150	C	1.339379	0.366587	0.593973
C151	C	1.589379	0.616587	0.843973
C152	C	1.839379	0.866587	1.093973
H153	H	1.169379	-0.445381	-0.148713
H154	H	1.419379	-0.195381	0.101287
H155	H	1.669379	0.054619	0.351287
H156	H	1.919379	0.304619	0.601287
O157	O	0.997631	-0.312255	-0.171046
O158	O	1.247631	-0.062255	0.078954
O159	O	1.497631	0.187745	0.328954
O160	O	1.747631	0.437745	0.578954
H161	H	0.999406	-0.242844	-0.170362
H162	H	1.249406	0.007156	0.079638
H163	H	1.499406	0.257156	0.329638
H164	H	1.749406	0.507156	0.579638
H165	H	1.252382	-0.350125	0.000057
H166	H	1.502382	-0.100125	0.250057
H167	H	1.752382	0.149875	0.500057
H168	H	2.002382	0.399875	0.750057
O169	O	0.902053	-0.421541	0.000020
O170	O	1.152053	-0.171541	0.250020
O171	O	1.402053	0.078459	0.500020
O172	O	1.652053	0.328459	0.750020
H173	H	0.866292	-0.394802	-0.066991
H174	H	1.116292	-0.144802	0.183009
H175	H	1.366292	0.105198	0.433009
H176	H	1.616292	0.355198	0.683009
O177	O	1.181230	-0.454709	0.171087
O178	O	1.431230	-0.204709	0.421087
O179	O	1.681230	0.045291	0.671087
O180	O	1.931230	0.295291	0.921087
H181	H	1.131683	-0.487162	0.215425
H182	H	1.381683	-0.237162	0.465425
H183	H	1.631683	0.012838	0.715425
H184	H	1.881683	0.262838	0.965425
H185	H	1.009475	-0.321425	0.148928
H186	H	1.259475	-0.071425	0.398928
H187	H	1.509475	0.178575	0.648928
H188	H	1.759475	0.428575	0.898928
