data_functionalizedCrystal
_audit_creation_method	'MofGen! by Chris Wilmer'
_symmetry_space_group_name_H-M	'P1'
_symmetry_Int_Tables_number	1
_symmetry_cell_setting	triclinic
loop_
_symmetry_equiv_pos_as_xyz
  x,y,z
_cell_length_a	15.944499
_cell_length_b	15.944551
_cell_length_c	14.421503
_cell_angle_alpha	89.996660
_cell_angle_beta	89.989779
_cell_angle_gamma	96.511826
loop_
_atom_site_label
_atom_site_type_symbol
_atom_site_fract_x
_atom_site_fract_y
_atom_site_fract_z
O1	O	1.114556	-0.108114	-0.077169
O2	O	0.870001	-0.121515	-0.077159
O3	O	0.998957	0.007462	-0.077156
O4	O	0.985600	-0.237090	-0.077172
O5	O	0.998935	0.007442	0.077067
O6	O	0.869979	-0.121534	0.077064
O7	O	1.114535	-0.108133	0.077054
Cu8	Cu	0.992255	-0.114835	0.091141
Cu9	Cu	0.992281	-0.114813	-0.091246
O10	O	0.985579	-0.237110	0.077051
C11	C	0.838695	-0.120976	-0.000046
C12	C	0.745447	-0.119331	-0.000042
C13	C	0.453911	-0.194263	-0.000061
C14	C	0.514951	-0.155302	-0.076100
C15	C	0.409810	-0.113355	-0.000063
C16	C	0.514916	-0.155299	0.075952
C17	C	0.574719	-0.116296	-0.000051
C18	C	0.469622	-0.074371	-0.076165
C19	C	0.469581	-0.074380	0.075955
C20	C	0.530603	-0.035360	-0.000102
C21	C	0.314810	-0.111663	-0.000071
C22	C	0.669718	-0.117981	-0.000050
C23	C	0.998392	0.038746	-0.000044
C24	C	0.996729	0.131992	-0.000044
C25	C	1.145840	-0.108672	-0.000061
C26	C	1.239089	-0.110317	-0.000071
C27	C	0.986144	-0.268394	-0.000063
C28	C	0.987806	-0.361640	-0.000069
N29	N	0.992244	-0.114851	0.219422
C30	C	0.912823	0.346833	-0.000053
C31	C	0.951776	0.407848	0.075987
C32	C	0.993722	0.302717	-0.000051
C33	C	0.951816	0.407850	-0.076065
C34	C	0.990811	0.467629	-0.000061
C35	C	1.032697	0.362504	0.076052
C36	C	1.032726	0.362500	-0.076069
C37	C	1.071737	0.423497	-0.000010
C38	C	0.995397	0.207715	-0.000044
C39	C	0.989143	0.562630	-0.000062
N40	N	0.992299	-0.114791	-0.219527
C41	C	0.932604	-0.174463	0.469075
C42	C	1.008506	-0.190756	0.530873
C43	C	0.992264	-0.114831	0.408584
C44	C	0.916382	-0.098557	0.530879
C45	C	0.992277	-0.114813	0.591305
C46	C	1.068204	-0.131162	0.469021
C47	C	0.976030	-0.038930	0.469022
C48	C	1.051987	-0.055191	0.530793
C49	C	0.992255	-0.114843	0.303323
C50	C	0.992294	-0.114800	0.696564
H51	H	0.534982	-0.189542	0.140235
C52	C	0.822115	0.301813	0.000051
H53	H	0.793499	0.317224	0.054149
H54	H	0.793094	0.317986	-0.053418
H55	H	0.823795	0.242448	-0.000495
C56	C	0.829688	-0.079963	0.567587
H57	H	0.836360	-0.029893	0.603823
H58	H	0.793247	-0.072704	0.516822
H59	H	0.805979	-0.125826	0.604777
H60	H	1.138946	0.456668	0.000030
H61	H	0.420581	-0.261409	-0.000139
C62	C	0.542121	-0.201517	-0.162944
H63	H	0.579812	-0.164076	-0.198743
H64	H	0.569559	-0.248733	-0.144666
H65	H	0.493745	-0.220244	-0.199007
C66	C	0.905543	0.434999	0.162832
H67	H	0.849091	0.408488	0.162743
H68	H	0.933730	0.418715	0.216828
H69	H	0.905269	0.494548	0.162488
H70	H	1.132396	-0.144995	0.441964
C71	C	1.078863	0.335502	0.162996
H72	H	1.079607	0.276009	0.162487
H73	H	1.135144	0.362442	0.163218
H74	H	1.050302	0.351385	0.216928
H75	H	1.022248	-0.254936	0.558040
C76	C	0.957437	0.047741	0.432280
H77	H	1.003757	0.071910	0.396028
H78	H	0.907951	0.040915	0.395116
H79	H	0.949141	0.083875	0.483035
C80	C	1.078920	0.335315	-0.162918
H81	H	1.050102	0.350659	-0.216896
H82	H	1.135056	0.362620	-0.163467
H83	H	1.080080	0.275882	-0.161982
C84	C	0.442651	-0.028177	-0.163109
H85	H	0.383159	-0.027423	-0.162600
H86	H	0.469601	0.028100	-0.163330
H87	H	0.458541	-0.056728	-0.217041
H88	H	0.917597	0.427929	-0.140355
C89	C	1.120221	0.012945	0.567183
H90	H	1.174072	0.001250	0.545887
H91	H	1.109143	0.066718	0.545069
H92	H	1.119554	0.012886	0.633053
C93	C	0.864522	-0.242638	0.432452
H94	H	0.876204	-0.296527	0.453631
H95	H	0.810719	-0.231615	0.454539
H96	H	0.864656	-0.241840	0.366584
H97	H	0.563780	0.031846	-0.000138
H98	H	0.449455	-0.040195	0.140247
