data_functionalizedCrystal
_audit_creation_method	'MofGen! by Chris Wilmer'
_symmetry_space_group_name_H-M	'P1'
_symmetry_Int_Tables_number	1
_symmetry_cell_setting	triclinic
loop_
_symmetry_equiv_pos_as_xyz
  x,y,z
_cell_length_a	21.395364
_cell_length_b	12.759394
_cell_length_c	21.395355
_cell_angle_alpha	89.985423
_cell_angle_beta	89.975448
_cell_angle_gamma	90.029788
loop_
_atom_site_label
_atom_site_type_symbol
_atom_site_fract_x
_atom_site_fract_y
_atom_site_fract_z
Zn1	Zn	0.957928	-0.417969	-0.354279
Zn2	Zn	0.957860	-0.593634	-0.249508
Zn3	Zn	0.853143	-0.418015	-0.249515
Zn4	Zn	0.853141	-0.593652	-0.354249
O5	O	0.905518	-0.505818	-0.301888
O6	O	1.045597	-0.441244	-0.340390
O7	O	0.943941	-0.570349	-0.161831
O8	O	0.867073	-0.270988	-0.263428
O9	O	1.045547	-0.570304	-0.263416
O10	O	0.944058	-0.270954	-0.340397
O11	O	0.867006	-0.441323	-0.161837
O12	O	0.765465	-0.441341	-0.263399
O13	O	0.867070	-0.570336	-0.441930
O14	O	0.765464	-0.570381	-0.340346
O15	O	0.944056	-0.441262	-0.441953
O16	O	0.943939	-0.740657	-0.263387
O17	O	0.867003	-0.740671	-0.340339
C18	C	0.742731	-0.505869	-0.301870
C19	C	0.673089	-0.505916	-0.301877
C20	C	0.640425	-0.438824	-0.342020
C21	C	0.574989	-0.438796	-0.342022
C22	C	0.542221	-0.505879	-0.301889
C23	C	0.574893	-0.572975	-0.261739
C24	C	0.640328	-0.572994	-0.261733
C25	C	0.438512	-0.600493	-0.296855
C26	C	0.373079	-0.600477	-0.296865
C27	C	0.340400	-0.505821	-0.301903
C28	C	0.373162	-0.411179	-0.306943
C29	C	0.438596	-0.411198	-0.306938
C30	C	0.471269	-0.505866	-0.301890
C31	C	0.236783	-0.438693	-0.342050
C32	C	0.171347	-0.438664	-0.342048
C33	C	0.171252	-0.572852	-0.261768
C34	C	0.236687	-0.572872	-0.261766
C35	C	0.269449	-0.505794	-0.301911
C36	C	0.905481	-0.778785	-0.301873
C37	C	0.905522	-0.895562	-0.301887
C38	C	0.985696	-0.895494	-0.221817
C39	C	1.025799	-0.950321	-0.181789
C40	C	1.025835	-1.060043	-0.181806
C41	C	0.985766	-1.114940	-0.221857
C42	C	0.945663	-1.060113	-0.261884
C43	C	0.945629	-0.950389	-0.261862
C44	C	0.865493	-1.060180	-0.341957
C45	C	0.865452	-0.950459	-0.341937
C46	C	0.825424	-1.115078	-0.382007
C47	C	0.785316	-1.060251	-0.422033
C48	C	0.785281	-0.950522	-0.422013
C49	C	0.825349	-0.895632	-0.381965
C50	C	1.068941	-0.505767	-0.301906
C51	C	1.138583	-0.505745	-0.301913
C52	C	0.905570	-0.505796	-0.465311
C53	C	0.905592	-0.505787	-0.534952
C54	C	0.905573	-0.231784	-0.301917
C55	C	0.905596	-0.115007	-0.301929
C56	C	0.945677	-0.438576	-0.567678
C57	C	0.945677	-0.438530	-0.633113
C58	C	0.905597	-0.505716	-0.665821
C59	C	0.865504	-0.572932	-0.633087
C60	C	0.865502	-0.572968	-0.567653
C61	C	0.900637	-0.600317	-0.769490
C62	C	0.900644	-0.600283	-0.834923
C63	C	0.905601	-0.505605	-0.867642
C64	C	0.910565	-0.410958	-0.834919
C65	C	0.910562	-0.410993	-0.769485
C66	C	0.905595	-0.505684	-0.736773
C67	C	0.945687	-0.438338	-0.971320
C68	C	0.945682	-0.438291	-1.036756
C69	C	0.865513	-0.572702	-1.036729
C70	C	0.865515	-0.572740	-0.971294
C71	C	0.905606	-0.505559	-0.938593
C72	C	0.905502	-0.505763	-0.139100
C73	C	0.905602	-0.505476	-0.069459
H74	H	0.263283	-0.627510	-0.229080
H75	H	0.985662	-0.806153	-0.221791
H76	H	0.985805	-1.204281	-0.221872
O77	O	0.826492	-0.637854	-1.068468
C78	C	0.719909	-0.688922	-1.088427
C79	C	0.764030	-0.615058	-1.052450
H80	H	0.669400	-0.670532	-1.075480
H81	H	0.726743	-0.677342	-1.140824
H82	H	0.730927	-0.773636	-1.075580
H83	H	0.753039	-0.530316	-1.065245
H84	H	0.757188	-0.626729	-1.000062
H85	H	0.978323	-0.383554	-1.063401
O86	O	0.895905	-0.692302	-0.866633
C87	C	0.941094	-0.861946	-0.886689
C88	C	0.946527	-0.757789	-0.850734
H89	H	0.982022	-0.914913	-0.873858
H90	H	0.895333	-0.902357	-0.873794
H91	H	0.941922	-0.845643	-0.939075
H92	H	0.945725	-0.774000	-0.798340
H93	H	0.992281	-0.717410	-0.863681
H94	H	0.825320	-0.806291	-0.381942
O95	O	1.064706	-1.113425	-0.142897
C96	C	1.073208	-1.237336	-0.058317
C97	C	1.029117	-1.176963	-0.102349
H98	H	1.044451	-1.288703	-0.025515
H99	H	1.105959	-1.288690	-0.087091
H100	H	1.101858	-1.179242	-0.029719
H101	H	1.000426	-1.234981	-0.130957
H102	H	0.996406	-1.125592	-0.073539
O103	O	0.825517	-1.221660	-0.382127
C104	C	0.841607	-1.379031	-0.442246
C105	C	0.841540	-1.258327	-0.442193
H106	H	0.854547	-1.408713	-0.490807
H107	H	0.877172	-1.408846	-0.406794
H108	H	0.793101	-1.408895	-0.429181
H109	H	0.890020	-1.228374	-0.455274
H110	H	0.805942	-1.228584	-0.477632
H111	H	0.978328	-0.383630	-0.944694
O112	O	0.984635	-0.373212	-0.536011
C113	C	1.064179	-0.239941	-0.542947
C114	C	1.020082	-0.313896	-0.578889
H115	H	1.092858	-0.191980	-0.577598
H116	H	1.035453	-0.184957	-0.512317
H117	H	1.096902	-0.288198	-0.512308
H118	H	0.987350	-0.265723	-0.609561
H119	H	1.048847	-0.368882	-0.609479
O120	O	0.341231	-0.692398	-0.292082
C121	C	0.267308	-0.810226	-0.339863
C122	C	0.303345	-0.706109	-0.345366
H123	H	0.236658	-0.821335	-0.382930
H124	H	0.301877	-0.877926	-0.336292
H125	H	0.236678	-0.808463	-0.296264
H126	H	0.333976	-0.707770	-0.388963
H127	H	0.268743	-0.638454	-0.348902
H128	H	0.548209	-0.627593	-0.229061
H129	H	0.752627	-0.905888	-0.454611
O130	O	0.470156	-0.692547	-0.291989
C131	C	0.463168	-0.880299	-0.281972
C132	C	0.427255	-0.776132	-0.287492
H133	H	0.428498	-0.947903	-0.278323
H134	H	0.493801	-0.891571	-0.325059
H135	H	0.493801	-0.878527	-0.238400
H136	H	0.396588	-0.777830	-0.331039
H137	H	0.396662	-0.764900	-0.244375
O138	O	0.672033	-0.638326	-0.222807
C139	C	0.691935	-0.816967	-0.192183
C140	C	0.655999	-0.743096	-0.236314
H141	H	0.678975	-0.901688	-0.203079
H142	H	0.744337	-0.805552	-0.199078
H143	H	0.679062	-0.798334	-0.141685
H144	H	0.668820	-0.761683	-0.286829
H145	H	0.603605	-0.754524	-0.229365
H146	H	0.263459	-0.384068	-0.374734
H147	H	0.667095	-0.384204	-0.374708
H148	H	0.832877	-0.627477	-0.944648
O149	O	0.139517	-0.373523	-0.380987
C150	C	0.038755	-0.314075	-0.416605
C151	C	0.074724	-0.387881	-0.372463
H152	H	-0.013636	-0.325674	-0.409739
H153	H	0.051604	-0.229310	-0.405696
H154	H	0.051676	-0.332656	-0.467098
H155	H	0.061823	-0.369395	-0.321955
H156	H	0.061872	-0.472625	-0.383426
O157	O	0.895892	-0.692260	-0.737665
C158	C	0.943762	-0.810167	-0.663875
C159	C	0.949220	-0.705996	-0.699850
H160	H	0.986877	-0.821316	-0.633302
H161	H	0.900197	-0.808603	-0.633191
H162	H	0.940187	-0.877743	-0.698539
H163	H	0.952820	-0.638364	-0.665231
H164	H	0.992777	-0.707651	-0.730544
O165	O	0.826483	-0.638086	-0.664828
C166	C	0.719899	-0.689151	-0.684785
C167	C	0.764022	-0.615284	-0.648812
H168	H	0.669391	-0.670756	-0.671839
H169	H	0.726734	-0.677579	-0.737182
H170	H	0.730916	-0.773863	-0.671933
H171	H	0.753032	-0.530543	-0.661612
H172	H	0.757179	-0.626947	-0.596424
O173	O	0.543347	-0.373595	-0.381082
C174	C	0.550341	-0.240483	-0.460696
C175	C	0.586251	-0.314283	-0.416502
H176	H	0.585014	-0.192494	-0.489335
H177	H	0.519724	-0.288756	-0.493447
H178	H	0.519694	-0.185509	-0.431985
H179	H	0.616933	-0.369271	-0.445162
H180	H	0.616829	-0.265945	-0.383749
O181	O	0.470325	-0.319172	-0.311804
C182	C	0.463510	-0.131416	-0.321828
C183	C	0.427500	-0.235558	-0.316311
H184	H	0.428902	-0.063789	-0.325487
H185	H	0.494108	-0.120162	-0.278737
H186	H	0.494186	-0.133215	-0.365395
H187	H	0.396791	-0.233834	-0.272769
H188	H	0.396942	-0.246773	-0.359433
O189	O	0.984652	-0.373389	-0.664980
C190	C	1.069277	-0.359224	-0.738860
C191	C	1.025166	-0.433110	-0.702825
H192	H	1.102053	-0.407480	-0.769456
H193	H	1.040564	-0.304293	-0.769526
H194	H	1.097900	-0.311193	-0.704235
H195	H	0.996534	-0.481210	-0.737405
H196	H	1.053916	-0.487972	-0.672149
O197	O	0.139332	-0.637985	-0.222841
C198	C	0.038485	-0.697383	-0.187244
C199	C	0.074560	-0.623585	-0.231373
H200	H	-0.013890	-0.685751	-0.194117
H201	H	0.051274	-0.782153	-0.198162
H202	H	0.051370	-0.678827	-0.136747
H203	H	0.061694	-0.642046	-0.281885
H204	H	0.061767	-0.538837	-0.220402
O205	O	1.064629	-0.896945	-0.142818
C206	C	1.073048	-0.773078	-0.058237
C207	C	1.029001	-0.833476	-0.102320
H208	H	1.044261	-0.721733	-0.025492
H209	H	1.101706	-0.831063	-0.029585
H210	H	1.105793	-0.721670	-0.087033
H211	H	0.996217	-0.884886	-0.073573
H212	H	1.000387	-0.775434	-0.130974
H213	H	0.914602	-0.333928	-0.742845
O214	O	0.746466	-1.113529	-0.461024
C215	C	0.715996	-1.147012	-0.567580
C216	C	0.760044	-1.086623	-0.523495
H217	H	0.726950	-1.125264	-0.618097
H218	H	0.722918	-1.234863	-0.560775
H219	H	0.665474	-1.125563	-0.556499
H220	H	0.810583	-1.107984	-0.534549
H221	H	0.753068	-0.998787	-0.530308
H222	H	0.346556	-0.334101	-0.311046
O223	O	0.915259	-0.318984	-0.866716
C224	C	0.867362	-0.201234	-0.940578
C225	C	0.861962	-0.305406	-0.904596
H226	H	0.824284	-0.190234	-0.971222
H227	H	0.870866	-0.133559	-0.905974
H228	H	0.910962	-0.202826	-0.971209
H229	H	0.818364	-0.303917	-0.873963
H230	H	0.858493	-0.373037	-0.939233
O231	O	0.826633	-0.638417	-0.535887
C232	C	0.796162	-0.817149	-0.515890
C233	C	0.840227	-0.743145	-0.551894
H234	H	0.807129	-0.901836	-0.528829
H235	H	0.803051	-0.805728	-0.463498
H236	H	0.745647	-0.798656	-0.528723
H237	H	0.890759	-0.761593	-0.539114
H238	H	0.833284	-0.754580	-0.604278
