data_functionalizedCrystal
_audit_creation_method	'MofGen! by Chris Wilmer'
_symmetry_space_group_name_H-M	'P1'
_symmetry_Int_Tables_number	1
_symmetry_cell_setting	triclinic
loop_
_symmetry_equiv_pos_as_xyz
  x,y,z
_cell_length_a	16.625547
_cell_length_b	12.594516
_cell_length_c	16.625539
_cell_angle_alpha	89.976673
_cell_angle_beta	89.975178
_cell_angle_gamma	90.015990
loop_
_atom_site_label
_atom_site_type_symbol
_atom_site_fract_x
_atom_site_fract_y
_atom_site_fract_z
Zn1	Zn	1.232716	-0.423742	-0.456029
Zn2	Zn	1.732716	0.076258	0.043971
Zn3	Zn	1.232635	-0.601743	-0.321208
Zn4	Zn	1.732635	-0.101743	0.178792
Zn5	Zn	1.097878	-0.423779	-0.321199
Zn6	Zn	1.597878	0.076221	0.178801
Zn7	Zn	1.097864	-0.601679	-0.455988
Zn8	Zn	1.597864	-0.101679	0.044012
O9	O	1.165273	-0.512736	-0.388606
O10	O	1.665273	-0.012736	0.111394
O11	O	1.345538	-0.447366	-0.438165
O12	O	1.845538	0.052634	0.061835
O13	O	1.214731	-0.578178	-0.208374
O14	O	1.714731	-0.078178	0.291626
O15	O	1.115805	-0.274828	-0.339098
O16	O	1.615805	0.225172	0.160902
O17	O	1.345478	-0.578143	-0.339113
O18	O	1.845478	-0.078143	0.160887
O19	O	1.214870	-0.274801	-0.438157
O20	O	1.714870	0.225199	0.061843
O21	O	1.115726	-0.447429	-0.208368
O22	O	1.615726	0.052571	0.291632
O23	O	0.985044	-0.447366	-0.339058
O24	O	1.485044	0.052634	0.160942
O25	O	1.115780	-0.578032	-0.568825
O26	O	1.615780	-0.078032	-0.068825
O27	O	0.985033	-0.578068	-0.438087
O28	O	1.485033	-0.078068	0.061913
O29	O	1.214856	-0.447303	-0.568856
O30	O	1.714856	0.052697	-0.068856
O31	O	1.214717	-0.750680	-0.339073
O32	O	1.714717	-0.250680	0.160927
O33	O	1.115701	-0.750633	-0.438095
O34	O	1.615701	-0.250633	0.061905
C35	C	0.955782	-0.512715	-0.388568
C36	C	1.455782	-0.012715	0.111432
C37	C	0.866161	-0.512732	-0.388571
C38	C	1.366161	-0.012732	0.111429
C39	C	0.793379	-0.512734	-0.388581
C40	C	1.293379	-0.012734	0.111419
C41	C	0.702070	-0.512739	-0.388601
C42	C	1.202070	-0.012739	0.111399
C43	C	0.629294	-0.512749	-0.388621
C44	C	1.129294	-0.012749	0.111379
C45	C	0.537980	-0.512757	-0.388641
C46	C	1.037980	-0.012757	0.111359
C47	C	1.165220	-0.789277	-0.388598
C48	C	1.665220	-0.289277	0.111402
C49	C	1.165272	-0.907582	-0.388622
C50	C	1.665272	-0.407582	0.111378
C51	C	1.111412	-0.976848	-0.442442
C52	C	1.611412	-0.476848	0.057558
C53	C	1.091767	-1.047709	-0.368866
C54	C	1.591767	-0.547709	0.131134
C55	C	1.184990	-1.047521	-0.462210
C56	C	1.684990	-0.547521	0.037790
C57	C	1.145588	-0.976884	-0.315007
C58	C	1.645588	-0.476884	0.184993
C59	C	1.238845	-0.976690	-0.408400
C60	C	1.738845	-0.476690	0.091600
C61	C	1.219228	-1.047519	-0.334774
C62	C	1.719228	-0.547519	0.165226
C63	C	1.375582	-0.512757	-0.388645
C64	C	1.875582	-0.012757	0.111355
C65	C	1.465203	-0.512766	-0.388661
C66	C	1.965203	-0.012766	0.111339
C67	C	1.165326	-0.512656	-0.598915
C68	C	1.665326	-0.012656	-0.098915
C69	C	1.165348	-0.512623	-0.688536
C70	C	1.665348	-0.012623	-0.188536
C71	C	1.165348	-0.235115	-0.388631
C72	C	1.665348	0.264885	0.111369
C73	C	1.165380	-0.116809	-0.388642
C74	C	1.665380	0.383191	0.111358
C75	C	1.165385	-0.512503	-1.016712
C76	C	1.665385	-0.012503	-0.516712
C77	C	1.165373	-0.512540	-0.925403
C78	C	1.665373	-0.012540	-0.425403
C79	C	1.165367	-0.512564	-0.852627
C80	C	1.665367	-0.012564	-0.352627
C81	C	1.165354	-0.512599	-0.761312
C82	C	1.665354	-0.012599	-0.261312
C83	C	1.165268	-0.512738	-0.179115
C84	C	1.665268	-0.012738	0.320885
C85	C	1.165401	-0.512472	-0.089494
C86	C	1.665401	-0.012472	0.410506
H87	H	1.029597	-1.078926	-0.352154
H88	H	1.529597	-0.578926	0.147846
H89	H	1.201624	-1.078549	-0.524435
H90	H	1.701624	-0.578549	-0.024435
N91	N	1.124620	-0.938114	-0.236931
N92	N	1.624620	-0.438114	0.263069
N93	N	1.121154	-0.840384	-0.224331
N94	N	1.621154	-0.340384	0.275669
H95	H	1.106338	-0.812999	-0.169193
H96	H	1.606338	-0.312999	0.330807
H97	H	1.264822	-1.078354	-0.289216
H98	H	1.764822	-0.578354	0.210784
N99	N	1.054164	-0.937909	-0.499443
N100	N	1.554164	-0.437909	0.000557
N101	N	0.997564	-0.879980	-0.476591
N102	N	1.497564	-0.379980	0.023409
H103	H	0.957130	-0.852477	-0.516843
H104	H	1.457130	-0.352477	-0.016843
H105	H	1.301000	-0.945475	-0.425148
H106	H	1.801000	-0.445475	0.074852
