data_functionalizedCrystal
_audit_creation_method	'MofGen! by Chris Wilmer'
_symmetry_space_group_name_H-M	'P1'
_symmetry_Int_Tables_number	1
_symmetry_cell_setting	triclinic
loop_
_symmetry_equiv_pos_as_xyz
  x,y,z
_cell_length_a	16.992694
_cell_length_b	16.992695
_cell_length_c	15.455313
_cell_angle_alpha	92.847427
_cell_angle_beta	87.142206
_cell_angle_gamma	90.668223
loop_
_atom_site_label
_atom_site_type_symbol
_atom_site_fract_x
_atom_site_fract_y
_atom_site_fract_z
O1	O	1.054080	0.163694	-0.072023
O2	O	0.825681	0.161862	-0.072048
O3	O	0.938965	0.048579	-0.072029
O4	O	0.940797	0.276978	-0.072042
O5	O	0.932485	0.055028	0.072232
O6	O	0.819202	0.168312	0.072213
O7	O	1.047601	0.170144	0.072238
Cu8	Cu	0.932809	0.169817	0.085398
Cu9	Cu	0.940473	0.162189	-0.085207
O10	O	0.934317	0.283428	0.072219
C11	C	0.793081	0.162731	0.000079
C12	C	0.705597	0.155702	0.000070
C13	C	0.659607	0.223520	0.000066
C14	C	0.577405	0.216911	0.000079
C15	C	0.541197	0.142484	0.000088
C16	C	0.587193	0.074661	0.000094
C17	C	0.669393	0.081271	0.000088
C18	C	0.295881	0.115091	0.000113
C19	C	0.213676	0.108486	0.000116
C20	C	0.203893	0.250737	0.000103
C21	C	0.286095	0.257340	0.000091
C22	C	0.332084	0.189517	0.000102
N23	N	0.457174	0.135727	0.000098
N24	N	0.416105	0.196275	0.000098
C25	C	0.933369	0.022443	0.000102
C26	C	0.926341	-0.065041	0.000101
C27	C	0.994158	-0.111032	0.000109
C28	C	0.987550	-0.193233	0.000100
C29	C	0.913123	-0.229442	0.000089
C30	C	0.845300	-0.183445	0.000078
C31	C	0.851910	-0.101246	0.000081
C32	C	0.885729	-0.474757	0.000074
C33	C	0.879124	-0.556962	0.000074
C34	C	1.021375	-0.566744	0.000094
C35	C	1.027977	-0.484543	0.000102
C36	C	0.960155	-0.438554	0.000087
N37	N	0.906366	-0.313464	0.000082
N38	N	0.966913	-0.354533	0.000087
C39	C	1.080201	0.169275	0.000109
C40	C	1.167685	0.176304	0.000113
C41	C	0.939913	0.309563	0.000087
C42	C	0.946942	0.397047	0.000082
N43	N	0.927425	0.175181	0.205392
N44	N	0.945863	0.156819	-0.205202
C45	C	0.975571	0.127074	0.250795
C46	C	0.971507	0.131139	0.341602
C47	C	0.919301	0.183315	0.387005
C48	C	0.871149	0.231424	0.341596
C49	C	0.875210	0.227355	0.250791
C50	C	0.901772	0.200858	0.658584
C51	C	0.897717	0.204926	0.749395
C52	C	0.998074	0.104639	0.749395
C53	C	1.002133	0.100578	0.658588
C54	C	0.953979	0.148684	0.613187
N55	N	0.915147	0.187473	0.479825
N56	N	0.958129	0.144522	0.520369
H57	H	0.315570	0.317946	0.000074
C58	C	0.840287	0.262319	0.799342
H59	H	0.844775	0.257858	0.859924
H60	H	0.787880	0.249780	0.784476
H61	H	0.852793	0.314734	0.784448
C62	C	0.526819	0.291511	0.000072
H63	H	0.560157	0.336783	0.000055
H64	H	0.492298	0.294144	0.050382
H65	H	0.496802	0.289637	-0.050238
H66	H	0.689081	0.284126	0.000058
H67	H	0.184198	0.047876	0.000123
C68	C	1.024475	0.078229	0.391541
H69	H	1.056158	0.046582	0.351495
H70	H	0.992531	0.045252	0.426977
H71	H	1.057432	0.110218	0.426951
C72	C	1.062147	-0.243823	0.000101
H73	H	1.047555	-0.297965	0.000083
H74	H	1.090199	-0.230123	0.050410
H75	H	1.094708	-0.234601	-0.050211
H76	H	0.166440	0.305954	0.000096
C77	C	1.059555	0.043180	0.608650
H78	H	1.087643	0.015105	0.648697
H79	H	1.095680	0.071980	0.573215
H80	H	1.030763	0.007031	0.573240
C81	C	1.033004	0.069688	0.200855
H82	H	1.028535	0.074159	0.140271
H83	H	1.020506	0.017275	0.215745
H84	H	1.085410	0.082237	0.215733
H85	H	1.037278	0.065473	0.786369
H86	H	0.862564	0.240030	0.621625
C87	C	0.763430	-0.223269	0.000059
H88	H	0.723988	-0.184104	0.000044
H89	H	0.755630	-0.252888	0.050363
H90	H	0.760161	-0.257376	-0.050258
C91	C	0.346459	0.040488	0.000118
H92	H	0.313120	-0.004783	0.000116
H93	H	0.376475	0.042357	0.050424
H94	H	0.380982	0.037858	-0.050196
H95	H	1.054764	-0.081557	0.000124
H96	H	0.557705	0.014061	0.000114
C97	C	0.813725	0.288818	0.391537
H98	H	0.818207	0.284359	0.452121
H99	H	0.761318	0.276282	0.376667
H100	H	0.826236	0.341231	0.376642
H101	H	0.706838	0.026046	0.000090
C102	C	1.109848	-0.444719	0.000103
H103	H	1.149293	-0.483884	0.000098
H104	H	1.113127	-0.410608	0.050409
H105	H	1.117637	-0.415106	-0.050211
H106	H	0.836004	0.266527	0.213825
H107	H	1.076591	-0.604197	0.000106
H108	H	0.818513	-0.586440	0.000079
H109	H	0.830503	-0.437322	0.000061
H110	H	0.796685	-0.063801	0.000073
