data_functionalizedCrystal
_audit_creation_method	'MofGen! by Chris Wilmer'
_symmetry_space_group_name_H-M	'P1'
_symmetry_Int_Tables_number	1
_symmetry_cell_setting	triclinic
loop_
_symmetry_equiv_pos_as_xyz
  x,y,z
_cell_length_a	11.026660
_cell_length_b	11.026607
_cell_length_c	10.065875
_cell_angle_alpha	100.732634
_cell_angle_beta	79.302224
_cell_angle_gamma	108.585426
loop_
_atom_site_label
_atom_site_type_symbol
_atom_site_fract_x
_atom_site_fract_y
_atom_site_fract_z
O1	O	1.741271	0.518947	-0.113488
O2	O	1.374695	0.458187	-0.113490
O3	O	1.527601	0.305278	-0.113487
O4	O	1.588365	0.671856	-0.113491
O5	O	1.498477	0.334585	0.113501
O6	O	1.345570	0.487495	0.113498
O7	O	1.712147	0.548254	0.113500
Zn8	Zn	1.524234	0.522528	0.149538
Zn9	Zn	1.562607	0.483914	-0.149528
O10	O	1.559240	0.701164	0.113497
C11	C	1.312473	0.461632	0.000004
C12	C	1.170461	0.428216	0.000003
C13	C	1.501830	0.272272	0.000004
C14	C	1.468414	0.130257	-0.000003
C15	C	1.774369	0.544810	0.000003
C16	C	1.916382	0.578224	-0.000005
C17	C	1.585012	0.734170	0.000003
C18	C	1.618429	0.876183	0.000001
C19	C	2.116808	0.520483	0.000001
C20	C	1.970031	0.485944	-0.000002
N21	N	1.498055	0.548882	0.353644
C22	C	1.526161	0.929833	-0.000000
C23	C	1.560696	1.076611	-0.000002
N24	N	1.588794	0.457552	-0.353633
C25	C	1.553489	0.493073	0.421423
C26	C	1.533353	0.513368	0.578590
H27	H	1.907310	0.381369	-0.000037
C28	C	2.330493	0.668538	0.000006
C29	C	2.201478	0.661645	0.000003
H30	H	2.382760	0.755687	0.000001
H31	H	2.337952	0.637530	0.079158
H32	H	2.358266	0.617083	-0.079154
H33	H	2.173701	0.713092	0.079169
H34	H	2.194013	0.692669	-0.079157
C35	C	1.805380	0.949917	0.116681
C36	C	1.759591	0.960851	-0.000003
H37	H	1.892532	1.002179	0.116669
H38	H	1.753999	0.977772	0.195821
H39	H	1.800680	0.862382	0.116670
H40	H	1.764283	1.048385	0.000013
H41	H	1.810987	0.933003	-0.079164
H42	H	1.979105	0.682796	0.000004
H43	H	2.107735	0.323648	-0.000032
H44	H	1.615850	0.430263	0.363100
H45	H	1.470976	0.576172	0.636910
C46	C	1.708752	1.290296	0.000001
C47	C	1.701863	1.161281	0.000001
H48	H	1.795900	1.342566	0.000011
H49	H	1.677684	1.297693	-0.079152
H50	H	1.657357	1.318129	0.079160
H51	H	1.753250	1.133445	-0.079164
H52	H	1.732947	1.153878	0.079162
H53	H	1.651159	0.394737	0.588047
H54	H	1.421599	0.867100	-0.000008
C55	C	1.248537	1.123266	-0.000009
C56	C	1.327246	1.045592	-0.000005
H57	H	1.161390	1.070994	-0.000018
H58	H	1.255254	1.185948	0.079143
H59	H	1.275579	1.165518	-0.079169
H60	H	1.300210	1.003347	0.079161
H61	H	1.320522	0.982887	-0.079165
H62	H	1.435683	0.611681	0.411969
