data_functionalizedCrystal
_audit_creation_method	'MofGen! by Chris Wilmer'
_symmetry_space_group_name_H-M	'P1'
_symmetry_Int_Tables_number	1
_symmetry_cell_setting	triclinic
loop_
_symmetry_equiv_pos_as_xyz
  x,y,z
_cell_length_a	17.019238
_cell_length_b	19.288865
_cell_length_c	17.766277
_cell_angle_alpha	90.011603
_cell_angle_beta	86.108892
_cell_angle_gamma	96.741059
loop_
_atom_site_label
_atom_site_type_symbol
_atom_site_fract_x
_atom_site_fract_y
_atom_site_fract_z
O1	O	1.046399	-0.088395	-0.130463
O2	O	0.816687	-0.099700	-0.115568
O3	O	0.938181	0.007072	-0.123431
O4	O	0.924906	-0.195167	-0.122600
O5	O	0.938159	0.007077	0.001759
O6	O	0.816666	-0.099695	0.009622
O7	O	1.046378	-0.088390	-0.005273
Cu8	Cu	0.931520	-0.094042	0.013605
Cu9	Cu	0.931545	-0.094048	-0.134446
O10	O	0.924884	-0.195161	0.002590
C11	C	0.787288	-0.099273	-0.051068
C12	C	0.699720	-0.097997	-0.045389
C13	C	0.937743	0.032951	-0.060806
C14	C	0.936461	0.110057	-0.060716
C15	C	1.075777	-0.088817	-0.069775
C16	C	1.163345	-0.090093	-0.075459
C17	C	1.658599	-0.097396	-0.110965
C18	C	1.576322	-0.096186	-0.105633
C19	C	1.535167	-0.095573	-0.034725
C20	C	1.576294	-0.096177	0.030856
C21	C	1.658569	-0.097391	0.025523
C22	C	1.286747	-0.091911	-0.015210
C23	C	1.204466	-0.090694	-0.009883
C24	C	1.204499	-0.090705	-0.146373
C25	C	1.286777	-0.091915	-0.151699
C26	C	1.327896	-0.092522	-0.086118
C27	C	1.451066	-0.094335	-0.029273
C28	C	1.411994	-0.093766	-0.091570
C29	C	0.925322	-0.221041	-0.060037
C30	C	0.926604	-0.298147	-0.060131
N31	N	0.931508	-0.094037	0.117736
C32	C	1.007747	0.154634	-0.065335
C33	C	1.006543	0.227084	-0.065269
C34	C	0.934047	0.254952	-0.060569
C35	C	0.862751	0.210365	-0.055954
C36	C	0.863958	0.137917	-0.056028
C37	C	0.877050	0.363337	-0.013022
C38	C	0.875846	0.435783	-0.012944
C39	C	0.930323	0.478404	-0.060344
C40	C	0.986016	0.448571	-0.107814
C41	C	0.987223	0.376123	-0.107887
C42	C	0.932731	0.333508	-0.060488
C43	C	1.000308	0.601539	-0.064892
C44	C	0.999100	0.673989	-0.064830
C45	C	0.855307	0.657269	-0.055508
C46	C	0.856517	0.584821	-0.055577
C47	C	0.929019	0.556960	-0.060266
N48	N	0.931563	-0.094048	-0.238578
C49	C	0.985323	-0.046781	0.153641
C50	C	0.985327	-0.046778	0.232442
C51	C	0.931525	-0.094042	0.275336
C52	C	0.877700	-0.141301	0.239423
C53	C	0.877692	-0.141299	0.160623
C54	C	0.920964	-0.157312	0.400849
C55	C	0.920978	-0.157316	0.479647
C56	C	0.931546	-0.094051	0.518381
C57	C	0.942117	-0.030779	0.478306
C58	C	0.942108	-0.030776	0.399506
C59	C	0.931527	-0.094050	0.360781
C60	C	0.985368	-0.046788	0.639730
C61	C	0.985367	-0.046784	0.718534
C62	C	0.877744	-0.141313	0.725513
C63	C	0.877741	-0.141311	0.646711
C64	C	0.931557	-0.094049	0.603824
H65	H	1.692102	-0.097893	-0.168706
H66	H	1.029187	-0.008299	0.747767
C67	C	1.077526	0.723026	-0.069907
N68	N	1.136598	0.759960	-0.073728
C69	C	0.818597	-0.193347	0.607211
N70	N	0.774064	-0.232558	0.577460
C71	C	0.783006	0.241022	-0.050778
N72	N	0.722939	0.264112	-0.046880
C73	C	1.159198	-0.090017	0.068125
N74	N	1.125102	-0.089505	0.126878
H75	H	1.320216	-0.092400	0.038191
C76	C	0.909342	-0.226916	0.523723
N77	N	0.900572	-0.279340	0.556919
C78	C	0.953740	0.038819	0.520907
N79	N	0.962496	0.091238	0.552997
C80	C	0.818523	-0.193316	0.121125
N81	N	0.773969	-0.232507	0.091374
H82	H	1.032569	0.351837	-0.146540
H83	H	1.171011	-0.090212	-0.199765
H84	H	0.796280	0.679959	-0.051684
H85	H	1.445505	-0.094269	-0.149303
H86	H	0.912344	-0.208834	0.369320
C87	C	0.817121	0.316460	0.039129
N88	N	0.771984	0.281154	0.078408
H89	H	0.833934	-0.179794	0.760436
C90	C	1.703802	-0.098051	0.097662
N91	N	1.737870	-0.098549	0.152000
C92	C	1.531094	-0.095515	-0.177773
N93	N	1.497029	-0.095006	-0.232111
C94	C	1.531021	-0.095503	0.108856
N95	N	1.496922	-0.094993	0.167608
H96	H	1.030376	0.483272	-0.146412
C97	C	1.405789	-0.093655	0.048724
N98	N	1.371683	-0.093143	0.107472
C99	C	1.080062	0.570891	-0.070061
N100	N	1.140133	0.547808	-0.073957
H101	H	1.066785	0.131956	-0.069155
H102	H	1.029186	-0.008302	0.604811
C103	C	1.084967	0.276128	-0.070345
N104	N	1.144036	0.313066	-0.074166
H105	H	0.798467	0.548525	-0.051812
H106	H	1.320280	-0.092409	-0.209440
H107	H	0.950714	0.020742	0.366880
H108	H	0.830494	0.460067	0.025705
H109	H	0.833892	-0.179784	0.274351
C110	C	0.785533	0.088880	-0.050944
N111	N	0.726463	0.051944	-0.047114
C112	C	1.044515	0.005215	0.106470
N113	N	1.089096	0.044381	0.070940
H114	H	1.029151	-0.008296	0.261681
