data_functionalizedCrystal
_audit_creation_method	'MofGen! by Chris Wilmer'
_symmetry_space_group_name_H-M	'P1'
_symmetry_Int_Tables_number	1
_symmetry_cell_setting	triclinic
loop_
_symmetry_equiv_pos_as_xyz
  x,y,z
_cell_length_a	16.959455
_cell_length_b	16.959455
_cell_length_c	16.959454
_cell_angle_alpha	90.010582
_cell_angle_beta	90.019023
_cell_angle_gamma	90.003969
loop_
_atom_site_label
_atom_site_type_symbol
_atom_site_fract_x
_atom_site_fract_y
_atom_site_fract_z
Zn1	Zn	1.208284	0.446979	-0.314814
Zn2	Zn	1.541618	0.780312	0.018519
Zn3	Zn	1.874951	1.113645	0.351853
Zn4	Zn	1.208236	0.314809	-0.446969
Zn5	Zn	1.541570	0.648142	-0.113636
Zn6	Zn	1.874903	0.981475	0.219697
Zn7	Zn	1.076142	0.314811	-0.314806
Zn8	Zn	1.409475	0.648144	0.018527
Zn9	Zn	1.742809	0.981477	0.351860
Zn10	Zn	1.076077	0.446942	-0.446952
Zn11	Zn	1.409411	0.780275	-0.113619
Zn12	Zn	1.742744	1.113608	0.219715
O13	O	1.142185	0.380885	-0.380885
O14	O	1.475518	0.714218	-0.047552
O15	O	1.808852	1.047552	0.285781
O16	O	1.318889	0.429461	-0.332355
O17	O	1.652222	0.762794	0.000978
O18	O	1.985555	1.096127	0.334311
O19	O	1.190721	0.204198	-0.429442
O20	O	1.524054	0.537531	-0.096108
O21	O	1.857387	0.870865	0.237225
O22	O	1.093718	0.332360	-0.204196
O23	O	1.427052	0.665693	0.129137
O24	O	1.760385	0.999026	0.462470
O25	O	1.318853	0.332356	-0.429449
O26	O	1.652187	0.665689	-0.096116
O27	O	1.985520	0.999023	0.237218
O28	O	1.190803	0.429463	-0.204202
O29	O	1.524136	0.762796	0.129131
O30	O	1.857469	1.096130	0.462464
O31	O	1.093672	0.204200	-0.332342
O32	O	1.427005	0.537533	0.000991
O33	O	1.760338	0.870866	0.334325
O34	O	0.965523	0.332324	-0.332325
O35	O	1.298856	0.665657	0.001008
O36	O	1.632189	0.998990	0.334341
O37	O	1.093608	0.557557	-0.429420
O38	O	1.426941	0.890891	-0.096086
O39	O	1.760275	1.224224	0.237247
O40	O	0.965475	0.429399	-0.429412
O41	O	1.298808	0.762733	-0.096079
O42	O	1.632142	1.096066	0.237254
O43	O	1.190740	0.557585	-0.332339
O44	O	1.524073	0.890918	0.000995
O45	O	1.857406	1.224251	0.334328
O46	O	1.190658	0.332320	-0.557578
O47	O	1.523991	0.665653	-0.224245
O48	O	1.857324	0.998986	0.109089
O49	O	1.093561	0.429397	-0.557565
O50	O	1.426895	0.762731	-0.224232
O51	O	1.760228	1.096064	0.109101
C52	C	0.936819	0.380858	-0.380867
C53	C	1.270152	0.714191	-0.047533
C54	C	1.603485	1.047525	0.285800
C55	C	0.848962	0.380865	-0.380878
C56	C	1.182295	0.714199	-0.047544
C57	C	1.515629	1.047532	0.285789
C58	C	0.807689	0.330404	-0.330257
C59	C	1.141023	0.663737	0.003077
C60	C	1.474356	0.997070	0.336410
C61	C	0.807681	0.431339	-0.431504
C62	C	1.141015	0.764672	-0.098171
C63	C	1.474348	1.098006	0.235162
C64	C	0.725135	0.431351	-0.431513
C65	C	1.058469	0.764684	-0.098180
C66	C	1.391802	1.098017	0.235153
C67	C	0.683863	0.380889	-0.380893
C68	C	1.017196	0.714222	-0.047559
C69	C	1.350529	1.047555	0.285774
C70	C	0.725136	0.330415	-0.330263
C71	C	1.058469	0.663749	0.003071
C72	C	1.391803	0.997082	0.336404
C73	C	0.683856	0.481829	-0.482137
C74	C	1.017189	0.815162	-0.148803
C75	C	1.350523	1.148496	0.184530
C76	C	0.601305	0.481843	-0.482147
C77	C	0.934638	0.815177	-0.148814
C78	C	1.267972	1.148510	0.184519
C79	C	0.560031	0.431377	-0.431530
C80	C	0.893364	0.764710	-0.098196
C81	C	1.226698	1.098043	0.235137
C82	C	0.601309	0.380900	-0.380898
C83	C	0.934643	0.714234	-0.047565
C84	C	1.267976	1.047567	0.285768
C85	C	0.560036	0.330439	-0.330278
C86	C	0.893370	0.663772	0.003056
C87	C	1.226703	0.997105	0.336389
C88	C	0.601313	0.279958	-0.279650
C89	C	0.934647	0.613291	0.053684
C90	C	1.267980	0.946624	0.387017
C91	C	0.683862	0.279949	-0.279645
C92	C	1.017195	0.613282	0.053688
C93	C	1.350528	0.946615	0.387022
C94	C	0.477482	0.431386	-0.431534
C95	C	0.810816	0.764719	-0.098201
C96	C	1.144149	1.098052	0.235132
C97	C	0.477483	0.330450	-0.330283
C98	C	0.810816	0.663784	0.003050
C99	C	1.144150	0.997117	0.336383
C100	C	1.142172	0.587053	-0.380878
C101	C	1.475505	0.920386	-0.047545
C102	C	1.808839	1.253720	0.285788
C103	C	1.142166	0.674910	-0.380875
C104	C	1.475500	1.008243	-0.047542
C105	C	1.808833	1.341576	0.285792
C106	C	1.091606	1.046373	-0.431442
C107	C	1.424939	1.379707	-0.098109
C108	C	1.758273	1.713040	0.235225
C109	C	1.192750	1.046397	-0.330351
C110	C	1.526084	1.379730	0.002983
C111	C	1.859417	1.713064	0.336316
C112	C	1.192748	0.963851	-0.330344
C113	C	1.526081	1.297184	0.002989
C114	C	1.859414	1.630518	0.336322
C115	C	1.142174	0.922563	-0.380888
C116	C	1.475508	1.255896	-0.047555
C117	C	1.808841	1.589229	0.285778
C118	C	1.091603	0.963820	-0.431439
C119	C	1.424937	1.297153	-0.098106
C120	C	1.758270	1.630487	0.235228
C121	C	1.243323	0.922588	-0.279800
C122	C	1.576656	1.255921	0.053533
C123	C	1.909990	1.589254	0.386866
C124	C	1.243323	0.840037	-0.279792
C125	C	1.576656	1.173370	0.053541
C126	C	1.909990	1.506703	0.386874
C127	C	1.192745	0.798747	-0.330333
C128	C	1.526078	1.132080	0.003000
C129	C	1.859412	1.465413	0.336334
C130	C	1.142172	0.840009	-0.380885
C131	C	1.475505	1.173342	-0.047552
C132	C	1.808838	1.506676	0.285782
C133	C	1.091598	0.798721	-0.431429
C134	C	1.424932	1.132054	-0.098096
C135	C	1.758265	1.465387	0.235238
C136	C	1.041020	0.839981	-0.481978
C137	C	1.374354	1.173315	-0.148644
C138	C	1.707687	1.506648	0.184689
C139	C	1.041025	0.922530	-0.481979
C140	C	1.374359	1.255863	-0.148646
C141	C	1.707692	1.589197	0.184687
C142	C	1.192740	0.716198	-0.330331
C143	C	1.526073	1.049532	0.003002
C144	C	1.859407	1.382865	0.336336
C145	C	1.091596	0.716167	-0.431426
C146	C	1.424929	1.049500	-0.098092
C147	C	1.758262	1.382834	0.235241
C148	C	1.348353	0.380912	-0.380905
C149	C	1.681687	0.714246	-0.047572
C150	C	2.015020	1.047579	0.285762
C151	C	1.436210	0.380924	-0.380913
C152	C	1.769543	0.714257	-0.047580
C153	C	2.102876	1.047590	0.285753
C154	C	1.142187	1.175519	-0.380907
C155	C	1.475521	1.508852	-0.047573
C156	C	1.808854	1.842185	0.285760
C157	C	1.142179	1.087662	-0.380898
C158	C	1.475513	1.420995	-0.047565
C159	C	1.808846	1.754329	0.285769
C160	C	1.142119	0.380871	-0.586252
C161	C	1.475452	0.714205	-0.252918
C162	C	1.808785	1.047538	0.080415
C163	C	1.142163	0.380892	-0.674108
C164	C	1.475496	0.714225	-0.340775
C165	C	1.808829	1.047559	-0.007442
C166	C	1.091700	0.431428	-1.045607
C167	C	1.425034	0.764761	-0.712274
C168	C	1.758367	1.098094	-0.378941
C169	C	1.192890	0.330423	-1.045561
C170	C	1.526223	0.663756	-0.712227
C171	C	1.859557	0.997089	-0.378894
C172	C	1.192862	0.330415	-0.963015
C173	C	1.526196	0.663749	-0.629681
C174	C	1.859529	0.997082	-0.296348
C175	C	1.142252	0.380914	-0.921761
C176	C	1.475585	0.714247	-0.588428
C177	C	1.808919	1.047581	-0.255095
C178	C	1.091669	0.431420	-0.963054
C179	C	1.425003	0.764754	-0.629720
C180	C	1.758336	1.098087	-0.296387
C181	C	1.243438	0.279904	-0.921716
C182	C	1.576772	0.613238	-0.588383
C183	C	1.910105	0.946571	-0.255049
C184	C	1.243412	0.279894	-0.839165
C185	C	1.576746	0.613228	-0.505832
C186	C	1.910079	0.946561	-0.172498
C187	C	1.192805	0.330398	-0.797910
C188	C	1.526139	0.663731	-0.464577
C189	C	1.859472	0.997065	-0.131243
C190	C	1.142221	0.380907	-0.839208
C191	C	1.475555	0.714240	-0.505874
C192	C	1.808888	1.047573	-0.172541
C193	C	1.091611	0.431406	-0.797954
C194	C	1.424944	0.764739	-0.464621
C195	C	1.758278	1.098072	-0.131288
C196	C	1.041030	0.481919	-0.839250
C197	C	1.374364	0.815252	-0.505917
C198	C	1.707697	1.148586	-0.172584
C199	C	1.041062	0.481924	-0.921799
C200	C	1.374396	0.815257	-0.588466
C201	C	1.707729	1.148591	-0.255132
C202	C	1.192773	0.330393	-0.715362
C203	C	1.526106	0.663727	-0.382028
C204	C	1.859440	0.997060	-0.048695
C205	C	1.091580	0.431398	-0.715401
C206	C	1.424913	0.764732	-0.382067
C207	C	1.758247	1.098065	-0.048734
C208	C	1.142273	0.380916	-0.174717
C209	C	1.475606	0.714249	0.158616
C210	C	1.808940	1.047582	0.491949
C211	C	1.142311	0.380929	-0.086861
C212	C	1.475644	0.714262	0.246473
C213	C	1.808977	1.047595	0.579806
H214	H	1.050405	0.682556	-0.472578
H215	H	1.383738	1.015889	-0.139245
H216	H	1.717072	1.349222	0.194088
O217	O	0.556802	0.225529	-0.225048
O218	O	0.890135	0.558863	0.108285
O219	O	1.223468	0.892196	0.441619
H220	H	0.572632	0.163470	-0.238515
H221	H	0.905965	0.496803	0.094818
H222	H	1.239299	0.830137	0.428152
O223	O	0.852198	0.275954	-0.275652
O224	O	1.185531	0.609288	0.057681
O225	O	1.518864	0.942621	0.391015
H226	H	0.889823	0.311386	-0.235478
H227	H	1.223156	0.644720	0.097855
H228	H	1.556490	0.978053	0.431188
O229	O	1.037140	0.485897	-1.090146
O230	O	1.370473	0.819231	-0.756813
O231	O	1.703806	1.152564	-0.423479
H232	H	1.072492	0.526148	-1.127725
H233	H	1.405825	0.859481	-0.794392
H234	H	1.739158	1.192814	-0.461059
H235	H	0.717477	0.238851	-0.238426
H236	H	1.050810	0.572184	0.094907
H237	H	1.384143	0.905517	0.428241
H238	H	0.443885	0.289356	-0.289062
H239	H	0.777218	0.622690	0.044271
H240	H	1.110551	0.956023	0.377604
H241	H	1.234090	0.289304	-1.079154
H242	H	1.567423	0.622637	-0.745821
H243	H	1.900756	0.955971	-0.412487
H244	H	0.717466	0.522915	-0.523347
H245	H	1.050800	0.856248	-0.190014
H246	H	1.384133	1.189581	0.143320
H247	H	0.999847	0.806354	-0.523134
H248	H	1.333180	1.139687	-0.189801
H249	H	1.666514	1.473020	0.143533
O250	O	0.432985	0.485827	-0.486151
O251	O	0.766318	0.819160	-0.152818
O252	O	1.099651	1.152493	0.180516
H253	H	0.395393	0.526119	-0.450851
H254	H	0.728726	0.859452	-0.117517
H255	H	1.062059	1.192785	0.215816
O256	O	1.298021	0.225455	-0.966228
O257	O	1.631354	0.558788	-0.632895
O258	O	1.964687	0.892122	-0.299561
H259	H	1.284516	0.163397	-0.950436
H260	H	1.617849	0.496731	-0.617103
H261	H	1.951183	0.830064	-0.283769
H262	H	1.284598	0.238765	-0.805547
H263	H	1.617931	0.572098	-0.472214
H264	H	1.951265	0.905432	-0.138880
H265	H	0.999850	0.956132	-0.523136
H266	H	1.333183	1.289465	-0.189803
H267	H	1.666517	1.622799	0.143531
H268	H	1.233951	0.289262	-0.681742
H269	H	1.567285	0.622596	-0.348409
H270	H	1.900618	0.955929	-0.015076
H271	H	0.567705	0.522947	-0.523373
H272	H	0.901038	0.856280	-0.190039
H273	H	1.234371	1.189613	0.143294
O274	O	0.852190	0.485789	-0.486077
O275	O	1.185524	0.819122	-0.152744
O276	O	1.518857	1.152455	0.180589
H277	H	0.916526	0.477307	-0.477561
H278	H	1.249860	0.810640	-0.144228
H279	H	1.583193	1.143974	0.189106
O280	O	1.037051	1.090867	-0.485959
O281	O	1.370385	1.424201	-0.152625
O282	O	1.703718	1.757534	0.180708
H283	H	1.045546	1.155206	-0.477474
H284	H	1.378880	1.488539	-0.144140
H285	H	1.712213	1.821873	0.189193
O286	O	1.247274	1.090923	-0.275815
O287	O	1.580607	1.424257	0.057519
O288	O	1.913941	1.757590	0.390852
H289	H	1.238769	1.155256	-0.284299
H290	H	1.572102	1.488590	0.049034
H291	H	1.905436	1.821923	0.382368
O292	O	1.247292	0.671699	-0.275822
O293	O	1.580626	1.005032	0.057511
O294	O	1.913959	1.338366	0.390845
H295	H	1.238799	0.607361	-0.284314
H296	H	1.572133	0.940694	0.049019
H297	H	1.905466	1.274028	0.382353
O298	O	1.297839	0.967116	-0.225258
O299	O	1.631173	1.300449	0.108075
O300	O	1.964506	1.633782	0.441409
H301	H	1.289325	1.031448	-0.233736
H302	H	1.622658	1.364782	0.099597
H303	H	1.955992	1.698115	0.432931
O304	O	1.297868	0.795534	-0.225273
O305	O	1.631201	1.128868	0.108060
O306	O	1.964535	1.462201	0.441394
H307	H	1.333032	0.838114	-0.190126
H308	H	1.666365	1.171448	0.143208
H309	H	1.999698	1.504781	0.476541
O310	O	1.036981	0.485860	-0.670913
O311	O	1.370314	0.819193	-0.337580
O312	O	1.703647	1.152527	-0.004247
H313	H	1.050481	0.547912	-0.686732
H314	H	1.383814	0.881245	-0.353399
H315	H	1.717148	1.214578	-0.020065
O316	O	0.986444	0.536387	-0.794754
O317	O	1.319777	0.869720	-0.461421
O318	O	1.653111	1.203054	-0.128088
H319	H	0.994926	0.527893	-0.730416
H320	H	1.328259	0.861226	-0.397083
H321	H	1.661592	1.194559	-0.063750
H322	H	0.999882	0.523048	-0.955429
H323	H	1.333215	0.856382	-0.622096
H324	H	1.666548	1.189715	-0.288763
