data_functionalizedCrystal
_audit_creation_method	'MofGen! by Chris Wilmer'
_symmetry_space_group_name_H-M	'P1'
_symmetry_Int_Tables_number	1
_symmetry_cell_setting	triclinic
loop_
_symmetry_equiv_pos_as_xyz
  x,y,z
_cell_length_a	6.817900
_cell_length_b	15.185511
_cell_length_c	19.453030
_cell_angle_alpha	95.654043
_cell_angle_beta	101.707737
_cell_angle_gamma	104.265286
loop_
_atom_site_label
_atom_site_type_symbol
_atom_site_fract_x
_atom_site_fract_y
_atom_site_fract_z
V1	V	-4.010753	-0.126703	-0.219208
V2	V	-3.510753	0.373297	0.280792
O3	O	-3.994565	0.005115	-0.214821
O4	O	-3.494565	0.505115	0.285179
O5	O	-3.966231	-0.250295	-0.217914
O6	O	-3.466231	0.249705	0.282086
O7	O	-3.953612	-0.125182	-0.314718
O8	O	-3.453612	0.374818	0.185282
O9	O	-4.007272	-0.120865	-0.117347
O10	O	-3.507272	0.379135	0.382653
V11	V	-4.495010	-0.110886	-0.206999
V12	V	-3.995010	0.389114	0.293001
O13	O	-4.270399	-0.161400	-0.245987
O14	O	-3.770399	0.338600	0.254013
O15	O	-4.685561	-0.076189	-0.180219
O16	O	-4.185561	0.423811	0.319781
O17	O	-4.316325	0.012706	-0.208293
O18	O	-3.816325	0.512706	0.291707
O19	O	-4.628595	-0.242704	-0.211386
O20	O	-4.128595	0.257296	0.288614
O21	O	-4.615888	-0.116725	-0.308860
O22	O	-4.115888	0.383275	0.191140
O23	O	-4.328944	-0.112408	-0.111489
O24	O	-3.828944	0.387592	0.388511
C25	C	-3.812458	-0.280411	-0.214508
C26	C	-3.312458	0.219589	0.285492
C27	C	-3.857286	-0.381451	-0.214087
C28	C	-3.357286	0.118549	0.285913
C29	C	-3.843550	-0.415665	-0.149543
C30	C	-3.343550	0.084335	0.350457
C31	C	-3.913133	-0.442179	-0.278237
C32	C	-3.413133	0.057821	0.221763
C33	C	-3.955248	-0.537112	-0.277845
C34	C	-3.455248	-0.037112	0.222155
C35	C	-3.941512	-0.571326	-0.213302
C36	C	-3.441512	-0.071326	0.286698
C37	C	-3.885662	-0.510607	-0.149150
C38	C	-3.385662	-0.010607	0.350850
C39	C	-4.011081	-0.597838	-0.341996
C40	C	-3.511081	-0.097838	0.158004
C41	C	-4.053198	-0.692778	-0.341607
C42	C	-3.553198	-0.192778	0.158393
C43	C	-4.039477	-0.726994	-0.277062
C44	C	-3.539477	-0.226994	0.222938
C45	C	-3.983624	-0.666268	-0.212908
C46	C	-3.483624	-0.166268	0.287092
C47	C	-3.969888	-0.700482	-0.148364
C48	C	-3.469888	-0.200482	0.351636
C49	C	-3.914051	-0.639758	-0.084209
C50	C	-3.414051	-0.139758	0.415791
C51	C	-3.871941	-0.544823	-0.084605
C52	C	-3.371941	-0.044823	0.415395
C53	C	-4.081587	-0.821930	-0.276666
C54	C	-3.581587	-0.321930	0.223334
C55	C	-4.012000	-0.795424	-0.147970
C56	C	-3.512000	-0.295424	0.352030
C57	C	-3.796361	-0.120815	-0.337991
C58	C	-3.296361	0.379185	0.162009
C59	C	-3.830951	-0.120388	-0.416073
C60	C	-3.330951	0.379612	0.083927
C61	C	-3.889051	-0.203470	-0.462915
C62	C	-3.389051	0.296530	0.037085
C63	C	-3.921577	-0.203079	-0.536282
C64	C	-3.421577	0.296921	-0.036282
C65	C	-3.895959	-0.119601	-0.562803
C66	C	-3.395959	0.380399	-0.062803
C67	C	-3.837861	-0.036509	-0.515951
C68	C	-3.337861	0.463491	-0.015951
C69	C	-3.805357	-0.036903	-0.442586
C70	C	-3.305357	0.463097	0.057414
N71	N	-3.802229	-0.054151	-0.668190
N72	N	-3.302229	0.445849	-0.168190
N73	N	-3.833104	-0.053782	-0.737884
N74	N	-3.333104	0.446218	-0.237884
C75	C	-3.993893	-0.118409	-0.783849
C76	C	-3.493893	0.381591	-0.283849
N77	N	-4.122621	-0.183431	-0.757487
N78	N	-3.622621	0.316569	-0.257487
N79	N	-4.091734	-0.183803	-0.687786
N80	N	-3.591734	0.316197	-0.187786
C81	C	-3.931200	-0.119164	-0.642355
C82	C	-3.431200	0.380836	-0.142355
C83	C	-4.087266	-0.201072	-0.910245
C84	C	-3.587266	0.298928	-0.410245
C85	C	-4.119803	-0.200678	-0.983614
C86	C	-3.619803	0.299322	-0.483614
C87	C	-4.036065	-0.034105	-0.963281
C88	C	-3.536065	0.465895	-0.463281
C89	C	-4.003550	-0.034502	-0.889914
C90	C	-3.503550	0.465498	-0.389914
C91	C	-4.029145	-0.117988	-0.863401
C92	C	-3.529145	0.382012	-0.363401
C93	C	-4.133440	0.042817	-0.211697
C94	C	-3.633440	0.542817	0.288303
C95	C	-4.067851	0.143856	-0.212122
C96	C	-3.567851	0.643856	0.287878
C97	C	-4.149538	-0.116777	-0.088212
C98	C	-3.649538	0.383223	0.411788
C99	C	-4.094186	-0.117199	-0.010130
C100	C	-3.594186	0.382801	0.489870
H101	H	-4.022244	-0.569973	-0.394543
H102	H	-3.522244	-0.069973	0.105457
Cl103	Cl	-4.003886	0.070839	-0.996615
Cl104	Cl	-3.503886	0.570839	-0.496615
H105	H	-4.167128	-0.268336	-1.021753
H106	H	-3.667128	0.231664	-0.521753
Cl107	Cl	-4.123322	-0.769106	-0.422256
Cl108	Cl	-3.623322	-0.269106	0.077744
Cl109	Cl	-3.930427	0.069951	-0.831022
Cl110	Cl	-3.430427	0.569951	-0.331022
H111	H	-3.758046	0.030754	-0.404446
H112	H	-3.258046	0.530754	0.095554
Cl113	Cl	-3.994622	-0.307531	-0.595181
Cl114	Cl	-3.494622	0.192469	-0.095181
Cl115	Cl	-3.773416	-0.339332	-0.068897
Cl116	Cl	-3.273416	0.160668	0.431103
Cl117	Cl	-4.151821	-0.898264	-0.357312
Cl118	Cl	-3.651821	-0.398264	0.142688
Cl119	Cl	-3.801824	-0.468483	-0.003963
Cl120	Cl	-3.301824	0.031517	0.496037
Cl121	Cl	-3.805665	0.068435	-0.549291
Cl122	Cl	-3.305665	0.568435	-0.049291
H123	H	-4.108110	-0.269051	-0.888657
H124	H	-3.608110	0.230949	-0.388657
H125	H	-4.000818	-0.823273	-0.095411
H126	H	-3.500818	-0.323273	0.404589
H127	H	-3.902859	-0.667628	-0.031657
H128	H	-3.402859	-0.167628	0.468343
Cl129	Cl	-3.930365	-0.399164	-0.359372
Cl130	Cl	-3.430365	0.100836	0.140628
H131	H	-3.909905	-0.271450	-0.441333
H132	H	-3.409905	0.228550	0.058667
