data_functionalizedCrystal
_audit_creation_method	'MofGen! by Chris Wilmer'
_symmetry_space_group_name_H-M	'P1'
_symmetry_Int_Tables_number	1
_symmetry_cell_setting	triclinic
loop_
_symmetry_equiv_pos_as_xyz
  x,y,z
_cell_length_a	19.188930
_cell_length_b	14.519709
_cell_length_c	13.596369
_cell_angle_alpha	89.999684
_cell_angle_beta	90.005514
_cell_angle_gamma	96.587536
loop_
_atom_site_label
_atom_site_type_symbol
_atom_site_fract_x
_atom_site_fract_y
_atom_site_fract_z
O1	O	0.091519	-1.223302	0.081675
O2	O	0.591519	-0.723302	0.581675
O3	O	0.102297	-0.954758	0.081706
O4	O	0.602297	-0.454758	0.581706
O5	O	-0.004720	-1.096779	0.081670
O6	O	0.495280	-0.596779	0.581670
O7	O	0.198536	-1.081280	0.081711
O8	O	0.698536	-0.581280	0.581711
O9	O	-0.004714	-1.096762	-0.081912
O10	O	0.495286	-0.596762	0.418088
O11	O	0.102303	-0.954740	-0.081877
O12	O	0.602303	-0.454740	0.418123
O13	O	0.091525	-1.223284	-0.081908
O14	O	0.591525	-0.723284	0.418092
Zn15	Zn	0.096915	-1.089009	-0.107865
Zn16	Zn	0.596915	-0.589009	0.392135
Zn17	Zn	0.096907	-1.089032	0.107663
Zn18	Zn	0.596907	-0.589032	0.607663
O19	O	0.198542	-1.081263	-0.081872
O20	O	0.698542	-0.581263	0.418128
C21	C	-0.030730	-1.096269	-0.000124
C22	C	0.469270	-0.596269	0.499876
C23	C	-0.108240	-1.094762	-0.000132
C24	C	0.391760	-0.594762	0.499868
C25	C	0.101797	-0.920392	-0.000081
C26	C	0.601797	-0.420392	0.499919
C27	C	0.100292	-0.818020	-0.000070
C28	C	0.600292	-0.318020	0.499930
C29	C	0.092024	-1.257649	-0.000118
C30	C	0.592024	-0.757649	0.499882
C31	C	0.093529	-1.360021	-0.000123
C32	C	0.593529	-0.860021	0.499877
C33	C	-0.152867	-1.178095	-0.000146
C34	C	0.347133	-0.678095	0.499854
C35	C	-0.225696	-1.176680	-0.000131
C36	C	0.274304	-0.676680	0.499869
C37	C	-0.253895	-1.091926	-0.000120
C38	C	0.246105	-0.591926	0.499880
C39	C	-0.209257	-1.008582	-0.000100
C40	C	0.290743	-0.508582	0.499900
C41	C	-0.136430	-1.009999	-0.000106
C42	C	0.363570	-0.509999	0.499894
N43	N	-0.362128	-1.027136	-0.055783
N44	N	0.137872	-0.527136	0.444217
N45	N	-0.431312	-1.025795	-0.055779
N46	N	0.068688	-0.525795	0.444221
C47	C	-0.473318	-1.087649	-0.000100
C48	C	0.026682	-0.587649	0.499900
N49	N	-0.443530	-1.150909	0.055564
N50	N	0.056470	-0.650909	0.555564
N51	N	-0.374340	-1.152253	0.055556
N52	N	0.125660	-0.652253	0.555556
C53	C	-0.332863	-1.090379	-0.000113
C54	C	0.167137	-0.590379	0.499887
C55	C	-0.596916	-1.169454	-0.000095
C56	C	-0.096916	-0.669454	0.499905
C57	C	-0.669745	-1.168035	-0.000073
C58	C	-0.169745	-0.668035	0.499927
C59	C	-0.653305	-0.999934	-0.000053
C60	C	-0.153305	-0.499934	0.499947
C61	C	-0.580477	-1.001355	-0.000065
C62	C	-0.080477	-0.501355	0.499935
C63	C	-0.552287	-1.086118	-0.000091
C64	C	-0.052287	-0.586118	0.499909
C65	C	0.224551	-1.081773	-0.000076
C66	C	0.724551	-0.581773	0.499924
C67	C	0.302061	-1.083280	-0.000061
C68	C	0.802061	-0.583280	0.499939
N69	N	0.096919	-1.089000	-0.254956
N70	N	0.596919	-0.589000	0.245044
C71	C	0.094751	-0.443159	-0.000116
C72	C	0.594751	0.056841	0.499884
C73	C	0.096290	-0.547457	-0.000103
C74	C	0.596290	-0.047457	0.499897
C75	C	0.097521	-0.630586	-0.000092
C76	C	0.597521	-0.130586	0.499908
C77	C	0.099060	-0.734891	-0.000081
C78	C	0.599060	-0.234891	0.499919
C79	C	0.096921	-1.089005	-0.343954
C80	C	0.596921	-0.589005	0.156046
C81	C	0.096916	-1.089014	-0.455606
C82	C	0.596916	-0.589014	0.044394
C83	C	0.096908	-1.089026	-0.544596
C84	C	0.596908	-0.589026	-0.044596
C85	C	0.096904	-1.089037	-0.656255
C86	C	0.596904	-0.589037	-0.156255
N87	N	0.096896	-1.089049	0.254755
N88	N	0.596896	-0.589049	0.754755
H89	H	-0.129920	-1.247116	-0.000164
H90	H	0.370080	-0.747116	0.499836
H91	H	-0.262039	-1.244542	-0.000138
H92	H	0.237961	-0.744542	0.499862
H93	H	-0.544140	-0.933496	-0.000058
H94	H	-0.044140	-0.433496	0.499942
N95	N	-0.683701	-0.908513	-0.000039
N96	N	-0.183701	-0.408513	0.499961
H97	H	-0.713543	-0.904182	0.060605
H98	H	-0.213543	-0.404182	0.560605
H99	H	-0.713522	-0.904222	-0.060715
H100	H	-0.213522	-0.404222	0.439285
H101	H	-0.232221	-0.939574	-0.000089
H102	H	0.267779	-0.439574	0.499911
H103	H	-0.706081	-1.235898	-0.000080
H104	H	-0.206081	-0.735898	0.499920
H105	H	-0.100094	-0.942137	-0.000095
H106	H	0.399906	-0.442137	0.499905
H107	H	-0.573962	-1.238472	-0.000112
H108	H	-0.073962	-0.738472	0.499888
