data_functionalizedCrystal
_audit_creation_method	'MofGen! by Chris Wilmer'
_symmetry_space_group_name_H-M	'P1'
_symmetry_Int_Tables_number	1
_symmetry_cell_setting	triclinic
loop_
_symmetry_equiv_pos_as_xyz
  x,y,z
_cell_length_a	6.817900
_cell_length_b	14.125469
_cell_length_c	14.125286
_cell_angle_alpha	96.239252
_cell_angle_beta	79.603312
_cell_angle_gamma	79.601122
loop_
_atom_site_label
_atom_site_type_symbol
_atom_site_fract_x
_atom_site_fract_y
_atom_site_fract_z
V1	V	3.975822	-0.132372	-0.299621
O2	O	3.980364	0.007125	-0.294300
O3	O	3.912243	-0.263207	-0.297204
O4	O	3.912252	-0.130000	-0.430464
O5	O	3.980355	-0.127003	-0.160117
V6	V	4.463383	-0.115726	-0.282980
O7	O	4.228224	-0.168886	-0.336124
O8	O	4.661179	-0.079212	-0.246476
O9	O	4.303756	0.015109	-0.285397
O10	O	4.576238	-0.255224	-0.288301
O11	O	4.576247	-0.121095	-0.422483
O12	O	4.303747	-0.118098	-0.152137
C13	C	3.754042	-0.295112	-0.292382
C14	C	3.783244	-0.402069	-0.291278
C15	C	3.836775	-0.597899	-0.289271
C16	C	4.021797	-0.650211	-0.293333
C17	C	4.051585	-0.759178	-0.292216
C18	C	3.806979	-0.488922	-0.290388
C19	C	3.754053	-0.125193	-0.462367
C20	C	3.783260	-0.124119	-0.569330
C21	C	4.125299	0.047009	-0.290216
C22	C	4.075334	0.153965	-0.291326
C23	C	4.021802	-0.126069	-0.817446
C24	C	3.836784	-0.122027	-0.765143
C25	C	3.807004	-0.123191	-0.656182
C26	C	4.051591	-0.124905	-0.926417
C27	C	4.125289	-0.122908	-0.120228
C28	C	4.075321	-0.123977	-0.013265
H29	H	3.700750	-0.117690	-0.802196
O30	O	4.184079	-0.131420	-0.773233
C31	C	4.389510	-0.221877	-0.678099
C32	C	4.205724	-0.215943	-0.728161
H33	H	4.407043	-0.290197	-0.641629
H34	H	4.533619	-0.224807	-0.734632
H35	H	4.363837	-0.154969	-0.620914
H36	H	4.231198	-0.282834	-0.785341
H37	H	4.061678	-0.212965	-0.671572
H38	H	4.157829	-0.613160	-0.297647
O39	O	3.674696	-0.642237	-0.284075
C40	C	3.557131	-0.792874	-0.278299
C41	C	3.740842	-0.742767	-0.284168
H42	H	3.610550	-0.874163	-0.278393
H43	H	3.440749	-0.760463	-0.208499
H44	H	3.484098	-0.781091	-0.343736
H45	H	3.814043	-0.754531	-0.218781
H46	H	3.857089	-0.775185	-0.354009
