data_functionalizedCrystal
_audit_creation_method	'MofGen! by Chris Wilmer'
_symmetry_space_group_name_H-M	'P1'
_symmetry_Int_Tables_number	1
_symmetry_cell_setting	triclinic
loop_
_symmetry_equiv_pos_as_xyz
  x,y,z
_cell_length_a	25.639239
_cell_length_b	17.077404
_cell_length_c	17.077396
_cell_angle_alpha	89.981638
_cell_angle_beta	89.968926
_cell_angle_gamma	90.036656
loop_
_atom_site_label
_atom_site_type_symbol
_atom_site_fract_x
_atom_site_fract_y
_atom_site_fract_z
Zn1	Zn	-0.208179	1.199968	-0.443805
Zn2	Zn	0.291821	1.699968	0.056195
Zn3	Zn	-0.295617	1.199839	-0.312533
Zn4	Zn	0.204383	1.699839	0.187467
Zn5	Zn	-0.208194	1.068700	-0.312555
Zn6	Zn	0.291806	1.568700	0.187445
Zn7	Zn	-0.295582	1.068632	-0.443759
Zn8	Zn	0.204418	1.568632	0.056241
O9	O	-0.251893	1.134285	-0.378163
O10	O	0.248107	1.634285	0.121837
O11	O	-0.219786	1.309798	-0.426401
O12	O	0.280214	1.809798	0.073599
O13	O	-0.284041	1.182418	-0.202689
O14	O	0.215959	1.682418	0.297311
O15	O	-0.135027	1.086196	-0.329994
O16	O	0.364973	1.586196	0.170006
O17	O	-0.284026	1.309703	-0.329956
O18	O	0.215974	1.809703	0.170044
O19	O	-0.135016	1.182638	-0.426423
O20	O	0.364984	1.682638	0.073577
O21	O	-0.219811	1.086071	-0.202705
O22	O	0.280189	1.586071	0.297295
O23	O	-0.219778	0.958844	-0.329950
O24	O	0.280222	1.458844	0.170050
O25	O	-0.283967	1.086080	-0.553612
O26	O	0.216033	1.586080	-0.053612
O27	O	-0.283982	0.958794	-0.426345
O28	O	0.216018	1.458794	0.073655
O29	O	-0.219753	1.182572	-0.553646
O30	O	0.280247	1.682572	-0.053646
O31	O	-0.368777	1.182352	-0.329912
O32	O	0.131223	1.682352	0.170088
O33	O	-0.368752	1.085954	-0.426323
O34	O	0.131248	1.585954	0.073677
C35	C	-0.251878	0.930337	-0.378145
C36	C	0.248122	1.430337	0.121855
C37	C	-0.251884	0.843087	-0.378156
C38	C	0.248116	1.343087	0.121844
C39	C	-0.218494	0.802147	-0.428452
C40	C	0.281506	1.302147	0.071548
C41	C	-0.218498	0.720167	-0.428456
C42	C	0.281502	1.220167	0.071544
C43	C	-0.251894	0.679128	-0.378167
C44	C	0.248106	1.179128	0.121833
C45	C	-0.285286	0.720074	-0.327866
C46	C	0.214714	1.220074	0.172134
C47	C	-0.285280	0.802053	-0.327859
C48	C	0.214720	1.302053	0.172141
C49	C	-0.285298	0.549204	-0.327885
C50	C	0.214702	1.049204	0.172115
C51	C	-0.285305	0.467219	-0.327893
C52	C	0.214695	0.967219	0.172107
C53	C	-0.218516	0.467318	-0.428482
C54	C	0.281484	0.967318	0.071518
C55	C	-0.218509	0.549297	-0.428475
C56	C	0.281491	1.049297	0.071525
C57	C	-0.251902	0.590237	-0.378175
C58	C	0.248098	1.090237	0.121825
C59	C	-0.387736	1.134153	-0.378127
C60	C	0.112264	1.634153	0.121873
C61	C	-0.445850	1.134168	-0.378138
C62	C	0.054150	1.634168	0.121862
C63	C	-0.806213	1.184610	-0.328047
C64	C	-0.306213	1.684610	0.171953
C65	C	-0.860818	1.184641	-0.328058
C66	C	-0.360818	1.684641	0.171942
O67	O	-0.889055	1.227391	-0.285429
O68	O	-0.389055	1.727391	0.214571
N69	N	-0.888132	1.134423	-0.378215
N70	N	-0.388132	1.634423	0.121785
C71	C	-0.860839	1.084177	-0.428371
C72	C	-0.360839	1.584177	0.071629
O73	O	-0.889086	1.041467	-0.471035
O74	O	-0.389086	1.541467	0.028965
C75	C	-0.806236	1.084151	-0.428364
C76	C	-0.306236	1.584151	0.071636
C77	C	-0.778924	1.134367	-0.378197
C78	C	-0.278924	1.634367	0.121803
C79	C	-0.778902	1.234822	-0.277885
C80	C	-0.278902	1.734822	0.222115
C81	C	-0.724301	1.234790	-0.277874
C82	C	-0.224301	1.734790	0.222126
C83	C	-0.697012	1.184547	-0.328024
C84	C	-0.197012	1.684547	0.171976
C85	C	-0.724324	1.134335	-0.378186
C86	C	-0.224324	1.634335	0.121814
C87	C	-0.778944	1.033910	-0.478523
C88	C	-0.278944	1.533910	0.021477
C89	C	-0.724337	1.033889	-0.478512
C90	C	-0.224337	1.533889	0.021488
C91	C	-0.697026	1.084104	-0.428345
C92	C	-0.197026	1.584104	0.071655
C93	C	-0.642435	1.084060	-0.428325
C94	C	-0.142435	1.584060	0.071675
N95	N	-0.615120	1.134277	-0.378167
N96	N	-0.115120	1.634277	0.121833
C97	C	-0.642409	1.184521	-0.328017
C98	C	-0.142409	1.684521	0.171983
C99	C	-0.975510	1.084236	-0.428383
C100	C	-0.475510	1.584236	0.071617
C101	C	-1.030112	1.084258	-0.428386
C102	C	-0.530112	1.584258	0.071614
C103	C	-1.030087	1.184722	-0.328074
C104	C	-0.530087	1.684722	0.171926
C105	C	-0.975483	1.184696	-0.328067
C106	C	-0.475483	1.684696	0.171933
C107	C	-0.948196	1.134454	-0.378225
C108	C	-0.448196	1.634454	0.121775
C109	C	-0.527744	1.184450	-0.327997
C110	C	-0.027744	1.684450	0.172003
C111	C	-0.473138	1.184412	-0.327988
C112	C	0.026862	1.684412	0.172012
C113	C	-0.473169	1.083951	-0.428302
C114	C	0.026831	1.583951	0.071698
C115	C	-0.527769	1.083986	-0.428309
C116	C	-0.027769	1.583986	0.071691
C117	C	-0.555056	1.134242	-0.378154
C118	C	-0.055056	1.634242	0.121846
O119	O	-0.614163	1.041333	-0.470934
O120	O	-0.114163	1.541333	0.029066
O121	O	-0.614155	1.227232	-0.285367
O122	O	-0.114155	1.727232	0.214633
C123	C	-0.115520	1.134439	-0.378216
C124	C	0.384480	1.634439	0.121784
C125	C	-0.057406	1.134504	-0.378239
C126	C	0.442594	1.634504	0.121761
C127	C	-0.251855	1.134332	-0.582907
C128	C	0.248145	1.634332	-0.082907
C129	C	-0.251838	1.134353	-0.670157
C130	C	0.248162	1.634353	-0.170157
C131	C	-0.251908	1.339029	-0.378181
C132	C	0.248092	1.839029	0.121819
C133	C	-0.251915	1.426279	-0.378189
C134	C	0.248085	1.926279	0.121811
C135	C	-0.218399	1.184598	-0.711166
C136	C	0.281601	1.684598	-0.211166
C137	C	-0.218381	1.184608	-0.793147
C138	C	0.281619	1.684608	-0.293147
C139	C	-0.251806	1.134375	-0.834117
C140	C	0.248194	1.634375	-0.334117
C141	C	-0.285247	1.084124	-0.793102
C142	C	0.214753	1.584124	-0.293102
C143	C	-0.285262	1.084111	-0.711123
C144	C	0.214738	1.584111	-0.211123
C145	C	-0.285216	1.084156	-0.963972
C146	C	0.214784	1.584156	-0.463972
C147	C	-0.285202	1.084169	-1.045957
C148	C	0.214798	1.584169	-0.545957
C149	C	-0.218335	1.184652	-1.045996
C150	C	0.281665	1.684652	-0.545996
C151	C	-0.218350	1.184639	-0.964017
C152	C	0.281650	1.684639	-0.464017
C153	C	-0.251792	1.134389	-0.923008
C154	C	0.248208	1.634389	-0.423008
C155	C	-0.251894	1.134283	-0.174215
C156	C	0.248106	1.634283	0.325785
C157	C	-0.251763	1.134415	-0.086966
C158	C	0.248237	1.634415	0.413034
H159	H	-0.191300	0.835555	-0.469405
H160	H	0.308700	1.335555	0.030595
Br161	Br	-0.815996	0.965765	-0.546618
Br162	Br	-0.315996	1.465765	-0.046618
H163	H	-0.191182	1.225506	-0.677814
H164	H	0.308818	1.725506	-0.177814
Br165	Br	-0.436076	1.252564	-0.259899
Br166	Br	0.063924	1.752564	0.240101
Br167	Br	-0.330607	1.015946	-0.848703
Br168	Br	0.169393	1.515946	-0.348703
H169	H	-0.702122	0.992977	-0.519359
H170	H	-0.202122	1.492977	-0.019359
H171	H	-0.312476	0.686653	-0.286916
H172	H	0.187524	1.186653	0.213084
Br173	Br	-0.173191	0.604993	-0.496733
Br174	Br	0.326809	1.104993	0.003267
Br175	Br	-0.173180	0.664608	-0.496717
Br176	Br	0.326820	1.164608	0.003283
Br177	Br	-0.173197	0.411758	-0.496747
Br178	Br	0.326803	0.911758	0.003253
Br179	Br	-0.564837	1.015817	-0.496373
Br180	Br	-0.064837	1.515817	0.003627
Br181	Br	-0.330596	0.857615	-0.259597
Br182	Br	0.169404	1.357615	0.240403
H183	H	-0.953295	1.043317	-0.469225
H184	H	-0.453295	1.543317	0.030775
H185	H	-0.191153	1.225524	-0.826532
H186	H	0.308847	1.725524	-0.326532
H187	H	-0.312500	0.433807	-0.286944
H188	H	0.187500	0.933807	0.213056
Br189	Br	-0.330642	1.015914	-0.655467
Br190	Br	0.169358	1.515914	-0.155467
H191	H	-0.191135	1.225547	-0.930661
H192	H	0.308865	1.725547	-0.430661
H193	H	-0.312488	0.582535	-0.286924
H194	H	0.187512	1.082535	0.213076
H195	H	-0.549954	1.225375	-0.287157
H196	H	-0.049954	1.725375	0.212843
Br197	Br	-0.687244	1.302955	-0.209799
Br198	Br	-0.187244	1.802955	0.290201
H199	H	-0.450942	1.043040	-0.469132
H200	H	0.049058	1.543040	0.030868
Br201	Br	-0.815926	1.303021	-0.209817
Br202	Br	-0.315926	1.803021	0.290183
Br203	Br	-0.172952	1.252852	-1.101649
Br204	Br	0.327048	1.752852	-0.601649
H205	H	-0.953249	1.225586	-0.287218
H206	H	-0.453249	1.725586	0.212782
Br207	Br	-1.067132	1.252907	-0.260009
Br208	Br	-0.567132	1.752907	0.239991
H209	H	-1.052345	1.043360	-0.469230
H210	H	-0.552345	1.543360	0.030770
H211	H	-0.312419	1.043264	-1.079312
H212	H	0.187581	1.543264	-0.579312
H213	H	-0.312439	1.043225	-0.930585
H214	H	0.187561	1.543225	-0.430585
