data_functionalizedCrystal
_audit_creation_method	'MofGen! by Chris Wilmer'
_symmetry_space_group_name_H-M	'P1'
_symmetry_Int_Tables_number	1
_symmetry_cell_setting	triclinic
loop_
_symmetry_equiv_pos_as_xyz
  x,y,z
_cell_length_a	19.288840
_cell_length_b	15.995292
_cell_length_c	18.366186
_cell_angle_alpha	89.996953
_cell_angle_beta	89.983729
_cell_angle_gamma	83.297316
loop_
_atom_site_label
_atom_site_type_symbol
_atom_site_fract_x
_atom_site_fract_y
_atom_site_fract_z
O1	O	0.921617	0.104354	-0.060666
O2	O	1.421617	0.604354	0.439334
O3	O	0.719388	0.118467	-0.060640
O4	O	1.219388	0.618467	0.439360
O5	O	0.826051	-0.010502	-0.060655
O6	O	1.326051	0.489498	0.439345
O7	O	0.814953	0.233323	-0.060651
O8	O	1.314953	0.733323	0.439349
O9	O	0.826033	-0.010508	0.060444
O10	O	1.326033	0.489492	0.560444
O11	O	0.719370	0.118461	0.060459
O12	O	1.219370	0.618461	0.560459
O13	O	0.921599	0.104348	0.060433
O14	O	1.421599	0.604348	0.560433
Zn15	Zn	0.820481	0.111403	0.079673
Zn16	Zn	1.320481	0.611403	0.579673
Zn17	Zn	0.820505	0.111412	-0.079880
Zn18	Zn	1.320505	0.611412	0.420120
O19	O	0.814935	0.233317	0.060448
O20	O	1.314935	0.733317	0.560448
C21	C	0.693501	0.118013	-0.000087
C22	C	1.193501	0.618013	0.499913
C23	C	0.616393	0.116661	-0.000078
C24	C	1.116393	0.616661	0.499922
C25	C	0.580198	0.116014	-0.066091
C26	C	1.080198	0.616014	0.433909
C27	C	0.507748	0.114734	-0.066100
C28	C	1.007748	0.614734	0.433900
C29	C	0.471498	0.114083	-0.000092
C30	C	0.971498	0.614083	0.499908
C31	C	0.507701	0.114735	0.065930
C32	C	1.007701	0.614735	0.565930
C33	C	0.580149	0.116023	0.065937
C34	C	1.080149	0.616023	0.565937
C35	C	0.362039	0.062995	0.050469
C36	C	0.862039	0.562995	0.550469
C37	C	0.289593	0.061701	0.050459
C38	C	0.789593	0.561701	0.550459
C39	C	0.248044	0.110112	-0.000111
C40	C	0.748044	0.610112	0.499889
C41	C	0.278952	0.159807	-0.050683
C42	C	0.778952	0.659807	0.449317
C43	C	0.351400	0.161096	-0.050676
C44	C	0.851400	0.661096	0.449324
C45	C	0.392940	0.112686	-0.000092
C46	C	0.892940	0.612686	0.499908
C47	C	0.133290	0.108079	-0.066138
C48	C	0.633290	0.608079	0.433862
C49	C	0.060839	0.106804	-0.066144
C50	C	0.560839	0.606804	0.433856
C51	C	0.060794	0.106796	0.065887
C52	C	0.560794	0.606796	0.565887
C53	C	0.133244	0.108079	0.065892
C54	C	0.633244	0.608079	0.565892
C55	C	0.169488	0.108717	-0.000123
C56	C	0.669488	0.608717	0.499877
C57	C	0.825591	-0.041699	-0.000107
C58	C	1.325591	0.458301	0.499893
C59	C	0.824236	-0.134646	-0.000112
C60	C	1.324236	0.365354	0.499888
C61	C	0.819258	-0.472366	-0.000105
C62	C	1.319258	0.027634	0.499895
C63	C	0.896245	-0.449352	0.000155
C64	C	1.396245	0.050648	0.500155
C65	C	0.897708	-0.352682	-0.000120
C66	C	1.397708	0.147318	0.499880
C67	C	0.821728	-0.304819	-0.000108
C68	C	1.321728	0.195181	0.499892
C69	C	0.783249	-0.333767	-0.069255
C70	C	1.283249	0.166233	0.430745
C71	C	0.782322	-0.430554	-0.069310
C72	C	1.282322	0.069446	0.430690
C73	C	0.780729	-0.430412	0.068403
C74	C	1.280729	0.069588	0.568403
C75	C	0.783582	-0.333931	0.069314
C76	C	1.283582	0.166069	0.569314
C77	C	0.823120	-0.210129	-0.000113
C78	C	1.323120	0.289871	0.499887
C79	C	0.817864	-0.567056	-0.000106
C80	C	1.317864	-0.067056	0.499894
C81	C	0.947485	0.104802	-0.000121
C82	C	1.447485	0.604802	0.499879
C83	C	1.024593	0.106155	-0.000136
C84	C	1.524593	0.606155	0.499864
C85	C	0.815396	0.264514	-0.000102
C86	C	1.315396	0.764514	0.499898
C87	C	0.816750	0.357462	-0.000101
C88	C	1.316750	0.857462	0.499899
N89	N	0.820470	0.111397	0.188564
N90	N	1.320470	0.611397	0.688564
N91	N	0.820522	0.111411	-0.188772
N92	N	1.320522	0.611411	0.311228
C93	C	0.867716	0.054318	0.226658
C94	C	1.367716	0.554318	0.726658
C95	C	0.867720	0.054314	0.302886
C96	C	1.367720	0.554314	0.802886
C97	C	0.820485	0.111404	0.341017
C98	C	1.320485	0.611404	0.841017
C99	C	0.773230	0.168488	0.302914
C100	C	1.273230	0.668488	0.802914
C101	C	0.773223	0.168484	0.226688
C102	C	1.273223	0.668484	0.726688
C103	C	0.811372	0.187698	0.461779
C104	C	1.311372	0.687698	0.961779
C105	C	0.811384	0.187703	0.538004
C106	C	1.311384	0.687703	1.038004
C107	C	0.820505	0.111415	0.576125
C108	C	1.320505	0.611415	1.076125
C109	C	0.829628	0.035119	0.538011
C110	C	1.329628	0.535119	1.038011
C111	C	0.829620	0.035115	0.461784
C112	C	1.329620	0.535115	0.961784
C113	C	0.820488	0.111414	0.423672
C114	C	1.320488	0.611414	0.923672
C115	C	0.867759	0.054326	0.696873
C116	C	1.367759	0.554326	1.196873
C117	C	0.867758	0.054322	0.773103
C118	C	1.367758	0.554322	1.273103
C119	C	0.773271	0.168503	0.773129
C120	C	1.273271	0.668503	1.273129
C121	C	0.773269	0.168500	0.696901
C122	C	1.273269	0.668500	1.196901
C123	C	0.820516	0.111413	0.658778
C124	C	1.320516	0.611413	1.158778
H125	H	0.609618	0.116550	0.119695
H126	H	1.109618	0.616550	0.619695
C127	C	0.707717	-0.290417	-0.072723
C128	C	1.207717	0.209583	0.427277
N129	N	0.650828	-0.257762	-0.075334
N130	N	1.150828	0.242238	0.424666
H131	H	0.734748	0.214966	0.195671
H132	H	1.234748	0.714966	0.695671
C133	C	0.708658	-0.289104	0.074967
C134	C	1.208658	0.210896	0.574967
N135	N	0.652221	-0.255342	0.079219
N136	N	1.152221	0.244658	0.579219
C137	C	0.706067	-0.449918	-0.073552
C138	C	1.206067	0.050082	0.426448
N139	N	0.648633	-0.464499	-0.076754
N140	N	1.148633	0.035501	0.423246
C141	C	0.620062	0.116714	-0.138709
C142	C	1.120062	0.616714	0.361291
N143	N	0.650090	0.117239	-0.193406
N144	N	1.150090	0.617239	0.306594
C145	C	0.173160	0.108795	-0.138755
C146	C	0.673160	0.608795	0.361245
N147	N	0.203187	0.109338	-0.193451
N148	N	0.703187	0.609338	0.306549
C149	C	0.704177	-0.449029	0.069052
C150	C	1.204177	0.050971	0.569052
N151	N	0.646521	-0.463060	0.069538
N152	N	1.146521	0.036940	0.569538
H153	H	0.245124	0.199232	-0.091859
H154	H	0.745124	0.699232	0.408141
H155	H	0.925762	-0.478482	-0.049162
H156	H	1.425762	0.021518	0.450838
C157	C	0.919704	-0.008472	0.344798
C158	C	1.419704	0.491528	0.844798
N159	N	0.958861	-0.055759	0.376363
N160	N	1.458861	0.444241	0.876363
H161	H	0.809985	-0.313808	-0.120722
H162	H	1.309985	0.186192	0.379278
H163	H	0.734799	0.214983	0.665883
H164	H	1.234799	0.714983	1.165883
C165	C	0.938422	-0.327139	0.066841
C166	C	1.438422	0.172861	0.566841
N167	N	0.969092	-0.307906	0.117276
N168	N	1.469092	0.192094	0.617276
C169	C	0.721269	0.231284	0.344860
C170	C	1.221269	0.731284	0.844860
N171	N	0.682127	0.278580	0.376453
N172	N	1.182127	0.778580	0.876453
C173	C	0.813303	-0.468712	0.139208
C174	C	1.313303	0.031288	0.639208
N175	N	0.837846	-0.497560	0.192535
N176	N	1.337846	0.002440	0.692535
C177	C	0.839646	-0.048809	0.419862
C178	C	1.339646	0.451191	0.919862
N179	N	0.847193	-0.112022	0.388286
N180	N	1.347193	0.387978	0.888286
C181	C	0.938679	-0.327970	-0.067213
C182	C	1.438679	0.172030	0.432787
N183	N	0.969538	-0.309357	-0.117751
N184	N	1.469538	0.190643	0.382249
C185	C	0.818355	-0.466922	-0.139144
C186	C	1.318355	0.033078	0.360856
N187	N	0.845499	-0.494310	-0.191743
N188	N	1.345499	0.005690	0.308257
C189	C	0.936328	-0.487339	0.067144
C190	C	1.436328	0.012661	0.567144
N191	N	0.966519	-0.515958	0.117602
N192	N	1.466519	-0.015958	0.617602
H193	H	0.811601	-0.315477	0.120468
H194	H	1.311601	0.184523	0.620468
C195	C	0.919683	-0.008488	0.184727
C196	C	1.419683	0.491512	0.684727
N197	N	0.958823	-0.055797	0.153143
N198	N	1.458823	0.444203	0.653143
C199	C	0.801342	0.271629	0.579922
C200	C	1.301342	0.771629	1.079922
N201	N	0.793774	0.334845	0.611493
N202	N	1.293774	0.834845	1.111493
C203	C	0.839660	-0.048806	0.579937
C204	C	1.339660	0.451194	1.079937
N205	N	0.847216	-0.112015	0.611520
N206	N	1.347216	0.387985	1.111520
C207	C	0.919725	-0.008478	0.654935
C208	C	1.419725	0.491522	1.154935
N209	N	0.958865	-0.055784	0.623349
N210	N	1.458865	0.444216	1.123349
H211	H	0.803933	0.249825	0.430748
H212	H	1.303933	0.749825	0.930748
C213	C	0.721312	0.231304	0.815069
C214	C	1.221312	0.731304	1.315069
N215	N	0.682175	0.278606	0.846662
N216	N	1.182175	0.778606	1.346662
C217	C	0.467926	0.114017	-0.138722
C218	C	0.967926	0.614017	0.361278
N219	N	0.437934	0.113475	-0.193422
N220	N	0.937934	0.613475	0.306578
C221	C	0.385390	0.215803	-0.106272
C222	C	0.885390	0.715803	0.393728
N223	N	0.410990	0.257027	-0.148135
N224	N	0.910990	0.757027	0.351865
C225	C	0.919724	-0.008488	0.815006
C226	C	1.419724	0.491512	1.315006
N227	N	0.958862	-0.055801	0.846568
N228	N	1.458862	0.444199	1.346568
H229	H	0.395862	0.023570	0.091652
H230	H	0.895862	0.523570	0.591652
H231	H	0.031369	0.106283	-0.119903
H232	H	0.531369	0.606283	0.380097
H233	H	0.162715	0.108600	0.119647
H234	H	0.662715	0.608600	0.619647
C235	C	0.020923	0.106081	0.138497
C236	C	0.520923	0.606081	0.638497
N237	N	-0.009112	0.105545	0.193189
N238	N	0.490888	0.605545	0.693189
C239	C	0.467825	0.114017	0.138539
C240	C	0.967825	0.614017	0.638539
N241	N	0.437789	0.113479	0.193230
N242	N	0.937789	0.613479	0.693230
C243	C	0.255601	0.007044	0.106094
C244	C	0.755601	0.507044	0.606094
N245	N	0.229999	-0.034121	0.148004
N246	N	0.729999	0.465879	0.648004
