data_functionalizedCrystal
_audit_creation_method	'MofGen! by Chris Wilmer'
_symmetry_space_group_name_H-M	'P1'
_symmetry_Int_Tables_number	1
_symmetry_cell_setting	triclinic
loop_
_symmetry_equiv_pos_as_xyz
  x,y,z
_cell_length_a	14.519709
_cell_length_b	10.065875
_cell_length_c	11.026607
_cell_angle_alpha	100.731764
_cell_angle_beta	96.133081
_cell_angle_gamma	81.242070
loop_
_atom_site_label
_atom_site_type_symbol
_atom_site_fract_x
_atom_site_fract_y
_atom_site_fract_z
O1	O	1.260605	-0.113307	0.141346
O2	O	1.510605	0.136693	0.391346
O3	O	1.760605	0.386693	0.641346
O4	O	2.010605	0.636693	0.891346
O5	O	0.995219	-0.113348	0.160080
O6	O	1.245219	0.136652	0.410080
O7	O	1.495219	0.386652	0.660080
O8	O	1.745219	0.636652	0.910080
O9	O	1.105917	-0.113326	-0.025988
O10	O	1.355917	0.136674	0.224012
O11	O	1.605917	0.386674	0.474012
O12	O	1.855917	0.636674	0.724012
O13	O	1.149907	-0.113329	0.327413
O14	O	1.399907	0.136671	0.577413
O15	O	1.649907	0.386671	0.827413
O16	O	1.899907	0.636671	1.077413
O17	O	1.084832	0.113659	0.009635
O18	O	1.334832	0.363659	0.259635
O19	O	1.584832	0.613659	0.509635
O20	O	1.834832	0.863659	0.759635
O21	O	0.974135	0.113637	0.195703
O22	O	1.224135	0.363637	0.445703
O23	O	1.474135	0.613637	0.695703
O24	O	1.724135	0.863637	0.945703
O25	O	1.239520	0.113678	0.176969
O26	O	1.489520	0.363678	0.426969
O27	O	1.739520	0.613678	0.676969
O28	O	1.989520	0.863678	0.926969
Zn29	Zn	1.103480	0.149696	0.191992
Zn30	Zn	1.353480	0.399696	0.441992
Zn31	Zn	1.603480	0.649696	0.691992
Zn32	Zn	1.853480	0.899696	0.941992
Zn33	Zn	1.131260	-0.149366	0.145057
Zn34	Zn	1.381260	0.100634	0.395057
Zn35	Zn	1.631260	0.350634	0.645057
Zn36	Zn	1.881260	0.600634	0.895057
O37	O	1.128823	0.113656	0.363037
O38	O	1.378823	0.363656	0.613037
O39	O	1.628823	0.613656	0.863037
O40	O	1.878823	0.863656	1.113037
C41	C	0.950174	0.000139	0.177017
C42	C	1.200174	0.250139	0.427017
C43	C	1.450174	0.500139	0.677017
C44	C	1.700174	0.750139	0.927017
C45	C	0.847363	0.000123	0.174397
C46	C	1.097363	0.250123	0.424397
C47	C	1.347363	0.500123	0.674397
C48	C	1.597363	0.750123	0.924397
N49	N	1.084527	0.353798	0.224023
N50	N	1.334527	0.603798	0.474023
N51	N	1.584527	0.853798	0.724023
N52	N	1.834527	1.103798	0.974023
C53	C	1.087259	0.000164	-0.053405
C54	C	1.337259	0.250164	0.196595
C55	C	1.587259	0.500164	0.446595
C56	C	1.837259	0.750164	0.696595
C57	C	1.063067	0.000155	-0.188173
C58	C	1.313067	0.250155	0.061827
C59	C	1.563067	0.500155	0.311827
C60	C	1.813067	0.750155	0.561827
C61	C	0.470874	0.000186	0.164772
C62	C	0.720874	0.250186	0.414772
C63	C	0.970874	0.500186	0.664772
C64	C	1.220874	0.750186	0.914772
C65	C	0.575624	0.000168	0.167445
C66	C	0.825624	0.250168	0.417445
C67	C	1.075624	0.500168	0.667445
C68	C	1.325624	0.750168	0.917445
C69	C	0.659115	0.000153	0.169584
C70	C	0.909115	0.250153	0.419584
C71	C	1.159115	0.500153	0.669584
C72	C	1.409115	0.750153	0.919584
C73	C	0.763872	0.000138	0.172258
C74	C	1.013872	0.250138	0.422258
C75	C	1.263872	0.500138	0.672258
C76	C	1.513872	0.750138	0.922258
C77	C	1.284566	0.000188	0.160032
C78	C	1.534566	0.250188	0.410032
C79	C	1.784566	0.500188	0.660032
C80	C	2.034566	0.750188	0.910032
C81	C	1.387378	0.000195	0.162650
C82	C	1.637378	0.250195	0.412650
C83	C	1.887378	0.500195	0.662650
C84	C	2.137378	0.750195	0.912650
N85	N	1.150218	-0.353468	0.113016
N86	N	1.400218	-0.103468	0.363016
N87	N	1.650218	0.146532	0.613016
N88	N	1.900218	0.396532	0.863016
C89	C	1.124658	0.421585	0.156194
C90	C	1.374658	0.671585	0.406194
C91	C	1.624658	0.921585	0.656194
C92	C	1.874658	1.171585	0.906194
C93	C	1.110081	0.578749	0.180855
C94	C	1.360081	0.828749	0.430855
C95	C	1.610081	1.078749	0.680855
C96	C	1.860081	1.328749	0.930855
C97	C	1.129866	0.000163	-0.261832
C98	C	1.379866	0.250163	-0.011832
C99	C	1.629866	0.500163	0.238168
C100	C	1.879866	0.750163	0.488168
C101	C	1.104865	0.000155	-0.401122
C102	C	1.354865	0.250155	-0.151122
C103	C	1.604865	0.500155	0.098878
C104	C	1.854865	0.750155	0.348878
C105	C	1.147480	0.000163	0.390453
C106	C	1.397480	0.250163	0.640453
C107	C	1.647480	0.500163	0.890453
C108	C	1.897480	0.750163	1.140453
C109	C	1.171673	0.000163	0.525220
C110	C	1.421673	0.250163	0.775220
C111	C	1.671673	0.500163	1.025220
C112	C	1.921673	0.750163	1.275220
H113	H	1.169805	0.363269	0.079860
H114	H	1.419805	0.613269	0.329860
H115	H	1.669805	0.863269	0.579860
H116	H	1.919805	1.113269	0.829860
H117	H	1.064923	0.637061	0.257185
H118	H	1.314923	0.887061	0.507185
H119	H	1.564923	1.137061	0.757185
H120	H	1.814923	1.387061	1.007185
H121	H	0.987370	0.000135	-0.228232
H122	H	1.237370	0.250135	0.021768
H123	H	1.487370	0.500135	0.271768
H124	H	1.737370	0.750135	0.521768
H125	H	1.205564	0.000184	-0.221773
H126	H	1.455564	0.250184	0.028227
H127	H	1.705564	0.500184	0.278227
H128	H	1.955564	0.750184	0.528227
H129	H	1.195367	0.588220	0.036678
H130	H	1.445367	0.838220	0.286678
H131	H	1.695367	1.088220	0.536678
H132	H	1.945367	1.338220	0.786678
H133	H	1.039372	0.412115	0.300348
H134	H	1.289372	0.662115	0.550348
H135	H	1.539372	0.912115	0.800348
H136	H	1.789372	1.162115	1.050348
H137	H	1.247386	0.000072	-0.434746
H138	H	1.497386	0.250072	-0.184746
H139	H	1.747386	0.500072	0.065254
H140	H	1.997386	0.750072	0.315254
H141	H	1.029162	0.000134	-0.441175
H142	H	1.279162	0.250134	-0.191175
H143	H	1.529162	0.500134	0.058825
H144	H	1.779162	0.750134	0.308825
