data_functionalizedCrystal
_audit_creation_method	'MofGen! by Chris Wilmer'
_symmetry_space_group_name_H-M	'P1'
_symmetry_Int_Tables_number	1
_symmetry_cell_setting	triclinic
loop_
_symmetry_equiv_pos_as_xyz
  x,y,z
_cell_length_a	16.992694
_cell_length_b	10.540539
_cell_length_c	16.053802
_cell_angle_alpha	92.593658
_cell_angle_beta	87.249047
_cell_angle_gamma	87.596857
loop_
_atom_site_label
_atom_site_type_symbol
_atom_site_fract_x
_atom_site_fract_y
_atom_site_fract_z
O1	O	1.045174	0.264306	-0.069318
O2	O	0.816873	0.261349	-0.069343
O3	O	0.936232	0.078573	-0.069329
O4	O	0.925815	0.447082	-0.069332
O5	O	0.929662	0.088589	0.069529
O6	O	0.810303	0.271366	0.069516
O7	O	1.038604	0.274322	0.069540
Zn8	Zn	0.923410	0.274434	0.091575
Zn9	Zn	0.932067	0.261237	-0.091377
O10	O	0.919245	0.457098	0.069526
C11	C	0.784355	0.262556	0.000083
C12	C	0.697247	0.251215	0.000074
C13	C	0.647620	0.360635	0.000073
C14	C	0.565773	0.349973	0.000085
C15	C	0.533555	0.229889	0.000091
C16	C	0.583189	0.120461	0.000094
C17	C	0.665034	0.131125	0.000088
C18	C	0.289709	0.185691	0.000114
C19	C	0.207858	0.175036	0.000117
C20	C	0.190447	0.404549	0.000110
C21	C	0.272294	0.415202	0.000099
C22	C	0.321921	0.305774	0.000106
N23	N	0.449895	0.218988	0.000100
N24	N	0.405579	0.316677	0.000103
C25	C	0.932166	0.036210	0.000099
C26	C	0.929829	-0.104941	0.000094
C27	C	0.840283	-0.296162	-0.000227
C28	C	0.842638	-0.149316	0.000086
C29	C	0.968037	-0.157237	0.079393
C30	C	0.965058	-0.304035	0.079460
C31	C	0.974303	-0.315790	-0.078448
C32	C	0.975156	-0.168814	-0.079496
C33	C	1.071123	0.273115	0.000112
C34	C	1.158230	0.284456	0.000117
C35	C	0.923311	0.499461	0.000097
C36	C	0.925649	0.640612	0.000096
N37	N	0.917508	0.283440	0.216434
N38	N	0.937975	0.252222	-0.216237
C39	C	0.968315	0.205700	0.260134
C40	C	0.964193	0.212013	0.347540
C41	C	0.909269	0.296073	0.391245
C42	C	0.858458	0.373817	0.347539
C43	C	0.862576	0.367497	0.260134
C44	C	0.891281	0.323645	0.652653
C45	C	0.887169	0.329962	0.740063
C46	C	0.992904	0.168156	0.740059
C47	C	0.997020	0.161848	0.652652
C48	C	0.946206	0.239587	0.608954
N49	N	0.905057	0.302531	0.480588
N50	N	0.950415	0.233122	0.519612
H51	H	0.812311	-0.113678	-0.056760
C52	C	1.020078	0.126500	0.395611
H53	H	1.009754	0.142288	0.453925
H54	H	1.073188	0.144618	0.381281
H55	H	1.011756	0.039823	0.381290
C56	C	0.826750	0.422428	0.788141
H57	H	0.831584	0.415066	0.846455
H58	H	0.774988	0.402237	0.773832
H59	H	0.836418	0.507035	0.773808
C60	C	0.797381	-0.344369	-0.077047
H61	H	0.745978	-0.305069	-0.076076
H62	H	0.793547	-0.433938	-0.075998
H63	H	0.826148	-0.323818	-0.126466
H64	H	0.813733	0.442256	0.383129
H65	H	1.027595	-0.346303	0.083064
H66	H	0.849907	0.386945	0.617080
H67	H	0.806696	-0.106338	0.057018
H68	H	0.330106	0.096587	0.000120
H69	H	0.803306	-0.325268	0.056314
C70	C	0.172416	0.042941	0.000130
H71	H	0.116565	0.052267	0.000123
H72	H	0.187119	0.001036	0.048555
H73	H	0.191691	-0.005962	-0.048296
H74	H	0.705441	0.042023	0.000088
C75	C	0.937502	-0.122812	-0.158752
H76	H	0.965182	-0.161783	-0.206686
H77	H	0.940184	-0.033097	-0.160208
H78	H	0.883911	-0.145189	-0.158263
H79	H	0.821203	0.430799	0.224555
H80	H	0.931243	-0.330650	0.138731
C81	C	0.683051	0.492729	0.000066
H82	H	0.641769	0.556367	0.000075
H83	H	0.716901	0.498169	-0.048358
H84	H	0.712332	0.505152	0.048494
H85	H	0.556951	0.022687	0.000111
C86	C	1.054345	-0.119241	0.083395
H87	H	1.067875	-0.071025	0.036629
H88	H	1.087962	-0.193638	0.082665
H89	H	1.060440	-0.069591	0.133359
C90	C	0.511186	0.470335	0.000082
H91	H	0.542096	0.543378	0.000067
H92	H	0.476613	0.474447	0.048508
H93	H	0.481180	0.467447	-0.048344
C94	C	1.057432	0.069374	0.604583
H95	H	1.087096	0.023969	0.643128
H96	H	1.091950	0.115938	0.570476
H97	H	1.030516	0.011146	0.570497
H98	H	0.150032	0.493638	0.000105
C99	C	0.307727	0.547295	0.000105
H100	H	0.266447	0.610937	0.000115
H101	H	0.341579	0.552739	-0.048318
H102	H	0.337006	0.559709	0.048534
H103	H	0.936097	-0.112911	0.138399
H104	H	0.948927	-0.354127	-0.138551
H105	H	1.038951	-0.139421	-0.084277
H106	H	1.037306	-0.357589	-0.078974
H107	H	1.013043	0.137255	0.224555
C108	C	1.048787	0.082639	0.788128
H109	H	1.038466	0.098431	0.846443
H110	H	1.101898	0.100750	0.773796
H111	H	1.040461	-0.004037	0.773810
