data_functionalizedCrystal
_audit_creation_method	'MofGen! by Chris Wilmer'
_symmetry_space_group_name_H-M	'P1'
_symmetry_Int_Tables_number	1
_symmetry_cell_setting	triclinic
loop_
_symmetry_equiv_pos_as_xyz
  x,y,z
_cell_length_a	13.032831
_cell_length_b	21.395362
_cell_length_c	21.395355
_cell_angle_alpha	90.020549
_cell_angle_beta	97.194272
_cell_angle_gamma	82.833782
loop_
_atom_site_label
_atom_site_type_symbol
_atom_site_fract_x
_atom_site_fract_y
_atom_site_fract_z
Zn1	Zn	1.597625	-0.371368	0.475674
Zn2	Zn	1.930959	-0.038035	0.809007
Zn3	Zn	2.264292	0.295298	1.142341
Zn4	Zn	1.597465	-0.476116	0.370881
Zn5	Zn	1.930799	-0.142783	0.704214
Zn6	Zn	2.264132	0.190551	1.037547
Zn7	Zn	1.422854	-0.358038	0.357628
Zn8	Zn	1.756187	-0.024705	0.690961
Zn9	Zn	2.089520	0.308629	1.024294
Zn10	Zn	1.422805	-0.462778	0.462346
Zn11	Zn	1.756138	-0.129444	0.795680
Zn12	Zn	2.089472	0.203889	1.129013
O13	O	1.510187	-0.417075	0.416632
O14	O	1.843521	-0.083742	0.749966
O15	O	2.176854	0.249592	1.083299
O16	O	1.743842	-0.396424	0.472897
O17	O	2.077176	-0.063091	0.806230
O18	O	2.410509	0.270242	1.139563
O19	O	1.574256	-0.460456	0.281441
O20	O	1.907590	-0.127123	0.614774
O21	O	2.240923	0.206211	0.948108
O22	O	1.446125	-0.272135	0.373318
O23	O	1.779458	0.061198	0.706652
O24	O	2.112791	0.394532	1.039985
O25	O	1.743725	-0.473382	0.395906
O26	O	2.077058	-0.140049	0.729239
O27	O	2.410392	0.193285	1.062572
O28	O	1.574529	-0.281929	0.460046
O29	O	1.907862	0.051405	0.793379
O30	O	2.241195	0.384738	1.126713
O31	O	1.445970	-0.373704	0.271704
O32	O	1.779303	-0.040371	0.605038
O33	O	2.112636	0.292962	0.938371
O34	O	1.276609	-0.360771	0.360395
O35	O	1.609942	-0.027438	0.693728
O36	O	1.943275	0.305896	1.027062
O37	O	1.446042	-0.450649	0.551796
O38	O	1.779375	-0.117316	0.885129
O39	O	2.112709	0.216018	1.218462
O40	O	1.276573	-0.437723	0.437331
O41	O	1.609906	-0.104390	0.770665
O42	O	1.943240	0.228944	1.103998
O43	O	1.574481	-0.383491	0.561587
O44	O	1.907815	-0.050157	0.894921
O45	O	2.241148	0.283176	1.228254
O46	O	1.574209	-0.562018	0.382982
O47	O	1.907542	-0.228685	0.716316
O48	O	2.240876	0.104649	1.049649
O49	O	1.445887	-0.552218	0.450182
O50	O	1.779220	-0.218885	0.783515
O51	O	2.112554	0.114448	1.116849
C52	C	1.238673	-0.396354	0.395979
C53	C	1.572006	-0.063020	0.729313
C54	C	1.905340	0.270313	1.062646
C55	C	1.122518	-0.387504	0.387159
C56	C	1.455851	-0.054171	0.720492
C57	C	1.789185	0.279163	1.053825
C58	C	1.510054	-0.579852	0.416590
C59	C	1.843387	-0.246519	0.749923
C60	C	2.176720	0.086814	1.083257
C61	C	1.510092	-0.649497	0.416600
C62	C	1.843426	-0.316163	0.749933
C63	C	2.176759	0.017170	1.083267
C64	C	1.576914	-0.687250	0.461785
C65	C	1.910247	-0.353916	0.795118
C66	C	2.243580	-0.020583	1.128452
C67	C	1.576950	-0.752688	0.461803
C68	C	1.910284	-0.419354	0.795136
C69	C	2.243617	-0.086021	1.128470
C70	C	1.510177	-0.780371	0.416626
C71	C	1.843510	-0.447038	0.749959
C72	C	2.176843	-0.113705	1.083293
C73	C	1.443342	-0.742610	0.371437
C74	C	1.776675	-0.409276	0.704770
C75	C	2.110009	-0.075943	1.038104
C76	C	1.443300	-0.677172	0.371424
C77	C	1.776633	-0.343839	0.704758
C78	C	2.109966	-0.010506	1.038091
C79	C	1.502042	-0.883451	0.359569
C80	C	1.835375	-0.550118	0.692902
C81	C	2.168709	-0.216785	1.026236
C82	C	1.502092	-0.948888	0.359581
C83	C	1.835425	-0.615555	0.692915
C84	C	2.168758	-0.282221	1.026248
C85	C	1.510301	-0.982202	0.416666
C86	C	1.843634	-0.648868	0.749999
C87	C	2.176967	-0.315535	1.083332
C88	C	1.518482	-0.950072	0.473741
C89	C	1.851815	-0.616739	0.807074
C90	C	2.185149	-0.283405	1.140407
C91	C	1.518440	-0.884635	0.473728
C92	C	1.851773	-0.551301	0.807061
C93	C	2.185107	-0.217968	1.140395
C94	C	1.510214	-0.851327	0.416635
C95	C	1.843548	-0.517993	0.749968
C96	C	2.176881	-0.184660	1.083302
C97	C	1.577166	-1.090910	0.461874
C98	C	1.910499	-0.757577	0.795207
C99	C	2.243832	-0.424244	1.128540
C100	C	1.577195	-1.156349	0.461892
C101	C	1.910528	-0.823016	0.795226
C102	C	2.243862	-0.489683	1.128559
C103	C	1.443592	-1.146270	0.371521
C104	C	1.776925	-0.812937	0.704855
C105	C	2.110259	-0.479603	1.038188
C106	C	1.443557	-1.080832	0.371508
C107	C	1.776891	-0.747499	0.704841
C108	C	2.110224	-0.414165	1.038175
C109	C	1.510350	-1.053157	0.416684
C110	C	1.843683	-0.719823	0.750017
C111	C	2.177016	-0.386490	1.083350
C112	C	1.070742	-0.421694	0.421236
C113	C	1.404076	-0.088360	0.754569
C114	C	1.737409	0.244973	1.087902
C115	C	0.950690	-0.412548	0.412120
C116	C	1.284023	-0.079215	0.745453
C117	C	1.617357	0.254119	1.078787
C118	C	1.782762	-0.437878	0.437366
C119	C	2.116095	-0.104545	0.770700
C120	C	2.449429	0.228789	1.104033
C121	C	1.898917	-0.446743	0.446202
C122	C	2.232250	-0.113409	0.779535
C123	C	2.565584	0.219924	1.112868
C124	C	1.510274	-0.417069	0.580062
C125	C	1.843607	-0.083736	0.913395
C126	C	2.176941	0.249598	1.246729
C127	C	1.510311	-0.417066	0.649706
C128	C	1.843644	-0.083733	0.983040
C129	C	2.176978	0.249600	1.316373
C130	C	1.510350	-0.253664	0.416691
C131	C	1.843683	0.079669	0.750024
C132	C	2.177017	0.413003	1.083357
C133	C	1.510419	-0.184028	0.416715
C134	C	1.843753	0.149305	0.750049
C135	C	2.177086	0.482639	1.083382
C136	C	1.510161	-0.417040	0.253843
C137	C	1.843494	-0.083707	0.587176
C138	C	2.176828	0.249626	0.920509
C139	C	1.510327	-0.416882	0.184214
C140	C	1.843660	-0.083549	0.517548
C141	C	2.176993	0.249785	0.850881
C142	C	1.577187	-0.382095	0.687519
C143	C	1.910520	-0.048762	1.020852
C144	C	2.243853	0.284571	1.354185
C145	C	1.577185	-0.382068	0.752954
C146	C	1.910519	-0.048735	1.086287
C147	C	2.243852	0.284599	1.419621
C148	C	1.510319	-0.417024	0.780575
C149	C	1.843653	-0.083691	1.113909
C150	C	2.176986	0.249642	1.447242
C151	C	1.443431	-0.451997	0.742754
C152	C	1.776764	-0.118664	1.076087
C153	C	2.110097	0.214669	1.409421
C154	C	1.443427	-0.452018	0.677319
C155	C	1.776760	-0.118685	1.010653
C156	C	2.110093	0.214648	1.343986
C157	C	1.502021	-0.472807	0.883608
C158	C	1.835355	-0.139473	1.216941
C159	C	2.168688	0.193860	1.550275
C160	C	1.502033	-0.472787	0.949042
C161	C	1.835366	-0.139454	1.282375
C162	C	2.168699	0.193879	1.615709
C163	C	1.510326	-0.416959	0.982397
C164	C	1.843659	-0.083625	1.315730
C165	C	2.176992	0.249708	1.649063
C166	C	1.518629	-0.361149	0.950311
C167	C	1.851962	-0.027816	1.283644
C168	C	2.185296	0.305517	1.616978
C169	C	1.518625	-0.361170	0.884876
C170	C	1.851958	-0.027837	1.218210
C171	C	2.185292	0.305496	1.551543
C172	C	1.510316	-0.417005	0.851527
C173	C	1.843649	-0.083672	1.184861
C174	C	2.176982	0.249662	1.518194
C175	C	1.577203	-0.381955	1.091162
C176	C	1.910537	-0.048622	1.424495
C177	C	2.243870	0.284712	1.757828
C178	C	1.577195	-0.381926	1.156598
C179	C	1.910528	-0.048593	1.489931
C180	C	2.243861	0.284740	1.823264
C181	C	1.443445	-0.451861	1.146397
C182	C	1.776779	-0.118528	1.479730
C183	C	2.110112	0.214805	1.813063
C184	C	1.443449	-0.451884	1.080962
C185	C	1.776782	-0.118551	1.414295
C186	C	2.110115	0.214783	1.747628
C187	C	1.510333	-0.416932	1.053348
C188	C	1.843667	-0.083599	1.386682
C189	C	2.177000	0.249735	1.720015
H190	H	1.631297	-0.664718	0.498571
H191	H	1.964631	-0.331385	0.831904
H192	H	2.297964	0.001949	1.165238
Br193	Br	1.144986	-0.481771	0.481111
Br194	Br	1.478319	-0.148437	0.814444
Br195	Br	1.811653	0.184896	1.147778
Br196	Br	0.876450	-0.352465	0.352246
Br197	Br	1.209784	-0.019132	0.685579
Br198	Br	1.543117	0.314201	1.018912
H199	H	1.525099	-0.858476	0.520200
H200	H	1.858432	-0.525143	0.853533
H201	H	2.191765	-0.191810	1.186866
Br202	Br	0.973154	-0.506809	0.506094
Br203	Br	1.306487	-0.173475	0.839427
Br204	Br	1.639820	0.159858	1.172761
H205	H	1.077967	-0.351459	0.351238
H206	H	1.411300	-0.018126	0.684571
H207	H	1.744633	0.315207	1.017905
H208	H	1.631648	-0.353634	0.665040
H209	H	1.964981	-0.020300	0.998374
H210	H	2.298315	0.313033	1.331707
H211	H	1.631641	-0.353587	0.783747
H212	H	1.964974	-0.020254	1.117080
H213	H	2.298308	0.313080	1.450413
H214	H	1.525383	-0.315728	0.858755
H215	H	1.858717	0.017605	1.192088
H216	H	2.192050	0.350938	1.525421
Br217	Br	1.529893	-0.285377	0.995570
Br218	Br	1.863227	0.047956	1.328903
Br219	Br	2.196560	0.381290	1.662236
H220	H	1.631659	-0.353491	1.068678
H221	H	1.964992	-0.020158	1.402011
H222	H	2.298326	0.313176	1.735344
Br223	Br	1.352863	-1.029592	0.310183
Br224	Br	1.686196	-0.696259	0.643517
Br225	Br	2.019530	-0.362925	0.976850
H226	H	1.389217	-1.168809	0.334741
H227	H	1.722550	-0.835476	0.668074
H228	H	2.055884	-0.502142	1.001407
Br229	Br	1.352658	-0.499482	0.625999
Br230	Br	1.685991	-0.166148	0.959332
Br231	Br	2.019324	0.167185	1.292665
H232	H	1.495436	-0.975043	0.313108
H233	H	1.828770	-0.641710	0.646441
H234	H	2.162103	-0.308377	0.979774
Br235	Br	1.352603	-0.625932	0.310099
Br236	Br	1.685936	-0.292599	0.643432
Br237	Br	2.019270	0.040735	0.976765
Br238	Br	1.491048	-0.838258	0.282094
Br239	Br	1.824382	-0.504924	0.615427
Br240	Br	2.157715	-0.171591	0.948761
H241	H	1.388985	-0.480457	0.765247
H242	H	1.722318	-0.147123	1.098580
H243	H	2.055651	0.186210	1.431914
Br244	Br	1.667979	-0.334472	1.207918
Br245	Br	2.001312	-0.001138	1.541251
Br246	Br	2.334645	0.332195	1.874585
H247	H	1.388991	-0.480316	1.168884
H248	H	1.722324	-0.146983	1.502218
H249	H	2.055658	0.186350	1.835551
Br250	Br	1.352685	-0.499349	1.029641
Br251	Br	1.686019	-0.166016	1.362975
Br252	Br	2.019352	0.167318	1.696308
H253	H	1.495278	-0.518231	0.975162
H254	H	1.828611	-0.184898	1.308495
H255	H	2.161944	0.148436	1.641828
H256	H	1.631356	-0.783431	0.498605
H257	H	1.964689	-0.450098	0.831938
H258	H	2.298022	-0.116765	1.165271
Br259	Br	1.529633	-0.995275	0.551218
Br260	Br	1.862966	-0.661942	0.884552
Br261	Br	2.196299	-0.328609	1.217885
Br262	Br	1.490797	-0.548585	0.838350
Br263	Br	1.824130	-0.215252	1.171684
Br264	Br	2.157464	0.118081	1.505017
H265	H	1.631549	-1.068376	0.498660
H266	H	1.964882	-0.735043	0.831994
H267	H	2.298216	-0.401709	1.165327
H268	H	1.631609	-1.187087	0.498690
H269	H	1.964942	-0.853754	0.832023
H270	H	2.298276	-0.520420	1.165357
Br271	Br	1.352710	-0.780177	0.310130
Br272	Br	1.686043	-0.446844	0.643463
Br273	Br	2.019376	-0.113511	0.976797
