data_functionalizedCrystal
_audit_creation_method	'MofGen! by Chris Wilmer'
_symmetry_space_group_name_H-M	'P1'
_symmetry_Int_Tables_number	1
_symmetry_cell_setting	triclinic
loop_
_symmetry_equiv_pos_as_xyz
  x,y,z
_cell_length_a	19.121102
_cell_length_b	29.839131
_cell_length_c	19.120904
_cell_angle_alpha	92.401768
_cell_angle_beta	90.088173
_cell_angle_gamma	87.589066
loop_
_atom_site_label
_atom_site_type_symbol
_atom_site_fract_x
_atom_site_fract_y
_atom_site_fract_z
Zn1	Zn	1.054788	-0.219753	-0.441992
Zn2	Zn	1.304788	0.030247	-0.191992
Zn3	Zn	1.554788	0.280247	0.058008
Zn4	Zn	1.804788	0.530247	0.308008
Zn5	Zn	1.059688	-0.291815	-0.324733
Zn6	Zn	1.309688	-0.041815	-0.074733
Zn7	Zn	1.559688	0.208185	0.175267
Zn8	Zn	1.809688	0.458185	0.425267
Zn9	Zn	0.942558	-0.213364	-0.319778
Zn10	Zn	1.192558	0.036636	-0.069778
Zn11	Zn	1.442558	0.286636	0.180222
Zn12	Zn	1.692558	0.536636	0.430222
Zn13	Zn	0.937500	-0.291513	-0.436935
Zn14	Zn	1.187500	-0.041513	-0.186935
Zn15	Zn	1.437500	0.208487	0.063065
Zn16	Zn	1.687500	0.458487	0.313065
O17	O	0.998633	-0.254111	-0.380859
O18	O	1.248633	-0.004111	-0.130859
O19	O	1.498633	0.245889	0.119141
O20	O	1.748633	0.495889	0.369141
O21	O	1.153542	-0.232113	-0.430627
O22	O	1.403542	0.017887	-0.180627
O23	O	1.653542	0.267887	0.069373
O24	O	1.903542	0.517887	0.319373
O25	O	1.048319	-0.278861	-0.225971
O26	O	1.298319	-0.028861	0.024029
O27	O	1.548319	0.221139	0.274029
O28	O	1.798319	0.471139	0.524029
O29	O	0.957512	-0.151347	-0.336033
O30	O	1.207512	0.098653	-0.086033
O31	O	1.457512	0.348653	0.163967
O32	O	1.707512	0.598653	0.413967
O33	O	1.157143	-0.285057	-0.344477
O34	O	1.407143	-0.035057	-0.094477
O35	O	1.657143	0.214943	0.155523
O36	O	1.907143	0.464943	0.405523
O37	O	1.039966	-0.156042	-0.425823
O38	O	1.289966	0.093958	-0.175823
O39	O	1.539966	0.343958	0.074177
O40	O	1.789966	0.593958	0.324177
O41	O	0.962264	-0.221223	-0.222331
O42	O	1.212264	0.028777	0.027669
O43	O	1.462264	0.278777	0.277669
O44	O	1.712264	0.528777	0.527669
O45	O	0.843783	-0.220930	-0.331129
O46	O	1.093783	0.029070	-0.081129
O47	O	1.343783	0.279070	0.168871
O48	O	1.593783	0.529070	0.418871
O49	O	0.948890	-0.284542	-0.535710
O50	O	1.198890	-0.034542	-0.285710
O51	O	1.448890	0.215458	-0.035710
O52	O	1.698890	0.465458	0.214290
O53	O	0.840066	-0.278346	-0.417204
O54	O	1.090066	-0.028346	-0.167204
O55	O	1.340066	0.221654	0.082796
O56	O	1.590066	0.471654	0.332796
O57	O	1.035061	-0.231820	-0.539425
O58	O	1.285061	0.018180	-0.289425
O59	O	1.535061	0.268180	-0.039425
O60	O	1.785061	0.518180	0.210575
O61	O	1.043414	-0.354639	-0.339574
O62	O	1.293414	-0.104639	-0.089574
O63	O	1.543414	0.145361	0.160426
O64	O	1.793414	0.395361	0.410426
O65	O	0.953642	-0.354418	-0.422008
O66	O	1.203642	-0.104418	-0.172008
O67	O	1.453642	0.145582	0.077992
O68	O	1.703642	0.395582	0.327992
C69	C	0.816487	-0.248912	-0.373081
C70	C	1.066487	0.001088	-0.123081
C71	C	1.316487	0.251088	0.126919
C72	C	1.566487	0.501088	0.376919
C73	C	0.738563	-0.246699	-0.369769
C74	C	0.988563	0.003301	-0.119769
C75	C	1.238563	0.253301	0.130231
C76	C	1.488563	0.503301	0.380231
C77	C	0.700041	-0.275595	-0.412958
C78	C	0.950041	-0.025595	-0.162958
C79	C	1.200041	0.224405	0.087042
C80	C	1.450041	0.474405	0.337042
C81	C	0.626823	-0.273509	-0.409850
C82	C	0.876823	-0.023509	-0.159850
C83	C	1.126823	0.226491	0.090150
C84	C	1.376823	0.476491	0.340150
C85	C	0.592129	-0.242531	-0.363550
C86	C	0.842129	0.007469	-0.113550
C87	C	1.092129	0.257469	0.136450
C88	C	1.342129	0.507469	0.386450
C89	C	0.630656	-0.213632	-0.320360
C90	C	0.880656	0.036368	-0.070360
C91	C	1.130656	0.286368	0.179640
C92	C	1.380656	0.536368	0.429640
C93	C	0.703873	-0.215715	-0.323471
C94	C	0.953873	0.034285	-0.073471
C95	C	1.203873	0.284285	0.176529
C96	C	1.453873	0.534285	0.426529
C97	C	0.371158	-0.234741	-0.351919
C98	C	0.621158	0.015259	-0.101919
C99	C	0.871158	0.265259	0.148081
C100	C	1.121158	0.515259	0.398081
C101	C	0.297937	-0.232660	-0.348809
C102	C	0.547937	0.017340	-0.098809
C103	C	0.797937	0.267340	0.151191
C104	C	1.047937	0.517340	0.401191
C105	C	0.294108	-0.292537	-0.438300
C106	C	0.544108	-0.042537	-0.188300
C107	C	0.794108	0.207463	0.061700
C108	C	1.044108	0.457463	0.311700
C109	C	0.367326	-0.294620	-0.441405
C110	C	0.617326	-0.044620	-0.191405
C111	C	0.867326	0.205380	0.058595
C112	C	1.117326	0.455380	0.308595
C113	C	0.405847	-0.265720	-0.398218
C114	C	0.655847	-0.015720	-0.148218
C115	C	0.905847	0.234280	0.101782
C116	C	1.155847	0.484280	0.351782
C117	C	0.517289	-0.240399	-0.360370
C118	C	0.767289	0.009601	-0.110370
C119	C	1.017289	0.259601	0.139630
C120	C	1.267289	0.509601	0.389630
C121	C	0.480686	-0.267849	-0.401401
C122	C	0.730686	-0.017849	-0.151401
C123	C	0.980686	0.232151	0.098599
C124	C	1.230686	0.482151	0.348599
C125	C	0.998529	-0.370829	-0.380796
C126	C	1.248529	-0.120829	-0.130796
C127	C	1.498529	0.129171	0.119204
C128	C	1.748529	0.379171	0.369204
C129	C	0.998548	-0.420764	-0.380795
C130	C	1.248548	-0.170764	-0.130795
C131	C	1.498548	0.079236	0.119205
C132	C	1.748548	0.329236	0.369205
C133	C	1.041555	-0.732823	-0.427677
C134	C	1.291555	-0.482823	-0.177677
C135	C	1.541555	-0.232823	0.072323
C136	C	1.791555	0.017177	0.322323
C137	C	1.041629	-0.920499	-0.427722
C138	C	1.291629	-0.670499	-0.177722
C139	C	1.541629	-0.420499	0.072278
C140	C	1.791629	-0.170499	0.322278
O141	O	1.078093	-0.946813	-0.467534
O142	O	1.328093	-0.696813	-0.217534
O143	O	1.578093	-0.446813	0.032466
O144	O	1.828093	-0.196813	0.282466
N145	N	0.998749	-0.941559	-0.380942
N146	N	1.248749	-0.691559	-0.130942
N147	N	1.498749	-0.441559	0.119058
N148	N	1.748749	-0.191559	0.369058
C149	C	0.955844	-0.915697	-0.334151
C150	C	1.205844	-0.665697	-0.084151
C151	C	1.455844	-0.415697	0.165849
C152	C	1.705844	-0.165697	0.415849
O153	O	0.919368	-0.937916	-0.294368
O154	O	1.169368	-0.687916	-0.044368
O155	O	1.419368	-0.437916	0.205632
O156	O	1.669368	-0.187916	0.455632
C157	C	0.955767	-0.728021	-0.334110
C158	C	1.205767	-0.478021	-0.084110
C159	C	1.455767	-0.228021	0.165890
C160	C	1.705767	0.021979	0.415890
C161	C	0.998655	-0.706964	-0.380888
C162	C	1.248655	-0.456964	-0.130888
C163	C	1.498655	-0.206964	0.119112
C164	C	1.748655	0.043036	0.369112
C165	C	1.084439	-0.711765	-0.474451
C166	C	1.334439	-0.461765	-0.224451
C167	C	1.584439	-0.211765	0.025549
C168	C	1.834439	0.038235	0.275549
C169	C	1.084423	-0.664849	-0.474437
C170	C	1.334423	-0.414849	-0.224437
C171	C	1.584423	-0.164849	0.025563
C172	C	1.834423	0.085151	0.275563
C173	C	1.041523	-0.638990	-0.427648
C174	C	1.291523	-0.388990	-0.177648
C175	C	1.541523	-0.138990	0.072352
C176	C	1.791523	0.111010	0.322352
C177	C	0.998639	-0.660048	-0.380873
C178	C	1.248639	-0.410048	-0.130873
C179	C	1.498639	-0.160048	0.119127
C180	C	1.748639	0.089952	0.369127
C181	C	0.912858	-0.702160	-0.287322
C182	C	1.162858	-0.452160	-0.037322
C183	C	1.412858	-0.202160	0.212678
C184	C	1.662858	0.047840	0.462678
C185	C	0.912841	-0.655238	-0.287317
C186	C	1.162841	-0.405238	-0.037317
C187	C	1.412841	-0.155238	0.212683
C188	C	1.662841	0.094762	0.462683
C189	C	0.955730	-0.634181	-0.334095
C190	C	1.205730	-0.384181	-0.084095
C191	C	1.455730	-0.134181	0.165905
C192	C	1.705730	0.115819	0.415905
C193	C	0.955722	-0.587273	-0.334070
C194	C	1.205722	-0.337273	-0.084070
C195	C	1.455722	-0.087273	0.165930
C196	C	1.705722	0.162727	0.415930
N197	N	0.998602	-0.566213	-0.380849
N198	N	1.248602	-0.316213	-0.130849
N199	N	1.498602	-0.066213	0.119151
N200	N	1.748602	0.183787	0.369151
C201	C	1.041502	-0.592071	-0.427639
C202	C	1.291502	-0.342071	-0.177639
C203	C	1.541502	-0.092071	0.072361
C204	C	1.791502	0.157929	0.322361
C205	C	0.955889	-1.014229	-0.334175
C206	C	1.205889	-0.764229	-0.084175
C207	C	1.455889	-0.514229	0.165825
C208	C	1.705889	-0.264229	0.415825
C209	C	0.955909	-1.061148	-0.334185
C210	C	1.205909	-0.811148	-0.084185
C211	C	1.455909	-0.561148	0.165815
C212	C	1.705909	-0.311148	0.415815
C213	C	1.041693	-1.065947	-0.427757
C214	C	1.291693	-0.815947	-0.177757
C215	C	1.541693	-0.565947	0.072243
C216	C	1.791693	-0.315947	0.322243
C217	C	1.041676	-1.019027	-0.427743
C218	C	1.291676	-0.769027	-0.177743
C219	C	1.541676	-0.519027	0.072257
C220	C	1.791676	-0.269027	0.322257
C221	C	0.998769	-0.993169	-0.380955
C222	C	1.248769	-0.743169	-0.130955
C223	C	1.498769	-0.493169	0.119045
C224	C	1.748769	-0.243169	0.369045
C225	C	1.041466	-0.493544	-0.427604
C226	C	1.291466	-0.243544	-0.177604
C227	C	1.541466	0.006456	0.072396
C228	C	1.791466	0.256456	0.322396
C229	C	1.041448	-0.446623	-0.427584
C230	C	1.291448	-0.196623	-0.177584
C231	C	1.541448	0.053377	0.072416
C232	C	1.791448	0.303377	0.322416
C233	C	0.955661	-0.441828	-0.334015
C234	C	1.205661	-0.191828	-0.084015
C235	C	1.455661	0.058172	0.165985
C236	C	1.705661	0.308172	0.415985
C237	C	0.955681	-0.488745	-0.334032
C238	C	1.205681	-0.238745	-0.084032
C239	C	1.455681	0.011255	0.165968
C240	C	1.705681	0.261255	0.415968
C241	C	0.998586	-0.514601	-0.380833
C242	C	1.248586	-0.264601	-0.130833
C243	C	1.498586	-0.014601	0.119167
C244	C	1.748586	0.235399	0.369167
O245	O	0.919272	-0.560931	-0.294284
O246	O	1.169272	-0.310931	-0.044284
O247	O	1.419272	-0.060931	0.205716
O248	O	1.669272	0.189069	0.455716
O249	O	1.077961	-0.569844	-0.467426
O250	O	1.327961	-0.319844	-0.217426
O251	O	1.577961	-0.069844	0.032574
O252	O	1.827961	0.180156	0.282574
C253	C	1.041571	-0.779739	-0.427691
C254	C	1.291571	-0.529739	-0.177691
C255	C	1.541571	-0.279739	0.072309
C256	C	1.791571	-0.029739	0.322309
C257	C	0.998687	-0.800796	-0.380916
C258	C	1.248687	-0.550796	-0.130916
C259	C	1.498687	-0.300796	0.119084
C260	C	1.748687	-0.050796	0.369084
C261	C	0.955787	-0.774938	-0.334127
C262	C	1.205787	-0.524938	-0.084127
C263	C	1.455787	-0.274938	0.165873
C264	C	1.705787	-0.024938	0.415873
C265	C	0.998707	-0.847715	-0.380926
C266	C	1.248707	-0.597715	-0.130926
C267	C	1.498707	-0.347715	0.119074
C268	C	1.748707	-0.097715	0.369074
C269	C	1.041608	-0.873574	-0.427715
C270	C	1.291608	-0.623574	-0.177715
C271	C	1.541608	-0.373574	0.072285
C272	C	1.791608	-0.123574	0.322285
C273	C	1.084488	-0.852514	-0.474495
C274	C	1.334488	-0.602514	-0.224495
C275	C	1.584488	-0.352514	0.025505
C276	C	1.834488	-0.102514	0.275505
C277	C	1.084471	-0.805598	-0.474480
C278	C	1.334471	-0.555598	-0.224480
C279	C	1.584471	-0.305598	0.025520
C280	C	1.834471	-0.055598	0.275520
C281	C	0.912907	-0.795997	-0.287348
C282	C	1.162907	-0.545997	-0.037348
C283	C	1.412907	-0.295997	0.212652
C284	C	1.662907	-0.045997	0.462652
C285	C	0.912927	-0.842914	-0.287365
C286	C	1.162927	-0.592914	-0.037365
C287	C	1.412927	-0.342914	0.212635
C288	C	1.662927	-0.092914	0.462635
C289	C	0.955827	-0.868773	-0.334154
C290	C	1.205827	-0.618773	-0.084154
C291	C	1.455827	-0.368773	0.165846
C292	C	1.705827	-0.118773	0.415846
C293	C	1.181491	-0.259331	-0.388669
C294	C	1.431491	-0.009331	-0.138669
C295	C	1.681491	0.240669	0.111331
C296	C	1.931491	0.490669	0.361331
C297	C	1.259414	-0.261556	-0.391997
C298	C	1.509414	-0.011556	-0.141997
C299	C	1.759414	0.238444	0.108003
C300	C	2.009414	0.488444	0.358003
C301	C	0.990865	-0.258860	-0.563716
C302	C	1.240865	-0.008860	-0.313716
C303	C	1.490865	0.241140	-0.063716
C304	C	1.740865	0.491140	0.186284
C305	C	0.987554	-0.260884	-0.641639
C306	C	1.237554	-0.010884	-0.391639
C307	C	1.487554	0.239116	-0.141639
C308	C	1.737554	0.489116	0.108361
C309	C	0.998757	-0.136939	-0.380940
C310	C	1.248757	0.113061	-0.130940
C311	C	1.498757	0.363061	0.119060
C312	C	1.748757	0.613061	0.369060
C313	C	0.998809	-0.087006	-0.380974
C314	C	1.248809	0.162994	-0.130974
C315	C	1.498809	0.412994	0.119026
C316	C	1.748809	0.662994	0.369026
C317	C	1.030861	-0.234386	-0.680183
C318	C	1.280861	0.015614	-0.430183
C319	C	1.530861	0.265614	-0.180183
C320	C	1.780861	0.515614	0.069817
C321	C	1.027742	-0.236286	-0.753399
C322	C	1.277742	0.013714	-0.503399
C323	C	1.527742	0.263714	-0.253399
C324	C	1.777742	0.513714	-0.003399
C325	C	0.981319	-0.264685	-0.788070
C326	C	1.231319	-0.014685	-0.538070
C327	C	1.481319	0.235315	-0.288070
C328	C	1.731319	0.485315	-0.038070
C329	C	0.938007	-0.291184	-0.749521
C330	C	1.188007	-0.041184	-0.499521
C331	C	1.438007	0.208816	-0.249521
C332	C	1.688007	0.458816	0.000479
C333	C	0.941123	-0.289282	-0.676306
C334	C	1.191123	-0.039282	-0.426306
C335	C	1.441123	0.210718	-0.176306
C336	C	1.691123	0.460718	0.073694
C337	C	0.969663	-0.271800	-1.009035
C338	C	1.219663	-0.021800	-0.759035
C339	C	1.469663	0.228200	-0.509035
C340	C	1.719663	0.478200	-0.259035
C341	C	0.966552	-0.273701	-1.082256
C342	C	1.216552	-0.023701	-0.832256
C343	C	1.466552	0.226299	-0.582256
C344	C	1.716552	0.476299	-0.332256
C345	C	1.056286	-0.218802	-1.086128
C346	C	1.306286	0.031198	-0.836128
C347	C	1.556286	0.281198	-0.586128
C348	C	1.806286	0.531198	-0.336128
C349	C	1.059401	-0.216904	-1.012912
C350	C	1.309401	0.033096	-0.762912
C351	C	1.559401	0.283096	-0.512912
C352	C	1.809401	0.533096	-0.262912
C353	C	1.016086	-0.243401	-0.974369
C354	C	1.266086	0.006599	-0.724369
C355	C	1.516086	0.256599	-0.474369
C356	C	1.766086	0.506599	-0.224369
C357	C	0.978131	-0.266629	-0.862909
C358	C	1.228131	-0.016629	-0.612909
C359	C	1.478131	0.233371	-0.362909
C360	C	1.728131	0.483371	-0.112909
C361	C	1.019271	-0.241455	-0.899532
C362	C	1.269271	0.008545	-0.649532
C363	C	1.519271	0.258545	-0.399532
C364	C	1.769271	0.508545	-0.149532
C365	C	1.006412	-0.249350	-0.198716
C366	C	1.256412	0.000650	0.051284
C367	C	1.506412	0.250650	0.301284
C368	C	1.756412	0.500650	0.551284
C369	C	1.009859	-0.247203	-0.120799
C370	C	1.259859	0.002797	0.129201
C371	C	1.509859	0.252797	0.379201
C372	C	1.759859	0.502797	0.629201
H373	H	0.402514	-0.211211	-0.316747
H374	H	0.652514	0.038789	-0.066747
H375	H	0.902514	0.288789	0.183253
H376	H	1.152514	0.538789	0.433253
H377	H	1.057066	-0.218330	-0.871299
H378	H	1.307066	0.031670	-0.621299
H379	H	1.557066	0.281670	-0.371299
H380	H	1.807066	0.531670	-0.121299
C381	C	0.251729	-0.324322	-0.485809
C382	C	0.501729	-0.074322	-0.235809
C383	C	0.751729	0.175678	0.014191
C384	C	1.001729	0.425678	0.264191
N385	N	0.219809	-0.348262	-0.521596
N386	N	0.469809	-0.098262	-0.271596
N387	N	0.719809	0.151738	-0.021596
N388	N	0.969809	0.401738	0.228404
H389	H	1.063009	-0.214710	-0.784778
H390	H	1.313009	0.035290	-0.534778
H391	H	1.563009	0.285290	-0.284778
H392	H	1.813009	0.535290	-0.034778
C393	C	1.088632	-0.423463	-0.479044
C394	C	1.338632	-0.173463	-0.229044
C395	C	1.588632	0.076537	0.020956
C396	C	1.838632	0.326537	0.270956
N397	N	1.124170	-0.406021	-0.517802
N398	N	1.374170	-0.156021	-0.267802
N399	N	1.624170	0.093979	-0.017802
N400	N	1.874170	0.343979	0.232198
C401	C	0.738197	-0.309674	-0.463892
C402	C	0.988197	-0.059674	-0.213892
C403	C	1.238197	0.190326	0.036108
C404	C	1.488197	0.440326	0.286108
N405	N	0.766934	-0.335343	-0.502259
N406	N	1.016934	-0.085343	-0.252259
N407	N	1.266934	0.164657	-0.002259
N408	N	1.516934	0.414657	0.247741
H409	H	0.920948	-0.993178	-0.296073
H410	H	1.170948	-0.743178	-0.046073
H411	H	1.420948	-0.493178	0.203927
H412	H	1.670948	-0.243178	0.453927
H413	H	0.269691	-0.207429	-0.311110
H414	H	0.519691	0.042571	-0.061110
H415	H	0.769691	0.292571	0.188890
H416	H	1.019691	0.542571	0.438890
C417	C	0.865672	-0.725312	-0.235866
C418	C	1.115672	-0.475312	0.014134
C419	C	1.365672	-0.225312	0.264134
C420	C	1.615672	0.024688	0.514134
N421	N	0.830126	-0.742749	-0.197109
N422	N	1.080126	-0.492749	0.052891
N423	N	1.330126	-0.242749	0.302891
N424	N	1.580126	0.007251	0.552891
C425	C	1.103920	-0.189652	-1.128531
C426	C	1.353920	0.060348	-0.878531
C427	C	1.603920	0.310348	-0.628531
C428	C	1.853920	0.560348	-0.378531
N429	N	1.139796	-0.167692	-1.160468
N430	N	1.389796	0.082308	-0.910468
N431	N	1.639796	0.332308	-0.660468
N432	N	1.889796	0.582308	-0.410468
H433	H	0.940337	-0.289754	-0.891147
H434	H	1.190337	-0.039754	-0.641147
H435	H	1.440337	0.210246	-0.391147
H436	H	1.690337	0.460246	-0.141147
C437	C	0.865743	-0.866071	-0.235902
C438	C	1.115743	-0.616071	0.014098
C439	C	1.365743	-0.366071	0.264098
C440	C	1.615743	-0.116071	0.514098
N441	N	0.830200	-0.883512	-0.197146
N442	N	1.080200	-0.633512	0.052854
N443	N	1.330200	-0.383512	0.302854
N444	N	1.580200	-0.133512	0.552854
C445	C	0.746247	-0.183929	-0.275959
C446	C	0.996247	0.066071	-0.025959
C447	C	1.246247	0.316071	0.224041
C448	C	1.496247	0.566071	0.474041
N449	N	0.778163	-0.159986	-0.240172
N450	N	1.028163	0.090014	0.009828
N451	N	1.278163	0.340014	0.259828
N452	N	1.528163	0.590014	0.509828
H453	H	0.595461	-0.297039	-0.445018
H454	H	0.845461	-0.047039	-0.195018
H455	H	1.095461	0.202961	0.054982
H456	H	1.345461	0.452961	0.304982
C457	C	0.405484	-0.328701	-0.492336
C458	C	0.655484	-0.078701	-0.242336
C459	C	0.905484	0.171299	0.007664
C460	C	1.155484	0.421299	0.257664
N461	N	0.434225	-0.354373	-0.530694
N462	N	0.684225	-0.104373	-0.280694
N463	N	0.934225	0.145627	-0.030694
N464	N	1.184225	0.395627	0.219306
H465	H	0.905851	-0.310854	-0.644924
H466	H	1.155851	-0.060854	-0.394924
H467	H	1.405851	0.189146	-0.144924
H468	H	1.655851	0.439146	0.105076
C469	C	0.592490	-0.179554	-0.269430
C470	C	0.842490	0.070446	-0.019430
C471	C	1.092490	0.320446	0.230570
C472	C	1.342490	0.570446	0.480570
N473	N	0.563745	-0.153886	-0.231068
N474	N	0.813745	0.096114	0.018932
N475	N	1.063745	0.346114	0.268932
N476	N	1.313745	0.596114	0.518932
C477	C	0.518852	-0.301926	-0.452328
C478	C	0.768852	-0.051926	-0.202328
C479	C	1.018852	0.198074	0.047672
C480	C	1.268852	0.448074	0.297672
N481	N	0.547605	-0.327595	-0.490683
N482	N	0.797605	-0.077595	-0.240683
N483	N	1.047605	0.172405	0.009317
N484	N	1.297605	0.422405	0.259317
C485	C	0.479118	-0.206325	-0.309439
C486	C	0.729118	0.043675	-0.059439
C487	C	0.979118	0.293675	0.190561
C488	C	1.229118	0.543675	0.440561
N489	N	0.450365	-0.180659	-0.271078
N490	N	0.700365	0.069341	-0.021078
N491	N	0.950365	0.319341	0.228922
N492	N	1.200365	0.569341	0.478922
H493	H	0.928746	-0.296828	-1.110483
H494	H	1.178746	-0.046828	-0.860483
H495	H	1.428746	0.203172	-0.610483
H496	H	1.678746	0.453172	-0.360483
H497	H	1.097205	-0.193780	-0.984688
H498	H	1.347205	0.056220	-0.734688
H499	H	1.597205	0.306220	-0.484688
H500	H	1.847205	0.556220	-0.234688
H501	H	0.934404	-0.293382	-0.977663
H502	H	1.184404	-0.043382	-0.727663
H503	H	1.434404	0.206618	-0.477663
H504	H	1.684404	0.456618	-0.227663
H505	H	1.076625	-1.087009	-0.465853
H506	H	1.326625	-0.837009	-0.215853
H507	H	1.576625	-0.587009	0.034147
H508	H	1.826625	-0.337009	0.284147
C509	C	1.131653	-0.782441	-0.525939
C510	C	1.381653	-0.532441	-0.275939
C511	C	1.631653	-0.282441	-0.025939
C512	C	1.881653	-0.032441	0.224061
N513	N	1.167193	-0.765003	-0.564701
N514	N	1.417193	-0.515003	-0.314701
N515	N	1.667193	-0.265003	-0.064701
N516	N	1.917193	-0.015003	0.185299
C517	C	1.131677	-0.880968	-0.525964
C518	C	1.381677	-0.630968	-0.275964
C519	C	1.631677	-0.380968	-0.025964
C520	C	1.881677	-0.130968	0.224036
N521	N	1.167215	-0.902401	-0.564731
N522	N	1.417215	-0.652401	-0.314731
N523	N	1.667215	-0.402401	-0.064731
N524	N	1.917215	-0.152401	0.185269
C525	C	1.088668	-0.521980	-0.479083
C526	C	1.338668	-0.271980	-0.229083
C527	C	1.588668	-0.021980	0.020917
C528	C	1.838668	0.228020	0.270917
N529	N	1.124224	-0.543397	-0.517853
N530	N	1.374224	-0.293397	-0.267853
N531	N	1.624224	-0.043397	-0.017853
N532	N	1.874224	0.206603	0.232147
C533	C	0.886935	-0.322419	-0.787662
C534	C	1.136935	-0.072419	-0.537662
C535	C	1.386935	0.177581	-0.287662
C536	C	1.636935	0.427581	-0.037662
N537	N	0.848465	-0.345946	-0.816389
N538	N	1.098465	-0.095946	-0.566389
N539	N	1.348465	0.154054	-0.316389
N540	N	1.598465	0.404054	-0.066389
C541	C	1.131606	-0.641692	-0.525895
C542	C	1.381606	-0.391692	-0.275895
C543	C	1.631606	-0.141692	-0.025895
C544	C	1.881606	0.108308	0.224105
N545	N	1.167148	-0.624254	-0.564655
N546	N	1.417148	-0.374254	-0.314655
N547	N	1.667148	-0.124254	-0.064655
N548	N	1.917148	0.125746	0.185345
H549	H	1.119373	-0.732815	-0.512557
H550	H	1.369373	-0.482815	-0.262557
H551	H	1.619373	-0.232815	-0.012557
H552	H	1.869373	0.017185	0.237443
H553	H	0.920764	-0.505890	-0.295937
H554	H	1.170764	-0.255890	-0.045937
H555	H	1.420764	-0.005890	0.204063
H556	H	1.670764	0.244110	0.454063
H557	H	1.076599	-1.001886	-0.465834
H558	H	1.326599	-0.751886	-0.215834
H559	H	1.576599	-0.501886	0.034166
H560	H	1.826599	-0.251886	0.284166
H561	H	0.920993	-1.078288	-0.296086
H562	H	1.170993	-0.828288	-0.046086
H563	H	1.420993	-0.578288	0.203914
H564	H	1.670993	-0.328288	0.453914
C565	C	0.865639	-0.626797	-0.235844
C566	C	1.115639	-0.376797	0.014156
C567	C	1.365639	-0.126797	0.264156
C568	C	1.615639	0.123203	0.514156
N569	N	0.830089	-0.605376	-0.197073
N570	N	1.080089	-0.355376	0.052927
N571	N	1.330089	-0.105376	0.302927
N572	N	1.580089	0.144624	0.552927
H573	H	0.920734	-0.420766	-0.295917
H574	H	1.170734	-0.170766	-0.045917
H575	H	1.420734	0.079234	0.204083
H576	H	1.670734	0.329234	0.454083
H577	H	0.877971	-0.774947	-0.249247
H578	H	1.127971	-0.524947	0.000753
H579	H	1.377971	-0.274947	0.250753
H580	H	1.627971	-0.024947	0.500753
C581	C	1.081930	-0.203144	-0.642051
C582	C	1.331930	0.046856	-0.392051
C583	C	1.581930	0.296856	-0.142051
C584	C	1.831930	0.546856	0.107949
N585	N	1.120394	-0.179609	-0.613332
N586	N	1.370394	0.070391	-0.363332
N587	N	1.620394	0.320391	-0.113332
N588	N	1.870394	0.570391	0.136668
