data_functionalizedCrystal
_audit_creation_method	'MofGen! by Chris Wilmer'
_symmetry_space_group_name_H-M	'P1'
_symmetry_Int_Tables_number	1
_symmetry_cell_setting	triclinic
loop_
_symmetry_equiv_pos_as_xyz
  x,y,z
_cell_length_a	14.971507
_cell_length_b	14.971486
_cell_length_c	14.048226
_cell_angle_alpha	89.998499
_cell_angle_beta	89.991410
_cell_angle_gamma	83.618396
loop_
_atom_site_label
_atom_site_type_symbol
_atom_site_fract_x
_atom_site_fract_y
_atom_site_fract_z
O1	O	-0.116563	-1.186956	0.079056
O2	O	0.383437	-0.686956	0.579056
O3	O	-0.130522	-0.926557	0.079082
O4	O	0.369478	-0.426557	0.579082
O5	O	0.006656	-1.063726	0.079057
O6	O	0.506656	-0.563726	0.579057
O7	O	-0.253742	-1.049787	0.079081
O8	O	0.246258	-0.549787	0.579081
O9	O	0.006664	-1.063709	-0.079264
O10	O	0.506664	-0.563709	0.420736
O11	O	-0.130514	-0.926540	-0.079239
O12	O	0.369486	-0.426540	0.420761
O13	O	-0.116555	-1.186939	-0.079266
O14	O	0.383445	-0.686939	0.420734
Zn15	Zn	-0.123533	-1.056737	-0.104389
Zn16	Zn	0.376467	-0.556737	0.395611
Zn17	Zn	-0.123544	-1.056759	0.104206
Zn18	Zn	0.376456	-0.556759	0.604206
O19	O	-0.253734	-1.049770	-0.079240
O20	O	0.246266	-0.549770	0.420760
C21	C	-0.129894	-0.893224	-0.000075
C22	C	0.370106	-0.393224	0.499925
C23	C	-0.128023	-0.793926	-0.000065
C24	C	0.371977	-0.293926	0.499935
C25	C	0.039984	-1.063091	-0.000105
C26	C	0.539984	-0.563091	0.499895
C27	C	0.139281	-1.061213	-0.000107
C28	C	0.639281	-0.561213	0.499893
C29	C	0.577563	-1.134630	-0.000145
C30	C	1.077563	-0.634630	0.499855
C31	C	0.484263	-1.136387	-0.000145
C32	C	0.984263	-0.636387	0.499855
C33	C	0.427043	-1.055795	-0.000130
C34	C	0.927043	-0.555795	0.499870
C35	C	0.463127	-0.973440	-0.000125
C36	C	0.963127	-0.473440	0.499875
C37	C	0.556426	-0.971683	-0.000132
C38	C	1.056426	-0.471683	0.499868
C39	C	0.268664	-0.977107	-0.000108
C40	C	0.768664	-0.477107	0.499892
C41	C	0.175359	-0.978864	-0.000099
C42	C	0.675359	-0.478864	0.499901
C43	C	0.196501	-1.141811	-0.000121
C44	C	0.696501	-0.641811	0.499879
C45	C	0.289800	-1.140055	-0.000128
C46	C	0.789800	-0.640055	0.499872
C47	C	0.325878	-1.057699	-0.000121
C48	C	0.825878	-0.557699	0.499879
C49	C	-0.117184	-1.220272	-0.000106
C50	C	0.382816	-0.720272	0.499894
C51	C	-0.119054	-1.319569	-0.000109
C52	C	0.380946	-0.819569	0.499891
C53	C	0.712938	-1.050404	-0.000094
C54	C	1.212938	-0.550404	0.499906
C55	C	0.613642	-1.052281	-0.000137
C56	C	1.113642	-0.552281	0.499863
C57	C	-0.208612	-0.736707	-0.000059
C58	C	0.291388	-0.236707	0.499941
C59	C	-0.206848	-0.643408	-0.000074
C60	C	0.293152	-0.143408	0.499926
C61	C	-0.124496	-0.607329	-0.000087
C62	C	0.375504	-0.107329	0.499913
C63	C	-0.043901	-0.664556	-0.000096
C64	C	0.456099	-0.164556	0.499904
C65	C	-0.045665	-0.757853	-0.000089
C66	C	0.454335	-0.257853	0.499911
C67	C	-0.040230	-0.470093	-0.000110
C68	C	0.459770	0.029907	0.499890
C69	C	-0.038466	-0.376789	-0.000116
C70	C	0.461534	0.123211	0.499884
C71	C	-0.201413	-0.355647	-0.000095
C72	C	0.298587	0.144353	0.499905
C73	C	-0.203177	-0.448945	-0.000087
C74	C	0.296823	0.051055	0.499913
C75	C	-0.122582	-0.506165	-0.000094
C76	C	0.377418	-0.006165	0.499906
N77	N	-0.123526	-1.056729	-0.246750
N78	N	0.376474	-0.556729	0.253250
C79	C	-0.062808	-1.117486	-0.296579
C80	C	0.437192	-0.617486	0.203421
C81	C	-0.062808	-1.117492	-0.396237
C82	C	0.437192	-0.617492	0.103763
C83	C	-0.123530	-1.056744	-0.446063
C84	C	0.376470	-0.556744	0.053937
C85	C	-0.184250	-0.995980	-0.396227
C86	C	0.315750	-0.495980	0.103773
C87	C	-0.184245	-0.995971	-0.296571
C88	C	0.315755	-0.495971	0.203429
C89	C	-0.184256	-0.996006	-0.603941
C90	C	0.315744	-0.496006	-0.103941
C91	C	-0.184262	-0.996017	-0.703604
C92	C	0.315738	-0.496017	-0.203604
C93	C	-0.062819	-1.117528	-0.703607
C94	C	0.437181	-0.617528	-0.203607
C95	C	-0.062814	-1.117518	-0.603951
C96	C	0.437186	-0.617518	-0.103951
C97	C	-0.123536	-1.056755	-0.554122
C98	C	0.376464	-0.556755	-0.054122
N99	N	-0.123545	-1.056774	0.246567
N100	N	0.376455	-0.556774	0.746567
H101	H	0.624146	-1.200258	-0.000150
H102	H	1.124146	-0.700258	0.499850
Cl103	Cl	0.151147	-1.245344	-0.000129
Cl104	Cl	0.651147	-0.745344	0.499871
H105	H	0.416531	-0.907820	-0.000118
H106	H	0.916531	-0.407820	0.499882
Cl107	Cl	0.061091	-0.542026	-0.000121
Cl108	Cl	0.561091	-0.042026	0.499879
H109	H	0.028593	-0.347417	-0.000128
H110	H	0.528593	0.152583	0.499872
H111	H	-0.270236	-0.478316	-0.000067
H112	H	0.229764	0.021684	0.499933
H113	H	0.454893	-1.203444	-0.000153
H114	H	0.954893	-0.703444	0.499847
H115	H	-0.267037	-0.309053	-0.000093
H116	H	0.232963	0.190947	0.499907
Cl117	Cl	0.059628	-0.619200	-0.000120
Cl118	Cl	0.559628	-0.119200	0.499880
H119	H	-0.275672	-0.766074	-0.000047
H120	H	0.224328	-0.266074	0.499953
H121	H	0.019958	-0.804441	-0.000093
H122	H	0.519958	-0.304441	0.499907
Cl123	Cl	0.013529	-1.193864	-0.233951
Cl124	Cl	0.513529	-0.693864	0.266049
H125	H	0.585799	-0.904626	-0.000133
H126	H	1.085799	-0.404626	0.499867
Cl127	Cl	0.013516	-1.193892	-0.541310
Cl128	Cl	0.513516	-0.693892	-0.041310
H129	H	-0.233707	-0.946548	-0.744168
H130	H	0.266293	-0.446548	-0.244168
H131	H	-0.013367	-1.166965	-0.436807
H132	H	0.486633	-0.666965	0.063193
Cl133	Cl	0.013514	-1.193916	-0.766253
Cl134	Cl	0.513514	-0.693916	-0.266253
H135	H	-0.233700	-0.946523	-0.563373
H136	H	0.266300	-0.446523	-0.063373
H137	H	-0.233688	-0.946514	-0.436802
H138	H	0.266312	-0.446514	0.063198
H139	H	-0.233686	-0.946495	-0.256001
H140	H	0.266314	-0.446495	0.243999
H141	H	0.336387	-1.205680	-0.000135
H142	H	0.836387	-0.705680	0.499865
H143	H	0.128772	-0.913238	-0.000092
H144	H	0.628772	-0.413238	0.499908
H145	H	0.298035	-0.910045	-0.000115
H146	H	0.798035	-0.410045	0.499885
Cl147	Cl	-0.308165	-0.571478	-0.000060
Cl148	Cl	0.191835	-0.071478	0.499940
