data_functionalizedCrystal
_audit_creation_method	'MofGen! by Chris Wilmer'
_symmetry_space_group_name_H-M	'P1'
_symmetry_Int_Tables_number	1
_symmetry_cell_setting	triclinic
loop_
_symmetry_equiv_pos_as_xyz
  x,y,z
_cell_length_a	10.489741
_cell_length_b	10.489746
_cell_length_c	10.268362
_cell_angle_alpha	89.998351
_cell_angle_beta	90.001726
_cell_angle_gamma	95.459763
loop_
_atom_site_label
_atom_site_type_symbol
_atom_site_fract_x
_atom_site_fract_y
_atom_site_fract_z
O1	O	-0.180001	1.694050	-0.108201
O2	O	-0.196886	1.322855	-0.108222
O3	O	-0.002846	1.516899	-0.108214
O4	O	-0.374041	1.500006	-0.108209
O5	O	-0.002838	1.516882	0.108386
O6	O	-0.196878	1.322838	0.108378
O7	O	-0.179992	1.694033	0.108399
Cu8	Cu	-0.188435	1.508434	0.128166
Cu9	Cu	-0.188444	1.508454	-0.127989
O10	O	-0.374033	1.499989	0.108391
C11	C	-0.195606	1.275315	0.000075
C12	C	-0.191786	1.133686	0.000067
C13	C	-0.066062	0.980828	0.000084
C14	C	-0.128915	1.058213	0.106876
C15	C	-0.128952	1.058186	-0.106675
C16	C	-0.247896	0.958722	0.106980
C17	C	-0.247916	0.958689	-0.106668
C18	C	-0.310856	1.036025	0.000151
C19	C	-0.421569	1.501273	0.000092
C20	C	-0.563198	1.505091	0.000094
C21	C	-0.631341	1.628555	0.000091
C22	C	-0.723456	1.570223	0.106882
C23	C	-0.723442	1.570211	-0.106669
C24	C	-0.653449	1.446708	0.106973
C25	C	-0.653425	1.446713	-0.106674
C26	C	-0.745513	1.388291	0.000144
C27	C	0.044690	1.515614	0.000082
C28	C	0.186320	1.511797	0.000072
C29	C	-0.181273	1.741573	0.000099
C30	C	-0.185093	1.883202	0.000099
N31	N	-0.188427	1.508429	0.308332
N32	N	-0.188442	1.508469	-0.308155
C33	C	-0.188442	1.508448	0.574003
C34	C	-0.188437	1.508433	0.426165
H35	H	0.037439	0.956107	0.000190
Cl36	Cl	-0.325432	0.891531	-0.246069
H37	H	-0.298107	0.915435	0.197369
H38	H	-0.581694	1.730068	0.000203
Cl39	Cl	-0.821810	1.231421	0.000211
H40	H	-0.622385	1.394523	-0.196969
Cl41	Cl	-0.051335	1.125325	0.246274
Cl42	Cl	-0.470774	1.073815	0.000234
H43	H	-0.078685	1.101636	-0.196962
Cl44	Cl	-0.771289	1.650909	-0.246055
Cl45	Cl	-0.771344	1.650868	0.246276
H46	H	-0.622611	1.394502	0.197357
