data_functionalizedCrystal
_audit_creation_method	'MofGen! by Chris Wilmer'
_symmetry_space_group_name_H-M	'P1'
_symmetry_Int_Tables_number	1
_symmetry_cell_setting	triclinic
loop_
_symmetry_equiv_pos_as_xyz
  x,y,z
_cell_length_a	12.759401
_cell_length_b	18.050589
_cell_length_c	12.759393
_cell_angle_alpha	89.970734
_cell_angle_beta	89.981798
_cell_angle_gamma	90.028382
loop_
_atom_site_label
_atom_site_type_symbol
_atom_site_fract_x
_atom_site_fract_y
_atom_site_fract_z
Zn1	Zn	1.606154	-0.295622	-0.593988
Zn2	Zn	2.106154	0.204378	-0.093988
Zn3	Zn	1.606007	-0.419830	-0.418311
Zn4	Zn	2.106007	0.080170	0.081689
Zn5	Zn	1.430456	-0.295658	-0.418328
Zn6	Zn	1.930456	0.204342	0.081672
Zn7	Zn	1.430403	-0.419775	-0.593953
Zn8	Zn	1.930403	0.080225	-0.093953
O9	O	1.518255	-0.357721	-0.506145
O10	O	2.018255	0.142279	-0.006145
O11	O	1.753155	-0.312106	-0.570692
O12	O	2.253155	0.187894	-0.070692
O13	O	1.582681	-0.403396	-0.271292
O14	O	2.082681	0.096604	0.228708
O15	O	1.453847	-0.191729	-0.441651
O16	O	1.953847	0.308271	0.058349
O17	O	1.753048	-0.403361	-0.441623
O18	O	2.253048	0.096639	0.058377
O19	O	1.582931	-0.191703	-0.570708
O20	O	2.082931	0.308297	-0.070708
O21	O	1.453705	-0.312168	-0.271304
O22	O	1.953705	0.187832	0.228696
O23	O	1.283428	-0.312115	-0.441617
O24	O	1.783428	0.187885	0.058383
O25	O	1.453755	-0.403269	-0.740979
O26	O	1.953755	0.096731	-0.240979
O27	O	1.283389	-0.403303	-0.570648
O28	O	1.783389	0.096697	-0.070648
O29	O	1.582879	-0.312054	-0.741005
O30	O	2.082879	0.187946	-0.241005
O31	O	1.582629	-0.523747	-0.441589
O32	O	2.082629	-0.023747	0.058411
O33	O	1.453613	-0.523707	-0.570632
O34	O	1.953613	-0.023707	-0.070632
C35	C	1.245288	-0.357708	-0.506131
C36	C	1.745288	0.142292	-0.006131
C37	C	1.128511	-0.357720	-0.506149
C38	C	1.628511	0.142280	-0.006149
C39	C	1.073656	-0.405278	-0.573225
C40	C	1.573656	0.094722	-0.073225
C41	C	0.963932	-0.405287	-0.573236
C42	C	1.463932	0.094713	-0.073236
C43	C	0.963928	-0.310179	-0.439088
C44	C	1.463928	0.189821	0.060912
C45	C	1.073650	-0.310166	-0.439083
C46	C	1.573650	0.189834	0.060917
C47	C	1.128517	-0.452831	-0.640292
C48	C	1.628517	0.047169	-0.140292
C49	C	1.073662	-0.500393	-0.707372
C50	C	1.573662	-0.000393	-0.207372
C51	C	0.963938	-0.500403	-0.707383
C52	C	1.463938	-0.000403	-0.207383
C53	C	0.909069	-0.452850	-0.640314
C54	C	1.409069	0.047150	-0.140314
C55	C	1.518128	-0.550674	-0.506127
C56	C	2.018128	-0.050674	-0.006127
C57	C	1.518170	-0.633219	-0.506155
C58	C	2.018170	-0.133219	-0.006155
C59	C	1.448080	-0.832675	-0.576304
C60	C	1.948080	-0.332675	-0.076304
C61	C	1.422466	-0.882122	-0.480436
C62	C	1.922466	-0.382122	0.019564
C63	C	1.518273	-0.784350	-0.506169
C64	C	2.018273	-0.284350	-0.006169
C65	C	1.543939	-0.881984	-0.602048
C66	C	2.043939	-0.381984	-0.102048
C67	C	1.518371	-0.930335	-0.506191
C68	C	2.018371	-0.430335	-0.006191
C69	C	1.492609	-0.832710	-0.410250
C70	C	1.992609	-0.332710	0.089750
C71	C	1.614126	-0.832567	-0.531927
C72	C	2.114126	-0.332567	-0.031927
C73	C	1.588549	-0.881992	-0.435992
C74	C	2.088549	-0.381992	0.064008
C75	C	1.518214	-0.700251	-0.506158
C76	C	2.018214	-0.200251	-0.006158
C77	C	1.518430	-1.014431	-0.506191
C78	C	2.018430	-0.514431	-0.006191
C79	C	1.792288	-0.357736	-0.506160
C80	C	2.292288	0.142264	-0.006160
C81	C	1.909065	-0.357742	-0.506166
C82	C	2.409065	0.142258	-0.006166
C83	C	1.518327	-0.357651	-0.780178
C84	C	2.018327	0.142349	-0.280178
C85	C	1.518358	-0.357621	-0.896955
C86	C	2.018358	0.142379	-0.396955
C87	C	1.518411	-0.164016	-0.506185
C88	C	2.018411	0.335984	-0.006185
C89	C	1.518477	-0.081470	-0.506203
C90	C	2.018477	0.418530	-0.006203
C91	C	1.585554	-0.405070	-1.061540
C92	C	2.085554	0.094930	-0.561540
C93	C	1.585523	-0.405103	-0.951816
C94	C	2.085523	0.094897	-0.451816
C95	C	1.451213	-0.310108	-0.951824
C96	C	1.951213	0.189892	-0.451824
C97	C	1.451240	-0.310079	-1.061547
C98	C	1.951240	0.189921	-0.561547
C99	C	1.652731	-0.452550	-1.116395
C100	C	2.152731	0.047450	-0.616395
C101	C	1.719876	-0.500064	-1.061533
C102	C	2.219876	-0.000064	-0.561533
C103	C	1.719844	-0.500097	-0.951809
C104	C	2.219844	-0.000097	-0.451809
C105	C	1.652668	-0.452616	-0.896946
C106	C	2.152668	0.047384	-0.396946
C107	C	1.518244	-0.357738	-0.233178
C108	C	2.018244	0.142262	0.266822
C109	C	1.518417	-0.357559	-0.116401
C110	C	2.018417	0.142441	0.383599
H111	H	0.819724	-0.452855	-0.640338
H112	H	1.319724	0.047145	-0.140338
H113	H	1.470847	-0.811154	-0.329152
H114	H	1.970847	-0.311154	0.170848
H115	H	1.396573	-0.271389	-1.106216
H116	H	1.896573	0.228611	-0.606216
H117	H	1.341453	-0.903906	-0.458669
H118	H	1.841453	-0.403906	0.041331
H119	H	1.217860	-0.452830	-0.640288
H120	H	1.717860	0.047170	-0.140288
F121	F	1.791356	-0.550600	-1.119922
F122	F	2.291356	-0.050600	-0.619922
F123	F	1.652625	-0.452663	-0.780167
F124	F	2.152625	0.047337	-0.280167
F125	F	1.719993	-0.804095	-0.560436
F126	F	2.219993	-0.304095	-0.060436
H127	H	0.919278	-0.539125	-0.762010
H128	H	1.419278	-0.039125	-0.262010
H129	H	1.118314	-0.271435	-0.384472
H130	H	1.618314	0.228565	0.115528
F131	F	0.905529	-0.259575	-0.367713
F132	F	1.405529	0.240425	0.132287
H133	H	1.396523	-0.271450	-0.907147
H134	H	1.896523	0.228550	-0.407147
H135	H	1.774510	-0.538790	-0.907143
H136	H	2.274510	-0.038790	-0.407143
F137	F	1.652774	-0.452516	-1.233172
F138	F	2.152774	0.047484	-0.733172
F139	F	1.132059	-0.550995	-0.778752
F140	F	1.632059	-0.050995	-0.278752
F141	F	1.370382	-0.804369	-0.653720
F142	F	1.870382	-0.304369	-0.153720
H143	H	1.565608	-0.903629	-0.683124
H144	H	2.065608	-0.403629	-0.183124
F145	F	1.666194	-0.910118	-0.358394
F146	F	2.166194	-0.410118	0.141606
