data_functionalizedCrystal
_audit_creation_method	'MofGen! by Chris Wilmer'
_symmetry_space_group_name_H-M	'P1'
_symmetry_Int_Tables_number	1
_symmetry_cell_setting	triclinic
loop_
_symmetry_equiv_pos_as_xyz
  x,y,z
_cell_length_a	12.594517
_cell_length_b	18.050589
_cell_length_c	12.594509
_cell_angle_alpha	90.027696
_cell_angle_beta	90.021327
_cell_angle_gamma	90.028021
loop_
_atom_site_label
_atom_site_type_symbol
_atom_site_fract_x
_atom_site_fract_y
_atom_site_fract_z
Zn1	Zn	1.627177	-0.295641	0.601864
Zn2	Zn	1.627030	-0.419845	0.423887
Zn3	Zn	1.449181	-0.295673	0.423893
Zn4	Zn	1.449125	-0.419793	0.601817
O5	O	1.538128	-0.357738	0.512865
O6	O	1.776103	-0.312125	0.578272
O7	O	1.603400	-0.403408	0.274942
O8	O	1.472877	-0.191744	0.447523
O9	O	1.775995	-0.403377	0.447513
O10	O	1.603650	-0.191721	0.578278
O11	O	1.472735	-0.312179	0.274946
O12	O	1.300228	-0.312129	0.447478
O13	O	1.472782	-0.403289	0.750769
O14	O	1.300187	-0.403320	0.578198
O15	O	1.603596	-0.312075	0.750804
O16	O	1.603346	-0.523763	0.447468
O17	O	1.472640	-0.523725	0.578192
C18	C	1.261587	-0.357723	0.512834
C19	C	1.143282	-0.357735	0.512846
C20	C	1.074020	-0.308068	0.441883
C21	C	1.003188	-0.375810	0.415704
C22	C	1.003314	-0.290026	0.539043
C23	C	1.074008	-0.425512	0.486616
C24	C	1.074141	-0.339682	0.610001
C25	C	1.003341	-0.407471	0.583858
C26	C	1.538000	-0.550690	0.512848
C27	C	1.538042	-0.633236	0.512876
C28	C	1.467034	-0.832693	0.583939
C29	C	1.441086	-0.882138	0.486814
C30	C	1.538147	-0.784366	0.512889
C31	C	1.564147	-0.882003	0.610026
C32	C	1.538246	-0.930351	0.512911
C33	C	1.512147	-0.832724	0.415713
C34	C	1.635254	-0.832585	0.538990
C35	C	1.609343	-0.882007	0.441799
C36	C	1.538087	-0.700268	0.512878
C37	C	1.538306	-1.014448	0.512912
C38	C	1.815749	-0.357753	0.512897
C39	C	1.934055	-0.357760	0.512911
C40	C	1.538200	-0.357673	0.790486
C41	C	1.538230	-0.357645	0.908792
C42	C	1.538286	-0.164032	0.512906
C43	C	1.538354	-0.081487	0.512924
C44	C	1.538119	-0.357749	0.236324
C45	C	1.538294	-0.357568	0.118019
C46	C	1.467103	-0.407228	0.978026
C47	C	1.564218	-0.425374	1.048817
C48	C	1.441191	-0.339455	1.048800
C49	C	1.635396	-0.375826	0.978024
C50	C	1.512303	-0.289876	0.978001
C51	C	1.609485	-0.307996	1.048760
H52	H	1.105330	-0.324376	0.692110
H53	H	1.359012	-0.903921	0.464757
H54	H	1.669523	-0.903524	0.381655
C55	C	1.593301	-0.501798	1.090244
C56	C	1.518537	-0.553528	1.054435
C57	C	1.545279	-0.623937	1.092584
H58	H	1.661735	-0.515136	1.064995
H59	H	1.593702	-0.501134	1.165672
H60	H	1.518147	-0.554195	0.979023
H61	H	1.450097	-0.540215	1.079683
H62	H	1.545680	-0.623272	1.168012
H63	H	1.613714	-0.637267	1.067331
H64	H	1.494551	-0.659043	1.068301
C65	C	1.115440	-0.501839	0.456944
C66	C	1.226602	-0.500922	0.457187
C67	C	1.264807	-0.571216	0.429842
H68	H	1.090787	-0.537218	0.507017
H69	H	1.090615	-0.514761	0.388139
H70	H	1.251416	-0.488010	0.525981
H71	H	1.251283	-0.465558	0.407112
H72	H	1.239982	-0.584137	0.361038
H73	H	1.240147	-0.606589	0.479920
H74	H	1.340233	-0.570601	0.429995
C75	C	1.744800	-0.396416	0.936547
C76	C	1.743470	-0.396267	0.825385
C77	C	1.844226	-0.415243	0.787137
H78	H	1.795480	-0.361419	0.961217
H79	H	1.763363	-0.444399	0.961324
H80	H	1.724921	-0.348291	0.800618
H81	H	1.692812	-0.431265	0.800686
H82	H	1.862788	-0.463226	0.811915
H83	H	1.894897	-0.380244	0.811815
H84	H	1.843334	-0.415151	0.711711
C85	C	1.744628	-0.803575	0.568676
C86	C	1.771390	-0.828483	0.670488
C87	C	1.872130	-0.801764	0.697888
H88	H	1.795465	-0.821176	0.519021
H89	H	1.743966	-0.750948	0.567873
H90	H	1.772059	-0.881099	0.671284
H91	H	1.720579	-0.810883	0.720166
H92	H	1.871468	-0.749137	0.697085
H93	H	1.922958	-0.819367	0.648227
H94	H	1.890297	-0.818654	0.766974
C95	C	1.689737	-0.251931	1.089759
C96	C	1.663193	-0.181318	1.052260
C97	C	1.737108	-0.129657	1.089991
H98	H	1.688988	-0.251815	1.165176
H99	H	1.758637	-0.264899	1.065354
H100	H	1.594311	-0.168353	1.076671
H101	H	1.663950	-0.181410	0.976848
H102	H	1.806008	-0.142625	1.065586
H103	H	1.736353	-0.129548	1.165407
H104	H	1.719114	-0.081741	1.064546
H105	H	1.586099	-0.903649	0.692164
H106	H	0.972025	-0.391096	0.333570
C107	C	1.331829	-0.318873	1.090400
C108	C	1.339284	-0.254270	1.151527
C109	C	1.238563	-0.235300	1.189874
H110	H	1.285150	-0.310609	1.032349
H111	H	1.305133	-0.358093	1.133019
H112	H	1.365965	-0.215059	1.108910
H113	H	1.385943	-0.262516	1.209593
H114	H	1.211868	-0.274520	1.232493
H115	H	1.191892	-0.227039	1.131816
H116	H	1.243610	-0.191469	1.231360
H117	H	0.972503	-0.449531	0.643897
C118	C	1.482777	-0.804133	0.306072
C119	C	1.464632	-0.864180	0.238019
C120	C	1.437585	-0.837869	0.137010
H121	H	1.420267	-0.774894	0.310771
H122	H	1.539263	-0.774801	0.279009
H123	H	1.408151	-0.893500	0.265075
H124	H	1.527129	-0.893425	0.233288
H125	H	1.494071	-0.808537	0.109947
H126	H	1.375077	-0.808630	0.141720
H127	H	1.425280	-0.878606	0.090821
H128	H	1.490311	-0.232614	0.946872
C129	C	1.386808	-0.463166	0.936751
C130	C	1.285549	-0.444698	0.974171
C131	C	1.211563	-0.496216	0.936180
H132	H	1.386751	-0.462535	0.861336
H133	H	1.405357	-0.511275	0.961031
H134	H	1.267005	-0.396601	0.949885
H135	H	1.285571	-0.445334	1.049582
H136	H	1.230112	-0.544325	0.960461
H137	H	1.211517	-0.495581	0.860766
H138	H	1.142853	-0.483696	0.961572
C139	C	0.962053	-0.213597	0.568414
C140	C	0.997888	-0.161816	0.493834
C141	C	0.959914	-0.091401	0.520854
H142	H	0.886637	-0.214165	0.568843
H143	H	0.987421	-0.200382	0.636906
H144	H	0.972514	-0.175028	0.425360
H145	H	1.073299	-0.161225	0.493394
H146	H	0.985283	-0.078186	0.589346
H147	H	0.884500	-0.091976	0.521283
H148	H	0.984231	-0.056258	0.470262
C149	C	1.386567	-0.803853	0.663801
C150	C	1.285091	-0.828951	0.635981
C151	C	1.210936	-0.802390	0.709511
H152	H	1.404183	-0.821434	0.732663
H153	H	1.387472	-0.751224	0.663674
H154	H	1.284189	-0.881570	0.636120
H155	H	1.267442	-0.811373	0.567132
H156	H	1.211841	-0.749760	0.709384
H157	H	1.228562	-0.819972	0.778369
H158	H	1.142075	-0.819409	0.690641
H159	H	1.105054	-0.266108	0.381797
