data_functionalizedCrystal
_audit_creation_method	'MofGen! by Chris Wilmer'
_symmetry_space_group_name_H-M	'P1'
_symmetry_Int_Tables_number	1
_symmetry_cell_setting	triclinic
loop_
_symmetry_equiv_pos_as_xyz
  x,y,z
_cell_length_a	15.995350
_cell_length_b	14.519709
_cell_length_c	12.996460
_cell_angle_alpha	89.999966
_cell_angle_beta	89.996086
_cell_angle_gamma	96.413740
loop_
_atom_site_label
_atom_site_type_symbol
_atom_site_fract_x
_atom_site_fract_y
_atom_site_fract_z
O1	O	0.109760	-1.223669	-0.085428
O2	O	0.609760	-0.723669	0.414572
O3	O	0.122686	-0.955169	-0.085458
O4	O	0.622686	-0.455169	0.414542
O5	O	-0.005654	-1.096759	-0.085441
O6	O	0.494346	-0.596759	0.414559
O7	O	0.238099	-1.082080	-0.085445
O8	O	0.738099	-0.582080	0.414555
O9	O	-0.005661	-1.096744	0.085693
O10	O	0.494339	-0.596744	0.585693
O11	O	0.122678	-0.955154	0.085675
O12	O	0.622678	-0.455154	0.585675
O13	O	0.109753	-1.223655	0.085706
O14	O	0.609753	-0.723655	0.585706
Cu15	Cu	0.116215	-1.089403	0.101317
Cu16	Cu	0.616215	-0.589403	0.601317
Cu17	Cu	0.116224	-1.089421	-0.101069
Cu18	Cu	0.616224	-0.589421	0.398931
O19	O	0.238092	-1.082065	0.085689
O20	O	0.738092	-0.582065	0.585689
C21	C	0.122080	-0.920803	0.000104
C22	C	0.622080	-0.420803	0.500104
C23	C	0.120275	-0.818425	0.000092
C24	C	0.620275	-0.318425	0.500092
C25	C	-0.036853	-1.096145	0.000124
C26	C	0.463147	-0.596145	0.500124
C27	C	-0.129806	-1.094325	0.000118
C28	C	0.370194	-0.594325	0.500118
N29	N	0.116209	-1.089398	0.243664
N30	N	0.616209	-0.589398	0.743664
C31	C	-0.467563	-1.087791	0.000120
C32	C	0.032437	-0.587791	0.500120
C33	C	-0.420280	-0.986954	-0.000275
C34	C	0.079720	-0.486954	0.499725
C35	C	-0.323587	-0.988773	0.000111
C36	C	0.176413	-0.488773	0.500111
C37	C	-0.299998	-1.091032	0.000118
C38	C	0.200002	-0.591032	0.500118
C39	C	-0.341005	-1.140761	0.097848
C40	C	0.158995	-0.640761	0.597848
C41	C	-0.437645	-1.138227	0.097930
C42	C	0.062355	-0.638227	0.597930
C43	C	-0.437992	-1.140327	-0.096681
C44	C	0.062008	-0.640327	0.403319
C45	C	-0.341046	-1.140303	-0.097973
C46	C	0.158954	-0.640303	0.402027
C47	C	-0.205298	-1.092869	0.000121
C48	C	0.294702	-0.592869	0.500121
C49	C	-0.562264	-1.085957	0.000125
C50	C	-0.062264	-0.585957	0.500125
C51	C	0.269292	-1.082679	0.000122
C52	C	0.769292	-0.582679	0.500122
C53	C	0.362245	-1.084498	0.000121
C54	C	0.862245	-0.584498	0.500121
C55	C	0.110359	-1.258021	0.000141
C56	C	0.610359	-0.758021	0.500141
C57	C	0.112164	-1.360399	0.000146
C58	C	0.612164	-0.860399	0.500146
C59	C	0.113629	-0.443541	0.000139
C60	C	0.613629	0.056459	0.500139
C61	C	0.115475	-0.547846	0.000126
C62	C	0.615475	-0.047846	0.500126
C63	C	0.116952	-0.630980	0.000115
C64	C	0.616952	-0.130980	0.500115
C65	C	0.118797	-0.735291	0.000104
C66	C	0.618797	-0.235291	0.500104
N67	N	0.116223	-1.089433	-0.243416
N68	N	0.616223	-0.589433	0.256584
C69	C	0.116224	-1.089419	0.663478
C70	C	0.616224	-0.589419	1.163478
C71	C	0.116223	-1.089411	0.546673
C72	C	0.616223	-0.589411	1.046673
C73	C	0.116217	-1.089409	0.453575
C74	C	0.616217	-0.589409	0.953575
C75	C	0.116214	-1.089399	0.336762
C76	C	0.616214	-0.589399	0.836762
H77	H	-0.295221	-0.949683	-0.069946
H78	H	0.204779	-0.449683	0.430054
O79	O	-0.303485	-1.095003	0.194182
O80	O	0.196515	-0.595003	0.694182
H81	H	-0.315277	-1.021113	0.195143
H82	H	0.184723	-0.521113	0.695143
H83	H	-0.326767	-1.215887	0.101488
H84	H	0.173233	-0.715887	0.601488
O85	O	-0.465248	-1.096667	-0.194806
O86	O	0.034752	-0.596667	0.305194
H87	H	-0.500181	-1.037029	-0.175671
H88	H	-0.000181	-0.537029	0.324329
O89	O	-0.304949	-1.092216	-0.193746
O90	O	0.195051	-0.592216	0.306254
H91	H	-0.356322	-1.065770	-0.238528
H92	H	0.143678	-0.565770	0.261472
H93	H	-0.438869	-0.946656	-0.070359
H94	H	0.061131	-0.446656	0.429641
H95	H	-0.295785	-0.949408	0.070278
H96	H	0.204215	-0.449408	0.570278
O97	O	-0.461976	-1.090175	0.194684
O98	O	0.038024	-0.590175	0.694684
H99	H	-0.429580	-1.018486	0.196385
H100	H	0.070420	-0.518486	0.696385
O101	O	-0.480225	-1.236286	0.103835
O102	O	0.019775	-0.736286	0.603835
H103	H	-0.431764	-1.285303	0.106629
H104	H	0.068236	-0.785303	0.606629
H105	H	-0.325572	-1.214875	-0.103868
H106	H	0.174428	-0.714875	0.396132
H107	H	-0.439937	-0.946823	0.069410
H108	H	0.060063	-0.446823	0.569410
O109	O	-0.479917	-1.238807	-0.097561
O110	O	0.020083	-0.738807	0.402439
H111	H	-0.521619	-1.250324	-0.029429
H112	H	-0.021619	-0.750324	0.470571
