data_functionalizedCrystal
_audit_creation_method	'MofGen! by Chris Wilmer'
_symmetry_space_group_name_H-M	'P1'
_symmetry_Int_Tables_number	1
_symmetry_cell_setting	triclinic
loop_
_symmetry_equiv_pos_as_xyz
  x,y,z
_cell_length_a	27.732011
_cell_length_b	11.792241
_cell_length_c	10.868271
_cell_angle_alpha	90.005281
_cell_angle_beta	90.015182
_cell_angle_gamma	96.589412
loop_
_atom_site_label
_atom_site_type_symbol
_atom_site_fract_x
_atom_site_fract_y
_atom_site_fract_z
O1	O	0.641721	-0.134843	-0.101764
O2	O	1.141721	0.365157	0.398236
O3	O	0.501044	-0.155420	-0.101889
O4	O	1.001044	0.344580	0.398111
O5	O	0.574797	0.020149	-0.101815
O6	O	1.074797	0.520149	0.398185
O7	O	0.567969	-0.310412	-0.101838
O8	O	1.067969	0.189588	0.398162
O9	O	0.574790	0.020156	0.102830
O10	O	1.074790	0.520156	0.602830
O11	O	0.501038	-0.155413	0.102755
O12	O	1.001038	0.344587	0.602755
O13	O	0.641715	-0.134837	0.102880
O14	O	1.141715	0.365163	0.602880
Zn15	Zn	0.571376	-0.145124	0.135310
Zn16	Zn	1.071376	0.354876	0.635310
Zn17	Zn	0.571384	-0.145133	-0.134318
Zn18	Zn	1.071384	0.354867	0.365682
O19	O	0.567963	-0.310406	0.102806
O20	O	1.067963	0.189594	0.602806
C21	C	0.574365	0.062430	0.000506
C22	C	1.074365	0.562430	0.500506
C23	C	0.573081	0.188402	0.000504
C24	C	1.073081	0.688402	0.500504
C25	C	0.659728	-0.135266	0.000571
C26	C	1.159728	0.364734	0.500571
C27	C	0.713391	-0.136547	0.000611
C28	C	1.213391	0.363453	0.500611
C29	C	0.483032	-0.154991	0.000417
C30	C	0.983032	0.345009	0.500417
C31	C	0.429368	-0.153710	0.000370
C32	C	0.929368	0.346290	0.500370
C33	C	1.096613	-0.145710	0.112048
C34	C	1.596613	0.354290	0.612048
C35	C	0.894926	-0.140882	0.112110
C36	C	1.394926	0.359118	0.612110
O37	O	0.868859	-0.140209	0.206987
O38	O	1.368859	0.359791	0.706987
N39	N	0.869697	-0.140282	0.000565
N40	N	1.369697	0.359718	0.500565
C41	C	0.894893	-0.140881	-0.111005
C42	C	1.394893	0.359119	0.388995
O43	O	0.868807	-0.140248	-0.205880
O44	O	1.368807	0.359752	0.294120
C45	C	1.096579	-0.145701	-0.111065
C46	C	1.596579	0.354299	0.388935
C47	C	1.121805	-0.146313	0.000488
C48	C	1.621805	0.353687	0.500488
C49	C	1.121839	-0.146321	0.223592
C50	C	1.621839	0.353679	0.723592
C51	C	1.172257	-0.147534	0.223576
C52	C	1.672257	0.352466	0.723576
C53	C	1.197450	-0.148137	0.112015
C54	C	1.697450	0.351863	0.612015
C55	C	1.172224	-0.147526	0.000471
C56	C	1.672224	0.352474	0.500471
C57	C	1.121775	-0.146293	-0.222633
C58	C	1.621775	0.353707	0.277367
C59	C	1.172200	-0.147495	-0.222638
C60	C	1.672200	0.352505	0.277362
C61	C	1.197426	-0.148107	-0.111085
C62	C	1.697426	0.351893	0.388915
C63	C	1.247834	-0.149342	-0.111106
C64	C	1.747834	0.350658	0.388894
N65	N	1.273064	-0.149943	0.000440
N66	N	1.773064	0.350057	0.500440
C67	C	1.247871	-0.149340	0.112000
C68	C	1.747871	0.350660	0.612000
C69	C	0.789005	-0.138353	-0.110965
C70	C	1.289005	0.361647	0.389035
C71	C	0.738583	-0.137150	-0.110950
C72	C	1.238583	0.362850	0.389050
C73	C	0.738620	-0.137148	0.112165
C74	C	1.238620	0.362852	0.612165
C75	C	0.789042	-0.138360	0.112149
C76	C	1.289042	0.361640	0.612149
C77	C	0.814234	-0.138953	0.000581
C78	C	1.314234	0.361047	0.500581
C79	C	1.353753	-0.151889	0.111957
C80	C	1.853753	0.348111	0.611957
C81	C	1.404176	-0.153107	0.111930
C82	C	1.904176	0.346893	0.611930
C83	C	1.404135	-0.153102	-0.111184
C84	C	1.904135	0.346898	0.388816
C85	C	1.353717	-0.151890	-0.111159
C86	C	1.853717	0.348110	0.388841
C87	C	1.328527	-0.151279	0.000422
C88	C	1.828527	0.348721	0.500422
O89	O	1.273934	-0.150003	-0.205933
O90	O	1.773934	0.349997	0.294067
O91	O	1.273967	-0.149948	0.206861
O92	O	1.773967	0.350052	0.706861
C93	C	1.046195	-0.144497	0.112065
C94	C	1.546195	0.355503	0.612065
C95	C	1.020969	-0.143887	0.000521
C96	C	1.520969	0.356113	0.500521
C97	C	1.046161	-0.144489	-0.111040
C98	C	1.546161	0.355511	0.388960
C99	C	0.970547	-0.142684	0.000536
C100	C	1.470547	0.357316	0.500536
C101	C	0.945355	-0.142081	0.112096
C102	C	1.445355	0.357919	0.612096
C103	C	0.970584	-0.142681	0.223642
C104	C	1.470584	0.357319	0.723642
C105	C	1.021002	-0.143894	0.223626
C106	C	1.521002	0.356106	0.723626
C107	C	1.020932	-0.143889	-0.222585
C108	C	1.520932	0.356111	0.277415
C109	C	0.970513	-0.142677	-0.222559
C110	C	1.470513	0.357323	0.277441
C111	C	0.945321	-0.142074	-0.110999
C112	C	1.445321	0.357926	0.389001
C113	C	0.568395	-0.352686	0.000482
C114	C	1.068395	0.147314	0.500482
C115	C	0.569678	-0.478658	0.000476
C116	C	1.069678	0.021342	0.500476
N117	N	0.571374	-0.145117	0.319324
N118	N	1.071374	0.354883	0.819324
C119	C	0.570720	0.419038	0.000481
C120	C	1.070720	0.919038	0.500481
C121	C	0.572032	0.290695	0.000494
C122	C	1.072032	0.790695	0.500494
N123	N	0.571389	-0.145130	-0.318333
N124	N	1.071389	0.354870	0.181667
C125	C	0.571381	-0.145130	0.570330
C126	C	1.071381	0.354870	1.070330
C127	C	0.571375	-0.145126	0.430652
C128	C	1.071375	0.354874	0.930652
H129	H	1.424712	-0.153609	0.202774
H130	H	1.924712	0.346391	0.702774
C131	C	1.358867	-0.152027	0.332496
C132	C	1.858867	0.347973	0.832496
C133	C	1.326070	-0.151229	0.234607
C134	C	1.826070	0.348771	0.734607
H135	H	1.341775	-0.151632	0.408212
H136	H	1.841775	0.348368	0.908212
H137	H	1.382044	-0.086295	0.327857
H138	H	1.882044	0.413705	0.827857
H139	H	1.375020	-0.218708	0.327815
H140	H	1.875020	0.281292	0.827815
H141	H	1.309919	-0.084542	0.239283
H142	H	1.809919	0.415458	0.739283
H143	H	1.302884	-0.216967	0.239248
H144	H	1.802884	0.283033	0.739248
H145	H	1.041439	-0.144377	-0.313433
H146	H	1.541439	0.355623	0.186567
H147	H	0.718100	-0.136660	0.203003
H148	H	1.218100	0.363340	0.703003
C149	C	1.167214	-0.147396	0.444109
C150	C	1.667214	0.352604	0.944109
C151	C	1.199982	-0.148189	0.346200
C152	C	1.699982	0.351811	0.846200
H153	H	1.184330	-0.147790	0.519815
H154	H	1.684330	0.352210	1.019815
H155	H	1.144037	-0.213130	0.439464
H156	H	1.644037	0.286870	0.939464
H157	H	1.151059	-0.080717	0.439459
H158	H	1.651059	0.419283	0.939459
H159	H	1.216135	-0.214873	0.350845
H160	H	1.716135	0.285127	0.850845
H161	H	1.223168	-0.082448	0.350847
H162	H	1.723168	0.417552	0.850847
H163	H	1.101333	-0.145827	0.314443
H164	H	1.601333	0.354173	0.814443
H165	H	0.809577	-0.138859	0.202986
H166	H	1.309577	0.361141	0.702986
C167	C	0.919081	-0.043711	0.353091
C168	C	1.419081	0.456289	0.853091
C169	C	0.942888	-0.142009	0.346275
C170	C	1.442888	0.357991	0.846275
H171	H	0.901984	-0.043290	0.428799
H172	H	1.401984	0.456710	0.928799
H173	H	0.896845	-0.043190	0.286661
H174	H	1.396845	0.456810	0.786661
H175	H	0.942270	0.022012	0.348456
H176	H	1.442270	0.522012	0.848456
H177	H	0.919698	-0.207733	0.350901
H178	H	1.419698	0.292267	0.850901
H179	H	0.965125	-0.142541	0.412723
H180	H	1.465125	0.357459	0.912723
H181	H	1.041537	-0.144392	0.314464
H182	H	1.541537	0.355608	0.814464
H183	H	0.949978	-0.142188	-0.313406
H184	H	1.449978	0.357812	0.186594
C185	C	0.717863	-0.234375	-0.301139
C186	C	1.217863	0.265625	0.198861
C187	C	0.710859	-0.136491	-0.233574
C188	C	1.210859	0.363509	0.266426
H189	H	0.700750	-0.233958	-0.376847
H190	H	1.200750	0.266042	0.123153
H191	H	0.706089	-0.300373	-0.255315
H192	H	1.206089	0.199627	0.244685
H193	H	0.751500	-0.235167	-0.317093
H194	H	1.251500	0.264833	0.182907
H195	H	0.677222	-0.135704	-0.217612
H196	H	1.177222	0.364296	0.282388
H197	H	0.722630	-0.070476	-0.279407
H198	H	1.222630	0.429524	0.220593
C199	C	0.840504	-0.237306	-0.240450
C200	C	1.340504	0.262694	0.259550
C201	C	0.816692	-0.139017	-0.233612
C202	C	1.316692	0.360983	0.266388
H203	H	0.857597	-0.237715	-0.316165
H204	H	1.357597	0.262285	0.183835
H205	H	0.817323	-0.303029	-0.235806
H206	H	1.317323	0.196971	0.264194
H207	H	0.862749	-0.237820	-0.174025
H208	H	1.362749	0.262180	0.325975
H209	H	0.794444	-0.138507	-0.300032
H210	H	1.294444	0.361493	0.199968
H211	H	0.839876	-0.073277	-0.238268
H212	H	1.339876	0.426723	0.261732
H213	H	1.101245	-0.145793	-0.313472
H214	H	1.601245	0.354207	0.186528
C215	C	1.182513	-0.245464	-0.412832
C216	C	1.682513	0.254536	0.087168
C217	C	1.199892	-0.148159	-0.345278
C218	C	1.699892	0.351841	0.154722
H219	H	1.199610	-0.245878	-0.488539
H220	H	1.699610	0.254122	0.011461
H221	H	1.148878	-0.244644	-0.428780
H222	H	1.648878	0.255356	0.071220
H223	H	1.187272	-0.311861	-0.366994
H224	H	1.687272	0.188139	0.133006
H225	H	1.195129	-0.081761	-0.391112
H226	H	1.695129	0.418239	0.108888
H227	H	1.233534	-0.148968	-0.329333
H228	H	1.733534	0.351032	0.170667
H229	H	1.333176	-0.151410	-0.201994
H230	H	1.833176	0.348590	0.298006
H231	H	1.424656	-0.153598	-0.202014
H232	H	1.924656	0.346402	0.297986
