data_functionalizedCrystal
_audit_creation_method	'MofGen! by Chris Wilmer'
_symmetry_space_group_name_H-M	'P1'
_symmetry_Int_Tables_number	1
_symmetry_cell_setting	triclinic
loop_
_symmetry_equiv_pos_as_xyz
  x,y,z
_cell_length_a	19.188933
_cell_length_b	19.188924
_cell_length_c	7.681481
_cell_angle_alpha	84.275467
_cell_angle_beta	95.705434
_cell_angle_gamma	83.143767
loop_
_atom_site_label
_atom_site_type_symbol
_atom_site_fract_x
_atom_site_fract_y
_atom_site_fract_z
O1	O	0.919522	0.093802	-0.146380
O2	O	0.716210	0.105536	-0.146397
O3	O	0.823737	-0.001988	-0.146367
O4	O	0.811995	0.201326	-0.146410
O5	O	0.836971	-0.015252	0.146494
O6	O	0.729445	0.092272	0.146464
O7	O	0.932757	0.080538	0.146482
Zn8	Zn	0.833202	0.084299	0.192971
Zn9	Zn	0.815765	0.101775	-0.192887
O10	O	0.825230	0.188062	0.146452
C11	C	0.696816	0.098524	0.000031
C12	C	0.619311	0.097383	0.000025
C13	C	0.058843	0.096467	-0.159593
C14	C	0.131667	0.097536	-0.159600
C15	C	0.175298	0.090843	0.000038
C16	C	0.146102	0.083063	0.159695
C17	C	0.073281	0.081987	0.159698
N18	N	0.289687	0.126880	0.118856
N19	N	0.358864	0.127903	0.118843
C20	C	0.394707	0.094080	0.000041
N21	N	0.358757	0.059205	-0.118774
N22	N	0.289573	0.058185	-0.118766
C23	C	0.254262	0.092007	0.000054
C24	C	0.502859	0.103013	-0.159614
C25	C	0.575685	0.104077	-0.159614
C26	C	0.590118	0.089611	0.159685
C27	C	0.517294	0.088540	0.159681
C28	C	0.473668	0.095245	0.000027
C29	C	0.829975	-0.034631	0.000065
C30	C	0.828836	-0.112136	0.000070
C31	C	0.821090	-0.141304	-0.159570
C32	C	0.820010	-0.214126	-0.159583
C33	C	0.826690	-0.257780	0.000052
C34	C	0.834432	-0.228603	0.159712
C35	C	0.835506	-0.155781	0.159721
N36	N	0.870107	-0.382824	0.118867
N37	N	0.869088	-0.452001	0.118848
C38	C	0.823455	-0.477188	0.000034
N39	N	0.778886	-0.430584	-0.118786
N40	N	0.779907	-0.361400	-0.118772
C41	C	0.825526	-0.336743	0.000060
C42	C	0.814536	-0.585318	-0.159630
C43	C	0.813451	-0.658141	-0.159637
C44	C	0.827881	-0.672617	0.159662
C45	C	0.828958	-0.599794	0.159665
C46	C	0.822289	-0.556149	0.000013
C47	C	0.952150	0.087551	0.000049
C48	C	1.029654	0.088692	0.000043
C49	C	0.818992	0.220705	0.000015
C50	C	0.820130	0.298211	-0.000001
N51	N	0.845108	0.072372	0.456308
N52	N	0.803864	0.113697	-0.456224
H53	H	0.155436	0.103871	-0.289599
N54	N	0.900886	0.016500	0.555930
H55	H	0.927148	-0.009812	0.469689
H56	H	0.935140	0.039680	0.632393
H57	H	0.023327	0.101924	-0.289596
H58	H	0.049516	0.075658	0.289697
N59	N	0.805115	-0.689585	-0.331859
H60	H	0.761077	-0.713682	-0.339066
H61	H	0.801095	-0.650831	-0.432845
N62	N	0.193157	0.075842	0.331879
H63	H	0.243719	0.077705	0.307656
H64	H	0.177783	0.115767	0.401589
H65	H	0.833315	-0.708158	0.289640
N66	N	0.748087	0.169563	0.444162
H67	H	0.721824	0.195878	0.530400
H68	H	0.771329	0.203760	0.367648
N69	N	0.455799	0.110242	-0.331801
H70	H	0.485344	0.115324	-0.432935
H71	H	0.431062	0.066840	-0.338749
N72	N	0.837320	-0.568329	0.331848
H73	H	0.841390	-0.607031	0.432978
H74	H	0.881354	-0.544225	0.338804
H75	H	0.625643	0.084159	0.289666
N76	N	0.607172	0.112452	-0.331801
H77	H	0.568482	0.116536	-0.432933
H78	H	0.631283	0.156483	-0.338761
H79	H	0.493529	0.082212	0.289674
N80	N	0.813894	-0.094230	-0.331757
H81	H	0.808822	-0.123763	-0.432891
H82	H	0.770751	-0.057908	-0.338718
H83	H	0.841811	-0.132033	0.289722
N84	N	0.811650	-0.245598	-0.331771
H85	H	0.807585	-0.206899	-0.432906
H86	H	0.854164	-0.281291	-0.338714
H87	H	0.839869	-0.264149	0.289688
N88	N	0.807340	-0.538237	-0.331814
H89	H	0.802263	-0.567768	-0.432951
H90	H	0.764200	-0.501911	-0.338768
