data_functionalizedCrystal
_audit_creation_method	'MofGen! by Chris Wilmer'
_symmetry_space_group_name_H-M	'P1'
_symmetry_Int_Tables_number	1
_symmetry_cell_setting	triclinic
loop_
_symmetry_equiv_pos_as_xyz
  x,y,z
_cell_length_a	23.532356
_cell_length_b	16.109301
_cell_length_c	14.586319
_cell_angle_alpha	89.998857
_cell_angle_beta	89.995631
_cell_angle_gamma	96.855329
loop_
_atom_site_label
_atom_site_type_symbol
_atom_site_fract_x
_atom_site_fract_y
_atom_site_fract_z
O1	O	-0.073204	1.102535	-0.076173
O2	O	-0.082314	0.860399	-0.076184
O3	O	0.005147	0.988791	-0.076191
O4	O	-0.160666	0.974144	-0.076166
O5	O	0.005149	0.988782	0.076290
O6	O	-0.082313	0.860391	0.076297
O7	O	-0.073203	1.102527	0.076308
Cu8	Cu	-0.077758	0.981458	0.090225
Cu9	Cu	-0.077760	0.981468	-0.090101
O10	O	-0.160665	0.974135	0.076315
C11	C	-0.081945	0.829423	0.000055
C12	C	-0.080838	0.737137	0.000050
C13	C	-0.129119	0.427746	0.000073
C14	C	-0.130164	0.514458	0.000068
C15	C	-0.026394	0.535175	0.000040
C16	C	-0.025350	0.448464	0.000038
C17	C	-0.076714	0.394752	0.000060
C18	C	-0.078803	0.568174	0.000056
C19	C	-0.079936	0.662191	0.000050
C20	C	-0.075582	0.300729	0.000064
C21	C	-0.181883	0.974505	0.000078
C22	C	-0.245106	0.975606	0.000088
C23	C	-0.637146	0.982527	-0.083074
C24	C	-0.696549	0.983575	-0.083078
O25	O	-0.727271	0.984149	-0.153766
N26	N	-0.726259	0.984089	0.000038
C27	C	-0.696562	0.983565	0.083165
O28	O	-0.727287	0.984099	0.153861
C29	C	-0.637159	0.982524	0.083168
C30	C	-0.607453	0.982001	0.000046
C31	C	-0.607440	0.982006	-0.166189
C32	C	-0.548041	0.980957	-0.166184
C33	C	-0.518348	0.980430	-0.083064
C34	C	-0.548054	0.980952	0.000051
C35	C	-0.607462	0.982005	0.166294
C36	C	-0.548055	0.980964	0.166290
C37	C	-0.518349	0.980442	0.083168
C38	C	-0.458962	0.979376	0.083176
N39	N	-0.429252	0.978862	0.000059
C40	C	-0.458945	0.979389	-0.083061
C41	C	-0.821311	0.985753	0.083151
C42	C	-0.880714	0.986788	0.083149
C43	C	-0.880697	0.986800	-0.083095
C44	C	-0.821294	0.985758	-0.083091
C45	C	-0.791602	0.985239	0.000035
C46	C	-0.334203	0.977185	-0.083045
C47	C	-0.274799	0.976133	-0.083032
C48	C	-0.274820	0.976126	0.083210
C49	C	-0.334220	0.977174	0.083199
C50	C	-0.363909	0.977706	0.000064
O51	O	-0.428203	0.978805	0.153827
O52	O	-0.428212	0.978865	-0.153746
C53	C	0.026366	0.988421	0.000044
C54	C	0.089589	0.987320	0.000028
C55	C	-0.073573	1.133503	0.000067
C56	C	-0.074679	1.225789	0.000066
N57	N	-0.077757	0.981456	0.217057
N58	N	-0.077756	0.981476	-0.216933
C59	C	-0.039041	1.038327	0.452060
C60	C	-0.039040	1.038329	0.548041
C61	C	-0.116473	0.924600	0.548057
C62	C	-0.116472	0.924594	0.452078
C63	C	-0.077756	0.981462	0.404081
C64	C	-0.077757	0.981470	0.596042
C65	C	-0.077755	0.981473	0.700109
C66	C	-0.077757	0.981459	0.300008
H67	H	0.015425	0.578918	0.000025
O68	O	-0.245916	0.975509	0.163889
C69	C	-0.185338	0.902287	0.260391
C70	C	-0.218039	0.902879	0.168982
H71	H	-0.162801	0.843563	0.264547
H72	H	-0.152268	0.959954	0.264543
H73	H	-0.216774	0.902884	0.319791
H74	H	-0.186646	0.902253	0.109530
H75	H	-0.251117	0.845218	0.164910
O76	O	-0.001377	1.093593	0.405578
C77	C	0.075407	1.206426	0.415697
C78	C	0.032789	1.143870	0.468448
H79	H	0.103032	1.247103	0.466504
H80	H	0.103905	1.170816	0.370789
H81	H	0.050801	1.247709	0.370735
H82	H	0.057347	1.102571	0.513460
H83	H	0.004291	1.179532	0.513299
O84	O	-0.001377	1.093456	0.594688
C85	C	0.076378	1.111829	0.703081
C86	C	0.033764	1.049306	0.650295
H87	H	0.104792	1.076159	0.748066
H88	H	0.104089	1.152459	0.652328
H89	H	0.051769	1.153166	0.747975
H90	H	0.058326	1.007915	0.605399
H91	H	0.006053	1.008734	0.701098
O92	O	-0.179028	0.375603	-0.000078
C93	C	-0.267417	0.331406	-0.079033
C94	C	-0.210910	0.390488	-0.078982
H95	H	-0.293215	0.343432	-0.142810
H96	H	-0.257705	0.263747	-0.079094
H97	H	-0.293183	0.343341	-0.015187
H98	H	-0.185116	0.378628	-0.142817
H99	H	-0.220663	0.458128	-0.078873
O100	O	0.025511	0.416271	-0.000016
C101	C	0.073104	0.291865	0.000016
C102	C	0.015469	0.328214	0.000062
H103	H	0.065005	0.220667	0.000099
H104	H	0.098489	0.313963	-0.063819
H105	H	0.098489	0.314067	0.063807
H106	H	-0.009963	0.306029	-0.063685
H107	H	-0.009872	0.306121	0.063940
O108	O	-0.154137	0.869321	0.405607
C109	C	-0.230917	0.756483	0.415743
C110	C	-0.188306	0.819045	0.468485
H111	H	-0.258546	0.715807	0.466557
H112	H	-0.259413	0.792087	0.370830
H113	H	-0.206306	0.715198	0.370787
H114	H	-0.212870	0.860345	0.513491
H115	H	-0.159811	0.783389	0.513341
H116	H	-0.250615	0.975704	-0.150723
H117	H	-0.797140	0.985322	0.150846
O118	O	-0.181021	0.546646	0.000032
C119	C	-0.228623	0.671044	0.000071
C120	C	-0.170985	0.634703	0.000100
H121	H	-0.220529	0.742242	0.000145
H122	H	-0.254010	0.648940	-0.063753
H123	H	-0.254004	0.648842	0.063873
H124	H	-0.145558	0.656889	-0.063659
H125	H	-0.145642	0.656802	0.063966
O126	O	-0.362954	0.977660	-0.163882
C127	C	-0.356649	0.977596	-0.328770
C128	C	-0.324020	0.977046	-0.237290
H129	H	-0.325183	0.977118	-0.388144
H130	H	-0.389672	0.919880	-0.332996
H131	H	-0.379249	1.036264	-0.332889
H132	H	-0.301386	0.918417	-0.233110
H133	H	-0.291030	1.034802	-0.233102
H134	H	-0.631610	0.982437	-0.233879
O135	O	-0.519271	0.980516	-0.247012
C136	C	-0.525546	0.980642	-0.411900
C137	C	-0.558193	0.981145	-0.320425
H138	H	-0.557002	0.981133	-0.471279
H139	H	-0.492531	1.038370	-0.416099
H140	H	-0.502936	0.921985	-0.416039
H141	H	-0.580837	1.039763	-0.316224
H142	H	-0.591176	0.923378	-0.316265
H143	H	-0.797112	0.985331	-0.150777
O144	O	-0.154004	0.869332	0.594786
C145	C	-0.166107	0.755666	0.703125
C146	C	-0.123540	0.818221	0.650280
H147	H	-0.141494	0.714315	0.747990
H148	H	-0.194558	0.791277	0.748119
H149	H	-0.193789	0.715057	0.652328
H150	H	-0.095820	0.858847	0.701010
H151	H	-0.095129	0.782560	0.605272
O152	O	-0.909518	0.987153	-0.163880
C153	C	-0.934085	0.915439	-0.305992
C154	C	-0.901439	0.914936	-0.214523
H155	H	-0.927555	0.857067	-0.346971
H156	H	-0.981660	0.916216	-0.291805
H157	H	-0.917175	0.973449	-0.346944
H158	H	-0.918301	0.856935	-0.173525
H159	H	-0.853868	0.914203	-0.228775
H160	H	-0.631638	0.982440	0.233981
O161	O	-0.909476	0.987320	0.163975
C162	C	-0.903212	0.987143	0.328865
C163	C	-0.870569	0.986554	0.237392
H164	H	-0.871771	0.986506	0.388246
H165	H	-0.925778	1.045838	0.333093
H166	H	-0.936264	0.929454	0.332969
H167	H	-0.837489	1.044203	0.233226
H168	H	-0.848042	0.927822	0.233203
O169	O	-0.519253	0.980308	0.247066
C170	C	-0.507594	0.907973	0.389181
C171	C	-0.540245	0.908606	0.297729
H172	H	-0.524562	0.850016	0.430176
H173	H	-0.460031	0.907081	0.374970
H174	H	-0.514041	0.966396	0.430129
H175	H	-0.533844	0.850193	0.256735
H176	H	-0.587795	0.909541	0.312004
O177	O	-0.362991	0.977685	0.164023
C178	C	-0.356740	0.977459	0.328913
C179	C	-0.324090	0.976904	0.237446
H180	H	-0.325304	0.976809	0.388299
H181	H	-0.379312	1.036148	0.333159
H182	H	-0.389789	0.919764	0.332992
H183	H	-0.291013	1.034559	0.233305
H184	H	-0.301558	0.918177	0.233239
