data_functionalizedCrystal
_audit_creation_method	'MofGen! by Chris Wilmer'
_symmetry_space_group_name_H-M	'P1'
_symmetry_Int_Tables_number	1
_symmetry_cell_setting	triclinic
loop_
_symmetry_equiv_pos_as_xyz
  x,y,z
_cell_length_a	15.995350
_cell_length_b	15.995292
_cell_length_c	13.101039
_cell_angle_alpha	93.364742
_cell_angle_beta	86.645958
_cell_angle_gamma	83.480495
loop_
_atom_site_label
_atom_site_type_symbol
_atom_site_fract_x
_atom_site_fract_y
_atom_site_fract_z
O1	O	1.115565	0.103313	-0.085120
O2	O	0.871788	0.116640	-0.085141
O3	O	1.000366	-0.011914	-0.085131
O4	O	0.986987	0.231868	-0.085129
O5	O	0.991140	-0.002676	0.085298
O6	O	0.862563	0.125879	0.085289
O7	O	1.106340	0.112552	0.085309
Zn8	Zn	0.982987	0.120682	0.112358
Zn9	Zn	0.995141	0.108510	-0.112190
O10	O	0.977762	0.241107	0.085300
C11	C	0.835981	0.120708	0.000071
C12	C	0.743031	0.119056	0.000063
C13	C	0.405284	0.113125	0.000085
C14	C	0.452717	0.021591	0.000464
C15	C	0.549428	0.023222	0.000073
C16	C	0.572844	0.116067	0.000075
C17	C	0.537016	0.155949	-0.097244
C18	C	0.440384	0.153645	-0.097319
C19	C	0.429554	0.166043	0.096491
C20	C	0.526430	0.166091	0.097770
C21	C	0.667542	0.117734	0.000066
C22	C	0.310586	0.111460	0.000087
C23	C	0.995209	-0.038491	0.000081
C24	C	0.993577	-0.131444	0.000073
C25	C	0.987575	-0.469182	0.000082
C26	C	1.080358	-0.445849	0.000470
C27	C	1.082143	-0.349194	0.000082
C28	C	0.990553	-0.301626	0.000078
C29	C	0.949424	-0.336003	-0.097246
C30	C	0.948311	-0.432798	-0.097324
C31	C	0.935925	-0.422149	0.096486
C32	C	0.939294	-0.325587	0.097768
C33	C	0.992231	-0.206931	0.000072
C34	C	0.985894	-0.563878	0.000080
C35	C	1.142147	0.108484	0.000095
C36	C	1.235097	0.110136	0.000096
C37	C	0.982919	0.267683	0.000086
C38	C	0.984551	0.360636	0.000087
N39	N	0.974697	0.128989	0.265606
N40	N	1.003437	0.100196	-0.265438
C41	C	0.963420	0.140299	0.474648
C42	C	1.014712	0.088889	0.525527
C43	C	1.008437	0.095182	0.641845
C44	C	0.969694	0.134007	0.358319
H45	H	0.541463	0.234115	0.103650
F46	F	0.397506	0.132145	0.192909
H47	H	1.063338	0.040151	0.481728
F48	F	0.387976	0.254320	0.097354
F49	F	0.978353	-0.296213	0.191880
H50	H	0.914798	0.189036	0.518441
F51	F	0.851496	-0.282079	0.105448
H52	H	0.574088	-0.008493	0.069835
H53	H	0.430424	-0.011222	0.070255
H54	H	1.114704	-0.326387	0.069847
F55	F	0.432023	-0.030946	-0.090250
H56	H	0.581076	-0.016303	-0.069812
H57	H	0.426021	0.116770	-0.170068
H58	H	0.549857	0.137029	0.169767
F59	F	0.398525	0.241188	-0.103090
H60	H	0.985564	-0.319869	-0.169671
F61	F	0.555735	0.244842	-0.101992
H62	H	0.867578	-0.436104	0.097138
H63	H	0.880505	-0.447587	-0.101737
F64	F	0.861586	-0.294605	-0.101987
H65	H	0.569317	0.120658	-0.169672
F66	F	0.968658	-0.453906	0.192904
H67	H	1.112352	-0.470062	0.070265
H68	H	1.119687	-0.478628	-0.068928
H69	H	0.984382	-0.463558	-0.170072
F70	F	1.134861	-0.330085	-0.091260
