data_functionalizedCrystal
_audit_creation_method	'MofGen! by Chris Wilmer'
_symmetry_space_group_name_H-M	'P1'
_symmetry_Int_Tables_number	1
_symmetry_cell_setting	triclinic
loop_
_symmetry_equiv_pos_as_xyz
  x,y,z
_cell_length_a	12.759394
_cell_length_b	12.759401
_cell_length_c	12.759393
_cell_angle_alpha	89.980678
_cell_angle_beta	90.032294
_cell_angle_gamma	89.987249
loop_
_atom_site_label
_atom_site_type_symbol
_atom_site_fract_x
_atom_site_fract_y
_atom_site_fract_z
Zn1	Zn	-0.418263	-1.606254	0.593999
Zn2	Zn	-0.593982	-1.606148	0.418317
Zn3	Zn	-0.418311	-1.430556	0.418336
Zn4	Zn	-0.593894	-1.430545	0.593956
O5	O	-0.506113	-1.518376	0.506152
O6	O	-0.441589	-1.753261	0.570705
O7	O	-0.570736	-1.582816	0.271298
O8	O	-0.271284	-1.453912	0.441664
O9	O	-0.570689	-1.753183	0.441632
O10	O	-0.271248	-1.582997	0.570723
O11	O	-0.441671	-1.453810	0.271312
O12	O	-0.441586	-1.283534	0.441622
O13	O	-0.570539	-1.453892	0.740983
O14	O	-0.570586	-1.283525	0.570649
O15	O	-0.441504	-1.582986	0.741015
O16	O	-0.740991	-1.582805	0.441590
O17	O	-0.740927	-1.453789	0.570631
C18	C	-0.506083	-1.245409	0.506134
C19	C	-0.506095	-1.128632	0.506151
C20	C	-0.573371	-1.073793	0.573224
C21	C	-0.573380	-0.964069	0.573233
C22	C	-0.438834	-0.964032	0.439089
C23	C	-0.438821	-1.073755	0.439085
C24	C	-0.640645	-1.128670	0.640289
C25	C	-0.707927	-1.073831	0.707366
C26	C	-0.707936	-0.964107	0.707376
C27	C	-0.640663	-0.909222	0.640309
C28	C	-0.779080	-1.518313	0.506127
C29	C	-0.895857	-1.518382	0.506151
C30	C	-0.895871	-1.652826	0.371881
C31	C	-0.950738	-1.720076	0.304758
C32	C	-1.060460	-1.720138	0.304787
C33	C	-1.115316	-1.652945	0.371948
C34	C	-1.060449	-1.585695	0.439070
C35	C	-0.950724	-1.585638	0.439032
C36	C	-1.060435	-1.451257	0.573344
C37	C	-0.950713	-1.451189	0.573312
C38	C	-1.115291	-1.384064	0.640504
C39	C	-1.060423	-1.316808	0.707623
C40	C	-0.950695	-1.316748	0.707591
C41	C	-0.895845	-1.383939	0.640434
C42	C	-0.232079	-1.518468	0.506201
C43	C	-0.115302	-1.518507	0.506221
C44	C	-0.506007	-1.518449	0.780185
C45	C	-0.505961	-1.518481	0.896962
C46	C	-0.506134	-0.792409	0.506167
C47	C	-0.506117	-0.909186	0.506165
C48	C	-0.506142	-1.518363	0.233185
C49	C	-0.505892	-1.518535	0.116409
C50	C	-0.438766	-1.585709	0.951842
C51	C	-0.438728	-1.585734	1.061567
C52	C	-0.573090	-1.451300	1.061521
C53	C	-0.573122	-1.451270	0.951798
C54	C	-0.371606	-1.652919	0.897006
C55	C	-0.304406	-1.720154	0.951887
C56	C	-0.304368	-1.720179	1.061611
C57	C	-0.371530	-1.652969	1.116455
H58	H	-0.762713	-0.919460	0.762001
H59	H	-0.762691	-1.118526	0.761977
H60	H	-0.640667	-0.819877	0.640331
Cl61	Cl	-0.354244	-1.142700	0.354764
H62	H	-0.384065	-0.919336	0.384485
H63	H	-0.640647	-1.218013	0.640287
Cl64	Cl	-0.757934	-1.653049	0.372135
Cl65	Cl	-1.253227	-1.383697	0.640096
Cl66	Cl	-1.253252	-1.652580	0.371536
Cl67	Cl	-0.881772	-1.804548	0.220337
Cl68	Cl	-1.129439	-1.804686	0.220409
H69	H	-1.105096	-1.262110	0.762305
H70	H	-0.806504	-1.383890	0.640395
Cl71	Cl	-0.881728	-1.232206	0.791985
H72	H	-0.627822	-1.396511	0.907114
Cl73	Cl	-0.371653	-1.652896	0.759068
Cl74	Cl	-0.219963	-1.804624	0.882942
Cl75	Cl	-0.219893	-1.804703	1.130601
Cl76	Cl	-0.657520	-1.366818	1.130468
H77	H	-0.371482	-1.652983	1.205799
