data_functionalizedCrystal
_audit_creation_method	'MofGen! by Chris Wilmer'
_symmetry_space_group_name_H-M	'P1'
_symmetry_Int_Tables_number	1
_symmetry_cell_setting	triclinic
loop_
_symmetry_equiv_pos_as_xyz
  x,y,z
_cell_length_a	11.026623
_cell_length_b	13.101039
_cell_length_c	11.026607
_cell_angle_alpha	85.898113
_cell_angle_beta	71.413640
_cell_angle_gamma	85.902597
loop_
_atom_site_label
_atom_site_type_symbol
_atom_site_fract_x
_atom_site_fract_y
_atom_site_fract_z
O1	O	-1.732208	0.085215	0.528133
O2	O	-1.482208	0.335215	0.778133
O3	O	-1.232208	0.585215	1.028133
O4	O	-0.982208	0.835215	1.278133
O5	O	-1.365628	0.085216	0.467367
O6	O	-1.115628	0.335216	0.717367
O7	O	-0.865628	0.585216	0.967367
O8	O	-0.615628	0.835216	1.217367
O9	O	-1.518536	0.085211	0.314460
O10	O	-1.268536	0.335211	0.564460
O11	O	-1.018536	0.585211	0.814460
O12	O	-0.768536	0.835211	1.064460
O13	O	-1.579300	0.085219	0.681040
O14	O	-1.329300	0.335219	0.931040
O15	O	-1.079300	0.585219	1.181040
O16	O	-0.829300	0.835219	1.431040
O17	O	-1.507570	-0.085218	0.325454
O18	O	-1.257570	0.164782	0.575454
O19	O	-1.007570	0.414782	0.825454
O20	O	-0.757570	0.664782	1.075454
O21	O	-1.354662	-0.085214	0.478361
O22	O	-1.104662	0.164786	0.728361
O23	O	-0.854662	0.414786	0.978361
O24	O	-0.604662	0.664786	1.228361
O25	O	-1.721242	-0.085215	0.539127
O26	O	-1.471242	0.164785	0.789127
O27	O	-1.221242	0.414785	1.039127
O28	O	-0.971242	0.664785	1.289127
Zn29	Zn	-1.536211	-0.112274	0.510489
Zn30	Zn	-1.286211	0.137726	0.760489
Zn31	Zn	-1.036211	0.387726	1.010489
Zn32	Zn	-0.786211	0.637726	1.260489
Zn33	Zn	-1.550659	0.112274	0.496004
Zn34	Zn	-1.300659	0.362274	0.746004
Zn35	Zn	-1.050659	0.612274	0.996004
Zn36	Zn	-0.800659	0.862274	1.246004
O37	O	-1.568334	-0.085211	0.692034
O38	O	-1.318334	0.164789	0.942034
O39	O	-1.068334	0.414789	1.192034
O40	O	-0.818334	0.664789	1.442034
C41	C	-1.312485	0.000001	0.461654
C42	C	-1.062485	0.250001	0.711654
C43	C	-0.812485	0.500001	0.961654
C44	C	-0.562485	0.750001	1.211654
C45	C	-1.170472	0.000002	0.428236
C46	C	-0.920472	0.250002	0.678236
C47	C	-0.670472	0.500002	0.928236
C48	C	-0.420472	0.750002	1.178236
C49	C	-1.116822	0.000004	0.520505
C50	C	-0.866822	0.250004	0.770505
C51	C	-0.616822	0.500004	1.020505
C52	C	-0.366822	0.750004	1.270505
C53	C	-0.970044	0.000004	0.485968
C54	C	-0.720044	0.250004	0.735968
C55	C	-0.470044	0.500004	0.985968
C56	C	-0.220044	0.750004	1.235968
N57	N	-1.526360	-0.265522	0.520376
N58	N	-1.276360	-0.015522	0.770376
N59	N	-1.026360	0.234478	1.020376
N60	N	-0.776360	0.484478	1.270376
C61	C	-1.512959	-0.474564	0.533840
C62	C	-1.262959	-0.224564	0.783840
C63	C	-1.012959	0.025436	1.033840
C64	C	-0.762959	0.275436	1.283840
C65	C	-1.573916	-0.525442	0.472649
C66	C	-1.323916	-0.275442	0.722649
C67	C	-1.073916	-0.025442	0.972649
C68	C	-0.823916	0.224558	1.222649
C69	C	-1.566459	-0.641760	0.480140
C70	C	-1.316459	-0.391760	0.730140
C71	C	-1.066459	-0.141760	0.980140
C72	C	-0.816459	0.108240	1.230140
C73	C	-1.520414	-0.358236	0.526350
C74	C	-1.270414	-0.108236	0.776350
C75	C	-1.020414	0.141764	1.026350
C76	C	-0.770414	0.391764	1.276350
C77	C	-0.774385	0.000001	0.544838
C78	C	-0.524385	0.250001	0.794838
C79	C	-0.274385	0.500001	1.044838
C80	C	-0.024385	0.750001	1.294838
C81	C	-0.916399	0.000007	0.578251
C82	C	-0.666399	0.250007	0.828251
C83	C	-0.416399	0.500007	1.078251
C84	C	-0.166399	0.750007	1.328251
C85	C	-1.501843	-0.000002	0.272297
C86	C	-1.251843	0.249998	0.522297
C87	C	-1.001843	0.499998	0.772297
C88	C	-0.751843	0.749998	1.022297
C89	C	-1.468427	0.000002	0.130283
C90	C	-1.218427	0.250002	0.380283
C91	C	-0.968427	0.500002	0.630283
C92	C	-0.718427	0.750002	0.880283
N93	N	-1.560518	0.265523	0.486109
N94	N	-1.310518	0.515523	0.736109
N95	N	-1.060518	0.765523	0.986109
N96	N	-0.810518	1.015523	1.236109
C97	C	-1.560696	0.000003	0.076634
C98	C	-1.310696	0.250003	0.326634
C99	C	-1.060696	0.500003	0.576634
C100	C	-0.810696	0.750003	0.826634
C101	C	-1.526161	0.000007	-0.070145
C102	C	-1.276161	0.250007	0.179855
C103	C	-1.026161	0.500007	0.429855
C104	C	-0.776161	0.750007	0.679855
C105	C	-1.585027	0.000005	0.734196
C106	C	-1.335027	0.250005	0.984196
C107	C	-1.085027	0.500005	1.234196
C108	C	-0.835027	0.750005	1.484196
C109	C	-1.618444	0.000008	0.876210
C110	C	-1.368444	0.250008	1.126210
C111	C	-1.118444	0.500008	1.376210
C112	C	-0.868444	0.750008	1.626210
H113	H	-1.179555	0.000000	0.625068
H114	H	-0.929555	0.250000	0.875068
H115	H	-0.679555	0.500000	1.125068
H116	H	-0.429555	0.750000	1.375068
H117	H	-1.665259	-0.000004	0.139368
H118	H	-1.415259	0.249996	0.389368
H119	H	-1.165259	0.499996	0.639368
H120	H	-0.915259	0.749996	0.889368
H121	H	-0.979126	0.000002	0.682822
H122	H	-0.729126	0.250002	0.932822
H123	H	-0.479126	0.500002	1.182822
H124	H	-0.229126	0.750002	1.432822
H125	H	-1.631703	-0.481641	0.414637
H126	H	-1.381703	-0.231641	0.664637
H127	H	-1.131703	0.018359	0.914637
H128	H	-0.881703	0.268359	1.164637
H129	H	-1.421592	0.000014	-0.132876
H130	H	-1.171592	0.250014	0.117124
H131	H	-0.921592	0.500014	0.367124
H132	H	-0.671592	0.750014	0.617124
H133	H	-0.907316	0.000028	0.381396
H134	H	-0.657316	0.250028	0.631396
H135	H	-0.407316	0.500028	0.881396
H136	H	-0.157316	0.750028	1.131396
Br137	Br	-1.792738	0.000016	-0.019250
Br138	Br	-1.542738	0.250016	0.230750
Br139	Br	-1.292738	0.500016	0.480750
Br140	Br	-1.042738	0.750016	0.730750
Br141	Br	-1.065924	-0.000014	0.253951
Br142	Br	-0.815924	0.249986	0.503951
Br143	Br	-0.565924	0.499986	0.753951
Br144	Br	-0.315924	0.749986	1.003951
H145	H	-1.455178	-0.518360	0.591850
H146	H	-1.205178	-0.268360	0.841850
H147	H	-0.955178	-0.018360	1.091850
H148	H	-0.705178	0.231640	1.341850
H149	H	-1.363864	0.000009	0.067548
H150	H	-1.113864	0.250009	0.317548
H151	H	-0.863864	0.500009	0.567548
H152	H	-0.613864	0.750009	0.817548
