data_functionalizedCrystal
_audit_creation_method	'MofGen! by Chris Wilmer'
_symmetry_space_group_name_H-M	'P1'
_symmetry_Int_Tables_number	1
_symmetry_cell_setting	triclinic
loop_
_symmetry_equiv_pos_as_xyz
  x,y,z
_cell_length_a	27.732064
_cell_length_b	27.732025
_cell_length_c	12.996460
_cell_angle_alpha	90.008388
_cell_angle_beta	90.002042
_cell_angle_gamma	82.641446
loop_
_atom_site_label
_atom_site_type_symbol
_atom_site_fract_x
_atom_site_fract_y
_atom_site_fract_z
O1	O	0.640918	0.057557	-0.085352
O2	O	0.500125	0.066294	-0.085390
O3	O	0.574900	-0.008472	-0.085401
O4	O	0.566143	0.132323	-0.085341
O5	O	0.574892	-0.008476	0.085732
O6	O	0.500117	0.066290	0.085744
O7	O	0.640910	0.057553	0.085781
Cu8	Cu	0.570513	0.061921	0.101388
Cu9	Cu	0.570522	0.061926	-0.100997
O10	O	0.566135	0.132318	0.085793
C11	C	0.482114	0.066107	0.000171
C12	C	0.428460	0.065551	0.000155
C13	C	0.051391	0.017584	0.000193
C14	C	0.253051	0.019630	0.000167
O15	O	0.284307	-0.017592	0.000190
N16	N	0.272175	0.063965	0.000182
C17	C	0.240880	0.107791	0.000209
O18	O	0.261774	0.145547	0.000232
C19	C	0.039221	0.105744	0.000243
C20	C	0.020100	0.061407	0.000218
C21	C	0.032270	-0.026751	0.000170
C22	C	-0.018143	-0.027262	0.000170
C23	C	-0.049433	0.016561	0.000195
C24	C	-0.030312	0.060895	0.000219
C25	C	0.007928	0.149570	0.000278
C26	C	-0.042490	0.149054	0.000288
C27	C	-0.061611	0.104717	0.000264
C28	C	-0.112014	0.104207	0.000244
N29	N	-0.131138	0.059873	0.000230
C30	C	-0.099848	0.016050	0.000205
C31	C	0.346755	0.108862	0.000190
C32	C	0.397169	0.109374	0.000180
C33	C	0.409337	0.021213	0.000140
C34	C	0.358921	0.020702	0.000142
C35	C	0.327631	0.064528	0.000175
C36	C	-0.205717	0.014980	0.000206
C37	C	-0.256134	0.014472	0.000203
C38	C	-0.268297	0.102633	0.000248
C39	C	-0.217884	0.103141	0.000246
C40	C	-0.186595	0.059310	0.000229
O41	O	-0.143298	0.141409	0.000233
O42	O	-0.120750	-0.021701	0.000206
C43	C	0.101803	0.018095	0.000192
C44	C	0.120924	0.062429	0.000216
C45	C	0.089634	0.106252	0.000241
C46	C	0.171339	0.062941	0.000206
C47	C	0.202630	0.019118	0.000181
C48	C	0.183506	-0.025217	0.000167
C49	C	0.133094	-0.025728	0.000168
C50	C	0.108758	0.150586	0.000255
C51	C	0.159170	0.151094	0.000253
C52	C	0.190461	0.107271	0.000228
C53	C	0.574714	-0.026481	0.000155
C54	C	0.574165	-0.080137	0.000125
C55	C	0.570273	-0.463300	-0.093102
C56	C	0.572325	-0.261641	-0.093134
O57	O	0.572614	-0.235571	-0.172472
N58	N	0.572578	-0.236422	0.000148
C59	C	0.572320	-0.261621	0.093445
O60	O	0.572587	-0.235544	0.172787
C61	C	0.570271	-0.463280	0.093477
C62	C	0.570014	-0.488496	0.000188
C63	C	0.570016	-0.488516	-0.186382
C64	C	0.569500	-0.538928	-0.186373
C65	C	0.569241	-0.564123	-0.093083
C66	C	0.569498	-0.538907	0.000197
C67	C	0.570017	-0.488479	0.186773
C68	C	0.569506	-0.538897	0.186772
C69	C	0.569249	-0.564113	0.093484
C70	C	0.568723	-0.614514	0.093496
N71	N	0.568471	-0.639733	0.000214
C72	C	0.568730	-0.614538	-0.093076
C73	C	0.573395	-0.155747	0.093422
C74	C	0.573906	-0.105332	0.093415
C75	C	0.573912	-0.105356	-0.093165
C76	C	0.573398	-0.155771	-0.093157
C77	C	0.573143	-0.180966	0.000140
C78	C	0.567646	-0.720406	-0.093050
C79	C	0.567129	-0.770821	-0.093032
C80	C	0.567125	-0.770794	0.093547
C81	C	0.567640	-0.720382	0.093530
C82	C	0.567903	-0.695190	0.000224
O83	O	0.568440	-0.640616	0.172793
O84	O	0.568474	-0.640625	-0.172406
C85	C	0.570789	-0.412889	-0.093111
C86	C	0.571045	-0.387673	0.000170
C87	C	0.570786	-0.412868	0.093460
C88	C	0.571557	-0.337258	0.000163
C89	C	0.571816	-0.312063	-0.093127
C90	C	0.571563	-0.337282	-0.186410
C91	C	0.571048	-0.387693	-0.186401
C92	C	0.571039	-0.387649	0.186742
C93	C	0.571554	-0.337238	0.186726
C94	C	0.571813	-0.312042	0.093436
C95	C	0.658921	0.057739	0.000218
C96	C	0.712575	0.058295	0.000227
C97	C	0.566321	0.150328	0.000234
C98	C	0.566870	0.203983	0.000258
N99	N	0.570510	0.061917	0.243736
N100	N	0.570529	0.061925	-0.243344
C101	C	0.570521	0.061926	0.663550
C102	C	0.570517	0.061925	0.546745
C103	C	0.570516	0.061922	0.453646
C104	C	0.570511	0.061920	0.336834
H105	H	0.023486	0.185674	0.000293
Cl106	Cl	0.069428	0.205684	0.000280
H107	H	0.571759	-0.316711	0.262698
Cl108	Cl	0.566804	-0.802518	-0.210318
Cl109	Cl	0.334889	-0.035039	0.000117
H110	H	0.208992	-0.060899	0.000141
H111	H	0.174733	0.187202	0.000266
Cl112	Cl	0.570335	-0.456791	0.304058
H113	H	0.573187	-0.176298	-0.169120
Cl114	Cl	-0.081823	0.204154	0.000334
H115	H	0.566912	-0.791317	0.169501
H116	H	0.569299	-0.559409	0.262748
H117	H	0.321282	0.144553	0.000215
Cl118	Cl	0.109064	-0.081470	0.000132
Cl119	Cl	0.573071	-0.187413	0.210722
Cl120	Cl	0.571889	-0.305597	-0.303687
H121	H	0.057742	-0.062439	0.000153
Cl122	Cl	0.570711	-0.419316	0.304034
Cl123	Cl	-0.307643	0.157722	0.000274
Cl124	Cl	-0.280168	-0.041271	0.000165
H125	H	0.434822	-0.014469	0.000116
Cl126	Cl	0.567975	-0.688742	-0.210351
H127	H	0.567831	-0.699848	0.169493
Cl128	Cl	0.570341	-0.456851	-0.303678
H129	H	-0.202316	0.139244	0.000265
Cl130	Cl	-0.166390	-0.040123	0.000181
Cl131	Cl	0.421200	0.165115	0.000190
Cl132	Cl	-0.042172	-0.083003	0.000130
H133	H	0.574107	-0.084805	0.169379
H134	H	0.574120	-0.084832	-0.169126
Cl135	Cl	0.569183	-0.570621	-0.303657
Cl136	Cl	0.570726	-0.419385	-0.303684
