data_functionalizedCrystal
_audit_creation_method	'MofGen! by Chris Wilmer'
_symmetry_space_group_name_H-M	'P1'
_symmetry_Int_Tables_number	1
_symmetry_cell_setting	triclinic
loop_
_symmetry_equiv_pos_as_xyz
  x,y,z
_cell_length_a	18.215407
_cell_length_b	19.121063
_cell_length_c	18.215399
_cell_angle_alpha	92.409843
_cell_angle_beta	89.980167
_cell_angle_gamma	92.469446
loop_
_atom_site_label
_atom_site_type_symbol
_atom_site_fract_x
_atom_site_fract_y
_atom_site_fract_z
Zn1	Zn	1.112559	-0.279613	-0.428596
Zn2	Zn	1.107212	-0.397068	-0.310772
Zn3	Zn	0.989491	-0.279636	-0.305544
Zn4	Zn	0.984203	-0.397029	-0.433795
O5	O	1.048366	-0.338336	-0.369677
O6	O	1.214834	-0.295200	-0.412978
O7	O	1.091570	-0.381516	-0.207095
O8	O	1.010267	-0.181348	-0.317504
O9	O	1.210905	-0.381494	-0.326414
O10	O	1.100685	-0.181331	-0.407909
O11	O	1.005081	-0.295240	-0.203255
O12	O	0.885805	-0.295202	-0.322545
O13	O	1.001255	-0.381427	-0.536089
O14	O	0.881921	-0.381450	-0.416771
O15	O	1.095558	-0.295162	-0.532269
O16	O	1.086443	-0.495348	-0.331455
O17	O	0.996070	-0.495319	-0.421840
C18	C	0.857160	-0.338324	-0.369655
C19	C	0.775361	-0.338336	-0.369664
C20	C	0.585160	-0.383316	-0.418671
C21	C	0.508302	-0.383318	-0.418681
C22	C	0.512323	-0.293369	-0.320699
C23	C	0.589181	-0.293364	-0.320694
C24	C	0.625597	-0.338342	-0.369679
C25	C	0.471881	-0.338349	-0.369694
C26	C	0.388547	-0.338351	-0.369703
C27	C	0.708936	-0.338339	-0.369671
C28	C	1.040122	-0.520817	-0.377795
C29	C	1.036663	-0.598883	-0.381293
C30	C	1.082127	-0.635551	-0.335916
C31	C	1.078878	-0.708902	-0.339210
C32	C	1.030161	-0.745585	-0.387877
C33	C	0.984695	-0.708912	-0.433258
C34	C	0.987948	-0.635562	-0.429968
C35	C	1.017985	-0.967055	-0.400168
C36	C	1.014733	-1.040410	-0.403454
C37	C	1.108918	-1.040394	-0.309406
C38	C	1.112164	-0.967043	-0.306117
C39	C	1.066701	-0.930377	-0.351501
C40	C	1.026837	-0.820561	-0.391243
C41	C	1.070029	-0.855401	-0.348138
C42	C	1.240319	-0.338349	-0.369699
C43	C	1.322117	-0.338354	-0.369709
C44	C	1.048413	-0.338288	-0.561628
C45	C	1.048433	-0.338267	-0.643426
C46	C	1.056662	-0.155143	-0.361543
C47	C	1.060197	-0.077077	-0.358077
C48	C	1.097555	-0.293307	-0.829630
C49	C	1.097565	-0.293287	-0.906488
C50	C	0.999368	-0.383119	-0.910455
C51	C	0.999355	-0.383135	-0.833598
C52	C	1.048453	-0.338231	-0.793188
C53	C	1.048476	-0.338194	-0.946902
C54	C	1.048486	-0.338172	-1.030235
C55	C	1.048442	-0.338251	-0.709850
C56	C	1.048364	-0.338334	-0.178471
C57	C	1.048495	-0.338157	-0.096664
H58	H	0.475381	-0.419940	-0.458576
H59	H	0.482664	-0.256752	-0.280816
C60	C	0.934061	-0.813215	-0.483874
C61	C	0.973285	-0.860885	-0.444737
H62	H	0.901006	-0.838113	-0.516902
H63	H	0.907193	-0.784654	-0.450504
H64	H	0.967384	-0.784558	-0.510768
H65	H	0.939962	-0.889540	-0.417838
H66	H	1.000154	-0.889459	-0.478111
C67	C	1.000801	-1.122855	-0.506126
C68	C	0.961183	-1.080738	-0.456952
H69	H	0.967741	-1.147756	-0.539146
H70	H	1.034112	-1.094199	-0.533022
H71	H	1.027411	-1.155183	-0.479557
H72	H	0.934577	-1.048407	-0.483520
H73	H	0.927859	-1.109397	-0.430053
H74	H	1.137532	-0.256741	-0.796730
H75	H	1.137548	-0.256705	-0.936156
C76	C	1.202341	-1.033010	-0.216116
C77	C	1.158894	-1.080698	-0.259526
H78	H	1.233192	-1.057893	-0.185319
H79	H	1.231740	-1.004359	-0.246922
H80	H	1.171552	-1.004444	-0.186656
H81	H	1.189683	-1.109261	-0.288990
H82	H	1.129492	-1.109361	-0.228716
H83	H	0.614808	-0.419938	-0.458560
C84	C	1.085643	-0.791590	-0.244056
C85	C	1.128914	-0.749272	-0.289454
H86	H	1.116556	-0.816534	-0.213379
H87	H	1.054926	-0.763064	-0.214482
H88	H	1.056111	-0.823880	-0.273523
H89	H	1.158443	-0.716979	-0.259987
H90	H	1.159644	-0.777800	-0.319030
C91	C	0.958141	-0.502042	-0.939383
C92	C	0.945406	-0.432482	-0.954875
H93	H	0.924824	-0.532517	-0.966803
H94	H	1.007119	-0.512314	-0.952446
H95	H	0.951103	-0.508471	-0.888392
H96	H	0.952449	-0.426052	-1.005865
H97	H	0.896417	-0.422207	-0.941817
H98	H	0.622106	-0.256736	-0.280798
C99	C	1.174900	-0.642911	-0.243289
C100	C	1.135679	-0.595232	-0.282419
H101	H	1.207965	-0.618020	-0.210266
H102	H	1.141581	-0.671562	-0.216397
H103	H	1.201763	-0.671477	-0.276670
H104	H	1.108812	-0.566669	-0.249039
H105	H	1.169003	-0.566568	-0.309313
C106	C	0.984842	-0.477626	-0.751346
C107	C	0.945380	-0.432519	-0.793532
H108	H	0.951519	-0.508107	-0.726608
H109	H	1.015686	-0.504487	-0.782526
H110	H	1.014076	-0.450874	-0.716285
H111	H	0.916150	-0.459271	-0.828597
H112	H	0.914523	-0.405655	-0.762349
H113	H	0.980966	-0.937207	-0.437120
C114	C	1.214817	-0.884474	-0.292284
C115	C	1.165715	-0.926717	-0.252624
H116	H	1.247872	-0.859575	-0.259256
H117	H	1.241684	-0.913045	-0.325645
H118	H	1.188194	-0.852145	-0.318837
H119	H	1.192338	-0.959050	-0.226075
H120	H	1.138846	-0.898144	-0.219250
H121	H	0.945031	-0.738785	-0.472887
H122	H	0.950927	-0.605708	-0.466919
H123	H	1.109698	-0.825532	-0.308516
