data_functionalizedCrystal
_audit_creation_method	'MofGen! by Chris Wilmer'
_symmetry_space_group_name_H-M	'P1'
_symmetry_Int_Tables_number	1
_symmetry_cell_setting	triclinic
loop_
_symmetry_equiv_pos_as_xyz
  x,y,z
_cell_length_a	19.805407
_cell_length_b	19.805405
_cell_length_c	19.805382
_cell_angle_alpha	89.900407
_cell_angle_beta	89.928521
_cell_angle_gamma	90.024042
loop_
_atom_site_label
_atom_site_type_symbol
_atom_site_fract_x
_atom_site_fract_y
_atom_site_fract_z
Zn1	Zn	1.035093	-0.269040	-0.382693
Zn2	Zn	1.535093	0.230960	0.117307
Zn3	Zn	1.034901	-0.382372	-0.269507
Zn4	Zn	1.534901	0.117628	0.230493
Zn5	Zn	0.921801	-0.269197	-0.269521
Zn6	Zn	1.421801	0.230803	0.230479
Zn7	Zn	0.921870	-0.382187	-0.382657
Zn8	Zn	1.421870	0.117813	0.117343
O9	O	0.978416	-0.325699	-0.326095
O10	O	1.478416	0.174301	0.173905
O11	O	1.129784	-0.284085	-0.367688
O12	O	1.629784	0.215915	0.132312
O13	O	1.019789	-0.367503	-0.174792
O14	O	1.519789	0.132497	0.325208
O15	O	0.936881	-0.174460	-0.284555
O16	O	1.436881	0.325540	0.215445
O17	O	1.129643	-0.367350	-0.284530
O18	O	1.629643	0.132650	0.215470
O19	O	1.020116	-0.174344	-0.367702
O20	O	1.520116	0.325656	0.132298
O21	O	0.936695	-0.284354	-0.174802
O22	O	1.436695	0.215646	0.325198
O23	O	0.827094	-0.284174	-0.284520
O24	O	1.327094	0.215826	0.215480
O25	O	0.936999	-0.367034	-0.477379
O26	O	1.436999	0.132966	0.022621
O27	O	0.827145	-0.367187	-0.367640
O28	O	1.327145	0.132813	0.132360
O29	O	1.020183	-0.283905	-0.477405
O30	O	1.520183	0.216095	0.022595
O31	O	1.019856	-0.477064	-0.284495
O32	O	1.519856	0.022936	0.215505
O33	O	0.936813	-0.476928	-0.367626
O34	O	1.436813	0.023072	0.132374
C35	C	0.802560	-0.325678	-0.326078
C36	C	1.302560	0.174322	0.173922
C37	C	0.727328	-0.325685	-0.326087
C38	C	1.227328	0.174315	0.173913
C39	C	0.692058	-0.282406	-0.369453
C40	C	1.192058	0.217594	0.130547
C41	C	0.621370	-0.282409	-0.369456
C42	C	1.121370	0.217591	0.130544
C43	C	0.585953	-0.325696	-0.326095
C44	C	1.085953	0.174304	0.173905
C45	C	0.621228	-0.368978	-0.282724
C46	C	1.121228	0.131022	0.217276
C47	C	0.691915	-0.368970	-0.282719
C48	C	1.191915	0.131030	0.217281
C49	C	0.336155	-0.369008	-0.282745
C50	C	0.836155	0.130992	0.217255
C51	C	0.265462	-0.369014	-0.282756
C52	C	0.765462	0.130986	0.217244
C53	C	0.265610	-0.282447	-0.369482
C54	C	0.765610	0.217553	0.130518
C55	C	0.336297	-0.282440	-0.369477
C56	C	0.836297	0.217560	0.130523
C57	C	0.371565	-0.325718	-0.326104
C58	C	0.871565	0.174282	0.173896
C59	C	0.448214	-0.325713	-0.326100
C60	C	0.948214	0.174287	0.173900
C61	C	0.509306	-0.325705	-0.326101
C62	C	1.009306	0.174295	0.173899
C63	C	0.978339	-0.501555	-0.326070
C64	C	1.478339	-0.001555	0.173930
C65	C	0.978368	-0.576787	-0.326082
C66	C	1.478368	-0.076787	0.173918
C67	C	1.021683	-0.612013	-0.369411
C68	C	1.521683	-0.112013	0.130589
C69	C	1.021707	-0.682701	-0.369423
C70	C	1.521707	-0.182701	0.130577
C71	C	0.978420	-0.718163	-0.326104
C72	C	1.478420	-0.218163	0.173896
C73	C	0.935100	-0.682932	-0.282773
C74	C	1.435100	-0.182932	0.217227
C75	C	0.935073	-0.612245	-0.282764
C76	C	1.435073	-0.112245	0.217236
C77	C	0.935209	-0.968005	-0.282808
C78	C	1.435209	-0.468005	0.217192
C79	C	0.935241	-1.038697	-0.282818
C80	C	1.435241	-0.538697	0.217182
C81	C	1.021843	-1.038461	-0.369467
C82	C	1.521843	-0.538461	0.130533
C83	C	1.021816	-0.967774	-0.369458
C84	C	1.521816	-0.467774	0.130542
C85	C	0.978494	-0.932550	-0.326130
C86	C	1.478494	-0.432550	0.173870
C87	C	0.978468	-0.855902	-0.326118
C88	C	1.478468	-0.355902	0.173882
C89	C	0.978450	-0.794810	-0.326112
C90	C	1.478450	-0.294810	0.173888
C91	C	1.154959	-0.325721	-0.326111
C92	C	1.654959	0.174279	0.173889
C93	C	1.230191	-0.325730	-0.326119
C94	C	1.730191	0.174270	0.173881
C95	C	0.978620	-0.325432	-0.502638
C96	C	1.478620	0.174568	-0.002638
C97	C	0.978707	-0.325317	-0.577870
C98	C	1.478707	0.174683	-0.077870
C99	C	0.978512	-0.149156	-0.326134
C100	C	1.478512	0.350844	0.173866
C101	C	0.978553	-0.073924	-0.326151
C102	C	1.478553	0.426076	0.173849
C103	C	0.978253	-0.325917	-0.150238
C104	C	1.478253	0.174083	0.349762
C105	C	0.978297	-0.325840	-0.075006
C106	C	1.478297	0.174160	0.424994
C107	C	1.021673	-0.281763	0.386578
C108	C	1.521673	0.218237	0.886578
C109	C	1.021613	-0.281834	0.315890
C110	C	1.521613	0.218166	0.815890
C111	C	0.978589	-0.325464	0.280755
C112	C	1.478589	0.174536	0.780755
C113	C	0.935618	-0.369021	0.316311
C114	C	1.435618	0.130979	0.816311
C115	C	0.935676	-0.368946	0.386998
C116	C	1.435676	0.131054	0.886998
C117	C	0.935386	-0.369326	0.031239
C118	C	1.435386	0.130674	0.531239
C119	C	0.935334	-0.369399	-0.039453
C120	C	1.435334	0.130601	0.460547
C121	C	1.021323	-0.282214	-0.039870
C122	C	1.521323	0.217786	0.460130
C123	C	1.021381	-0.282138	0.030817
C124	C	1.521381	0.217862	0.530817
C125	C	0.978407	-0.325692	0.066368
C126	C	1.478407	0.174308	0.566368
C127	C	0.978472	-0.325613	0.143016
C128	C	1.478472	0.174387	0.643016
C129	C	0.978528	-0.325547	0.204108
C130	C	1.478528	0.174453	0.704108
H131	H	0.236628	-0.404265	-0.247444
H132	H	0.736628	0.095735	0.252556
Br133	Br	0.573163	-0.427720	-0.223872
Br134	Br	1.073163	0.072280	0.276128
Br135	Br	1.079645	-0.223102	-0.088120
Br136	Br	1.579645	0.276898	0.411880
Br137	Br	0.739783	-0.427708	-0.223861
Br138	Br	1.239783	0.072292	0.276139
Br139	Br	1.079775	-0.222927	0.078498
Br140	Br	1.579775	0.277073	0.578498
Br141	Br	0.877064	-0.428433	0.079477
Br142	Br	1.377064	0.071567	0.579477
Br143	Br	0.876407	-0.920210	-0.224014
Br144	Br	1.376407	-0.420210	0.275986
Br145	Br	1.080439	-0.563893	-0.428200
Br146	Br	1.580439	-0.063893	0.071800
H147	H	1.056984	-0.711379	-0.404701
H148	H	1.556984	-0.211379	0.095299
Br149	Br	0.876942	-0.428617	-0.087137
Br150	Br	1.376942	0.071383	0.412863
Br151	Br	0.877224	-0.428231	0.268628
Br152	Br	1.377224	0.071769	0.768628
H153	H	0.364862	-0.404249	-0.247429
H154	H	0.864862	0.095751	0.252571
Br155	Br	0.877358	-0.428054	0.435248
Br156	Br	1.377358	0.071946	0.935248
Br157	Br	1.080070	-0.222552	0.434255
Br158	Br	1.580070	0.277448	0.934255
H159	H	0.720890	-0.247158	-0.404764
H160	H	1.220890	0.252842	0.095236
H161	H	1.057116	-1.067150	-0.404749
H162	H	1.557116	-0.567150	0.095251
Br163	Br	0.573506	-0.223670	-0.428313
Br164	Br	1.073506	0.276330	0.071687
H165	H	0.365130	-0.247193	-0.404788
H166	H	0.865130	0.252807	0.095212
H167	H	1.057067	-0.938904	-0.404731
H168	H	1.557067	-0.438904	0.095269
Br169	Br	0.876491	-1.086824	-0.224022
Br170	Br	1.376491	-0.586824	0.275978
Br171	Br	0.876343	-0.731058	-0.223989
Br172	Br	1.376343	-0.231058	0.276011
H173	H	0.236885	-0.247205	-0.404796
H174	H	0.736885	0.252795	0.095204
H175	H	0.899801	-0.583565	-0.247483
H176	H	1.399801	-0.083565	0.252517
H177	H	1.056602	-0.246369	0.286947
H178	H	1.556602	0.253631	0.786947
