data_functionalizedCrystal
_audit_creation_method	'MofGen! by Chris Wilmer'
_symmetry_space_group_name_H-M	'P1'
_symmetry_Int_Tables_number	1
_symmetry_cell_setting	triclinic
loop_
_symmetry_equiv_pos_as_xyz
  x,y,z
_cell_length_a	12.759401
_cell_length_b	13.897448
_cell_length_c	12.759393
_cell_angle_alpha	90.030759
_cell_angle_beta	89.980903
_cell_angle_gamma	89.980448
loop_
_atom_site_label
_atom_site_type_symbol
_atom_site_fract_x
_atom_site_fract_y
_atom_site_fract_z
Zn1	Zn	1.606220	0.383958	-0.594004
Zn2	Zn	2.106220	0.883958	-0.094004
Zn3	Zn	1.606099	0.545288	-0.418327
Zn4	Zn	2.106099	1.045288	0.081673
Zn5	Zn	1.430522	0.384008	-0.418342
Zn6	Zn	1.930522	0.884008	0.081658
Zn7	Zn	1.430496	0.545213	-0.593966
Zn8	Zn	1.930496	1.045213	-0.093966
O9	O	1.518334	0.464617	-0.506160
O10	O	2.018334	0.964617	-0.006160
O11	O	1.753225	0.405369	-0.570710
O12	O	2.253225	0.905369	-0.070710
O13	O	1.582769	0.523946	-0.271308
O14	O	2.082769	1.023946	0.228692
O15	O	1.453890	0.249020	-0.441666
O16	O	1.953890	0.749020	0.058334
O17	O	1.753136	0.523898	-0.441640
O18	O	2.253136	1.023898	0.058360
O19	O	1.582975	0.248983	-0.570724
O20	O	2.082975	0.748983	-0.070724
O21	O	1.453773	0.405455	-0.271318
O22	O	1.953773	0.905455	0.228682
O23	O	1.283497	0.405382	-0.441629
O24	O	1.783497	0.905382	0.058371
O25	O	1.453845	0.523770	-0.740992
O26	O	1.953845	1.023770	-0.240992
O27	O	1.283478	0.523819	-0.570660
O28	O	1.783478	1.023819	-0.070660
O29	O	1.582949	0.405297	-0.741020
O30	O	2.082949	0.905297	-0.241020
O31	O	1.582744	0.680260	-0.441604
O32	O	2.082744	1.180260	0.058396
O33	O	1.453728	0.680205	-0.570645
O34	O	1.953728	1.180205	-0.070645
C35	C	1.245367	0.464598	-0.506143
C36	C	1.745367	0.964598	-0.006143
C37	C	1.128590	0.464614	-0.506160
C38	C	1.628590	0.964614	-0.006160
C39	C	0.964044	0.403020	-0.573479
C40	C	1.464044	0.903020	-0.073479
C41	C	1.073769	0.403007	-0.573470
C42	C	1.573769	0.903007	-0.073470
C43	C	1.073682	0.526245	-0.438863
C44	C	1.573682	1.026245	0.061137
C45	C	0.963960	0.526263	-0.438878
C46	C	1.463960	1.026263	0.061122
C47	C	0.909229	0.341402	-0.640786
C48	C	1.409229	0.841402	-0.140786
C49	C	0.964129	0.279772	-0.708085
C50	C	1.464129	0.779772	-0.208085
C51	C	1.073853	0.279758	-0.708076
C52	C	1.573853	0.779758	-0.208076
C53	C	1.128677	0.341375	-0.640767
C54	C	1.628677	0.841375	-0.140767
C55	C	1.518249	0.715231	-0.506142
C56	C	2.018249	1.215231	-0.006142
C57	C	1.518308	0.822445	-0.506169
C58	C	2.018308	1.322445	-0.006169
C59	C	1.518411	1.018740	-0.506244
C60	C	2.018411	1.518740	-0.006244
C61	C	1.518351	0.909508	-0.506206
C62	C	2.018351	1.409508	-0.006206
C63	C	1.792367	0.464636	-0.506177
C64	C	2.292367	0.964636	-0.006177
C65	C	1.909144	0.464644	-0.506185
C66	C	2.409144	0.964644	-0.006185
C67	C	1.518408	0.464520	-0.780193
C68	C	2.018408	0.964520	-0.280193
C69	C	1.518439	0.464478	-0.896970
C70	C	2.018439	0.964478	-0.396970
C71	C	1.518440	1.213024	-0.506213
C72	C	2.018440	1.713024	-0.006213
C73	C	1.518462	1.105810	-0.506267
C74	C	2.018462	1.605810	-0.006267
C75	C	1.585673	0.402783	-0.951848
C76	C	2.085673	0.902783	-0.451848
C77	C	1.585698	0.402748	-1.061572
C78	C	2.085698	0.902748	-0.561572
C79	C	1.451252	0.526112	-1.061530
C80	C	1.951252	1.026112	-0.561530
C81	C	1.451223	0.526141	-0.951808
C82	C	1.951223	1.026141	-0.451808
C83	C	1.652889	0.341121	-0.897010
C84	C	2.152889	0.841121	-0.397010
C85	C	1.720129	0.279422	-0.951888
C86	C	2.220129	0.779422	-0.451888
C87	C	1.720154	0.279387	-1.061612
C88	C	2.220154	0.779387	-0.561612
C89	C	1.652939	0.341051	-1.116458
C90	C	2.152939	0.841051	-0.616458
C91	C	1.518321	0.464644	-0.233192
C92	C	2.018321	0.964644	0.266808
C93	C	1.518493	0.464414	-0.116416
C94	C	2.018493	0.964414	0.383584
H95	H	1.118550	0.229582	-0.762881
H96	H	1.618550	0.729582	-0.262881
C97	C	1.794114	0.211514	-1.121975
C98	C	2.294114	0.711514	-0.621975
N99	N	1.849828	0.160394	-1.167438
N100	N	2.349828	0.660394	-0.667438
C101	C	1.794056	0.211590	-0.891556
C102	C	2.294056	0.711590	-0.391556
N103	N	1.849740	0.160498	-0.846115
N104	N	2.349740	0.660498	-0.346115
C105	C	1.377268	0.594013	-0.891439
C106	C	1.877268	1.094013	-0.391439
N107	N	1.321562	0.645136	-0.845968
N108	N	1.821562	1.145136	-0.345968
C109	C	1.377323	0.593939	-1.121865
C110	C	1.877323	1.093939	-0.621865
N111	N	1.321639	0.645029	-1.167309
N112	N	1.821639	1.145029	-0.667309
C113	C	0.903566	0.594052	-0.364850
C114	C	1.403566	1.094052	0.135150
N115	N	0.858077	0.645114	-0.309092
N116	N	1.358077	1.145114	0.190908
C117	C	1.249377	0.341361	-0.640765
C118	C	1.749377	0.841361	-0.140765
N119	N	1.340287	0.341345	-0.640760
N120	N	1.840287	0.841345	-0.140760
C121	C	1.133992	0.594009	-0.364818
C122	C	1.633992	1.094009	0.135182
N123	N	1.179418	0.645046	-0.309042
N124	N	1.679418	1.145046	0.190958
C125	C	0.788530	0.341412	-0.640804
C126	C	1.288530	0.841412	-0.140804
N127	N	0.697620	0.341420	-0.640815
N128	N	1.197620	0.841420	-0.140815
C129	C	1.652965	0.341004	-1.237159
C130	C	2.152965	0.841004	-0.737159
N131	N	1.652989	0.340971	-1.328069
N132	N	2.152989	0.840971	-0.828069
H133	H	0.919485	0.229611	-0.762891
H134	H	1.419485	0.729611	-0.262891
H135	H	1.652878	0.341144	-0.807667
H136	H	2.152878	0.841144	-0.307667
