data_functionalizedCrystal
_audit_creation_method	'MofGen! by Chris Wilmer'
_symmetry_space_group_name_H-M	'P1'
_symmetry_Int_Tables_number	1
_symmetry_cell_setting	triclinic
loop_
_symmetry_equiv_pos_as_xyz
  x,y,z
_cell_length_a	21.395362
_cell_length_b	25.639239
_cell_length_c	21.395355
_cell_angle_alpha	89.980666
_cell_angle_beta	89.956060
_cell_angle_gamma	90.054564
loop_
_atom_site_label
_atom_site_type_symbol
_atom_site_fract_x
_atom_site_fract_y
_atom_site_fract_z
Zn1	Zn	0.957825	-0.207990	-0.354582
Zn2	Zn	1.291158	0.125344	-0.021249
Zn3	Zn	1.624491	0.458677	0.312085
Zn4	Zn	0.957713	-0.295409	-0.249803
Zn5	Zn	1.291046	0.037924	0.083530
Zn6	Zn	1.624379	0.371257	0.416864
Zn7	Zn	0.853040	-0.208014	-0.249783
Zn8	Zn	1.186373	0.125319	0.083550
Zn9	Zn	1.519706	0.458653	0.416883
Zn10	Zn	0.852994	-0.295420	-0.354508
Zn11	Zn	1.186328	0.037913	-0.021174
Zn12	Zn	1.519661	0.371246	0.312159
O13	O	0.905393	-0.251708	-0.302169
O14	O	1.238726	0.081625	0.031164
O15	O	1.572060	0.414958	0.364498
O16	O	1.045488	-0.219571	-0.340722
O17	O	1.378821	0.113762	-0.007389
O18	O	1.712154	0.447095	0.325944
O19	O	0.943800	-0.283822	-0.162122
O20	O	1.277133	0.049511	0.171211
O21	O	1.610466	0.382845	0.504544
O22	O	0.867006	-0.134846	-0.263708
O23	O	1.200339	0.198488	0.069625
O24	O	1.533672	0.531821	0.402959
O25	O	1.045405	-0.283798	-0.263742
O26	O	1.378739	0.049535	0.069592
O27	O	1.712072	0.382868	0.402925
O28	O	0.943991	-0.134828	-0.340703
O29	O	1.277324	0.198506	-0.007370
O30	O	1.610657	0.531839	0.325964
O31	O	0.866897	-0.219613	-0.162108
O32	O	1.200230	0.113720	0.171225
O33	O	1.533564	0.447054	0.504559
O34	O	0.765356	-0.219623	-0.263636
O35	O	1.098689	0.113710	0.069697
O36	O	1.432022	0.447043	0.403031
O37	O	0.866928	-0.283817	-0.442196
O38	O	1.200262	0.049517	-0.108862
O39	O	1.533595	0.382850	0.224471
O40	O	0.765322	-0.283840	-0.340576
O41	O	1.098656	0.049493	-0.007243
O42	O	1.431989	0.382826	0.326090
O43	O	0.943947	-0.219582	-0.442250
O44	O	1.277280	0.113751	-0.108917
O45	O	1.610613	0.447085	0.224417
O46	O	0.943756	-0.368576	-0.263669
O47	O	1.277089	-0.035243	0.069664
O48	O	1.610422	0.298091	0.402997
O49	O	0.866820	-0.368584	-0.340596
O50	O	1.200153	-0.035251	-0.007262
O51	O	1.533486	0.298083	0.326071
C52	C	0.742605	-0.251736	-0.302096
C53	C	1.075939	0.081597	0.031237
C54	C	1.409272	0.414931	0.364570
C55	C	0.672964	-0.251760	-0.302080
C56	C	1.006297	0.081573	0.031253
C57	C	1.339631	0.414906	0.364587
C58	C	0.640250	-0.285243	-0.342083
C59	C	0.973583	0.048091	-0.008750
C60	C	1.306916	0.381424	0.324584
C61	C	0.574814	-0.285230	-0.342111
C62	C	0.908148	0.048104	-0.008778
C63	C	1.241481	0.381437	0.324556
C64	C	0.542096	-0.251740	-0.302125
C65	C	0.875429	0.081593	0.031209
C66	C	1.208762	0.414926	0.364542
C67	C	0.574818	-0.218252	-0.262119
C68	C	0.908151	0.115082	0.071214
C69	C	1.241484	0.448415	0.404548
C70	C	0.640252	-0.218262	-0.262097
C71	C	0.973585	0.115071	0.071237
C72	C	1.306918	0.448405	0.404570
C73	C	0.438372	-0.247528	-0.245720
C74	C	0.771705	0.085805	0.087614
C75	C	1.105038	0.419138	0.420947
C76	C	0.372939	-0.247522	-0.245741
C77	C	0.706272	0.085811	0.087593
C78	C	1.039605	0.419145	0.420926
C79	C	0.340275	-0.251706	-0.302194
C80	C	0.673608	0.081627	0.031139
C81	C	1.006942	0.414960	0.364473
C82	C	0.373052	-0.255908	-0.358627
C83	C	0.706386	0.077425	-0.025294
C84	C	1.039719	0.410759	0.308039
C85	C	0.438486	-0.255918	-0.358605
C86	C	0.771820	0.077415	-0.025272
C87	C	1.105153	0.410749	0.308062
C88	C	0.471143	-0.251725	-0.302145
C89	C	0.804477	0.081608	0.031189
C90	C	1.137810	0.414941	0.364522
C91	C	0.236608	-0.285176	-0.342231
C92	C	0.569942	0.048157	-0.008897
C93	C	0.903275	0.381490	0.324436
C94	C	0.171172	-0.285160	-0.342260
C95	C	0.504505	0.048174	-0.008926
C96	C	0.837838	0.381507	0.324407
C97	C	0.171176	-0.218185	-0.262262
C98	C	0.504510	0.115149	0.071071
C99	C	0.837843	0.448482	0.404405
C100	C	0.236612	-0.218198	-0.262239
C101	C	0.569945	0.115135	0.071095
C102	C	0.903278	0.448468	0.404428
C103	C	0.269324	-0.251697	-0.302222
C104	C	0.602657	0.081636	0.031111
C105	C	0.935990	0.414970	0.364445
C106	C	0.905288	-0.387551	-0.302140
C107	C	1.238621	-0.054218	0.031193
C108	C	1.571954	0.279116	0.364526
C109	C	0.905300	-0.445665	-0.302149
C110	C	1.238633	-0.112332	0.031184
C111	C	1.571966	0.221002	0.364518
C112	C	0.945558	-0.806011	-0.262182
C113	C	1.278891	-0.472678	0.071151
C114	C	1.612225	-0.139345	0.404485
C115	C	0.945582	-0.860616	-0.262190
C116	C	1.278916	-0.527282	0.071143
C117	C	1.612249	-0.193949	0.404476
O118	O	0.979702	-0.888838	-0.228177
O119	O	1.313035	-0.555505	0.105156
O120	O	1.646369	-0.222171	0.438489
N121	N	0.905503	-0.887947	-0.302211
N122	N	1.238836	-0.554614	0.031123
N123	N	1.572170	-0.221281	0.364456
C124	C	0.865401	-0.860672	-0.342230
C125	C	1.198735	-0.527339	-0.008896
C126	C	1.532068	-0.194005	0.324437
O127	O	0.831313	-0.888934	-0.376271
O128	O	1.164647	-0.555601	-0.042938
O129	O	1.497980	-0.222267	0.290396
C130	C	0.865381	-0.806069	-0.342224
C131	C	1.198714	-0.472735	-0.008891
C132	C	1.532047	-0.139402	0.324443
C133	C	0.905458	-0.778740	-0.302196
C134	C	1.238791	-0.445406	0.031137
C135	C	1.572125	-0.112073	0.364470
C136	C	0.985633	-0.778682	-0.222158
C137	C	1.318966	-0.445349	0.111175
C138	C	1.652299	-0.112016	0.444508
C139	C	0.985608	-0.724082	-0.222149
C140	C	1.318941	-0.390748	0.111184
C141	C	1.652274	-0.057415	0.444517
C142	C	0.945508	-0.696810	-0.262164
C143	C	1.278841	-0.363477	0.071170
C144	C	1.612174	-0.030144	0.404503
C145	C	0.905433	-0.724139	-0.302187
C146	C	1.238766	-0.390806	0.031146
C147	C	1.572099	-0.057473	0.364479
C148	C	0.825282	-0.778794	-0.382246
C149	C	1.158616	-0.445461	-0.048912
C150	C	1.491949	-0.112128	0.284421
C151	C	0.825266	-0.724187	-0.382237
C152	C	1.158599	-0.390854	-0.048903
C153	C	1.491932	-0.057521	0.284430
C154	C	0.865343	-0.696858	-0.342209
C155	C	1.198676	-0.363525	-0.008876
C156	C	1.532010	-0.030192	0.324457
C157	C	0.865308	-0.642267	-0.342193
C158	C	1.198641	-0.308934	-0.008860
C159	C	1.531974	0.024399	0.324474
N160	N	0.905387	-0.614935	-0.302173
N161	N	1.238720	-0.281602	0.031161
N162	N	1.572054	0.051731	0.364494
C163	C	0.945487	-0.642207	-0.262158
C164	C	1.278820	-0.308874	0.071175
C165	C	1.612154	0.024460	0.404509
C166	C	0.865448	-0.975343	-0.342239
C167	C	1.198782	-0.642009	-0.008906
C168	C	1.532115	-0.308676	0.324427
C169	C	0.865465	-1.029945	-0.342242
C170	C	1.198799	-0.696612	-0.008909
C171	C	1.532132	-0.363278	0.324424
C172	C	0.945648	-1.029885	-0.262204
C173	C	1.278981	-0.696551	0.071130
C174	C	1.612314	-0.363218	0.404463
C175	C	0.945627	-0.975281	-0.262198
C176	C	1.278960	-0.641948	0.071135
C177	C	1.612294	-0.308615	0.404469
C178	C	0.905528	-0.948011	-0.302219
C179	C	1.238861	-0.614678	0.031114
C180	C	1.572194	-0.281344	0.364448
C181	C	0.945430	-0.527542	-0.262142
C182	C	1.278764	-0.194209	0.071192
C183	C	1.612097	0.139125	0.404525
C184	C	0.945400	-0.472937	-0.262134
C185	C	1.278733	-0.139603	0.071199
C186	C	1.612066	0.193730	0.404532
C187	C	0.865220	-0.473002	-0.342175
C188	C	1.198554	-0.139668	-0.008842
C189	C	1.531887	0.193665	0.324492
C190	C	0.865248	-0.527602	-0.342180
C191	C	1.198582	-0.194269	-0.008847
C192	C	1.531915	0.139065	0.324486
C193	C	0.905358	-0.554871	-0.302162
C194	C	1.238692	-0.221538	0.031172
C195	C	1.572025	0.111796	0.364505
O196	O	0.831207	-0.614010	-0.376190
O197	O	1.164540	-0.280677	-0.042857
O198	O	1.497874	0.052657	0.290476
O199	O	0.979575	-0.613939	-0.228128
O200	O	1.312908	-0.280605	0.105205
O201	O	1.646242	0.052728	0.438539
C202	C	1.068816	-0.251681	-0.302242
C203	C	1.402150	0.081652	0.031091
C204	C	1.735483	0.414986	0.364424
C205	C	1.138458	-0.251669	-0.302274
C206	C	1.471791	0.081664	0.031060
C207	C	1.805124	0.414997	0.364393
C208	C	0.905445	-0.251698	-0.465592
C209	C	1.238778	0.081636	-0.132259
C210	C	1.572112	0.414969	0.201074
C211	C	0.905467	-0.251693	-0.535234
C212	C	1.238800	0.081640	-0.201900
C213	C	1.572134	0.414973	0.131433
C214	C	0.905516	-0.115335	-0.302212
C215	C	1.238849	0.217998	0.031122
C216	C	1.572182	0.551331	0.364455
C217	C	0.905568	-0.057221	-0.302230
C218	C	1.238901	0.276112	0.031104
C219	C	1.572235	0.609445	0.364437
C220	C	0.945569	-0.218245	-0.567976
C221	C	1.278902	0.115089	-0.234643
C222	C	1.612236	0.448422	0.098690
C223	C	0.945568	-0.218222	-0.633412
C224	C	1.278901	0.115111	-0.300078
C225	C	1.612235	0.448444	0.033255
C226	C	0.905472	-0.251658	-0.666102
C227	C	1.238805	0.081676	-0.332769
C228	C	1.572139	0.415009	0.000565
C229	C	0.865362	-0.285108	-0.633352
C230	C	1.198696	0.048225	-0.300018
C231	C	1.532029	0.381558	0.033315
C232	C	0.865360	-0.285126	-0.567917
C233	C	1.198693	0.048207	-0.234584
C234	C	1.532027	0.381540	0.098749
C235	C	0.900488	-0.298736	-0.769765
C236	C	1.233821	0.034597	-0.436432
C237	C	1.567155	0.367931	-0.103098
C238	C	0.900495	-0.298719	-0.835198
C239	C	1.233828	0.034614	-0.501865
C240	C	1.567162	0.367947	-0.168531
C241	C	0.905476	-0.251602	-0.867923
C242	C	1.238809	0.081731	-0.534590
C243	C	1.572143	0.415064	-0.201256
C244	C	0.910463	-0.204501	-0.835207
C245	C	1.243796	0.128832	-0.501873
C246	C	1.577130	0.462166	-0.168540
C247	C	0.910461	-0.204519	-0.769773
C248	C	1.243794	0.128814	-0.436439
C249	C	1.577127	0.462148	-0.103106
C250	C	0.905470	-0.251642	-0.737054
C251	C	1.238803	0.081691	-0.403721
C252	C	1.572137	0.415025	-0.070388
C253	C	0.945579	-0.218127	-0.971618
C254	C	1.278912	0.115207	-0.638285
C255	C	1.612246	0.448540	-0.304951
C256	C	0.945574	-0.218103	-1.037055
C257	C	1.278907	0.115230	-0.703721
C258	C	1.612240	0.448563	-0.370388
C259	C	0.865371	-0.284994	-1.036993
C260	C	1.198705	0.048339	-0.703660
C261	C	1.532038	0.381672	-0.370327
C262	C	0.865373	-0.285013	-0.971558
C263	C	1.198707	0.048320	-0.638225
C264	C	1.532040	0.381654	-0.304891
C265	C	0.905480	-0.251580	-0.938874
C266	C	1.238814	0.081753	-0.605541
C267	C	1.572147	0.415087	-0.272208
C268	C	0.905377	-0.251681	-0.139381
C269	C	1.238710	0.081652	0.193952
C270	C	1.572044	0.414985	0.527285
C271	C	0.905476	-0.251538	-0.069741
C272	C	1.238810	0.081795	0.263593
C273	C	1.572143	0.415128	0.596926
H274	H	0.346256	-0.244104	-0.199789
H275	H	0.679590	0.089229	0.133544
H276	H	1.012923	0.422563	0.466878
F277	F	0.539995	-0.182608	-0.219565
F278	F	0.873329	0.150725	0.113768
F279	F	1.206662	0.484059	0.447101
H280	H	0.666887	-0.190995	-0.229521
H281	H	1.000221	0.142338	0.103812
H282	H	1.333554	0.475672	0.437145
F283	F	0.473128	-0.243076	-0.185630
F284	F	0.806462	0.090257	0.147703
F285	F	1.139795	0.423591	0.481037
H286	H	0.792644	-0.801036	-0.414837
H287	H	1.125977	-0.467703	-0.081504
H288	H	1.459311	-0.134370	0.251829
F289	F	0.988057	-0.443854	-0.219530
F290	F	1.321391	-0.110521	0.113804
F291	F	1.654724	0.222813	0.447137
F292	F	0.895193	-0.348848	-0.870011
F293	F	1.228526	-0.015515	-0.536678
F294	F	1.561859	0.317818	-0.203344
H295	H	0.914520	-0.166167	-0.743138
H296	H	1.247853	0.167166	-0.409804
H297	H	1.581186	0.500499	-0.076471
F298	F	0.136359	-0.182540	-0.219708
F299	F	0.469692	0.150794	0.113625
F300	F	0.803026	0.484127	0.446958
H301	H	0.832616	-0.549855	-0.374776
H302	H	1.165949	-0.216521	-0.041442
H303	H	1.499283	0.116812	0.291891
F304	F	0.895201	-0.348889	-0.734943
F305	F	1.228534	-0.015555	-0.401610
F306	F	1.561868	0.317778	-0.068277
H307	H	0.978262	-0.953033	-0.229605
H308	H	1.311595	-0.619700	0.103729
H309	H	1.644928	-0.286367	0.437062
F310	F	0.988261	-0.182543	-0.936831
F311	F	1.321595	0.150790	-0.603498
F312	F	1.654928	0.484124	-0.270165
H313	H	0.914520	-0.166134	-0.861850
H314	H	1.247853	0.167199	-0.528516
H315	H	1.581187	0.500532	-0.195183
F316	F	0.822687	-0.320691	-0.668144
F317	F	1.156021	0.012642	-0.334810
F318	F	1.489354	0.345976	-0.001477
H319	H	0.465171	-0.259338	-0.404555
H320	H	0.798504	0.073996	-0.071222
H321	H	1.131838	0.407329	0.262111
H322	H	0.832722	-0.312253	-0.944899
H323	H	1.166055	0.021080	-0.611565
H324	H	1.499388	0.354413	-0.278232
H325	H	0.978093	-0.549738	-0.229556
H326	H	1.311427	-0.216404	0.103777
H327	H	1.644760	0.116929	0.437111
H328	H	1.018290	-0.800881	-0.189573
H329	H	1.351624	-0.467548	0.143760
H330	H	1.684957	-0.134214	0.477093
F331	F	0.988241	-0.182612	-0.668266
F332	F	1.321575	0.150721	-0.334932
F333	F	1.654908	0.484055	-0.001599
F334	F	1.028271	-0.695003	-0.179553
F335	F	1.361604	-0.361670	0.153780
F336	F	1.694938	-0.028336	0.487113
H337	H	0.978301	-1.052099	-0.229624
H338	H	1.311635	-0.718766	0.103710
H339	H	1.644968	-0.385432	0.437043
H340	H	0.832701	-0.312363	-0.541259
H341	H	1.166035	0.020970	-0.207925
H342	H	1.499368	0.354303	0.125408
F343	F	0.822547	-0.443968	-0.384761
F344	F	1.155880	-0.110634	-0.051428
F345	F	1.489213	0.222699	0.281906
H346	H	0.144537	-0.312424	-0.374839
H347	H	0.477870	0.020910	-0.041505
H348	H	0.811204	0.354243	0.291828
F349	F	0.782587	-0.695167	-0.424835
F350	F	1.115920	-0.361834	-0.091502
F351	F	1.449253	-0.028501	0.241831
F352	F	0.822803	-1.059025	-0.384838
F353	F	1.156136	-0.725691	-0.051504
F354	F	1.489469	-0.392358	0.281829
F355	F	0.822762	-0.946324	-0.384834
F356	F	1.156096	-0.612991	-0.051500
F357	F	1.489429	-0.279657	0.281833
F358	F	0.988252	-0.182660	-0.533195
F359	F	1.321585	0.150673	-0.199862
F360	F	1.654919	0.484007	0.133471
F361	F	0.822693	-0.320575	-1.071781
F362	F	1.156026	0.012758	-0.738447
F363	F	1.489360	0.346092	-0.405114
F364	F	0.675061	-0.320893	-0.384639
F365	F	1.008394	0.012440	-0.051306
F366	F	1.341727	0.345773	0.282027
F367	F	0.988265	-0.182507	-1.071902
F368	F	1.321598	0.150826	-0.738568
F369	F	1.654932	0.484160	-0.405235
H370	H	0.346459	-0.259314	-0.404597
H371	H	0.679792	0.074019	-0.071264
H372	H	1.013126	0.407352	0.262070
F373	F	0.539991	-0.320867	-0.384690
F374	F	0.873324	0.012466	-0.051356
F375	F	1.206657	0.345800	0.281977
H376	H	0.263244	-0.312450	-0.374791
H377	H	0.596577	0.020883	-0.041457
H378	H	0.929911	0.354217	0.291876
F379	F	0.271430	-0.182563	-0.219660
F380	F	0.604763	0.150770	0.113674
F381	F	0.938096	0.484104	0.447007
