data_functionalizedCrystal
_audit_creation_method	'MofGen! by Chris Wilmer'
_symmetry_space_group_name_H-M	'P1'
_symmetry_Int_Tables_number	1
_symmetry_cell_setting	triclinic
loop_
_symmetry_equiv_pos_as_xyz
  x,y,z
_cell_length_a	15.944564
_cell_length_b	10.489741
_cell_length_c	9.565339
_cell_angle_alpha	89.999484
_cell_angle_beta	89.999064
_cell_angle_gamma	84.021554
loop_
_atom_site_label
_atom_site_type_symbol
_atom_site_fract_x
_atom_site_fract_y
_atom_site_fract_z
O1	O	-1.115506	-0.164571	-0.116113
O2	O	-0.871080	-0.184836	-0.116148
O3	O	-0.998855	0.010971	-0.116122
O4	O	-0.987731	-0.360378	-0.116140
O5	O	-0.998845	0.010959	0.116399
O6	O	-0.871070	-0.184848	0.116372
O7	O	-1.115496	-0.164583	0.116407
Zn8	Zn	-0.993282	-0.174717	0.153307
Zn9	Zn	-0.993295	-0.174701	-0.153048
O10	O	-0.987721	-0.360390	0.116380
C11	C	-0.839776	-0.183997	0.000108
C12	C	-0.746515	-0.181467	0.000095
N13	N	-0.993279	-0.174728	0.362386
C14	C	-0.998010	0.058485	0.000138
C15	C	-0.995496	0.200080	0.000135
C16	C	-0.530894	-0.054043	0.000128
C17	C	-0.470235	-0.113197	-0.114520
C18	C	-0.575763	-0.176888	0.000111
C19	C	-0.470247	-0.113238	0.114727
C20	C	-0.410825	-0.172457	0.000134
C21	C	-0.516332	-0.236077	-0.114631
C22	C	-0.516351	-0.236101	0.114719
C23	C	-0.455710	-0.295344	0.000043
C24	C	-0.670780	-0.179438	0.000097
C25	C	-0.315809	-0.169917	0.000138
C26	C	-0.146802	-0.165404	0.000148
C27	C	-0.240066	-0.167883	0.000152
C28	C	-0.988567	-0.407904	0.000118
C29	C	-0.991080	-0.549499	0.000112
C30	C	-0.914197	0.267099	0.000113
C31	C	-0.952597	0.359745	0.114763
C32	C	-0.952626	0.359732	-0.114484
C33	C	-1.033930	0.290861	0.114879
C34	C	-1.033948	0.290839	-0.114470
C35	C	-1.072407	0.383458	0.000208
N36	N	-0.993304	-0.174681	-0.362128
C37	C	-0.934169	-0.265252	0.453577
C38	C	-1.010222	-0.290013	0.546766
C39	C	-0.917259	-0.149976	0.546753
C40	C	-1.069370	-0.199546	0.453523
C41	C	-0.976357	-0.059459	0.453503
C42	C	-1.052464	-0.084171	0.546649
H43	H	-0.563614	0.047905	-0.000009
O44	O	-0.540769	-0.298229	0.230199
C45	C	-0.580800	-0.405906	0.189098
H46	H	-0.559243	-0.436418	0.079356
H47	H	-0.563462	-0.488083	0.265189
H48	H	-0.652063	-0.380288	0.189513
O49	O	-0.911470	0.395956	-0.230080
C50	C	-0.828077	0.336141	-0.229632
H51	H	-0.824590	0.245941	-0.162513
H52	H	-0.808110	0.309255	-0.341129
H53	H	-0.784098	0.404856	-0.184896
H54	H	-0.884228	-0.341875	0.412712
H55	H	-1.133684	-0.220578	0.412743
H56	H	-0.847353	0.216525	0.000219
H57	H	-1.024552	-0.387473	0.587730
O58	O	-0.840591	-0.125080	0.595841
C59	C	-0.841902	-0.124216	0.743224
H60	H	-0.893693	-0.182558	0.782041
H61	H	-0.778325	-0.168094	0.784695
H62	H	-0.854748	-0.021302	0.782115
O63	O	-0.911423	0.396093	0.230282
C64	C	-0.828040	0.336239	0.229886
H65	H	-0.808717	0.308538	0.118319
H66	H	-0.783800	0.405254	0.273186
H67	H	-0.824176	0.246527	0.297832
O68	O	-1.075080	0.254325	-0.229948
C69	C	-1.146347	0.194514	-0.188842
H70	H	-1.166243	0.227525	-0.079100
H71	H	-1.200303	0.221589	-0.264931
H72	H	-1.130125	0.086068	-0.189257
H73	H	-0.962003	0.037969	0.412505
H74	H	-1.102518	-0.007594	0.587258
H75	H	-0.536636	-0.287991	-0.211662
O76	O	-0.445924	-0.051005	-0.230041
C77	C	-0.484579	0.076158	-0.229649
H78	H	-0.502646	0.105752	-0.118083
H79	H	-0.438729	0.142709	-0.272948
H80	H	-0.543615	0.082841	-0.297597
H81	H	-0.423165	-0.397396	-0.000026
O82	O	-0.445877	-0.051058	0.230214
C83	C	-0.404483	0.055272	0.189064
H84	H	-0.425106	0.085526	0.078798
H85	H	-0.421498	0.138185	0.264358
H86	H	-0.333376	0.028088	0.190762
O87	O	-1.075062	0.254739	0.230546
C88	C	-1.158195	0.315565	0.230840
H89	H	-1.177653	0.343790	0.119474
H90	H	-1.202733	0.247031	0.274218
H91	H	-1.161421	0.405055	0.299066
O92	O	-1.152279	0.443313	0.000364
C93	C	-1.210405	0.350811	0.001545
H94	H	-1.178786	0.257068	0.046109
H95	H	-1.266920	0.386346	0.069189
H96	H	-1.232511	0.334221	-0.109704
