data_functionalizedCrystal
_audit_creation_method	'MofGen! by Chris Wilmer'
_symmetry_space_group_name_H-M	'P1'
_symmetry_Int_Tables_number	1
_symmetry_cell_setting	triclinic
loop_
_symmetry_equiv_pos_as_xyz
  x,y,z
_cell_length_a	6.817900
_cell_length_b	19.551136
_cell_length_c	12.908943
_cell_angle_alpha	96.137975
_cell_angle_beta	100.860631
_cell_angle_gamma	101.650842
loop_
_atom_site_label
_atom_site_type_symbol
_atom_site_fract_x
_atom_site_fract_y
_atom_site_fract_z
V1	V	-3.987220	-0.095803	-0.329196
O2	O	-3.984826	0.005501	-0.322396
O3	O	-3.930024	-0.190825	-0.327459
O4	O	-3.925672	-0.093936	-0.472536
O5	O	-3.989209	-0.092058	-0.176314
V6	V	-4.473691	-0.083732	-0.310848
O7	O	-4.242011	-0.122281	-0.369445
O8	O	-4.669097	-0.057255	-0.270599
O9	O	-4.307680	0.011289	-0.312586
O10	O	-4.593482	-0.185037	-0.317649
O11	O	-4.589100	-0.087477	-0.463730
O12	O	-4.312033	-0.085600	-0.167508
C13	C	-3.773311	-0.214001	-0.322398
C14	C	-3.807746	-0.291680	-0.321933
C15	C	-3.793566	-0.318427	-0.225111
C16	C	-3.825996	-0.391413	-0.224641
C17	C	-3.872565	-0.437648	-0.320998
C18	C	-3.886756	-0.410893	-0.417833
C19	C	-3.854346	-0.337909	-0.418301
C20	C	-3.830668	-0.558474	-0.390864
C21	C	-3.863064	-0.631456	-0.390392
C22	C	-3.972538	-0.662756	-0.319561
C23	C	-4.049582	-0.621063	-0.249182
C24	C	-4.017172	-0.548079	-0.249649
C25	C	-3.907713	-0.516788	-0.320502
C26	C	-3.993524	-0.768642	-0.222223
C27	C	-4.025967	-0.841630	-0.221758
C28	C	-4.086708	-0.861109	-0.414952
C29	C	-4.054284	-0.788123	-0.415415
C30	C	-4.007683	-0.741893	-0.319047
C31	C	-3.767758	-0.090409	-0.507457
C32	C	-3.798662	-0.089511	-0.624641
C33	C	-4.219341	-0.094757	-0.855616
C34	C	-4.248387	-0.093913	-0.965721
C35	C	-3.885799	-0.086975	-0.954958
C36	C	-3.856753	-0.087819	-0.844853
C37	C	-4.023533	-0.091711	-0.795186
C38	C	-3.994487	-0.092559	-0.685080
C39	C	-3.631899	-0.085616	-0.674317
C40	C	-3.660945	-0.084772	-0.784423
C41	C	-4.127736	0.034462	-0.317643
C42	C	-4.072538	0.112140	-0.318116
C43	C	-4.133289	-0.089129	-0.132582
C44	C	-4.081624	-0.090024	-0.015397
H45	H	-3.955578	-0.731000	-0.143754
H46	H	-4.065817	-0.766346	-0.494258
Br47	Br	-4.220828	-0.097846	-0.617676
H48	H	-4.407830	-0.096394	-1.014920
Br49	Br	-4.149939	-0.923850	-0.545726
Br50	Br	-4.006757	-0.877931	-0.090345
H51	H	-3.750022	-0.083802	-0.995415
Br52	Br	-3.366146	-0.081490	-0.592301
H53	H	-3.924678	-0.448543	-0.496288
Br54	Br	-3.758432	-0.688028	-0.485875
Br55	Br	-4.198130	-0.663530	-0.153033
Br56	Br	-4.121733	-0.491498	-0.154145
H57	H	-3.755636	-0.280791	-0.146641
H58	H	-4.355144	-0.097934	-0.815179
H59	H	-3.741522	-0.532996	-0.448549
H60	H	-3.814445	-0.413195	-0.145794
H61	H	-3.865902	-0.316134	-0.497147
H62	H	-3.525164	-0.081601	-0.824876
