data_functionalizedCrystal
_audit_creation_method	'MofGen! by Chris Wilmer'
_symmetry_space_group_name_H-M	'P1'
_symmetry_Int_Tables_number	1
_symmetry_cell_setting	triclinic
loop_
_symmetry_equiv_pos_as_xyz
  x,y,z
_cell_length_a	18.101398
_cell_length_b	18.101397
_cell_length_c	16.120256
_cell_angle_alpha	92.870774
_cell_angle_beta	92.872617
_cell_angle_gamma	90.018196
loop_
_atom_site_label
_atom_site_type_symbol
_atom_site_fract_x
_atom_site_fract_y
_atom_site_fract_z
Zn1	Zn	1.110945	-0.316142	-0.471493
Zn2	Zn	1.610945	0.183858	0.028507
Zn3	Zn	1.117141	-0.433702	-0.332075
Zn4	Zn	1.617141	0.066298	0.167925
Zn5	Zn	0.993381	-0.309874	-0.332083
Zn6	Zn	1.493381	0.190126	0.167917
Zn7	Zn	0.987080	-0.439938	-0.471426
Zn8	Zn	1.487080	0.060062	0.028574
O9	O	1.052137	-0.374914	-0.401770
O10	O	1.552137	0.125086	0.098230
O11	O	1.215398	-0.331750	-0.453024
O12	O	1.715398	0.168250	0.046976
O13	O	1.105955	-0.412043	-0.215414
O14	O	1.605955	0.087957	0.284586
O15	O	1.009020	-0.207074	-0.350608
O16	O	1.509020	0.292926	0.149392
O17	O	1.219951	-0.418121	-0.350594
O18	O	1.719951	0.081879	0.149406
O19	O	1.095393	-0.211679	-0.453032
O20	O	1.595393	0.288321	0.046968
O21	O	1.015029	-0.321067	-0.215420
O22	O	1.515029	0.178933	0.284580
O23	O	0.888914	-0.327115	-0.350543
O24	O	1.388914	0.172885	0.149457
O25	O	0.998281	-0.428750	-0.588098
O26	O	1.498281	0.071250	-0.088098
O27	O	0.884284	-0.422672	-0.452917
O28	O	1.384284	0.077328	0.047083
O29	O	1.089284	-0.337797	-0.588147
O30	O	1.589284	0.162203	-0.088147
O31	O	1.099845	-0.538161	-0.350529
O32	O	1.599845	-0.038161	0.149471
O33	O	1.004290	-0.542743	-0.452909
O34	O	1.504290	-0.042743	0.047091
C35	C	0.859728	-0.374890	-0.401724
C36	C	1.359728	0.125110	0.098276
C37	C	0.777414	-0.374899	-0.401725
C38	C	1.277414	0.125101	0.098275
C39	C	1.052075	-0.567323	-0.401729
C40	C	1.552075	-0.067323	0.098271
C41	C	1.052116	-0.649638	-0.401740
C42	C	1.552116	-0.149638	0.098260
C43	C	0.626704	-0.374916	-0.401762
C44	C	1.126704	0.125084	0.098238
C45	C	0.598233	-0.314716	-0.337458
C46	C	1.098233	0.185284	0.162542
C47	C	0.512606	-0.314510	-0.337669
C48	C	1.012606	0.185490	0.162331
C49	C	0.478320	-0.374932	-0.401798
C50	C	0.978320	0.125068	0.098202
C51	C	0.505495	-0.358066	-0.489758
C52	C	1.005495	0.141934	0.010242
C53	C	0.591158	-0.357624	-0.489365
C54	C	1.091158	0.142376	0.010635
C55	C	0.596145	-0.452164	-0.378882
C56	C	1.096145	0.047836	0.121118
C57	C	0.510580	-0.451665	-0.376965
C58	C	1.010580	0.048335	0.123035
C59	C	0.394459	-0.374943	-0.401823
C60	C	0.894459	0.125057	0.098177
C61	C	0.710565	-0.374903	-0.401743
C62	C	1.210565	0.125097	0.098257
C63	C	1.052207	-0.948732	-0.401816
C64	C	1.552207	-0.448732	0.098184
C65	C	1.112176	-0.914485	-0.337228
C66	C	1.612176	-0.414485	0.162772
C67	C	1.112366	-0.828874	-0.337396
C68	C	1.612366	-0.328874	0.162604
C69	C	1.052162	-0.800348	-0.401777
C70	C	1.552162	-0.300348	0.098223
C71	C	1.069360	-0.835318	-0.489655
C72	C	1.569360	-0.335318	0.010345
C73	C	1.069818	-0.920947	-0.489303
C74	C	1.569818	-0.420947	0.010697
C75	C	0.974852	-0.916222	-0.379287
C76	C	1.474852	-0.416222	0.120713
C77	C	0.975328	-0.830484	-0.377325
C78	C	1.475328	-0.330484	0.122675
C79	C	1.052135	-0.716487	-0.401761
C80	C	1.552135	-0.216487	0.098239
C81	C	1.052235	-1.032592	-0.401838
C82	C	1.552235	-0.532592	0.098162
C83	C	1.245297	-0.374939	-0.401816
C84	C	1.745297	0.125061	0.098184
C85	C	1.327610	-0.374949	-0.401835
C86	C	1.827610	0.125051	0.098165
C87	C	1.042388	-0.384668	-0.619217
C88	C	1.542388	0.115332	-0.119217
C89	C	1.038234	-0.388825	-0.711880
C90	C	1.538234	0.111175	-0.211880
C91	C	1.052218	-0.181755	-0.401828
C92	C	1.552218	0.318245	0.098172
C93	C	1.052253	-0.099442	-0.401853
C94	C	1.552253	0.400558	0.098147
C95	C	1.073800	-0.353219	-0.922848
C96	C	1.573800	0.146781	-0.422848
C97	C	1.030624	-0.396383	-0.881532
C98	C	1.530624	0.103617	-0.381532
C99	C	1.034860	-0.392176	-0.787129
C100	C	1.534860	0.107824	-0.287129
C101	C	1.069566	-0.357425	-1.017260
C102	C	1.569566	0.142575	-0.517260
C103	C	1.061890	-0.365145	-0.185168
C104	C	1.561890	0.134855	0.314832
C105	C	1.066188	-0.360780	-0.092505
C106	C	1.566188	0.139220	0.407495
H107	H	0.494487	-0.324567	-0.272459
H108	H	0.994487	0.175433	0.227541
H109	H	0.619095	-0.257716	-0.352454
H110	H	1.119095	0.242284	0.147546
N111	N	0.627717	-0.327129	-0.255385
N112	N	1.127717	0.172871	0.244615
N113	N	0.670061	-0.380485	-0.243324
N114	N	1.170061	0.119515	0.256676
H115	H	0.690888	-0.389255	-0.185358
H116	H	1.190888	0.110745	0.314642
N117	N	1.124173	-0.302915	-0.878289
N118	N	1.624173	0.197085	-0.378289
N119	N	1.192081	-0.308266	-0.887958
N120	N	1.692081	0.191734	-0.387958
H121	H	1.227660	-0.272741	-0.856480
H122	H	1.727660	0.227259	-0.356480
N123	N	0.486072	-0.242608	-0.356738
N124	N	0.986072	0.257392	0.143262
N125	N	0.500187	-0.216055	-0.424293
N126	N	1.000187	0.283945	0.075707
H127	H	0.481450	-0.165270	-0.437764
H128	H	0.981450	0.334730	0.062236
N129	N	0.615141	-0.286948	-0.513633
N130	N	1.115141	0.213052	-0.013633
N131	N	0.568619	-0.238291	-0.530740
N132	N	1.068619	0.261709	-0.030740
H133	H	0.585553	-0.188374	-0.547880
H134	H	1.085553	0.311626	-0.047880
N135	N	1.140596	-0.947037	-0.513239
N136	N	1.640596	-0.447037	-0.013239
N137	N	1.145359	-0.989413	-0.576380
N138	N	1.645359	-0.489413	-0.076380
H139	H	1.195347	-1.007837	-0.593284
H140	H	1.695347	-0.507837	-0.093284
H141	H	1.027836	-0.943917	-0.539085
H142	H	1.527836	-0.443917	-0.039085
N143	N	1.183664	-0.942280	-0.356124
N144	N	1.683664	-0.442280	0.143876
N145	N	1.209183	-0.931289	-0.425088
N146	N	1.709183	-0.431289	0.074912
H147	H	1.259631	-0.950933	-0.438587
H148	H	1.759631	-0.450933	0.061413
H149	H	0.609679	-0.399797	-0.538936
H150	H	1.109679	0.100203	-0.038936
N151	N	0.477205	-0.411595	-0.551545
N152	N	0.977205	0.088405	-0.051545
N153	N	0.493086	-0.407068	-0.625697
N154	N	0.993086	0.092932	-0.125697
H155	H	0.473105	-0.444872	-0.669335
H156	H	0.973105	0.055128	-0.169335
H157	H	0.930220	-0.938607	-0.426328
H158	H	1.430220	-0.438607	0.073672
N159	N	1.099434	-0.798870	-0.255665
N160	N	1.599434	-0.298870	0.244335
N161	N	1.146630	-0.757552	-0.217857
N162	N	1.646630	-0.257552	0.282143
H163	H	1.137490	-0.736358	-0.160135
H164	H	1.637490	-0.236358	0.339865
N165	N	0.980255	-0.446701	-0.926089
N166	N	1.480255	0.053299	-0.426089
N167	N	0.930934	-0.422770	-0.974681
N168	N	1.430934	0.077230	-0.474681
H169	H	0.895362	-0.458307	-1.006152
H170	H	1.395362	0.041693	-0.506152
N171	N	0.477493	-0.288205	-0.514442
N172	N	0.977493	0.211795	-0.014442
N173	N	0.437525	-0.250722	-0.467406
N174	N	0.937525	0.249278	0.032594
H175	H	0.417748	-0.201381	-0.484835
H176	H	0.917748	0.298619	0.015165
N177	N	0.626749	-0.472448	-0.299751
N178	N	1.126749	0.027552	0.200249
N179	N	0.616426	-0.432219	-0.236102
N180	N	1.116426	0.067781	0.263898
H181	H	0.638038	-0.446536	-0.180211
H182	H	1.138038	0.053464	0.319789
H183	H	0.958441	-0.935042	-0.316317
H184	H	1.458441	-0.435042	0.183683
N185	N	0.488690	-0.467718	-0.295762
N186	N	0.988690	0.032282	0.204238
N187	N	0.449476	-0.422851	-0.256278
N188	N	0.949476	0.077149	0.243722
H189	H	0.434007	-0.434187	-0.198930
H190	H	0.934007	0.065813	0.301070
H191	H	1.102043	-0.932181	-0.271873
H192	H	1.602043	-0.432181	0.228127
N193	N	0.958943	-0.801406	-0.296207
N194	N	1.458943	-0.301406	0.203793
N195	N	0.899913	-0.818753	-0.265026
N196	N	1.399913	-0.318753	0.234974
H197	H	0.888340	-0.798211	-0.207736
H198	H	1.388340	-0.298211	0.292264
H199	H	1.026846	-0.817186	-0.539072
H200	H	1.526846	-0.317186	-0.039072
H201	H	1.125129	-0.814688	-0.509060
H202	H	1.625129	-0.314688	-0.009060
N203	N	0.481311	-0.510511	-0.431406
N204	N	0.981311	-0.010511	0.068594
N205	N	0.436001	-0.496792	-0.489658
N206	N	0.936001	0.003208	0.010342
H207	H	0.415329	-0.538350	-0.528114
H208	H	0.915329	-0.038350	-0.028114
N209	N	0.618953	-0.508360	-0.437635
N210	N	1.118953	-0.008360	0.062365
N211	N	0.657543	-0.491692	-0.496127
N212	N	1.157543	0.008308	0.003873
H213	H	0.673655	-0.531375	-0.537625
H214	H	1.173655	-0.031375	-0.037625
H215	H	1.169746	-0.809005	-0.352303
H216	H	1.669746	-0.309005	0.147697
N217	N	0.916666	-0.806115	-0.432019
N218	N	1.416666	-0.306115	0.067981
N219	N	0.930594	-0.765965	-0.490174
N220	N	1.430594	-0.265965	0.009826
H221	H	0.889166	-0.748756	-0.528810
H222	H	1.389166	-0.248756	-0.028810
