data_functionalizedCrystal
_audit_creation_method	'MofGen! by Chris Wilmer'
_symmetry_space_group_name_H-M	'P1'
_symmetry_Int_Tables_number	1
_symmetry_cell_setting	triclinic
loop_
_symmetry_equiv_pos_as_xyz
  x,y,z
_cell_length_a	19.805405
_cell_length_b	19.805407
_cell_length_c	19.805382
_cell_angle_alpha	89.922126
_cell_angle_beta	89.897720
_cell_angle_gamma	90.025657
loop_
_atom_site_label
_atom_site_type_symbol
_atom_site_fract_x
_atom_site_fract_y
_atom_site_fract_z
Zn1	Zn	-0.269005	1.035095	-0.382796
Zn2	Zn	0.230995	1.535095	0.117204
Zn3	Zn	-0.382337	1.034903	-0.269604
Zn4	Zn	0.117663	1.534903	0.230396
Zn5	Zn	-0.269166	0.921803	-0.269611
Zn6	Zn	0.230834	1.421803	0.230389
Zn7	Zn	-0.382156	0.921873	-0.382742
Zn8	Zn	0.117844	1.421873	0.117258
O9	O	-0.325666	0.978418	-0.326189
O10	O	0.174334	1.478418	0.173811
O11	O	-0.284047	1.129786	-0.367801
O12	O	0.215953	1.629786	0.132199
O13	O	-0.367468	1.019791	-0.174888
O14	O	0.132532	1.519791	0.325112
O15	O	-0.174428	0.936882	-0.284651
O16	O	0.325572	1.436882	0.215349
O17	O	-0.367312	1.129645	-0.284639
O18	O	0.132688	1.629645	0.215361
O19	O	-0.174309	1.020117	-0.367808
O20	O	0.325691	1.520117	0.132192
O21	O	-0.284322	0.936697	-0.174894
O22	O	0.215678	1.436697	0.325106
O23	O	-0.284146	0.827096	-0.284599
O24	O	0.215854	1.327096	0.215401
O25	O	-0.367002	0.937001	-0.477466
O26	O	0.132998	1.437001	0.022534
O27	O	-0.367159	0.827147	-0.367716
O28	O	0.132841	1.327147	0.132284
O29	O	-0.283871	1.020185	-0.477506
O30	O	0.216129	1.520185	0.022494
O31	O	-0.477030	1.019859	-0.284587
O32	O	0.022970	1.519859	0.215413
O33	O	-0.476896	0.936815	-0.367709
O34	O	0.023104	1.436815	0.132291
C35	C	-0.325651	0.802562	-0.326153
C36	C	0.174349	1.302562	0.173847
C37	C	-0.325661	0.727330	-0.326153
C38	C	0.174339	1.227330	0.173847
C39	C	-0.368972	0.265584	-0.369443
C40	C	0.131028	0.765584	0.130557
C41	C	-0.368971	0.336272	-0.369429
C42	C	0.131029	0.836272	0.130571
C43	C	-0.325682	0.371569	-0.326215
C44	C	0.174318	0.871569	0.173785
C45	C	-0.282397	0.336173	-0.283008
C46	C	0.217603	0.836173	0.216992
C47	C	-0.282402	0.265486	-0.283020
C48	C	0.217598	0.765486	0.216980
C49	C	-0.282376	0.621246	-0.282961
C50	C	0.217624	1.121246	0.217039
C51	C	-0.282373	0.691938	-0.282954
C52	C	0.217627	1.191938	0.217046
C53	C	-0.368945	0.692032	-0.369370
C54	C	0.131055	1.192032	0.130630
C55	C	-0.368950	0.621345	-0.369381
C56	C	0.131050	1.121345	0.130619
C57	C	-0.325668	0.585956	-0.326172
C58	C	0.174332	1.085956	0.173828
C59	C	-0.325670	0.509308	-0.326187
C60	C	0.174330	1.009308	0.173813
C61	C	-0.325676	0.448216	-0.326203
C62	C	0.174324	0.948216	0.173797
C63	C	-0.501522	0.978342	-0.326156
C64	C	-0.001522	1.478342	0.173844
C65	C	-0.576754	0.978372	-0.326164
C66	C	-0.076754	1.478372	0.173836
C67	C	-0.612145	1.021654	-0.282928
C68	C	-0.112145	1.521654	0.217072
C69	C	-0.682833	1.021683	-0.282943
C70	C	-0.182833	1.521683	0.217057
C71	C	-0.718130	0.978425	-0.326191
C72	C	-0.218130	1.478425	0.173809
C73	C	-0.682733	0.935141	-0.369433
C74	C	-0.182733	1.435141	0.130567
C75	C	-0.612046	0.935116	-0.369420
C76	C	-0.112046	1.435116	0.130580
C77	C	-0.967807	0.935240	-0.369483
C78	C	-0.467807	1.435240	0.130517
C79	C	-1.038499	0.935267	-0.369490
C80	C	-0.538499	1.435267	0.130510
C81	C	-1.038594	1.021808	-0.283005
C82	C	-0.538594	1.521808	0.216995
C83	C	-0.967907	1.021783	-0.282993
C84	C	-0.467907	1.521783	0.217007
C85	C	-0.932517	0.978501	-0.326237
C86	C	-0.432517	1.478501	0.173763
C87	C	-0.855868	0.978471	-0.326221
C88	C	-0.355868	1.478471	0.173779
C89	C	-0.794777	0.978451	-0.326204
C90	C	-0.294777	1.478451	0.173796
C91	C	-0.149123	0.978513	-0.326236
C92	C	0.350877	1.478513	0.173764
C93	C	-0.073891	0.978554	-0.326257
C94	C	0.426109	1.478554	0.173743
C95	C	-0.325398	0.978622	-0.502732
C96	C	0.174602	1.478622	-0.002732
C97	C	-0.325284	0.978709	-0.577964
C98	C	0.174716	1.478709	-0.077964
C99	C	-0.325682	1.154961	-0.326225
C100	C	0.174318	1.654961	0.173775
C101	C	-0.325688	1.230193	-0.326241
C102	C	0.174312	1.730193	0.173759
C103	C	-0.325884	0.978255	-0.150332
C104	C	0.174116	1.478255	0.349668
C105	C	-0.325807	0.978299	-0.075100
C106	C	0.174193	1.478299	0.424900
C107	C	-0.281728	1.021674	0.386477
C108	C	0.218272	1.521674	0.886477
C109	C	-0.281799	1.021614	0.315789
C110	C	0.218201	1.521614	0.815789
C111	C	-0.325431	0.978591	0.280661
C112	C	0.174569	1.478591	0.780661
C113	C	-0.368990	0.935621	0.316224
C114	C	0.131010	1.435621	0.816224
C115	C	-0.368914	0.935678	0.386911
C116	C	0.131086	1.435678	0.886911
C117	C	-0.369294	0.935388	0.031152
C118	C	0.130706	1.435388	0.531152
C119	C	-0.369367	0.935336	-0.039540
C120	C	0.130633	1.435336	0.460460
C121	C	-0.282179	1.021325	-0.039970
C122	C	0.217821	1.521325	0.460030
C123	C	-0.282104	1.021382	0.030716
C124	C	0.217896	1.521382	0.530716
C125	C	-0.325659	0.978409	0.066274
C126	C	0.174341	1.478409	0.566274
C127	C	-0.325580	0.978474	0.142922
C128	C	0.174420	1.478474	0.642922
C129	C	-0.325514	0.978529	0.204014
C130	C	0.174486	1.478529	0.704014
H131	H	-0.404190	0.720855	-0.404551
H132	H	0.095810	1.220855	0.095449
H133	H	-0.404899	0.900299	-0.068140
H134	H	0.095101	1.400299	0.431860
O135	O	-0.239619	1.063101	0.064804
O136	O	0.260381	1.563101	0.564804
C137	C	-0.124226	1.095217	0.085990
C138	C	0.375774	1.595217	0.585990
C139	C	-0.172269	1.047919	0.047360
C140	C	0.327731	1.547919	0.547360
H141	H	-0.069764	1.082969	0.071890
H142	H	0.430236	1.582969	0.571890
H143	H	-0.131590	1.087878	0.142629
H144	H	0.368410	1.587878	0.642629
H145	H	-0.135767	1.149858	0.072013
H146	H	0.364233	1.649858	0.572013
H147	H	-0.160758	0.993260	0.061280
H148	H	0.339242	1.493260	0.561280
H149	H	-0.164896	1.055316	-0.009270
H150	H	0.335104	1.555316	0.490730
H151	H	-0.404769	0.900407	0.060094
H152	H	0.095231	1.400407	0.560094
H153	H	-0.404513	0.900588	0.287617
H154	H	0.095487	1.400588	0.787617
H155	H	-0.404375	0.900683	0.415862
H156	H	0.095625	1.400683	0.915862
H157	H	-0.938998	0.899998	-0.404692
H158	H	-0.438998	1.399998	0.095308
H159	H	-0.711646	1.056927	-0.247735
H160	H	-0.211646	1.556927	0.252265
O161	O	-0.716943	0.893026	-0.411413
O162	O	-0.216943	1.393026	0.088587
C163	C	-0.738626	0.777910	-0.444131
C164	C	-0.238626	1.277910	0.055869
C165	C	-0.699834	0.825531	-0.396557
C166	C	-0.199834	1.325531	0.103443
H167	H	-0.724818	0.723329	-0.432128
H168	H	-0.224818	1.223329	0.067872
H169	H	-0.724598	0.789756	-0.498729
H170	H	-0.224598	1.289756	0.001271
H171	H	-0.795224	0.785394	-0.436725
H172	H	-0.295224	1.285394	0.063275
H173	H	-0.643226	0.818073	-0.403903
H174	H	-0.143226	1.318073	0.096097
H175	H	-0.713917	0.813673	-0.341977
H176	H	-0.213917	1.313673	0.158023
O177	O	-0.410969	0.587134	-0.411452
O178	O	0.089031	1.087134	0.088548
C179	C	-0.443808	0.565633	-0.526529
C180	C	0.056192	1.065633	-0.026529
C181	C	-0.396187	0.604430	-0.478962
C182	C	0.103813	1.104430	0.021038
H183	H	-0.431865	0.579592	-0.581121
H184	H	0.068135	1.079592	-0.081121
H185	H	-0.498395	0.579506	-0.514595
H186	H	0.001605	1.079506	-0.014595
H187	H	-0.436388	0.509035	-0.519081
H188	H	0.063612	1.009035	-0.019081
H189	H	-0.403547	0.661037	-0.486383
H190	H	0.096453	1.161037	0.013617
H191	H	-0.341618	0.590501	-0.490907
H192	H	0.158382	1.090501	0.009093
H193	H	-1.067417	1.057052	-0.247797
H194	H	-0.567417	1.557052	0.252203
O195	O	-0.411084	0.231404	-0.411446
O196	O	0.088916	0.731404	0.088554
C197	C	-0.496921	0.238967	-0.497194
C198	C	0.003079	0.738967	0.002806
C199	C	-0.449275	0.277756	-0.449647
C200	C	0.050725	0.777756	0.050353
H201	H	-0.527801	0.276425	-0.528102
H202	H	-0.027801	0.776425	-0.028102
H203	H	-0.532361	0.205828	-0.466097
H204	H	-0.032361	0.705828	0.033903
H205	H	-0.465835	0.205922	-0.532618
H206	H	0.034165	0.705922	-0.032618
H207	H	-0.480306	0.310837	-0.414214
H208	H	0.019694	0.810837	0.085786
H209	H	-0.413833	0.310852	-0.480786
H210	H	0.086167	0.810852	0.019214
O211	O	-0.240303	0.726122	-0.240905
O212	O	0.259697	1.226122	0.259095
C213	C	-0.154414	0.718574	-0.155208
C214	C	0.345586	1.218574	0.344792
C215	C	-0.202030	0.679777	-0.202779
C216	C	0.297970	1.179777	0.297221
H217	H	-0.123448	0.681120	-0.124381
H218	H	0.376552	1.181120	0.375619
H219	H	-0.185459	0.751584	-0.119716
H220	H	0.314541	1.251584	0.380284
H221	H	-0.119047	0.751746	-0.186350
H222	H	0.380953	1.251746	0.313650
H223	H	-0.237406	0.646568	-0.171691
H224	H	0.262594	1.146568	0.328309
H225	H	-0.170942	0.646809	-0.238273
H226	H	0.329058	1.146809	0.261727
O227	O	-0.240443	0.586863	-0.240889
O228	O	0.259557	1.086863	0.259111
C229	C	-0.231393	0.506955	-0.149499
C230	C	0.268607	1.006955	0.350501
C231	C	-0.278951	0.545855	-0.197116
C232	C	0.221049	1.045855	0.302884
H233	H	-0.262507	0.473779	-0.114107
H234	H	0.237493	0.973779	0.385893
H235	H	-0.200487	0.544317	-0.118568
H236	H	0.299513	1.044317	0.381432
H237	H	-0.195967	0.473933	-0.180611
H238	H	0.304033	0.973933	0.319389
H239	H	-0.314417	0.578878	-0.166056
H240	H	0.185583	1.078878	0.333944
H241	H	-0.309809	0.508456	-0.228050
H242	H	0.190191	1.008456	0.271950
H243	H	-0.404219	0.365084	-0.404606
H244	H	0.095781	0.865084	0.095394
O245	O	-0.240421	0.370430	-0.240931
O246	O	0.259579	0.870430	0.259069
C247	C	-0.207543	0.391870	-0.125854
C248	C	0.292457	0.891870	0.374146
C249	C	-0.255133	0.353045	-0.173429
C250	C	0.244867	0.853045	0.326571
H251	H	-0.219411	0.377817	-0.071269
H252	H	0.280589	0.877817	0.428731
H253	H	-0.214978	0.448478	-0.133209
H254	H	0.285022	0.948478	0.366791
H255	H	-0.152970	0.378020	-0.137872
H256	H	0.347030	0.878020	0.362128
H257	H	-0.309724	0.366838	-0.161440
H258	H	0.190276	0.866838	0.338560
H259	H	-0.247639	0.296445	-0.166064
H260	H	0.252361	0.796445	0.333936
H261	H	-0.939171	1.057005	-0.247774
H262	H	-0.439171	1.557005	0.252226
O263	O	-0.239411	1.063252	0.281223
O264	O	0.260589	1.563252	0.781223
C265	C	-0.148060	1.071673	0.201125
C266	C	0.351940	1.571673	0.701125
C267	C	-0.196020	1.024443	0.240237
C268	C	0.303980	1.524443	0.740237
H269	H	-0.112976	1.040316	0.167968
H270	H	0.387024	1.540316	0.667968
H271	H	-0.116817	1.102418	0.238349
H272	H	0.383183	1.602418	0.738349
H273	H	-0.178919	1.107263	0.168065
H274	H	0.321081	1.607263	0.668065
H275	H	-0.165213	0.988812	0.273297
H276	H	0.334787	1.488812	0.773297
H277	H	-0.227265	0.993746	0.202976
H278	H	0.272735	1.493746	0.702976
H279	H	-1.067235	0.900042	-0.404713
H280	H	-0.567235	1.400042	0.095287
O281	O	-0.240452	0.231076	-0.240980
O282	O	0.259548	0.731076	0.259020
C283	C	-0.231355	0.151106	-0.149650
C284	C	0.268645	0.651106	0.350350
C285	C	-0.278938	0.190043	-0.197211
C286	C	0.221062	0.690043	0.302789
H287	H	-0.262451	0.117911	-0.114260
H288	H	0.237549	0.617911	0.385740
H289	H	-0.200426	0.188445	-0.118712
H290	H	0.299574	0.688445	0.381288
H291	H	-0.195952	0.118101	-0.180805
H292	H	0.304048	0.618101	0.319195
H293	H	-0.314381	0.223050	-0.166108
H294	H	0.185619	0.723050	0.333892
H295	H	-0.309819	0.152668	-0.228150
H296	H	0.190181	0.652668	0.271850
O297	O	-0.577966	1.063738	-0.240893
O298	O	-0.077966	1.563738	0.259107
C299	C	-0.585530	1.149550	-0.155081
C300	C	-0.085530	1.649550	0.344919
C301	C	-0.624318	1.101935	-0.202663
C302	C	-0.124318	1.601935	0.297337
H303	H	-0.622988	1.180435	-0.124149
H304	H	-0.122988	1.680435	0.375851
H305	H	-0.552364	1.184987	-0.186152
H306	H	-0.052364	1.684987	0.313848
H307	H	-0.552513	1.118440	-0.119680
H308	H	-0.052513	1.618440	0.380320
H309	H	-0.657372	1.132991	-0.238072
H310	H	-0.157372	1.632991	0.261928
H311	H	-0.657441	1.066496	-0.171550
H312	H	-0.157441	1.566496	0.328450
H313	H	-0.583232	0.899872	-0.404629
H314	H	-0.083232	1.399872	0.095371
H315	H	-0.246200	1.056711	0.415074
H316	H	0.253800	1.556711	0.915074
H317	H	-0.246712	1.056314	-0.068930
H318	H	0.253288	1.556314	0.431070
