data_functionalizedCrystal
_audit_creation_method	'MofGen! by Chris Wilmer'
_symmetry_space_group_name_H-M	'P1'
_symmetry_Int_Tables_number	1
_symmetry_cell_setting	triclinic
loop_
_symmetry_equiv_pos_as_xyz
  x,y,z
_cell_length_a	17.699103
_cell_length_b	16.992694
_cell_length_c	16.176319
_cell_angle_alpha	90.001613
_cell_angle_beta	90.011765
_cell_angle_gamma	86.979642
loop_
_atom_site_label
_atom_site_type_symbol
_atom_site_fract_x
_atom_site_fract_y
_atom_site_fract_z
O1	O	0.160469	1.040100	0.068658
O2	O	0.660469	1.540100	0.568658
O3	O	0.158708	0.811818	0.068683
O4	O	0.658708	1.311818	0.568683
O5	O	0.049801	0.932401	0.068654
O6	O	0.549801	1.432401	0.568654
O7	O	0.269376	0.919518	0.068687
O8	O	0.769376	1.419518	0.568687
O9	O	0.049793	0.932384	-0.068839
O10	O	0.549793	1.432384	0.431161
O11	O	0.158700	0.811802	-0.068811
O12	O	0.658700	1.311802	0.431189
O13	O	0.160460	1.040084	-0.068835
O14	O	0.660460	1.540084	0.431165
Cu15	Cu	0.159579	0.925941	-0.081377
Cu16	Cu	0.659579	1.425941	0.418623
Cu17	Cu	0.159589	0.925961	0.081225
Cu18	Cu	0.659589	1.425961	0.581225
O19	O	0.269367	0.919501	-0.068806
O20	O	0.769367	1.419501	0.431194
C21	C	0.156439	0.782602	-0.000061
C22	C	0.656439	1.282602	0.499939
C23	C	0.149682	0.695570	-0.000053
C24	C	0.649682	1.195570	0.499947
C25	C	0.021572	0.931928	-0.000095
C26	C	0.521572	1.431928	0.499905
C27	C	-0.062532	0.930536	-0.000102
C28	C	0.437468	1.430536	0.499898
C29	C	0.214880	0.645210	-0.000043
C30	C	0.714880	1.145210	0.499957
C31	C	0.208526	0.563435	-0.000056
C32	C	0.708526	1.063435	0.499944
C33	C	0.136974	0.532022	-0.000071
C34	C	0.636974	1.032022	0.499929
C35	C	0.071772	0.582388	-0.000083
C36	C	0.571772	1.082388	0.499917
C37	C	0.078126	0.664161	-0.000077
C38	C	0.578126	1.164161	0.499923
C39	C	0.110638	0.288472	-0.000098
C40	C	0.610638	0.788472	0.499902
C41	C	0.104289	0.206692	-0.000101
C42	C	0.604289	0.706692	0.499899
C43	C	0.241044	0.187745	-0.000076
C44	C	0.741044	0.687745	0.499924
C45	C	0.247392	0.269521	-0.000064
C46	C	0.747392	0.769521	0.499936
C47	C	0.182189	0.319880	-0.000080
C48	C	0.682189	0.819880	0.499920
N49	N	0.130478	0.448435	-0.000081
N50	N	0.630478	0.948435	0.499919
N51	N	0.188686	0.403465	-0.000076
N52	N	0.688686	0.903465	0.499924
C53	C	-0.578770	0.922025	0.074901
C54	C	-0.078770	1.422025	0.574901
C55	C	-0.499745	0.923333	0.074893
C56	C	0.000255	1.423333	0.574893
C57	C	-0.460251	0.923976	-0.000059
C58	C	0.039749	1.423976	0.499941
C59	C	-0.499786	0.923320	-0.075009
C60	C	0.000214	1.423320	0.424991
C61	C	-0.578809	0.922018	-0.075001
C62	C	-0.078809	1.422018	0.424999
C63	C	-0.181092	0.928571	-0.075044
C64	C	0.318908	1.428571	0.424956
C65	C	-0.102063	0.929871	-0.075047
C66	C	0.397937	1.429871	0.424953
C67	C	-0.102028	0.929887	0.074850
C68	C	0.397972	1.429887	0.574850
C69	C	-0.181052	0.928585	0.074858
C70	C	0.318948	1.428585	0.574858
C71	C	-0.220580	0.927933	-0.000091
C72	C	0.279420	1.427933	0.499909
C73	C	-0.306268	0.926516	-0.000082
C74	C	0.193732	1.426516	0.499918
C75	C	-0.374564	0.925387	-0.000069
C76	C	0.125436	1.425387	0.499931
C77	C	0.297597	0.919974	-0.000056
C78	C	0.797597	1.419974	0.499944
C79	C	0.381701	0.921367	-0.000043
C80	C	0.881701	1.421367	0.499957
C81	C	0.162729	1.069301	-0.000089
C82	C	0.662729	1.569301	0.499911
C83	C	0.169486	1.156332	-0.000092
C84	C	0.669486	1.656332	0.499908
N85	N	0.159572	0.925933	-0.195742
N86	N	0.659572	1.425933	0.304258
C87	C	0.111370	0.979343	-0.239019
C88	C	0.611370	1.479343	0.260981
C89	C	0.111370	0.979347	-0.325566
C90	C	0.611370	1.479347	0.174434
C91	C	0.159575	0.925944	-0.368835
C92	C	0.659575	1.425944	0.131165
C93	C	0.207780	0.872529	-0.325552
C94	C	0.707780	1.372529	0.174448
C95	C	0.207776	0.872522	-0.239006
C96	C	0.707776	1.372522	0.260994
C97	C	0.207795	0.872556	-0.674580
C98	C	0.707795	1.372556	-0.174580
C99	C	0.207797	0.872568	-0.761132
C100	C	0.707797	1.372568	-0.261132
C101	C	0.111389	0.979381	-0.761140
C102	C	0.611389	1.479381	-0.261140
C103	C	0.111386	0.979374	-0.674594
C104	C	0.611386	1.479374	-0.174594
C105	C	0.159586	0.925956	-0.631319
C106	C	0.659586	1.425956	-0.131319
C107	C	0.159585	0.925951	-0.537475
C108	C	0.659585	1.425951	-0.037475
C109	C	0.159581	0.925952	-0.462677
C110	C	0.659581	1.425952	0.037323
N111	N	0.159591	0.925975	0.195590
N112	N	0.659591	1.425975	0.695590
H113	H	0.273144	0.670780	-0.000030
H114	H	0.773144	1.170780	0.499970
H115	H	0.247026	0.829029	-0.203771
H116	H	0.747026	1.329029	0.296229
H117	H	-0.610920	0.921494	0.135936
H118	H	-0.110920	1.421494	0.635936
N119	N	0.278847	0.509120	-0.000034
N120	N	0.778847	1.009120	0.499966
H121	H	0.263967	0.452550	-0.000043
H122	H	0.763967	0.952550	0.499957
H123	H	0.309820	0.519278	-0.050994
H124	H	0.809820	1.019278	0.449006
N125	N	0.059399	1.036996	-0.807818
N126	N	0.559399	1.536996	-0.307818
H127	H	0.024058	1.007110	-0.843738
H128	H	0.524058	1.507110	-0.343738
H129	H	0.028916	1.070814	-0.767221
H130	H	0.528916	1.570814	-0.267221
N131	N	0.027116	0.172800	-0.000134
N132	N	0.527116	0.672800	0.499866
H133	H	0.021431	0.139293	0.050831
H134	H	0.521431	0.639293	0.550831
H135	H	-0.013184	0.217148	-0.000180
H136	H	0.486816	0.717148	0.499820
H137	H	0.247044	0.829062	-0.639352
H138	H	0.747044	1.329062	-0.139352
H139	H	0.072135	1.022862	-0.639368
H140	H	0.572135	1.522862	-0.139368
H141	H	0.057546	0.329465	-0.000111
H142	H	0.557546	0.829465	0.499889
N143	N	0.007803	0.718476	-0.000084
N144	N	0.507803	1.218476	0.499916
H145	H	0.007391	0.752827	0.050885
H146	H	0.507391	1.252827	0.550885
H147	H	0.007430	0.752774	-0.051087
H148	H	0.507430	1.252774	0.448913
N149	N	-0.457109	0.924046	0.155726
N150	N	0.042891	1.424046	0.655726
H151	H	-0.494119	0.923437	0.203209
H152	H	0.005881	1.423437	0.703209
H153	H	-0.421126	0.876005	0.158991
H154	H	0.078874	1.376005	0.658991
H155	H	-0.213204	0.928057	0.135893
H156	H	0.286796	1.428057	0.635893
N157	N	-0.059419	0.930589	0.155708
N158	N	0.440581	1.430589	0.655708
H159	H	-0.069989	0.881777	0.188461
H160	H	0.430011	1.381777	0.688461
H161	H	-0.003376	0.931540	0.144296
H162	H	0.496624	1.431540	0.644296
H163	H	-0.069908	0.930391	-0.136086
H164	H	0.430092	1.430391	0.363914
N165	N	0.259769	0.814923	-0.372215
N166	N	0.759769	1.314923	0.127785
H167	H	0.252459	0.823032	-0.433609
H168	H	0.752459	1.323032	0.066391
H169	H	0.314008	0.823874	-0.357070
H170	H	0.814008	1.323874	0.142930
H171	H	0.013513	0.556805	-0.000108
H172	H	0.513513	1.056805	0.499892
N173	N	0.324565	0.303401	-0.000032
N174	N	0.824565	0.803401	0.499968
H175	H	0.364905	0.259089	-0.000024
H176	H	0.864905	0.759089	0.499976
H177	H	0.330187	0.336923	-0.050994
H178	H	0.830187	0.836923	0.449006
H179	H	-0.213267	0.928041	-0.136073
H180	H	0.286733	1.428041	0.363927
H181	H	0.294127	0.146734	-0.000064
H182	H	0.794127	0.646734	0.499936
H183	H	0.247053	0.829078	-0.796360
H184	H	0.747053	1.329078	-0.296360
H185	H	-0.610993	0.921481	-0.136028
H186	H	-0.110993	1.421481	0.363972
H187	H	-0.467623	0.923848	-0.136037
H188	H	0.032377	1.423848	0.363963
N189	N	0.059381	1.036947	-0.192354
N190	N	0.559381	1.536947	0.307646
H191	H	0.028845	1.070781	-0.232905
H192	H	0.528845	1.570781	0.267095
H193	H	0.024090	1.006995	-0.156458
H194	H	0.524090	1.506995	0.343542
N195	N	0.059408	1.036980	-0.372244
N196	N	0.559408	1.536980	0.127756
H197	H	0.028883	1.070822	-0.331701
H198	H	0.528883	1.570822	0.168299
H199	H	0.090529	1.071571	-0.408124
H200	H	0.590529	1.571571	0.091876
