data_functionalizedCrystal
_audit_creation_method	'MofGen! by Chris Wilmer'
_symmetry_space_group_name_H-M	'P1'
_symmetry_Int_Tables_number	1
_symmetry_cell_setting	triclinic
loop_
_symmetry_equiv_pos_as_xyz
  x,y,z
_cell_length_a	10.654550
_cell_length_b	12.837942
_cell_length_c	9.130313
_cell_angle_alpha	89.998975
_cell_angle_beta	89.996220
_cell_angle_gamma	89.656921
loop_
_atom_site_label
_atom_site_type_symbol
_atom_site_fract_x
_atom_site_fract_y
_atom_site_fract_z
O1	O	1.683735	0.145718	-0.121920
O2	O	1.319772	0.159602	-0.121897
O3	O	1.493683	0.001699	-0.121899
O4	O	1.509824	0.303621	-0.121918
O5	O	1.493681	0.001703	0.121700
O6	O	1.319770	0.159606	0.121702
O7	O	1.683734	0.145722	0.121679
Cu8	Cu	1.501752	0.152665	0.143933
Cu9	Cu	1.501754	0.152660	-0.144151
O10	O	1.509822	0.303625	0.121681
C11	C	1.272862	0.158585	-0.000094
C12	C	1.133086	0.155535	-0.000085
C13	C	1.063745	0.248505	-0.000112
C14	C	0.932411	0.245633	-0.000138
C15	C	0.939770	0.056812	-0.000114
C16	C	1.071101	0.059685	-0.000079
C17	C	1.059496	0.357520	-0.000132
C18	C	0.928162	0.354648	-0.000157
C19	C	1.488230	-0.036959	-0.000100
C20	C	1.471967	-0.152153	-0.000101
C21	C	1.667472	-0.391705	-0.000145
C22	C	1.652197	-0.499941	-0.000146
C23	C	1.426146	-0.476862	-0.000116
C24	C	1.441420	-0.368626	-0.000115
C25	C	1.562087	-0.326052	-0.000127
C26	C	1.577360	-0.217814	-0.000115
C27	C	1.351309	-0.194737	-0.000096
C28	C	1.336035	-0.302973	-0.000097
C29	C	1.730644	0.146740	-0.000127
C30	C	1.870420	0.149790	-0.000146
C31	C	1.515276	0.342283	-0.000121
C32	C	1.531538	0.457477	-0.000130
N33	N	1.501759	0.152668	0.346555
N34	N	1.501755	0.152648	-0.346774
C35	C	1.578792	0.082772	0.423206
C36	C	1.578787	0.082760	0.576543
C37	C	1.424714	0.222547	0.576565
C38	C	1.424713	0.222554	0.423230
C39	C	1.667748	0.002070	0.423195
C40	C	1.667744	0.002058	0.576532
H41	H	1.098940	0.392230	-0.105306
H42	H	1.127554	-0.016021	-0.000036
H43	H	1.637603	-0.077675	0.381582
Br44	Br	0.855640	-0.073263	-0.000101
H45	H	1.093479	0.400157	0.101817
Br46	Br	1.824312	0.044205	0.343900
H47	H	1.327904	-0.511545	-0.000122
Br48	Br	0.858017	0.409560	0.175118
H49	H	1.629007	-0.073301	0.624086
H50	H	1.766195	0.019834	0.618141
Br51	Br	1.320144	0.317395	0.319200
H52	H	1.675613	-0.183153	-0.000119
H53	H	0.890912	0.395721	-0.102113
H54	H	1.765723	-0.357041	-0.000140
H55	H	1.738013	-0.553393	-0.000165
H56	H	1.237791	-0.337651	-0.000093
Br57	Br	1.208278	-0.105630	-0.000045
H58	H	1.361985	0.279446	0.639010
