data_functionalizedCrystal
_audit_creation_method	'MofGen! by Chris Wilmer'
_symmetry_space_group_name_H-M	'P1'
_symmetry_Int_Tables_number	1
_symmetry_cell_setting	triclinic
loop_
_symmetry_equiv_pos_as_xyz
  x,y,z
_cell_length_a	19.902436
_cell_length_b	14.446369
_cell_length_c	14.446369
_cell_angle_alpha	60.000250
_cell_angle_beta	90.002769
_cell_angle_gamma	59.998044
loop_
_atom_site_label
_atom_site_type_symbol
_atom_site_fract_x
_atom_site_fract_y
_atom_site_fract_z
Zr1	Zr	0.647327	1.013130	-0.121447
O2	O	0.540036	1.206258	-0.269270
O3	O	0.680217	0.820008	-0.076126
O4	O	0.680218	1.013117	-0.269245
O5	O	0.540035	1.013158	0.076178
O6	O	0.790797	1.013099	-0.269233
O7	O	0.540035	1.013150	-0.076150
O8	O	0.790794	0.667663	0.076222
O9	O	0.540037	1.358594	-0.269277
O10	O	0.776768	0.899426	-0.056795
O11	O	0.694245	0.899446	0.056877
O12	O	0.694246	1.126806	-0.170496
O13	O	0.611723	1.126826	-0.056824
Zr14	Zr	0.823687	1.013115	0.121519
Zr15	Zr	0.823688	1.013101	-0.121428
Zr16	Zr	0.647327	1.013143	0.121499
Zr17	Zr	0.647329	1.256088	-0.121459
Zr18	Zr	0.823686	0.770157	0.121530
O19	O	0.790798	1.206237	0.076198
O20	O	0.790798	1.206218	-0.269242
O21	O	0.540036	1.206277	0.076169
O22	O	0.930978	0.819986	0.269341
O23	O	0.930979	0.819967	-0.076098
O24	O	0.680216	0.820027	0.269313
O25	O	0.930980	1.013086	-0.076107
O26	O	0.790796	1.013128	0.269317
O27	O	0.680218	1.013146	0.269304
O28	O	0.930980	1.013095	0.076222
O29	O	0.680220	1.358571	-0.269261
O30	O	0.790794	0.667673	0.269333
O31	O	0.930977	0.667650	0.269348
O32	O	0.930977	0.667640	0.076238
O33	O	0.540037	1.358605	-0.076166
O34	O	0.680220	1.358582	-0.076151
O35	O	0.776768	0.899439	0.170568
O36	O	0.859292	0.899419	0.056896
O37	O	0.776770	1.126799	-0.056805
O38	O	0.694246	1.126819	0.056867
C39	C	0.735505	0.709219	0.000050
C40	C	0.735505	0.606077	0.000054
C41	C	0.683706	0.459080	0.072076
C42	C	0.683425	0.566700	0.071785
C43	C	0.697536	0.655072	-0.123485
C44	C	0.697147	0.547840	-0.123111
C45	C	0.825308	0.372607	0.050509
C46	C	0.825176	0.478758	0.053030
C47	C	0.514907	1.013158	0.000011
C48	C	0.440038	1.013170	0.000003
C49	C	0.168036	1.013106	0.000047
C50	C	0.144470	1.156542	-0.071334
C51	C	0.222308	1.156632	-0.071731
C52	C	0.302979	1.013139	0.000025
C53	C	0.300567	0.941901	-0.052267
C54	C	0.222340	0.942818	-0.052795
C55	C	0.223327	0.939881	0.123752
C56	C	0.300248	0.942577	0.123562
C57	C	0.379246	1.013150	0.000013
C58	C	0.091771	1.013091	0.000054
C59	C	0.956107	1.013086	0.000061
C60	C	1.030977	1.013074	0.000069
C61	C	0.735508	1.013106	-0.303854
C62	C	0.735508	1.013100	-0.406991
C63	C	0.735509	1.317026	0.000022
C64	C	0.735510	1.420168	0.000017
C65	C	0.787814	0.869706	-0.481961
C66	C	0.787587	0.869610	-0.374632
C67	C	0.645840	1.084342	-0.481564
C68	C	0.646127	1.083432	-0.588423
C69	C	0.772145	1.086365	-0.589982
C70	C	0.773960	1.083662	-0.481310
C71	C	0.735507	1.013139	0.303925
C72	C	0.735507	1.013145	0.407062
C73	C	0.956105	0.709183	0.000074
C74	C	1.030974	0.606029	0.000088
C75	C	0.735505	0.709236	0.303939
C76	C	0.735504	0.606099	0.407081
C77	C	0.956105	0.709200	0.303964
C78	C	1.030974	0.606051	0.407114
C79	C	0.514910	1.317045	-0.303892
C80	C	0.440041	1.420193	-0.407043
C81	C	0.514909	1.317061	-0.000003
C82	C	0.440040	1.420216	-0.000016
C83	C	0.735510	1.317009	-0.303868
C84	C	0.735510	1.420145	-0.407010
C85	C	1.023057	0.557590	-0.059262
C86	C	1.093398	0.460680	-0.059272
C87	C	1.171655	0.412202	0.000074
C88	C	1.179570	0.460651	0.059425
C89	C	1.109230	0.557566	0.059428
C90	C	1.109217	0.557601	0.396219
C91	C	1.179571	0.460696	0.493131
C92	C	1.171680	0.412236	0.600936
C93	C	1.093429	0.460695	0.611829
C94	C	1.023076	0.557605	0.514919
C95	C	0.361798	1.468655	-0.396148
C96	C	0.291444	1.565591	-0.493059
C97	C	0.299335	1.614056	-0.600864
C98	C	0.377586	1.565590	-0.611757
C99	C	0.447938	1.468663	-0.514847
C100	C	0.447958	1.468664	0.059323
C101	C	0.377617	1.565602	0.059307
C102	C	0.299360	1.614083	-0.000043
C103	C	0.291444	1.565630	-0.059389
C104	C	0.361784	1.468701	-0.059379
C105	C	0.683204	0.459793	0.482065
C106	C	0.683426	0.566714	0.374731
C107	C	0.825174	0.479232	0.481651
C108	C	0.824892	0.371857	0.588514
C109	C	0.698875	0.546850	0.590078
C110	C	0.697055	0.655320	0.481402
H111	H	0.857030	0.278861	0.140079
N112	N	1.247518	0.307674	0.000064
H113	H	1.230620	0.284349	-0.046541
H114	H	1.281347	0.227317	0.080468
H115	H	1.243297	0.421166	0.107742
H116	H	0.762634	0.813697	-0.480927
N117	N	0.717159	0.518087	0.192280
H118	H	0.732346	0.426393	0.246064
H119	H	0.674022	0.577893	0.209573
N120	N	0.717256	0.341373	0.192879
H121	H	0.766359	0.261677	0.202072
H122	H	0.673227	0.326268	0.211417
N123	N	0.938684	0.609851	0.526669
H124	H	0.932092	0.650058	0.569479
H125	H	0.932163	0.535839	0.569456
H126	H	0.227735	1.605035	-0.484168
H127	H	0.732442	0.525862	-0.179717
N128	N	1.117776	0.609801	0.123449
H129	H	1.178026	0.564376	0.161042
H130	H	1.090474	0.592930	0.183114
H131	H	1.115658	0.597044	0.308447
N132	N	0.742276	0.697871	0.515212
H133	H	0.739082	0.771583	0.444924
H134	H	0.801805	0.621496	0.560549
N135	N	0.386175	1.617850	0.123312
H136	H	0.358927	1.715127	0.068874
H137	H	0.446442	1.572319	0.160902
H138	H	0.865838	0.501474	0.508885
H139	H	0.736793	0.522057	0.668298
N140	N	0.386094	1.617861	-0.728034
H141	H	0.358825	1.715146	-0.770890
H142	H	0.358827	1.600910	-0.770786
N143	N	0.612734	0.599281	0.595522
H144	H	0.573108	0.691246	0.525340
H145	H	0.610865	0.600183	0.664947
H146	H	0.104559	1.212559	-0.162038
N147	N	0.938658	0.609858	-0.123273
H148	H	0.907547	0.707144	-0.182991
H149	H	0.907622	0.592898	-0.068770
N150	N	0.609539	0.775168	0.413302
H151	H	0.594853	0.797501	0.334633
H152	H	0.604150	0.851168	0.407930
N153	N	1.084850	0.408439	-0.123290
H154	H	1.024600	0.453851	-0.160872
H155	H	1.112161	0.311151	-0.068804
N156	N	0.858288	1.025551	-0.595418
H157	H	0.897911	0.992744	-0.525235
H158	H	0.860161	1.093297	-0.664843
H159	H	0.355357	1.429200	-0.308376
H160	H	0.242043	1.692980	-0.679766
N161	N	0.532328	1.416393	-0.526606
H162	H	0.526644	1.461808	-0.609608
H163	H	0.563387	1.319109	-0.488990
N164	N	0.532358	1.416387	0.123340
H165	H	0.526687	1.461805	0.160918
H166	H	0.563420	1.433243	0.068851
H167	H	0.617859	0.494851	0.037363
H168	H	0.734214	1.192042	-0.668190
N169	N	0.223497	1.718628	-0.000049
H170	H	0.240395	1.741953	0.046554
H171	H	0.189668	1.684836	0.033699
H172	H	0.617187	0.655509	0.036780
H173	H	0.227718	1.605118	-0.107710
H174	H	0.355326	1.429256	-0.107697
H175	H	0.617396	0.656073	0.320452
H176	H	0.840023	1.031706	-0.429883
H177	H	0.708382	0.370123	0.481036
N178	N	0.302608	1.007426	-0.171706
H179	H	0.352742	0.942201	-0.176934
H180	H	0.305066	1.083243	-0.192063
H181	H	0.854223	0.281099	0.588247
H182	H	0.617005	0.497043	0.479721
H183	H	0.708841	0.529241	0.320950
H184	H	1.087016	0.421224	0.699617
H185	H	0.605033	1.188671	-0.667012
N186	N	0.745141	0.693112	-0.197669
H187	H	0.791885	0.678929	-0.151800
H188	H	0.707324	0.788418	-0.263396
H189	H	0.865984	0.341898	0.667100
H190	H	1.243280	0.421250	0.484241
H191	H	1.228972	0.333325	0.679838
H192	H	0.187015	0.985784	0.167435
N193	N	0.591967	1.224096	-0.517655
H194	H	0.625248	1.242615	-0.485934
H195	H	0.544274	1.237656	-0.488058
N196	N	0.864307	0.428138	0.413309
H197	H	0.824102	0.486961	0.334062
H198	H	0.879588	0.336464	0.450698
H199	H	0.616301	1.034875	-0.429962
H200	H	0.632089	0.747388	-0.164181
N201	N	0.753922	0.795117	-0.303391
H202	H	0.695910	0.838637	-0.348790
H203	H	0.753690	0.794753	-0.233300
H204	H	0.631068	0.588546	-0.163531
N205	N	0.728751	1.222324	-0.515120
H206	H	0.682493	1.241456	-0.482600
H207	H	0.705412	1.285145	-0.600513
H208	H	0.616795	1.032818	-0.588154
N209	N	0.862755	0.426364	0.173561
H210	H	0.828286	0.404992	0.219956
H211	H	0.864719	0.494582	0.174169
N212	N	0.880617	0.507213	-0.009252
H213	H	0.848247	0.603469	-0.072978
H214	H	0.902859	0.453975	-0.041406
H215	H	0.221030	1.212808	-0.036928
N216	N	0.876677	0.338192	-0.018679
H217	H	0.878877	0.265928	-0.016915
H218	H	0.934270	0.307773	0.014194
N219	N	0.219959	1.231122	-0.192601
H220	H	0.168300	1.264020	-0.245831
H221	H	0.269771	1.171276	-0.202666
N222	N	0.173928	1.009864	-0.173370
H223	H	0.203504	1.038548	-0.225679
H224	H	0.117388	1.088881	-0.195769
N225	N	0.092589	1.231134	-0.025121
H226	H	0.083852	1.172678	0.042532
H227	H	0.037587	1.310338	-0.085776
H228	H	0.241686	0.837581	-0.004165
H229	H	0.357380	0.836395	-0.002777
H230	H	0.299871	0.994519	0.162627
H231	H	0.243243	0.834219	0.177189
N232	N	0.376363	0.803913	0.199942
H233	H	0.406183	0.793046	0.265027
H234	H	0.413792	0.784885	0.155251
H235	H	0.853616	0.813715	-0.320349
H236	H	0.854013	0.813403	-0.479612
