data_functionalizedCrystal
_audit_creation_method	'MofGen! by Chris Wilmer'
_symmetry_space_group_name_H-M	'P1'
_symmetry_Int_Tables_number	1
_symmetry_cell_setting	triclinic
loop_
_symmetry_equiv_pos_as_xyz
  x,y,z
_cell_length_a	20.919331
_cell_length_b	23.196402
_cell_length_c	23.196401
_cell_angle_alpha	60.008520
_cell_angle_beta	93.167106
_cell_angle_gamma	61.851539
loop_
_atom_site_label
_atom_site_type_symbol
_atom_site_fract_x
_atom_site_fract_y
_atom_site_fract_z
Zr1	Zr	0.616727	0.631018	-0.045040
O2	O	0.514473	0.751290	-0.142163
O3	O	0.648075	0.510748	-0.015268
O4	O	0.648040	0.631020	-0.135538
O5	O	0.514532	0.631017	0.072979
O6	O	0.753399	0.631019	-0.130310
O7	O	0.514507	0.631018	-0.021893
O8	O	0.753461	0.415876	0.084830
O9	O	0.514470	0.846160	-0.142161
O10	O	0.740070	0.560216	0.001332
O11	O	0.661461	0.560216	0.068233
O12	O	0.661420	0.701820	-0.073369
O13	O	0.582811	0.701819	-0.006468
Zr14	Zr	0.784802	0.631015	0.114608
Zr15	Zr	0.784761	0.631018	-0.036703
Zr16	Zr	0.616767	0.631016	0.106271
Zr17	Zr	0.616723	0.782326	-0.045037
Zr18	Zr	0.784805	0.479708	0.114605
O19	O	0.753453	0.751285	0.084837
O20	O	0.753396	0.751289	-0.130308
O21	O	0.514530	0.751286	0.072982
O22	O	0.887056	0.510744	0.211731
O23	O	0.886999	0.510747	-0.003413
O24	O	0.648132	0.510745	0.199876
O25	O	0.886996	0.631017	-0.003411
O26	O	0.753488	0.631014	0.205106
O27	O	0.648130	0.631014	0.199879
O28	O	0.887021	0.631015	0.091462
O29	O	0.648036	0.846160	-0.135534
O30	O	0.753493	0.415874	0.205102
O31	O	0.887058	0.415873	0.211729
O32	O	0.887026	0.415875	0.091457
O33	O	0.514502	0.846158	-0.021889
O34	O	0.648067	0.846158	-0.015262
O35	O	0.740108	0.560214	0.142937
O36	O	0.818717	0.560215	0.076036
O37	O	0.740067	0.701818	0.001335
O38	O	0.661458	0.701817	0.068236
C39	C	0.700769	0.441754	0.034780
C40	C	0.700770	0.377520	0.034779
C41	C	0.490578	0.631018	0.024355
C42	C	0.419243	0.631018	0.020815
C43	C	0.741799	-0.085323	-0.000125
C44	C	0.741797	-0.024964	-0.000131
C45	C	0.700765	0.005218	0.034790
C46	C	0.659716	-0.024950	0.069706
C47	C	0.659712	-0.085302	0.069705
C48	C	0.706646	0.067244	0.096987
C49	C	0.706654	0.127591	0.096990
C50	C	0.700771	0.191366	0.034791
C51	C	0.694894	0.194778	-0.027410
C52	C	0.694891	0.134426	-0.027410
C53	C	0.700764	0.070660	0.034795
C54	C	0.741811	0.286978	-0.000133
C55	C	0.741803	0.347341	-0.000142
C56	C	0.659727	0.347349	0.069702
C57	C	0.659730	0.286992	0.069704
C58	C	0.700776	0.256808	0.034788
C59	C	0.385742	0.631015	0.071418
C60	C	0.318713	0.631020	0.068084
C61	C	0.285189	0.631021	0.014151
C62	C	0.318694	0.631027	-0.036457
C63	C	0.385719	0.631028	-0.033126
C64	C	0.082814	0.631022	0.001476
C65	C	0.015786	0.631019	-0.001850
C66	C	0.015809	0.631013	0.102691
C67	C	0.082838	0.631010	0.106020
C68	C	0.116334	0.631019	0.055410
C69	C	0.216676	0.631023	0.010744
C70	C	0.184843	0.631023	0.058815
C71	C	0.910950	0.631016	0.045213
C72	C	0.982285	0.631016	0.048753
C73	C	0.700714	0.631020	-0.154483
C74	C	0.700697	0.631021	-0.218718
C75	C	0.700760	0.820280	0.034788
C76	C	0.700758	0.884514	0.034789
C77	C	0.659646	0.704934	-0.287884
C78	C	0.659666	0.704935	-0.348239
C79	C	0.700726	0.631019	-0.339423
C80	C	0.741786	0.557096	-0.270245
C81	C	0.741771	0.557097	-0.209892
C82	C	0.694897	0.574389	-0.407031
C83	C	0.694906	0.574391	-0.467384
C84	C	0.700776	0.631012	-0.525568
C85	C	0.706620	0.687646	-0.523400
C86	C	0.706606	0.687647	-0.463048
C87	C	0.700747	0.631009	-0.404861
C88	C	0.659745	0.704932	-0.660180
C89	C	0.659770	0.704930	-0.720534
C90	C	0.741884	0.557089	-0.642538
C91	C	0.741864	0.557093	-0.582186
C92	C	0.700790	0.631017	-0.591012
C93	C	0.700814	0.631014	0.224051
C94	C	0.700832	0.631013	0.288286
C95	C	0.910954	0.441753	0.045209
C96	C	0.982291	0.377519	0.048748
C97	C	0.700819	0.441751	0.224047
C98	C	0.700837	0.377516	0.288281
C99	C	0.911005	0.441750	0.234476
C100	C	0.982358	0.377515	0.302250
C101	C	0.490524	0.820284	-0.164908
C102	C	0.419170	0.884519	-0.232682
C103	C	0.490574	0.820281	0.024359
C104	C	0.419238	0.884515	0.020820
C105	C	0.700710	0.820283	-0.154479
C106	C	0.700691	0.884518	-0.218713
C107	C	0.974738	0.347354	0.011408
C108	C	1.041760	0.287008	0.014719
C109	C	1.116334	0.256822	0.055373
C110	C	1.123885	0.286993	0.092713
C111	C	1.056863	0.347342	0.089398
C112	C	0.741899	0.347350	0.357447
C113	C	0.741913	0.287002	0.417808
C114	C	0.700870	0.256818	0.409001
C115	C	0.659804	0.286991	0.339828
C116	C	0.659785	0.347341	0.279469
C117	C	1.056907	0.347349	0.299156
C118	C	1.123958	0.287002	0.362831
C119	C	1.116458	0.256817	0.429600
C120	C	1.041901	0.286988	0.432692
C121	C	0.974852	0.347338	0.369018
C122	C	0.344622	0.914692	-0.229588
C123	C	0.277571	0.975058	-0.293263
C124	C	0.285070	1.005246	-0.360031
C125	C	0.359627	0.975071	-0.363124
C126	C	0.426676	0.914710	-0.299449
C127	C	0.426790	0.914686	0.058153
C128	C	0.359768	0.975049	0.054827
C129	C	0.285195	1.005237	0.014171
C130	C	0.277644	0.975063	-0.023167
C131	C	0.344665	0.914705	-0.019844
C132	C	0.741742	0.914683	-0.209883
C133	C	0.741740	0.975030	-0.270232
C134	C	0.700682	1.005216	-0.339409
C135	C	0.659630	0.975045	-0.348238
C136	C	0.659637	0.914695	-0.287890
H137	H	0.775219	-0.109895	-0.028558
H138	H	0.626300	0.765125	-0.667367
H139	H	0.711367	0.733758	-0.461285
F140	F	0.688679	0.514122	-0.469689
F141	F	0.118460	0.631029	-0.052384
F142	F	0.895514	0.379432	0.372321
H143	H	0.775168	0.999589	-0.263029
F144	F	0.616080	0.783603	-0.794150
F145	F	0.283012	0.631034	-0.093861
F146	F	0.700898	0.192587	0.473248
H147	H	0.338500	0.890115	-0.175228
F148	F	0.688638	0.262646	-0.093610
H149	H	0.775321	0.371919	0.364632
F150	F	1.203298	0.254900	0.359525
H151	H	0.110131	0.631008	0.149937
F152	F	0.895378	0.379471	-0.031866
H153	H	0.487375	0.890144	-0.301977
H154	H	0.626314	0.371926	0.098132
F155	F	0.785592	0.478421	-0.633151
F156	F	0.712867	0.747912	-0.585322
H157	H	1.063028	0.371918	0.244796
F158	F	0.616044	0.007175	0.106869
F159	F	0.785543	0.478423	-0.508571
F160	F	0.615936	0.882603	-0.297299
H161	H	0.216871	0.999616	-0.290731
H162	H	0.216917	0.999651	-0.056269
F163	F	0.785499	0.254848	-0.037290
H164	H	0.626204	0.765129	-0.295077
H165	H	0.212137	0.631026	0.102725
H166	H	0.230468	1.054396	-0.411874
F167	F	0.180995	0.631023	-0.046655
F168	F	0.421370	0.631035	-0.086986
F169	F	0.506150	0.882571	0.101426
F170	F	0.336615	0.882597	-0.059578
H171	H	0.775218	-0.000400	-0.028564
F172	F	0.785626	0.254900	0.491421
H173	H	1.035597	0.262450	-0.015689
H174	H	1.171060	0.207675	0.481442
H175	H	0.626388	0.262406	0.332668
H176	H	0.413035	0.631009	0.115339
H177	H	-0.011470	0.631006	0.143895
F178	F	1.033932	0.254854	0.503758
H179	H	1.170900	0.207681	0.058066
H180	H	0.365724	0.999659	-0.417494
F181	F	0.616083	0.379436	0.205858
F182	F	0.367821	1.007148	0.094571
F183	F	0.213871	1.069475	0.010641
F184	F	0.688701	0.514086	-0.345089
F185	F	0.785445	0.882567	-0.136264
F186	F	0.700680	1.069449	-0.403631
F187	F	0.615930	1.007185	-0.421868
H188	H	0.626314	0.262429	0.098138
H189	H	0.690104	0.137209	-0.078057
H190	H	-0.011505	0.631019	-0.045771
F191	F	0.712923	0.123946	0.163193
F192	F	0.785480	0.379449	-0.037311
H193	H	0.711433	0.015320	0.147640
H194	H	0.626291	-0.109860	0.098137
F195	F	0.615974	0.783607	-0.421861
H196	H	0.775218	0.496913	-0.263071
F197	F	0.283057	0.631018	0.121940
H198	H	1.184611	0.262407	0.125812
H199	H	0.775200	0.496906	-0.153572
H200	H	1.063024	0.371894	0.119809
