data_functionalizedCrystal
_audit_creation_method	'MofGen! by Chris Wilmer'
_symmetry_space_group_name_H-M	'P1'
_symmetry_Int_Tables_number	1
_symmetry_cell_setting	triclinic
loop_
_symmetry_equiv_pos_as_xyz
  x,y,z
_cell_length_a	10.540539
_cell_length_b	17.038272
_cell_length_c	9.616153
_cell_angle_alpha	89.997688
_cell_angle_beta	89.995174
_cell_angle_gamma	87.818524
loop_
_atom_site_label
_atom_site_type_symbol
_atom_site_fract_x
_atom_site_fract_y
_atom_site_fract_z
O1	O	1.696176	0.110247	-0.115581
O2	O	1.327732	0.120634	-0.115599
O3	O	1.509764	0.001613	-0.115579
O4	O	1.514144	0.229269	-0.115601
O5	O	1.509738	0.001615	0.115712
O6	O	1.327705	0.120637	0.115693
O7	O	1.696149	0.110249	0.115710
Zn8	Zn	1.511923	0.115443	0.152424
Zn9	Zn	1.511958	0.115440	-0.152313
O10	O	1.514117	0.229271	0.115690
C11	C	1.280343	0.119857	0.000045
C12	C	1.139177	0.117526	0.000039
C13	C	0.947420	0.028219	0.000587
C14	C	1.094259	0.030581	0.000051
C15	C	1.081423	0.159366	-0.132039
C16	C	0.934602	0.156399	-0.132135
C17	C	0.934248	0.158170	0.130886
C18	C	1.081305	0.158971	0.132618
C19	C	1.505768	-0.027537	0.000066
C20	C	1.493883	-0.114398	0.000065
C21	C	1.602994	-0.163886	0.000072
C22	C	1.591820	-0.245501	0.000058
C23	C	1.471534	-0.277626	0.000048
C24	C	1.362416	-0.228133	0.000037
C25	C	1.373591	-0.146519	0.000041
C26	C	1.432055	-0.523611	0.000027
C27	C	1.420888	-0.605231	0.000027
C28	C	1.650293	-0.622593	0.000046
C29	C	1.661457	-0.540977	0.000058
C30	C	1.552339	-0.491491	0.000040
C31	C	1.460110	-0.361050	0.000038
C32	C	1.563764	-0.408069	0.000040
C33	C	1.743538	0.111027	0.000063
C34	C	1.884704	0.113358	0.000061
C35	C	1.518114	0.258421	0.000042
C36	C	1.529998	0.345282	0.000034
N37	N	1.511909	0.115445	0.360398
N38	N	1.511982	0.115432	-0.360287
C39	C	1.414198	0.178900	0.580758
C40	C	1.414448	0.179138	0.419590
C41	C	1.646364	0.134015	0.418852
C42	C	1.645842	0.134465	0.580070
C43	C	1.476466	0.033212	0.580316
C44	C	1.473469	0.033745	0.419089
H45	H	0.914033	-0.005985	-0.093600
H46	H	1.721346	0.090100	0.619066
H47	H	1.661700	-0.381909	0.000017
H48	H	0.892466	0.218928	-0.138136
N49	N	1.349326	0.016091	0.371188
N50	N	1.256497	0.060859	0.400612
H51	H	1.168819	0.048394	0.366775
H52	H	1.680669	-0.285790	0.000066
H53	H	1.111443	0.222359	0.140586
H54	H	1.539379	-0.015754	0.378802
H55	H	1.438038	0.240138	0.381006
N56	N	0.895621	0.117589	-0.255974
N57	N	0.933210	0.048387	-0.279407
H58	H	0.905688	0.020974	-0.366870
N59	N	1.239534	-0.260930	0.000020
N60	N	1.163991	-0.245995	-0.097475
H61	H	1.077200	-0.269155	-0.097482
H62	H	1.109732	0.223216	-0.136959
H63	H	0.900066	0.130034	0.231000
H64	H	0.892879	0.220970	0.131773
N65	N	1.443428	0.254998	0.631548
N66	N	1.363578	0.293709	0.702181
H67	H	1.384223	0.347453	0.738056
H68	H	1.675792	0.194450	0.617653
N69	N	1.131506	0.122918	-0.255335
N70	N	1.209715	0.066136	-0.246276
H71	H	1.245100	0.040397	-0.333351
H72	H	1.119404	0.128406	0.230328
H73	H	1.314247	0.167898	0.619566
H74	H	1.721225	0.089051	0.380507
H75	H	1.314789	0.167964	0.380072
N76	N	1.142753	-0.011012	-0.118925
N77	N	1.068125	-0.041873	-0.201830
H78	H	1.102372	-0.071250	-0.285865
N79	N	0.907494	-0.014850	0.119422
N80	N	0.850019	-0.077065	0.103712
H81	H	0.821809	-0.107474	0.187654
N82	N	1.725874	-0.131087	0.000101
N83	N	1.823283	-0.175285	0.000108
H84	H	1.910072	-0.152124	0.000128
N85	N	1.784336	-0.508177	0.000070
N86	N	1.881749	-0.552372	0.000073
H87	H	1.968536	-0.529208	0.000085
N88	N	1.565796	-0.026044	0.628151
N89	N	1.655262	-0.007908	0.705648
H90	H	1.718355	-0.049752	0.739440
H91	H	1.322932	-0.631384	0.000041
H92	H	1.739130	-0.662893	0.000058
N93	N	1.320584	-0.473080	0.000018
N94	N	1.213197	-0.501777	0.000020
H95	H	1.134463	-0.466088	0.000019
H96	H	1.362173	-0.387215	0.000033
N97	N	1.262125	-0.095978	0.000016
N98	N	1.154733	-0.124669	-0.000001
H99	H	1.076005	-0.088975	-0.000028
N100	N	1.684531	0.208415	0.368167
N101	N	1.612943	0.247885	0.289012
H102	H	1.639891	0.300432	0.253215
N103	N	1.355524	0.011042	0.631339
N104	N	1.311321	-0.052862	0.595141
H105	H	1.225900	-0.068513	0.631175
N106	N	1.143842	-0.010727	0.118822
N107	N	1.069985	-0.041508	0.202688
H108	H	1.104997	-0.070689	0.286570
