data_functionalizedCrystal
_audit_creation_method	'MofGen! by Chris Wilmer'
_symmetry_space_group_name_H-M	'P1'
_symmetry_Int_Tables_number	1
_symmetry_cell_setting	triclinic
loop_
_symmetry_equiv_pos_as_xyz
  x,y,z
_cell_length_a	18.101398
_cell_length_b	21.295417
_cell_length_c	18.101389
_cell_angle_alpha	89.977434
_cell_angle_beta	89.975673
_cell_angle_gamma	90.025773
loop_
_atom_site_label
_atom_site_type_symbol
_atom_site_fract_x
_atom_site_fract_y
_atom_site_fract_z
Zn1	Zn	1.132124	-0.250755	-0.418817
Zn2	Zn	1.132021	-0.356008	-0.294967
Zn3	Zn	1.008283	-0.250748	-0.294979
Zn4	Zn	1.008235	-0.355981	-0.418755
O5	O	1.070166	-0.303373	-0.356880
O6	O	1.235743	-0.264731	-0.402409
O7	O	1.115584	-0.342054	-0.191335
O8	O	1.024774	-0.162660	-0.311437
O9	O	1.235668	-0.342060	-0.311417
O10	O	1.115759	-0.162664	-0.402421
O11	O	1.024674	-0.264720	-0.191344
O12	O	0.904644	-0.264694	-0.311377
O13	O	1.024692	-0.342014	-0.522397
O14	O	0.904609	-0.342008	-0.402315
O15	O	1.115713	-0.264705	-0.522442
O16	O	1.115538	-0.444094	-0.311357
O17	O	1.024592	-0.444074	-0.402304
C18	C	0.877755	-0.303348	-0.356841
C19	C	0.795441	-0.303352	-0.356842
C20	C	0.496350	-0.303391	-0.356904
C21	C	0.527673	-0.254504	-0.299967
C22	C	0.613291	-0.254635	-0.299724
C23	C	0.644733	-0.303371	-0.356873
C24	C	0.613615	-0.369679	-0.335543
C25	C	0.527970	-0.369407	-0.335147
C26	C	0.527965	-0.286547	-0.435305
C27	C	0.613615	-0.285070	-0.434877
C28	C	0.728592	-0.303364	-0.356857
C29	C	0.412491	-0.303403	-0.356919
C30	C	1.070069	-0.466925	-0.356839
C31	C	1.070095	-0.536893	-0.356846
C32	C	1.117492	-0.569749	-0.309538
C33	C	1.117527	-0.635491	-0.309555
C34	C	1.070151	-0.668375	-0.356871
C35	C	1.022751	-0.635511	-0.404188
C36	C	1.022722	-0.569770	-0.404175
N37	N	1.005367	-0.771637	-0.362504
N38	N	1.005396	-0.834089	-0.362512
C39	C	1.070234	-0.866450	-0.356914
N40	N	1.135044	-0.834001	-0.351293
N41	N	1.135014	-0.771543	-0.351282
C42	C	1.070177	-0.739661	-0.356891
C43	C	1.117673	-0.970592	-0.309622
C44	C	1.117709	-1.036335	-0.309644
C45	C	1.022926	-1.036354	-0.404273
C46	C	1.022897	-0.970612	-0.404255
C47	C	1.070269	-0.937734	-0.356925
C48	C	1.263328	-0.303399	-0.356919
C49	C	1.345642	-0.303410	-0.356935
C50	C	1.070209	-0.303357	-0.550042
C51	C	1.070227	-0.303350	-0.632356
C52	C	1.070283	-0.139183	-0.356937
C53	C	1.070334	-0.069215	-0.356961
C54	C	1.070270	-0.303232	-0.931447
C55	C	1.012805	-0.351719	-0.900093
C56	C	1.012960	-0.351944	-0.814475
C57	C	1.070248	-0.303291	-0.783064
C58	C	1.148274	-0.321303	-0.814168
C59	C	1.147953	-0.321621	-0.899813
C60	C	1.050388	-0.236626	-0.899877
C61	C	1.048652	-0.237011	-0.814226
C62	C	1.070240	-0.303323	-0.699205
C63	C	1.070283	-0.303202	-1.015306
C64	C	1.070166	-0.303344	-0.164469
C65	C	1.070291	-0.303173	-0.082155
H66	H	0.506124	-0.265512	-0.242211
C67	C	0.907073	-0.387865	-0.967924
C68	C	0.934459	-0.336660	-0.927880
H69	H	0.858703	-0.378568	-0.985079
H70	H	0.938460	-0.395899	-1.008904
H71	H	0.905473	-0.423854	-0.936940
H72	H	0.936064	-0.300672	-0.958866
H73	H	0.903064	-0.328618	-0.886894
H74	H	0.507249	-0.407065	-0.374809
H75	H	0.633980	-0.407079	-0.375715
C76	C	1.241613	-0.401418	-0.900713
C77	C	1.170704	-0.387352	-0.926784
H78	H	1.255655	-0.442001	-0.917356
H79	H	1.275672	-0.371171	-0.918858
H80	H	1.241596	-0.400632	-0.848242
H81	H	1.170722	-0.388135	-0.979255
H82	H	1.136636	-0.417608	-0.908643
H83	H	1.165420	-0.369476	-0.792722
C84	C	1.243654	-0.248545	-0.867450
C85	C	1.207717	-0.276026	-0.927822
H86	H	1.280553	-0.220401	-0.884741
H87	H	1.208779	-0.226203	-0.838371
H88	H	1.266014	-0.280395	-0.838301
H89	H	1.185353	-0.244176	-0.956968
H90	H	1.242598	-0.298368	-0.956913
C91	C	0.613510	-0.311704	-0.563755
C92	C	0.642512	-0.329631	-0.495222
H93	H	0.631356	-0.339215	-0.601007
H94	H	0.561122	-0.313801	-0.562051
H95	H	0.628396	-0.269939	-0.574689
H96	H	0.627622	-0.371394	-0.484285
H97	H	0.694912	-0.327540	-0.496924
C98	C	0.460036	-0.303635	-0.547420
C99	C	0.500618	-0.334610	-0.492580
H100	H	0.443154	-0.333309	-0.582776
H101	H	0.418857	-0.283162	-0.525580
H102	H	0.490581	-0.273434	-0.571103
H103	H	0.470071	-0.364808	-0.468893
H104	H	0.541803	-0.355093	-0.514421
C105	C	1.030939	-0.419119	-0.709457
C106	C	1.030714	-0.418584	-0.786810
H107	H	1.041897	-0.460264	-0.692381
H108	H	1.067327	-0.390689	-0.691833
H109	H	0.983739	-0.406778	-0.691700
H110	H	1.077916	-0.430921	-0.804567
H111	H	0.994324	-0.447025	-0.804442
H112	H	0.984355	-1.063127	-0.442802
H113	H	1.192239	-0.287098	-0.793825
C114	C	1.097408	-0.183551	-0.708138
C115	C	1.101036	-0.185654	-0.785369
H116	H	1.129757	-0.151850	-0.690325
H117	H	1.048275	-0.174314	-0.693265
H118	H	1.111743	-0.223063	-0.688448
H119	H	1.086696	-0.146143	-0.805060
H120	H	1.150180	-0.194887	-0.800249
C121	C	0.558406	-0.181636	-0.473288
C122	C	0.498848	-0.222411	-0.461488
H123	H	0.540428	-0.142042	-0.489451
H124	H	0.585050	-0.176444	-0.428511
H125	H	0.590124	-0.198768	-0.509917
H126	H	0.467132	-0.205281	-0.424856
H127	H	0.472191	-0.227602	-0.506271
H128	H	0.955101	-0.340671	-0.793443
H129	H	0.633745	-0.265769	-0.241630
H130	H	1.156067	-0.542982	-0.271002
C131	C	0.977133	-0.210985	-1.006233
C132	C	0.974917	-0.214466	-0.929015
H133	H	0.930538	-0.197311	-1.024222
H134	H	1.014273	-0.182027	-1.020908
H135	H	0.988080	-0.251260	-1.025936
H136	H	0.963976	-0.174190	-0.909312
H137	H	0.937765	-0.243425	-0.914334
H138	H	0.634331	-0.205465	-0.313095
H139	H	1.025801	-0.400788	-0.921614
C140	C	1.211197	-0.628876	-0.216001
C141	C	1.169624	-0.671617	-0.257546
H142	H	1.243355	-0.651179	-0.183889
H143	H	1.239501	-0.603204	-0.248286
H144	H	1.178927	-0.603267	-0.187642
H145	H	1.201894	-0.697223	-0.285909
H146	H	1.141318	-0.697300	-0.225256
C147	C	1.012343	-0.495798	-0.503766
C148	C	0.970617	-0.533651	-0.456177
H149	H	0.980173	-0.473503	-0.535872
H150	H	1.040545	-0.466811	-0.475580
H151	H	1.044602	-0.521414	-0.532130
H152	H	0.938362	-0.508035	-0.427810
H153	H	0.942403	-0.562642	-0.484366
C154	C	1.217260	-0.896590	-0.299415
C155	C	1.169749	-0.934448	-0.257605
H156	H	1.249406	-0.874276	-0.267300
H157	H	1.245577	-0.922199	-0.331710
H158	H	1.189014	-0.867612	-0.327580
H159	H	1.197994	-0.963429	-0.229443
H160	H	1.141429	-0.908836	-0.225297
H161	H	0.984178	-0.662290	-0.442715
C162	C	1.211380	-1.029709	-0.216093
C163	C	1.169812	-1.072453	-0.257638
H164	H	1.243542	-1.052009	-0.183984
H165	H	1.239679	-1.004033	-0.248378
H166	H	1.179107	-1.004104	-0.187732
H167	H	1.202084	-1.098056	-0.286003
H168	H	1.141510	-1.098141	-0.225348
H169	H	0.507959	-0.383693	-0.277832
H170	H	0.984298	-0.943858	-0.442774
H171	H	0.507102	-0.205183	-0.313191
H172	H	1.092243	-0.200501	-0.920156
C173	C	0.719818	-0.391831	-0.260529
C174	C	0.642537	-0.389289	-0.259006
H175	H	0.737677	-0.403928	-0.213276
H176	H	0.735256	-0.421642	-0.296362
H177	H	0.738933	-0.351643	-0.272970
H178	H	0.623422	-0.429479	-0.246571
H179	H	0.627092	-0.359476	-0.223162
H180	H	0.633959	-0.236275	-0.450961
H181	H	0.991232	-0.223428	-0.793895
