data_functionalizedCrystal
_audit_creation_method	'MofGen! by Chris Wilmer'
_symmetry_space_group_name_H-M	'P1'
_symmetry_Int_Tables_number	1
_symmetry_cell_setting	triclinic
loop_
_symmetry_equiv_pos_as_xyz
  x,y,z
_cell_length_a	19.188930
_cell_length_b	18.266242
_cell_length_c	15.995350
_cell_angle_alpha	89.997106
_cell_angle_beta	96.681422
_cell_angle_gamma	90.022820
loop_
_atom_site_label
_atom_site_type_symbol
_atom_site_fract_x
_atom_site_fract_y
_atom_site_fract_z
O1	O	0.926416	0.061113	-0.104533
O2	O	1.259749	0.394446	0.228800
O3	O	1.593082	0.727779	0.562133
O4	O	0.723140	0.061062	-0.118605
O5	O	1.056473	0.394395	0.214728
O6	O	1.389807	0.727729	0.548061
O7	O	0.830335	0.061088	0.010339
O8	O	1.163668	0.394422	0.343672
O9	O	1.497001	0.727755	0.677005
O10	O	0.819221	0.061087	-0.233477
O11	O	1.152555	0.394420	0.099856
O12	O	1.485888	0.727753	0.433189
O13	O	0.830316	-0.060674	0.010342
O14	O	1.163650	0.272660	0.343676
O15	O	1.496983	0.605993	0.677009
O16	O	0.723122	-0.060700	-0.118602
O17	O	1.056455	0.272633	0.214732
O18	O	1.389788	0.605967	0.548065
O19	O	0.926397	-0.060649	-0.104530
O20	O	1.259731	0.272684	0.228804
O21	O	1.593064	0.606017	0.562137
Zn22	Zn	0.824757	-0.080007	-0.111565
Zn23	Zn	1.158090	0.253326	0.221768
Zn24	Zn	1.491423	0.586660	0.555101
Zn25	Zn	0.824781	0.080420	-0.111570
Zn26	Zn	1.158114	0.413753	0.221763
Zn27	Zn	1.491447	0.747086	0.555097
O28	O	0.819203	-0.060675	-0.233474
O29	O	1.152536	0.272658	0.099860
O30	O	1.485870	0.605991	0.433193
C31	C	0.697119	0.000175	-0.118148
C32	C	1.030452	0.333508	0.215185
C33	C	1.363785	0.666841	0.548519
C34	C	0.619611	0.000156	-0.116780
C35	C	0.952944	0.333489	0.216553
C36	C	1.286277	0.666822	0.549887
N37	N	0.824745	-0.189494	-0.111561
N38	N	1.158079	0.143840	0.221772
N39	N	1.491412	0.477173	0.555105
C40	C	0.574880	0.000167	-0.192440
C41	C	0.908213	0.333500	0.140893
C42	C	1.241546	0.666833	0.474227
C43	C	0.502052	0.000175	-0.191155
C44	C	0.835386	0.333508	0.142178
C45	C	1.168719	0.666841	0.475512
C46	C	0.473960	0.000186	-0.114205
C47	C	0.807293	0.333520	0.219128
C48	C	1.140627	0.666853	0.552461
C49	C	0.518701	0.000171	-0.038535
C50	C	0.852034	0.333504	0.294798
C51	C	1.185368	0.666838	0.628131
C52	C	0.591526	0.000156	-0.039823
C53	C	0.924860	0.333489	0.293511
C54	C	1.258193	0.666822	0.626844
N55	N	0.365836	0.041657	-0.055388
N56	N	0.699170	0.374990	0.277945
N57	N	1.032503	0.708324	0.611278
N58	N	0.296654	0.041673	-0.054170
N59	N	0.629988	0.375007	0.279163
N60	N	0.963321	0.708340	0.612496
C61	C	0.254541	0.000231	-0.110322
C62	C	0.587875	0.333564	0.223011
C63	C	0.921208	0.666898	0.556345
N64	N	0.284222	-0.041219	-0.167750
N65	N	0.617555	0.292115	0.165583
N66	N	0.950889	0.625448	0.498916
N67	N	0.353410	-0.041232	-0.168970
N68	N	0.686743	0.292102	0.164363
N69	N	1.020077	0.625435	0.497696
C70	C	0.394994	0.000203	-0.112801
C71	C	0.728327	0.333536	0.220532
C72	C	1.061661	0.666869	0.553866
C73	C	0.130842	0.000250	-0.184594
C74	C	0.464175	0.333583	0.148739
C75	C	0.797509	0.666917	0.482073
C76	C	0.058014	0.000253	-0.183306
C77	C	0.391347	0.333587	0.150028
C78	C	0.724681	0.666920	0.483361
C79	C	0.074664	0.000257	-0.030684
C80	C	0.407998	0.333591	0.302650
C81	C	0.741331	0.666924	0.635983
C82	C	0.147491	0.000246	-0.031974
C83	C	0.480824	0.333580	0.301359
C84	C	0.814157	0.666913	0.634692
C85	C	0.175575	0.000246	-0.108932
C86	C	0.508908	0.333580	0.224402
C87	C	0.842242	0.666913	0.557735
C88	C	0.867084	-0.227786	-0.162223
C89	C	1.200417	0.105548	0.171110
C90	C	1.533750	0.438881	0.504443
C91	C	0.867095	-0.304431	-0.162221
C92	C	1.200428	0.028903	0.171112
C93	C	1.533762	0.362236	0.504446
C94	C	0.824755	-0.342781	-0.111566
C95	C	1.158089	-0.009447	0.221767
C96	C	1.491422	0.323886	0.555100
C97	C	0.782415	-0.304480	-0.060894
C98	C	1.115748	0.028854	0.272439
C99	C	1.449081	0.362187	0.605772
C100	C	0.782410	-0.227836	-0.060892
C101	C	1.115743	0.105497	0.272441
C102	C	1.449076	0.438831	0.605775
N103	N	0.763602	-0.463148	-0.109504
N104	N	1.096936	-0.129815	0.223830
N105	N	1.430269	0.203518	0.557163
N106	N	0.763609	-0.535956	-0.109511
N107	N	1.096942	-0.202623	0.223822
N108	N	1.430276	0.130710	0.557156
C109	C	0.824769	-0.573703	-0.111570
C110	C	1.158103	-0.240370	0.221764
C111	C	1.491436	0.092964	0.555097
N112	N	0.885923	-0.535891	-0.113637
N113	N	1.219257	-0.202558	0.219696
N114	N	1.552590	0.130776	0.553029
N115	N	0.885916	-0.463076	-0.113634
N116	N	1.219249	-0.129743	0.219699
N117	N	1.552582	0.203590	0.553032
C118	C	0.824757	-0.425888	-0.111563
C119	C	1.158090	-0.092554	0.221770
C120	C	1.491423	0.240779	0.555104
C121	C	0.867124	-0.695102	-0.162231
C122	C	1.200457	-0.361769	0.171102
C123	C	1.533790	-0.028435	0.504435
C124	C	0.867137	-0.771748	-0.162223
C125	C	1.200470	-0.438415	0.171110
C126	C	1.533803	-0.105082	0.504444
C127	C	0.782450	-0.771796	-0.060901
C128	C	1.115783	-0.438463	0.272432
C129	C	1.449117	-0.105129	0.605765
C130	C	0.782443	-0.695151	-0.060905
C131	C	1.115777	-0.361818	0.272428
C132	C	1.449110	-0.028484	0.605762
C133	C	0.824779	-0.656809	-0.111575
C134	C	1.158112	-0.323475	0.221759
C135	C	1.491446	0.009858	0.555092
C136	C	0.952419	0.000240	-0.104987
C137	C	1.285752	0.333573	0.228346
C138	C	1.619085	0.666907	0.561679
C139	C	1.029927	0.000264	-0.106355
C140	C	1.363260	0.333597	0.226978
C141	C	1.696593	0.666931	0.560311
C142	C	0.829866	0.000208	0.041533
C143	C	1.163199	0.333542	0.374867
C144	C	1.496533	0.666875	0.708200
C145	C	0.828489	0.000212	0.134479
C146	C	1.161822	0.333546	0.467812
C147	C	1.495155	0.666879	0.801145
N148	N	0.824798	0.189907	-0.111567
N149	N	1.158131	0.523240	0.221766
N150	N	1.491464	0.856573	0.555100
C151	C	0.819671	0.000206	-0.264669
C152	C	1.153005	0.333539	0.068665
C153	C	1.486338	0.666873	0.401998
C154	C	0.821049	0.000207	-0.357614
C155	C	1.154382	0.333540	-0.024281
C156	C	1.487716	0.666874	0.309053
C157	C	0.823542	0.000209	0.472208
C158	C	1.156875	0.333542	0.805542
C159	C	1.490209	0.666875	1.138875
C160	C	0.747200	0.000463	0.424495
C161	C	1.080533	0.333796	0.757828
C162	C	1.413867	0.667129	1.091161
C163	C	0.748578	0.000189	0.327809
C164	C	1.081911	0.333522	0.661143
C165	C	1.415244	0.666855	0.994476
C166	C	0.825996	0.000211	0.304657
C167	C	1.159329	0.333544	0.637990
C168	C	1.492662	0.666877	0.971323
C169	C	0.863640	-0.069311	0.345874
C170	C	1.196973	0.264023	0.679207
C171	C	1.530306	0.597356	1.012541
C172	C	0.861722	-0.069369	0.442503
C173	C	1.195055	0.263964	0.775836
C174	C	1.528388	0.597297	1.109169
C175	C	0.863320	0.069097	0.442863
C176	C	1.196653	0.402431	0.776196
C177	C	1.529986	0.735764	1.109529
C178	C	0.863302	0.070016	0.345917
C179	C	1.196635	0.403350	0.679250
C180	C	1.529968	0.736683	1.012584
C181	C	0.827386	0.000210	0.209964
C182	C	1.160720	0.333543	0.543298
C183	C	1.494053	0.666876	0.876631
C184	C	0.822153	0.000205	0.566901
C185	C	1.155487	0.333538	0.900234
C186	C	1.488820	0.666871	1.233568
H187	H	0.597741	0.000168	-0.255105
H188	H	0.931074	0.333501	0.078229
H189	H	1.264407	0.666834	0.411562
C190	C	0.640733	0.000148	0.043413
C191	C	0.974066	0.333482	0.376747
C192	C	1.307400	0.666815	0.710080
N193	N	0.677797	0.000145	0.106108
N194	N	1.011130	0.333479	0.439441
N195	N	1.344463	0.666812	0.772775
H196	H	0.747942	-0.335709	-0.019650
H197	H	1.081276	-0.002376	0.313683
H198	H	1.414609	0.330958	0.647016
C199	C	0.913672	-0.346560	-0.217955
C200	C	1.247005	-0.013227	0.115378
C201	C	1.580339	0.320106	0.448711
N202	N	0.948754	-0.378290	-0.259935
N203	N	1.282087	-0.044957	0.073398
N204	N	1.615420	0.288377	0.406731
C205	C	0.708595	0.067510	0.289261
C206	C	1.041929	0.400843	0.622594
C207	C	1.375262	0.734177	0.955928
N208	N	0.678475	0.118217	0.260230
N209	N	1.011808	0.451550	0.593563
N210	N	1.345142	0.784884	0.926896
H211	H	0.465625	0.000182	-0.252768
H212	H	0.798959	0.333515	0.080565
H213	H	1.132292	0.666848	0.413898
C214	C	0.735877	-0.813977	-0.005179
C215	C	1.069210	-0.480643	0.328154
C216	C	1.402543	-0.147310	0.661488
N217	N	0.700798	-0.845751	0.036794
N218	N	1.034131	-0.512417	0.370127
N219	N	1.367464	-0.179084	0.703460
H220	H	0.901618	-0.802924	-0.203476
H221	H	1.234952	-0.469591	0.129858
H222	H	1.568285	-0.136258	0.463191
H223	H	0.834256	-0.121354	0.460705
H224	H	1.167590	0.211980	0.794039
H225	H	1.500923	0.545313	1.127372
H226	H	0.716694	0.050317	0.442913
H227	H	1.050028	0.383650	0.776246
H228	H	1.383361	0.716983	1.109580
C229	C	0.939358	0.069754	0.486053
C230	C	1.272692	0.403087	0.819387
C231	C	1.606025	0.736421	1.152720
N232	N	0.996628	0.070244	0.518590
N233	N	1.329961	0.403577	0.851923
N234	N	1.663295	0.736911	1.185257
C235	C	0.706158	-0.066549	0.450790
C236	C	1.039491	0.266785	0.784123
C237	C	1.372825	0.600118	1.117457
N238	N	0.675250	-0.117028	0.470589
N239	N	1.008583	0.216305	0.803923
N240	N	1.341917	0.549638	1.137256
H241	H	0.183912	0.000241	0.029637
H242	H	0.517245	0.333575	0.362970
H243	H	0.850579	0.666908	0.696303
H244	H	0.718772	-0.049746	0.299837
H245	H	1.052106	0.283587	0.633170
H246	H	1.385439	0.616920	0.966504
C247	C	0.008809	0.000255	-0.266542
C248	C	0.342142	0.333588	0.066791
C249	C	0.675475	0.666921	0.400124
N250	N	-0.028254	0.000254	-0.329238
N251	N	0.305080	0.333587	0.004095
N252	N	0.638413	0.666921	0.337429
C253	C	0.043767	0.000269	0.053962
C254	C	0.377100	0.333602	0.387296
C255	C	0.710433	0.666936	0.720629
N256	N	0.020491	0.000277	0.117720
N257	N	0.353825	0.333610	0.451053
N258	N	0.687158	0.666944	0.784386
C259	C	0.937439	-0.073621	0.486348
C260	C	1.270772	0.259712	0.819681
C261	C	1.604106	0.593046	1.153015
N262	N	0.994468	-0.076828	0.519368
N263	N	1.327802	0.256505	0.852702
N264	N	1.661135	0.589839	1.186035
C265	C	0.735828	-0.185714	-0.005163
C266	C	1.069161	0.147620	0.328171
C267	C	1.402494	0.480953	0.661504
N268	N	0.700740	-0.153986	0.036811
N269	N	1.034073	0.179347	0.370144
N270	N	1.367406	0.512681	0.703478
C271	C	0.735860	-0.653028	-0.005181
C272	C	1.069193	-0.319695	0.328152
C273	C	1.402526	0.013638	0.661485
N274	N	0.700771	-0.621302	0.036793
N275	N	1.034104	-0.287968	0.370126
N276	N	1.367438	0.045365	0.703460
C277	C	0.828294	-0.139225	0.307412
C278	C	1.161628	0.194108	0.640745
C279	C	1.494961	0.527441	0.974079
N280	N	0.801668	-0.191883	0.278444
N281	N	1.135001	0.141450	0.611777
N282	N	1.468334	0.474783	0.945111
H283	H	0.153710	0.000239	-0.247257
H284	H	0.487043	0.333572	0.086076
H285	H	0.820376	0.666906	0.419409
H286	H	0.919759	0.074231	0.330762
H287	H	1.253092	0.407564	0.664095
H288	H	1.586425	0.740897	0.997428
C289	C	0.913701	-0.652923	-0.217960
C290	C	1.247034	-0.319590	0.115373
C291	C	1.580367	0.013744	0.448707
N292	N	0.948784	-0.621156	-0.259934
N293	N	1.282117	-0.287822	0.073400
N294	N	1.615451	0.045511	0.406733
H295	H	0.495823	0.000191	0.024118
H296	H	0.829157	0.333524	0.357451
H297	H	1.162490	0.666857	0.690784
C298	C	0.940473	-0.072794	0.327056
C299	C	1.273806	0.260539	0.660390
C300	C	1.607140	0.593873	0.993723
N301	N	0.998342	-0.075419	0.312875
N302	N	1.331676	0.257914	0.646208
N303	N	1.665009	0.591247	0.979542
H304	H	0.901559	-0.196572	-0.203479
H305	H	1.234893	0.136761	0.129854
H306	H	1.568226	0.470095	0.463188
C307	C	0.829608	0.140285	0.470481
C308	C	1.162941	0.473618	0.803814
C309	C	1.496275	0.806952	1.137147
N310	N	0.804209	0.193900	0.491281
N311	N	1.137542	0.527233	0.824614
N312	N	1.470875	0.860567	1.157948
C313	C	0.826155	0.139499	0.308919
C314	C	1.159488	0.472832	0.642253
C315	C	1.492822	0.806166	0.975586
N316	N	0.798169	0.191832	0.281055
N317	N	1.131503	0.525166	0.614388
N318	N	1.464836	0.858499	0.947722
