data_functionalizedCrystal
_audit_creation_method	'MofGen! by Chris Wilmer'
_symmetry_space_group_name_H-M	'P1'
_symmetry_Int_Tables_number	1
_symmetry_cell_setting	triclinic
loop_
_symmetry_equiv_pos_as_xyz
  x,y,z
_cell_length_a	17.077404
_cell_length_b	12.759399
_cell_length_c	17.077396
_cell_angle_alpha	89.973164
_cell_angle_beta	89.982756
_cell_angle_gamma	90.015341
loop_
_atom_site_label
_atom_site_type_symbol
_atom_site_fract_x
_atom_site_fract_y
_atom_site_fract_z
Zn1	Zn	1.200080	-0.418251	-0.443856
Zn2	Zn	1.200010	-0.593954	-0.312596
Zn3	Zn	1.068817	-0.418291	-0.312604
Zn4	Zn	1.068797	-0.593890	-0.443820
O5	O	1.134426	-0.506097	-0.378219
O6	O	1.309917	-0.441569	-0.426456
O7	O	1.182585	-0.570696	-0.202750
O8	O	1.086266	-0.271264	-0.330034
O9	O	1.309866	-0.570658	-0.330020
O10	O	1.182705	-0.271236	-0.426464
O11	O	1.086198	-0.441637	-0.202756
O12	O	0.958967	-0.441574	-0.329998
O13	O	1.086233	-0.570547	-0.553671
O14	O	0.958953	-0.570585	-0.426402
O15	O	1.182686	-0.441506	-0.553698
O16	O	1.182567	-0.740967	-0.329984
O17	O	1.086165	-0.740919	-0.426394
C18	C	0.930478	-0.506077	-0.378197
C19	C	0.843228	-0.506095	-0.378207
C20	C	0.802251	-0.573372	-0.428323
C21	C	0.720271	-0.573375	-0.428336
C22	C	0.679269	-0.506104	-0.378227
C23	C	0.720251	-0.438819	-0.328108
C24	C	0.802230	-0.438812	-0.328100
C25	C	0.549381	-0.438839	-0.328127
C26	C	0.467397	-0.438847	-0.328134
C27	C	0.467422	-0.573402	-0.428363
C28	C	0.549401	-0.573395	-0.428355
C29	C	0.590378	-0.506111	-0.378235
C30	C	1.134378	-0.779064	-0.378201
C31	C	1.134429	-0.895841	-0.378220
C32	C	1.184682	-0.950692	-0.328076
C33	C	1.184733	-1.060416	-0.328103
C34	C	1.084269	-1.060427	-0.428418
C35	C	1.084224	-0.950705	-0.428395
C36	C	1.277388	-1.210292	-0.300171
C37	C	1.327635	-1.265148	-0.250016
C38	C	1.339718	-1.229600	-0.173426
C39	C	1.301543	-1.139199	-0.146975
C40	C	1.251291	-1.084349	-0.197127
C41	C	1.239223	-1.119895	-0.273728
C42	C	0.991567	-0.800827	-0.456318
C43	C	0.941310	-0.745975	-0.506466
C44	C	0.929219	-0.781521	-0.583058
C45	C	0.967380	-0.871926	-0.609505
C46	C	1.017636	-0.926778	-0.559357
C47	C	1.029729	-0.891225	-0.482766
C48	C	1.339170	-0.506116	-0.378241
C49	C	1.426420	-0.506125	-0.378251
C50	C	1.134465	-0.506015	-0.582963
C51	C	1.134482	-0.505980	-0.670213
C52	C	1.134495	-0.232063	-0.378254
C53	C	1.134525	-0.115287	-0.378269
C54	C	1.084309	-0.438771	-0.711206
C55	C	1.084321	-0.438747	-0.793186
C56	C	1.134512	-0.505928	-0.834173
C57	C	1.184688	-0.573145	-0.793174
C58	C	1.184670	-0.573173	-0.711195
C59	C	1.184722	-0.573079	-0.964044
C60	C	1.184740	-0.573050	-1.046029
C61	C	1.084373	-0.438653	-1.046036
C62	C	1.084355	-0.438682	-0.964057
C63	C	1.134532	-0.505897	-0.923064
C64	C	1.134432	-0.506102	-0.174271
C65	C	1.134567	-0.505840	-0.087022
H66	H	0.582742	-0.384040	-0.287321
O67	O	1.210126	-0.986836	-0.168625
H68	H	1.172717	-1.006754	-0.117579
O69	O	0.846433	-0.366261	-0.274037
H70	H	0.804151	-0.319494	-0.239187
O71	O	1.030203	-0.366251	-0.837392
H72	H	0.990251	-0.413255	-0.874721
H73	H	1.380631	-1.274271	-0.132589
O74	O	0.423152	-0.366305	-0.274094
H75	H	0.438880	-0.283862	-0.287664
H76	H	1.048712	-1.000387	-0.580899
H77	H	1.001414	-0.771872	-0.393953
O78	O	0.954348	-0.910273	-0.692117
H79	H	0.912998	-0.856937	-0.722547
H80	H	1.043518	-0.383923	-1.079416
O81	O	0.676155	-0.646037	-0.482384
H82	H	0.638819	-0.599197	-0.522450
H83	H	0.686861	-0.384041	-0.287312
H84	H	1.225588	-0.627804	-0.930671
O85	O	1.264336	-1.248649	-0.382776
H86	H	1.299304	-1.320740	-0.392730
O87	O	0.874798	-0.722563	-0.637057
H88	H	0.872726	-0.762550	-0.694727
H89	H	0.910242	-0.672358	-0.484928
O90	O	1.238838	-0.891512	-0.273971
H91	H	1.273797	-0.948092	-0.239115
O92	O	0.846464	-0.645923	-0.482383
H93	H	0.883834	-0.598952	-0.522371
O94	O	1.030226	-0.366220	-0.919846
H95	H	1.065374	-0.312786	-0.882515
H96	H	1.043442	-0.384059	-0.677841
H97	H	0.582782	-0.628179	-0.469153
H98	H	1.358717	-1.338752	-0.271559
H99	H	0.434054	-0.628184	-0.469175
H100	H	1.225610	-0.627754	-1.079398
O101	O	1.238823	-0.645612	-0.837373
H102	H	1.278788	-0.598582	-0.874727
H103	H	1.225533	-0.627894	-0.677820
H104	H	1.043393	-1.105111	-0.469268
O105	O	1.314573	-1.100857	-0.064363
H106	H	1.355935	-1.154178	-0.033936
