data_functionalizedCrystal
_audit_creation_method	'MofGen! by Chris Wilmer'
_symmetry_space_group_name_H-M	'P1'
_symmetry_Int_Tables_number	1
_symmetry_cell_setting	triclinic
loop_
_symmetry_equiv_pos_as_xyz
  x,y,z
_cell_length_a	10.654556
_cell_length_b	23.532357
_cell_length_c	9.730223
_cell_angle_alpha	89.993164
_cell_angle_beta	89.999363
_cell_angle_gamma	83.657850
loop_
_atom_site_label
_atom_site_type_symbol
_atom_site_fract_x
_atom_site_fract_y
_atom_site_fract_z
O1	O	1.665263	0.080001	-0.114322
O2	O	1.299541	0.087618	-0.114324
O3	O	1.493463	0.000948	-0.114295
O4	O	1.471341	0.166671	-0.114351
O5	O	1.493461	0.000950	0.114285
O6	O	1.299539	0.087620	0.114256
O7	O	1.665261	0.080003	0.114258
Zn8	Zn	1.482400	0.083812	0.150549
Zn9	Zn	1.482403	0.083809	-0.150615
O10	O	1.471339	0.166673	0.114228
C11	C	1.252760	0.087059	-0.000034
C12	C	1.113371	0.085383	-0.000033
C13	C	0.916918	0.083024	-0.124642
C14	C	1.047890	0.084595	-0.124637
C15	C	1.047876	0.084594	0.124574
C16	C	0.916908	0.083019	0.124567
C17	C	0.916926	0.083027	-0.268522
C18	C	1.047898	0.084598	-0.268517
C19	C	1.492909	-0.020271	-0.000001
C20	C	1.491245	-0.083501	0.000012
C21	C	1.480802	-0.475582	-0.124661
C22	C	1.479221	-0.534991	-0.124669
O23	O	1.478361	-0.565714	-0.230635
N24	N	1.478435	-0.564706	-0.000072
C25	C	1.479219	-0.535008	0.124542
O26	O	1.478404	-0.565738	0.230521
C27	C	1.480791	-0.475599	0.124548
C28	C	1.481589	-0.445887	-0.000057
C29	C	1.481599	-0.445870	-0.249256
C30	C	1.483183	-0.386465	-0.249248
C31	C	1.483970	-0.356770	-0.124644
C32	C	1.483173	-0.386482	-0.000049
C33	C	1.481565	-0.445901	0.249160
C34	C	1.483137	-0.386488	0.249156
C35	C	1.483935	-0.356776	0.124550
C36	C	1.485544	-0.297382	0.124563
N37	N	1.486329	-0.267667	-0.000034
C38	C	1.485542	-0.297361	-0.124638
C39	C	1.475914	-0.659771	0.124519
C40	C	1.474351	-0.719180	0.124514
C41	C	1.474351	-0.719159	-0.124697
C42	C	1.475923	-0.659750	-0.124691
C43	C	1.476700	-0.630056	-0.000078
C44	C	1.488869	-0.172605	-0.124611
C45	C	1.490458	-0.113195	-0.124591
C46	C	1.490452	-0.113221	0.124619
C47	C	1.488869	-0.172626	0.124600
C48	C	1.488074	-0.202317	-0.000026
O49	O	1.486399	-0.266621	0.230475
O50	O	1.486340	-0.266623	-0.230599
C51	C	1.712042	0.080562	-0.000036
C52	C	1.851431	0.082237	-0.000045
C53	C	1.471893	0.187892	-0.000069
C54	C	1.473557	0.251121	-0.000091
N55	N	1.482407	0.083813	0.356085
N56	N	1.482406	0.083803	-0.356152
C57	C	1.568297	0.045449	0.428024
C58	C	1.568294	0.045442	0.571907
C59	C	1.396506	0.122169	0.571900
C60	C	1.396504	0.122173	0.428019
C61	C	1.667481	0.001153	0.428030
C62	C	1.667478	0.001146	0.571913
H63	H	1.100906	0.044039	-0.313149
F64	F	1.078679	0.137155	-0.340729
H65	H	1.638292	-0.040218	0.616542
H66	H	0.863921	0.123584	-0.313180
H67	H	1.326566	0.153400	0.630484
H68	H	1.488215	-0.196772	-0.226093
F69	F	1.305076	0.162998	0.351457
F70	F	1.641289	-0.056059	0.376996
F71	F	1.473505	-0.750771	-0.257313
H72	H	1.491111	-0.089007	-0.226064
H73	H	1.758220	0.015024	0.383398
H74	H	1.476571	-0.635562	-0.226156
F75	F	1.484024	-0.354850	-0.381871
F76	F	0.886159	0.030472	-0.340716
H77	H	1.763676	0.010904	0.610960
H78	H	1.476550	-0.635598	0.225999
F79	F	0.847217	0.082178	0.257179
F80	F	1.480761	-0.477464	-0.381888
F81	F	1.491292	-0.081608	0.257224
F82	F	1.473524	-0.750796	0.257136
F83	F	1.483963	-0.354889	0.381789
F84	F	1.480711	-0.477509	0.381784
F85	F	1.117571	0.085427	0.257187
F86	F	1.488043	-0.204250	0.257218
