data_functionalizedCrystal
_audit_creation_method	'MofGen! by Chris Wilmer'
_symmetry_space_group_name_H-M	'P1'
_symmetry_Int_Tables_number	1
_symmetry_cell_setting	triclinic
loop_
_symmetry_equiv_pos_as_xyz
  x,y,z
_cell_length_a	14.044220
_cell_length_b	10.723024
_cell_length_c	9.798715
_cell_angle_alpha	90.003391
_cell_angle_beta	89.995876
_cell_angle_gamma	91.171627
loop_
_atom_site_label
_atom_site_type_symbol
_atom_site_fract_x
_atom_site_fract_y
_atom_site_fract_z
O1	O	0.133040	-1.670498	-0.113486
O2	O	0.466373	-1.337164	0.219847
O3	O	0.799706	-1.003831	0.553180
O4	O	0.145774	-1.308619	-0.113491
O5	O	0.479108	-0.975286	0.219842
O6	O	0.812441	-0.641953	0.553175
O7	O	0.001387	-1.484127	-0.113476
O8	O	0.334721	-1.150793	0.219858
O9	O	0.668054	-0.817460	0.553191
O10	O	0.277427	-1.494990	-0.113502
O11	O	0.610760	-1.161657	0.219831
O12	O	0.944094	-0.828323	0.553164
O13	O	0.001387	-1.484112	0.113507
O14	O	0.334720	-1.150779	0.446840
O15	O	0.668053	-0.817446	0.780173
O16	O	0.145774	-1.308605	0.113491
O17	O	0.479107	-0.975272	0.446824
O18	O	0.812441	-0.641938	0.780157
O19	O	0.133039	-1.670483	0.113496
O20	O	0.466373	-1.337150	0.446829
O21	O	0.799706	-1.003817	0.780162
Zn22	Zn	0.139407	-1.489542	0.149532
Zn23	Zn	0.472740	-1.156208	0.482865
Zn24	Zn	0.806073	-0.822875	0.816198
Zn25	Zn	0.139407	-1.489561	-0.149527
Zn26	Zn	0.472740	-1.156227	0.183806
Zn27	Zn	0.806074	-0.822894	0.517139
O28	O	0.277427	-1.494976	0.113480
O29	O	0.610760	-1.161643	0.446813
O30	O	0.944093	-0.828309	0.780147
C31	C	-0.033958	-1.479364	0.000016
C32	C	0.299375	-1.146031	0.333349
C33	C	0.632708	-0.812697	0.666683
C34	C	-0.139276	-1.465180	0.000018
C35	C	0.194057	-1.131846	0.333351
C36	C	0.527390	-0.798513	0.666684
C37	C	0.144847	-1.262020	-0.000001
C38	C	0.478181	-0.928686	0.333332
C39	C	0.811514	-0.595353	0.666666
C40	C	0.142075	-1.123188	-0.000002
C41	C	0.475408	-0.789855	0.333331
C42	C	0.808741	-0.456521	0.666664
C43	C	0.133966	-1.717083	0.000002
C44	C	0.467300	-1.383749	0.333336
C45	C	0.800633	-1.050416	0.666669
C46	C	0.136739	-1.855914	-0.000005
C47	C	0.470072	-1.522581	0.333328
C48	C	0.803406	-1.189248	0.666661
C49	C	-0.332106	-1.439248	-0.000002
C50	C	0.001227	-1.105914	0.333331
C51	C	0.334560	-0.772581	0.666664
C52	C	-0.389085	-1.539849	-0.000005
C53	C	-0.055752	-1.206516	0.333328
C54	C	0.277581	-0.873183	0.666661
C55	C	-0.496383	-1.525420	-0.000016
C56	C	-0.163049	-1.192087	0.333317
C57	C	0.170284	-0.858754	0.666650
C58	C	-0.224799	-1.453675	0.000009
C59	C	0.108534	-1.120341	0.333342
C60	C	0.441868	-0.787008	0.666675
C61	C	0.312772	-1.499738	-0.000015
C62	C	0.646106	-1.166405	0.333319
C63	C	0.979439	-0.833072	0.666652
C64	C	0.418090	-1.513923	-0.000025
C65	C	0.751424	-1.180589	0.333308
C66	C	1.084757	-0.847256	0.666641
N67	N	0.139406	-1.489538	0.353631
N68	N	0.472739	-1.156205	0.686965
N69	N	0.806072	-0.822871	1.020298
C70	C	0.222866	-1.056288	-0.000011
C71	C	0.556200	-0.722955	0.333322
C72	C	0.889533	-0.389622	0.666656
C73	C	0.220002	-0.912798	-0.000013
C74	C	0.553336	-0.579465	0.333321
C75	C	0.886669	-0.246132	0.666654
N76	N	0.139401	-1.489573	-0.353627
N77	N	0.472734	-1.156240	-0.020294
N78	N	0.806067	-0.822907	0.313040
C79	C	0.078514	-1.563202	0.421415
C80	C	0.411848	-1.229869	0.754748
C81	C	0.745181	-0.896535	1.088082
C82	C	0.078511	-1.563222	0.578578
C83	C	0.411844	-1.229888	0.911911
C84	C	0.745178	-0.896555	1.245244
H85	H	-0.357284	-1.636814	-0.000095
H86	H	-0.023951	-1.303480	0.333238
H87	H	0.309383	-0.970147	0.666571
H88	H	-0.363906	-1.342291	-0.000007
H89	H	-0.030573	-1.008958	0.333326
H90	H	0.302761	-0.675624	0.666660
H91	H	0.070786	-1.074234	-0.000030
H92	H	0.404119	-0.740900	0.333303
H93	H	0.737453	-0.407567	0.666636
H94	H	0.026381	-1.626250	0.363098
H95	H	0.359715	-1.292917	0.696431
H96	H	0.693048	-0.959583	1.029765
H97	H	0.067571	-0.913420	-0.000006
H98	H	0.400905	-0.580086	0.333327
H99	H	0.734238	-0.246753	0.666660
H100	H	0.026383	-1.626294	0.636869
H101	H	0.359716	-1.292960	0.970202
H102	H	0.693050	-0.959627	1.303535
H103	H	0.294155	-1.105243	-0.000010
H104	H	0.627488	-0.771909	0.333323
H105	H	0.960822	-0.438576	0.666656
H106	H	0.191538	-1.426508	0.588091
H107	H	0.524872	-1.093175	0.921424
H108	H	0.858205	-0.759841	1.254758
H109	H	0.191531	-1.426481	0.411950
H110	H	0.524865	-1.093147	0.745283
H111	H	0.858198	-0.759814	1.078617
H112	H	0.289166	-0.855286	-0.000026
H113	H	0.622500	-0.521952	0.333308
H114	H	0.955833	-0.188619	0.666641
