data_functionalizedCrystal
_audit_creation_method	'MofGen! by Chris Wilmer'
_symmetry_space_group_name_H-M	'P1'
_symmetry_Int_Tables_number	1
_symmetry_cell_setting	triclinic
loop_
_symmetry_equiv_pos_as_xyz
  x,y,z
_cell_length_a	12.827893
_cell_length_b	12.827892
_cell_length_c	11.169409
_cell_angle_alpha	90.033086
_cell_angle_beta	90.021188
_cell_angle_gamma	90.015553
loop_
_atom_site_label
_atom_site_type_symbol
_atom_site_fract_x
_atom_site_fract_y
_atom_site_fract_z
Zn1	Zn	1.597689	-0.415944	0.678580
Zn2	Zn	2.097689	0.084056	1.178580
Zn3	Zn	1.597578	-0.590731	0.477894
Zn4	Zn	2.097578	-0.090731	0.977894
Zn5	Zn	1.422925	-0.416005	0.477910
Zn6	Zn	1.922925	0.083995	0.977910
Zn7	Zn	1.422916	-0.590644	0.678535
Zn8	Zn	1.922916	-0.090644	1.178535
O9	O	1.510277	-0.503331	0.578230
O10	O	2.010277	-0.003331	1.078230
O11	O	1.743911	-0.439141	0.651971
O12	O	2.243911	0.060859	1.151971
O13	O	1.574367	-0.567616	0.309947
O14	O	2.074367	-0.067616	0.809947
O15	O	1.446158	-0.269761	0.504555
O16	O	1.946158	0.230239	1.004555
O17	O	1.743828	-0.567556	0.504529
O18	O	2.243828	-0.067556	1.004529
O19	O	1.574557	-0.269716	0.651986
O20	O	2.074557	0.230284	1.151986
O21	O	1.446050	-0.439245	0.309958
O22	O	1.946050	0.060755	0.809958
O23	O	1.276688	-0.439161	0.504510
O24	O	1.776688	0.060839	1.004510
O25	O	1.446143	-0.567407	0.846490
O26	O	1.946143	-0.067407	1.346490
O27	O	1.276681	-0.567467	0.651909
O28	O	1.776681	-0.067467	1.151909
O29	O	1.574548	-0.439056	0.846524
O30	O	2.074548	0.060944	1.346524
O31	O	1.574358	-0.736956	0.504484
O32	O	2.074358	-0.236956	1.004484
O33	O	1.446035	-0.736892	0.651894
O34	O	1.946035	-0.236892	1.151894
C35	C	1.238767	-0.503312	0.578207
C36	C	1.738767	-0.003312	1.078207
C37	C	1.122614	-0.503329	0.578226
C38	C	1.622614	-0.003329	1.078226
C39	C	1.070870	-0.439897	0.651299
C40	C	1.570870	0.060103	1.151299
C41	C	0.950819	-0.439913	0.651320
C42	C	1.450819	0.060087	1.151320
C43	C	1.510212	-0.774841	0.578209
C44	C	2.010212	-0.274841	1.078209
C45	C	1.510279	-0.890994	0.578240
C46	C	2.010279	-0.390994	1.078240
C47	C	1.573853	-0.942776	0.505378
C48	C	2.073853	-0.442776	1.005378
C49	C	1.573924	-1.062826	0.505408
C50	C	2.073924	-0.562826	1.005408
C51	C	1.782847	-0.503351	0.578253
C52	C	2.282847	-0.003351	1.078253
C53	C	1.899000	-0.503360	0.578263
C54	C	2.399000	-0.003360	1.078263
C55	C	1.510357	-0.503215	0.891272
C56	C	2.010357	-0.003215	1.391272
C57	C	1.510391	-0.503166	1.024672
C58	C	2.010391	-0.003166	1.524672
C59	C	1.510371	-0.230761	0.578277
C60	C	2.010371	0.269239	1.078277
C61	C	1.510411	-0.114608	0.578298
C62	C	2.010411	0.385392	1.078298
C63	C	1.510257	-0.503371	0.266405
C64	C	2.010257	-0.003371	0.766405
C65	C	1.510425	-0.503126	0.133006
C66	C	2.010425	-0.003126	0.633006
H67	H	1.078037	-0.557644	0.515678
H68	H	1.578037	-0.057644	1.015678
H69	H	1.628349	-1.107358	0.443025
H70	H	2.128349	-0.607358	0.943025
Cl71	Cl	1.657815	-0.874012	0.409036
Cl72	Cl	2.157815	-0.374012	0.909036
Cl73	Cl	1.426365	-1.045868	0.674609
Cl74	Cl	1.926365	-0.545868	1.174609
H75	H	1.455909	-0.935539	0.640647
H76	H	1.955909	-0.435539	1.140647
Cl77	Cl	0.967690	-0.587217	0.481673
Cl78	Cl	1.467690	-0.087217	0.981673
H79	H	1.115446	-0.385576	0.713839
H80	H	1.615446	0.114424	1.213839
Cl81	Cl	0.882122	-0.356070	0.747920
Cl82	Cl	1.382122	0.143930	1.247920
