data_functionalizedCrystal
_audit_creation_method	'MofGen! by Chris Wilmer'
_symmetry_space_group_name_H-M	'P1'
_symmetry_Int_Tables_number	1
_symmetry_cell_setting	triclinic
loop_
_symmetry_equiv_pos_as_xyz
  x,y,z
_cell_length_a	12.759394
_cell_length_b	18.215407
_cell_length_c	18.215399
_cell_angle_alpha	89.985640
_cell_angle_beta	89.972315
_cell_angle_gamma	90.012280
loop_
_atom_site_label
_atom_site_type_symbol
_atom_site_fract_x
_atom_site_fract_y
_atom_site_fract_z
Zn1	Zn	-0.418324	1.125101	-0.416081
Zn2	Zn	-0.594029	1.125038	-0.293021
Zn3	Zn	-0.418357	1.002040	-0.293034
Zn4	Zn	-0.593954	1.002021	-0.416051
O5	O	-0.506166	1.063550	-0.354547
O6	O	-0.441649	1.228077	-0.399764
O7	O	-0.570771	1.108703	-0.190038
O8	O	-0.271331	1.018399	-0.309375
O9	O	-0.570739	1.228031	-0.309352
O10	O	-0.271307	1.108812	-0.399777
O11	O	-0.441705	1.018338	-0.190048
O12	O	-0.441632	0.899054	-0.309345
O13	O	-0.570611	1.018367	-0.519039
O14	O	-0.570643	0.899040	-0.399725
O15	O	-0.441577	1.108793	-0.519061
O16	O	-0.741040	1.108685	-0.309323
O17	O	-0.740985	1.018305	-0.399712
C18	C	-0.506133	0.872344	-0.354534
C19	C	-0.506145	0.790545	-0.354546
C20	C	-0.439066	0.602375	-0.401698
C21	C	-0.439075	0.525516	-0.401700
C22	C	-0.573295	0.525478	-0.307409
C23	C	-0.573280	0.602335	-0.307403
C24	C	-0.506167	0.640782	-0.354552
C25	C	-0.506191	0.487066	-0.354560
C26	C	-0.506201	0.403732	-0.354562
C27	C	-0.506155	0.724121	-0.354548
C28	C	-0.779133	1.063506	-0.354529
C29	C	-0.895910	1.063555	-0.354546
C30	C	-0.895914	1.157738	-0.260493
C31	C	-0.950777	1.204848	-0.213476
C32	C	-1.060498	1.204891	-0.213496
C33	C	-1.115360	1.157820	-0.260540
C34	C	-1.060497	1.110710	-0.307558
C35	C	-0.950773	1.110670	-0.307531
C36	C	-1.060493	1.016532	-0.401613
C37	C	-0.950771	1.016484	-0.401590
C38	C	-1.115354	0.969461	-0.448657
C39	C	-1.060491	0.922345	-0.495672
C40	C	-0.950763	0.922303	-0.495649
C41	C	-0.895908	0.969373	-0.448607
C42	C	-0.232132	1.063615	-0.354581
C43	C	-0.115356	1.063642	-0.354595
C44	C	-0.506082	1.063585	-0.546500
C45	C	-0.506046	1.063600	-0.628299
C46	C	-0.506199	1.255503	-0.354560
C47	C	-0.506213	1.337302	-0.354566
C48	C	-0.438796	1.016586	-0.816498
C49	C	-0.438775	1.016599	-0.893357
C50	C	-0.573171	1.110702	-0.893336
C51	C	-0.573196	1.110684	-0.816479
C52	C	-0.506003	1.063628	-0.778062
C53	C	-0.505956	1.063658	-0.931778
C54	C	-0.505934	1.063672	-1.015112
C55	C	-0.506027	1.063613	-0.694723
C56	C	-0.506174	1.063558	-0.163340
C57	C	-0.505913	1.063686	-0.081542
H58	H	-0.627936	0.494166	-0.269023
H59	H	-0.384416	0.633675	-0.440087
H60	H	-0.384434	0.494248	-0.440090
Cl61	Cl	-0.657634	1.169857	-0.941637
Cl62	Cl	-0.657631	0.650622	-0.248121
Cl63	Cl	-0.757978	1.157893	-0.260671
H64	H	-0.384083	0.978270	-0.785222
Cl65	Cl	-0.354296	0.957448	-0.941674
Cl66	Cl	-1.253295	1.157565	-0.260252
H67	H	-0.627928	1.148993	-0.785183
H68	H	-0.906099	1.243175	-0.175174
H69	H	-1.105168	1.243256	-0.175214
H70	H	-1.204695	0.969502	-0.448673
Cl71	Cl	-1.129464	0.863182	-0.554811
H72	H	-0.806567	0.969339	-0.448580
Cl73	Cl	-0.881802	0.863079	-0.554765
