data_functionalizedCrystal
_audit_creation_method	'MofGen! by Chris Wilmer'
_symmetry_space_group_name_H-M	'P1'
_symmetry_Int_Tables_number	1
_symmetry_cell_setting	triclinic
loop_
_symmetry_equiv_pos_as_xyz
  x,y,z
_cell_length_a	8.634740
_cell_length_b	11.026607
_cell_length_c	7.681481
_cell_angle_alpha	82.996689
_cell_angle_beta	96.618947
_cell_angle_gamma	104.578162
loop_
_atom_site_label
_atom_site_type_symbol
_atom_site_fract_x
_atom_site_fract_y
_atom_site_fract_z
O1	O	2.147801	0.419033	-0.146415
O2	O	1.689330	0.384744	-0.146420
O3	O	1.880568	0.220792	-0.146411
O4	O	1.956562	0.582985	-0.146423
O5	O	1.904092	0.200559	0.146447
O6	O	1.712853	0.364511	0.146439
O7	O	2.171324	0.398800	0.146444
Zn8	Zn	1.945824	0.378443	0.192939
Zn9	Zn	1.914831	0.405101	-0.192915
O10	O	1.980086	0.562752	0.146435
C11	C	1.641485	0.366859	0.000009
C12	C	1.463873	0.343699	0.000007
C13	C	1.878310	0.163826	0.000016
C14	C	1.836516	0.024226	0.000009
C15	C	1.951915	-0.036087	0.000008
C16	C	1.908721	-0.180371	0.000001
C17	C	2.219169	0.416685	0.000011
C18	C	2.396780	0.439846	0.000002
C19	C	1.982344	0.619718	0.000004
C20	C	2.024137	0.759319	-0.000001
N21	N	1.966987	0.360250	0.456274
N22	N	1.893677	0.423286	-0.456250
H23	H	1.475228	0.539887	0.000010
O24	O	1.752647	-0.246109	-0.000318
C25	C	1.664174	-0.204870	-0.151968
H26	H	1.748947	-0.160211	-0.257976
H27	H	1.570403	-0.288594	-0.202888
H28	H	1.601628	-0.132463	-0.117671
H29	H	1.705741	-0.030955	-0.000004
O30	O	2.180087	-0.174717	-0.000232
C31	C	2.198954	-0.088256	-0.151927
H32	H	2.078252	-0.066994	-0.202496
H33	H	2.288875	0.002538	-0.117813
H34	H	2.244990	-0.130397	-0.258135
H35	H	2.082689	0.019094	0.000020
O36	O	1.804606	0.500131	0.453855
C37	C	1.903060	0.594764	0.347231
H38	H	2.011622	0.561191	0.319771
H39	H	1.831735	0.615757	0.217527
H40	H	1.945434	0.683864	0.418171
H41	H	1.385430	0.243667	-0.000036
O42	O	2.056148	0.283324	0.545793
C43	C	1.991954	0.159217	0.500917
H44	H	1.919883	0.161401	0.367026
H45	H	2.093999	0.111794	0.494777
H46	H	1.910073	0.104102	0.604655
