data_functionalizedCrystal
_audit_creation_method	'MofGen! by Chris Wilmer'
_symmetry_space_group_name_H-M	'P1'
_symmetry_Int_Tables_number	1
_symmetry_cell_setting	triclinic
loop_
_symmetry_equiv_pos_as_xyz
  x,y,z
_cell_length_a	18.101398
_cell_length_b	18.101397
_cell_length_c	16.959447
_cell_angle_alpha	90.033674
_cell_angle_beta	90.006190
_cell_angle_gamma	90.016023
loop_
_atom_site_label
_atom_site_type_symbol
_atom_site_fract_x
_atom_site_fract_y
_atom_site_fract_z
Zn1	Zn	1.132150	-0.294903	0.446719
Zn2	Zn	1.132076	-0.418756	0.314532
Zn3	Zn	1.008316	-0.294923	0.314575
Zn4	Zn	1.008282	-0.418697	0.446690
O5	O	1.070206	-0.356820	0.380629
O6	O	1.235773	-0.311348	0.429178
O7	O	1.115643	-0.402362	0.203927
O8	O	1.024788	-0.191287	0.332134
O9	O	1.235719	-0.402342	0.332062
O10	O	1.115768	-0.191273	0.429220
O11	O	1.024717	-0.311383	0.203958
O12	O	0.904679	-0.311326	0.332106
O13	O	1.024730	-0.402243	0.557305
O14	O	0.904654	-0.402263	0.429170
O15	O	1.115735	-0.311292	0.557326
O16	O	1.115610	-0.522381	0.332034
O17	O	1.024659	-0.522338	0.429129
C18	C	0.877796	-0.356791	0.380640
C19	C	0.795482	-0.356796	0.380664
C20	C	0.496391	-0.356840	0.380630
C21	C	0.527725	-0.414331	0.441399
C22	C	0.613343	-0.414151	0.441649
C23	C	0.644773	-0.356819	0.380647
C24	C	0.613703	-0.278815	0.403415
C25	C	0.528058	-0.279161	0.403847
C26	C	0.527947	-0.376664	0.296948
C27	C	0.613597	-0.378375	0.297395
C28	C	0.728633	-0.356802	0.380655
C29	C	0.412531	-0.356851	0.380625
C30	C	1.070143	-0.549230	0.380591
C31	C	1.070183	-0.631544	0.380601
C32	C	1.070278	-0.930635	0.380673
C33	C	1.127342	-0.899306	0.319419
C34	C	1.127540	-0.813688	0.319578
C35	C	1.070231	-0.782253	0.380636
C36	C	1.091382	-0.813258	0.463950
C37	C	1.091824	-0.898903	0.463616
C38	C	0.991910	-0.899139	0.359334
C39	C	0.992298	-0.813490	0.357474
C40	C	1.070203	-0.698393	0.380621
C41	C	1.070308	-1.014495	0.380694
C42	C	1.263368	-0.356850	0.380618
C43	C	1.345682	-0.356862	0.380614
C44	C	1.070237	-0.356759	0.586797
C45	C	1.070250	-0.356732	0.674654
C46	C	1.070290	-0.163658	0.380685
C47	C	1.070326	-0.081344	0.380709
C48	C	1.070218	-0.356827	0.175263
C49	C	1.070348	-0.356645	0.087407
C50	C	1.022957	-0.404008	1.046121
C51	C	1.117721	-0.309300	1.046138
C52	C	1.117701	-0.309316	0.963592
C53	C	1.070309	-0.356679	0.922307
C54	C	1.022937	-0.404027	0.963568
C55	C	1.165078	-0.261974	0.922326
C56	C	1.165060	-0.261989	0.839775
C57	C	1.117664	-0.309349	0.798488
C58	C	1.070289	-0.356698	0.839753
C59	C	1.022898	-0.404062	0.798468
C60	C	0.975519	-0.451408	0.839732
C61	C	0.975541	-0.451388	0.922281
C62	C	1.117642	-0.309369	0.715939
C63	C	1.022878	-0.404080	0.715914
H64	H	0.634061	-0.234819	0.360534
H65	H	0.507330	-0.234790	0.361615
H66	H	1.203666	-0.223418	0.955946
N67	N	0.639699	-0.486713	0.423741
N68	N	0.623139	-0.516464	0.359597
H69	H	0.641749	-0.567715	0.346951
H70	H	1.156219	-0.270823	0.682346
N71	N	0.500829	-0.446791	0.270991
N72	N	0.457910	-0.483013	0.313859
H73	H	0.438756	-0.532543	0.295535
H74	H	0.506208	-0.401381	0.503044
H75	H	0.984380	-0.442554	1.079722
H76	H	0.635161	-0.261698	0.463925
N77	N	0.640433	-0.329646	0.237554
N78	N	0.627017	-0.262013	0.241553
H79	H	0.645971	-0.227590	0.199293
N80	N	0.936087	-0.786649	0.409336
N81	N	0.924488	-0.718779	0.414937
H82	H	0.884791	-0.699822	0.451571
H83	H	0.633840	-0.401034	0.503652
N84	N	1.041966	-0.924916	0.522829
N85	N	1.033415	-0.992751	0.533136
H86	H	0.998209	-1.011122	0.574959
H87	H	1.156309	-0.270743	1.079758
H88	H	0.507121	-0.472364	0.427289
H89	H	1.203639	-0.223436	0.806184
H90	H	1.051090	-0.792893	0.510815
H91	H	0.507683	-0.334787	0.251669
H92	H	0.936970	-0.489936	0.955885
H93	H	0.936935	-0.489974	0.806107
N94	N	0.639090	-0.450382	0.275866
N95	N	0.706808	-0.462749	0.270088
H96	H	0.724821	-0.513604	0.254888
N97	N	0.503015	-0.258065	0.480592
N98	N	0.548789	-0.243192	0.533463
H99	H	0.531106	-0.228293	0.587667
N100	N	1.110936	-0.787400	0.242080
N101	N	1.099122	-0.832308	0.187496
H102	H	1.087397	-0.813747	0.132758
H103	H	1.185075	-0.920778	0.333375
N104	N	1.110944	-0.925216	0.241693
N105	N	1.057012	-0.967077	0.230532
H106	H	1.045429	-0.985382	0.175636
H107	H	1.185590	-0.793148	0.333696
H108	H	1.148024	-0.791754	0.482332
H109	H	1.149107	-0.918825	0.481693
N110	N	0.967784	-0.926305	0.284436
N111	N	1.004913	-0.913172	0.223904
H112	H	0.987882	-0.932358	0.171004
H113	H	0.976349	-0.793233	0.296163
H114	H	0.949393	-0.919400	0.403948
H115	H	0.984279	-0.442643	0.682306
