data_functionalizedCrystal
_audit_creation_method	'MofGen! by Chris Wilmer'
_symmetry_space_group_name_H-M	'P1'
_symmetry_Int_Tables_number	1
_symmetry_cell_setting	triclinic
loop_
_symmetry_equiv_pos_as_xyz
  x,y,z
_cell_length_a	13.897449
_cell_length_b	13.897447
_cell_length_c	12.759393
_cell_angle_alpha	90.031000
_cell_angle_beta	90.024249
_cell_angle_gamma	90.020357
loop_
_atom_site_label
_atom_site_type_symbol
_atom_site_fract_x
_atom_site_fract_y
_atom_site_fract_z
Zn1	Zn	1.474698	-0.383947	0.594109
Zn2	Zn	1.974698	0.116053	1.094109
Zn3	Zn	1.474585	-0.545273	0.418428
Zn4	Zn	1.974585	-0.045273	0.918428
Zn5	Zn	1.313385	-0.383996	0.418434
Zn6	Zn	1.813385	0.116004	0.918434
Zn7	Zn	1.313364	-0.545204	0.594055
Zn8	Zn	1.813364	-0.045204	1.094055
O9	O	1.394008	-0.464605	0.506257
O10	O	1.894008	0.035395	1.006257
O11	O	1.609665	-0.405356	0.570825
O12	O	2.109665	0.094644	1.070825
O13	O	1.453163	-0.523929	0.271408
O14	O	1.953163	-0.023929	0.771408
O15	O	1.334840	-0.249008	0.441763
O16	O	1.834840	0.250992	0.941763
O17	O	1.609582	-0.523881	0.441752
O18	O	2.109582	-0.023881	0.941752
O19	O	1.453356	-0.248972	0.570831
O20	O	1.953356	0.251028	1.070831
O21	O	1.334730	-0.405440	0.271412
O22	O	1.834730	0.094560	0.771412
O23	O	1.178401	-0.405372	0.441711
O24	O	1.678401	0.094628	0.941711
O25	O	1.334804	-0.523763	0.741083
O26	O	1.834804	-0.023763	1.241083
O27	O	1.178385	-0.523811	0.570738
O28	O	1.678385	-0.023811	1.070738
O29	O	1.453336	-0.405288	0.741123
O30	O	1.953336	0.094712	1.241123
O31	O	1.453142	-0.680246	0.441700
O32	O	1.953142	-0.180246	0.941700
O33	O	1.334694	-0.680195	0.570732
O34	O	1.834694	-0.180195	1.070732
C35	C	1.143394	-0.464590	0.506220
C36	C	1.643394	0.035410	1.006220
C37	C	1.036180	-0.464607	0.506229
C38	C	1.536180	0.035393	1.006229
C39	C	1.393930	-0.715219	0.506232
C40	C	1.893930	-0.215219	1.006232
C41	C	1.393984	-0.822433	0.506257
C42	C	1.893984	-0.322433	1.006257
C43	C	0.949110	-0.464610	0.506247
C44	C	1.449110	0.035390	1.006247
C45	C	0.839878	-0.464617	0.506279
C46	C	1.339878	0.035383	1.006279
C47	C	1.394031	-0.909503	0.506281
C48	C	1.894031	-0.409503	1.006281
C49	C	1.394099	-1.018736	0.506308
C50	C	1.894099	-0.518736	1.006308
C51	C	1.645601	-0.464621	0.506294
C52	C	2.145601	0.035379	1.006294
C53	C	1.752815	-0.464627	0.506310
C54	C	2.252815	0.035373	1.006310
C55	C	1.394080	-0.464513	0.780290
C56	C	1.894080	0.035487	1.280290
C57	C	1.394111	-0.464473	0.897067
C58	C	1.894111	0.035527	1.397067
C59	C	1.394113	-0.213012	0.506304
C60	C	1.894113	0.286988	1.006304
C61	C	1.394158	-0.105798	0.506324
C62	C	1.894158	0.394202	1.006324
C63	C	1.393992	-0.464628	0.233289
C64	C	1.893992	0.035372	0.733289
C65	C	1.394148	-0.464395	0.116513
C66	C	1.894148	0.035605	0.616513
C67	C	1.455835	-0.402773	0.951951
C68	C	1.955835	0.097227	1.451951
C69	C	1.455851	-0.402732	1.061675
C70	C	1.955851	0.097268	1.561675
C71	C	1.332417	-0.526098	1.061621
C72	C	1.832417	-0.026098	1.561621
C73	C	1.332397	-0.526134	0.951899
C74	C	1.832397	-0.026134	1.451899
H75	H	1.506084	-0.352562	0.907310
H76	H	2.006084	0.147438	1.407310
O77	O	1.272525	-0.586132	1.114773
O78	O	1.772525	-0.086132	1.614773
C79	C	1.293575	-0.682280	1.087965
C80	C	1.793575	-0.182280	1.587965
H81	H	1.330637	-0.684308	1.008306
H82	H	1.830637	-0.184308	1.508306
H83	H	1.223941	-0.725529	1.084188
H84	H	1.723941	-0.225529	1.584188
H85	H	1.343167	-0.714753	1.149721
H86	H	1.843167	-0.214753	1.649721
O87	O	1.272570	-0.586122	0.898461
O88	O	1.772570	-0.086122	1.398461
C89	C	1.327450	-0.648461	0.835012
C90	C	1.827450	-0.148461	1.335012
H91	H	1.400562	-0.614453	0.818604
H92	H	1.900562	-0.114453	1.318604
H93	H	1.288142	-0.661404	0.757840
H94	H	1.788142	-0.161404	1.257840
H95	H	1.338022	-0.719933	0.877282
H96	H	1.838022	-0.219933	1.377282
O97	O	1.515903	-0.342768	1.114827
O98	O	2.015903	0.157232	1.614827
C99	C	1.570347	-0.288338	1.042898
C100	C	2.070347	0.211662	1.542898
H101	H	1.573654	-0.327877	0.964679
H102	H	2.073654	0.172123	1.464679
H103	H	1.646357	-0.278046	1.074621
H104	H	2.146357	0.221954	1.574621
H105	H	1.535057	-0.215080	1.031231
H106	H	2.035057	0.284920	1.531231
