data_functionalizedCrystal
_audit_creation_method	'MofGen! by Chris Wilmer'
_symmetry_space_group_name_H-M	'P1'
_symmetry_Int_Tables_number	1
_symmetry_cell_setting	triclinic
loop_
_symmetry_equiv_pos_as_xyz
  x,y,z
_cell_length_a	10.723024
_cell_length_b	10.723024
_cell_length_c	13.448316
_cell_angle_alpha	89.994589
_cell_angle_beta	89.993562
_cell_angle_gamma	84.467869
loop_
_atom_site_label
_atom_site_type_symbol
_atom_site_fract_x
_atom_site_fract_y
_atom_site_fract_z
O1	O	1.657192	0.175030	-0.082683
O2	O	1.294040	0.191784	-0.082686
O3	O	1.483993	0.001831	-0.082680
O4	O	1.467239	0.364983	-0.082688
O5	O	1.483969	0.001819	0.082703
O6	O	1.294016	0.191772	0.082698
O7	O	1.657168	0.175018	0.082701
Cu8	Cu	1.475590	0.183394	0.097800
Cu9	Cu	1.475618	0.183408	-0.097785
O10	O	1.467215	0.364971	0.082696
C11	C	1.247528	0.190558	0.000006
C12	C	1.108974	0.186911	0.000004
C13	C	1.033991	0.293198	0.000002
C14	C	0.890788	0.289431	0.000000
C15	C	1.482762	-0.044675	0.000010
C16	C	1.479114	-0.183229	0.000007
C17	C	1.585401	-0.258212	0.000006
C18	C	1.581634	-0.401415	0.000003
C19	C	1.703680	0.176243	0.000007
C20	C	1.842234	0.179891	0.000002
C21	C	1.468447	0.411477	0.000003
C22	C	1.472094	0.550031	-0.000000
N23	N	1.475579	0.183383	0.235365
N24	N	1.475639	0.183409	-0.235349
C25	C	1.559716	0.099307	0.287407
C26	C	1.559724	0.099306	0.391511
C27	C	1.475599	0.183388	0.443569
C28	C	1.391453	0.267468	0.391519
C29	C	1.391440	0.267462	0.287418
C30	C	1.391487	0.267477	0.608499
C31	C	1.391501	0.267485	0.712608
C32	C	1.559772	0.099321	0.712592
C33	C	1.559759	0.099315	0.608491
C34	C	1.475613	0.183397	0.556448
H35	H	0.906659	0.088896	-0.000002
H36	H	1.067152	0.093125	-0.000019
C37	C	1.712107	-0.201725	0.000009
C38	C	1.745563	-0.116006	0.085891
C39	C	1.872273	-0.059522	0.085895
C40	C	1.965525	-0.088756	0.000016
C41	C	1.932071	-0.174479	-0.085872
C42	C	1.805362	-0.230963	-0.085876
H43	H	1.676530	-0.094361	0.149470
H44	H	1.897037	0.003936	0.149475
H45	H	2.059323	-0.046943	0.000018
H46	H	2.001104	-0.196124	-0.149451
H47	H	1.780597	-0.294421	-0.149456
C48	C	1.298889	0.359950	0.230168
C49	C	1.206396	0.452484	0.287427
C50	C	1.113837	0.544970	0.230178
C51	C	1.113771	0.544923	0.115671
C52	C	1.206267	0.452386	0.058406
C53	C	1.298826	0.359900	0.115654
H54	H	1.206442	0.452522	0.372198
H55	H	1.045366	0.613472	0.272570
H56	H	1.045253	0.613387	0.073292
H57	H	1.206221	0.452349	-0.026365
H58	H	1.367297	0.291398	0.073262
C59	C	1.652295	0.006828	0.551221
C60	C	1.648998	-0.135300	0.565541
C61	C	1.741531	-0.227790	0.508270
C62	C	1.837363	-0.178151	0.436678
C63	C	1.840664	-0.036016	0.422355
C64	C	1.748130	0.056474	0.479626
H65	H	1.578054	-0.172053	0.618540
H66	H	1.739087	-0.333008	0.518873
H67	H	1.905862	-0.246618	0.394282
H68	H	1.911608	0.000736	0.369355
H69	H	1.750575	0.161692	0.469023
C70	C	1.298954	0.359969	0.769870
C71	C	1.156838	0.356554	0.755585
C72	C	1.064287	0.449040	0.812844
C73	C	1.113852	0.544941	0.884388
C74	C	1.255975	0.548360	0.898676
C75	C	1.348526	0.455874	0.841417
H76	H	1.120140	0.285559	0.702621
H77	H	0.959077	0.446508	0.802267
H78	H	1.045340	0.613404	0.926775
H79	H	1.292673	0.619355	0.951640
H80	H	1.453736	0.458405	0.851994
H81	H	1.075814	0.386984	0.000005
H82	H	1.672624	-0.465848	0.000007
H83	H	0.826355	0.380421	-0.000006
H84	H	1.381099	-0.385544	0.000007
H85	H	1.385328	-0.225051	-0.000001
H86	H	1.628226	0.030843	0.245028
H87	H	1.628235	0.030844	0.433883
H88	H	1.628285	0.030859	0.754971
H89	H	1.322963	0.335941	0.566130
H90	H	1.322950	0.335925	0.433911
