data_functionalizedCrystal
_audit_creation_method	'MofGen! by Chris Wilmer'
_symmetry_space_group_name_H-M	'P1'
_symmetry_Int_Tables_number	1
_symmetry_cell_setting	triclinic
loop_
_symmetry_equiv_pos_as_xyz
  x,y,z
_cell_length_a	15.944551
_cell_length_b	9.065218
_cell_length_c	7.540329
_cell_angle_alpha	89.999489
_cell_angle_beta	90.006493
_cell_angle_gamma	95.742688
loop_
_atom_site_label
_atom_site_type_symbol
_atom_site_fract_x
_atom_site_fract_y
_atom_site_fract_z
O1	O	0.123163	-1.957514	0.147492
O2	O	0.133266	-1.527993	0.147494
O3	O	0.006029	-1.754483	0.147477
O4	O	0.250400	-1.731024	0.147509
O5	O	0.006021	-1.754481	-0.147488
O6	O	0.133259	-1.527991	-0.147471
O7	O	0.123156	-1.957512	-0.147473
Cu8	Cu	0.128207	-1.742751	-0.174405
Cu9	Cu	0.128215	-1.742753	0.174426
O10	O	0.250393	-1.731022	-0.147456
C11	C	-0.025276	-1.753508	-0.000006
C12	C	-0.118544	-1.750588	-0.000007
C13	C	0.132291	-1.473028	0.000012
C14	C	0.129388	-1.309253	0.000013
N15	N	0.128215	-1.742756	0.419774
C16	C	-0.334518	-1.603221	0.000019
C17	C	-0.395020	-1.671652	-0.145418
C18	C	-0.289310	-1.745306	0.000007
C19	C	-0.394996	-1.671688	0.145395
C20	C	-0.454262	-1.740194	0.000028
C21	C	-0.348584	-1.813777	-0.145549
C22	C	-0.348554	-1.813792	0.145394
C23	C	-0.409038	-1.882327	-0.000078
C24	C	-0.194286	-1.748247	-0.000007
C25	C	-0.549285	-1.737264	0.000029
C26	C	0.281698	-1.731997	0.000031
C27	C	0.374966	-1.734917	0.000043
C28	C	0.124131	-2.012477	0.000013
C29	C	0.127034	-2.176252	0.000024
N30	N	0.128200	-1.742761	-0.419753
H31	H	-0.302103	-1.485283	-0.000126
H32	H	-0.327966	-1.873838	0.268354
H33	H	-0.328142	-1.873822	-0.268639
F34	F	-0.421902	-1.593105	-0.306129
H35	H	-0.441303	-2.000369	-0.000161
H36	H	-0.415526	-1.611573	0.268358
