data_functionalizedCrystal
_audit_creation_method	'MofGen! by Chris Wilmer'
_symmetry_space_group_name_H-M	'P1'
_symmetry_Int_Tables_number	1
_symmetry_cell_setting	triclinic
loop_
_symmetry_equiv_pos_as_xyz
  x,y,z
_cell_length_a	11.026607
_cell_length_b	10.489741
_cell_length_c	10.065875
_cell_angle_alpha	98.879541
_cell_angle_beta	79.302338
_cell_angle_gamma	96.562595
loop_
_atom_site_label
_atom_site_type_symbol
_atom_site_fract_x
_atom_site_fract_y
_atom_site_fract_z
O1	O	1.632468	0.520484	-0.113500
O2	O	1.278630	0.459543	-0.113501
O3	O	1.463599	0.306188	-0.113492
O4	O	1.447499	0.673839	-0.113509
O5	O	1.428329	0.335581	0.113495
O6	O	1.243360	0.488935	0.113486
O7	O	1.597198	0.549877	0.113487
Zn8	Zn	1.414679	0.524073	0.149526
Zn9	Zn	1.461149	0.485347	-0.149540
O10	O	1.412229	0.703232	0.113478
C11	C	1.215686	0.462996	-0.000008
C12	C	1.080679	0.429482	-0.000008
C13	C	1.007682	0.522021	-0.000013
C14	C	0.868146	0.487384	-0.000013
C15	C	1.444748	0.273085	0.000000
C16	C	1.441110	0.130655	-0.000002
C17	C	1.323420	0.036624	-0.000012
C18	C	1.361626	-0.028776	0.111904
C19	C	1.396427	-0.057724	-0.111887
C20	C	1.479350	0.067142	0.112007
C21	C	1.514151	0.038187	-0.111885
C22	C	1.552438	-0.027164	0.000059
C23	C	1.660143	0.546423	-0.000009
C24	C	1.795151	0.579937	-0.000018
C25	C	1.431080	0.736334	-0.000017
C26	C	1.434720	0.878763	-0.000024
N27	N	1.382974	0.550504	0.353630
N28	N	1.492864	0.458908	-0.353644
C29	C	1.450110	0.494533	0.421412
C30	C	1.425718	0.514887	0.578578
H31	H	0.835951	0.684814	-0.000014
C32	C	1.550685	0.410340	0.343695
C33	C	1.524205	0.284669	0.378296
C34	C	1.616823	0.207081	0.306705
H35	H	1.628476	0.445518	0.366954
H36	H	1.553666	0.407759	0.248390
H37	H	1.521238	0.287254	0.473580
H38	H	1.446431	0.249454	0.355033
H39	H	1.619804	0.204500	0.211400
H40	H	1.694608	0.242270	0.329970
H41	H	1.598864	0.121802	0.330162
H42	H	1.039875	0.324609	-0.000038
H43	H	1.649281	-0.055275	0.000121
C44	C	1.194308	0.074440	0.000411
C45	C	1.115001	0.040931	0.117868
C46	C	0.996061	0.075765	0.118320
H47	H	1.164140	0.030024	-0.078197
H48	H	1.197590	0.165233	-0.000327
H49	H	1.111714	-0.049845	0.118593
H50	H	1.145128	0.085343	0.196494
H51	H	0.999343	0.166558	0.117582
H52	H	0.965906	0.031346	0.039708
H53	H	0.942240	0.053045	0.198019
H54	H	1.307434	0.613486	0.411952
C55	C	1.600281	0.077700	-0.238003
C56	C	1.719586	0.043658	-0.238871
C57	C	1.798949	0.080022	-0.355050
H58	H	1.602698	0.168682	-0.236748
H59	H	1.570778	0.034453	-0.317488
H60	H	1.749082	0.086908	-0.159407
H61	H	1.717209	-0.047318	-0.240146
H62	H	1.769445	0.036776	-0.434534
H63	H	1.801355	0.171003	-0.353784
H64	H	1.879903	0.056919	-0.355660
H65	H	1.048490	0.626890	-0.000010
C66	C	1.324803	0.598678	0.656256
C67	C	1.210394	0.546301	0.621649
C68	C	1.117403	0.623440	0.693193
H69	H	1.342410	0.684021	0.632962
H70	H	1.321711	0.601170	0.751568
H71	H	1.213487	0.543823	0.526358
H72	H	1.192747	0.460966	0.644946
H73	H	1.114311	0.625933	0.788505
H74	H	1.135022	0.708781	0.669894
H75	H	1.039764	0.587908	0.669732
C76	C	1.349648	-0.129742	-0.238170
C77	C	1.322875	-0.040259	-0.316108
C78	C	1.279786	-0.106548	-0.432451
H79	H	1.276723	-0.183729	-0.211450
H80	H	1.411522	-0.181410	-0.290961
H81	H	1.261005	0.011387	-0.263328
H82	H	1.395781	0.013732	-0.342864
H83	H	1.341661	-0.158216	-0.485242
H84	H	1.206865	-0.160533	-0.405717
H85	H	1.261627	-0.045844	-0.485352
H86	H	1.568400	0.395910	0.588039
H87	H	1.297126	-0.058490	0.206521
H88	H	1.514387	0.121184	0.206730
H89	H	0.827348	0.382504	-0.000043
