data_functionalizedCrystal
_audit_creation_method	'MofGen! by Chris Wilmer'
_symmetry_space_group_name_H-M	'P1'
_symmetry_Int_Tables_number	1
_symmetry_cell_setting	triclinic
loop_
_symmetry_equiv_pos_as_xyz
  x,y,z
_cell_length_a	27.354012
_cell_length_b	27.353283
_cell_length_c	27.349551
_cell_angle_alpha	60.005606
_cell_angle_beta	60.011434
_cell_angle_gamma	59.993282
loop_
_atom_site_label
_atom_site_type_symbol
_atom_site_fract_x
_atom_site_fract_y
_atom_site_fract_z
O1	O	0.067635	-0.714267	0.597330
O2	O	0.567635	-0.214267	1.097330
O3	O	0.025429	-0.556105	0.481282
O4	O	0.525429	-0.056105	0.981282
O5	O	0.125575	-0.656186	0.481214
O6	O	0.625575	-0.156186	0.981214
O7	O	-0.032512	-0.614186	0.597397
O8	O	0.467488	-0.114186	1.097397
O9	O	0.158797	-0.622968	0.514367
O10	O	0.658797	-0.122968	1.014367
O11	O	0.058650	-0.522887	0.514434
O12	O	0.558650	-0.022887	1.014434
O13	O	0.100856	-0.681048	0.630482
O14	O	0.600856	-0.181048	1.130482
Zn15	Zn	0.085028	-0.596693	0.577722
Zn16	Zn	0.585028	-0.096693	1.077722
Zn17	Zn	0.041257	-0.640460	0.534042
Zn18	Zn	0.541257	-0.140460	1.034042
O19	O	0.000709	-0.580967	0.630549
O20	O	0.500709	-0.080967	1.130549
N21	N	0.114901	-0.566828	0.607534
N22	N	0.614901	-0.066828	1.107534
N23	N	0.011389	-0.670331	0.504229
N24	N	0.511389	-0.170331	1.004229
C25	C	0.179404	-0.338196	0.672015
C26	C	0.679404	0.161804	1.172015
C27	C	0.179501	-0.502386	0.836160
C28	C	0.679501	-0.002386	1.336160
C29	C	0.179415	-0.502363	0.671996
C30	C	0.679415	-0.002363	1.171996
C31	C	0.343611	-0.502373	0.671960
C32	C	0.843611	-0.002373	1.171960
C33	C	0.197478	-0.392371	0.690061
C34	C	0.697478	0.107629	1.190061
C35	C	0.197534	-0.484321	0.781984
C36	C	0.697534	0.015679	1.281984
C37	C	0.289434	-0.484312	0.690032
C38	C	0.789434	0.015688	1.190032
C39	C	0.197486	-0.484308	0.690051
C40	C	0.697486	0.015692	1.190051
C41	C	0.156398	-0.269238	0.649045
C42	C	0.656398	0.230762	1.149045
C43	C	0.156418	-0.525342	0.649015
C44	C	0.656418	-0.025342	1.149015
C45	C	0.220484	-0.461329	0.713032
C46	C	0.720484	0.038671	1.213032
C47	C	0.443889	-0.485097	0.619172
C48	C	0.943889	0.014903	1.119172
C49	C	0.506571	-0.505993	0.598266
C50	C	1.006571	-0.005993	1.098266
C51	C	0.506589	-0.607412	0.636940
C52	C	1.006589	-0.107412	1.136940
C53	C	0.443909	-0.586515	0.657848
C54	C	0.943909	-0.086515	1.157848
C55	C	0.171510	-0.237888	0.587422
C56	C	0.671510	0.262112	1.087422
C57	C	0.150593	-0.175201	0.566543
C58	C	0.650593	0.324799	1.066543
C59	C	0.099458	-0.175218	0.668913
C60	C	0.599458	0.324782	1.168913
C61	C	0.120375	-0.237905	0.689792
C62	C	0.620375	0.262095	1.189792
C63	C	0.094789	-0.510201	0.664176
C64	C	0.594789	-0.010201	1.164176
C65	C	0.073888	-0.531091	0.643278
C66	C	0.573888	-0.031091	1.143278
C67	C	0.176239	-0.582263	0.592072
C68	C	0.676239	-0.082263	1.092072
C69	C	0.197142	-0.561373	0.612963
C70	C	0.697142	-0.061373	1.112963
C71	C	0.094933	-0.510244	0.936476
C72	C	0.594933	-0.010244	1.436476
C73	C	0.074073	-0.531151	0.999161
C74	C	0.574073	-0.031151	1.499161
C75	C	0.176453	-0.582335	0.999126
C76	C	0.676453	-0.082335	1.499126
C77	C	0.197312	-0.561429	0.936439
C78	C	0.697312	-0.061429	1.436439
C79	C	0.156551	-0.525382	0.905116
C80	C	0.656551	-0.025382	1.405116
C81	C	0.412561	-0.525357	0.648961
C82	C	0.912561	-0.025357	1.148961
C83	C	-0.098513	-0.688235	0.485867
C84	C	0.401487	-0.188235	0.985867
C85	C	-0.006461	-0.688368	0.394066
C86	C	0.493539	-0.188368	0.894066
C87	C	-0.006645	-0.780264	0.486040
C88	C	0.493355	-0.280264	0.986040
C89	C	-0.006630	-0.688361	0.486097
C90	C	0.493370	-0.188361	0.986097
C91	C	-0.029562	-0.711308	0.463018
C92	C	0.470438	-0.211308	0.963018
N93	N	0.537030	-0.566846	0.607436
N94	N	1.037030	-0.066846	1.107436
O95	O	0.741877	-0.576849	0.459995
O96	O	1.241877	-0.076849	0.959995
O97	O	0.742050	-0.693241	0.618010
O98	O	1.242050	-0.193241	1.118010
O99	O	0.741986	-0.692977	0.517791
O100	O	1.241986	-0.192977	1.017791
O101	O	0.741941	-0.577114	0.560214
O102	O	1.241941	-0.077114	1.060214
O103	O	0.642405	-0.659839	0.551046
O104	O	1.142405	-0.159839	1.051046
O105	O	0.642469	-0.660104	0.651265
O106	O	1.142469	-0.160104	1.151265
O107	O	0.642296	-0.543712	0.493251
O108	O	1.142296	-0.043712	0.993251
Zn109	Zn	0.626572	-0.596646	0.577538
Zn110	Zn	1.126572	-0.096646	1.077538
Zn111	Zn	0.757774	-0.640307	0.533723
Zn112	Zn	1.257774	-0.140307	1.033723
O113	O	0.642360	-0.543976	0.593469
O114	O	1.142360	-0.043976	1.093469
N115	N	0.847316	-0.670107	0.503818
N116	N	1.347316	-0.170107	1.003818
N117	N	0.114877	-0.144758	0.607577
N118	N	0.614877	0.355242	1.107577
O119	O	-0.032498	0.060193	0.597441
O120	O	0.467502	0.560193	1.097441
O121	O	0.125523	0.060193	0.481067
O122	O	0.625523	0.560193	0.981067
O123	O	0.025289	0.060179	0.481345
O124	O	0.525289	0.560179	0.981345
O125	O	0.067736	0.060207	0.597163
O126	O	0.567736	0.560207	1.097163
O127	O	0.058511	-0.039410	0.514543
O128	O	0.558511	0.460590	1.014543
O129	O	0.158745	-0.039397	0.514265
O130	O	0.658745	0.460603	1.014265
O131	O	0.000724	-0.039396	0.630638
O132	O	0.500724	0.460604	1.130638
Zn133	Zn	0.085009	-0.055208	0.577722
Zn134	Zn	0.585009	0.444792	1.077722
Zn135	Zn	0.041238	0.076005	0.533983
Zn136	Zn	0.541238	0.576005	1.033983
O137	O	0.100958	-0.039382	0.630360
O138	O	0.600958	0.460618	1.130360
N139	N	0.011362	0.165555	0.504130
N140	N	0.511362	0.665555	1.004130
N141	N	0.115121	-0.566884	1.029592
N142	N	0.615121	-0.066884	1.529592
O143	O	0.104990	-0.714248	1.234528
O144	O	0.604990	-0.214248	1.734528
O145	O	-0.011371	-0.556177	1.234539
O146	O	0.488629	-0.056177	1.734539
O147	O	-0.011103	-0.656395	1.234497
O148	O	0.488897	-0.156395	1.734497
O149	O	0.104722	-0.614030	1.234569
O150	O	0.604722	-0.114030	1.734569
O151	O	0.022090	-0.623190	1.134913
O152	O	0.522090	-0.123190	1.634913
O153	O	0.021822	-0.522972	1.134954
O154	O	0.521822	-0.022972	1.634954
O155	O	0.138182	-0.681044	1.134943
O156	O	0.638182	-0.181044	1.634943
Zn157	Zn	0.085272	-0.596736	1.119137
Zn158	Zn	0.585272	-0.096736	1.619137
Zn159	Zn	0.041539	-0.640484	1.250344
Zn160	Zn	0.541539	-0.140484	1.750344
O161	O	0.137914	-0.580826	1.134984
O162	O	0.637914	-0.080826	1.634984
N163	N	0.011689	-0.670343	1.339890
N164	N	0.511689	-0.170343	1.839890
C165	C	0.038085	-0.519567	0.481870
C166	C	0.538085	-0.019567	0.981870
C167	C	0.162104	-0.643505	0.481786
C168	C	0.662104	-0.143505	0.981786
C169	C	0.088200	-0.717587	0.629893
C170	C	0.588200	-0.217587	1.129893
C171	C	-0.035819	-0.593649	0.629977
C172	C	0.464181	-0.093649	1.129977
C173	C	0.692280	-0.692701	0.654545
C174	C	1.192280	-0.192701	1.154545
C175	C	0.692203	-0.692374	0.530435
C176	C	1.192203	-0.192374	1.030435
C177	C	0.692063	-0.544251	0.456717
C178	C	1.192063	-0.044251	0.956717
C179	C	0.692144	-0.544580	0.580825
C180	C	1.192144	-0.044580	1.080825
C181	C	0.162000	0.010521	0.481600
C182	C	0.662000	0.510521	0.981600
C183	C	0.037914	0.010381	0.481984
C184	C	0.537914	0.510381	0.981984
C185	C	-0.035795	0.010399	0.630065
C186	C	0.464205	0.510399	1.130065
C187	C	0.088333	0.010415	0.629722
C188	C	0.588333	0.510415	1.129722
C189	C	-0.010799	-0.519660	1.184747
C190	C	0.489201	-0.019660	1.684747
C191	C	-0.010461	-0.643761	1.184677
C192	C	0.489539	-0.143761	1.684677
C193	C	0.137610	-0.717561	1.184734
C194	C	0.637610	-0.217561	1.684734
C195	C	0.137280	-0.593452	1.184783
C196	C	0.637280	-0.093452	1.684783
H197	H	0.023897	-0.518815	1.024687
H198	H	0.523897	-0.018815	1.524687
O199	O	-0.054326	-0.465477	1.184776
O200	O	0.445674	0.034523	1.684776
C201	C	-0.032770	-0.428217	1.184785
C202	C	0.467230	0.071783	1.684785
H203	H	0.005665	-0.457017	1.203649
H204	H	0.505665	0.042983	1.703649
H205	H	-0.016144	-0.397979	1.137015
H206	H	0.483856	0.102021	1.637015
C207	C	-0.130806	-0.354086	1.200672
C208	C	0.369194	0.145914	1.700672
C209	C	-0.083603	-0.389459	1.223847
C210	C	0.416397	0.110541	1.723847
H211	H	-0.162162	-0.330176	1.224765
H212	H	0.337838	0.169824	1.724765
H213	H	-0.145329	-0.379188	1.200664
H214	H	0.354671	0.120812	1.700664
H215	H	-0.116943	-0.328893	1.160864
H216	H	0.383057	0.171107	1.660864
H217	H	-0.097464	-0.414657	1.263651
H218	H	0.402536	0.085343	1.763651
H219	H	-0.069083	-0.364361	1.223863
H220	H	0.430917	0.135639	1.723863
O221	O	-0.090013	-0.583036	0.673488
O222	O	0.409987	-0.083036	1.173488
C223	C	-0.116558	-0.624161	0.689614
C224	C	0.383442	-0.124161	1.189614
H225	H	-0.096748	-0.641634	0.651203
H226	H	0.403252	-0.141634	1.151203
H227	H	-0.107457	-0.663186	0.731232
H228	H	0.392543	-0.163186	1.231232
C229	C	-0.208937	-0.571302	0.750072
C230	C	0.291063	-0.071302	1.250072
C231	C	-0.184610	-0.592759	0.702893
C232	C	0.315390	-0.092759	1.202893
H233	H	-0.250915	-0.551933	0.758266
H234	H	0.249085	-0.051933	1.258266
H235	H	-0.191053	-0.543596	0.739210
H236	H	0.308947	-0.043596	1.239210
H237	H	-0.201347	-0.603827	0.784749
H238	H	0.298653	-0.103827	1.284749
H239	H	-0.192193	-0.560233	0.668216
H240	H	0.307807	-0.060233	1.168216
H241	H	-0.202496	-0.620458	0.713750
H242	H	0.297504	-0.120458	1.213750
O243	O	0.027227	-0.465343	0.438442
O244	O	0.527227	0.034657	0.938442
C245	C	-0.031612	-0.428192	0.460164
C246	C	0.468388	0.071808	0.960164
H247	H	-0.059990	-0.457082	0.498615
H248	H	0.440010	0.042918	0.998615
H249	H	-0.030710	-0.397968	0.476818
H250	H	0.469290	0.102032	0.976818
C251	C	-0.023913	-0.353929	0.362226
C252	C	0.476087	0.146071	0.862226
C253	C	-0.058769	-0.389412	0.409449
C254	C	0.441231	0.110588	0.909449
H255	H	-0.040665	-0.330005	0.330943
H256	H	0.459335	0.169995	0.830943
H257	H	0.015729	-0.378957	0.347592
H258	H	0.515729	0.121043	0.847592
H259	H	-0.023165	-0.328747	0.376113
H260	H	0.476835	0.171253	0.876113
H261	H	-0.059511	-0.414598	0.395564
H262	H	0.440489	0.085402	0.895564
H263	H	-0.098412	-0.364387	0.424080
H264	H	0.401588	0.135613	0.924080
O265	O	-0.089936	0.010484	0.673676
O266	O	0.410064	0.510484	1.173676
C267	C	-0.116436	0.062077	0.689727
C268	C	0.383564	0.562077	1.189727
H269	H	-0.080122	0.079275	0.677579
H270	H	0.419878	0.579275	1.177579
H271	H	-0.149122	0.098189	0.664596
H272	H	0.350878	0.598189	1.164596
C273	C	-0.194883	0.025298	0.772541
C274	C	0.305117	0.525298	1.272541
C275	C	-0.150282	0.046419	0.757625
C276	C	0.349718	0.546419	1.257625
H277	H	-0.215764	0.015641	0.814423
H278	H	0.284236	0.515641	1.314423
H279	H	-0.177032	-0.009460	0.761726
H280	H	0.322968	0.490540	1.261726
H281	H	-0.222116	0.055395	0.751594
H282	H	0.277884	0.555395	1.251594
H283	H	-0.123047	0.016319	0.778566
H284	H	0.376953	0.516319	1.278566
H285	H	-0.168130	0.081172	0.768445
H286	H	0.331870	0.581172	1.268445
H287	H	0.692005	-0.507708	0.411338
H288	H	1.192005	-0.007708	0.911338
H289	H	0.692323	-0.729239	0.699929
H290	H	1.192323	-0.229239	1.199929
H291	H	0.418366	-0.435297	0.611936
H292	H	0.918366	0.064703	1.111936
H293	H	0.207509	-0.652460	0.445301
H294	H	0.707509	-0.152460	0.945301
O295	O	0.098940	-0.771833	0.673322
O296	O	0.598940	-0.271833	1.173322
C297	C	0.113020	-0.816929	0.652763
C298	C	0.613020	-0.316929	1.152763
H299	H	0.093732	-0.796500	0.615553
H300	H	0.593732	-0.296500	1.115553
H301	H	0.163723	-0.837990	0.634764
H302	H	0.663723	-0.337990	1.134764
C303	C	0.109651	-0.890427	0.750586
C304	C	0.609651	-0.390427	1.250586
C305	C	0.085957	-0.865337	0.704887
C306	C	0.585957	-0.365337	1.204887
H307	H	0.092961	-0.920289	0.782738
H308	H	0.592961	-0.420289	1.282738
H309	H	0.100168	-0.860046	0.764437
H310	H	0.600168	-0.360046	1.264437
H311	H	0.151904	-0.907974	0.735579
H312	H	0.651904	-0.407974	1.235579
H313	H	0.043707	-0.847784	0.719892
H314	H	0.543707	-0.347784	1.219892
H315	H	0.095433	-0.895716	0.691040
H316	H	0.595433	-0.395716	1.191040
O317	O	0.181270	-0.771677	1.184705
O318	O	0.681270	-0.271677	1.684705
C319	C	0.232796	-0.771682	1.184746
C320	C	0.732796	-0.271682	1.684746
H321	H	0.232086	-0.723651	1.165907
H322	H	0.732086	-0.223651	1.665907
H323	H	0.233495	-0.793089	1.232527
H324	H	0.733495	-0.293089	1.732527
C325	C	0.289969	-0.866643	1.168830
C326	C	0.789969	-0.366643	1.668830
C327	C	0.289099	-0.807651	1.145687
C328	C	0.789099	-0.307651	1.645687
H329	H	0.324699	-0.888833	1.144739
H330	H	0.824699	-0.388833	1.644739
H331	H	0.255254	-0.866641	1.168805
H332	H	0.755254	-0.366641	1.668805
H333	H	0.290549	-0.884474	1.208647
H334	H	0.790549	-0.384474	1.708647
H335	H	0.288511	-0.789819	1.105873
H336	H	0.788511	-0.289819	1.605873
H337	H	0.323815	-0.807651	1.145704
H338	H	0.823815	-0.307651	1.645704
O339	O	0.692194	-0.735723	0.519519
O340	O	1.192194	-0.235723	1.019519
C341	C	0.692159	-0.713915	0.460662
C342	C	1.192159	-0.213915	0.960662
H343	H	0.673266	-0.662911	0.444924
H344	H	1.173266	-0.162911	0.944924
H345	H	0.739923	-0.729035	0.429662
H346	H	1.239923	-0.229035	0.929662
C347	C	0.676323	-0.801212	0.478836
C348	C	1.176323	-0.301212	0.978836
C349	C	0.653114	-0.738568	0.459508
C350	C	1.153114	-0.238568	0.959508
H351	H	0.652241	-0.816420	0.478122
H352	H	1.152241	-0.316420	0.978122
H353	H	0.676349	-0.815906	0.518488
H354	H	1.176349	-0.315906	1.018488
H355	H	0.716126	-0.813804	0.452999
H356	H	1.216126	-0.313804	0.952999
H357	H	0.613315	-0.725977	0.485348
H358	H	1.113315	-0.225977	0.985348
H359	H	0.653080	-0.723872	0.419860
H360	H	1.153080	-0.223872	0.919860
H361	H	0.692134	-0.508185	0.589902
H362	H	1.192134	-0.008185	1.089902
H363	H	0.207290	0.010797	0.444973
H364	H	0.707290	0.510797	0.944973
H365	H	0.173667	-0.584388	1.184797
H366	H	0.673667	-0.084388	1.684797
H367	H	0.532110	-0.657210	0.644171
H368	H	1.032110	-0.157210	1.144171
H369	H	0.028825	0.010378	0.445599
H370	H	0.528825	0.510378	0.945599
O371	O	0.099280	0.010386	0.673077
O372	O	0.599280	0.510386	1.173077
C373	C	0.158134	0.010401	0.651260
C374	C	0.658134	0.510401	1.151260
H375	H	0.186449	-0.008448	0.612820
H376	H	0.686449	0.491552	1.112820
H377	H	0.157247	0.058179	0.634562
H378	H	0.657247	0.558179	1.134562
C379	C	0.150594	-0.005509	0.749125
C380	C	0.650594	0.494491	1.249125
C381	C	0.185373	-0.028665	0.701914
C382	C	0.685373	0.471335	1.201914
H383	H	0.167397	-0.029604	0.780370
H384	H	0.667397	0.470396	1.280370
H385	H	0.110943	-0.005517	0.763823
H386	H	0.610943	0.494483	1.263823
H387	H	0.149858	0.034305	0.735202
H388	H	0.649858	0.534305	1.235202
H389	H	0.186103	-0.068475	0.715836
H390	H	0.686103	0.431525	1.215836
H391	H	0.225026	-0.028665	0.687219
H392	H	0.725026	0.471335	1.187219
O393	O	-0.053833	-0.654647	1.184680
O394	O	0.446167	-0.154647	1.684680
C395	C	-0.067622	-0.703124	1.236235
C396	C	0.432378	-0.203124	1.736235
H397	H	-0.028067	-0.731811	1.253473
H398	H	0.471933	-0.231811	1.753473
H399	H	-0.108777	-0.685365	1.272338
H400	H	0.391223	-0.185365	1.772338
C401	C	-0.129104	-0.706082	1.199322
C402	C	0.370896	-0.206082	1.699322
C403	C	-0.080520	-0.741319	1.220491
C404	C	0.419480	-0.241319	1.720491
H405	H	-0.137063	-0.729641	1.189612
H406	H	0.362937	-0.229641	1.689612
H407	H	-0.119817	-0.673420	1.164589
H408	H	0.380183	-0.173420	1.664589
H409	H	-0.163395	-0.691285	1.229412
H410	H	0.336605	-0.191285	1.729412
H411	H	-0.046229	-0.756108	1.190398
H412	H	0.453771	-0.256108	1.690398
H413	H	-0.089802	-0.773984	1.255218
H414	H	0.410198	-0.273984	1.755218
O415	O	0.055311	-0.475314	0.906079
O416	O	0.555311	0.024686	1.406079
C417	C	0.019063	-0.506958	0.921415
C418	C	0.519063	-0.006958	1.421415
H419	H	0.043281	-0.557111	0.938631
H420	H	0.543281	-0.057111	1.438631
H421	H	-0.024962	-0.493616	0.957815
H422	H	0.475038	0.006384	1.457815
C423	C	-0.023524	-0.430197	0.844597
C424	C	0.476476	0.069803	1.344597
C425	C	0.006224	-0.491797	0.865737
C426	C	0.506224	0.008203	1.365737
H427	H	-0.031446	-0.420844	0.810254
H428	H	0.468554	0.079156	1.310254
H429	H	0.000896	-0.408877	0.834266
H430	H	0.500896	0.091123	1.334266
H431	H	-0.060208	-0.419086	0.874935
H432	H	0.439792	0.080914	1.374935
H433	H	0.042910	-0.502905	0.835402
H434	H	0.542910	-0.002905	1.335402
H435	H	-0.018189	-0.513119	0.876062
H436	H	0.481811	-0.013119	1.376062
O437	O	0.216070	-0.617431	1.029529
O438	O	0.716070	-0.117431	1.529529
C439	C	0.252320	-0.669993	1.014183
C440	C	0.752320	-0.169993	1.514183
H441	H	0.228108	-0.678701	0.996951
H442	H	0.728108	-0.178701	1.496951
H443	H	0.296348	-0.664297	0.977792
H444	H	0.796348	-0.164297	1.477792
C445	C	0.294891	-0.712647	1.091019
C446	C	0.794891	-0.212647	1.591019
C447	C	0.265150	-0.723345	1.069859
C448	C	0.765150	-0.223345	1.569859
H449	H	0.302807	-0.745557	1.125362
H450	H	0.802807	-0.245557	1.625362
H451	H	0.270470	-0.677234	1.101357
H452	H	0.770470	-0.177234	1.601357
H453	H	0.331577	-0.707899	1.060688
H454	H	0.831577	-0.207899	1.560688
H455	H	0.228461	-0.728086	1.100187
H456	H	0.728461	-0.228086	1.600187
H457	H	0.289565	-0.758761	1.059528
H458	H	0.789565	-0.258761	1.559528
O459	O	0.257166	-0.576206	0.905951
O460	O	0.757166	-0.076206	1.405951
C461	C	0.272299	-0.607744	0.869675
C462	C	0.772299	-0.107744	1.369675
H463	H	0.236967	-0.628956	0.888570
H464	H	0.736967	-0.128956	1.388570
H465	H	0.274357	-0.575506	0.822173
H466	H	0.774357	-0.075506	1.322173
C467	C	0.377172	-0.631039	0.845485
C468	C	0.877172	-0.131039	1.345485
C469	C	0.333780	-0.657095	0.868695
C470	C	0.833780	-0.157095	1.368695
H471	H	0.415098	-0.661479	0.844878
H472	H	0.915098	-0.161479	1.344878
H473	H	0.366977	-0.609789	0.869923
H474	H	0.866977	-0.109789	1.369923
H475	H	0.378880	-0.604174	0.805902
H476	H	0.878880	-0.104174	1.305902
H477	H	0.332067	-0.683953	0.908279
H478	H	0.832067	-0.183953	1.408279
H479	H	0.343976	-0.678351	0.844263
H480	H	0.843976	-0.178351	1.344263
H481	H	0.023705	-0.518748	0.655609
H482	H	0.523705	-0.018748	1.155609
O483	O	0.055204	-0.475111	0.699101
O484	O	0.555204	0.024889	1.199101
C485	C	0.018934	-0.422540	0.667466
C486	C	0.518934	0.077460	1.167466
H487	H	0.043119	-0.413820	0.617314
H488	H	0.543119	0.086180	1.117314
H489	H	-0.025104	-0.428233	0.680818
H490	H	0.474896	0.071767	1.180818
C491	C	-0.023573	-0.379914	0.744219
C492	C	0.476427	0.120086	1.244219
C493	C	0.006134	-0.369201	0.682621
C494	C	0.506134	0.130799	1.182621
H495	H	-0.031471	-0.347012	0.753569
H496	H	0.468529	0.152988	1.253569
H497	H	0.000862	-0.415333	0.765534
H498	H	0.500862	0.084667	1.265534
H499	H	-0.060267	-0.384659	0.755338
H500	H	0.439733	0.115341	1.255338
H501	H	0.042831	-0.364464	0.671505
H502	H	0.542831	0.135536	1.171505
H503	H	-0.018294	-0.333780	0.661305
H504	H	0.481706	0.166220	1.161305
O505	O	0.215884	-0.617241	0.557038
O506	O	0.715884	-0.117241	1.057038
C507	C	0.274760	-0.626139	0.548156
C508	C	0.774760	-0.126139	1.048156
H509	H	0.274650	-0.588351	0.555164
H510	H	0.774650	-0.088351	1.055164
H511	H	0.292739	-0.670800	0.581510
H512	H	0.792739	-0.170800	1.081510
C513	C	0.315071	-0.672989	0.475323
C514	C	0.815071	-0.172989	0.975323
C515	C	0.314936	-0.626574	0.483926
C516	C	0.814936	-0.126574	0.983926
H517	H	0.339854	-0.673260	0.435704
H518	H	0.839854	-0.173260	0.935704
H519	H	0.275405	-0.666997	0.481309
H520	H	0.775405	-0.166997	0.981309
H521	H	0.330052	-0.710201	0.503122
H522	H	0.830052	-0.210201	1.003122
H523	H	0.299948	-0.589362	0.456133
H524	H	0.799948	-0.089362	0.956133
H525	H	0.354600	-0.632560	0.477935
H526	H	0.854600	-0.132560	0.977935
H527	H	0.247325	-0.573698	0.600612
H528	H	0.747325	-0.073698	1.100612
H529	H	0.418403	-0.619300	0.682106
H530	H	0.918403	-0.119300	1.182106
H531	H	0.200842	-0.263395	0.554238
H532	H	0.700842	0.236605	1.054238
O533	O	0.536916	-0.466801	0.569314
O534	O	1.036916	0.033199	1.069314
C535	C	0.495808	-0.408341	0.565966
C536	C	0.995808	0.091659	1.065966
H537	H	0.451118	-0.405895	0.570086
H538	H	0.951118	0.094105	1.070086
H539	H	0.489163	-0.396639	0.603941
H540	H	0.989163	0.103361	1.103941
C541	C	0.575135	-0.366599	0.500386
C542	C	1.075135	0.133401	1.000386
C543	C	0.520248	-0.363593	0.505440
C544	C	1.020248	0.136407	1.005440
H545	H	0.590212	-0.338995	0.463052
H546	H	1.090212	0.161005	0.963052
H547	H	0.602831	-0.405984	0.502643
H548	H	1.102831	0.094016	1.002643
H549	H	0.569591	-0.356848	0.532036
H550	H	1.069591	0.143152	1.032036
H551	H	0.525795	-0.373351	0.473796
H552	H	1.025795	0.126649	0.973796
H553	H	0.492554	-0.324208	0.503177
H554	H	0.992554	0.175792	1.003177
H555	H	0.162897	-0.149674	0.516363
H556	H	0.662897	0.350326	1.016363
H557	H	0.070133	-0.149706	0.702094
H558	H	0.570133	0.350294	1.202094
H559	H	0.108067	-0.263426	0.739970
H560	H	0.608067	0.236574	1.239970
