data_functionalizedCrystal
_audit_creation_method	'MofGen! by Chris Wilmer'
_symmetry_space_group_name_H-M	'P1'
_symmetry_Int_Tables_number	1
_symmetry_cell_setting	triclinic
loop_
_symmetry_equiv_pos_as_xyz
  x,y,z
_cell_length_a	15.995350
_cell_length_b	17.666332
_cell_length_c	15.995350
_cell_angle_alpha	89.997020
_cell_angle_beta	96.507625
_cell_angle_gamma	90.005607
loop_
_atom_site_label
_atom_site_type_symbol
_atom_site_fract_x
_atom_site_fract_y
_atom_site_fract_z
O1	O	1.110991	0.062880	-0.107926
O2	O	0.867216	0.062896	-0.121254
O3	O	0.995767	0.062887	0.007297
O4	O	0.982440	0.062889	-0.236478
O5	O	0.995745	-0.063010	0.007301
O6	O	0.867193	-0.063001	-0.121250
O7	O	1.110969	-0.063016	-0.107923
Cu8	Cu	0.989079	-0.074504	-0.114586
Cu9	Cu	0.989106	0.074383	-0.114591
O10	O	0.982417	-0.063008	-0.236474
C11	C	0.836010	-0.000051	-0.120701
C12	C	0.743060	-0.000045	-0.119049
N13	N	0.989066	-0.179224	-0.114582
C14	C	0.405312	-0.000061	-0.113117
C15	C	0.452746	-0.000342	-0.021565
C16	C	0.549436	-0.000053	-0.023217
C17	C	0.572873	-0.000053	-0.116060
C18	C	0.531798	0.071837	-0.161218
C19	C	0.435163	0.071892	-0.158918
C20	C	0.434798	-0.071276	-0.160806
C21	C	0.531743	-0.072221	-0.160784
C22	C	0.667570	-0.000047	-0.117727
C23	C	0.310614	-0.000062	-0.111452
C24	C	1.039839	-0.218830	-0.165399
C25	C	1.039853	-0.298077	-0.165397
C26	C	0.989077	-0.337716	-0.114587
C27	C	0.938301	-0.298100	-0.063760
C28	C	0.938295	-0.218854	-0.063758
N29	N	0.915740	-0.462151	-0.112301
N30	N	0.915747	-0.537431	-0.112308
C31	C	0.989093	-0.576480	-0.114590
N32	N	1.062431	-0.537404	-0.116882
N33	N	1.062422	-0.462117	-0.116879
C34	C	0.989078	-0.423645	-0.114584
C35	C	1.039885	-0.702015	-0.165407
C36	C	1.039900	-0.781264	-0.165399
C37	C	0.938340	-0.781285	-0.063767
C38	C	0.938333	-0.702038	-0.063770
C39	C	0.989104	-0.662408	-0.114595
C40	C	1.142175	-0.000068	-0.108476
C41	C	1.235125	-0.000069	-0.110127
C42	C	0.995205	-0.000060	0.038494
C43	C	0.993553	-0.000056	0.131444
N44	N	0.989125	0.179103	-0.114588
C45	C	0.982980	-0.000059	-0.267671
C46	C	0.984631	-0.000059	-0.360621
C47	C	0.987621	-0.000058	0.469192
C48	C	0.896069	0.000230	0.421758
C49	C	0.897721	-0.000054	0.325068
C50	C	0.990564	-0.000056	0.301631
C51	C	1.035707	-0.071951	0.342711
C52	C	1.033407	-0.072011	0.439347
C53	C	1.035324	0.071157	0.439701
C54	C	1.035303	0.072107	0.342755
C55	C	0.992231	-0.000058	0.206934
C56	C	0.985956	-0.000061	0.563890
H57	H	0.577856	-0.051588	0.012280
C58	C	0.570132	0.144116	-0.118850
H59	H	0.611156	0.130636	-0.073647
H60	H	0.595871	0.173204	-0.158841
H61	H	0.527011	0.173094	-0.097904
H62	H	0.433162	0.050928	0.014860
C63	C	1.095750	-0.824835	-0.221301
H64	H	1.088489	-0.877708	-0.214019
H65	H	1.080182	-0.811847	-0.278581
H66	H	1.153040	-0.811839	-0.205780
H67	H	0.416864	0.125632	-0.125990
C68	C	1.127852	-0.075573	0.323637
H69	H	1.153961	-0.119463	0.349065
H70	H	1.129456	-0.077727	0.264500
H71	H	1.156991	-0.031762	0.345597
H72	H	0.577304	0.051570	0.012516
C73	C	1.126776	0.077963	0.322031
H74	H	1.152238	0.122043	0.347667
H75	H	1.157289	0.034483	0.342855
H76	H	1.127236	0.080982	0.262786
H77	H	1.100623	-0.075275	0.471595
C78	C	0.993320	-0.144226	0.304387
H79	H	0.948119	-0.130742	0.263363
H80	H	1.033302	-0.173318	0.278650
H81	H	0.972369	-0.173202	0.347513
C82	C	0.846833	-0.069018	0.448228
H83	H	0.791588	-0.068405	0.419286
H84	H	0.874771	-0.114045	0.434575
H85	H	0.843752	-0.067314	0.507162
C86	C	0.407046	-0.144890	-0.120373
H87	H	0.377215	-0.132878	-0.074023
H88	H	0.371569	-0.172958	-0.160775
H89	H	0.455237	-0.174241	-0.101356
C90	C	0.990781	0.143960	0.305872
H91	H	0.945121	0.130048	0.265575
H92	H	0.970220	0.172191	0.349772
H93	H	1.029538	0.173966	0.279496
H94	H	0.896984	-0.669790	-0.022393
H95	H	0.402915	0.075155	-0.226134
H96	H	0.545924	0.074510	-0.229427
C97	C	0.568624	-0.144070	-0.116251
H98	H	0.608923	-0.130154	-0.070594
H99	H	0.524726	-0.172305	-0.095683
H100	H	0.594999	-0.174073	-0.155004
H101	H	0.862235	0.051483	0.296644
H102	H	0.896948	-0.186607	-0.022376
H103	H	1.081226	-0.669747	-0.206791
C104	C	0.846639	0.069871	0.446797
H105	H	0.881388	0.099395	0.486408
H106	H	0.829806	0.099478	0.398221
H107	H	0.798230	0.053700	0.471233
C108	C	1.095701	-0.341657	-0.221299
H109	H	1.088436	-0.394529	-0.214016
H110	H	1.080138	-0.328669	-0.278579
H111	H	1.152993	-0.328666	-0.205774
H112	H	1.081184	-0.186568	-0.206781
C113	C	0.552494	-0.078090	-0.252246
H114	H	0.586660	-0.036415	-0.264410
H115	H	0.581838	-0.123975	-0.259331
H116	H	0.501781	-0.077484	-0.289429
C117	C	1.126510	0.071815	0.482604
H118	H	1.155017	0.114972	0.464531
H119	H	1.126194	0.073662	0.541921
H120	H	1.154578	0.027215	0.467817
H121	H	1.005402	0.125649	0.460239
C122	C	0.391897	-0.071934	-0.251992
H123	H	0.356183	-0.029046	-0.260991
H124	H	0.433566	-0.070353	-0.289812
H125	H	0.359457	-0.116803	-0.261422
H126	H	1.000469	-0.125751	0.457650
H127	H	0.896960	-0.330379	-0.022390
C128	C	0.849447	-0.069793	0.287422
H129	H	0.828756	-0.098066	0.331232
H130	H	0.803629	-0.053765	0.248450
H131	H	0.886188	-0.100588	0.259371
C132	C	0.882488	-0.824878	-0.007878
H133	H	0.889759	-0.877747	-0.015160
H134	H	0.898044	-0.811892	0.049404
H135	H	0.825196	-0.811898	-0.023409
H136	H	0.434215	-0.051898	0.015032
