data_functionalizedCrystal
_audit_creation_method	'MofGen! by Chris Wilmer'
_symmetry_space_group_name_H-M	'P1'
_symmetry_Int_Tables_number	1
_symmetry_cell_setting	triclinic
loop_
_symmetry_equiv_pos_as_xyz
  x,y,z
_cell_length_a	14.519709
_cell_length_b	14.519709
_cell_length_c	16.053802
_cell_angle_alpha	92.569364
_cell_angle_beta	87.419624
_cell_angle_gamma	83.680145
loop_
_atom_site_label
_atom_site_type_symbol
_atom_site_fract_x
_atom_site_fract_y
_atom_site_fract_z
O1	O	1.227746	0.117021	-0.069322
O2	O	0.959270	0.131256	-0.069348
O3	O	1.100626	-0.010100	-0.069327
O4	O	1.086390	0.258376	-0.069343
O5	O	1.092845	-0.002351	0.069531
O6	O	0.951490	0.139004	0.069510
O7	O	1.219965	0.124769	0.069536
Zn8	Zn	1.084492	0.133117	0.091570
Zn9	Zn	1.094743	0.122908	-0.091381
O10	O	1.078610	0.266125	0.069515
C11	C	0.921020	0.134466	0.000078
C12	C	0.818640	0.132478	0.000068
C13	C	1.096072	-0.040585	0.000102
C14	C	1.094084	-0.142966	0.000103
C15	C	0.443742	0.125160	0.000107
C16	C	0.548050	0.127192	0.000096
C17	C	0.631187	0.128819	0.000087
C18	C	0.735502	0.130851	0.000077
C19	C	1.086766	-0.517864	0.000080
C20	C	1.088798	-0.413555	0.000087
C21	C	1.090424	-0.330418	0.000092
C22	C	1.092457	-0.226103	0.000097
C23	C	1.258215	0.121559	0.000108
C24	C	1.360596	0.123547	0.000112
C25	C	1.083163	0.296610	0.000084
C26	C	1.085152	0.398991	0.000078
N27	N	1.077502	0.140084	0.216429
N28	N	1.101740	0.115934	-0.216241
C29	C	1.137671	0.079958	0.260132
C30	C	1.132791	0.084840	0.347538
C31	C	1.067745	0.149853	0.391239
C32	C	1.007570	0.209981	0.347530
C33	C	1.012446	0.205094	0.260126
C34	C	1.046442	0.171175	0.652646
C35	C	1.041571	0.176059	0.740056
C36	C	1.166792	0.050917	0.740058
C37	C	1.171667	0.046039	0.652652
C38	C	1.111488	0.106164	0.608950
N39	N	1.062756	0.154847	0.480582
N40	N	1.116473	0.101165	0.519609
H41	H	1.190643	0.027022	0.224556
H42	H	0.963449	0.254054	0.224544
Br43	Br	1.248457	-0.030679	0.799370
H44	H	1.181784	0.035881	0.383120
Br45	Br	1.259947	-0.042189	0.593341
H46	H	0.988600	0.229005	0.775634
Br47	Br	0.964775	0.252772	0.593341
Br48	Br	0.919284	0.298209	0.406836
