data_functionalizedCrystal
_audit_creation_method	'MofGen! by Chris Wilmer'
_symmetry_space_group_name_H-M	'P1'
_symmetry_Int_Tables_number	1
_symmetry_cell_setting	triclinic
loop_
_symmetry_equiv_pos_as_xyz
  x,y,z
_cell_length_a	12.759401
_cell_length_b	19.121063
_cell_length_c	12.759393
_cell_angle_alpha	87.597083
_cell_angle_beta	90.018496
_cell_angle_gamma	92.469017
loop_
_atom_site_label
_atom_site_type_symbol
_atom_site_fract_x
_atom_site_fract_y
_atom_site_fract_z
Zn1	Zn	1.588321	-0.279568	0.611771
Zn2	Zn	1.580680	-0.397037	0.443567
Zn3	Zn	1.412621	-0.279605	0.436113
Zn4	Zn	1.405080	-0.396983	0.619205
O5	O	1.496676	-0.338298	0.527664
O6	O	1.734328	-0.295158	0.589467
O7	O	1.558345	-0.381497	0.295559
O8	O	1.442282	-0.181316	0.453184
O9	O	1.728714	-0.381462	0.465888
O10	O	1.571368	-0.181289	0.582240
O11	O	1.434872	-0.295221	0.290083
O12	O	1.264600	-0.295168	0.460392
O13	O	1.429429	-0.381370	0.765237
O14	O	1.259060	-0.381405	0.594909
O15	O	1.564056	-0.295106	0.759776
O16	O	1.551032	-0.495314	0.473095
O17	O	1.422020	-0.495274	0.602136
C18	C	1.223709	-0.338285	0.527649
C19	C	1.106932	-0.338297	0.527668
C20	C	1.484907	-0.520778	0.539254
C21	C	1.479969	-0.598844	0.544247
C22	C	1.049208	-0.383272	0.597605
C23	C	0.939483	-0.383281	0.597616
C24	C	0.945216	-0.293337	0.457747
C25	C	1.054939	-0.293325	0.457741
C26	C	1.045897	-0.435203	0.678354
C27	C	0.936172	-0.435212	0.678366
C28	C	1.544871	-0.635516	0.479464
C29	C	1.540233	-0.708867	0.484167
C30	C	1.470686	-0.745544	0.553648
C31	C	1.405781	-0.708866	0.618438
C32	C	1.410426	-0.635517	0.613740
C33	C	1.453305	-0.967013	0.571195
C34	C	1.448663	-1.040368	0.575886
C35	C	1.583116	-1.040364	0.441616
C36	C	1.587750	-0.967013	0.436920
C37	C	1.522849	-0.930341	0.501714
C38	C	1.465941	-0.820521	0.558454
C39	C	1.527600	-0.855366	0.496912
C40	C	1.770708	-0.338312	0.527680
C41	C	1.887484	-0.338318	0.527686
C42	C	1.496754	-0.338227	0.801693
C43	C	1.496787	-0.338197	0.918468
C44	C	1.508518	-0.155106	0.516052
C45	C	1.513565	-0.077040	0.511103
C46	C	1.496661	-0.338318	0.254698
C47	C	1.496844	-0.338151	0.137911
C48	C	1.566897	-0.293275	0.970488
C49	C	1.566923	-0.293250	1.080210
C50	C	1.426727	-0.383075	1.085884
C51	C	1.426696	-0.383096	0.976163
C52	C	1.647841	-0.241418	0.967213
C53	C	1.647867	-0.241392	1.076936
H54	H	0.902870	-0.256722	0.400815
C55	C	1.443841	-0.884474	0.707237
C56	C	1.381955	-0.926715	0.642411
H57	H	1.399786	-0.859599	0.751208
H58	H	1.485911	-0.852131	0.665193
H59	H	1.487784	-0.913049	0.749287
H60	H	1.338017	-0.898139	0.600356
H61	H	1.339867	-0.959062	0.684460
H62	H	1.409314	-0.850391	0.615023
H63	H	1.357577	-0.605658	0.666494
C64	C	1.049580	-0.204413	0.319501
C65	C	1.118391	-0.243880	0.380875
H66	H	1.088755	-0.173889	0.272043
H67	H	1.008527	-0.177596	0.363646
H68	H	1.004804	-0.234991	0.281175
H69	H	1.163162	-0.213302	0.419206
H70	H	1.159462	-0.270699	0.336723
H71	H	1.076635	-0.420697	0.758838
H72	H	1.349159	-0.738734	0.675015
C73	C	1.367782	-0.502022	0.949901
C74	C	1.349615	-0.432467	0.918985
H75	H	1.320192	-0.532500	0.914597
H76	H	1.357773	-0.508429	1.023495
H77	H	1.437699	-0.512311	0.932559
H78	H	1.279700	-0.422176	0.936333
H79	H	1.359614	-0.426057	0.845374
C80	C	1.564761	-0.553103	0.332868
C81	C	1.621317	-0.595205	0.403085
H82	H	1.611960	-0.528221	0.285712
H83	H	1.526783	-0.520765	0.370776
H84	H	1.517197	-0.581773	0.294482
H85	H	1.668877	-0.566534	0.441477
H86	H	1.659313	-0.627546	0.365173
C87	C	1.364526	-0.422928	1.256598
C88	C	1.349695	-0.432431	1.149306
H89	H	1.316973	-0.453404	1.295749
H90	H	1.352201	-0.375739	1.271587
H91	H	1.434460	-0.433207	1.275224
H92	H	1.279763	-0.422147	1.130679
H93	H	1.362011	-0.479631	1.134311
H94	H	1.584229	-0.825502	0.440345
H95	H	1.076598	-0.486846	0.652356
H96	H	1.728304	-0.255961	1.107641
H97	H	1.635956	-1.070229	0.388866
C98	C	0.974812	-0.391779	0.848586
C99	C	0.891946	-0.409001	0.781115
H100	H	0.947504	-0.375600	0.912016
H101	H	1.018998	-0.355990	0.815992
H102	H	1.014120	-0.432073	0.863520
H103	H	0.852642	-0.368706	0.766174
H104	H	0.847742	-0.444793	0.813715
H105	H	1.629561	-0.187026	0.933996
H106	H	0.902888	-0.489594	0.659894
H107	H	1.723862	-0.260917	0.934418
H108	H	1.593082	-0.738723	0.431413
C109	C	1.590175	-0.125827	1.033840
C110	C	1.613062	-0.171623	1.118470
H111	H	1.568692	-0.082755	1.059486
H112	H	1.535351	-0.146156	0.993229
H113	H	1.650968	-0.117502	0.991420
H114	H	1.552266	-0.179952	1.160887
H115	H	1.667890	-0.151290	1.159099
C116	C	1.720207	-0.974379	0.304692
C117	C	1.664211	-0.926700	0.360557
H118	H	1.767415	-0.949490	0.257554
H119	H	1.672643	-1.003031	0.266294
H120	H	1.758552	-1.002945	0.352345
H121	H	1.625860	-0.898137	0.312905
H122	H	1.711781	-0.898036	0.398958
H123	H	1.392042	-1.070228	0.632484
