data_functionalizedCrystal
_audit_creation_method	'MofGen! by Chris Wilmer'
_symmetry_space_group_name_H-M	'P1'
_symmetry_Int_Tables_number	1
_symmetry_cell_setting	triclinic
loop_
_symmetry_equiv_pos_as_xyz
  x,y,z
_cell_length_a	16.109301
_cell_length_b	19.188924
_cell_length_c	15.186229
_cell_angle_alpha	89.994194
_cell_angle_beta	89.999006
_cell_angle_gamma	83.301774
loop_
_atom_site_label
_atom_site_type_symbol
_atom_site_fract_x
_atom_site_fract_y
_atom_site_fract_z
O1	O	1.102830	0.089745	-0.073184
O2	O	0.860731	0.100913	-0.073197
O3	O	0.988770	-0.006310	-0.073180
O4	O	0.974791	0.196969	-0.073201
O5	O	0.988762	-0.006312	0.073277
O6	O	0.860723	0.100912	0.073260
O7	O	1.102822	0.089744	0.073273
Zn8	Zn	0.981771	0.095327	0.096520
Zn9	Zn	0.981782	0.095329	-0.096444
O10	O	0.974783	0.196967	0.073256
C11	C	0.829754	0.100460	0.000030
C12	C	0.737463	0.099104	0.000025
C13	C	0.988314	-0.032323	0.000049
C14	C	0.986958	-0.109831	0.000052
C15	C	0.428267	0.158294	0.000035
C16	C	0.514983	0.159575	0.000029
C17	C	0.535281	0.032358	0.000031
C18	C	0.448567	0.031077	0.000030
C19	C	0.395061	0.094048	0.000036
C20	C	0.568492	0.096609	0.000032
C21	C	0.662513	0.097997	0.000026
C22	C	0.301034	0.092660	0.000040
C23	C	0.986330	-0.146231	-0.079782
C24	C	0.985044	-0.219057	-0.079789
C25	C	0.984403	-0.255482	0.000043
C26	C	0.985027	-0.219073	0.079887
C27	C	0.986304	-0.146248	0.079892
N28	N	1.029706	-0.375040	0.059462
N29	N	1.028494	-0.444221	0.059452
C30	C	0.980552	-0.474900	0.000034
N31	N	0.933878	-0.433786	-0.059388
N32	N	0.935094	-0.364598	-0.059381
C33	C	0.983017	-0.334448	0.000047
C34	C	0.978528	-0.590265	-0.079813
C35	C	0.977237	-0.663092	-0.079816
C36	C	0.977228	-0.663108	0.079863
C37	C	0.978511	-0.590282	0.079864
C38	C	0.979165	-0.553865	0.000024
C39	C	1.133800	0.090197	0.000044
C40	C	1.226090	0.091553	0.000043
C41	C	0.975239	0.222980	0.000024
C42	C	0.976595	0.300488	0.000016
N43	N	0.981769	0.095326	0.228212
N44	N	0.981790	0.095326	-0.228137
C45	C	1.038484	0.047863	0.453943
C46	C	1.038487	0.047861	0.546133
C47	C	0.925069	0.142791	0.546126
C48	C	0.925064	0.142788	0.453938
C49	C	0.981776	0.095325	0.407849
C50	C	0.981784	0.095326	0.592227
C51	C	0.981787	0.095325	0.692183
C52	C	0.981772	0.095326	0.307887
H53	H	0.384704	0.209569	0.000039
H54	H	0.979056	-0.560613	-0.144823
O55	O	0.869942	0.188964	0.409293
C56	C	0.819879	0.230849	0.469739
H57	H	0.853963	0.231652	0.535451
H58	H	0.806988	0.286604	0.443090
H59	H	0.758205	0.208163	0.479553
O60	O	0.976674	-0.698350	-0.157451
C61	C	0.977510	-0.650586	-0.227913
H62	H	1.004728	-0.601572	-0.204496
H63	H	1.017513	-0.676065	-0.283738
H64	H	0.910968	-0.635498	-0.252482
O65	O	0.984541	-0.254503	-0.157295
C66	C	1.055800	-0.304542	-0.162091
H67	H	1.079604	-0.318114	-0.092776
H68	H	1.038712	-0.353961	-0.195898
H69	H	1.106706	-0.282016	-0.201477
O70	O	1.093542	0.001662	0.590811
C71	C	1.080270	-0.067458	0.568309
H72	H	1.048221	-0.067380	0.501377
H73	H	1.142890	-0.101826	0.565154
H74	H	1.038972	-0.089062	0.620200
O75	O	0.984518	-0.254390	0.157491
C76	C	1.056824	-0.244539	0.206060
H77	H	1.081752	-0.194302	0.183368
H78	H	1.040669	-0.240275	0.279095
H79	H	1.106516	-0.291074	0.194994
H80	H	0.542014	0.211891	0.000027
H81	H	0.578855	-0.018910	0.000028
H82	H	0.421532	-0.021243	0.000028
H83	H	0.986860	-0.116585	-0.144795
H84	H	0.976700	-0.692764	0.144863
H85	H	0.979030	-0.560646	0.144873
O86	O	0.870068	0.188872	0.591036
C87	C	0.882220	0.178688	0.682288
H88	H	0.948413	0.152607	0.694877
H89	H	0.872780	0.231563	0.717314
H90	H	0.835294	0.143660	0.708462
O91	O	1.093436	0.001698	0.409094
C92	C	1.049036	-0.041396	0.355825
H93	H	0.983896	-0.013576	0.341995
H94	H	1.083773	-0.052481	0.291006
H95	H	1.043537	-0.092976	0.391399
H96	H	0.986812	-0.116611	0.144904
