data_functionalizedCrystal
_audit_creation_method	'MofGen! by Chris Wilmer'
_symmetry_space_group_name_H-M	'P1'
_symmetry_Int_Tables_number	1
_symmetry_cell_setting	triclinic
loop_
_symmetry_equiv_pos_as_xyz
  x,y,z
_cell_length_a	17.699083
_cell_length_b	27.732048
_cell_length_c	16.176319
_cell_angle_alpha	90.008398
_cell_angle_beta	89.999950
_cell_angle_gamma	82.962835
loop_
_atom_site_label
_atom_site_type_symbol
_atom_site_fract_x
_atom_site_fract_y
_atom_site_fract_z
O1	O	1.003539	0.061125	0.068640
O2	O	1.503539	0.561125	0.568640
O3	O	0.783090	0.069077	0.068668
O4	O	1.283090	0.569077	0.568668
O5	O	0.900161	-0.005271	0.068637
O6	O	1.400161	0.494729	0.568637
O7	O	0.886468	0.135473	0.068670
O8	O	1.386468	0.635473	0.568670
O9	O	0.900147	-0.005271	-0.068856
O10	O	1.400147	0.494729	0.431144
O11	O	0.783077	0.069077	-0.068825
O12	O	1.283077	0.569077	0.431175
O13	O	1.003525	0.061125	-0.068853
O14	O	1.503525	0.561125	0.431147
Cu15	Cu	0.893300	0.065101	-0.081394
Cu16	Cu	1.393300	0.565101	0.418606
Cu17	Cu	0.893316	0.065101	0.081208
Cu18	Cu	1.393316	0.565101	0.581208
O19	O	0.886454	0.135473	-0.068823
O20	O	1.386454	0.635473	0.431177
C21	C	0.754889	0.068792	-0.000075
C22	C	1.254889	0.568792	0.499925
C23	C	0.670878	0.067938	-0.000065
C24	C	1.170878	0.567938	0.499935
C25	C	0.621873	0.111579	-0.000055
C26	C	1.121873	0.611579	0.499945
C27	C	0.542936	0.110772	-0.000066
C28	C	1.042936	0.610772	0.499934
C29	C	0.513007	0.066325	-0.000081
C30	C	1.013007	0.566325	0.499919
C31	C	0.562019	0.022680	-0.000094
C32	C	1.062019	0.522680	0.499906
C33	C	0.640954	0.023487	-0.000089
C34	C	1.140954	0.523487	0.499911
C35	C	0.243685	0.019426	-0.000115
C36	C	0.743685	0.519426	0.499885
C37	C	0.164744	0.018623	-0.000117
C38	C	0.664744	0.518623	0.499883
C39	C	0.145667	0.106712	-0.000092
C40	C	0.645667	0.606712	0.499908
C41	C	0.224602	0.107518	-0.000087
C42	C	0.724602	0.607518	0.499913
C43	C	0.273607	0.063874	-0.000104
C44	C	0.773607	0.563874	0.499896
C45	C	0.359199	0.064749	-0.000094
C46	C	0.859199	0.564749	0.499906
C47	C	0.427418	0.065450	-0.000085
C48	C	0.927418	0.565450	0.499915
C49	C	0.899867	-0.023279	-0.000112
C50	C	1.399867	0.476721	0.499888
C51	C	0.899001	-0.076937	-0.000118
C52	C	1.399001	0.423063	0.499882
C53	C	0.962734	-0.415523	-0.000084
C54	C	1.462734	0.084477	0.499916
C55	C	0.959522	-0.617194	-0.000072
C56	C	1.459522	-0.117194	0.499928
O57	O	1.017801	-0.648240	-0.000043
O58	O	1.517801	-0.148240	0.499957
N59	N	0.890104	-0.636567	-0.000064
N60	N	1.390104	-0.136567	0.499936
C61	C	0.821484	-0.605520	-0.000053
C62	C	1.321484	-0.105520	0.499947
O63	O	0.762366	-0.626625	-0.000038
O64	O	1.262366	-0.126625	0.499962
C65	C	0.824696	-0.403849	-0.000059
C66	C	1.324696	0.096151	0.499941
C67	C	0.894119	-0.384479	-0.000076
C68	C	1.394119	0.115521	0.499924
C69	C	1.032151	-0.396152	-0.000100
C70	C	1.532151	0.103848	0.499900
C71	C	1.032953	-0.345737	-0.000107
C72	C	1.532953	0.154263	0.499893
C73	C	0.964338	-0.314693	-0.000099
C74	C	1.464338	0.185307	0.499901
C75	C	0.894921	-0.334064	-0.000083
C76	C	1.394921	0.165936	0.499917
C77	C	0.756076	-0.372802	-0.000043
C78	C	1.256076	0.127198	0.499957
C79	C	0.756886	-0.322382	-0.000042
C80	C	1.256886	0.177618	0.499958
C81	C	0.826308	-0.303012	-0.000059
C82	C	1.326308	0.196988	0.499941
C83	C	0.827108	-0.252605	-0.000083
C84	C	1.327108	0.247395	0.499917
N85	N	0.896526	-0.233232	-0.000091
N86	N	1.396526	0.266768	0.499909
C87	C	0.965141	-0.264276	-0.000099
C88	C	1.465141	0.235724	0.499901
C89	C	0.819802	-0.711400	-0.000052
C90	C	1.319802	-0.211400	0.499948
C91	C	0.818999	-0.761817	-0.000052
C92	C	1.318999	-0.261817	0.499948
C93	C	0.957038	-0.773488	-0.000069
C94	C	1.457038	-0.273488	0.499931
C95	C	0.957840	-0.723070	-0.000075
C96	C	1.457840	-0.223070	0.499925
C97	C	0.889220	-0.692026	-0.000060
C98	C	1.389220	-0.192026	0.499940
C99	C	0.966820	-0.158401	-0.000115
C100	C	1.466820	0.341599	0.499885
C101	C	0.967616	-0.107981	-0.000126
C102	C	1.467616	0.392019	0.499874
C103	C	0.829578	-0.096314	-0.000105
C104	C	1.329578	0.403686	0.499895
C105	C	0.828781	-0.146730	-0.000098
C106	C	1.328781	0.353270	0.499902
C107	C	0.897409	-0.177772	-0.000101
C108	C	1.397409	0.322228	0.499899
O109	O	0.768860	-0.221531	-0.000102
O110	O	1.268860	0.278469	0.499898
O111	O	1.024251	-0.243161	-0.000096
O112	O	1.524251	0.256839	0.499904
C113	C	0.961931	-0.465938	-0.000077
C114	C	1.461931	0.034062	0.499923
C115	C	0.892514	-0.485309	-0.000061
C116	C	1.392514	0.014691	0.499939
C117	C	0.823899	-0.454265	-0.000053
C118	C	1.323899	0.045735	0.499947
C119	C	0.891711	-0.535726	-0.000061
C120	C	1.391711	-0.035726	0.499939
C121	C	0.960326	-0.566770	-0.000069
C122	C	1.460326	-0.066770	0.499931
C123	C	1.029744	-0.547397	-0.000077
C124	C	1.529744	-0.047397	0.499923
C125	C	1.030546	-0.496982	-0.000085
C126	C	1.530546	0.003018	0.499915
C127	C	0.754481	-0.473638	-0.000045
C128	C	1.254481	0.026362	0.499955
C129	C	0.753685	-0.524053	-0.000038
C130	C	1.253685	-0.024053	0.499962
C131	C	0.822300	-0.555097	-0.000046
C132	C	1.322300	-0.055097	0.499954
C133	C	1.031726	0.061410	-0.000108
C134	C	1.531726	0.561410	0.499892
C135	C	1.115737	0.062264	-0.000113
C136	C	1.615737	0.562264	0.499887
C137	C	0.886748	0.153481	-0.000072
C138	C	1.386748	0.653481	0.499928
C139	C	0.887614	0.207139	-0.000060
C140	C	1.387614	0.707139	0.499940
N141	N	0.893294	0.065100	-0.195759
N142	N	1.393294	0.565100	0.304241
C143	C	0.938850	0.094382	-0.239018
C144	C	1.438850	0.594382	0.260982
C145	C	0.938859	0.094380	-0.325565
C146	C	1.438859	0.594380	0.174435
C147	C	0.893305	0.065099	-0.368851
C148	C	1.393305	0.565099	0.131149
C149	C	0.847747	0.035814	-0.325586
C150	C	1.347747	0.535814	0.174414
C151	C	0.847743	0.035814	-0.239040
C152	C	1.347743	0.535814	0.260960
C153	C	0.847761	0.035815	-0.674614
C154	C	1.347761	0.535815	-0.174614
C155	C	0.847766	0.035819	-0.761166
C156	C	1.347766	0.535819	-0.261166
C157	C	0.938876	0.094381	-0.761139
C158	C	1.438876	0.594381	-0.261139
C159	C	0.938873	0.094380	-0.674594
C160	C	1.438873	0.594380	-0.174594
C161	C	0.893317	0.065094	-0.631336
C162	C	1.393317	0.565094	-0.131336
C163	C	0.893310	0.065096	-0.537491
C164	C	1.393310	0.565096	-0.037491
C165	C	0.893308	0.065100	-0.462694
C166	C	1.393308	0.565100	0.037306
N167	N	0.893328	0.065098	0.195573
N168	N	1.393328	0.565098	0.695573
H169	H	0.646234	0.147773	-0.000042
H170	H	1.146234	0.647773	0.499958
H171	H	0.105758	0.142249	-0.000083
H172	H	0.605758	0.642249	0.499917
H173	H	0.503039	0.146309	-0.000057
H174	H	1.003039	0.646309	0.499943
H175	H	0.248965	0.143712	-0.000071
H176	H	0.748965	0.643712	0.499929
H177	H	0.680855	-0.012050	-0.000096
H178	H	1.180855	0.487950	0.499904
H179	H	0.283576	-0.016112	-0.000129
H180	H	0.783576	0.483888	0.499871
H181	H	0.763920	-0.686128	-0.000040
H182	H	1.263920	-0.186128	0.499960
C183	C	0.131824	-0.030272	-0.000142
C184	C	0.631824	0.469728	0.499858
H185	H	0.172314	-0.056149	-0.000160
H186	H	0.672314	0.443851	0.499840
H187	H	0.101426	-0.032420	0.047802
H188	H	0.601426	0.467580	0.547802
H189	H	0.101429	-0.032411	-0.048097
H190	H	0.601429	0.467589	0.451903
H191	H	0.537645	-0.013510	-0.000118
H192	H	1.037645	0.486490	0.499882
H193	H	0.810667	0.011968	-0.639404
H194	H	1.310667	0.511968	-0.139404
C195	C	1.106912	-0.475681	-0.000094
C196	C	1.606912	0.024319	0.499906
H197	H	1.147656	-0.501396	-0.000091
H198	H	1.647656	-0.001396	0.499909
H199	H	1.110098	-0.456260	-0.048041
H200	H	1.610098	0.043740	0.451959
H201	H	1.110102	-0.456253	0.047859
H202	H	1.610102	0.043747	0.547859
H203	H	1.085613	-0.572682	-0.000087
H204	H	1.585613	-0.072682	0.499913
H205	H	1.014370	-0.707302	-0.000088
H206	H	1.514370	-0.207302	0.499912
C207	C	1.043984	-0.086676	-0.000140
C208	C	1.543984	0.413324	0.499860
H209	H	1.084732	-0.112389	-0.000134
H210	H	1.584732	0.387611	0.499866
H211	H	1.047166	-0.067257	-0.048088
H212	H	1.547166	0.432743	0.451912
H213	H	1.047171	-0.067247	0.047811
H214	H	1.547171	0.432753	0.547811
C215	C	1.032512	-0.807642	-0.000065
C216	C	1.532512	-0.307642	0.499935
H217	H	1.022085	-0.840442	-0.000054
H218	H	1.522085	-0.340442	0.499946
H219	H	1.061012	-0.801789	-0.048009
H220	H	1.561012	-0.301789	0.451991
H221	H	1.060996	-0.801773	0.047891
H222	H	1.560996	-0.301773	0.547891
H223	H	1.022703	-0.183670	-0.000114
H224	H	1.522703	0.316330	0.499886
H225	H	1.089484	-0.329971	-0.000117
H226	H	1.589484	0.170029	0.499883
C227	C	0.742634	-0.783119	-0.000040
C228	C	1.242634	-0.283119	0.499960
H229	H	0.701889	-0.757406	-0.000027
H230	H	1.201889	-0.257406	0.499973
H231	H	0.739440	-0.802549	-0.047984
H232	H	1.239440	-0.302549	0.452016
H233	H	0.739457	-0.802538	0.047916
H234	H	1.239457	-0.302538	0.547916
C235	C	0.679710	-0.394099	-0.000018
C236	C	1.179710	0.105901	0.499982
H237	H	0.638968	-0.368383	-0.000002
H238	H	1.138968	0.131617	0.499998
H239	H	0.676509	-0.413529	-0.047960
H240	H	1.176509	0.086471	0.452040
H241	H	0.676534	-0.413516	0.047940
H242	H	1.176534	0.086484	0.547940
C243	C	0.681402	-0.288237	-0.000029
C244	C	1.181402	0.211763	0.499971
H245	H	0.639946	-0.306998	-0.000025
H246	H	1.139946	0.193002	0.499975
H247	H	0.678849	-0.268320	0.047915
H248	H	1.178849	0.231680	0.547915
H249	H	0.678837	-0.268333	-0.047985
H250	H	1.178837	0.231667	0.452015
H251	H	1.088028	-0.421424	-0.000103
H252	H	1.588028	0.078576	0.499897
C253	C	0.988994	0.126591	-0.808725
C254	C	1.488994	0.626591	-0.308725
H255	H	0.982481	0.122395	-0.866468
H256	H	1.482481	0.622395	-0.366468
H257	H	0.974540	0.159675	-0.794533
H258	H	1.474540	0.659675	-0.294533
H259	H	1.040885	0.117566	-0.794538
H260	H	1.540885	0.617566	-0.294538
C261	C	0.752419	-0.168038	-0.000078
C262	C	1.252419	0.331962	0.499922
H263	H	0.711670	-0.142327	-0.000069
H264	H	1.211670	0.357673	0.499931
H265	H	0.749224	-0.187474	-0.048015
H266	H	1.249224	0.312526	0.451985
H267	H	0.749248	-0.187452	0.047884
H268	H	1.249248	0.312548	0.547884
H269	H	0.810661	0.011971	-0.360836
H270	H	1.310661	0.511971	0.139164
C271	C	0.754108	-0.062160	-0.000091
C272	C	1.254108	0.437840	0.499909
H273	H	0.764534	-0.029360	-0.000088
H274	H	1.264534	0.470640	0.499912
H275	H	0.725604	-0.068025	-0.048029
H276	H	1.225604	0.431975	0.451971
H277	H	0.725629	-0.068019	0.047871
H278	H	1.225629	0.431981	0.547871
C279	C	0.677315	-0.545355	-0.000017
C280	C	1.177315	-0.045355	0.499983
H281	H	0.636569	-0.519641	-0.000005
H282	H	1.136569	-0.019641	0.499995
H283	H	0.674116	-0.564788	-0.047957
H284	H	1.174116	-0.064788	0.452043
H285	H	0.674141	-0.564771	0.047943
H286	H	1.174141	-0.064771	0.547943
H287	H	0.698605	-0.448366	-0.000036
H288	H	1.198605	0.051634	0.499964
C289	C	0.988964	0.126588	-0.191411
C290	C	1.488964	0.626588	0.308589
H291	H	1.016103	0.144023	-0.229574
H292	H	1.516103	0.644023	0.270426
H293	H	0.957691	0.148860	-0.157642
H294	H	1.457691	0.648860	0.342358
H295	H	1.024029	0.106747	-0.157657
H296	H	1.524029	0.606747	0.342343
H297	H	0.975957	0.118222	-0.360783
H298	H	1.475957	0.618222	0.139217
C299	C	0.797660	0.003607	-0.808783
C300	C	1.297660	0.503607	-0.308783
H301	H	0.804182	0.007807	-0.866521
H302	H	1.304182	0.507807	-0.366521
H303	H	0.812114	-0.029478	-0.794613
H304	H	1.312114	0.470522	-0.294613
H305	H	0.745767	0.012630	-0.794600
H306	H	1.245767	0.512630	-0.294600
H307	H	0.975964	0.118226	-0.639354
H308	H	1.475964	0.618226	-0.139354
H309	H	0.810646	0.011970	-0.203820
H310	H	1.310646	0.511970	0.296180
