data_functionalizedCrystal
_audit_creation_method	'MofGen! by Chris Wilmer'
_symmetry_space_group_name_H-M	'P1'
_symmetry_Int_Tables_number	1
_symmetry_cell_setting	triclinic
loop_
_symmetry_equiv_pos_as_xyz
  x,y,z
_cell_length_a	23.532355
_cell_length_b	23.532357
_cell_length_c	22.010155
_cell_angle_alpha	89.998697
_cell_angle_beta	89.997414
_cell_angle_gamma	82.827896
loop_
_atom_site_label
_atom_site_type_symbol
_atom_site_fract_x
_atom_site_fract_y
_atom_site_fract_z
O1	O	0.755271	0.068988	-0.050450
O2	O	0.589401	0.079022	-0.050470
O3	O	0.677352	-0.008930	-0.050447
O4	O	0.667319	0.156940	-0.050473
O5	O	0.677336	-0.008916	0.050604
O6	O	0.589385	0.079035	0.050580
O7	O	0.755255	0.069001	0.050601
Cu8	Cu	0.672318	0.074019	0.059817
Cu9	Cu	0.672337	0.074004	-0.059687
O10	O	0.667303	0.156953	0.050577
C11	C	0.568177	0.078778	0.000053
C12	C	0.504958	0.078024	0.000045
C13	C	0.112936	0.073293	0.055154
C14	C	0.053537	0.072575	0.055157
O15	O	0.022811	0.072191	0.102002
N16	N	0.023837	0.072212	0.000074
C17	C	0.053541	0.072561	-0.055014
O18	O	0.022825	0.072186	-0.101866
C19	C	0.112940	0.073275	-0.055016
C20	C	0.142636	0.073643	0.000070
C21	C	0.142632	0.073661	0.110236
C22	C	0.202027	0.074379	0.110233
C23	C	0.231727	0.074730	0.055149
C24	C	0.202031	0.074362	0.000067
C25	C	0.142643	0.073619	-0.110104
C26	C	0.202045	0.074332	-0.110101
C27	C	0.231741	0.074701	-0.055015
C28	C	0.291125	0.075431	-0.055019
N29	N	0.320824	0.075794	0.000063
C30	C	0.291125	0.075443	0.055147
C31	C	-0.071200	0.071062	-0.055006
C32	C	-0.130599	0.070353	-0.055005
C33	C	-0.130598	0.070366	0.055166
C34	C	-0.071199	0.071079	0.055164
C35	C	-0.041501	0.071425	0.000076
C36	C	0.415859	0.076953	0.055137
C37	C	0.475259	0.077674	0.055130
C38	C	0.475254	0.077657	-0.055041
C39	C	0.415859	0.076939	-0.055034
C40	C	0.386163	0.076585	0.000060
O41	O	0.321889	0.075813	-0.101841
O42	O	0.321850	0.075811	0.101991
C43	C	0.677094	-0.030140	0.000080
C44	C	0.676339	-0.093358	0.000086
C45	C	0.671611	-0.485376	-0.055030
C46	C	0.670894	-0.544775	-0.055034
O47	O	0.670511	-0.575497	-0.101879
N48	N	0.670529	-0.574479	0.000048
C49	C	0.670876	-0.544780	0.055137
O50	O	0.670500	-0.575499	0.101988
C51	C	0.671589	-0.485381	0.055140
C52	C	0.671960	-0.455681	0.000055
C53	C	0.671980	-0.455675	-0.110111
C54	C	0.672699	-0.396280	-0.110107
C55	C	0.673047	-0.366585	-0.055023
C56	C	0.672678	-0.396286	0.000058
C57	C	0.671932	-0.455682	0.110228
C58	C	0.672645	-0.396279	0.110226
C59	C	0.673015	-0.366579	0.055141
C60	C	0.673745	-0.307196	0.055147
N61	N	0.674109	-0.277492	0.000065
C62	C	0.673761	-0.307187	-0.055020
C63	C	0.669378	-0.669521	0.055127
C64	C	0.668669	-0.728919	0.055124
C65	C	0.668685	-0.728910	-0.055046
C66	C	0.669398	-0.669511	-0.055044
C67	C	0.669742	-0.639817	0.000045
C68	C	0.675269	-0.182453	-0.055008
C69	C	0.675990	-0.123053	-0.054999
C70	C	0.675971	-0.123067	0.055172
C71	C	0.675253	-0.182462	0.055163
C72	C	0.674901	-0.212153	0.000069
O73	O	0.674126	-0.276435	0.101968
O74	O	0.674129	-0.276459	-0.101863
C75	C	0.776479	0.069245	0.000077
C76	C	0.839698	0.069999	0.000080
C77	C	0.667562	0.178163	0.000049
C78	C	0.668317	0.241381	0.000039
N79	N	0.672309	0.074030	0.143870
N80	N	0.672351	0.073989	-0.143739
C81	C	0.711284	0.035064	0.563659
C82	C	0.711287	0.035060	0.627267
O83	O	0.744402	0.001938	0.660167
N84	N	0.672337	0.073992	0.659077
C85	C	0.633378	0.112926	0.627276
O86	O	0.600248	0.146040	0.660173
C87	C	0.633373	0.112927	0.563669
C88	C	0.672329	0.073997	0.531863
C89	C	0.750237	-0.003863	0.531853
C90	C	0.750235	-0.003858	0.468249
C91	C	0.711280	0.035074	0.436453
C92	C	0.672327	0.074001	0.468259
C93	C	0.594412	0.151858	0.531869
C94	C	0.594410	0.151855	0.468258
C95	C	0.633366	0.112925	0.436452
C96	C	0.633370	0.112938	0.372860
N97	N	0.672320	0.074007	0.341050
C98	C	0.711275	0.035075	0.372846
C99	C	0.633391	0.112921	0.760853
C100	C	0.633398	0.112923	0.824459
C101	C	0.711306	0.035057	0.824446
C102	C	0.711301	0.035057	0.760839
C103	C	0.672341	0.073989	0.729044
C104	C	0.711268	0.035088	0.239275
C105	C	0.711264	0.035098	0.175666
C106	C	0.633354	0.112962	0.175685
C107	C	0.633360	0.112955	0.239288
C108	C	0.672319	0.074013	0.271082
O109	O	0.600271	0.146043	0.339919
O110	O	0.744395	0.001962	0.339941
H111	H	-0.047025	0.071380	0.100020
H112	H	0.562682	0.183558	0.442374
Br113	Br	0.673111	-0.355983	0.184994
Br114	Br	0.669848	-0.629228	0.129897
H115	H	0.668399	-0.753098	-0.099900
H116	H	0.743023	0.003357	0.734946
H117	H	0.671632	-0.479854	0.155085
H118	H	0.562690	0.183558	0.557757
H119	H	0.676293	-0.098874	-0.099858
H120	H	0.674957	-0.206645	0.100018
H121	H	0.601682	0.144630	0.850351
H122	H	0.499435	0.077976	0.099989
H123	H	0.743025	0.003355	0.850346
Br124	Br	0.102356	0.073118	-0.184868
H125	H	0.668376	-0.753097	0.099980
Br126	Br	0.803103	-0.056697	0.425090
H127	H	0.669699	-0.645333	-0.099899
Br128	Br	0.676446	-0.082755	0.129926
Br129	Br	0.764139	-0.017737	0.132503
H130	H	0.601643	0.144661	0.265186
Br131	Br	0.674791	-0.222739	-0.129779
Br132	Br	0.764142	-0.017763	0.282413
H133	H	0.226223	0.074614	-0.154961
Br134	Br	0.803111	-0.056708	0.574994
Br135	Br	0.580490	0.165799	0.132522
Br136	Br	0.102338	0.073188	0.185003
Br137	Br	0.580514	0.165766	0.717708
Br138	Br	0.375554	0.076451	-0.129793
Br139	Br	-0.170915	0.069890	0.129924
H140	H	0.391687	0.076669	0.100000
Br141	Br	-0.030902	0.071536	-0.129776
H142	H	0.226201	0.074676	0.155090
H143	H	-0.154773	0.070062	-0.099861
H144	H	0.499445	0.077945	-0.099889
H145	H	0.671694	-0.479846	-0.154970
Br146	Br	0.673197	-0.355982	-0.184870
