data_functionalizedCrystal
_audit_creation_method	'MofGen! by Chris Wilmer'
_symmetry_space_group_name_H-M	'P1'
_symmetry_Int_Tables_number	1
_symmetry_cell_setting	triclinic
loop_
_symmetry_equiv_pos_as_xyz
  x,y,z
_cell_length_a	18.050589
_cell_length_b	18.101398
_cell_length_c	18.101389
_cell_angle_alpha	89.973091
_cell_angle_beta	90.019529
_cell_angle_gamma	89.987495
loop_
_atom_site_label
_atom_site_type_symbol
_atom_site_fract_x
_atom_site_fract_y
_atom_site_fract_z
Zn1	Zn	-0.295896	-1.132175	0.418884
Zn2	Zn	-0.420071	-1.132094	0.295040
Zn3	Zn	-0.295882	-1.008334	0.295040
Zn4	Zn	-0.420032	-1.008308	0.418823
O5	O	-0.357970	-1.070228	0.356947
O6	O	-0.312391	-1.235798	0.402482
O7	O	-0.403607	-1.115654	0.191407
O8	O	-0.191959	-1.024807	0.311493
O9	O	-0.403621	-1.235738	0.311494
O10	O	-0.191970	-1.115793	0.402481
O11	O	-0.312366	-1.024728	0.191407
O12	O	-0.312328	-0.904698	0.311434
O13	O	-0.403555	-1.024762	0.522464
O14	O	-0.403540	-0.904679	0.402377
O15	O	-0.312353	-1.115767	0.522509
O16	O	-0.523990	-1.115629	0.311435
O17	O	-0.523961	-1.024683	0.402378
C18	C	-0.357929	-0.877817	0.356899
C19	C	-0.357929	-0.795503	0.356897
C20	C	-0.550922	-1.070164	0.356916
C21	C	-0.633468	-1.070205	0.356927
C22	C	-0.357951	-1.070271	0.550109
C23	C	-0.357943	-1.070289	0.632423
C24	C	-0.882282	-1.119790	0.307555
C25	C	-0.832939	-1.052221	0.289356
C26	C	-0.930588	-1.070298	0.356984
C27	C	-0.832850	-1.137817	0.375120
C28	C	-0.784603	-1.070256	0.356955
C29	C	-0.882332	-1.002694	0.338751
C30	C	-0.882248	-1.088335	0.424547
C31	C	-0.832927	-1.020720	0.406373
C32	C	-1.014687	-1.070323	0.357000
C33	C	-0.700507	-1.070223	0.356939
C34	C	-0.164264	-1.070312	0.356994
C35	C	-0.081719	-1.070348	0.357014
C36	C	-0.357958	-0.496412	0.356945
C37	C	-0.300285	-0.527725	0.300007
C38	C	-0.300444	-0.613343	0.299768
C39	C	-0.357943	-0.644795	0.356921
C40	C	-0.436169	-0.613691	0.335594
C41	C	-0.435843	-0.528046	0.335194
C42	C	-0.338088	-0.528023	0.435347
C43	C	-0.336351	-0.613674	0.434923
C44	C	-0.357939	-0.728654	0.356909
C45	C	-0.357967	-0.412553	0.356956
C46	C	-0.357997	-0.263390	0.356983
C47	C	-0.357972	-0.345704	0.356970
C48	C	-0.357935	-1.070228	0.164536
C49	C	-0.357734	-1.070353	0.082223
C50	C	-0.357804	-1.070332	0.931514
C51	C	-0.415003	-1.012877	0.900161
C52	C	-0.415269	-1.013032	0.814542
C53	C	-0.357873	-1.070310	0.783131
C54	C	-0.379128	-1.148339	0.814240
C55	C	-0.379503	-1.148019	0.899885
C56	C	-0.279223	-1.050436	0.899939
C57	C	-0.279677	-1.048700	0.814288
C58	C	-0.357911	-1.070302	0.699272
C59	C	-0.357768	-1.070345	1.015374
H60	H	-0.903953	-1.161609	0.265734
Br61	Br	-0.240411	-0.647576	0.461738
Br62	Br	-0.244664	-0.492055	0.467662
H63	H	-0.242097	-0.507144	0.313227
H64	H	-0.903975	-0.945560	0.323335
H65	H	-0.903925	-1.103634	0.481679
H66	H	-0.436947	-1.164884	0.919868
Br67	Br	-0.796830	-1.026756	0.194107
Br68	Br	-0.797034	-0.950855	0.476028
H69	H	-0.375299	-0.635086	0.479622
H70	H	-0.811115	-1.194934	0.390471
Br71	Br	-0.203760	-0.648399	0.322049
H72	H	-0.313271	-0.506178	0.242251
H73	H	-0.313581	-0.633799	0.241675
Br74	Br	-0.463932	-0.494692	0.239666
Br75	Br	-0.252964	-0.952986	0.780410
H76	H	-0.480269	-0.507332	0.374857
Br77	Br	-0.509715	-0.647632	0.402561
Br78	Br	-0.246951	-0.957247	0.935910
H79	H	-0.453317	-0.635109	0.278900
H80	H	-0.380095	-0.507774	0.477771
H81	H	-0.401967	-0.955171	0.793507
H82	H	-0.401837	-0.954842	0.920744
Br83	Br	-0.511481	-1.034503	0.936098
Br84	Br	-0.204872	-1.113365	0.778663
Br85	Br	-0.512340	-1.034971	0.780396
Br86	Br	-0.313034	-1.221743	0.934463
H87	H	-0.338776	-1.192298	0.793897
Br88	Br	-0.208193	-1.120185	0.933734
Br89	Br	-0.473854	-1.176939	0.778503
