data_functionalizedCrystal
_audit_creation_method	'MofGen! by Chris Wilmer'
_symmetry_space_group_name_H-M	'P1'
_symmetry_Int_Tables_number	1
_symmetry_cell_setting	triclinic
loop_
_symmetry_equiv_pos_as_xyz
  x,y,z
_cell_length_a	19.377369
_cell_length_b	19.851628
_cell_length_c	19.377372
_cell_angle_alpha	90.000597
_cell_angle_beta	62.058157
_cell_angle_gamma	48.634029
loop_
_atom_site_label
_atom_site_type_symbol
_atom_site_fract_x
_atom_site_fract_y
_atom_site_fract_z
Zr1	Zr	0.759387	0.527771	0.055867
O2	O	0.943831	0.371506	-0.042076
O3	O	0.607574	0.588403	0.064535
O4	O	0.806419	0.530410	-0.072857
O5	O	0.696507	0.460766	0.227987
O6	O	0.806400	0.641278	-0.072843
O7	O	0.744986	0.429499	0.095316
O8	O	0.450702	0.745016	0.172926
O9	O	1.052205	0.357028	-0.017782
O10	O	0.657917	0.681623	0.094045
O11	O	0.621752	0.622218	0.193045
O12	O	0.855867	0.553939	0.031284
O13	O	0.819702	0.494534	0.130285
Zr14	Zr	0.682040	0.754459	0.267483
Zr15	Zr	0.759357	0.704592	0.055888
Zr16	Zr	0.682069	0.577638	0.267462
Zr17	Zr	0.932231	0.504679	0.094613
Zr18	Zr	0.509195	0.777551	0.228737
O19	O	0.833853	0.693827	0.258815
O20	O	0.943789	0.622922	-0.042046
O21	O	0.833895	0.442411	0.258785
O22	O	0.497596	0.910724	0.365426
O23	O	0.607531	0.839819	0.064565
O24	O	0.497638	0.659307	0.365396
O25	O	0.744920	0.821464	0.095363
O26	O	0.635008	0.751820	0.396207
O27	O	0.635026	0.640952	0.396194
O28	O	0.696441	0.852731	0.228034
O29	O	1.052182	0.497576	-0.017765
O30	O	0.389245	0.784654	0.341116
O31	O	0.389222	0.925202	0.341132
O32	O	0.450679	0.885565	0.172943
O33	O	0.990748	0.396665	0.150408
O34	O	0.990724	0.537214	0.150425
O35	O	0.585560	0.728291	0.292066
O36	O	0.621725	0.787696	0.193065
O37	O	0.819674	0.660012	0.130305
O38	O	0.783509	0.600607	0.229306
C39	C	0.504511	0.670000	0.113210
C40	C	0.431134	0.679803	0.096762
C41	C	0.720751	0.419939	0.161649
C42	C	0.720763	0.344874	0.161640
C43	C	0.095006	0.557418	0.301332
C44	C	0.025941	0.566759	0.285946
C45	C	0.063704	0.628773	0.182597
C46	C	0.132769	0.619442	0.197977
C47	C	0.148416	0.583762	0.257344
C48	C	0.186179	0.645786	0.153990
C49	C	0.255243	0.636451	0.169365
C50	C	0.270898	0.600770	0.228728
C51	C	0.217480	0.574426	0.272720
C52	C	0.170538	0.681459	0.094617
C53	C	0.223947	0.707803	0.050630
C54	C	0.293006	0.698475	0.066010
C55	C	0.308661	0.662794	0.125373
C56	C	0.346424	0.724818	0.022018
C57	C	0.415488	0.715482	0.037394
C58	C	0.377725	0.653458	0.140749
C59	C	0.828661	0.093921	0.127449
C60	C	0.798867	0.068231	0.078444
C61	C	0.720729	0.207478	0.161663
C62	C	0.750535	0.099423	0.210650
C63	C	0.720702	0.074754	0.161686
C64	C	0.690954	0.182763	0.112603
C65	C	0.642616	0.213963	0.244864
C66	C	0.612749	0.188339	0.195869
C67	C	0.720747	0.283934	0.161648
C68	C	0.720677	-0.001697	0.161698
C69	C	0.936915	0.612230	0.210140
C70	C	1.010292	0.602427	0.226589
C71	C	0.817426	0.578739	-0.102998
C72	C	0.850249	0.557569	-0.192825
C73	C	0.720676	0.862290	0.161702
C74	C	0.720664	0.937355	0.161711
C75	C	0.441574	0.821164	-0.324459
C76	C	0.472444	0.801250	-0.408875
C77	C	0.679089	0.667958	-0.474382
C78	C	0.648236	0.687863	-0.389971
C79	C	0.529477	0.764467	-0.315015
C80	C	0.736139	0.631167	-0.380526
C81	C	0.705288	0.651068	-0.296122
C82	C	0.586535	0.727665	-0.221163
C83	C	0.498627	0.784368	-0.230611
C84	C	0.854897	0.554559	-0.455484
C85	C	0.942800	0.497862	-0.446039
C86	C	0.911950	0.517767	-0.361634
C87	C	0.793197	0.594365	-0.286674
C88	C	0.999859	0.461065	-0.352186
C89	C	0.969008	0.480966	-0.267782
C90	C	0.762346	0.614266	-0.202270
C91	C	0.624001	0.703491	0.426348
C92	C	0.591178	0.724661	0.516176
C93	C	0.504474	0.891175	0.113237
C94	C	0.431085	0.976043	0.096797
C95	C	0.407799	0.732376	0.377883
C96	C	0.301599	0.763349	0.451262
C97	C	0.407762	0.953551	0.377910
C98	C	0.301549	1.059589	0.451298
C99	C	1.033665	0.328679	-0.054559
C100	C	1.139878	0.222641	-0.127947
C101	C	0.936952	0.391055	0.210114
C102	C	1.010342	0.306186	0.226553
C103	C	1.033628	0.549854	-0.054533
C104	C	1.139828	0.518881	-0.127912
C105	C	0.415516	0.960527	0.037380
C106	C	0.346575	1.040257	0.021916
C107	C	0.293198	1.135505	0.065874
C108	C	0.308773	1.151019	0.125294
C109	C	0.377719	1.071287	0.140753
C110	C	0.232830	0.833265	0.537418
C111	C	0.133051	0.862365	0.606376
C112	C	0.102036	0.821553	0.589174
C113	C	0.170815	0.751628	0.503010
C114	C	0.270598	0.722524	0.434055
C115	C	0.270548	1.140402	0.434084
C116	C	0.170762	1.240040	0.503034
C117	C	0.101974	1.258863	0.589196
C118	C	0.132983	1.178040	0.606409
C119	C	0.232772	1.078404	0.537461
C120	C	1.170887	0.141827	-0.110732
C121	C	1.270694	0.042186	-0.179677
C122	C	1.339486	0.023363	-0.265838
C123	C	1.308473	0.104186	-0.283052
C124	C	1.208672	0.203823	-0.214107
C125	C	1.025921	0.321700	0.285963
C126	C	1.094890	0.241962	0.301408
C127	C	1.148270	0.146713	0.257448
C128	C	1.132690	0.131201	0.198031
C129	C	1.063730	0.210936	0.182582
C130	C	1.170809	0.559712	-0.110683
C131	C	1.270583	0.530629	-0.179625
C132	C	1.339380	0.460709	-0.265793
C133	C	1.308392	0.419878	-0.283021
C134	C	1.208614	0.448967	-0.214081
H135	H	0.390464	0.624405	0.189092
H136	H	1.204419	0.081796	0.270036
C137	C	1.191402	0.026430	0.149685
H138	H	1.172258	0.028599	0.112083
H139	H	1.163802	0.009155	0.191771
H140	H	1.274374	-0.023100	0.115364
H141	H	1.364421	0.362947	-0.353187
H142	H	0.333904	1.027607	-0.026468
H143	H	0.145548	0.718405	0.489016
H144	H	1.420747	-0.057773	-0.321970
H145	H	0.257998	1.012610	0.551488
H146	H	0.390382	1.083936	0.189140
C147	C	0.346867	0.590496	0.245645
H148	H	0.348542	0.565467	0.287296
H149	H	0.314228	0.655025	0.268250
H150	H	0.424713	0.544637	0.191821
C151	C	1.384138	0.083474	-0.377831
H152	H	1.351387	0.145870	-0.378218
H153	H	1.385654	0.050990	-0.415429
H154	H	1.462053	0.040793	-0.398314
H155	H	0.265304	1.228579	0.161080
H156	H	1.295799	0.563883	-0.165580
C157	C	1.174562	0.292712	-0.233057
H158	H	1.229824	0.267223	-0.294248
H159	H	1.174600	0.327783	-0.199750
H160	H	1.098224	0.337959	-0.216881
H161	H	0.237059	1.200419	0.053279
H162	H	0.982459	0.399251	0.321770
C163	C	0.057403	0.939284	0.701147
H164	H	-0.006461	0.950770	0.739759
H165	H	0.027792	1.001441	0.702521
H166	H	0.104213	0.913082	0.719633
H167	H	1.183403	0.415709	-0.228121
H168	H	0.258067	0.866505	0.551441
C169	C	1.112001	0.259046	0.366775
H170	H	1.070313	0.327198	0.390752
H171	H	1.193391	0.214134	0.336764
H172	H	1.082829	0.246364	0.413150
H173	H	1.051049	0.198292	0.134208
C174	C	1.095146	0.636627	-0.015908
H175	H	1.127892	0.656779	-0.015535
H176	H	1.093635	0.606110	0.021699
H177	H	1.017229	0.694461	0.004575
H178	H	1.114882	0.157136	-0.040581
H179	H	1.420623	0.437032	-0.321920
C180	C	-0.007731	0.853581	0.665029
H181	H	-0.044245	0.901075	0.718801
H182	H	0.014861	0.795546	0.670104
H183	H	-0.061542	0.883907	0.652986
C184	C	0.375747	0.863621	-0.419264
H185	H	0.411126	0.840794	-0.480266
H186	H	0.328224	0.933343	-0.391969
H187	H	0.328248	0.855183	-0.391976
C188	C	0.346201	1.119717	0.339315
H189	H	0.313441	1.182124	0.338952
H190	H	0.347721	1.087247	0.301701
H191	H	0.424116	1.077033	0.318833
C192	C	0.784585	0.050810	0.266613
H193	H	0.721881	0.064933	0.314023
H194	H	0.799547	0.078045	0.289574
H195	H	0.853338	-0.020553	0.230760
H196	H	0.230218	0.545373	0.321064
H197	H	0.107745	0.528364	0.349675
H198	H	0.326580	0.665596	0.363904
H199	H	1.039493	0.435490	-0.507079
H200	H	0.665814	0.218622	0.071103
C201	C	1.304782	-0.046701	-0.160728
H202	H	1.249502	-0.021211	-0.099541
H203	H	1.381115	-0.091961	-0.176900
H204	H	1.304732	-0.081756	-0.194044
H205	H	0.145529	1.305837	0.489002
H206	H	-0.017542	0.545300	0.321768
C207	C	-0.007788	1.368463	0.665033
H208	H	-0.044317	1.368106	0.718819
H209	H	-0.061582	1.407558	0.652979
H210	H	0.014829	1.397335	0.670096
C211	C	0.809714	0.583705	-0.556835
H212	H	0.815500	0.579976	-0.608457
H213	H	0.847130	0.520504	-0.556466
H214	H	0.847097	0.598670	-0.556455
C215	C	1.130483	0.376805	-0.434640
H216	H	1.136266	0.373076	-0.486260
H217	H	1.167892	0.313608	-0.434267
H218	H	1.167876	0.391763	-0.434267
H219	H	0.114307	0.689052	0.082096
C220	C	0.046484	0.668022	0.117300
H221	H	-0.002304	0.669815	0.114446
H222	H	0.120800	0.624050	0.060373
H223	H	0.010306	0.734433	0.136811
H224	H	0.211203	0.736850	0.002290
H225	H	0.333685	0.753859	-0.026325
H226	H	0.864907	0.005890	0.008088
C227	C	0.474228	0.744472	-0.010982
H228	H	0.455006	0.767071	-0.048532
H229	H	0.557198	0.686934	-0.045345
H230	H	0.446698	0.797317	0.031093
H231	H	0.919949	0.054731	0.098447
C232	C	0.057312	1.198753	0.701186
H233	H	0.090064	1.136356	0.701574
H234	H	-0.020599	1.241442	0.721667
H235	H	0.055805	1.231226	0.738789
C236	C	0.489366	0.241500	0.234962
H237	H	0.459612	0.234362	0.285941
H238	H	0.494198	0.211433	0.192288
H239	H	0.438156	0.311519	0.250794
C240	C	0.553465	0.298172	0.339889
H241	H	0.574786	0.269073	0.374624
H242	H	0.477006	0.331470	0.364556
H243	H	0.553627	0.345917	0.339112
H244	H	0.665641	0.676648	-0.141235
H245	H	0.561419	0.743862	-0.152437
H246	H	0.401921	0.846750	-0.169575
H247	H	0.344869	0.883546	-0.263424
H248	H	1.040587	0.434794	-0.260094
H249	H	0.880011	0.538358	-0.524209
C250	C	0.474226	0.855762	-0.010981
H251	H	0.517515	0.810491	0.006733
H252	H	0.525973	0.829958	-0.072947
H253	H	0.415401	0.862205	0.003445
