data_functionalizedCrystal
_audit_creation_method	'MofGen! by Chris Wilmer'
_symmetry_space_group_name_H-M	'P1'
_symmetry_Int_Tables_number	1
_symmetry_cell_setting	triclinic
loop_
_symmetry_equiv_pos_as_xyz
  x,y,z
_cell_length_a	19.288862
_cell_length_b	10.268362
_cell_length_c	19.288865
_cell_angle_alpha	90.010511
_cell_angle_beta	96.864237
_cell_angle_gamma	89.978763
loop_
_atom_site_label
_atom_site_type_symbol
_atom_site_fract_x
_atom_site_fract_y
_atom_site_fract_z
O1	O	-0.921349	0.108817	0.086640
O2	O	-0.719088	0.108712	0.098331
O3	O	-0.826063	0.108742	-0.008645
O4	O	-0.814375	0.108787	0.193616
O5	O	-0.826054	-0.107859	-0.008649
O6	O	-0.719079	-0.107889	0.098327
O7	O	-0.921340	-0.107783	0.086636
Cu8	Cu	-0.820209	-0.127613	0.092481
Cu9	Cu	-0.820220	0.128542	0.092486
O10	O	-0.814365	-0.107813	0.193612
C11	C	-0.693207	0.000398	0.097953
C12	C	-0.616104	0.000356	0.096824
C13	C	-0.571407	0.000387	0.159593
C14	C	-0.498960	0.000394	0.158533
C15	C	-0.471213	0.000397	0.094701
C16	C	-0.515919	0.000359	0.031924
C17	C	-0.588364	0.000339	0.032986
C18	C	-0.362954	0.076304	0.044524
C19	C	-0.290509	0.076333	0.043465
C20	C	-0.247767	0.000455	0.091423
C21	C	-0.277476	-0.075435	0.140452
C22	C	-0.349922	-0.075456	0.141514
C23	C	-0.392659	0.000419	0.093542
C24	C	-0.124514	0.000492	0.153046
C25	C	-0.052066	0.000491	0.151983
C26	C	-0.069027	0.000469	0.025373
C27	C	-0.141473	0.000456	0.026438
C28	C	-0.169212	0.000474	0.090276
N29	N	-0.820206	-0.307779	0.092477
C30	C	-0.820216	-0.573450	0.092485
C31	C	-0.820208	-0.425612	0.092482
C32	C	0.052779	0.000511	0.087016
C33	C	-0.024324	0.000492	0.088151
C34	C	-0.825683	0.000437	-0.034523
C35	C	-0.824554	0.000425	-0.111627
N36	N	-0.820228	0.308708	0.092485
C37	C	-0.887322	0.000452	-0.156324
C38	C	-0.886261	0.000472	-0.228771
C39	C	-0.822429	0.000439	-0.256518
C40	C	-0.759652	0.000420	-0.211811
C41	C	-0.760715	0.000413	-0.139366
C42	C	-0.772246	-0.075457	-0.364806
C43	C	-0.771186	-0.075458	-0.437251
C44	C	-0.819149	0.000467	-0.479963
C45	C	-0.868184	0.076376	-0.450224
C46	C	-0.869246	0.076369	-0.377779
C47	C	-0.821269	0.000448	-0.335072
C48	C	-0.880771	0.000517	-0.603216
C49	C	-0.879708	0.000545	-0.675664
C50	C	-0.753098	0.000480	-0.658703
C51	C	-0.754163	0.000465	-0.586257
C52	C	-0.818001	0.000477	-0.558518
C53	C	-0.814746	0.000494	0.219490
C54	C	-0.815875	0.000515	0.296594
H55	H	-0.397750	0.138101	0.005469
H56	H	-0.624757	0.000314	-0.018129
Br57	Br	-0.438289	0.000428	0.243724
Br58	Br	-0.704644	-0.178485	-0.477605
Br59	Br	-0.707147	-0.178509	-0.306846
H60	H	-0.177866	0.000438	-0.024675
H61	H	-0.493322	0.000379	-0.020048
H62	H	-0.709600	0.000391	-0.102973
Br63	Br	-0.250195	0.179343	-0.023065
H64	H	-0.707680	0.000397	-0.234407
H65	H	-0.015674	0.000509	0.203099
Br66	Br	-0.973959	0.000505	-0.118681
Br67	Br	-0.971452	0.000513	-0.289443
Br68	Br	-0.666466	0.000449	-0.696351
H69	H	-0.907240	0.138203	-0.485000
Br70	Br	-0.935786	0.179390	-0.337419
Br71	Br	-0.967407	0.000520	-0.565566
Br72	Br	-0.964901	0.000595	-0.736327
H73	H	-0.703050	0.000436	-0.549863
H74	H	-0.374108	-0.137252	0.181433
Br75	Br	-0.609051	0.000409	0.246230
H76	H	-0.046435	0.000552	-0.026600
H77	H	-0.147101	0.000487	0.205027
Br78	Br	-0.219478	-0.178416	0.205546
