data_functionalizedCrystal
_audit_creation_method	'MofGen! by Chris Wilmer'
_symmetry_space_group_name_H-M	'P1'
_symmetry_Int_Tables_number	1
_symmetry_cell_setting	triclinic
loop_
_symmetry_equiv_pos_as_xyz
  x,y,z
_cell_length_a	15.698487
_cell_length_b	12.478028
_cell_length_c	12.477989
_cell_angle_alpha	61.136541
_cell_angle_beta	90.001384
_cell_angle_gamma	57.041661
loop_
_atom_site_label
_atom_site_type_symbol
_atom_site_fract_x
_atom_site_fract_y
_atom_site_fract_z
Zr1	Zr	0.740486	1.263425	-0.242470
O2	O	0.597590	1.484819	-0.423023
O3	O	0.795965	1.026068	-0.172371
O4	O	0.792139	1.240400	-0.401744
O5	O	0.591155	1.294216	-0.029495
O6	O	0.932324	1.240396	-0.401738
O7	O	0.601416	1.270487	-0.193650
O8	O	0.939168	0.856996	0.008570
O9	O	0.584310	1.677616	-0.439803
O10	O	0.910141	1.129606	-0.160290
O11	O	0.797865	1.147317	-0.037788
O12	O	0.793360	1.399666	-0.307846
O13	O	0.681084	1.417377	-0.185344
Zr14	Zr	0.947699	1.301264	0.019348
Zr15	Zr	0.964064	1.263419	-0.242460
Zr16	Zr	0.724121	1.301270	0.019338
Zr17	Zr	0.719307	1.570915	-0.269231
Zr18	Zr	0.968878	0.993774	0.046109
O19	O	0.892219	1.538621	-0.050752
O20	O	0.915489	1.484810	-0.423009
O21	O	0.574320	1.538629	-0.050766
O22	O	1.090595	1.079870	0.199901
O23	O	1.113864	1.026060	-0.172356
O24	O	0.772696	1.079879	0.199887
O25	O	1.097030	1.270473	-0.193627
O26	O	0.896045	1.324289	0.178622
O27	O	0.755861	1.324293	0.178615
O28	O	1.086769	1.294202	-0.029472
O29	O	0.762025	1.677612	-0.439794
O30	O	0.926160	0.887077	0.216672
O31	O	1.103874	0.887073	0.216680
O32	O	1.116883	0.856991	0.008578
O33	O	0.571302	1.707698	-0.231700
O34	O	0.749017	1.707693	-0.231692
O35	O	0.894825	1.165023	0.084724
O36	O	1.007101	1.147312	-0.037779
O37	O	0.890320	1.417372	-0.185334
O38	O	0.778044	1.435083	-0.062832
C39	C	0.870584	0.897721	-0.078088
C40	C	0.879575	0.767184	-0.066727
C41	C	0.564430	1.282352	-0.111574
C42	C	0.469516	1.282355	-0.111578
C43	C	0.392433	1.282359	-0.111577
C44	C	0.295736	1.282352	-0.111562
C45	C	1.123754	1.282337	-0.111548
C46	C	1.218669	1.282334	-0.111544
C47	C	0.864563	1.235006	-0.439043
C48	C	0.871511	1.218940	-0.550187
C49	C	0.817600	1.666968	-0.145035
C50	C	0.808609	1.797505	-0.156395
C51	C	0.823622	1.329683	0.215921
C52	C	0.816674	1.345749	0.327065
C53	C	1.150246	0.897714	-0.078075
C54	C	1.254152	0.767173	-0.066710
C55	C	0.850113	0.945059	0.249394
C56	C	0.852157	0.830588	0.371899
C57	C	1.129775	0.945052	0.249407
C58	C	1.226734	0.830578	0.371916
C59	C	0.558409	1.619637	-0.472529
C60	C	0.461451	1.734111	-0.595039
C61	C	0.537938	1.666975	-0.145047
C62	C	0.434033	1.797516	-0.156412
C63	C	0.838071	1.619630	-0.472517
C64	C	0.836028	1.734101	-0.595022
C65	C	1.252336	0.696627	-0.125334
C66	C	1.349958	0.573984	-0.114681
C67	C	1.449396	0.521883	-0.045396
C68	C	1.451209	0.592442	0.013228
C69	C	1.353588	0.715090	0.002567
C70	C	1.330882	0.767575	0.365503
C71	C	1.421993	0.660030	0.480602
C72	C	1.408953	0.615482	0.602114
C73	C	1.304793	0.678497	0.608523
C74	C	1.213684	0.786048	0.493425
C75	C	0.357301	1.797129	-0.588627
C76	C	0.266188	1.904712	-0.703729
C77	C	0.279228	1.949267	-0.825241
C78	C	0.383388	1.886243	-0.831650
C79	C	0.474498	1.778671	-0.716550
C80	C	0.435849	1.868074	-0.097801
C81	C	0.338226	1.990746	-0.108485
C82	C	0.238788	2.042851	-0.177774
C83	C	0.236975	1.972287	-0.236393
C84	C	0.334597	1.849624	-0.225716
H85	H	0.764417	1.466607	-0.692996
H86	H	0.923778	1.098074	-0.530128
H87	H	1.171378	0.739043	-0.181768
H88	H	0.159306	2.142733	-0.186458
H89	H	0.181385	1.956008	-0.698485
H90	H	1.348461	0.516548	-0.162422
H91	H	1.528877	0.422012	-0.036724
H92	H	0.156000	2.014730	-0.292808
H93	H	1.532184	0.550003	0.069639
H94	H	0.894137	0.794203	0.470906
H95	H	1.128885	0.837332	0.498665
H96	H	1.355081	0.772516	0.050315
H97	H	0.516806	1.825662	-0.041371
H98	H	0.740974	0.923333	-0.241862
H99	H	0.763012	0.807127	0.266741
H100	H	0.947220	0.641344	0.018740
H101	H	1.341521	0.803828	0.266573
H102	H	1.506797	0.608732	0.475360
H103	H	0.205031	2.036860	-0.918953
H104	H	1.483149	0.527905	0.695824
H105	H	1.294191	0.642210	0.707473
H106	H	0.559300	1.727360	-0.721785
H107	H	0.346664	1.760859	-0.489696
H108	H	0.393993	1.922534	-0.930599
H109	H	0.333103	1.792178	-0.273442
H110	H	0.339723	2.048181	-0.060743
