data_functionalizedCrystal
_audit_creation_method	'MofGen! by Chris Wilmer'
_symmetry_space_group_name_H-M	'P1'
_symmetry_Int_Tables_number	1
_symmetry_cell_setting	triclinic
loop_
_symmetry_equiv_pos_as_xyz
  x,y,z
_cell_length_a	27.732048
_cell_length_b	19.188930
_cell_length_c	18.266242
_cell_angle_alpha	90.011475
_cell_angle_beta	89.988474
_cell_angle_gamma	97.106282
loop_
_atom_site_label
_atom_site_type_symbol
_atom_site_fract_x
_atom_site_fract_y
_atom_site_fract_z
O1	O	0.641184	-0.083079	-0.060930
O2	O	0.500429	-0.095711	-0.060924
O3	O	0.574869	0.012287	-0.060913
O4	O	0.566745	-0.191077	-0.060941
O5	O	0.574856	0.012292	0.060849
O6	O	0.500417	-0.095706	0.060838
O7	O	0.641172	-0.083074	0.060832
Zn8	Zn	0.570792	-0.089389	0.080167
Zn9	Zn	0.570809	-0.089396	-0.080259
O10	O	0.566732	-0.191071	0.060821
C11	C	0.482415	-0.095443	-0.000042
C12	C	0.428758	-0.094645	-0.000039
C13	C	0.574599	0.038299	-0.000030
C14	C	0.573810	0.115798	-0.000023
C15	C	0.659186	-0.083341	-0.000052
C16	C	0.712843	-0.084140	-0.000060
C17	C	1.051478	-0.025347	-0.000027
C18	C	1.253147	-0.028310	-0.000025
O19	O	1.284238	0.025452	0.000014
N20	N	1.272466	-0.092348	-0.000036
C21	C	1.241365	-0.155650	-0.000042
O22	O	1.262425	-0.210186	-0.000044
C23	C	1.039698	-0.152686	-0.000039
C24	C	1.020381	-0.088644	-0.000035
C25	C	1.032161	0.038690	-0.000022
C26	C	0.981747	0.039430	-0.000027
C27	C	0.950650	-0.023867	-0.000035
C28	C	0.969967	-0.087904	-0.000040
C29	C	1.008598	-0.215988	-0.000040
C30	C	0.958178	-0.215241	-0.000038
C31	C	0.938861	-0.151199	-0.000034
C32	C	0.888456	-0.150461	-0.000053
N33	N	0.869136	-0.086423	-0.000042
C34	C	0.900233	-0.023126	-0.000033
C35	C	1.347244	-0.157201	-0.000045
C36	C	1.397661	-0.157942	-0.000048
C37	C	1.409439	-0.030601	-0.000028
C38	C	1.359021	-0.029861	-0.000032
C39	C	1.327925	-0.093163	-0.000034
C40	C	0.794359	-0.021577	-0.000043
C41	C	0.743940	-0.020843	-0.000051
C42	C	0.732166	-0.148183	-0.000066
C43	C	0.782581	-0.148918	-0.000063
C44	C	0.813677	-0.085609	-0.000049
O45	O	0.857336	-0.204194	-0.000084
O46	O	0.879164	0.031402	-0.000015
C47	C	1.101893	-0.026087	-0.000022
C48	C	1.121210	-0.090124	-0.000026
C49	C	1.090112	-0.153421	-0.000035
C50	C	1.171626	-0.090865	-0.000029
C51	C	1.202723	-0.027568	-0.000020
C52	C	1.183404	0.036470	-0.000009
C53	C	1.132990	0.037210	-0.000013
C54	C	1.109432	-0.217459	-0.000046
C55	C	1.159847	-0.218194	-0.000043
C56	C	1.190944	-0.154897	-0.000034
C57	C	0.567002	-0.217083	-0.000064
C58	C	0.567791	-0.294583	-0.000075
N59	N	0.570784	-0.089383	0.189654
C60	C	0.617488	0.161001	-0.000022
C61	C	0.616746	0.233820	-0.000034
C62	C	0.572323	0.261433	-0.000032
C63	C	0.528639	0.216220	-0.000038
C64	C	0.529382	0.143403	-0.000033
N65	N	0.538363	0.369223	0.041407
N66	N	0.537660	0.438397	0.041405
C67	C	0.570081	0.480827	-0.000047
N68	N	0.603240	0.451471	-0.041487
N69	N	0.603944	0.382291	-0.041481
C70	C	0.571512	0.340390	-0.000037
C71	C	0.612959	0.604989	-0.000059
C72	C	0.612215	0.677809	-0.000075
C73	C	0.524106	0.660208	-0.000072
C74	C	0.524851	0.587390	-0.000063
C75	C	0.569279	0.559785	-0.000053
N76	N	0.570820	-0.089396	-0.189746
C77	C	0.603757	-0.041585	0.227968
C78	C	0.603760	-0.041582	0.304613
C79	C	0.570795	-0.089389	0.342941
C80	C	0.537817	-0.137191	0.304618
C81	C	0.537811	-0.137188	0.227975
N82	N	0.564512	-0.151237	0.463265
N83	N	0.564520	-0.151237	0.536073
C84	C	0.570809	-0.089399	0.573864
N85	N	0.577099	-0.027558	0.536095
N86	N	0.577093	-0.027559	0.463280
C87	C	0.570797	-0.089397	0.426048
C88	C	0.603786	-0.041593	0.695284
C89	C	0.603786	-0.041589	0.771931
C90	C	0.537845	-0.137204	0.771935
C91	C	0.537843	-0.137202	0.695290
C92	C	0.570816	-0.089397	0.656969
H93	H	0.819672	0.029975	-0.000032
H94	H	1.321929	-0.208752	-0.000049
N95	N	0.960916	0.108504	-0.000016
H96	H	0.988272	0.148484	-0.000006
H97	H	0.940251	0.111587	0.045125
H98	H	0.489283	0.550585	-0.000060
H99	H	1.117267	0.089360	-0.000010
N100	N	0.803416	-0.217992	-0.000072
H101	H	0.824061	-0.221135	0.045068
H102	H	0.824056	-0.221099	-0.045236
H103	H	0.492469	0.238708	-0.000038
H104	H	0.653664	0.138530	-0.000016
H105	H	1.057476	0.090237	-0.000012
N106	N	0.924640	-0.283520	-0.000050
H107	H	0.889769	-0.273339	-0.000052
H108	H	0.930874	-0.311449	0.045086
H109	H	1.343298	0.022288	-0.000028
H110	H	1.413384	-0.210091	-0.000061
N111	N	1.216949	0.104742	-0.000002
H112	H	1.251818	0.094548	0.000000
H113	H	1.210704	0.132676	0.045141
H114	H	1.175569	-0.270349	-0.000051
N115	N	1.442984	0.037671	-0.000020
H116	H	1.477853	0.027477	-0.000021
H117	H	1.436740	0.065601	0.045127
H118	H	0.706838	-0.199718	-0.000077
H119	H	0.728216	0.031310	-0.000050
H120	H	0.493813	0.106598	-0.000034
H121	H	1.024316	-0.268138	-0.000047
N122	N	0.663859	0.282584	-0.000017
H123	H	0.656646	0.332902	-0.000017
H124	H	0.683238	0.273695	-0.045150
N125	N	1.075895	-0.285733	-0.000004
H126	H	1.095789	-0.326408	0.000006
H127	H	1.054712	-0.288238	-0.045129
H128	H	0.511003	-0.176126	0.803141
H129	H	0.649134	0.582512	-0.000054
H130	H	0.647785	0.714613	-0.000078
N131	N	0.476192	0.689980	-0.000079
H132	H	0.482348	0.742969	-0.000084
H133	H	0.457078	0.673421	0.045061
H134	H	0.630605	-0.002659	0.196770
H135	H	0.630611	-0.002658	0.335814
N136	N	0.502259	-0.188751	0.345952
H137	H	0.507266	-0.181501	0.400320
H138	H	0.507732	-0.238228	0.332539
N139	N	0.502245	-0.188741	0.186645
H140	H	0.481360	-0.219025	0.222553
H141	H	0.520680	-0.219426	0.154829
N142	N	0.502279	-0.188756	0.653960
H143	H	0.481395	-0.219041	0.689868
H144	H	0.520713	-0.219439	0.622141
H145	H	0.630634	-0.002666	0.664083
H146	H	0.630635	-0.002662	0.803126
