data_functionalizedCrystal
_audit_creation_method	'MofGen! by Chris Wilmer'
_symmetry_space_group_name_H-M	'P1'
_symmetry_Int_Tables_number	1
_symmetry_cell_setting	triclinic
loop_
_symmetry_equiv_pos_as_xyz
  x,y,z
_cell_length_a	15.995350
_cell_length_b	15.995350
_cell_length_c	14.472310
_cell_angle_alpha	89.998838
_cell_angle_beta	89.990621
_cell_angle_gamma	96.507625
loop_
_atom_site_label
_atom_site_type_symbol
_atom_site_fract_x
_atom_site_fract_y
_atom_site_fract_z
O1	O	1.110997	-0.107921	-0.076758
O2	O	0.867221	-0.121248	-0.076776
O3	O	0.995773	0.007303	-0.076766
O4	O	0.982445	-0.236472	-0.076769
O5	O	0.995740	0.007296	0.076916
O6	O	0.867188	-0.121256	0.076906
O7	O	1.110963	-0.107928	0.076924
Cu8	Cu	0.989073	-0.114593	0.090947
Cu9	Cu	0.989112	-0.114584	-0.090800
O10	O	0.982412	-0.236480	0.076913
C11	C	0.836010	-0.120701	0.000062
C12	C	0.743060	-0.119049	0.000055
C13	C	0.995205	0.038494	0.000073
C14	C	0.993553	0.131444	0.000068
C15	C	0.405312	-0.113117	0.000074
C16	C	0.452746	-0.021565	0.000418
C17	C	0.549436	-0.023217	0.000065
C18	C	0.572873	-0.116060	0.000065
C19	C	0.531804	-0.161212	-0.087692
C20	C	0.435169	-0.158912	-0.087759
C21	C	0.434792	-0.160812	0.087007
C22	C	0.531737	-0.160790	0.088160
C23	C	0.667570	-0.117727	0.000057
C24	C	0.310614	-0.111452	0.000076
C25	C	1.142175	-0.108476	0.000083
C26	C	1.235125	-0.110127	0.000084
C27	C	0.982980	-0.267671	0.000072
C28	C	0.984631	-0.360621	0.000071
N29	N	0.989051	-0.114598	0.218778
C30	C	0.987621	0.469192	0.000071
C31	C	0.896069	0.421758	-0.000281
C32	C	0.897721	0.325068	0.000066
C33	C	0.990564	0.301631	0.000069
C34	C	1.035701	0.342705	0.087831
C35	C	1.033401	0.439340	0.087904
C36	C	1.035330	0.439707	-0.086861
C37	C	1.035309	0.342762	-0.088021
C38	C	0.992231	0.206934	0.000071
C39	C	0.985956	0.563890	0.000075
N40	N	0.989140	-0.114572	-0.218631
C41	C	0.989111	-0.114581	0.592869
C42	C	0.920095	-0.183135	0.553698
C43	C	0.920254	-0.183385	0.446610
C44	C	0.989081	-0.114590	0.407278
C45	C	1.076445	-0.133671	0.446122
C46	C	1.076057	-0.134159	0.553243
C47	C	0.971542	-0.026741	0.553398
C48	C	0.969538	-0.027327	0.446270
C49	C	0.989069	-0.114593	0.302390
C50	C	0.989128	-0.114579	0.697757
H51	H	0.577852	0.012275	0.062973
H52	H	0.854945	-0.171953	0.579481
H53	H	0.560193	-0.129845	-0.153002
O54	O	0.567897	-0.117139	0.174165
H55	H	0.614973	-0.063808	0.154262
O56	O	0.550508	-0.251564	-0.092032
H57	H	0.619615	-0.253373	-0.095117
O58	O	0.834229	-0.168350	0.411816
H59	H	0.839654	-0.110371	0.369073
H60	H	1.000459	0.457639	0.153505
O61	O	0.586360	0.024113	-0.083413
H62	H	0.631875	0.077639	-0.060485
O63	O	0.392441	-0.247941	-0.093035
H64	H	0.353037	-0.255288	-0.156270
O65	O	1.146133	-0.070544	0.587570
H66	H	1.119186	-0.022490	0.630183
O67	O	0.850388	0.288144	0.083543
H68	H	0.826234	0.339360	0.123827
H69	H	1.129029	-0.085068	0.420643
O70	O	0.884410	-0.008141	0.412644
H71	H	0.871065	0.053624	0.440504
O72	O	1.038174	0.040866	0.586959
H73	H	1.100921	0.026453	0.563106
H74	H	1.091540	-0.198219	0.578220
O75	O	0.935115	-0.269726	0.412640
H76	H	0.996746	-0.285414	0.438585
O77	O	1.097448	-0.217564	0.410593
H78	H	1.045804	-0.245797	0.365281
H79	H	1.100617	0.471588	0.091888
H80	H	1.103014	0.327400	-0.093317
H81	H	0.416874	-0.125979	-0.153359
H82	H	1.016541	0.026079	0.419500
O83	O	0.428188	0.026910	0.083778
H84	H	0.484981	0.046545	0.125955
H85	H	0.862239	0.296649	-0.062846
O86	O	0.407593	-0.121165	0.175123
H87	H	0.372755	-0.067017	0.157937
O88	O	1.126049	0.323990	0.092176
H89	H	1.139770	0.285119	0.031687
H90	H	0.547101	-0.228494	0.093461
H91	H	0.859490	0.440293	-0.063217
O92	O	0.392714	-0.250221	0.087811
H93	H	0.351003	-0.260679	0.026632
H94	H	0.433166	0.014865	-0.062168
H95	H	0.859626	0.441349	0.062299
H96	H	1.004324	0.314320	0.153137
H97	H	1.005412	0.460250	-0.153379
H98	H	0.909219	-0.008392	0.580461
O99	O	0.991663	0.306606	-0.174030
H100	H	0.938327	0.259535	-0.154133
H101	H	0.931159	-0.247952	0.580608
O102	O	1.124741	0.481780	-0.087655
H103	H	1.135190	0.523493	-0.026471
