data_functionalizedCrystal
_audit_creation_method	'MofGen! by Chris Wilmer'
_symmetry_space_group_name_H-M	'P1'
_symmetry_Int_Tables_number	1
_symmetry_cell_setting	triclinic
loop_
_symmetry_equiv_pos_as_xyz
  x,y,z
_cell_length_a	31.640172
_cell_length_b	14.628931
_cell_length_c	14.628931
_cell_angle_alpha	59.999807
_cell_angle_beta	90.004023
_cell_angle_gamma	59.998250
loop_
_atom_site_label
_atom_site_type_symbol
_atom_site_fract_x
_atom_site_fract_y
_atom_site_fract_z
Zr1	Zr	0.407183	1.000468	-0.119845
O2	O	0.339693	1.191192	-0.265826
O3	O	0.427872	0.809756	-0.075094
O4	O	0.427872	1.000463	-0.265800
O5	O	0.339693	1.000486	0.075312
O6	O	0.497429	1.000444	-0.265780
O7	O	0.339693	1.000486	-0.075120
O8	O	0.497429	0.659305	0.075358
O9	O	0.339693	1.341624	-0.265826
O10	O	0.488605	0.888180	-0.055993
O11	O	0.436696	0.888194	0.056257
O12	O	0.436696	1.112726	-0.168274
O13	O	0.384786	1.112739	-0.056024
Zr14	Zr	0.518118	1.000437	0.120109
Zr15	Zr	0.518118	1.000438	-0.119813
Zr16	Zr	0.407183	1.000467	0.120077
Zr17	Zr	0.407183	1.240389	-0.119845
Zr18	Zr	0.518118	0.760515	0.120109
O19	O	0.497429	1.191148	0.075358
O20	O	0.497429	1.191149	-0.265780
O21	O	0.339693	1.191191	0.075312
O22	O	0.585608	0.809712	0.266090
O23	O	0.585608	0.809713	-0.075048
O24	O	0.427872	0.809755	0.266044
O25	O	0.585608	1.000419	-0.075049
O26	O	0.497429	1.000442	0.266064
O27	O	0.427872	1.000461	0.266044
O28	O	0.585608	1.000419	0.075383
O29	O	0.427872	1.341600	-0.265801
O30	O	0.497429	0.659305	0.266064
O31	O	0.585608	0.659281	0.266090
O32	O	0.585608	0.659281	0.075384
O33	O	0.339693	1.341624	-0.075120
O34	O	0.427872	1.341600	-0.075095
O35	O	0.488605	0.888179	0.168538
O36	O	0.540515	0.888165	0.056287
O37	O	0.488605	1.112711	-0.055994
O38	O	0.436696	1.112725	0.056257
C39	C	0.462650	0.700347	0.000132
C40	C	0.462650	0.598494	0.000132
C41	C	0.488401	0.553078	-0.055551
C42	C	0.488401	0.447808	-0.055553
C43	C	0.323887	1.000490	0.000092
C44	C	0.276792	1.000503	0.000078
C45	C	0.011882	0.883230	0.058764
C46	C	-0.165103	0.883207	0.058786
O47	O	-0.164944	0.783523	0.108672
N48	N	-0.214329	1.000417	0.000175
C49	C	-0.219308	1.117641	-0.058440
O50	O	-0.265238	1.217334	-0.108282
C51	C	-0.042323	1.117662	-0.058455
C52	C	0.006902	1.000444	0.000151
C53	C	0.061106	0.766022	0.117366
C54	C	0.105349	0.766029	0.117355
C55	C	0.100369	0.883243	0.058742
C56	C	0.051146	1.000451	0.000140
C57	C	-0.047303	1.234884	-0.117062
C58	C	-0.003051	1.234879	-0.117058
C59	C	0.046174	1.117661	-0.058453
C60	C	0.090409	1.117672	-0.058484
N61	N	0.139635	1.000463	0.000127
C62	C	0.144615	0.883248	0.058740
C63	C	-0.312225	1.117621	-0.058429
C64	C	-0.356471	1.117616	-0.058428
C65	C	-0.302263	0.883182	0.058800
C66	C	-0.258017	0.883189	0.058791
C67	C	-0.262999	1.000412	0.000182
C68	C	0.237527	0.883271	0.058711
C69	C	0.281772	0.883288	0.058691
C70	C	0.227560	1.117721	-0.058531
C71	C	0.183319	1.117705	-0.058516
C72	C	0.188306	1.000469	0.000113
O73	O	0.090290	1.217304	-0.108334
O74	O	0.190550	0.783569	0.108595
C75	C	-0.032361	0.883223	0.058775
C76	C	-0.081584	1.000431	0.000173
C77	C	-0.086564	1.117645	-0.058440
C78	C	-0.125830	1.000426	0.000175
C79	C	-0.120850	0.883211	0.058788
C80	C	-0.071624	0.766001	0.117399
C81	C	-0.027381	0.766008	0.117388
C82	C	-0.135790	1.234855	-0.117051
C83	C	-0.180031	1.234839	-0.117036
C84	C	-0.175052	1.117624	-0.058423
C85	C	0.601414	1.000415	0.000172
C86	C	0.648509	1.000402	0.000185
C87	C	0.462650	1.000453	-0.299974
C88	C	0.462650	1.000454	-0.401827
C89	C	0.462651	1.300558	0.000131
C90	C	0.462651	1.402411	0.000131
C91	C	0.436900	1.111841	-0.608199
C92	C	0.436899	1.111843	-0.502930
C93	C	0.462651	1.000451	0.300238
C94	C	0.462651	1.000451	0.402091
C95	C	0.601413	0.700309	0.000172
C96	C	0.648508	0.598443	0.000186
C97	C	0.462650	0.700346	0.300238
C98	C	0.462650	0.598493	0.402091
C99	C	0.601414	0.700308	0.300278
C100	C	0.648509	0.598442	0.402145
C101	C	0.323887	1.300596	-0.300014
C102	C	0.276792	1.402462	-0.401881
C103	C	0.323887	1.300595	0.000091
C104	C	0.276792	1.402461	0.000078
C105	C	0.462650	1.300558	-0.299974
C106	C	0.462650	1.402412	-0.401827
C107	C	0.643528	0.550614	-0.058427
C108	C	0.687775	0.454913	-0.058437
C109	C	0.737001	0.407038	0.000174
C110	C	0.741980	0.454877	0.058789
C111	C	0.697734	0.550582	0.058791
C112	C	0.697726	0.550598	0.391389
C113	C	0.741981	0.454897	0.487094
C114	C	0.737018	0.407036	0.593555
C115	C	0.687795	0.454890	0.604309
C116	C	0.643541	0.550596	0.508604
C117	C	0.227575	1.450319	-0.391125
C118	C	0.183320	1.546049	-0.486831
C119	C	0.188283	1.593915	-0.593291
C120	C	0.237506	1.546055	-0.604045
C121	C	0.281759	1.450333	-0.508340
C122	C	0.281772	1.450301	0.058681
C123	C	0.237526	1.546028	0.058664
C124	C	0.188300	1.593907	0.000050
C125	C	0.183321	1.546063	-0.058560
C126	C	0.227567	1.450344	-0.058549
C127	C	0.488401	0.553076	0.503199
C128	C	0.488402	0.447806	0.608471
H129	H	0.440601	0.441467	0.047801
Br130	Br	0.244233	1.611027	-0.748536
Br131	Br	0.425899	0.533424	0.387698
H132	H	0.440606	0.559439	0.047807
Br133	Br	0.808776	0.389970	0.472473
Br134	Br	-0.318997	1.276725	-0.137981
Br135	Br	0.348578	0.724197	0.138228
H136	H	0.782066	0.415883	0.106507
H137	H	0.321833	1.411369	-0.517112
Br138	Br	0.499392	0.841496	-0.453336
Br139	Br	0.244302	0.724165	0.138280
Br140	Br	0.576727	0.615570	-0.137983
H141	H	0.773025	0.329107	0.000164
H142	H	0.143237	1.213153	-0.106252
H143	H	0.683762	0.415908	0.691002
Br144	Br	0.681005	0.390006	-0.137988
H145	H	0.223514	1.213155	-0.106256
Br146	Br	0.704502	0.615476	0.138352
Br147	Br	0.348574	1.385348	0.138234
Br148	Br	0.128218	1.723826	-0.723167
Br149	Br	0.172150	0.606939	0.196903
H150	H	0.065169	0.670566	0.165101
Br151	Br	0.244295	1.610935	0.138215
Br152	Br	-0.191214	0.724103	0.138330
Br153	Br	0.525154	0.382704	0.753037
H154	H	0.484699	0.905084	-0.393184
Br155	Br	-0.009818	1.393976	-0.196599
H156	H	0.603468	0.589538	0.517378
H157	H	0.773056	0.329106	0.671474
H158	H	0.510449	0.592123	-0.103220
Br159	Br	0.704476	0.615538	0.246919
Br160	Br	0.220824	1.385375	-0.246655
H161	H	0.143245	1.585001	-0.478053
Br162	Br	-0.295513	0.724106	0.138345
H163	H	0.143235	1.585061	-0.106282
Br164	Br	-0.423273	1.276703	-0.137987
H165	H	0.440606	0.441454	0.511443
Br166	Br	0.128256	1.723812	0.000046
H167	H	0.223505	1.411396	-0.106268
H168	H	-0.087377	1.330335	-0.164784
Br169	Br	0.525143	0.382728	-0.135027
Br170	Br	0.525142	0.618168	0.517593
H171	H	0.012697	0.670558	0.165113
Br172	Br	-0.246836	1.393935	-0.196585
Br173	Br	-0.064875	0.606926	0.196939
H174	H	-0.139853	1.330307	-0.164783
H175	H	0.414852	1.207204	-0.694942
H176	H	0.414855	1.207208	-0.511565
