data_functionalizedCrystal
_audit_creation_method	'MofGen! by Chris Wilmer'
_symmetry_space_group_name_H-M	'P1'
_symmetry_Int_Tables_number	1
_symmetry_cell_setting	triclinic
loop_
_symmetry_equiv_pos_as_xyz
  x,y,z
_cell_length_a	15.995350
_cell_length_b	15.995350
_cell_length_c	15.072220
_cell_angle_alpha	89.998899
_cell_angle_beta	89.991149
_cell_angle_gamma	96.507625
loop_
_atom_site_label
_atom_site_type_symbol
_atom_site_fract_x
_atom_site_fract_y
_atom_site_fract_z
O1	O	1.110996	-0.107921	-0.073703
O2	O	0.867221	-0.121249	-0.073721
O3	O	0.995772	0.007303	-0.073710
O4	O	0.982444	-0.236472	-0.073713
O5	O	0.995740	0.007296	0.073855
O6	O	0.867189	-0.121256	0.073844
O7	O	1.110964	-0.107928	0.073862
Zn8	Zn	0.989071	-0.114593	0.097283
Zn9	Zn	0.989113	-0.114584	-0.097141
O10	O	0.982413	-0.236480	0.073852
C11	C	0.836010	-0.120701	0.000060
C12	C	0.743060	-0.119049	0.000053
C13	C	0.405312	-0.113117	0.000071
C14	C	0.452746	-0.021565	0.000401
C15	C	0.549436	-0.023217	0.000063
C16	C	0.572873	-0.116060	0.000063
C17	C	0.531804	-0.161212	-0.084201
C18	C	0.435168	-0.158912	-0.084266
C19	C	0.434793	-0.160812	0.083543
C20	C	0.531738	-0.160790	0.084651
C21	C	0.667570	-0.117727	0.000055
C22	C	0.310614	-0.111452	0.000073
C23	C	0.995205	0.038494	0.000070
C24	C	0.993553	0.131444	0.000065
C25	C	1.142175	-0.108476	0.000080
C26	C	1.235125	-0.110127	0.000081
C27	C	0.982980	-0.267671	0.000069
C28	C	0.984631	-0.360621	0.000069
N29	N	0.989049	-0.114599	0.229971
C30	C	0.987621	0.469192	0.000068
C31	C	0.896069	0.421758	-0.000270
C32	C	0.897721	0.325068	0.000063
C33	C	0.990564	0.301631	0.000066
C34	C	1.035702	0.342705	0.084335
C35	C	1.033402	0.439341	0.084405
C36	C	1.035330	0.439707	-0.083404
C37	C	1.035308	0.342761	-0.084518
C38	C	0.992231	0.206934	0.000068
C39	C	0.985956	0.563890	0.000072
N40	N	0.989142	-0.114571	-0.229830
C41	C	0.989112	-0.114580	0.589173
C42	C	0.920095	-0.183135	0.551560
C43	C	0.920254	-0.183385	0.448735
C44	C	0.989080	-0.114590	0.410969
C45	C	1.076445	-0.133671	0.448266
C46	C	1.076058	-0.134159	0.551124
C47	C	0.971542	-0.026741	0.551272
C48	C	0.969537	-0.027327	0.448409
C49	C	0.989067	-0.114593	0.310255
C50	C	0.989130	-0.114579	0.689886
H51	H	0.577852	0.012275	0.060467
N52	N	1.096343	-0.213124	0.415968
N53	N	1.163746	-0.239858	0.438231
H54	H	1.177795	-0.295974	0.415424
N55	N	0.850373	0.446330	0.075128
N56	N	0.876430	0.433971	0.151668
H57	H	0.844164	0.451327	0.204923
H58	H	0.414244	-0.130885	0.147414
H59	H	1.004325	0.314320	0.147042
N60	N	0.893338	-0.003750	0.583841
N61	N	0.849599	-0.051831	0.635389
H62	H	0.794361	-0.035605	0.658387
H63	H	0.547102	-0.228494	0.089741
N64	N	0.429542	0.024307	0.076254
N65	N	0.377768	-0.009934	0.130953
H66	H	0.361395	0.022454	0.184542
N67	N	0.565967	-0.119411	0.162847
N68	N	0.558218	-0.043430	0.175413
H69	H	0.582397	-0.014198	0.230634
H70	H	1.103014	0.327400	-0.089603
N71	N	1.028490	0.039689	0.416181
N72	N	1.003345	0.098016	0.371916
H73	H	1.044987	0.145348	0.349160
N74	N	0.888913	-0.009169	0.417829
N75	N	0.845961	-0.060262	0.368641
H76	H	0.789019	-0.047440	0.347038
H77	H	0.416873	-0.125979	-0.147255
H78	H	1.129019	-0.086195	0.576003
N79	N	0.428168	0.024135	-0.074981
N80	N	0.375869	-0.010430	-0.128947
H81	H	0.358509	0.021843	-0.182188
H82	H	0.577307	0.012521	-0.060446
H83	H	0.402920	-0.226128	-0.088090
N84	N	0.838670	-0.169532	0.417111
N85	N	0.781220	-0.159599	0.471007
H86	H	0.723553	-0.149972	0.448678
H87	H	1.102831	0.471468	-0.083968
N88	N	0.549525	-0.246779	-0.088124
N89	N	0.592725	-0.275505	-0.028719
H90	H	0.605242	-0.335937	-0.031487
N91	N	0.997813	0.465488	-0.163533
N92	N	0.994335	0.541896	-0.178404
H93	H	0.967834	0.560106	-0.234992
H94	H	0.931473	-0.248570	0.424121
H95	H	0.560191	-0.129845	-0.146912
N96	N	1.121271	0.324996	0.088295
N97	N	1.179637	0.383993	0.088028
H98	H	1.240071	0.371486	0.090827
N99	N	0.394947	-0.245489	0.084249
N100	N	0.345043	-0.270699	0.023609
H101	H	0.316897	-0.330500	0.024100
H102	H	1.100617	0.471588	0.088231
H103	H	1.021872	0.024275	0.575595
H104	H	0.862238	0.296649	-0.060344
N105	N	0.850189	0.445007	-0.076088
N106	N	0.884425	0.496810	-0.130758
H107	H	0.852023	0.513233	-0.184310
H108	H	1.091540	-0.198219	0.575106
N109	N	0.838373	-0.169107	0.582643
N110	N	0.823198	-0.169803	0.664012
H111	H	0.765482	-0.159893	0.685974
H112	H	0.861974	0.297200	0.060568
H113	H	1.000460	0.457639	0.147395
H114	H	1.002306	0.315516	-0.146857
N115	N	1.142406	-0.072694	0.417575
N116	N	1.125721	-0.014354	0.367751
H117	H	1.172305	0.028713	0.346074
H118	H	0.931160	-0.247952	0.577399
