data_functionalizedCrystal
_audit_creation_method	'MofGen! by Chris Wilmer'
_symmetry_space_group_name_H-M	'P1'
_symmetry_Int_Tables_number	1
_symmetry_cell_setting	triclinic
loop_
_symmetry_equiv_pos_as_xyz
  x,y,z
_cell_length_a	12.759401
_cell_length_b	12.759394
_cell_length_c	12.759393
_cell_angle_alpha	90.029526
_cell_angle_beta	90.019802
_cell_angle_gamma	90.012941
loop_
_atom_site_label
_atom_site_type_symbol
_atom_site_fract_x
_atom_site_fract_y
_atom_site_fract_z
Zn1	Zn	1.606273	-0.418241	0.593995
Zn2	Zn	1.606166	-0.593957	0.418318
Zn3	Zn	1.430571	-0.418290	0.418334
Zn4	Zn	1.430566	-0.593876	0.593959
O5	O	1.518394	-0.506091	0.506152
O6	O	1.753279	-0.441564	0.570700
O7	O	1.582831	-0.570708	0.271299
O8	O	1.453925	-0.271262	0.441657
O9	O	1.753201	-0.570661	0.441631
O10	O	1.583012	-0.271227	0.570715
O11	O	1.453822	-0.441646	0.271311
O12	O	1.283549	-0.441568	0.441622
O13	O	1.453916	-0.570524	0.740985
O14	O	1.283545	-0.570571	0.570653
O15	O	1.583007	-0.441486	0.741012
O16	O	1.582826	-0.740967	0.441596
O17	O	1.453813	-0.740908	0.570638
C18	C	1.245427	-0.506067	0.506136
C19	C	1.128650	-0.506081	0.506155
C20	C	0.964092	-0.439006	0.573472
C21	C	1.073816	-0.438985	0.573465
C22	C	1.073754	-0.573210	0.438854
C23	C	0.964032	-0.573235	0.438868
C24	C	1.223824	-0.401561	0.697417
C25	C	1.278716	-0.334424	0.764705
C26	C	1.243112	-0.231937	0.781015
C27	C	1.152618	-0.196567	0.730022
C28	C	1.097732	-0.263699	0.662726
C29	C	1.133334	-0.366200	0.646436
C30	C	0.814022	-0.610648	0.314914
C31	C	0.759134	-0.677776	0.247613
C32	C	0.794735	-0.780264	0.231292
C33	C	0.885233	-0.815631	0.282266
C34	C	0.940121	-0.748503	0.349568
C35	C	0.904512	-0.646016	0.365891
C36	C	1.518336	-0.779059	0.506134
C37	C	1.518407	-0.895835	0.506162
C38	C	1.652724	-0.895640	0.640651
C39	C	1.719916	-0.950403	0.707903
C40	C	1.719979	-1.060125	0.707925
C41	C	1.652840	-1.115086	0.640691
C42	C	1.585648	-1.060322	0.573439
C43	C	1.585595	-0.950598	0.573421
C44	C	1.451326	-1.060518	0.438957
C45	C	1.451268	-0.950796	0.438928
C46	C	1.384187	-1.115479	0.371723
C47	C	1.316999	-1.060715	0.304464
C48	C	1.316940	-0.950987	0.304443
C49	C	1.384076	-0.896033	0.371675
C50	C	1.792427	-0.506116	0.506168
C51	C	1.909204	-0.506127	0.506175
C52	C	1.518473	-0.505990	0.780185
C53	C	1.518506	-0.505947	0.896962
C54	C	1.518481	-0.232058	0.506192
C55	C	1.518518	-0.115281	0.506209
C56	C	1.518376	-0.506116	0.233184
C57	C	1.518546	-0.505863	0.116408
C58	C	1.585729	-0.438746	0.951839
C59	C	1.585746	-0.438701	1.061564
C60	C	1.451316	-0.573067	1.061523
C61	C	1.451294	-0.573106	0.951801
C62	C	1.623357	-0.314746	1.211539
C63	C	1.690596	-0.247554	1.266420
C64	C	1.793108	-0.231448	1.230826
C65	C	1.828403	-0.282549	1.140353
C66	C	1.761169	-0.349748	1.085478
C67	C	1.658642	-0.365835	1.121070
C68	C	1.413694	-0.697062	0.801824
C69	C	1.346465	-0.764268	0.746946
C70	C	1.243951	-0.780385	0.782538
C71	C	1.208660	-0.729302	0.873014
C72	C	1.275889	-0.662097	0.927892
C73	C	1.378403	-0.645978	0.892293
H74	H	1.352396	-0.363232	0.806223
O75	O	0.910878	-0.373941	0.639009
C76	C	0.877441	-0.323131	0.817813
C77	C	0.937748	-0.396896	0.743707
H78	H	0.899160	-0.341649	0.902476
H79	H	0.789578	-0.334679	0.806356
H80	H	0.898993	-0.238393	0.799456
H81	H	0.916283	-0.481662	0.762019
H82	H	1.025597	-0.385257	0.755179
O83	O	1.383825	-0.789450	0.371662
C84	C	1.283023	-0.632054	0.398623
C85	C	1.283155	-0.752758	0.398646
H86	H	1.201646	-0.602352	0.420459
H87	H	1.304770	-0.602241	0.317272
H88	H	1.342589	-0.602209	0.458198
H89	H	1.223587	-0.782692	0.339122
H90	H	1.261454	-0.782500	0.480035
O91	O	1.258432	-0.501144	0.681773
C92	C	1.299120	-0.668006	0.760217
C93	C	1.259927	-0.555251	0.778087
H94	H	1.300321	-0.711790	0.838070
H95	H	1.381617	-0.665844	0.726000
H96	H	1.244360	-0.709882	0.703327
H97	H	1.314610	-0.513309	0.834996
H98	H	1.177411	-0.557487	0.812252
H99	H	1.497168	-0.683937	0.772831
O100	O	1.126898	-0.638340	0.373325
C101	C	1.160429	-0.689082	0.194519
C102	C	1.100164	-0.615273	0.268616
H103	H	1.138853	-0.670444	0.109846
H104	H	1.138842	-0.773841	0.212743
H105	H	1.248274	-0.677554	0.206118
H106	H	1.012305	-0.626707	0.257058
H107	H	1.121838	-0.530541	0.250374
O108	O	1.650861	-0.373449	0.898454
C109	C	1.665004	-0.231597	0.774658
C110	C	1.591128	-0.305503	0.835026
H111	H	1.616739	-0.176629	0.723378
H112	H	1.719902	-0.279791	0.723216
H113	H	1.713071	-0.183606	0.832755
H114	H	1.542992	-0.353510	0.777004
H115	H	1.536299	-0.257249	0.886483
O116	O	1.009823	-0.229201	0.613314
C117	C	0.890574	-0.085367	0.585969
C118	C	0.990138	-0.124308	0.642004
H119	H	0.874640	-0.000549	0.609126
H120	H	0.821100	-0.136292	0.609685
H121	H	0.902317	-0.090415	0.497542
H122	H	0.978498	-0.119260	0.730440
H123	H	1.059576	-0.073375	0.618202
O124	O	1.523703	-0.330276	1.245966
C125	C	1.339444	-0.316466	1.206882
C126	C	1.452247	-0.298798	1.167767
H127	H	1.281642	-0.291045	1.143669
H128	H	1.325695	-0.268379	1.280939
H129	H	1.327491	-0.403135	1.224974
H130	H	1.464280	-0.212157	1.149614
H131	H	1.465943	-0.346953	1.093744
H132	H	1.262335	-1.105473	0.249732
H133	H	0.685187	-0.649120	0.206468
H134	H	1.262221	-0.906405	0.249682
H135	H	1.287814	-0.177273	0.835802
H136	H	1.789907	-0.391358	1.011819
O137	O	1.928007	-0.266758	1.105902
C138	C	2.092678	-0.178792	1.134613
C139	C	1.979894	-0.196565	1.173734
H140	H	2.134667	-0.122059	1.189449
H141	H	2.090574	-0.144493	1.052153
H142	H	2.136312	-0.256740	1.133309
H143	H	1.936193	-0.118660	1.175106
H144	H	1.982073	-0.230913	1.256171
O145	O	1.027983	-0.783040	0.399046
C146	C	1.147302	-0.926838	0.426279
C147	C	1.047774	-0.887870	0.370199
H148	H	1.163347	-1.011590	0.402960
H149	H	1.135589	-0.921947	0.514721
H150	H	1.216701	-0.875788	0.402618
H151	H	0.978328	-0.938889	0.393775
H152	H	1.059576	-0.892738	0.281769
O153	O	1.656417	-0.198031	1.354407
C154	C	1.680755	-0.171231	1.539783
C155	C	1.719545	-0.227397	1.440222
H156	H	1.731789	-0.194935	1.609186
H157	H	1.595948	-0.194288	1.555880
H158	H	1.685850	-0.082820	1.527967
H159	H	1.714520	-0.315818	1.451962
H160	H	1.804333	-0.204254	1.424156
O161	O	1.785336	-1.113164	0.773296
C162	C	1.918493	-1.101404	0.906756
C163	C	1.844555	-1.041207	0.832755
H164	H	1.966376	-1.043253	0.954864
H165	H	1.973550	-1.152743	0.858634
H166	H	1.870228	-1.152795	0.961609
H167	H	1.892736	-0.989759	0.777888
H168	H	1.789495	-0.989935	0.880943
O169	O	0.741268	-0.845351	0.165913
C170	C	0.593354	-0.866026	0.050258
C171	C	0.653787	-0.792213	0.124283
H172	H	0.522626	-0.823086	0.016563
H173	H	0.565730	-0.937806	0.095695
H174	H	0.647022	-0.891817	-0.016347
H175	H	0.600182	-0.766342	0.190902
H176	H	0.681426	-0.720487	0.078772
H177	H	1.847855	-0.176738	1.275518
O178	O	1.241428	-0.612517	1.015736
C179	C	1.097672	-0.584973	1.135032
C180	C	1.136554	-0.641166	1.035522
H181	H	1.012885	-0.608131	1.151072
H182	H	1.102698	-0.496546	1.123297
H183	H	1.148686	-0.608698	1.204442
H184	H	1.085571	-0.617526	0.966064
H185	H	1.131551	-0.729582	1.047346
O186	O	0.779613	-0.511021	0.330744
C187	C	0.818614	-0.326736	0.317154
C188	C	0.857723	-0.439508	0.299205
H189	H	0.881737	-0.268887	0.291643
H190	H	0.800622	-0.314805	0.403855
H191	H	0.744485	-0.313033	0.269181
H192	H	0.931874	-0.453289	0.347114
H193	H	0.875643	-0.451384	0.212482
O194	O	1.785101	-0.896852	0.773111
C195	C	1.844501	-0.727733	0.832726
C196	C	1.770648	-0.788243	0.758807
H197	H	1.832826	-0.639912	0.821202
H198	H	1.929259	-0.749177	0.814342
H199	H	1.826040	-0.749323	0.917421
H200	H	1.789014	-0.766685	0.674087
H201	H	1.685912	-0.766793	0.777281
O202	O	1.386186	-0.638418	1.114844
C203	C	1.372029	-0.780176	1.238747
C204	C	1.445907	-0.706245	1.178411
H205	H	1.420282	-0.835018	1.290172
H206	H	1.323994	-0.828290	1.180722
H207	H	1.317101	-0.731894	1.290071
H208	H	1.500898	-0.754446	1.127085
H209	H	1.493868	-0.658128	1.236492
O210	O	1.109099	-0.745143	0.907571
C211	C	0.981625	-0.870140	0.969102
C212	C	1.094397	-0.852344	0.929959
H213	H	0.969709	-0.956806	0.987235
H214	H	0.923737	-0.844725	0.905963
H215	H	0.967961	-0.822039	1.043165
H216	H	1.108162	-0.900439	0.855916
H217	H	1.152227	-0.877728	0.993163
O218	O	1.178784	-0.845805	0.729222
C219	C	1.148458	-1.021284	0.666223
C220	C	1.222367	-0.947310	0.726597
H221	H	1.183656	-1.103371	0.664099
H222	H	1.137834	-0.991289	0.582744
H223	H	1.069119	-1.023963	0.707196
H224	H	1.301747	-0.944598	0.685712
H225	H	1.232903	-0.977333	0.810075
H226	H	0.914223	-0.899084	0.268974
H227	H	1.123644	-0.113107	0.743297
H228	H	1.652690	-0.806299	0.640629
H229	H	1.652888	-1.204427	0.640724
H230	H	1.384239	-1.204820	0.371750
H231	H	1.375212	-0.805871	0.673282
