data_functionalizedCrystal
_audit_creation_method	'MofGen! by Chris Wilmer'
_symmetry_space_group_name_H-M	'P1'
_symmetry_Int_Tables_number	1
_symmetry_cell_setting	triclinic
loop_
_symmetry_equiv_pos_as_xyz
  x,y,z
_cell_length_a	18.215404
_cell_length_b	18.215407
_cell_length_c	18.215387
_cell_angle_alpha	89.938492
_cell_angle_beta	89.911442
_cell_angle_gamma	90.023744
loop_
_atom_site_label
_atom_site_type_symbol
_atom_site_fract_x
_atom_site_fract_y
_atom_site_fract_z
Zn1	Zn	0.292550	-1.125375	0.416134
Zn2	Zn	0.415752	-1.125197	0.293068
Zn3	Zn	0.292704	-1.002219	0.293079
Zn4	Zn	0.415579	-1.002275	0.416092
O5	O	0.354146	-1.063767	0.354593
O6	O	0.308901	-1.228335	0.399822
O7	O	0.399567	-1.108787	0.190085
O8	O	0.189699	-1.018607	0.309425
O9	O	0.399417	-1.228205	0.309406
O10	O	0.189586	-1.109089	0.399833
O11	O	0.309164	-1.018435	0.190093
O12	O	0.308996	-0.899243	0.309384
O13	O	0.399122	-1.018702	0.519082
O14	O	0.399271	-0.899284	0.399761
O15	O	0.308733	-1.109143	0.519113
O16	O	0.518714	-1.108841	0.309365
O17	O	0.518586	-1.018531	0.399750
C18	C	0.354132	-0.872560	0.354570
C19	C	0.354144	-0.790762	0.354577
C20	C	0.545353	-1.063693	0.354568
C21	C	0.627152	-1.063728	0.354582
C22	C	0.401223	-0.602608	0.401575
C23	C	0.401224	-0.525750	0.401583
C24	C	0.307074	-0.525677	0.307615
C25	C	0.307070	-0.602535	0.307611
C26	C	0.354148	-0.640998	0.354590
C27	C	0.354154	-0.487282	0.354602
C28	C	0.354156	-0.403948	0.354610
C29	C	0.354146	-0.724337	0.354583
C30	C	0.815387	-1.110867	0.307615
C31	C	0.892246	-1.110901	0.307637
C32	C	0.892153	-1.016779	0.401678
C33	C	0.815296	-1.016749	0.401659
C34	C	0.776915	-1.063792	0.354623
C35	C	0.930631	-1.063856	0.354664
C36	C	1.013965	-1.063893	0.354688
C37	C	0.693576	-1.063756	0.354600
C38	C	1.162193	-1.063866	0.354648
C39	C	1.080394	-1.063920	0.354706
C40	C	0.354348	-1.063628	0.163387
C41	C	0.354249	-1.063693	0.081588
C42	C	0.354159	-0.255720	0.354614
C43	C	0.354158	-0.337519	0.354615
C44	C	0.307248	-1.016510	-0.183430
C45	C	0.307328	-1.016452	-0.106572
C46	C	0.400788	-1.111211	-0.106641
C47	C	0.400712	-1.111265	-0.183498
C48	C	0.353937	-1.063916	-0.221891
C49	C	0.354094	-1.063803	-0.068175
C50	C	0.354181	-1.063740	0.015158
C51	C	0.353851	-1.063977	-0.305230
C52	C	0.353891	-1.063949	0.546547
C53	C	0.353782	-1.064026	0.628346
H54	H	0.439556	-0.494496	0.439844
N55	N	0.931349	-0.968712	0.449712
N56	N	0.896987	-0.926681	0.491679
H57	H	0.924667	-0.892729	0.525603
H58	H	0.784139	-1.149173	0.269317
N59	N	0.449295	-0.641910	0.449566
N60	N	0.449285	-0.710532	0.449559
H61	H	0.483235	-0.738288	0.483456
N62	N	0.448545	-1.159580	-0.067406
N63	N	0.422352	-1.206266	-0.024370
H64	H	0.456078	-1.240430	0.003342
H65	H	0.438734	-1.149870	-0.214814
N66	N	0.775981	-0.968663	0.449673
N67	N	0.707359	-0.968647	0.449649
H68	H	0.679591	-0.934691	0.483560
N69	N	0.931556	-1.158985	0.259627
N70	N	0.974358	-1.205901	0.285576
H71	H	1.002122	-1.239863	0.251668
H72	H	0.269310	-0.977849	-0.075260
N73	N	0.258971	-0.641754	0.259625
N74	N	0.191064	-0.633202	0.264628
H75	H	0.157093	-0.660902	0.230742
H76	H	0.269161	-0.977955	-0.214687
H77	H	0.268746	-0.494351	0.269365
