data_functionalizedCrystal
_audit_creation_method	'MofGen! by Chris Wilmer'
_symmetry_space_group_name_H-M	'P1'
_symmetry_Int_Tables_number	1
_symmetry_cell_setting	triclinic
loop_
_symmetry_equiv_pos_as_xyz
  x,y,z
_cell_length_a	10.654550
_cell_length_b	16.109295
_cell_length_c	9.730223
_cell_angle_alpha	90.003092
_cell_angle_beta	90.006378
_cell_angle_gamma	96.027955
loop_
_atom_site_label
_atom_site_type_symbol
_atom_site_fract_x
_atom_site_fract_y
_atom_site_fract_z
O1	O	1.666251	-0.116769	0.114392
O2	O	1.300622	-0.127894	0.114369
O3	O	1.493484	-0.001360	0.114383
O4	O	1.473389	-0.243303	0.114378
O5	O	1.493472	-0.001367	-0.114197
O6	O	1.300609	-0.127901	-0.114211
O7	O	1.666239	-0.116776	-0.114188
Zn8	Zn	1.483422	-0.122340	-0.150491
Zn9	Zn	1.483438	-0.122330	0.150673
O10	O	1.473376	-0.243310	-0.114202
C11	C	1.253829	-0.127081	0.000077
C12	C	1.114419	-0.124637	0.000068
C13	C	1.033920	-0.199138	0.000087
C14	C	0.902930	-0.196837	0.000111
C15	C	0.932951	-0.045526	0.000103
C16	C	1.063938	-0.047828	0.000069
C17	C	1.016587	-0.286496	0.000097
C18	C	0.885597	-0.284195	0.000121
C19	C	1.492665	0.029616	0.000097
C20	C	1.490229	0.121927	0.000107
C21	C	1.599001	0.343553	0.000164
C22	C	1.596702	0.430287	0.000187
C23	C	1.367881	0.411773	0.000165
C24	C	1.370182	0.325041	0.000152
C25	C	1.485746	0.290933	0.000145
C26	C	1.481145	0.464400	0.000180
C27	C	1.478651	0.558441	0.000205
C28	C	1.488240	0.196886	0.000123
C29	C	1.713032	-0.117589	0.000108
C30	C	1.852442	-0.120033	0.000126
N31	N	1.483420	-0.122345	-0.356027
C32	C	1.474203	0.725714	0.000121
C33	C	1.476662	0.633406	0.000218
C34	C	1.559558	-0.173236	-0.427963
C35	C	1.559577	-0.173220	-0.571846
C36	C	1.407310	-0.071422	-0.571845
C37	C	1.407298	-0.071434	-0.427965
C38	C	1.647464	-0.232011	-0.427964
C39	C	1.647483	-0.231995	-0.571847
N40	N	1.483450	-0.122318	0.356209
H41	H	0.843422	-0.317107	0.095788
H42	H	1.051869	-0.314309	0.098784
H43	H	0.839561	-0.310599	-0.098564
O44	O	1.723638	0.306760	0.000184
H45	H	1.802005	0.357925	0.000219
O46	O	1.718855	0.487045	0.000190
H47	H	1.799594	0.448753	0.000169
H48	H	1.607082	-0.294614	-0.383363
H49	H	1.742429	-0.205861	-0.616443
H50	H	1.345313	-0.029985	-0.369401
O51	O	1.243239	0.448559	0.000144
H52	H	1.260664	0.517711	0.000136
O53	O	1.325224	-0.016512	-0.649457
H54	H	1.352605	0.049768	-0.621819
H55	H	1.277949	0.282195	0.000141
O56	O	1.150760	0.032529	0.000021
H57	H	1.211199	0.035112	0.093161
O58	O	1.779025	-0.204944	-0.376188
H59	H	1.843443	-0.191674	-0.464947
O60	O	1.605324	-0.318829	-0.623629
H61	H	1.584656	-0.361351	-0.534873
O62	O	0.878506	0.037316	0.000110
H63	H	0.773898	0.026402	0.000142
O64	O	1.054851	-0.331682	-0.126685
H65	H	0.969702	-0.351979	-0.188729
