data_functionalizedCrystal
_audit_creation_method	'MofGen! by Chris Wilmer'
_symmetry_space_group_name_H-M	'P1'
_symmetry_Int_Tables_number	1
_symmetry_cell_setting	triclinic
loop_
_symmetry_equiv_pos_as_xyz
  x,y,z
_cell_length_a	14.044220
_cell_length_b	10.654545
_cell_length_c	13.101039
_cell_angle_alpha	93.389741
_cell_angle_beta	86.332523
_cell_angle_gamma	88.835978
loop_
_atom_site_label
_atom_site_type_symbol
_atom_site_fract_x
_atom_site_fract_y
_atom_site_fract_z
O1	O	0.128022	1.687558	0.085207
O2	O	0.140719	1.323355	0.085212
O3	O	-0.003649	1.499989	0.085200
O4	O	0.272390	1.510924	0.085220
O5	O	0.006726	1.487317	-0.085229
O6	O	0.151095	1.310683	-0.085217
O7	O	0.138397	1.674886	-0.085222
Zn8	Zn	0.146393	1.490773	-0.112279
Zn9	Zn	0.132723	1.507468	0.112269
O10	O	0.282766	1.498252	-0.085209
C11	C	0.144976	1.270127	-0.000002
C12	C	0.142189	1.130404	-0.000001
C13	C	0.146533	1.057860	-0.092902
C14	C	0.143898	0.926576	-0.092902
C15	C	0.132580	0.940391	0.092909
C16	C	0.135207	1.071673	0.092908
C17	C	-0.033807	1.488867	-0.000015
C18	C	-0.139127	1.474591	-0.000016
C19	C	-0.331960	1.448494	-0.000001
C20	C	-0.388929	1.549742	0.000001
C21	C	-0.496229	1.535221	0.000009
C22	C	-0.224651	1.463013	-0.000010
C23	C	0.312924	1.509374	0.000008
C24	C	0.418243	1.523650	0.000016
C25	C	0.134141	1.728114	-0.000005
C26	C	0.136927	1.867838	-0.000000
N27	N	0.155722	1.479388	-0.265526
C28	C	0.168424	1.463900	-0.474568
C29	C	0.110688	1.534347	-0.525448
C30	C	0.117756	1.525729	-0.641766
C31	C	0.161358	1.472516	-0.358239
N32	N	0.123387	1.518862	0.265517
H33	H	0.152217	1.105675	-0.168554
H34	H	0.147436	0.867516	-0.168552
O35	O	0.125938	0.883468	0.183219
C36	C	0.205160	0.914685	0.239728
H37	H	0.236010	1.006363	0.213315
H38	H	0.261894	0.836313	0.226848
C39	C	0.135495	0.818210	0.386977
C40	C	0.173381	0.930816	0.354542
H41	H	0.115895	0.828155	0.457800
H42	H	0.082123	0.797174	0.348905
H43	H	0.182780	0.752911	0.376235
H44	H	0.126094	0.996109	0.365272
H45	H	0.226745	0.951864	0.392618
O46	O	0.131124	1.142276	0.183093
C47	C	0.214322	1.213562	0.188669
H48	H	0.246969	1.225546	0.108009
H49	H	0.267942	1.162848	0.234525
C50	C	0.148573	1.329033	0.340844
C51	C	0.188666	1.343760	0.241774
H52	H	0.132749	1.409343	0.373605
H53	H	0.092521	1.281003	0.337090
H54	H	0.193263	1.286767	0.379044
H55	H	0.143972	1.386011	0.203572
H56	H	0.244709	1.391800	0.245523
O57	O	0.045310	1.614056	-0.473366
C58	C	-0.006963	1.677894	-0.543583
H59	H	-0.003761	1.620662	-0.620099
H60	H	0.025054	1.773941	-0.554942
C61	C	-0.115570	1.765485	-0.407601
C62	C	-0.111644	1.695187	-0.501576
H63	H	-0.180141	1.776159	-0.381688
H64	H	-0.080351	1.722481	-0.360293
H65	H	-0.088884	1.845517	-0.417079
H66	H	-0.138318	1.615152	-0.492094
H67	H	-0.146870	1.738179	-0.548882
O68	O	-0.350827	1.666070	-0.000056
C69	C	-0.250623	1.654866	-0.000039
H70	H	-0.226189	1.556947	-0.032297
H71	H	-0.227995	1.670072	0.081721
C72	C	-0.234747	1.874627	-0.027270
C73	C	-0.204737	1.754364	-0.066898
H74	H	-0.206441	1.936004	-0.068507
H75	H	-0.302257	1.882177	-0.027278
H76	H	-0.215889	1.887280	0.040863
H77	H	-0.223605	1.741706	-0.135024
H78	H	-0.137229	1.746814	-0.066903
O79	O	-0.370056	1.332167	-0.000049
C80	C	-0.470262	1.343386	-0.000019
H81	H	-0.490770	1.436511	-0.032276
H82	H	-0.502826	1.340341	0.081745
C83	C	-0.482845	1.119579	-0.027243
C84	C	-0.508032	1.233953	-0.066870
H85	H	-0.506144	1.052073	-0.068475
H86	H	-0.415334	1.112019	-0.027260
H87	H	-0.509983	1.117059	0.040893
H88	H	-0.480884	1.236477	-0.134999
H89	H	-0.575539	1.241511	-0.066866
O90	O	0.233625	1.384055	-0.526764
C91	C	0.215961	1.259782	-0.500639
H92	H	0.138259	1.252638	-0.471062
H93	H	0.264609	1.233403	-0.438467
C94	C	0.331349	1.178091	-0.632365
C95	C	0.235911	1.169315	-0.596047
H96	H	0.343659	1.122285	-0.691215
H97	H	0.343252	1.261816	-0.649964
H98	H	0.371878	1.156111	-0.580546
H99	H	0.195385	1.191310	-0.647861
H100	H	0.224001	1.085591	-0.578458
