data_functionalizedCrystal
_audit_creation_method	'MofGen! by Chris Wilmer'
_symmetry_space_group_name_H-M	'P1'
_symmetry_Int_Tables_number	1
_symmetry_cell_setting	triclinic
loop_
_symmetry_equiv_pos_as_xyz
  x,y,z
_cell_length_a	12.645331
_cell_length_b	12.645330
_cell_length_c	15.296720
_cell_angle_alpha	80.350659
_cell_angle_beta	80.338737
_cell_angle_gamma	90.016671
loop_
_atom_site_label
_atom_site_type_symbol
_atom_site_fract_x
_atom_site_fract_y
_atom_site_fract_z
Zn1	Zn	1.516907	-0.525781	0.510105
Zn2	Zn	1.547490	-0.672398	0.359264
Zn3	Zn	1.370322	-0.495146	0.359267
Zn4	Zn	1.339611	-0.702992	0.510067
O5	O	1.443583	-0.599079	0.434676
O6	O	1.669308	-0.545247	0.490110
O7	O	1.549640	-0.623261	0.233027
O8	O	1.389821	-0.350866	0.379294
O9	O	1.691778	-0.652965	0.379287
O10	O	1.497516	-0.373373	0.490113
O11	O	1.419476	-0.493035	0.233029
O12	O	1.217904	-0.522700	0.379257
O13	O	1.337478	-0.705108	0.636310
O14	O	1.195341	-0.675404	0.490049
O15	O	1.467736	-0.574912	0.636337
O16	O	1.519861	-0.824800	0.379251
O17	O	1.367133	-0.847277	0.490045
C18	C	1.168158	-0.599049	0.434650
C19	C	1.050326	-0.599065	0.434660
C20	C	0.896843	-0.502701	0.365345
C21	C	1.019465	-0.502852	0.365040
C22	C	1.011091	-0.705459	0.408693
C23	C	0.888589	-0.704914	0.408220
C24	C	0.863729	-0.590153	0.530209
C25	C	0.986443	-0.587550	0.529678
C26	C	1.443508	-0.874506	0.434663
C27	C	1.443567	-0.992341	0.434688
C28	C	1.347780	-1.174133	0.504604
C29	C	1.347408	-1.051528	0.504379
C30	C	1.432672	-1.017604	0.339617
C31	C	1.432087	-1.140288	0.340041
C32	C	1.550905	-1.164391	0.459072
C33	C	1.549793	-1.042206	0.461151
C34	C	1.720082	-0.599110	0.434702
C35	C	1.837910	-0.599124	0.434714
C36	C	1.395770	-0.646840	0.669971
C37	C	1.375395	-0.667193	0.770240
C38	C	1.443683	-0.322580	0.434708
C39	C	1.443725	-0.204753	0.434722
C40	C	1.491270	-0.551427	0.200296
C41	C	1.511851	-0.530776	0.100028
C42	C	1.589245	-0.453428	1.052939
C43	C	1.608395	-0.434307	0.958731
C44	C	1.550146	-0.492526	0.911604
C45	C	1.472745	-0.569871	0.958693
C46	C	1.453599	-0.588999	1.052910
C47	C	1.414500	-0.628098	0.911575
C48	C	1.337099	-0.705442	0.958664
C49	C	1.317956	-0.724567	1.052871
C50	C	1.376205	-0.666347	1.099999
C51	C	1.433646	-0.608969	0.817358
C52	C	1.298000	-0.744541	0.817329
C53	C	1.278851	-0.763662	0.911536
H54	H	1.006018	-0.654204	0.584127
Br55	Br	1.355028	-1.247127	0.622490
Br56	Br	1.302462	-1.181122	0.305659
Br57	Br	1.085608	-0.722875	0.293584
Br58	Br	1.564079	-1.017338	0.577769
Br59	Br	1.214317	-0.997324	0.477498
H60	H	1.499986	-1.158999	0.286198
Br61	Br	0.869269	-0.509760	0.248093
Br62	Br	1.672637	-0.975122	0.382504
H63	H	1.046253	-0.423351	0.381316
H64	H	1.215829	-0.826636	0.949890
H65	H	1.565743	-0.476954	0.834896
Br66	Br	0.842277	-0.369711	0.392178
H67	H	1.351983	-1.035708	0.574873
Br68	Br	1.304593	-0.959471	0.304611
H69	H	1.250572	-0.791950	0.778958
Br70	Br	1.713437	-0.329347	0.894831
H71	H	1.063146	-0.507226	0.294274
Br72	Br	1.350222	-0.692299	1.227857
Br73	Br	0.864521	-0.721379	0.291863
H74	H	0.849109	-0.778149	0.456542
Br75	Br	1.212933	-0.829556	1.116777
Br76	Br	1.573774	-1.238894	0.572656
H77	H	1.030300	-0.778382	0.457632
H78	H	1.622149	-1.183031	0.408174
H79	H	0.828026	-0.514943	0.553825
Br80	Br	0.797898	-0.707599	0.616356
Br81	Br	1.668300	-0.374438	1.116900
H82	H	1.501194	-0.977570	0.286127
Br83	Br	1.028323	-0.457227	0.562328
Br84	Br	1.215487	-1.220269	0.478084
H85	H	1.496667	-0.545994	0.779027
