data_functionalizedCrystal
_audit_creation_method	'MofGen! by Chris Wilmer'
_symmetry_space_group_name_H-M	'P1'
_symmetry_Int_Tables_number	1
_symmetry_cell_setting	triclinic
loop_
_symmetry_equiv_pos_as_xyz
  x,y,z
_cell_length_a	13.033293
_cell_length_b	21.295417
_cell_length_c	13.033352
_cell_angle_alpha	82.836170
_cell_angle_beta	90.908427
_cell_angle_gamma	97.198682
loop_
_atom_site_label
_atom_site_type_symbol
_atom_site_fract_x
_atom_site_fract_y
_atom_site_fract_z
Zn1	Zn	1.498189	-0.196048	0.781418
Zn2	Zn	1.519948	-0.286467	0.609433
Zn3	Zn	1.348102	-0.192674	0.587601
Zn4	Zn	1.326150	-0.312747	0.759463
O5	O	1.423097	-0.246984	0.684479
O6	O	1.644992	-0.198456	0.776929
O7	O	1.515446	-0.261614	0.462636
O8	O	1.368092	-0.105030	0.613362
O9	O	1.660979	-0.264886	0.650573
O10	O	1.478360	-0.107509	0.755758
O11	O	1.389191	-0.192705	0.446596
O12	O	1.201273	-0.218188	0.592074
O13	O	1.330678	-0.309678	0.906276
O14	O	1.185145	-0.306406	0.718340
O15	O	1.457074	-0.223939	0.922406
O16	O	1.494160	-0.378045	0.629284
O17	O	1.351777	-0.397353	0.739510
C18	C	1.155893	-0.264783	0.650456
C19	C	1.041579	-0.272415	0.635925
C20	C	0.982692	-0.243017	0.692062
C21	C	0.864542	-0.250904	0.677045
C22	C	1.422973	-0.410540	0.684410
C23	C	1.423009	-0.480507	0.684427
C24	C	1.480382	-0.514613	0.758615
C25	C	1.480415	-0.580356	0.758645
C26	C	1.423089	-0.611986	0.684470
C27	C	1.365704	-0.577872	0.610276
C28	C	1.365664	-0.512132	0.610254
N29	N	1.426782	-0.707989	0.593489
N30	N	1.426825	-0.770439	0.593513
C31	C	1.423203	-0.810057	0.684532
N32	N	1.419555	-0.784865	0.775530
N33	N	1.419517	-0.722408	0.775505
C34	C	1.423125	-0.683270	0.684485
C35	C	1.480614	-0.915449	0.758758
C36	C	1.480640	-0.981193	0.758789
C37	C	1.365935	-0.978707	0.610411
C38	C	1.365903	-0.912966	0.610389
C39	C	1.423248	-0.881340	0.684562
C40	C	1.691345	-0.229116	0.718635
C41	C	1.805656	-0.221502	0.733190
C42	C	1.389000	-0.270116	0.952697
C43	C	1.374470	-0.279974	1.066995
C44	C	1.423247	-0.082790	0.684574
C45	C	1.423311	-0.012820	0.684614
C46	C	1.430530	-0.241947	1.125934
C47	C	1.415514	-0.252134	1.244067
C48	C	1.457054	-0.223957	1.417303
C49	C	1.471582	-0.214102	1.303004
H50	H	1.527073	-0.488866	0.819013
C51	C	1.302689	-0.612661	0.528648
N52	N	1.255238	-0.638862	0.467153
C53	C	1.032745	-0.201123	0.772008
N54	N	1.070444	-0.169567	0.832225
H55	H	0.842705	-0.190488	0.792368
C56	C	1.302858	-1.013499	0.528830
N57	N	1.255341	-1.039709	0.467386
C58	C	1.510387	-0.187773	1.075956
N59	N	1.570538	-0.146968	1.038314
H60	H	1.315351	-0.320068	1.103993
H61	H	1.356391	-0.292232	1.281060
C62	C	1.551448	-0.159927	1.253034
N63	N	1.611604	-0.119124	1.215395
H64	H	1.527305	-0.889699	0.819157
H65	H	0.827492	-0.281912	0.617861
H66	H	1.527125	-0.608132	0.819069
C67	C	0.991526	-0.314306	0.555975
N68	N	0.953827	-0.345860	0.495756
C69	C	1.302542	-0.474614	0.528641
N70	N	1.254997	-0.446354	0.467170
H71	H	1.527359	-1.008963	0.819206
C72	C	1.302780	-0.875447	0.528780
N73	N	1.255226	-0.847190	0.467314
