data_functionalizedCrystal
_audit_creation_method	'MofGen! by Chris Wilmer'
_symmetry_space_group_name_H-M	'P1'
_symmetry_Int_Tables_number	1
_symmetry_cell_setting	triclinic
loop_
_symmetry_equiv_pos_as_xyz
  x,y,z
_cell_length_a	19.805407
_cell_length_b	16.625546
_cell_length_c	19.805399
_cell_angle_alpha	89.972133
_cell_angle_beta	89.980427
_cell_angle_gamma	90.022468
loop_
_atom_site_label
_atom_site_type_symbol
_atom_site_fract_x
_atom_site_fract_y
_atom_site_fract_z
Zn1	Zn	1.034754	-0.321020	-0.382718
Zn2	Zn	1.034677	-0.455857	-0.269529
Zn3	Zn	0.921569	-0.321043	-0.269543
Zn4	Zn	0.921540	-0.455815	-0.382676
O5	O	0.978135	-0.388434	-0.326117
O6	O	1.129461	-0.338915	-0.367716
O7	O	1.019652	-0.438001	-0.174815
O8	O	0.936628	-0.208207	-0.284579
O9	O	1.129404	-0.437980	-0.284556
O10	O	1.019784	-0.208191	-0.367729
O11	O	0.936553	-0.338953	-0.174825
O12	O	0.826848	-0.338912	-0.284538
O13	O	0.936579	-0.437907	-0.477398
O14	O	0.826827	-0.437928	-0.367657
O15	O	1.019756	-0.338874	-0.477429
O16	O	1.019625	-0.568684	-0.284515
O17	O	0.936504	-0.568653	-0.367644
C18	C	0.802279	-0.388418	-0.326095
C19	C	0.727047	-0.388431	-0.326102
C20	C	0.691710	-0.440067	-0.369311
C21	C	0.621021	-0.440068	-0.369321
C22	C	0.585671	-0.388437	-0.326117
C23	C	0.621014	-0.336796	-0.282905
C24	C	0.691701	-0.336791	-0.282899
C25	C	0.335941	-0.336814	-0.282927
C26	C	0.265248	-0.336825	-0.282935
C27	C	0.265261	-0.440091	-0.369349
C28	C	0.335948	-0.440086	-0.369343
C29	C	0.371284	-0.388442	-0.326134
C30	C	0.447932	-0.388440	-0.326125
C31	C	0.509024	-0.388443	-0.326122
C32	C	0.978071	-0.597925	-0.326088
C33	C	0.978105	-0.687546	-0.326099
C34	C	0.978224	-1.015721	-0.326169
C35	C	0.978189	-0.924413	-0.326152
C36	C	0.978164	-0.851636	-0.326134
C37	C	0.978130	-0.760322	-0.326117
C38	C	1.154678	-0.388450	-0.326139
C39	C	1.229910	-0.388457	-0.326149
C40	C	0.978173	-0.388383	-0.502660
C41	C	0.978189	-0.388361	-0.577892
C42	C	0.978218	-0.178125	-0.326160
C43	C	0.978253	-0.088504	-0.326178
C44	C	1.021501	-0.336792	-0.613253
C45	C	1.021508	-0.336769	-0.683941
C46	C	0.978206	-0.388319	-0.719267
C47	C	0.934889	-0.439890	-0.683901
C48	C	0.934880	-0.439909	-0.613214
C49	C	0.934928	-0.439815	-0.968974
C50	C	0.934942	-0.439794	-1.039667
C51	C	1.021556	-0.336675	-1.039702
C52	C	1.021546	-0.336694	-0.969015
C53	C	0.978227	-0.388262	-0.933655
C54	C	0.978219	-0.388285	-0.857006
C55	C	0.978217	-0.388300	-0.795914
C56	C	0.978136	-0.388426	-0.150261
C57	C	0.978251	-0.388221	-0.075029
H58	H	0.364726	-0.482132	-0.404522
O59	O	0.370155	-0.286623	-0.240893
C60	C	0.323794	-0.241042	-0.202775
H61	H	0.273399	-0.274076	-0.200382
H62	H	0.344198	-0.232347	-0.149459
H63	H	0.316297	-0.179848	-0.227659
O64	O	0.231039	-0.490325	-0.411354
C65	C	0.277398	-0.535879	-0.449496
H66	H	0.327771	-0.538627	-0.421759
H67	H	0.256959	-0.599419	-0.456627
H68	H	0.284952	-0.506429	-0.500943
O69	O	0.586645	-0.286755	-0.240867
C70	C	0.545712	-0.332591	-0.197095
H71	H	0.566996	-0.396087	-0.192811
H72	H	0.544894	-0.303343	-0.145052
H73	H	0.492149	-0.335409	-0.218024
H74	H	0.899630	-0.481861	-0.712669
O75	O	0.230883	-0.286783	-0.240887
C76	C	0.189958	-0.332629	-0.197114
H77	H	0.211245	-0.396124	-0.192841
H78	H	0.189146	-0.303389	-0.145067
H79	H	0.136391	-0.335446	-0.218035
O80	O	1.063672	-0.286726	-0.934665
C81	C	1.107354	-0.332634	-0.893754
H82	H	1.111530	-0.396132	-0.915043
H83	H	1.159448	-0.303462	-0.892957
H84	H	1.086407	-0.335431	-0.840181
O85	O	0.725941	-0.490247	-0.411345
C86	C	0.679589	-0.535834	-0.449474
H87	H	0.629211	-0.502815	-0.451869
H88	H	0.700032	-0.544515	-0.502788
H89	H	0.672044	-0.597034	-0.424597
O90	O	0.586668	-0.490117	-0.411365
C91	C	0.545800	-0.444293	-0.455151
H92	H	0.567118	-0.380792	-0.459430
H93	H	0.545018	-0.473544	-0.507194
H94	H	0.492217	-0.441489	-0.434238
H95	H	0.899678	-0.481774	-1.068427
O96	O	0.725925	-0.286612	-0.240857
C97	C	0.679569	-0.241030	-0.202735
H98	H	0.629170	-0.274054	-0.200347
H99	H	0.699972	-0.232347	-0.149417
H100	H	0.672080	-0.179830	-0.227612
H101	H	1.056826	-0.294683	-1.068501
H102	H	1.056764	-0.294817	-0.584496
O103	O	1.063550	-0.286561	-0.718212
C104	C	1.048778	-0.206204	-0.700957
H105	H	1.022749	-0.204552	-0.649630
H106	H	1.097642	-0.170057	-0.698549
H107	H	1.013999	-0.179024	-0.740739
H108	H	0.899665	-0.481817	-0.940193
O109	O	0.892794	-0.490090	-0.578966
C110	C	0.854568	-0.535577	-0.625301
H111	H	0.882295	-0.538349	-0.675697
H112	H	0.847331	-0.599113	-0.604865
H113	H	0.803171	-0.506053	-0.632810
