data_functionalizedCrystal
_audit_creation_method	'MofGen! by Chris Wilmer'
_symmetry_space_group_name_H-M	'P1'
_symmetry_Int_Tables_number	1
_symmetry_cell_setting	triclinic
loop_
_symmetry_equiv_pos_as_xyz
  x,y,z
_cell_length_a	16.992694
_cell_length_b	19.188930
_cell_length_c	16.053802
_cell_angle_alpha	92.551696
_cell_angle_beta	87.249047
_cell_angle_gamma	86.906503
loop_
_atom_site_label
_atom_site_type_symbol
_atom_site_fract_x
_atom_site_fract_y
_atom_site_fract_z
O1	O	1.043197	0.145267	-0.069340
O2	O	1.543197	0.645267	0.430660
O3	O	0.814918	0.143642	-0.069364
O4	O	1.314918	0.643642	0.430636
O5	O	0.935644	0.043185	-0.069335
O6	O	1.435644	0.543185	0.430665
O7	O	0.922471	0.245724	-0.069369
O8	O	1.422471	0.745724	0.430631
O9	O	0.928999	0.048690	0.069522
O10	O	1.428999	0.548690	0.569522
O11	O	0.808273	0.149147	0.069493
O12	O	1.308273	0.649147	0.569493
O13	O	1.036552	0.150772	0.069517
O14	O	1.536552	0.650772	0.569517
Zn15	Zn	0.921357	0.150834	0.091552
Zn16	Zn	1.421357	0.650834	0.591552
Zn17	Zn	0.930113	0.143581	-0.091399
Zn18	Zn	1.430113	0.643581	0.408601
O19	O	0.915826	0.251229	0.069488
O20	O	1.415826	0.751229	0.569488
C21	C	0.782390	0.144306	0.000061
C22	C	1.282390	0.644306	0.500061
C23	C	0.695368	0.138072	0.000053
C24	C	1.195368	0.638072	0.500053
C25	C	0.644922	0.198212	0.000043
C26	C	1.144922	0.698212	0.500043
C27	C	0.563155	0.192351	0.000056
C28	C	1.063155	0.692351	0.500056
C29	C	0.531836	0.126351	0.000072
C30	C	1.031836	0.626351	0.500072
C31	C	0.582288	0.066208	0.000084
C32	C	1.082288	0.566208	0.500084
C33	C	0.664054	0.072069	0.000077
C34	C	1.164054	0.572069	0.500077
C35	C	0.288320	0.102059	0.000098
C36	C	0.788320	0.602059	0.500098
C37	C	0.206548	0.096203	0.000102
C38	C	0.706548	0.596203	0.500102
C39	C	0.187420	0.222347	0.000076
C40	C	0.687420	0.722347	0.500076
C41	C	0.269188	0.228202	0.000064
C42	C	0.769188	0.728202	0.500064
C43	C	0.319633	0.168059	0.000081
C44	C	0.819633	0.668059	0.500081
N45	N	0.448257	0.120359	0.000082
N46	N	0.948257	0.620359	0.500082
N47	N	0.403210	0.174051	0.000076
N48	N	0.903210	0.674051	0.500076
C49	C	0.931895	0.019902	0.000096
C50	C	1.431895	0.519902	0.500096
C51	C	0.930614	-0.057677	0.000103
C52	C	1.430614	0.442323	0.500103
C53	C	1.001452	-0.098456	0.000114
C54	C	1.501452	0.401544	0.500114
C55	C	1.000250	-0.171350	0.000101
C56	C	1.500250	0.328650	0.500101
C57	C	0.928204	-0.203463	0.000093
C58	C	1.428204	0.296537	0.500093
C59	C	0.857356	-0.162676	0.000076
C60	C	1.357356	0.337324	0.500076
C61	C	0.858561	-0.089783	0.000081
C62	C	1.358561	0.410217	0.500081
N63	N	0.870872	-0.312817	0.047342
N64	N	1.370872	0.187183	0.547342
N65	N	0.869732	-0.382063	0.047339
N66	N	1.369732	0.117937	0.547339
C67	C	0.924569	-0.423085	0.000075
C68	C	1.424569	0.076915	0.500075
N69	N	0.980600	-0.392247	-0.047175
N70	N	1.480600	0.107753	0.452825
N71	N	0.981742	-0.322995	-0.047168
N72	N	1.481742	0.177005	0.452832
C73	C	0.926889	-0.282503	0.000086
C74	C	1.426889	0.217497	0.500086
C75	C	0.994108	-0.542905	0.000071
C76	C	1.494108	-0.042905	0.500071
C77	C	0.992903	-0.615801	0.000052
C78	C	1.492903	-0.115801	0.500052
C79	C	0.850007	-0.607124	0.000036
C80	C	1.350007	-0.107124	0.500036
C81	C	0.851215	-0.534230	0.000046
C82	C	1.351215	-0.034230	0.500046
C83	C	0.923267	-0.502125	0.000068
C84	C	1.423267	-0.002125	0.500068
C85	C	1.069080	0.150109	0.000090
C86	C	1.569080	0.650109	0.500090
C87	C	1.156102	0.156342	0.000093
C88	C	1.656102	0.656342	0.500093
C89	C	0.919575	0.274513	0.000055
C90	C	1.419575	0.774513	0.500055
C91	C	0.920856	0.352091	0.000043
C92	C	1.420856	0.852091	0.500043
N93	N	0.915388	0.155784	0.216410
N94	N	1.415388	0.655784	0.716410
N95	N	0.936088	0.138625	-0.216258
N96	N	1.436088	0.638625	0.283742
C97	C	0.966776	0.113057	0.260117
C98	C	1.466776	0.613057	0.760117
C99	C	0.962607	0.116526	0.347523
C100	C	1.462607	0.616526	0.847523
C101	C	0.907054	0.162727	0.391220
C102	C	1.407054	0.662727	0.891220
C103	C	0.855661	0.205456	0.347508
C104	C	1.355661	0.705456	0.847508
C105	C	0.859826	0.201983	0.260104
C106	C	1.359826	0.701983	0.760104
C107	C	0.888860	0.177881	0.652626
C108	C	1.388860	0.677881	1.152626
C109	C	0.884700	0.181353	0.740036
C110	C	1.384700	0.681353	1.240036
C111	C	0.991646	0.092421	0.740045
C112	C	1.491646	0.592421	1.240045
C113	C	0.995810	0.088955	0.652639
C114	C	1.495810	0.588955	1.152639
C115	C	0.944414	0.131681	0.608934
C116	C	1.444414	0.631681	1.108934
N117	N	0.902794	0.166276	0.480563
N118	N	1.402794	0.666276	0.980563
N119	N	0.948671	0.128128	0.519593
N120	N	1.448671	0.628128	1.019593
H121	H	0.181053	0.042455	0.000114
H122	H	0.681053	0.542455	0.500114
O123	O	0.342725	0.037194	0.000115
O124	O	0.842725	0.537194	0.500115
H125	H	0.307207	-0.009683	0.000120
H126	H	0.807207	0.490317	0.500120
H127	H	0.522084	0.241323	0.000047
H128	H	1.022084	0.741323	0.500047
O129	O	1.076655	-0.215346	0.000125
O130	O	1.576655	0.284654	0.500125
H131	H	1.126959	-0.180775	0.000147
H132	H	1.626959	0.319225	0.500147
H133	H	0.294682	0.281946	0.000042
H134	H	0.794682	0.781946	0.500042
H135	H	0.556782	0.012469	0.000109
H136	H	1.056782	0.512469	0.500109
O137	O	1.079169	-0.063836	0.000123
O138	O	1.579169	0.436164	0.500123
H139	H	1.080437	-0.028602	0.056724
H140	H	1.580437	0.471398	0.556724
O141	O	1.069314	-0.659784	0.000062
O142	O	1.569314	-0.159784	0.500062
H143	H	1.056375	-0.715866	0.000044
H144	H	1.556375	-0.215866	0.500044
O145	O	0.779651	-0.197311	0.000069
O146	O	1.279651	0.302689	0.500069
H147	H	0.730592	-0.156706	0.000056
H148	H	1.230592	0.343294	0.500056
O149	O	0.772296	-0.641748	0.000031
O150	O	1.272296	-0.141748	0.500031
H151	H	0.783358	-0.699286	0.000035
H152	H	1.283358	-0.199286	0.500035
O153	O	0.774804	-0.490247	0.000050
O154	O	1.274804	0.009753	0.500050
H155	H	0.774636	-0.459067	-0.056547
H156	H	1.274636	0.040933	0.443453
H157	H	0.705127	0.023097	0.000084
H158	H	1.205127	0.523097	0.500084
H159	H	1.052778	-0.516763	0.000085
H160	H	1.552778	-0.016763	0.500085
O161	O	0.782154	-0.045793	0.000083
O162	O	1.282154	0.454207	0.500083
H163	H	0.731851	-0.080365	0.000081
H164	H	1.231851	0.419635	0.500081
O165	O	1.047077	0.046336	0.787179
O166	O	1.547077	0.546336	1.287179
H167	H	1.012301	0.012126	0.827010
H168	H	1.512301	0.512126	1.327010
O169	O	0.824771	0.231177	0.787173
O170	O	1.324771	0.731177	1.287173
H171	H	0.789724	0.260298	0.742099
H172	H	1.289724	0.760298	1.242099
O173	O	1.026691	0.063222	0.212986
O174	O	1.526691	0.563222	0.712986
H175	H	1.061717	0.034089	0.258066
H176	H	1.561717	0.534089	0.758066
H177	H	0.847013	0.212672	0.617048
H178	H	1.347013	0.712672	1.117048
H179	H	1.004451	0.081734	0.383108
H180	H	1.504451	0.581734	0.883108
O181	O	1.055721	0.039118	0.605507
O182	O	1.555721	0.539118	1.105507
H183	H	1.090749	0.009983	0.650583
H184	H	1.590749	0.509983	1.150583
O185	O	0.133009	0.287212	0.000077
O186	O	0.633009	0.787212	0.500077
H187	H	0.097990	0.285318	-0.056511
H188	H	0.597990	0.785318	0.443489
O189	O	0.795744	0.255292	0.394633
O190	O	1.295744	0.755292	0.894633
H191	H	0.801486	0.250537	0.462754
H192	H	1.301486	0.750537	0.962754
O193	O	0.804406	0.248070	0.212956
O194	O	1.304406	0.748070	0.712956
H195	H	0.765081	0.280785	0.258025
H196	H	1.265081	0.780785	0.758025
O197	O	0.678695	0.269400	0.000035
O198	O	1.178695	0.769400	0.500035
H199	H	0.661108	0.296281	-0.056558
H200	H	1.161108	0.796281	0.443442
