data_functionalizedCrystal
_audit_creation_method	'MofGen! by Chris Wilmer'
_symmetry_space_group_name_H-M	'P1'
_symmetry_Int_Tables_number	1
_symmetry_cell_setting	triclinic
loop_
_symmetry_equiv_pos_as_xyz
  x,y,z
_cell_length_a	18.215407
_cell_length_b	18.215405
_cell_length_c	21.395356
_cell_angle_alpha	89.973989
_cell_angle_beta	89.978290
_cell_angle_gamma	90.017245
loop_
_atom_site_label
_atom_site_type_symbol
_atom_site_fract_x
_atom_site_fract_y
_atom_site_fract_z
Zn1	Zn	1.125111	-0.293111	-0.354237
Zn2	Zn	1.125016	-0.416179	-0.249463
Zn3	Zn	1.002035	-0.293119	-0.249477
Zn4	Zn	1.002014	-0.416128	-0.354206
O5	O	1.063544	-0.354634	-0.301846
O6	O	1.228083	-0.309454	-0.340345
O7	O	1.108671	-0.399879	-0.161787
O8	O	1.018410	-0.190133	-0.263393
O9	O	1.228013	-0.399871	-0.263368
O10	O	1.108834	-0.190127	-0.340360
O11	O	1.018318	-0.309467	-0.161798
O12	O	0.899048	-0.309418	-0.263363
O13	O	1.018374	-0.399785	-0.441888
O14	O	0.899033	-0.399793	-0.340307
O15	O	1.108813	-0.309405	-0.441911
O16	O	1.108651	-0.519156	-0.263338
O17	O	1.018282	-0.519119	-0.340293
C18	C	0.872338	-0.354602	-0.301834
C19	C	0.790539	-0.354606	-0.301843
C20	C	0.525512	-0.307644	-0.341992
C21	C	0.602371	-0.307632	-0.341990
C22	C	0.602317	-0.401648	-0.261714
C23	C	0.525460	-0.401663	-0.261719
C24	C	0.487059	-0.354657	-0.301857
C25	C	0.640776	-0.354630	-0.301850
C26	C	0.724109	-0.354617	-0.301847
C27	C	0.403720	-0.354670	-0.301861
C28	C	1.063474	-0.545840	-0.301824
C29	C	1.063511	-0.627639	-0.301836
C30	C	1.110617	-0.815769	-0.341967
C31	C	1.110643	-0.892628	-0.341979
C32	C	1.016563	-0.892747	-0.261764
C33	C	1.016533	-0.815890	-0.261756
C34	C	1.063564	-0.777403	-0.301856
C35	C	1.063621	-0.931119	-0.301876
C36	C	1.063649	-1.014452	-0.301889
C37	C	1.063535	-0.694064	-0.301845
C38	C	1.255497	-0.354667	-0.301859
C39	C	1.337296	-0.354681	-0.301864
C40	C	1.063602	-0.354588	-0.465269
C41	C	1.063627	-0.354569	-0.534911
C42	C	1.063635	-0.162681	-0.301881
C43	C	1.063674	-0.080882	-0.301896
C44	C	1.016592	-0.307486	-0.567619
C45	C	1.016590	-0.307473	-0.633055
C46	C	1.063635	-0.354534	-0.665779
C47	C	1.110673	-0.401626	-0.633062
C48	C	1.110668	-0.401643	-0.567628
C49	C	1.129943	-0.360326	-0.769464
C50	C	1.129948	-0.360304	-0.834897
C51	C	1.063647	-0.354484	-0.867600
C52	C	0.997339	-0.348672	-0.834862
C53	C	0.997335	-0.348690	-0.769428
C54	C	1.063644	-0.354521	-0.736731
C55	C	1.016606	-0.307384	-0.971261
C56	C	1.016602	-0.307376	-1.036698
C57	C	1.110691	-0.401525	-1.036704
C58	C	1.110689	-0.401537	-0.971269
C59	C	1.063647	-0.354463	-0.938551
C60	C	1.063529	-0.354626	-0.139058
C61	C	1.063647	-0.354439	-0.069417
H62	H	0.633676	-0.269351	-0.374672
H63	H	1.183940	-0.365033	-0.861547
H64	H	0.978214	-0.784650	-0.229093
H65	H	1.148911	-0.784435	-0.374620
H66	H	0.943350	-0.343929	-0.861488
H67	H	0.633592	-0.439917	-0.229033
H68	H	1.148991	-0.439875	-0.944637
H69	H	1.148957	-0.923862	-0.374642
H70	H	0.978285	-0.269158	-0.540985
H71	H	0.978273	-0.924093	-0.229114
H72	H	1.148977	-0.439944	-0.659710
H73	H	0.494151	-0.439950	-0.229037
H74	H	1.183938	-0.365059	-0.742842
H75	H	1.148973	-0.439983	-0.540997
H76	H	0.978290	-0.269129	-0.659692
H77	H	0.943344	-0.343959	-0.742775
H78	H	0.978301	-0.269054	-0.944621
H79	H	0.978296	-0.269038	-1.063328
H80	H	0.494249	-0.269369	-0.374675
H81	H	1.148998	-0.439842	-1.063347
