data_functionalizedCrystal
_audit_creation_method	'MofGen! by Chris Wilmer'
_symmetry_space_group_name_H-M	'P1'
_symmetry_Int_Tables_number	1
_symmetry_cell_setting	triclinic
loop_
_symmetry_equiv_pos_as_xyz
  x,y,z
_cell_length_a	19.188933
_cell_length_b	27.732064
_cell_length_c	18.266242
_cell_angle_alpha	89.997719
_cell_angle_beta	89.992377
_cell_angle_gamma	82.897496
loop_
_atom_site_label
_atom_site_type_symbol
_atom_site_fract_x
_atom_site_fract_y
_atom_site_fract_z
O1	O	0.925769	0.060352	-0.060850
O2	O	1.259102	0.393685	0.272483
O3	O	1.592435	0.727019	0.605817
O4	O	0.722406	0.068475	-0.060856
O5	O	1.055740	0.401808	0.272477
O6	O	1.389073	0.735141	0.605811
O7	O	0.830397	-0.005964	-0.060856
O8	O	1.163731	0.327370	0.272478
O9	O	1.497064	0.660703	0.605811
O10	O	0.817778	0.134790	-0.060850
O11	O	1.151111	0.468123	0.272483
O12	O	1.484444	0.801457	0.605816
O13	O	0.830379	-0.005967	0.060906
O14	O	1.163713	0.327366	0.394240
O15	O	1.497046	0.660699	0.727573
O16	O	0.722388	0.068471	0.060906
O17	O	1.055722	0.401804	0.394239
O18	O	1.389055	0.735137	0.727573
O19	O	0.925750	0.060348	0.060912
O20	O	1.259084	0.393681	0.394245
O21	O	1.592417	0.727015	0.727579
Zn22	Zn	0.824066	0.064409	0.080241
Zn23	Zn	1.157400	0.397742	0.413575
Zn24	Zn	1.490733	0.731076	0.746908
Zn25	Zn	0.824090	0.064414	-0.080185
Zn26	Zn	1.157424	0.397747	0.253148
Zn27	Zn	1.490757	0.731081	0.586481
O28	O	0.817759	0.134786	0.060912
O29	O	1.151093	0.468120	0.394245
O30	O	1.484426	0.801453	0.727578
C31	C	0.696388	0.068210	0.000024
C32	C	1.029721	0.401543	0.333358
C33	C	1.363055	0.734876	0.666691
C34	C	0.618889	0.067419	0.000022
C35	C	0.952222	0.400753	0.333355
C36	C	1.285555	0.734086	0.666688
C37	C	0.830122	-0.023973	0.000023
C38	C	1.163455	0.309360	0.333356
C39	C	1.496788	0.642694	0.666690
C40	C	0.829319	-0.077630	0.000016
C41	C	1.162652	0.255703	0.333350
C42	C	1.495985	0.589037	0.666683
C43	C	0.065678	0.061783	-0.066343
C44	C	0.399012	0.395116	0.266990
C45	C	0.732345	0.728449	0.600323
C46	C	0.138498	0.062522	-0.066346
C47	C	0.471831	0.395855	0.266987
C48	C	0.805165	0.729189	0.600321
C49	C	0.174903	0.062892	0.000026
C50	C	0.508236	0.396225	0.333360
C51	C	0.841570	0.729559	0.666693
C52	C	0.138484	0.062510	0.066406
C53	C	0.471818	0.395843	0.399740
C54	C	0.805151	0.729177	0.733073
C55	C	0.065667	0.061766	0.066407
C56	C	0.399001	0.395099	0.399740
C57	C	0.732334	0.728432	0.733074
N58	N	0.283735	0.091565	0.049431
N59	N	0.617068	0.424898	0.382765
N60	N	0.950402	0.758231	0.716098
N61	N	0.352908	0.092273	0.049426
N62	N	0.686242	0.425606	0.382759
N63	N	1.019575	0.758939	0.716093
C64	C	0.394297	0.065134	0.000028
C65	C	0.727631	0.398467	0.333361
C66	C	1.060964	0.731800	0.666694
N67	N	0.363899	0.037265	-0.049376
N68	N	0.697232	0.370599	0.283957
N69	N	1.030566	0.703932	0.617290
N70	N	0.294719	0.036559	-0.049373
N71	N	0.628052	0.369893	0.283960
N72	N	0.961386	0.703226	0.617294
C73	C	0.253861	0.063699	0.000033
C74	C	0.587194	0.397032	0.333366
C75	C	0.920528	0.730365	0.666699
C76	C	0.509667	0.066314	-0.066351
C77	C	0.843000	0.399647	0.266982
C78	C	1.176334	0.732981	0.600315
C79	C	0.582489	0.067050	-0.066351
C80	C	0.915822	0.400384	0.266982
C81	C	1.249155	0.733717	0.600315
C82	C	0.582473	0.067043	0.066403
C83	C	0.915806	0.400376	0.399736
C84	C	1.249139	0.733710	0.733070
C85	C	0.509653	0.066302	0.066401
C86	C	0.842987	0.399635	0.399734
C87	C	1.176320	0.732968	0.733068
C88	C	0.473255	0.065940	0.000022
C89	C	0.806588	0.399273	0.333355
C90	C	1.139921	0.732606	0.666689
C91	C	0.760035	-0.454915	0.000011
C92	C	1.093368	-0.121582	0.333345
C93	C	1.426701	0.211752	0.666678
C94	C	0.762990	-0.253246	0.000010
C95	C	1.096324	0.080088	0.333344
C96	C	1.429657	0.413421	0.666677
O97	O	0.709228	-0.222158	-0.000020
O98	O	1.042561	0.111176	0.333313
O99	O	1.375895	0.444509	0.666646
N100	N	0.827027	-0.233922	0.000012
N101	N	1.160360	0.099411	0.333346
N102	N	1.493694	0.432745	0.666679
C103	C	0.890329	-0.265019	0.000009
C104	C	1.223663	0.068314	0.333343
C105	C	1.556996	0.401647	0.666676
O106	O	0.944864	-0.243956	0.000003
O107	O	1.278198	0.089377	0.333337
O108	O	1.611531	0.422711	0.666670
C109	C	0.887373	-0.466688	0.000005
C110	C	1.220706	-0.133354	0.333338
C111	C	1.554040	0.199979	0.666672
C112	C	0.823332	-0.486008	0.000011
C113	C	1.156665	-0.152675	0.333344
C114	C	1.489999	0.180659	0.666677
C115	C	0.695999	-0.474236	0.000016
C116	C	1.029332	-0.140903	0.333349
C117	C	1.362666	0.192431	0.666683
C118	C	0.695261	-0.524650	0.000020
C119	C	1.028594	-0.191317	0.333354
C120	C	1.361927	0.142016	0.666687
C121	C	0.758558	-0.555744	0.000020
C122	C	1.091891	-0.222410	0.333353
C123	C	1.425225	0.110923	0.666686
C124	C	0.822594	-0.536423	0.000015
C125	C	1.155927	-0.203089	0.333348
C126	C	1.489260	0.130244	0.666682
C127	C	0.950674	-0.497784	-0.000003
C128	C	1.284008	-0.164451	0.333330
C129	C	1.617341	0.168883	0.666664
C130	C	0.949930	-0.548204	-0.000006
C131	C	1.283263	-0.214870	0.333327
C132	C	1.616596	0.118463	0.666661
C133	C	0.885889	-0.567524	-0.000000
C134	C	1.219222	-0.234191	0.333333
C135	C	1.552556	0.099142	0.666666
C136	C	0.885153	-0.617930	0.000019
C137	C	1.218486	-0.284597	0.333352
C138	C	1.551820	0.048736	0.666685
N139	N	0.821116	-0.637254	0.000017
N140	N	1.154450	-0.303920	0.333350
N141	N	1.487783	0.029413	0.666683
C142	C	0.757819	-0.606160	0.000017
C143	C	1.091152	-0.272827	0.333351
C144	C	1.424486	0.060506	0.666684
C145	C	0.891877	-0.159140	0.000013
C146	C	1.225210	0.174193	0.333347
C147	C	1.558543	0.507527	0.666680
C148	C	0.892616	-0.108723	0.000016
C149	C	1.225949	0.224610	0.333349
C150	C	1.559283	0.557943	0.666682
C151	C	0.765277	-0.096953	0.000015
C152	C	1.098610	0.236380	0.333349
C153	C	1.431943	0.569714	0.666682
C154	C	0.764538	-0.147371	0.000018
C155	C	1.097872	0.185963	0.333351
C156	C	1.431205	0.519296	0.666685
C157	C	0.827840	-0.178464	0.000011
C158	C	1.161173	0.154870	0.333345
C159	C	1.494507	0.488203	0.666678
C160	C	0.756273	-0.712035	0.000027
C161	C	1.089607	-0.378701	0.333360
C162	C	1.422940	-0.045368	0.666693
C163	C	0.755541	-0.762454	0.000034
C164	C	1.088874	-0.429121	0.333367
C165	C	1.422207	-0.095787	0.666701
C166	C	0.882880	-0.774220	0.000031
C167	C	1.216213	-0.440887	0.333364
C168	C	1.549546	-0.107553	0.666697
C169	C	0.883613	-0.723805	0.000027
C170	C	1.216946	-0.390472	0.333360
C171	C	1.550279	-0.057138	0.666694
C172	C	0.820304	-0.692713	0.000023
C173	C	1.153637	-0.359380	0.333356
C174	C	1.486971	-0.026046	0.666689
O175	O	0.938887	-0.649047	0.000041
O176	O	1.272220	-0.315713	0.333374
O177	O	1.605553	0.017620	0.666708
O178	O	0.703292	-0.627233	0.000007
O179	O	1.036625	-0.293900	0.333340
O180	O	1.369959	0.039434	0.666674
C181	C	0.760773	-0.404500	0.000007
C182	C	1.094106	-0.071167	0.333340
C183	C	1.427439	0.262166	0.666674
C184	C	0.824808	-0.385179	0.000002
C185	C	1.158142	-0.051846	0.333336
C186	C	1.491475	0.281487	0.666669
C187	C	0.888106	-0.416273	0.000002
C188	C	1.221439	-0.082939	0.333335
C189	C	1.554773	0.250394	0.666668
C190	C	0.825548	-0.334763	0.000005
C191	C	1.158881	-0.001429	0.333338
C192	C	1.492214	0.331904	0.666671
C193	C	0.762250	-0.303669	0.000005
C194	C	1.095584	0.029664	0.333339
C195	C	1.428917	0.362997	0.666672
C196	C	0.698214	-0.322993	0.000004
C197	C	1.031547	0.010341	0.333337
C198	C	1.364880	0.343674	0.666670
C199	C	0.697475	-0.373407	0.000008
C200	C	1.030809	-0.040074	0.333341
C201	C	1.364142	0.293259	0.666674
C202	C	0.952143	-0.396949	0.000003
C203	C	1.285476	-0.063616	0.333337
C204	C	1.618809	0.269718	0.666670
C205	C	0.952876	-0.346534	0.000000
C206	C	1.286209	-0.013201	0.333333
C207	C	1.619542	0.320132	0.666667
C208	C	0.889578	-0.315441	0.000001
C209	C	1.222912	0.017892	0.333334
C210	C	1.556245	0.351226	0.666667
C211	C	0.951769	0.060613	0.000030
C212	C	1.285102	0.393947	0.333364
C213	C	1.618436	0.727280	0.666697
C214	C	1.029268	0.061403	0.000028
C215	C	1.362602	0.394737	0.333361
C216	C	1.695935	0.728070	0.666695
C217	C	0.818035	0.152796	0.000031
C218	C	1.151369	0.486129	0.333365
C219	C	1.484702	0.819462	0.666698
C220	C	0.818838	0.206453	0.000033
C221	C	1.152172	0.539786	0.333367
C222	C	1.485505	0.873119	0.666700
N223	N	0.824055	0.064405	0.189728
N224	N	1.157389	0.397738	0.523062
N225	N	1.490722	0.731072	0.856395
N226	N	0.824107	0.064414	-0.189672
N227	N	1.157441	0.397747	0.143661
N228	N	1.490774	0.731080	0.476994
C229	C	0.871889	0.031460	0.228037
C230	C	1.205222	0.364793	0.561371
C231	C	1.538556	0.698127	0.894704
C232	C	0.871894	0.031458	0.304682
C233	C	1.205227	0.364791	0.638016
C234	C	1.538560	0.698124	0.971349
C235	C	0.824071	0.064409	0.343015
C236	C	1.157404	0.397742	0.676349
C237	C	1.490737	0.731076	1.009682
C238	C	0.776228	0.097357	0.304697
C239	C	1.109561	0.430690	0.638030
C240	C	1.442895	0.764023	0.971364
C241	C	0.776220	0.097355	0.228054
C242	C	1.109554	0.430688	0.561387
C243	C	1.442887	0.764021	0.894720
N244	N	0.814726	0.107199	0.463349
N245	N	1.148059	0.440532	0.796682
N246	N	1.481393	0.773865	1.130016
N247	N	0.814738	0.107199	0.536157
N248	N	1.148071	0.440532	0.869490
N249	N	1.481404	0.773866	1.202824
C250	C	0.824090	0.064416	0.573938
C251	C	1.157424	0.397749	0.907271
C252	C	1.490757	0.731083	1.240604
N253	N	0.833445	0.021631	0.536160
N254	N	1.166778	0.354965	0.869493
N255	N	1.500112	0.688298	1.202826
N256	N	0.833437	0.021631	0.463345
N257	N	1.166770	0.354965	0.796678
N258	N	1.500103	0.688298	1.130011
C259	C	0.824074	0.064414	0.426122
C260	C	1.157407	0.397748	0.759455
C261	C	1.490740	0.731081	1.092789
C262	C	0.871932	0.031466	0.695354
C263	C	1.205265	0.364799	1.028687
C264	C	1.538598	0.698132	1.362020
C265	C	0.871931	0.031463	0.772000
C266	C	1.205265	0.364796	1.105333
C267	C	1.538598	0.698129	1.438667
C268	C	0.776269	0.097366	0.772013
C269	C	1.109602	0.430699	1.105347
C270	C	1.442936	0.764032	1.438680
C271	C	0.776266	0.097365	0.695368
C272	C	1.109599	0.430698	1.028702
C273	C	1.442933	0.764031	1.362035
C274	C	0.824101	0.064415	0.657043
C275	C	1.157434	0.397748	0.990377
C276	C	1.490768	0.731082	1.323710
H277	H	0.036047	0.061486	-0.120394
H278	H	0.369381	0.394819	0.212939
H279	H	0.702714	0.728152	0.546272
H280	H	0.703389	-0.778182	0.000042
H281	H	1.036722	-0.444848	0.333375
H282	H	1.370055	-0.111515	0.666709
Cl283	Cl	0.932020	-0.009964	0.179858
Cl284	Cl	1.265353	0.323370	0.513191
Cl285	Cl	1.598686	0.656703	0.846524
Cl286	Cl	0.463876	0.065833	0.149844
Cl287	Cl	0.797210	0.399166	0.483177
Cl288	Cl	1.130543	0.732500	0.816511
H289	H	0.612133	0.067355	-0.120401
H290	H	0.945467	0.400689	0.212932
H291	H	1.278800	0.734022	0.546266
H292	H	0.612113	0.067342	0.120444
H293	H	0.945446	0.400676	0.453778
H294	H	1.278780	0.734009	0.787111
Cl295	Cl	0.184280	0.063000	-0.149791
Cl296	Cl	0.517614	0.396334	0.183543
Cl297	Cl	0.850947	0.729667	0.516876
Cl298	Cl	0.676684	-0.672955	0.000024
Cl299	Cl	1.010017	-0.339622	0.333357
Cl300	Cl	1.343351	-0.006289	0.666690
H301	H	0.168130	0.062810	0.120447
H302	H	0.501463	0.396144	0.453780
H303	H	0.834797	0.729477	0.787114
H304	H	0.737267	0.124183	0.196862
H305	H	1.070601	0.457516	0.530195
H306	H	1.403934	0.790850	0.863528
Cl307	Cl	0.716133	0.138786	0.647204
Cl308	Cl	1.049466	0.472119	0.980537
Cl309	Cl	1.382799	0.805452	1.313871
Cl310	Cl	0.971465	-0.198222	0.000010
Cl311	Cl	1.304798	0.135111	0.333343
Cl312	Cl	1.638132	0.468445	0.666677
Cl313	Cl	0.019892	0.061291	0.149852
Cl314	Cl	0.353225	0.394624	0.483186
Cl315	Cl	0.686558	0.727958	0.816519
H316	H	0.643112	-0.540376	0.000019
H317	H	0.976445	-0.207043	0.333352
H318	H	1.309779	0.126291	0.666685
Cl319	Cl	0.932063	-0.009959	0.647172
Cl320	Cl	1.265396	0.323374	0.980506
Cl321	Cl	1.598730	0.656708	1.313839
H322	H	0.480030	0.066017	-0.120401
H323	H	0.813363	0.399351	0.212932
H324	H	1.146697	0.732684	0.546266
Cl325	Cl	0.616414	-0.435155	0.000016
Cl326	Cl	0.949747	-0.101822	0.333349
Cl327	Cl	1.283080	0.231511	0.666682
Cl328	Cl	0.684027	-0.171654	0.000023
Cl329	Cl	1.017360	0.161679	0.333356
Cl330	Cl	1.350694	0.495013	0.666690
H331	H	0.713738	-0.071628	0.000019
H332	H	1.047071	0.261705	0.333352
H333	H	1.380404	0.595039	0.666686
Cl334	Cl	0.973128	-0.084441	0.000019
Cl335	Cl	1.306461	0.248892	0.333353
Cl336	Cl	1.639795	0.582226	0.666686
H337	H	0.910881	0.004632	0.803192
H338	H	1.244215	0.337966	1.136525
H339	H	1.577548	0.671299	1.469859
Cl340	Cl	1.031188	-0.473508	-0.000028
Cl341	Cl	1.364522	-0.140175	0.333306
Cl342	Cl	1.697855	0.193159	0.666639
H343	H	1.001479	-0.573518	-0.000015
H344	H	1.334812	-0.240184	0.333318
H345	H	1.668146	0.093149	0.666651
H346	H	0.737328	0.124193	0.803223
H347	H	1.070661	0.457527	1.136557
H348	H	1.403995	0.790860	1.469890
H349	H	0.935760	-0.708074	0.000033
H350	H	1.269093	-0.374740	0.333366
H351	H	1.602427	-0.041407	0.666700
H352	H	0.645327	-0.389133	0.000013
H353	H	0.978660	-0.055800	0.333346
H354	H	1.311993	0.277534	0.666680
H355	H	0.934415	-0.799545	0.000034
H356	H	1.267748	-0.466212	0.333367
H357	H	1.601081	-0.132878	0.666700
H358	H	1.005029	-0.330809	0.000001
H359	H	1.338363	0.002525	0.333335
H360	H	1.671696	0.335858	0.666668
Cl361	Cl	0.618641	-0.283895	0.000007
Cl362	Cl	0.951974	0.049439	0.333340
Cl363	Cl	1.285307	0.382772	0.666673
Cl364	Cl	1.031725	-0.436031	0.000006
Cl365	Cl	1.365059	-0.102698	0.333339
Cl366	Cl	1.698392	0.230636	0.666672
Cl367	Cl	0.932034	-0.009962	0.352850
Cl368	Cl	1.265367	0.323371	0.686184
Cl369	Cl	1.598700	0.656704	1.019517
Cl370	Cl	0.716105	0.138779	0.352885
Cl371	Cl	1.049438	0.472113	0.686218
Cl372	Cl	1.382771	0.805446	1.019552
