data_functionalizedCrystal
_audit_creation_method	'MofGen! by Chris Wilmer'
_symmetry_space_group_name_H-M	'P1'
_symmetry_Int_Tables_number	1
_symmetry_cell_setting	triclinic
loop_
_symmetry_equiv_pos_as_xyz
  x,y,z
_cell_length_a	9.065218
_cell_length_b	12.837942
_cell_length_c	7.540329
_cell_angle_alpha	89.996889
_cell_angle_beta	89.996962
_cell_angle_gamma	89.922413
loop_
_atom_site_label
_atom_site_type_symbol
_atom_site_fract_x
_atom_site_fract_y
_atom_site_fract_z
O1	O	1.978903	0.152196	-0.147486
O2	O	1.551136	0.164680	-0.147489
O3	O	1.755535	0.007446	-0.147477
O4	O	1.774505	0.309430	-0.147498
O5	O	1.755521	0.007444	0.147488
O6	O	1.551123	0.164678	0.147476
O7	O	1.978890	0.152194	0.147479
Cu8	Cu	1.765005	0.158436	0.174410
Cu9	Cu	1.765021	0.158438	-0.174420
O10	O	1.774491	0.309428	0.147467
C11	C	1.495997	0.163479	-0.000007
C12	C	1.331718	0.159892	-0.000007
C13	C	1.749119	-0.031235	0.000005
C14	C	1.730006	-0.146492	0.000002
C15	C	1.959783	-0.385293	-0.000034
C16	C	1.941831	-0.493587	-0.000037
C17	C	1.676152	-0.471377	-0.000020
C18	C	1.694104	-0.363083	-0.000017
C19	C	1.835924	-0.320045	-0.000021
C20	C	1.853874	-0.211748	-0.000006
C21	C	1.588196	-0.189540	-0.000001
C22	C	1.570245	-0.297835	-0.000004
C23	C	2.034029	0.153395	-0.000007
C24	C	2.198308	0.156983	-0.000018
C25	C	1.780907	0.348110	-0.000019
C26	C	1.800020	0.463366	-0.000027
N27	N	1.765004	0.158434	0.419759
N28	N	1.765032	0.158433	-0.419769
H29	H	1.969351	-0.176709	-0.000002
C30	C	2.078078	-0.565361	-0.000043
C31	C	2.190133	-0.559640	0.153119
C32	C	2.326386	-0.631415	0.153110
C33	C	2.350584	-0.708911	-0.000062
C34	C	2.238525	-0.714636	-0.153236
C35	C	2.102272	-0.642861	-0.153227
H36	H	2.172224	-0.502270	0.266517
H37	H	2.409340	-0.627176	0.266501
H38	H	2.451446	-0.762043	-0.000069
H39	H	2.256434	-0.772006	-0.266634
H40	H	2.019318	-0.647099	-0.266617
H41	H	1.560688	-0.506438	-0.000036
C42	C	1.451936	-0.117768	0.000013
C43	C	1.427732	-0.040253	-0.153143
C44	C	1.291474	0.031517	-0.153119
C45	C	1.179422	0.025774	0.000060
C46	C	1.203623	-0.051744	0.153227
C47	C	1.339880	-0.123514	0.153203
H48	H	1.510683	-0.035999	-0.266545
H49	H	1.273560	0.088901	-0.266504
H50	H	1.078556	0.078903	0.000077
H51	H	1.120672	-0.055998	0.266629
H52	H	1.357795	-0.180898	0.266588
H53	H	1.454779	-0.332891	-0.000008
H54	H	2.075258	-0.350251	-0.000020
