data_functionalizedCrystal
_audit_creation_method	'MofGen! by Chris Wilmer'
_symmetry_space_group_name_H-M	'P1'
_symmetry_Int_Tables_number	1
_symmetry_cell_setting	triclinic
loop_
_symmetry_equiv_pos_as_xyz
  x,y,z
_cell_length_a	13.033808
_cell_length_b	16.625545
_cell_length_c	13.033109
_cell_angle_alpha	97.153577
_cell_angle_beta	89.075520
_cell_angle_gamma	97.220097
loop_
_atom_site_label
_atom_site_type_symbol
_atom_site_fract_x
_atom_site_fract_y
_atom_site_fract_z
Zn1	Zn	1.646058	-0.196890	-0.382101
Zn2	Zn	2.146058	0.303110	0.117899
Zn3	Zn	1.624089	-0.317044	-0.210141
Zn4	Zn	2.124089	0.182956	0.289859
Zn5	Zn	1.452242	-0.201231	-0.231953
Zn6	Zn	1.952242	0.298769	0.268047
Zn7	Zn	1.474022	-0.350699	-0.403865
Zn8	Zn	1.974022	0.149301	0.096135
O9	O	1.549103	-0.266466	-0.307015
O10	O	2.049103	0.233534	0.192985
O11	O	1.787060	-0.196927	-0.341053
O12	O	2.287060	0.303073	0.158947
O13	O	1.582983	-0.289413	-0.069123
O14	O	2.082983	0.210587	0.430877
O15	O	1.478031	-0.087817	-0.251890
O16	O	1.978031	0.412183	0.248110
O17	O	1.770919	-0.285204	-0.214715
O18	O	2.270919	0.214796	0.285285
O19	O	1.620427	-0.084627	-0.362203
O20	O	2.120427	0.415373	0.137797
O21	O	1.456728	-0.204326	-0.085148
O22	O	1.956728	0.295674	0.414852
O23	O	1.311215	-0.236959	-0.272994
O24	O	1.811215	0.263041	0.227006
O25	O	1.515152	-0.342564	-0.544890
O26	O	2.015152	0.157436	-0.044890
O27	O	1.327217	-0.346773	-0.399298
O28	O	1.827217	0.153227	0.100702
O29	O	1.641546	-0.229561	-0.528899
O30	O	2.141546	0.270439	-0.028899
O31	O	1.604103	-0.434347	-0.235819
O32	O	2.104103	0.065653	0.264181
O33	O	1.493850	-0.459073	-0.378147
O34	O	1.993850	0.040927	0.121853
C35	C	1.281900	-0.295990	-0.340875
C36	C	1.781900	0.204010	0.159125
C37	C	1.167593	-0.308642	-0.355385
C38	C	1.667593	0.191358	0.144615
C39	C	0.990556	-0.272954	-0.314458
C40	C	1.490556	0.227046	0.185542
C41	C	1.108698	-0.259878	-0.299457
C42	C	1.608698	0.240122	0.200543
C43	C	1.548987	-0.475966	-0.306997
C44	C	2.048987	0.024034	0.193003
C45	C	1.549036	-0.565584	-0.307011
C46	C	2.049036	-0.065584	0.192989
C47	C	1.549078	-0.638364	-0.307027
C48	C	2.049078	-0.138364	0.192973
C49	C	1.549141	-0.729668	-0.307042
C50	C	2.049141	-0.229668	0.192958
C51	C	1.549196	-0.802439	-0.307048
C52	C	2.049196	-0.302439	0.192952
C53	C	1.549257	-0.893749	-0.307062
C54	C	2.049257	-0.393749	0.192938
C55	C	1.817348	-0.236827	-0.273023
C56	C	2.317348	0.263173	0.226977
C57	C	1.931659	-0.224197	-0.258537
C58	C	2.431659	0.275803	0.241463
C59	C	1.583229	-0.289332	-0.575253
C60	C	2.083229	0.210668	-0.075253
C61	C	1.597772	-0.299076	-0.689560
C62	C	2.097772	0.200924	-0.189560
C63	C	1.549250	-0.056146	-0.307052
C64	C	2.049250	0.443854	0.192948
C65	C	1.549312	0.033480	-0.307068
C66	C	2.049312	0.533480	0.192932
C67	C	1.541787	-0.261321	-0.748450
C68	C	2.041787	0.238679	-0.248450
C69	C	1.556817	-0.271391	-0.866593
C70	C	2.056817	0.228609	-0.366593
C71	C	1.515168	-0.243624	-0.039813
C72	C	2.015168	0.256376	0.460187
C73	C	1.500824	-0.233631	0.074518
C74	C	2.000824	0.266369	0.574518
H75	H	1.130558	-0.360070	-0.414369
H76	H	1.630558	0.139930	0.085631
O77	O	1.430220	-0.186275	-0.881369
O78	O	1.930220	0.313725	-0.381369
C79	C	1.251142	-0.163632	-0.870529
C80	C	1.751142	0.336368	-0.370529
C81	C	1.330986	-0.217340	-0.920545
C82	C	1.830986	0.282660	-0.420545
H83	H	1.170897	-0.188717	-0.902198
H84	H	1.670897	0.311283	-0.402198
H85	H	1.251479	-0.163976	-0.783118
H86	H	1.751479	0.336024	-0.283118
H87	H	1.271963	-0.098398	-0.889294
H88	H	1.771963	0.401602	-0.389294
H89	H	1.310222	-0.282598	-0.901860
H90	H	1.810222	0.217402	-0.401860
H91	H	1.330634	-0.216927	-1.007943
H92	H	1.830634	0.283073	-0.507943
H93	H	0.968699	-0.172777	-0.199553
H94	H	1.468699	0.327223	0.300447
H95	H	1.145733	-0.208454	-0.240469
H96	H	1.645733	0.291546	0.259531
H97	H	1.482726	-0.221546	-0.711405
H98	H	1.982726	0.278454	-0.211405
H99	H	0.953515	-0.324380	-0.373434
H100	H	1.453515	0.175620	0.126566
H101	H	1.615877	-0.311174	-0.903634
H102	H	2.115877	0.188826	-0.403634
O103	O	1.668221	-0.346472	-0.733907
O104	O	2.168221	0.153528	-0.233907
C105	C	1.747364	-0.399785	-0.892100
C106	C	2.247364	0.100215	-0.392100
C107	C	1.667558	-0.346071	-0.842014
C108	C	2.167558	0.153929	-0.342014
H109	H	1.746839	-0.399492	-0.979513
H110	H	2.246839	0.100508	-0.479513
H111	H	1.827672	-0.374678	-0.860607
H112	H	2.327672	0.125322	-0.360607
H113	H	1.726609	-0.465003	-0.873255
H114	H	2.226609	0.034997	-0.373255
H115	H	1.688216	-0.280841	-0.860839
H116	H	2.188216	0.219159	-0.360839
H117	H	1.587273	-0.371246	-0.873509
H118	H	2.087273	0.128754	-0.373509
