data_functionalizedCrystal
_audit_creation_method	'MofGen! by Chris Wilmer'
_symmetry_space_group_name_H-M	'P1'
_symmetry_Int_Tables_number	1
_symmetry_cell_setting	triclinic
loop_
_symmetry_equiv_pos_as_xyz
  x,y,z
_cell_length_a	14.044220
_cell_length_b	15.995350
_cell_length_c	12.503572
_cell_angle_alpha	93.525550
_cell_angle_beta	86.164750
_cell_angle_gamma	88.340626
loop_
_atom_site_label
_atom_site_type_symbol
_atom_site_fract_x
_atom_site_fract_y
_atom_site_fract_z
O1	O	1.263165	0.197434	-0.089196
O2	O	1.763165	0.697434	0.410804
O3	O	0.987198	0.190148	-0.089224
O4	O	1.487198	0.690148	0.410776
O5	O	1.132725	0.072467	-0.089208
O6	O	1.632725	0.572467	0.410792
O7	O	1.117638	0.315115	-0.089212
O8	O	1.617638	0.815115	0.410788
O9	O	1.121781	0.081333	0.089432
O10	O	1.621781	0.581333	0.589432
O11	O	0.976253	0.199014	0.089417
O12	O	1.476253	0.699014	0.589417
O13	O	1.252221	0.206300	0.089445
O14	O	1.752221	0.706300	0.589445
Cu15	Cu	1.113237	0.203467	0.105742
Cu16	Cu	1.613237	0.703467	0.605742
Cu17	Cu	1.126181	0.192981	-0.105521
Cu18	Cu	1.626181	0.692981	0.394479
O19	O	1.106693	0.323981	0.089429
O20	O	1.606693	0.823981	0.589429
C21	C	0.946411	0.191392	0.000093
C22	C	1.446411	0.691392	0.500093
C23	C	0.841186	0.181881	0.000082
C24	C	1.341186	0.681881	0.500082
C25	C	0.648523	0.164494	0.000104
C26	C	1.148523	0.664494	0.500104
C27	C	0.590890	0.231950	0.000107
C28	C	1.090890	0.731950	0.500107
C29	C	0.483686	0.222276	0.000119
C30	C	0.983686	0.722276	0.500119
C31	C	0.755737	0.174167	0.000092
C32	C	1.255737	0.674167	0.500092
C33	C	1.126629	0.045658	0.000110
C34	C	1.626629	0.545658	0.500110
C35	C	1.124760	-0.047432	0.000104
C36	C	1.624760	0.452568	0.500104
C37	C	1.118044	-0.385681	0.000107
C38	C	1.618044	0.114319	0.500107
C39	C	1.014426	-0.346008	-0.000304
C40	C	1.514426	0.153992	0.499696
C41	C	1.016272	-0.249158	0.000099
C42	C	1.516272	0.250842	0.500099
C43	C	1.121375	-0.217872	0.000105
C44	C	1.621375	0.282128	0.500105
C45	C	1.166245	-0.250068	0.102120
C46	C	1.666245	0.249932	0.602120
C47	C	1.163636	-0.346894	0.102206
C48	C	1.663636	0.153106	0.602206
C49	C	1.178223	-0.357175	-0.100942
C50	C	1.678223	0.142825	0.399058
C51	C	1.178281	-0.260298	-0.102290
C52	C	1.678281	0.239702	0.397710
C53	C	1.123263	-0.123033	0.000107
C54	C	1.623263	0.376967	0.500107
C55	C	1.116158	-0.480519	0.000111
C56	C	1.616158	0.019481	0.500111
C57	C	1.293007	0.205055	0.000125
C58	C	1.793007	0.705055	0.500125
C59	C	1.398233	0.214567	0.000129
C60	C	1.898233	0.714567	0.500129
C61	C	1.112789	0.350789	0.000108
C62	C	1.612789	0.850789	0.500108
C63	C	1.114659	0.443879	0.000108
C64	C	1.614659	0.943879	0.500108
N65	N	1.104141	0.210842	0.254333
N66	N	1.604141	0.710842	0.754333
N67	N	1.135285	0.185600	-0.254113
N68	N	1.635285	0.685600	0.245887
C69	C	1.090759	0.221698	0.473447
C70	C	1.590759	0.721698	0.973447
C71	C	1.148663	0.174747	0.526780
C72	C	1.648663	0.674747	1.026780
C73	C	1.141218	0.180787	0.648703
C74	C	1.641218	0.680787	1.148703
C75	C	1.098204	0.215658	0.351514
C76	C	1.598204	0.715658	0.851514
H77	H	0.622061	0.296967	0.000101
H78	H	1.122061	0.796967	0.500101
H79	H	1.203829	0.130016	0.480873
H80	H	1.703829	0.630016	0.980873
N81	N	1.274915	-0.234253	-0.110026
N82	N	1.774915	0.265747	0.389974
N83	N	1.330737	-0.261980	-0.186927
N84	N	1.830737	0.238020	0.313073
H85	H	1.398990	-0.243589	-0.192384
H86	H	1.898990	0.256411	0.307616
N87	N	1.111011	-0.368590	0.197867
N88	N	1.611011	0.131410	0.697867
N89	N	1.076460	-0.312255	0.264102
N90	N	1.576460	0.187745	0.764102
H91	H	1.039291	-0.327573	0.331666
H92	H	1.539291	0.172427	0.831666
N93	N	0.609412	0.082941	0.000113
N94	N	1.109412	0.582941	0.500113
N95	N	0.521116	0.075100	0.000121
N96	N	1.021116	0.575100	0.500121
H97	H	0.493482	0.017504	0.000125
H98	H	0.993482	0.517504	0.500125
N99	N	0.971477	-0.221828	-0.091642
N100	N	1.471477	0.278172	0.408358
N101	N	0.938628	-0.274318	-0.156414
N102	N	1.438628	0.225682	0.343586
H103	H	0.906985	-0.255020	-0.221207
H104	H	1.406985	0.244980	0.278793
H105	H	1.035599	0.266427	0.519349
H106	H	1.535599	0.766427	1.019349
H107	H	0.977483	-0.371265	-0.073462
H108	H	1.477483	0.128735	0.426538
H109	H	0.968729	-0.365072	0.072438
H110	H	1.468729	0.134928	0.572438
N111	N	0.959893	-0.213438	0.091989
N112	N	1.459893	0.286562	0.591989
N113	N	0.919063	-0.260044	0.156027
N114	N	1.419063	0.239956	0.656027
H115	H	0.879244	-0.234818	0.220930
H116	H	1.379244	0.265182	0.720930
H117	H	1.254680	-0.383262	-0.101623
H118	H	1.754680	0.116738	0.398377
H119	H	1.239445	-0.373229	0.106839
H120	H	1.739445	0.126771	0.606839
H121	H	1.126089	-0.220570	0.178033
H122	H	1.626089	0.279430	0.678033
N123	N	1.262814	-0.224858	0.106884
N124	N	1.762814	0.275142	0.606884
N125	N	1.281110	-0.148760	0.111383
N126	N	1.781110	0.351240	0.611383
H127	H	1.349312	-0.130952	0.114743
H128	H	1.849312	0.369048	0.614743
N129	N	1.141657	-0.390942	-0.197935
N130	N	1.641657	0.109058	0.302065
N131	N	1.070790	-0.436434	-0.193759
N132	N	1.570790	0.063566	0.306241
H133	H	1.044957	-0.460286	-0.262255
H134	H	1.544957	0.039714	0.237745
N135	N	1.137247	-0.234247	-0.196962
N136	N	1.637247	0.265753	0.303038
N137	N	1.066361	-0.184620	-0.189134
N138	N	1.566361	0.315380	0.310866
H139	H	1.037377	-0.166217	-0.255994
H140	H	1.537377	0.333783	0.244006
