data_functionalizedCrystal
_audit_creation_method	'MofGen! by Chris Wilmer'
_symmetry_space_group_name_H-M	'P1'
_symmetry_Int_Tables_number	1
_symmetry_cell_setting	triclinic
loop_
_symmetry_equiv_pos_as_xyz
  x,y,z
_cell_length_a	21.395362
_cell_length_b	21.395361
_cell_length_c	21.395356
_cell_angle_alpha	90.030681
_cell_angle_beta	89.957023
_cell_angle_gamma	89.953415
loop_
_atom_site_label
_atom_site_type_symbol
_atom_site_fract_x
_atom_site_fract_y
_atom_site_fract_z
Zn1	Zn	0.957854	0.249189	-0.354573
Zn2	Zn	1.291187	0.582522	-0.021239
Zn3	Zn	1.624520	0.915855	0.312094
Zn4	Zn	0.957758	0.353965	-0.249790
Zn5	Zn	1.291091	0.687299	0.083544
Zn6	Zn	1.624424	1.020632	0.416877
Zn7	Zn	0.853070	0.249235	-0.249774
Zn8	Zn	1.186404	0.582568	0.083559
Zn9	Zn	1.519737	0.915901	0.416893
Zn10	Zn	0.853038	0.353962	-0.354494
Zn11	Zn	1.186371	0.687295	-0.021161
Zn12	Zn	1.519704	1.020628	0.312172
O13	O	0.905430	0.301588	-0.302158
O14	O	1.238763	0.634921	0.031176
O15	O	1.572097	0.968254	0.364509
O16	O	1.045519	0.263070	-0.340712
O17	O	1.378852	0.596403	-0.007379
O18	O	1.712185	0.929737	0.325954
O19	O	0.943844	0.340094	-0.162110
O20	O	1.277178	0.673427	0.171224
O21	O	1.610511	1.006760	0.504557
O22	O	0.867024	0.161551	-0.263702
O23	O	1.200357	0.494884	0.069632
O24	O	1.533690	0.828217	0.402965
O25	O	1.045448	0.340049	-0.263729
O26	O	1.378782	0.673382	0.069605
O27	O	1.712115	1.006716	0.402938
O28	O	0.944008	0.161517	-0.340697
O29	O	1.277341	0.494850	-0.007364
O30	O	1.610674	0.828184	0.325970
O31	O	0.866931	0.263148	-0.162098
O32	O	1.200264	0.596482	0.171235
O33	O	1.533598	0.929815	0.504569
O34	O	0.765388	0.263145	-0.263626
O35	O	1.098721	0.596478	0.069707
O36	O	1.432055	0.929811	0.403041
O37	O	0.866968	0.340042	-0.442183
O38	O	1.200302	0.673376	-0.108849
O39	O	1.533635	1.006709	0.224484
O40	O	0.765364	0.340087	-0.340564
O41	O	1.098697	0.673420	-0.007230
O42	O	1.432031	1.006754	0.326103
O43	O	0.943976	0.263066	-0.442240
O44	O	1.277309	0.596400	-0.108907
O45	O	1.610643	0.929733	0.224427
O46	O	0.943813	0.441643	-0.263653
O47	O	1.277146	0.774976	0.069681
O48	O	1.610479	1.108310	0.403014
O49	O	0.866875	0.441640	-0.340579
O50	O	1.200209	0.774973	-0.007246
O51	O	1.533542	1.108307	0.326088
C52	C	0.905347	0.464375	-0.302123
C53	C	1.238680	0.797709	0.031211
C54	C	1.572014	1.131042	0.364544
C55	C	0.905369	0.534017	-0.302129
C56	C	1.238702	0.867350	0.031205
C57	C	1.572036	1.200683	0.364538
C58	C	0.742642	0.301621	-0.302085
C59	C	1.075975	0.634954	0.031248
C60	C	1.409309	0.968287	0.364582
C61	C	0.673001	0.301650	-0.302069
C62	C	1.006334	0.634983	0.031265
C63	C	1.339668	0.968317	0.364598
C64	C	0.905479	0.301549	-0.465581
C65	C	1.238812	0.634882	-0.132248
C66	C	1.572146	0.968215	0.201086
C67	C	0.905500	0.301532	-0.535222
C68	C	1.238833	0.634866	-0.201889
C69	C	1.572167	0.968199	0.131444
C70	C	0.640292	0.341767	-0.342070
C71	C	0.973625	0.675100	-0.008737
C72	C	1.306958	1.008434	0.324597
C73	C	0.574856	0.341752	-0.342098
C74	C	0.908190	0.675085	-0.008765
C75	C	1.241523	1.008418	0.324569
C76	C	0.542133	0.301626	-0.302113
C77	C	0.875466	0.634959	0.031220
C78	C	1.208799	0.968293	0.364553
C79	C	0.574850	0.261501	-0.262109
C80	C	0.908183	0.594834	0.071224
C81	C	1.241516	0.928168	0.404558
C82	C	0.640284	0.261513	-0.262087
C83	C	0.973617	0.594847	0.071247
C84	C	1.306950	0.928180	0.404580
C85	C	0.438409	0.296587	-0.245708
C86	C	0.771742	0.629921	0.087625
C87	C	1.105075	0.963254	0.420958
C88	C	0.372976	0.296580	-0.245730
C89	C	0.706309	0.629913	0.087604
C90	C	1.039643	0.963246	0.420937
C91	C	0.340312	0.301585	-0.302182
C92	C	0.673645	0.634918	0.031151
C93	C	1.006979	0.968252	0.364484
C94	C	0.373089	0.306611	-0.358616
C95	C	0.706422	0.639944	-0.025283
C96	C	1.039756	0.973278	0.308051
C97	C	0.438523	0.306623	-0.358594
C98	C	0.771856	0.639957	-0.025260
C99	C	1.105190	0.973290	0.308073
C100	C	0.471180	0.301608	-0.302133
C101	C	0.804514	0.634941	0.031200
C102	C	1.137847	0.968275	0.364533
C103	C	0.236650	0.341687	-0.342218
C104	C	0.569984	0.675021	-0.008884
C105	C	0.903317	1.008354	0.324449
C106	C	0.171214	0.341668	-0.342247
C107	C	0.504547	0.675001	-0.008913
C108	C	0.837880	1.008334	0.324420
C109	C	0.171208	0.261421	-0.262252
C110	C	0.504542	0.594754	0.071081
C111	C	0.837875	0.928087	0.404415
C112	C	0.236644	0.261437	-0.262229
C113	C	0.569977	0.594770	0.071105
C114	C	0.903310	0.928104	0.404438
C115	C	0.269361	0.301574	-0.302211
C116	C	0.602694	0.634907	0.031123
C117	C	0.936027	0.968240	0.364456
C118	C	1.068853	0.301555	-0.302231
C119	C	1.402186	0.634888	0.031102
C120	C	1.735520	0.968221	0.364436
C121	C	1.138494	0.301541	-0.302262
C122	C	1.471828	0.634874	0.031071
C123	C	1.805161	0.968208	0.364404
C124	C	0.905530	0.138164	-0.302206
C125	C	1.238863	0.471498	0.031127
C126	C	1.572197	0.804831	0.364460
C127	C	0.905573	0.068523	-0.302227
C128	C	1.238906	0.401856	0.031106
C129	C	1.572239	0.735190	0.364440
C130	C	0.945466	0.566710	-0.262114
C131	C	1.278799	0.900044	0.071219
C132	C	1.612133	1.233377	0.404552
C133	C	0.945495	0.632146	-0.262128
C134	C	1.278828	0.965479	0.071205
C135	C	1.612162	1.298812	0.404538
C136	C	0.905416	0.664885	-0.302150
C137	C	1.238749	0.998218	0.031183
C138	C	1.572083	1.331552	0.364516
C139	C	0.865317	0.632183	-0.342172
C140	C	1.198650	0.965516	-0.008839
C141	C	1.531983	1.298850	0.324494
C142	C	0.865293	0.566749	-0.342162
C143	C	1.198626	0.900082	-0.008828
C144	C	1.531960	1.233416	0.324505
C145	C	0.849001	0.768615	-0.307041
C146	C	1.182335	1.101948	0.026292
C147	C	1.515668	1.435282	0.359626
C148	C	0.849024	0.834048	-0.307047
C149	C	1.182357	1.167381	0.026286
C150	C	1.515691	1.500714	0.359619
C151	C	0.905489	0.866706	-0.302187
C152	C	1.238822	1.200039	0.031146
C153	C	1.572156	1.533372	0.364480
C154	C	0.961934	0.833922	-0.297307
C155	C	1.295267	1.167256	0.036026
C156	C	1.628600	1.500589	0.369360
C157	C	0.961910	0.768488	-0.297296
C158	C	1.295243	1.101821	0.036037
C159	C	1.628577	1.435155	0.369370
C160	C	0.905438	0.735837	-0.302167
C161	C	1.238771	1.069171	0.031167
C162	C	1.572104	1.402504	0.364500
C163	C	0.945621	0.970352	-0.262186
C164	C	1.278954	1.303685	0.071148
C165	C	1.612288	1.637018	0.404481
C166	C	0.945651	1.035788	-0.262204
C167	C	1.278984	1.369122	0.071129
C168	C	1.612318	1.702455	0.404463
C169	C	0.865467	1.035825	-0.342245
C170	C	1.198800	1.369158	-0.008912
C171	C	1.532134	1.702491	0.324422
C172	C	0.865442	0.970389	-0.342230
C173	C	1.198776	1.303723	-0.008896
C174	C	1.532109	1.637056	0.324437
C175	C	0.905519	0.937657	-0.302197
C176	C	1.238852	1.270990	0.031137
C177	C	1.572185	1.604323	0.364470
C178	C	0.865462	0.261462	-0.567919
C179	C	1.198795	0.594796	-0.234586
C180	C	1.532129	0.928129	0.098747
C181	C	0.865460	0.261451	-0.633355
C182	C	1.198793	0.594784	-0.300022
C183	C	1.532127	0.928117	0.033312
C184	C	0.905507	0.301502	-0.666091
C185	C	1.238840	0.634836	-0.332757
C186	C	1.572174	0.968169	0.000576
C187	C	0.945548	0.341580	-0.633385
C188	C	1.278881	0.674913	-0.300052
C189	C	1.612215	1.008247	0.033281
C190	C	0.945545	0.341595	-0.567951
C191	C	1.278878	0.674928	-0.234618
C192	C	1.612211	1.008262	0.098715
C193	C	0.961959	0.306413	-0.769796
C194	C	1.295292	0.639746	-0.436462
C195	C	1.628626	0.973079	-0.103129
C196	C	0.961964	0.306393	-0.835229
C197	C	1.295297	0.639727	-0.501895
C198	C	1.628630	0.973060	-0.168562
C199	C	0.905517	0.301460	-0.867911
C200	C	1.238851	0.634793	-0.534578
C201	C	1.572184	0.968127	-0.201245
C202	C	0.849065	0.296533	-0.835153
C203	C	1.182398	0.629866	-0.501820
C204	C	1.515732	0.963200	-0.168486
C205	C	0.849061	0.296548	-0.769719
C206	C	1.182395	0.629881	-0.436386
C207	C	1.515728	0.963215	-0.103052
C208	C	0.905515	0.301491	-0.737043
C209	C	1.238848	0.634824	-0.403710
C210	C	1.572182	0.968158	-0.070376
C211	C	0.865474	0.261376	-0.971561
C212	C	1.198807	0.594709	-0.638228
C213	C	1.532140	0.928042	-0.304895
C214	C	0.865470	0.261368	-1.036998
C215	C	1.198804	0.594702	-0.703665
C216	C	1.532137	0.928035	-0.370331
C217	C	0.945564	0.341494	-1.037027
C218	C	1.278897	0.674828	-0.703694
C219	C	1.612231	1.008161	-0.370361
C220	C	0.945562	0.341505	-0.971592
C221	C	1.278895	0.674838	-0.638259
C222	C	1.612228	1.008172	-0.304925
C223	C	0.905517	0.301442	-0.938863
C224	C	1.238851	0.634775	-0.605529
C225	C	1.572184	0.968109	-0.272196
C226	C	0.905417	0.301581	-0.139370
C227	C	1.238750	0.634914	0.193963
C228	C	1.572083	0.968248	0.527297
C229	C	0.905517	0.301421	-0.069729
C230	C	1.238851	0.634754	0.263604
C231	C	1.572184	0.968088	0.596938
H232	H	0.666926	0.374449	-0.374627
H233	H	1.000259	0.707782	-0.041294
H234	H	1.333593	1.041115	0.292039
H235	H	0.832857	0.228818	-0.659982
H236	H	1.166190	0.562151	-0.326649
H237	H	1.499524	0.895485	0.006684
H238	H	1.007868	0.741798	-0.293325
H239	H	1.341202	1.075131	0.040009
H240	H	1.674535	1.408464	0.373342
H241	H	0.548202	0.228829	-0.229554
H242	H	0.881535	0.562163	0.103779
H243	H	1.214869	0.895496	0.437112
Cl244	Cl	1.032927	0.312620	-0.728716
Cl245	Cl	1.366260	0.645953	-0.395383
Cl246	Cl	1.699593	0.979286	-0.062049
H247	H	0.832862	0.228741	-1.063619
H248	H	1.166195	0.562074	-0.730286
H249	H	1.499529	0.895407	-0.396952
H250	H	0.832789	0.943768	-0.374811
H251	H	1.166123	1.277102	-0.041477
H252	H	1.499456	1.610435	0.291856
Cl253	Cl	0.995890	0.391934	-0.674538
Cl254	Cl	1.329223	0.725267	-0.341205
Cl255	Cl	1.662557	1.058601	-0.007871
Cl256	Cl	0.815117	0.211101	-0.526778
Cl257	Cl	1.148451	0.544434	-0.193444
Cl258	Cl	1.481784	0.877768	0.139889
H259	H	0.803101	0.292511	-0.861762
H260	H	1.136435	0.625845	-0.528429
H261	H	1.469768	0.959178	-0.195095
H262	H	0.803063	0.860735	-0.311015
H263	H	1.136396	1.194068	0.022319
H264	H	1.469730	1.527402	0.355652
H265	H	0.803017	0.742031	-0.311001
H266	H	1.136350	1.075365	0.022332
H267	H	1.469684	1.408698	0.355665
Cl268	Cl	0.814935	0.673340	-0.392489
Cl269	Cl	1.148268	1.006673	-0.059155
Cl270	Cl	1.481601	1.340007	0.274178
Cl271	Cl	0.479465	0.290297	-0.174732
Cl272	Cl	0.812798	0.623631	0.158602
Cl273	Cl	1.146132	0.956964	0.491935
H274	H	0.832641	0.540129	-0.374747
H275	H	1.165974	0.873462	-0.041414
H276	H	1.499307	1.206796	0.291920
H277	H	0.978255	0.943700	-0.229590
H278	H	1.311589	1.277033	0.103743
H279	H	1.644922	1.610367	0.437076
Cl280	Cl	0.332033	0.312900	-0.429591
Cl281	Cl	0.665367	0.646233	-0.096257
Cl282	Cl	0.998700	0.979567	0.237076
H283	H	0.978173	0.374104	-1.063680
H284	H	1.311506	0.707437	-0.730347
H285	H	1.644839	1.040771	-0.397013
Cl286	Cl	0.995903	0.391877	-0.930484
Cl287	Cl	1.329236	0.725210	-0.597151
Cl288	Cl	1.662569	1.058544	-0.263818
H289	H	0.263290	0.374366	-0.374776
H290	H	0.596623	0.707699	-0.041443
H291	H	0.929957	1.041033	0.291890
Cl292	Cl	0.331777	0.290261	-0.174786
Cl293	Cl	0.665111	0.623594	0.158547
Cl294	Cl	0.998444	0.956927	0.491881
Cl295	Cl	0.778096	0.290358	-0.728539
Cl296	Cl	1.111430	0.623692	-0.395206
Cl297	Cl	1.444763	0.957025	-0.061872
H298	H	0.832867	0.228755	-0.944912
H299	H	1.166200	0.562088	-0.611579
H300	H	1.499533	0.895421	-0.278245
H301	H	1.007931	0.310402	-0.861896
H302	H	1.341264	0.643736	-0.528562
H303	H	1.674597	0.977069	-0.195229
H304	H	1.007913	0.860511	-0.293349
H305	H	1.341246	1.193844	0.039984
H306	H	1.674580	1.527177	0.373317
Cl307	Cl	0.996068	1.076890	-0.211900
Cl308	Cl	1.329401	1.410223	0.121433
Cl309	Cl	1.662735	1.743557	0.454767
Cl310	Cl	0.995884	0.391972	-0.526844
Cl311	Cl	1.329217	0.725305	-0.193511
Cl312	Cl	1.662550	1.058638	0.139823
H313	H	0.465207	0.310714	-0.404543
H314	H	0.798541	0.644047	-0.071210
H315	H	1.131874	0.977380	0.262123
Cl316	Cl	0.533727	0.392189	-0.392389
Cl317	Cl	0.867061	0.725522	-0.059056
Cl318	Cl	1.200394	1.058855	0.274277
Cl319	Cl	0.130093	0.392102	-0.392543
Cl320	Cl	0.463426	0.725435	-0.059209
Cl321	Cl	0.796759	1.058769	0.274124
H322	H	0.144565	0.228746	-0.229699
H323	H	0.477899	0.562080	0.103635
H324	H	0.811232	0.895413	0.436968
Cl325	Cl	0.277766	0.211003	-0.211936
Cl326	Cl	0.611099	0.544336	0.121397
Cl327	Cl	0.944433	0.877670	0.454730
Cl328	Cl	0.815086	1.076976	-0.392563
Cl329	Cl	1.148419	1.410310	-0.059230
Cl330	Cl	1.481753	1.743643	0.274104
H331	H	0.666915	0.228843	-0.229513
H332	H	1.000249	0.562177	0.103821
H333	H	1.333582	0.895510	0.437154
H334	H	0.978100	0.540061	-0.229519
H335	H	1.311433	0.873395	0.103815
H336	H	1.644766	1.206728	0.437148
Cl337	Cl	0.995905	0.673255	-0.211820
Cl338	Cl	1.329238	1.006589	0.121514
Cl339	Cl	1.662572	1.339922	0.454847
