data_functionalizedCrystal
_audit_creation_method	'MofGen! by Chris Wilmer'
_symmetry_space_group_name_H-M	'P1'
_symmetry_Int_Tables_number	1
_symmetry_cell_setting	triclinic
loop_
_symmetry_equiv_pos_as_xyz
  x,y,z
_cell_length_a	15.995292
_cell_length_b	23.532357
_cell_length_c	22.610064
_cell_angle_alpha	90.001483
_cell_angle_beta	90.009403
_cell_angle_gamma	83.148454
loop_
_atom_site_label
_atom_site_type_symbol
_atom_site_fract_x
_atom_site_fract_y
_atom_site_fract_z
O1	O	1.110393	0.073244	0.049208
O2	O	1.360393	0.323244	0.299208
O3	O	1.610393	0.573244	0.549208
O4	O	1.860393	0.823244	0.799208
O5	O	0.866533	0.082344	0.049206
O6	O	1.116533	0.332344	0.299206
O7	O	1.366533	0.582344	0.549206
O8	O	1.616533	0.832344	0.799206
O9	O	0.995839	-0.005113	0.049195
O10	O	1.245839	0.244887	0.299195
O11	O	1.495839	0.494887	0.549195
O12	O	1.745839	0.744887	0.799195
O13	O	0.981088	0.160700	0.049219
O14	O	1.231088	0.410700	0.299219
O15	O	1.481088	0.660700	0.549219
O16	O	1.731088	0.910700	0.799219
O17	O	0.995816	-0.005100	-0.049174
O18	O	1.245816	0.244900	0.200826
O19	O	1.495816	0.494900	0.450826
O20	O	1.745816	0.744900	0.700826
O21	O	0.866510	0.082356	-0.049163
O22	O	1.116510	0.332356	0.200837
O23	O	1.366510	0.582356	0.450837
O24	O	1.616510	0.832356	0.700837
O25	O	1.110370	0.073257	-0.049161
O26	O	1.360370	0.323257	0.200839
O27	O	1.610370	0.573257	0.450839
O28	O	1.860370	0.823257	0.700839
Zn29	Zn	0.988437	0.077809	-0.064780
Zn30	Zn	1.238437	0.327809	0.185220
Zn31	Zn	1.488437	0.577809	0.435220
Zn32	Zn	1.738437	0.827809	0.685220
Zn33	Zn	0.988467	0.077792	0.064825
Zn34	Zn	1.238467	0.327792	0.314825
Zn35	Zn	1.488467	0.577792	0.564825
Zn36	Zn	1.738467	0.827792	0.814825
O37	O	0.981065	0.160713	-0.049150
O38	O	1.231065	0.410713	0.200850
O39	O	1.481065	0.660713	0.450850
O40	O	1.731065	0.910713	0.700850
C41	C	0.835329	0.081980	0.000022
C42	C	1.085329	0.331980	0.250022
C43	C	1.335329	0.581980	0.500022
C44	C	1.585329	0.831980	0.750022
C45	C	0.742386	0.080869	0.000020
C46	C	0.992386	0.330869	0.250020
C47	C	1.242386	0.580869	0.500020
C48	C	1.492386	0.830869	0.750020
C49	C	0.404682	0.076787	0.000027
C50	C	0.654682	0.326787	0.250027
C51	C	0.904682	0.576787	0.500027
C52	C	1.154682	0.826787	0.750027
C53	C	0.427453	0.139911	0.000255
C54	C	0.677453	0.389911	0.250255
C55	C	0.927453	0.639911	0.500255
C56	C	1.177453	0.889911	0.750255
C57	C	0.524118	0.141111	0.000031
C58	C	0.774118	0.391111	0.250031
C59	C	1.024118	0.641111	0.500031
C60	C	1.274118	0.891111	0.750031
C61	C	0.572221	0.078813	0.000024
C62	C	0.822221	0.328813	0.250024
C63	C	1.072221	0.578813	0.500024
C64	C	1.322221	0.828813	0.750024
C65	C	0.543377	0.047261	-0.056152
C66	C	0.793377	0.297261	0.193848
C67	C	1.043377	0.547261	0.443848
C68	C	1.293377	0.797261	0.693848
C69	C	0.446593	0.046502	-0.056197
C70	C	0.696593	0.296502	0.193803
C71	C	0.946593	0.546502	0.443803
C72	C	1.196593	0.796502	0.693803
C73	C	0.446775	0.045198	0.055667
C74	C	0.696775	0.295198	0.305667
C75	C	0.946775	0.545198	0.555667
C76	C	1.196775	0.795198	0.805667
C77	C	0.543247	0.047537	0.056407
C78	C	0.793247	0.297537	0.306407
C79	C	1.043247	0.547537	0.556407
C80	C	1.293247	0.797537	0.806407
C81	C	0.666907	0.079954	0.000020
C82	C	0.916907	0.329954	0.250020
C83	C	1.166907	0.579954	0.500020
C84	C	1.416907	0.829954	0.750020
C85	C	0.309997	0.075644	0.000026
C86	C	0.559997	0.325644	0.250026
C87	C	0.809997	0.575644	0.500026
C88	C	1.059997	0.825644	0.750026
C89	C	0.995458	-0.026324	0.000009
C90	C	1.245458	0.223676	0.250009
C91	C	1.495458	0.473676	0.500009
C92	C	1.745458	0.723676	0.750009
C93	C	0.994349	-0.089547	0.000003
C94	C	1.244349	0.160453	0.250003
C95	C	1.494349	0.410453	0.500003
C96	C	1.744349	0.660453	0.750003
C97	C	0.987397	-0.481591	0.053656
C98	C	1.237397	-0.231591	0.303656
C99	C	1.487397	0.018409	0.553656
C100	C	1.737397	0.268409	0.803656
C101	C	0.986343	-0.540994	0.053659
C102	C	1.236343	-0.290994	0.303659
C103	C	1.486343	-0.040994	0.553659
C104	C	1.736343	0.209006	0.803659
O105	O	0.985780	-0.571719	0.099262
O106	O	1.235780	-0.321719	0.349262
O107	O	1.485780	-0.071719	0.599262
O108	O	1.735780	0.178281	0.849262
N109	N	0.985807	-0.570700	0.000039
N110	N	1.235807	-0.320700	0.250039
N111	N	1.485807	-0.070700	0.500039
N112	N	1.735807	0.179300	0.750039
C113	C	0.986318	-0.540999	-0.053588
C114	C	1.236318	-0.290999	0.196412
C115	C	1.486318	-0.040999	0.446412
C116	C	1.736318	0.209001	0.696412
O117	O	0.985765	-0.571721	-0.099196
O118	O	1.235765	-0.321721	0.150804
O119	O	1.485765	-0.071721	0.400804
O120	O	1.735765	0.178279	0.650804
C121	C	0.987366	-0.481597	-0.053591
C122	C	1.237366	-0.231597	0.196409
C123	C	1.487366	0.018403	0.446409
C124	C	1.737366	0.268403	0.696409
C125	C	0.987910	-0.451894	0.000033
C126	C	1.237910	-0.201894	0.250033
C127	C	1.487910	0.048106	0.500033
C128	C	1.737910	0.298106	0.750033
C129	C	0.987940	-0.451888	0.107275
C130	C	1.237940	-0.201888	0.357275
C131	C	1.487940	0.048112	0.607275
C132	C	1.737940	0.298112	0.857275
C133	C	0.988996	-0.392489	0.107272
C134	C	1.238996	-0.142489	0.357272
C135	C	1.488996	0.107511	0.607272
C136	C	1.738996	0.357511	0.857272
C137	C	0.989509	-0.362793	0.053649
C138	C	1.239509	-0.112793	0.303649
C139	C	1.489509	0.137207	0.553649
C140	C	1.739509	0.387207	0.803649
C141	C	0.988966	-0.392495	0.000029
C142	C	1.238966	-0.142495	0.250029
C143	C	1.488966	0.107505	0.500029
C144	C	1.738966	0.357505	0.750029
C145	C	0.987871	-0.451896	-0.107217
C146	C	1.237871	-0.201896	0.142783
C147	C	1.487871	0.048104	0.392783
C148	C	1.737871	0.298104	0.642783
C149	C	0.988919	-0.392489	-0.107216
C150	C	1.238919	-0.142489	0.142784
C151	C	1.488919	0.107511	0.392784
C152	C	1.738919	0.357511	0.642784
C153	C	0.989463	-0.362787	-0.053592
C154	C	1.239463	-0.112787	0.196408
C155	C	1.489463	0.137213	0.446408
C156	C	1.739463	0.387213	0.696408
C157	C	0.990535	-0.303399	-0.053597
C158	C	1.240535	-0.053399	0.196403
C159	C	1.490535	0.196601	0.446403
C160	C	1.740535	0.446601	0.696403
N161	N	0.991071	-0.273693	0.000023
N162	N	1.241071	-0.023693	0.250023
N163	N	1.491071	0.226307	0.500023
N164	N	1.741071	0.476307	0.750023
C165	C	0.990558	-0.303390	0.053646
C166	C	1.240558	-0.053390	0.303646
C167	C	1.490558	0.196610	0.553646
C168	C	1.740558	0.446610	0.803646
C169	C	0.984115	-0.665749	-0.053578
C170	C	1.234115	-0.415749	0.196422
C171	C	1.484115	-0.165749	0.446422
C172	C	1.734115	0.084251	0.696422
C173	C	0.983072	-0.725151	-0.053576
C174	C	1.233072	-0.475151	0.196424
C175	C	1.483072	-0.225151	0.446424
C176	C	1.733072	0.024849	0.696424
C177	C	0.983095	-0.725142	0.053672
C178	C	1.233095	-0.475142	0.303672
C179	C	1.483095	-0.225142	0.553672
C180	C	1.733095	0.024858	0.803672
C181	C	0.984144	-0.665739	0.053669
C182	C	1.234144	-0.415739	0.303669
C183	C	1.484144	-0.165739	0.553669
C184	C	1.734144	0.084261	0.803669
C185	C	0.984650	-0.636043	0.000042
C186	C	1.234650	-0.386043	0.250042
C187	C	1.484650	-0.136043	0.500042
C188	C	1.734650	0.113957	0.750042
C189	C	0.992776	-0.178647	0.053634
C190	C	1.242776	0.071353	0.303634
C191	C	1.492776	0.321353	0.553634
C192	C	1.742776	0.571353	0.803634
C193	C	0.993836	-0.119243	0.053626
C194	C	1.243836	0.130757	0.303626
C195	C	1.493836	0.380757	0.553626
C196	C	1.743836	0.630757	0.803626
C197	C	0.993808	-0.119258	-0.053621
C198	C	1.243808	0.130742	0.196379
C199	C	1.493808	0.380742	0.446379
C200	C	1.743808	0.630742	0.696379
C201	C	0.992753	-0.178657	-0.053613
C202	C	1.242753	0.071343	0.196387
C203	C	1.492753	0.321343	0.446387
C204	C	1.742753	0.571343	0.696387
C205	C	0.992234	-0.208350	0.000019
C206	C	1.242234	0.041650	0.250019
C207	C	1.492234	0.291650	0.500019
C208	C	1.742234	0.541650	0.750019
O209	O	0.991096	-0.272637	-0.099177
O210	O	1.241096	-0.022637	0.150823
O211	O	1.491096	0.227363	0.400823
O212	O	1.741096	0.477363	0.650823
O213	O	0.991100	-0.272660	0.099246
O214	O	1.241100	-0.022660	0.349246
O215	O	1.491100	0.227340	0.599246
O216	O	1.741100	0.477340	0.849246
C217	C	1.141574	0.073621	0.000025
C218	C	1.391574	0.323621	0.250025
C219	C	1.641574	0.573621	0.500025
C220	C	1.891574	0.823621	0.750025
C221	C	1.234518	0.074731	0.000030
C222	C	1.484518	0.324731	0.250030
C223	C	1.734518	0.574731	0.500030
C224	C	1.984518	0.824731	0.750030
C225	C	0.981445	0.181925	0.000038
C226	C	1.231445	0.431925	0.250038
C227	C	1.481445	0.681925	0.500038
C228	C	1.731445	0.931925	0.750038
C229	C	0.982555	0.245147	0.000047
C230	C	1.232555	0.495147	0.250047
C231	C	1.482555	0.745147	0.500047
C232	C	1.732555	0.995147	0.750047
N233	N	0.988422	0.077820	-0.153233
N234	N	1.238422	0.327820	0.096767
N235	N	1.488422	0.577820	0.346767
N236	N	1.738422	0.827820	0.596767
C237	C	1.045726	0.039072	-0.561879
C238	C	1.295726	0.289072	-0.311879
C239	C	1.545726	0.539072	-0.061879
C240	C	1.795726	0.789072	0.188121
C241	C	1.045730	0.039068	-0.623799
C242	C	1.295730	0.289068	-0.373799
C243	C	1.545730	0.539068	-0.123799
C244	C	1.795730	0.789068	0.126201
O245	O	1.094416	0.006132	-0.655822
O246	O	1.344416	0.256132	-0.405822
O247	O	1.594416	0.506132	-0.155822
O248	O	1.844416	0.756132	0.094178
N249	N	0.988466	0.077780	-0.654770
N250	N	1.238466	0.327780	-0.404770
N251	N	1.488466	0.577780	-0.154770
N252	N	1.738466	0.827780	0.095230
C253	C	0.931189	0.116495	-0.623818
C254	C	1.181189	0.366495	-0.373818
C255	C	1.431189	0.616495	-0.123818
C256	C	1.681189	0.866495	0.126182
O257	O	0.882481	0.149422	-0.655846
O258	O	1.132481	0.399422	-0.405846
O259	O	1.382481	0.649422	-0.155846
O260	O	1.632481	0.899422	0.094154
C261	C	0.931181	0.116496	-0.561899
C262	C	1.181181	0.366496	-0.311899
C263	C	1.431181	0.616496	-0.061899
C264	C	1.681181	0.866496	0.188101
C265	C	0.988454	0.077785	-0.530931
C266	C	1.238454	0.327785	-0.280931
C267	C	1.488454	0.577785	-0.030931
C268	C	1.738454	0.827785	0.219069
C269	C	1.102994	0.000364	-0.530911
C270	C	1.352994	0.250364	-0.280911
C271	C	1.602994	0.500364	-0.030911
C272	C	1.852994	0.750364	0.219089
C273	C	1.102990	0.000369	-0.468996
C274	C	1.352990	0.250369	-0.218996
C275	C	1.602990	0.500369	0.031004
C276	C	1.852990	0.750369	0.281004
C277	C	1.045719	0.039082	-0.438048
C278	C	1.295719	0.289082	-0.188048
C279	C	1.545719	0.539082	0.061952
C280	C	1.795719	0.789082	0.311952
C281	C	0.988451	0.077790	-0.469016
C282	C	1.238451	0.327790	-0.219016
C283	C	1.488451	0.577790	0.030984
C284	C	1.738451	0.827790	0.280984
C285	C	0.873900	0.155207	-0.530948
C286	C	1.123900	0.405207	-0.280948
C287	C	1.373900	0.655207	-0.030948
C288	C	1.623900	0.905207	0.219052
C289	C	0.873897	0.155205	-0.469025
C290	C	1.123897	0.405205	-0.219025
C291	C	1.373897	0.655205	0.030975
C292	C	1.623897	0.905205	0.280975
C293	C	0.931170	0.116494	-0.438057
C294	C	1.181170	0.366494	-0.188057
C295	C	1.431170	0.616494	0.061943
C296	C	1.681170	0.866494	0.311943
C297	C	0.931176	0.116508	-0.376152
C298	C	1.181176	0.366508	-0.126152
C299	C	1.431176	0.616508	0.123848
C300	C	1.681176	0.866508	0.373848
N301	N	0.988440	0.077796	-0.345181
N302	N	1.238440	0.327796	-0.095181
N303	N	1.488440	0.577796	0.154819
N304	N	1.738440	0.827796	0.404819
C305	C	1.045711	0.039083	-0.376129
C306	C	1.295711	0.289083	-0.126129
C307	C	1.545711	0.539083	0.123871
C308	C	1.795711	0.789083	0.373871
C309	C	0.931208	0.116489	-0.753851
C310	C	1.181208	0.366489	-0.503851
C311	C	1.431208	0.616489	-0.253851
C312	C	1.681208	0.866489	-0.003851
C313	C	0.931219	0.116491	-0.815769
C314	C	1.181219	0.366491	-0.565769
C315	C	1.431219	0.616491	-0.315769
C316	C	1.681219	0.866491	-0.065769
C317	C	1.045760	0.039064	-0.815746
C318	C	1.295760	0.289064	-0.565746
C319	C	1.545760	0.539064	-0.315746
C320	C	1.795760	0.789064	-0.065746
C321	C	1.045752	0.039065	-0.753827
C322	C	1.295752	0.289065	-0.503827
C323	C	1.545752	0.539065	-0.253827
C324	C	1.795752	0.789065	-0.003827
C325	C	0.988472	0.077777	-0.722880
C326	C	1.238472	0.327777	-0.472880
C327	C	1.488472	0.577777	-0.222880
C328	C	1.738472	0.827777	0.027120
C329	C	1.045700	0.039097	-0.246102
C330	C	1.295700	0.289097	0.003898
C331	C	1.545700	0.539097	0.253898
C332	C	1.795700	0.789097	0.503898
C333	C	1.045694	0.039107	-0.184181
C334	C	1.295694	0.289107	0.065819
C335	C	1.545694	0.539107	0.315819
C336	C	1.795694	0.789107	0.565819
C337	C	0.931151	0.116532	-0.184209
C338	C	1.181151	0.366532	0.065791
C339	C	1.431151	0.616532	0.315791
C340	C	1.681151	0.866532	0.565791
C341	C	0.931159	0.116524	-0.246125
C342	C	1.181159	0.366524	0.003875
C343	C	1.431159	0.616524	0.253875
C344	C	1.681159	0.866524	0.503875
C345	C	0.988437	0.077802	-0.277069
C346	C	1.238437	0.327802	-0.027069
C347	C	1.488437	0.577802	0.222931
C348	C	1.738437	0.827802	0.472931
O349	O	0.882513	0.149426	-0.344090
O350	O	1.132513	0.399426	-0.094090
O351	O	1.382513	0.649426	0.155910
O352	O	1.632513	0.899426	0.405910
O353	O	1.094403	0.006157	-0.344093
O354	O	1.344403	0.256157	-0.094093
O355	O	1.594403	0.506157	0.155907
O356	O	1.844403	0.756157	0.405907
N357	N	0.988488	0.077776	0.153278
N358	N	1.238488	0.327776	0.403278
N359	N	1.488488	0.577776	0.653278
N360	N	1.738488	0.827776	0.903278
H361	H	0.576608	0.002066	0.059794
H362	H	0.826608	0.252066	0.309794
H363	H	1.076608	0.502066	0.559794
H364	H	1.326608	0.752066	0.809794
H365	H	1.092340	0.007565	-0.271290
H366	H	1.342340	0.257565	-0.021290
H367	H	1.592340	0.507565	0.228710
H368	H	1.842340	0.757565	0.478710
Cl369	Cl	0.992085	-0.215999	-0.121027
Cl370	Cl	1.242085	0.034001	0.128973
Cl371	Cl	1.492085	0.284001	0.378973
Cl372	Cl	1.742085	0.534001	0.628973
Cl373	Cl	0.994453	-0.081914	-0.121029
Cl374	Cl	1.244453	0.168086	0.128971
Cl375	Cl	1.494453	0.418086	0.378971
Cl376	Cl	1.744453	0.668086	0.628971
Cl377	Cl	1.117701	-0.009561	-0.145253
Cl378	Cl	1.367701	0.240439	0.104747
Cl379	Cl	1.617701	0.490439	0.354747
Cl380	Cl	1.867701	0.740439	0.604747
Cl381	Cl	0.571666	0.082986	0.120574
Cl382	Cl	0.821666	0.332986	0.370574
Cl383	Cl	1.071666	0.582986	0.620574
Cl384	Cl	1.321666	0.832986	0.870574
Cl385	Cl	0.425791	-0.026538	0.056244
Cl386	Cl	0.675791	0.223462	0.306244
Cl387	Cl	0.925791	0.473462	0.556244
Cl388	Cl	1.175791	0.723462	0.806244
Cl389	Cl	1.174988	-0.048301	-0.430072
Cl390	Cl	1.424988	0.201699	-0.180072
Cl391	Cl	1.674988	0.451699	0.069928
Cl392	Cl	1.924988	0.701699	0.319928
Cl393	Cl	1.175002	-0.048310	-0.569807
Cl394	Cl	1.425002	0.201690	-0.319807
Cl395	Cl	1.675002	0.451690	-0.069807
Cl396	Cl	1.925002	0.701690	0.180193
Cl397	Cl	0.383921	0.177472	0.062455
Cl398	Cl	0.633921	0.427472	0.312455
Cl399	Cl	0.883921	0.677472	0.562455
Cl400	Cl	1.133921	0.927472	0.812455
Cl401	Cl	0.994521	-0.081907	0.121044
Cl402	Cl	1.244521	0.168093	0.371044
Cl403	Cl	1.494521	0.418093	0.621044
Cl404	Cl	1.744521	0.668093	0.871044
Cl405	Cl	0.992126	-0.215967	0.121059
Cl406	Cl	1.242126	0.034033	0.371059
Cl407	Cl	1.492126	0.284033	0.621059
Cl408	Cl	1.742126	0.534033	0.871059
Cl409	Cl	0.989672	-0.355157	0.174689
Cl410	Cl	1.239672	-0.105157	0.424689
Cl411	Cl	1.489672	0.144843	0.674689
Cl412	Cl	1.739672	0.394843	0.924689
H413	H	0.563238	0.069183	-0.097953
H414	H	0.813238	0.319183	0.152047
H415	H	1.063238	0.569183	0.402047
H416	H	1.313238	0.819183	0.652047
H417	H	1.092388	0.007543	-0.728617
H418	H	1.342388	0.257543	-0.478617
H419	H	1.592388	0.507543	-0.228617
H420	H	1.842388	0.757543	0.021383
Cl421	Cl	1.117756	-0.009605	-0.854665
Cl422	Cl	1.367756	0.240395	-0.604665
Cl423	Cl	1.617756	0.490395	-0.354665
Cl424	Cl	1.867756	0.740395	-0.104665
H425	H	0.884591	0.148019	-0.840978
H426	H	1.134591	0.398019	-0.590978
H427	H	1.384591	0.648019	-0.340978
H428	H	1.634591	0.898019	-0.090978
H429	H	0.987430	-0.476070	-0.150884
H430	H	1.237430	-0.226070	0.099116
H431	H	1.487430	0.023930	0.349116
H432	H	1.737430	0.273930	0.599116
Cl433	Cl	0.859198	0.165166	-0.714952
Cl434	Cl	1.109198	0.415166	-0.464952
Cl435	Cl	1.359198	0.665166	-0.214952
Cl436	Cl	1.609198	0.915166	0.035048
H437	H	0.827263	0.186729	-0.556153
H438	H	1.077263	0.436729	-0.306153
H439	H	1.327263	0.686729	-0.056153
H440	H	1.577263	0.936729	0.193847
Cl441	Cl	0.984759	-0.628423	-0.121002
Cl442	Cl	1.234759	-0.378423	0.128998
Cl443	Cl	1.484759	-0.128423	0.378998
Cl444	Cl	1.734759	0.121577	0.628998
Cl445	Cl	0.982405	-0.762486	-0.120992
Cl446	Cl	1.232405	-0.512486	0.129008
Cl447	Cl	1.482405	-0.262486	0.379008
Cl448	Cl	1.732405	-0.012486	0.629008
Cl449	Cl	0.382316	0.177279	-0.061582
Cl450	Cl	0.632316	0.427279	0.188418
Cl451	Cl	0.882316	0.677279	0.438418
Cl452	Cl	1.132316	0.927279	0.688418
Cl453	Cl	0.801881	0.203874	-0.430124
Cl454	Cl	1.051881	0.453874	-0.180124
Cl455	Cl	1.301881	0.703874	0.069876
Cl456	Cl	1.551881	0.953874	0.319876
Cl457	Cl	0.987296	-0.489211	0.174697
Cl458	Cl	1.237296	-0.239211	0.424697
Cl459	Cl	1.487296	0.010789	0.674697
Cl460	Cl	1.737296	0.260789	0.924697
Cl461	Cl	0.989556	-0.355161	-0.174637
Cl462	Cl	1.239556	-0.105161	0.075363
Cl463	Cl	1.489556	0.144839	0.325363
Cl464	Cl	1.739556	0.394839	0.575363
H465	H	0.984585	-0.641559	0.097334
H466	H	1.234585	-0.391559	0.347334
H467	H	1.484585	-0.141559	0.597334
H468	H	1.734585	0.108441	0.847334
Cl469	Cl	0.859156	0.165198	-0.145293
Cl470	Cl	1.109156	0.415198	0.104707
Cl471	Cl	1.359156	0.665198	0.354707
Cl472	Cl	1.609156	0.915198	0.604707
Cl473	Cl	0.553184	0.179261	0.062204
Cl474	Cl	0.803184	0.429261	0.312204
Cl475	Cl	1.053184	0.679261	0.562204
Cl476	Cl	1.303184	0.929261	0.812204
Cl477	Cl	0.552195	0.179504	-0.062240
Cl478	Cl	0.802195	0.429504	0.187760
Cl479	Cl	1.052195	0.679504	0.437760
Cl480	Cl	1.302195	0.929504	0.687760
Cl481	Cl	0.859165	0.165197	-0.285053
Cl482	Cl	1.109165	0.415197	-0.035053
Cl483	Cl	1.359165	0.665197	0.214947
Cl484	Cl	1.609165	0.915197	0.464947
H485	H	0.419579	0.068363	-0.098184
H486	H	0.669579	0.318363	0.151816
H487	H	0.919579	0.568363	0.401816
H488	H	1.169579	0.818363	0.651816
H489	H	0.432439	0.000220	-0.058754
H490	H	0.682439	0.250220	0.191246
H491	H	0.932439	0.500220	0.441246
H492	H	1.182439	0.750220	0.691246
H493	H	0.575638	0.001419	-0.058247
H494	H	0.825638	0.251419	0.191753
H495	H	1.075638	0.501419	0.441753
H496	H	1.325638	0.751419	0.691753
Cl497	Cl	0.982443	-0.762485	0.121084
Cl498	Cl	1.232443	-0.512485	0.371084
Cl499	Cl	1.482443	-0.262485	0.621084
Cl500	Cl	1.732443	-0.012485	0.871084
Cl501	Cl	0.402806	0.075658	0.121405
Cl502	Cl	0.652806	0.325658	0.371405
Cl503	Cl	0.902806	0.575658	0.621405
Cl504	Cl	1.152806	0.825658	0.871405
