data_functionalizedCrystal
_audit_creation_method	'MofGen! by Chris Wilmer'
_symmetry_space_group_name_H-M	'P1'
_symmetry_Int_Tables_number	1
_symmetry_cell_setting	triclinic
loop_
_symmetry_equiv_pos_as_xyz
  x,y,z
_cell_length_a	12.759401
_cell_length_b	18.050589
_cell_length_c	18.050583
_cell_angle_alpha	90.028091
_cell_angle_beta	90.016417
_cell_angle_gamma	90.029746
loop_
_atom_site_label
_atom_site_type_symbol
_atom_site_fract_x
_atom_site_fract_y
_atom_site_fract_z
Zn1	Zn	1.606121	-0.295604	0.419899
Zn2	Zn	1.605984	-0.419809	0.295719
Zn3	Zn	1.430433	-0.295640	0.295727
Zn4	Zn	1.430370	-0.419760	0.419871
O5	O	1.518227	-0.357703	0.357804
O6	O	1.753124	-0.312085	0.403434
O7	O	1.582667	-0.403373	0.191795
O8	O	1.453822	-0.191711	0.312214
O9	O	1.753023	-0.403338	0.312200
O10	O	1.582899	-0.191684	0.403443
O11	O	1.453690	-0.312147	0.191801
O12	O	1.283404	-0.312100	0.312187
O13	O	1.453714	-0.403255	0.523799
O14	O	1.283357	-0.403290	0.403395
O15	O	1.582838	-0.312038	0.523820
O16	O	1.582605	-0.523727	0.312172
O17	O	1.453582	-0.523691	0.403387
C18	C	1.245260	-0.357694	0.357789
C19	C	1.128483	-0.357708	0.357801
C20	C	1.073624	-0.405263	0.405218
C21	C	0.963900	-0.405266	0.405232
C22	C	0.963903	-0.310157	0.310406
C23	C	1.073625	-0.310151	0.310396
C24	C	1.518100	-0.550655	0.357792
C25	C	1.518142	-0.633201	0.357811
C26	C	1.448048	-0.832659	0.407396
C27	C	1.422440	-0.882105	0.339629
C28	C	1.518245	-0.784331	0.357821
C29	C	1.543905	-0.881967	0.425595
C30	C	1.518343	-0.930317	0.357836
C31	C	1.492587	-0.832690	0.290018
C32	C	1.614097	-0.832548	0.376030
C33	C	1.588525	-0.881972	0.308216
C34	C	1.518186	-0.700233	0.357813
C35	C	1.518402	-1.014413	0.357836
C36	C	1.792260	-0.357713	0.357819
C37	C	1.909037	-0.357717	0.357826
C38	C	1.518284	-0.357637	0.551510
C39	C	1.518308	-0.357609	0.634055
C40	C	1.518383	-0.163998	0.357833
C41	C	1.518450	-0.081452	0.357845
C42	C	1.518231	-0.357716	0.164852
C43	C	1.518410	-0.357535	0.082306
C44	C	1.588591	-0.307955	0.882892
C45	C	1.614228	-0.375718	0.833483
C46	C	1.518376	-0.357561	0.931176
C47	C	1.492755	-0.289826	0.833504
C48	C	1.518346	-0.357581	0.785191
C49	C	1.544063	-0.425360	0.882854
C50	C	1.422546	-0.339422	0.882879
C51	C	1.448146	-0.407232	0.833492
C52	C	1.518397	-0.357549	1.015274
C53	C	1.518325	-0.357601	0.701094
H54	H	1.118293	-0.271421	0.271783
H55	H	0.919225	-0.271438	0.271810
H56	H	1.471100	-0.232535	0.811824
H57	H	1.118286	-0.443986	0.443820
H58	H	1.341427	-0.903890	0.324242
C59	C	0.904529	-0.456981	0.456741
C60	C	0.976060	-0.498638	0.498238
C61	C	0.921406	-0.546293	0.545691
H62	H	0.861762	-0.428698	0.489221
H63	H	0.861709	-0.489345	0.428297
H64	H	1.018862	-0.466278	0.526680
H65	H	1.018829	-0.526935	0.465778
H66	H	0.878587	-0.578657	0.517247
H67	H	0.878641	-0.518004	0.578166
H68	H	0.969931	-0.574568	0.573848
C69	C	1.368617	-0.803821	0.463121
C70	C	1.268454	-0.828921	0.443713
C71	C	1.195254	-0.802361	0.495019
H72	H	1.386002	-0.821401	0.511168
H73	H	1.369511	-0.751191	0.463032
H74	H	1.267563	-0.881540	0.443809
H75	H	1.251036	-0.811343	0.395675
H76	H	1.196147	-0.749732	0.494930
H77	H	1.212648	-0.819943	0.543063
H78	H	1.127283	-0.819382	0.481854
H79	H	1.470828	-0.811134	0.232693
C80	C	1.667597	-0.910628	0.252146
C81	C	1.640297	-0.885541	0.181341
C82	C	1.713100	-0.911934	0.129667
H83	H	1.735488	-0.892926	0.264566
H84	H	1.667594	-0.963258	0.252695
H85	H	1.640310	-0.832922	0.180793
H86	H	1.572417	-0.903241	0.168897
H87	H	1.713098	-0.964564	0.130216
H88	H	1.780987	-0.894230	0.142094
H89	H	1.694582	-0.894922	0.081619
C90	C	1.722055	-0.803536	0.396740
C91	C	1.748466	-0.828442	0.467777
C92	C	1.847904	-0.801722	0.486892
H93	H	1.772238	-0.821136	0.362093
H94	H	1.721402	-0.750908	0.396179
H95	H	1.749128	-0.881059	0.468332
H96	H	1.698311	-0.810844	0.502440
H97	H	1.847251	-0.749094	0.486332
H98	H	1.898078	-0.819324	0.452241
H99	H	1.865832	-0.818611	0.535095
H100	H	1.565570	-0.903613	0.482905
H101	H	1.565837	-0.482663	0.904441
C102	C	1.667931	-0.252068	0.911675
C103	C	1.717908	-0.217782	0.851749
C104	C	1.791013	-0.166307	0.878235
H105	H	1.633033	-0.215707	0.940630
H106	H	1.718534	-0.276773	0.941329
H107	H	1.667313	-0.193077	0.822107
H108	H	1.752827	-0.254124	0.822789
H109	H	1.841616	-0.191013	0.907889
H110	H	1.756107	-0.129952	0.907189
H111	H	1.824939	-0.143043	0.837580
H112	H	1.695256	-0.391072	0.811783
H113	H	1.388754	-0.449240	0.811938
C114	C	1.314572	-0.318772	0.911800
C115	C	1.288167	-0.247756	0.886855
C116	C	1.188716	-0.228695	0.913492
H117	H	1.264400	-0.353453	0.894168
H118	H	1.315201	-0.319319	0.964428
H119	H	1.287529	-0.247214	0.834238
H120	H	1.338312	-0.213059	0.904486
H121	H	1.189345	-0.229243	0.966120
H122	H	1.138553	-0.263382	0.895858
H123	H	1.170791	-0.180508	0.896577
