data_functionalizedCrystal
_audit_creation_method	'MofGen! by Chris Wilmer'
_symmetry_space_group_name_H-M	'P1'
_symmetry_Int_Tables_number	1
_symmetry_cell_setting	triclinic
loop_
_symmetry_equiv_pos_as_xyz
  x,y,z
_cell_length_a	13.897449
_cell_length_b	13.897441
_cell_length_c	19.805405
_cell_angle_alpha	90.034881
_cell_angle_beta	89.972763
_cell_angle_gamma	89.976606
loop_
_atom_site_label
_atom_site_type_symbol
_atom_site_fract_x
_atom_site_fract_y
_atom_site_fract_z
Zn1	Zn	1.474644	-0.545421	0.269427
Zn2	Zn	1.474514	-0.384110	0.382626
Zn3	Zn	1.313333	-0.384132	0.269458
Zn4	Zn	1.313291	-0.545355	0.382581
O5	O	1.393945	-0.464755	0.326023
O6	O	1.609608	-0.524041	0.284449
O7	O	1.453096	-0.249131	0.367646
O8	O	1.334804	-0.405564	0.174737
O9	O	1.609513	-0.405527	0.367616
O10	O	1.453319	-0.524062	0.174714
O11	O	1.334678	-0.249147	0.284502
O12	O	1.178346	-0.405500	0.284458
O13	O	1.334731	-0.680346	0.367538
O14	O	1.178315	-0.523950	0.367569
O15	O	1.453277	-0.680394	0.284405
O16	O	1.453055	-0.405463	0.477337
O17	O	1.334605	-0.523929	0.477303
C18	C	1.143331	-0.464721	0.326012
C19	C	1.036117	-0.464729	0.326024
C20	C	0.949047	-0.464746	0.326027
C21	C	0.839815	-0.464775	0.326031
C22	C	1.394014	-0.716348	0.325963
C23	C	1.394043	-0.823562	0.325938
C24	C	1.394069	-1.019857	0.325892
C25	C	1.394052	-0.910624	0.325919
C26	C	1.645538	-0.464789	0.326034
C27	C	1.752752	-0.464804	0.326038
C28	C	1.393837	-0.464708	0.501879
C29	C	1.393879	-0.464720	0.577111
C30	C	1.393933	-0.214140	0.326034
C31	C	1.394091	-0.106927	0.325868
C32	C	1.394081	-0.464823	0.149480
C33	C	1.394138	-0.464852	0.074248
C34	C	1.455615	-0.403100	0.612450
C35	C	1.455656	-0.403121	0.683138
C36	C	1.393955	-0.464759	0.718486
C37	C	1.332216	-0.526386	0.683142
C38	C	1.332180	-0.526369	0.612455
C39	C	1.332358	-0.526458	0.968216
C40	C	1.332396	-0.526468	1.038908
C41	C	1.455834	-0.403210	1.038899
C42	C	1.455799	-0.403192	0.968212
C43	C	1.394063	-0.464823	0.932874
C44	C	1.394021	-0.464800	0.856225
C45	C	1.393992	-0.464777	0.795134
H46	H	1.505856	-0.352903	0.583674
C47	C	1.265049	-0.593313	0.574207
C48	C	1.211004	-0.647281	0.620290
C49	C	1.149148	-0.708958	0.585082
H50	H	1.301810	-0.635452	0.546587
H51	H	1.222973	-0.556395	0.546688
H52	H	1.253075	-0.684196	0.647798
H53	H	1.174223	-0.605167	0.647911
H54	H	1.107072	-0.672040	0.557563
H55	H	1.185917	-0.751091	0.557464
H56	H	1.112465	-0.745576	0.616344
H57	H	1.282152	-0.576668	1.067686
C58	C	1.522684	-0.336307	0.929712
C59	C	1.509421	-0.349464	0.860244
C60	C	1.571013	-0.287858	0.824758
H61	H	1.587532	-0.350427	0.941169
H62	H	1.508600	-0.271465	0.941301
H63	H	1.523513	-0.414291	0.848660
H64	H	1.444586	-0.335337	0.848767
H65	H	1.556929	-0.223016	0.836347
H66	H	1.635857	-0.301983	0.836221
H67	H	1.562017	-0.296770	0.777621
H68	H	1.506106	-0.353030	1.067679
H69	H	1.282089	-0.576638	0.939449
C70	C	1.265260	-0.593203	0.721640
C71	C	1.278483	-0.580011	0.791109
C72	C	1.216807	-0.641535	0.826593
H73	H	1.279274	-0.658064	0.710095
H74	H	1.200432	-0.579012	0.710138
H75	H	1.343296	-0.594209	0.802607
H76	H	1.264462	-0.515163	0.802674
H77	H	1.151978	-0.627344	0.815091
H78	H	1.230826	-0.706392	0.815042
H79	H	1.225764	-0.632586	0.873731
C80	C	1.522719	-0.336108	0.721384
C81	C	1.576723	-0.282102	0.675299
C82	C	1.638505	-0.220349	0.710506
H83	H	1.564831	-0.372942	0.748916
H84	H	1.485876	-0.294003	0.748990
H85	H	1.613564	-0.324202	0.647704
H86	H	1.534636	-0.245249	0.647765
H87	H	1.601662	-0.178244	0.738112
H88	H	1.680611	-0.257191	0.738036
H89	H	1.675148	-0.183693	0.679242
