data_functionalizedCrystal
_audit_creation_method	'MofGen! by Chris Wilmer'
_symmetry_space_group_name_H-M	'P1'
_symmetry_Int_Tables_number	1
_symmetry_cell_setting	triclinic
loop_
_symmetry_equiv_pos_as_xyz
  x,y,z
_cell_length_a	18.101398
_cell_length_b	11.169416
_cell_length_c	11.169409
_cell_angle_alpha	90.030874
_cell_angle_beta	90.013915
_cell_angle_gamma	90.005896
loop_
_atom_site_label
_atom_site_type_symbol
_atom_site_fract_x
_atom_site_fract_y
_atom_site_fract_z
Zn1	Zn	1.132258	-0.477852	0.678366
Zn2	Zn	1.632258	0.022148	1.178366
Zn3	Zn	1.132190	-0.678593	0.477688
Zn4	Zn	1.632190	-0.178593	0.977688
Zn5	Zn	1.008408	-0.477907	0.477721
Zn6	Zn	1.508408	0.022093	0.977721
Zn7	Zn	1.008413	-0.678477	0.678353
Zn8	Zn	1.508413	-0.178477	1.178353
O9	O	1.070317	-0.578207	0.578032
O10	O	1.570317	-0.078207	1.078032
O11	O	1.235882	-0.504507	0.651737
O12	O	1.735882	-0.004507	1.151737
O13	O	1.115740	-0.652043	0.309742
O14	O	1.615740	-0.152043	0.809742
O15	O	1.024864	-0.309950	0.504356
O16	O	1.524864	0.190050	1.004356
O17	O	1.235832	-0.651990	0.504299
O18	O	1.735832	-0.151990	1.004299
O19	O	1.115856	-0.309910	0.651769
O20	O	1.615856	0.190090	1.151769
O21	O	1.024798	-0.504600	0.309766
O22	O	1.524798	-0.004600	0.809766
O23	O	0.904776	-0.504487	0.504344
O24	O	1.404776	-0.004487	1.004344
O25	O	1.024872	-0.651792	0.846305
O26	O	1.524872	-0.151792	1.346305
O27	O	0.904779	-0.651845	0.651748
O28	O	1.404779	-0.151845	1.151748
O29	O	1.115860	-0.504394	0.846314
O30	O	1.615860	-0.004394	1.346314
O31	O	1.115744	-0.846527	0.504287
O32	O	1.615744	-0.346527	1.004287
O33	O	1.024806	-0.846442	0.651715
O34	O	1.524806	-0.346442	1.151715
C35	C	1.070288	-0.890032	0.578023
C36	C	1.570288	-0.390032	1.078023
C37	C	1.070343	-1.023432	0.578059
C38	C	1.570343	-0.523432	1.078059
C39	C	0.877907	-0.578160	0.578049
C40	C	1.377907	-0.078160	1.078049
C41	C	0.795593	-0.578169	0.578084
C42	C	1.295593	-0.078169	1.078084
C43	C	0.496502	-0.578239	0.578034
C44	C	0.996502	-0.078239	1.078034
C45	C	0.527854	-0.671401	0.670319
C46	C	1.027854	-0.171401	1.170319
C47	C	0.613472	-0.671109	0.670698
C48	C	1.113472	-0.171109	1.170698
C49	C	0.644884	-0.578205	0.578059
C50	C	1.144884	-0.078205	1.078059
C51	C	0.613803	-0.451788	0.612609
C52	C	1.113803	0.048212	1.112609
C53	C	0.528158	-0.452347	0.613265
C54	C	1.028158	0.047653	1.113265
C55	C	0.528051	-0.610381	0.450976
C56	C	1.028051	-0.110381	0.950976
C57	C	0.613701	-0.613154	0.451656
C58	C	1.113701	-0.113154	0.951656
C59	C	0.728744	-0.578178	0.578071
C60	C	1.228744	-0.078178	1.078071
C61	C	0.412642	-0.578258	0.578025
C62	C	0.912642	-0.078258	1.078025
C63	C	1.263479	-0.578255	0.578016
C64	C	1.763479	-0.078255	1.078016
C65	C	1.345793	-0.578276	0.578009
C66	C	1.845793	-0.078276	1.078009
C67	C	1.070374	-0.578074	0.891074
C68	C	1.570374	-0.078074	1.391074
C69	C	1.070398	-0.578017	1.024474
C70	C	1.570398	-0.078017	1.524474
C71	C	1.070367	-0.265165	0.578067
C72	C	1.570367	0.234835	1.078067
C73	C	1.070388	-0.131765	0.578082
C74	C	1.570388	0.368235	1.078082
C75	C	1.070303	-0.578253	0.266207
C76	C	1.570303	-0.078253	0.766207
C77	C	1.070423	-0.577972	0.132808
C78	C	1.570423	-0.077972	0.632808
H79	H	0.634487	-0.764854	0.649045
H80	H	1.134487	-0.264854	1.149045
H81	H	0.507417	-0.380446	0.549131
H82	H	1.007417	0.119554	1.049131
Cl83	Cl	0.496051	-0.816613	0.637276
Cl84	Cl	0.996051	-0.316613	1.137276
H85	H	0.506456	-0.700988	0.419576
H86	H	1.006456	-0.200988	0.919576
H87	H	0.508195	-0.425088	0.706150
H88	H	1.008195	0.074912	1.206150
H89	H	0.635266	-0.424037	0.704484
H90	H	1.135266	0.075963	1.204484
H91	H	0.634025	-0.706179	0.425598
H92	H	1.134025	-0.206179	0.925598
H93	H	0.633974	-0.649841	0.764840
H94	H	1.133974	-0.149841	1.264840
Cl95	Cl	0.646707	-0.515995	0.339793
Cl96	Cl	1.146707	-0.015995	0.839793
Cl97	Cl	0.645216	-0.341707	0.512078
Cl98	Cl	1.145216	0.158293	1.012078
Cl99	Cl	0.496743	-0.505618	0.344814
Cl100	Cl	0.996743	-0.005618	0.844814
H101	H	0.506343	-0.650404	0.763916
H102	H	1.006343	-0.150404	1.263916
