data_functionalizedCrystal
_audit_creation_method	'MofGen! by Chris Wilmer'
_symmetry_space_group_name_H-M	'P1'
_symmetry_Int_Tables_number	1
_symmetry_cell_setting	triclinic
loop_
_symmetry_equiv_pos_as_xyz
  x,y,z
_cell_length_a	17.000371
_cell_length_b	15.995350
_cell_length_c	14.472310
_cell_angle_alpha	89.998838
_cell_angle_beta	89.986849
_cell_angle_gamma	100.454189
loop_
_atom_site_label
_atom_site_type_symbol
_atom_site_fract_x
_atom_site_fract_y
_atom_site_fract_z
O1	O	1.056113	-0.030165	-0.076844
O2	O	0.824380	-0.060553	-0.076843
O3	O	0.946581	0.076995	-0.076843
O4	O	0.933912	-0.167713	-0.076844
O5	O	0.946550	0.076985	0.076839
O6	O	0.824349	-0.060563	0.076839
O7	O	1.056082	-0.030174	0.076838
Cu8	Cu	0.940212	-0.045370	0.090871
Cu9	Cu	0.940250	-0.045358	-0.090876
O10	O	0.933881	-0.167723	0.076838
C11	C	0.794711	-0.062191	-0.000002
C12	C	0.706352	-0.067044	-0.000002
C13	C	0.674327	0.007647	-0.000000
C14	C	0.591304	0.003082	-0.000007
C15	C	0.540308	-0.076176	-0.000009
C16	C	0.572338	-0.150873	-0.000014
C17	C	0.655360	-0.146307	-0.000014
C18	C	0.289162	-0.093814	-0.000015
C19	C	0.206135	-0.098375	-0.000013
C20	C	0.225106	0.055580	-0.000007
C21	C	0.308129	0.060139	-0.000002
C22	C	0.340152	-0.014557	-0.000011
C23	C	0.455445	-0.080845	-0.000013
C24	C	0.425014	-0.009888	-0.000014
C25	C	0.946042	0.108146	-0.000003
C26	C	0.944472	0.200981	-0.000008
C27	C	1.085751	-0.028537	-0.000005
C28	C	1.174110	-0.023684	-0.000011
C29	C	0.934420	-0.198874	-0.000003
C30	C	0.935990	-0.291709	-0.000004
N31	N	0.940192	-0.045377	0.218702
C32	C	0.938832	0.538313	-0.000005
C33	C	0.851803	0.484472	-0.000350
C34	C	0.853374	0.387897	-0.000004
C35	C	0.941630	0.370959	-0.000007
C36	C	0.984538	0.415191	0.087751
C37	C	0.982351	0.511666	0.087824
C38	C	0.984185	0.512167	-0.086941
C39	C	0.984164	0.415221	-0.088101
C40	C	0.943215	0.276378	-0.000006
C41	C	0.937250	0.632895	-0.000001
N42	N	0.940276	-0.045344	-0.218707
C43	C	0.940248	-0.045355	0.592793
C44	C	0.874642	-0.118740	0.553627
C45	C	0.874793	-0.118979	0.446539
C46	C	0.940220	-0.045366	0.407202
C47	C	1.023268	-0.058333	0.446039
C48	C	1.022900	-0.058848	0.553161
C49	C	0.923547	0.041255	0.553323
C50	C	0.921643	0.040529	0.446196
C51	C	0.940209	-0.045370	0.302314
C52	C	0.940265	-0.045352	0.697681
H53	H	0.315225	-0.154638	-0.000030
H54	H	0.164615	-0.162919	-0.000010
C55	C	0.843496	0.060132	0.589849
H56	H	0.819508	0.015362	0.629516
H57	H	0.852793	0.112135	0.623211
H58	H	0.808788	0.064520	0.539346
H59	H	0.199023	0.116394	-0.000010
C60	C	0.399350	-0.168025	-0.000014
H61	H	0.430310	-0.211860	-0.000020
H62	H	0.366553	-0.173008	0.053574
H63	H	0.366586	-0.172996	-0.053618
C64	C	1.042771	-0.143926	0.586905
H65	H	1.050989	-0.177851	0.535146
H66	H	1.089947	-0.133397	0.623443
H67	H	0.999622	-0.173028	0.622930
C68	C	0.888863	-0.205263	0.589939
H69	H	0.848969	-0.249249	0.565939
H70	H	0.940145	-0.214174	0.570766
H71	H	0.886239	-0.205749	0.655512
H72	H	0.860551	0.050513	0.420813
C73	C	0.690592	-0.228464	-0.000016
H74	H	0.747340	-0.214394	-0.000026
H75	H	0.673081	-0.260849	0.053573
H76	H	0.673100	-0.260832	-0.053618
H77	H	0.466538	0.054643	-0.000018
H78	H	0.819644	0.356995	-0.062912
H79	H	1.038338	-0.120554	0.419201
H80	H	0.954710	0.384610	0.153060
H81	H	1.046246	0.548618	0.091803
H82	H	0.966323	0.097224	0.419422
H83	H	1.049376	0.405839	0.091012
C84	C	0.804820	0.506058	-0.085357
H85	H	0.837855	0.548104	-0.121399
H86	H	0.788821	0.456307	-0.121497
H87	H	0.758801	0.527105	-0.065613
H88	H	0.349645	0.124680	0.000004
C89	C	0.790973	-0.109798	0.588451
H90	H	0.752237	-0.154682	0.564026
H91	H	0.789894	-0.112414	0.654024
H92	H	0.779160	-0.056778	0.568770
H93	H	0.971391	0.095794	0.578650
H94	H	1.073244	-0.007178	0.579067
H95	H	0.565233	0.063903	-0.000006
H96	H	0.955744	0.530616	-0.153457
H97	H	0.715843	0.072187	0.000006
H98	H	0.952793	0.385665	-0.153022
H99	H	1.048525	0.404598	-0.093402
H100	H	0.530811	-0.215406	-0.000022
C101	C	1.090800	0.012289	0.411610
H102	H	1.068894	0.050399	0.373149
H103	H	1.116679	0.042383	0.463031
H104	H	1.128485	-0.012350	0.377391
H105	H	1.048351	0.548653	-0.087533
H106	H	0.817160	0.501512	0.062233
H107	H	0.819391	0.357528	0.063012
C108	C	0.940038	0.533274	0.176439
H109	H	0.924341	0.483123	0.212052
H110	H	0.975589	0.573860	0.211528
H111	H	0.894065	0.556152	0.160403
H112	H	0.813062	-0.112155	0.420283
H113	H	0.885458	-0.183378	0.420904
