data_functionalizedCrystal
_audit_creation_method	'MofGen! by Chris Wilmer'
_symmetry_space_group_name_H-M	'P1'
_symmetry_Int_Tables_number	1
_symmetry_cell_setting	triclinic
loop_
_symmetry_equiv_pos_as_xyz
  x,y,z
_cell_length_a	23.532407
_cell_length_b	23.532409
_cell_length_c	22.610064
_cell_angle_alpha	90.007112
_cell_angle_beta	89.997161
_cell_angle_gamma	82.849119
loop_
_atom_site_label
_atom_site_type_symbol
_atom_site_fract_x
_atom_site_fract_y
_atom_site_fract_z
O1	O	0.755264	0.069127	-0.049107
O2	O	0.589401	0.079130	-0.049124
O3	O	0.677333	-0.008803	-0.049116
O4	O	0.667331	0.157060	-0.049115
O5	O	0.677318	-0.008790	0.049254
O6	O	0.589385	0.079143	0.049245
O7	O	0.755248	0.069140	0.049262
Zn8	Zn	0.672314	0.074143	0.064872
Zn9	Zn	0.672335	0.074127	-0.064734
O10	O	0.667316	0.157073	0.049254
C11	C	0.568177	0.078882	0.000059
C12	C	0.504960	0.078116	0.000052
C13	C	0.105857	0.125349	0.000079
C14	C	0.046457	0.124638	0.000083
O15	O	0.009713	0.168424	0.000104
N16	N	0.023830	0.072362	0.000081
C17	C	0.060608	0.020794	0.000083
O18	O	0.035908	-0.023737	0.000083
C19	C	0.120007	0.021506	0.000083
C20	C	0.142630	0.073785	0.000078
C21	C	0.128481	0.177625	0.000075
C22	C	0.187877	0.178336	0.000070
C23	C	0.224649	0.126772	0.000069
C24	C	0.202026	0.074496	0.000074
C25	C	0.156783	-0.030062	0.000089
C26	C	0.216185	-0.029345	0.000090
C27	C	0.238808	0.022934	0.000085
C28	C	0.298195	0.023643	0.000068
N29	N	0.320821	0.075920	0.000070
C30	C	0.284049	0.127484	0.000070
C31	C	-0.064135	0.019302	0.000082
C32	C	-0.123533	0.018589	0.000078
C33	C	-0.137679	0.122434	0.000079
C34	C	-0.078280	0.123146	0.000079
C35	C	-0.041508	0.071578	0.000084
C36	C	0.408785	0.128974	0.000060
C37	C	0.468187	0.129680	0.000052
C38	C	0.482329	0.025836	0.000055
C39	C	0.422932	0.025129	0.000059
C40	C	0.386161	0.076702	0.000063
O41	O	0.334973	-0.020119	0.000049
O42	O	0.308757	0.172007	0.000078
C43	C	0.677071	-0.030013	0.000067
C44	C	0.676304	-0.093230	0.000063
C45	C	0.673054	-0.366482	-0.053561
C46	C	0.673765	-0.307081	-0.053561
O47	O	0.674161	-0.276363	-0.099162
N48	N	0.674109	-0.277372	0.000061
C49	C	0.673747	-0.307067	0.053687
O50	O	0.674105	-0.276343	0.099296
C51	C	0.673040	-0.366467	0.053686
C52	C	0.672690	-0.396172	0.000060
C53	C	0.672705	-0.396187	-0.107182
C54	C	0.671992	-0.455583	-0.107182
C55	C	0.671628	-0.485274	-0.053560
C56	C	0.671977	-0.455568	0.000061
C57	C	0.672682	-0.396161	0.107311
C58	C	0.671974	-0.455565	0.107306
C59	C	0.671625	-0.485270	0.053680
C60	C	0.670901	-0.544655	0.053682
N61	N	0.670557	-0.574364	0.000060
C62	C	0.670921	-0.544673	-0.053561
C63	C	0.675234	-0.182324	0.053684
C64	C	0.675937	-0.122925	0.053685
C65	C	0.675957	-0.122943	-0.053563
C66	C	0.675249	-0.182343	-0.053563
C67	C	0.674890	-0.212033	0.000062
C68	C	0.669424	-0.669409	-0.053556
C69	C	0.668709	-0.728810	-0.053551
C70	C	0.668692	-0.728787	0.053696
C71	C	0.669404	-0.669391	0.053691
C72	C	0.669772	-0.639703	0.000060
O73	O	0.670508	-0.575412	0.099260
O74	O	0.670570	-0.575406	-0.099163
C75	C	0.776472	0.069388	0.000078
C76	C	0.839689	0.070154	0.000081
C77	C	0.667579	0.178283	0.000070
C78	C	0.668345	0.241500	0.000070
N79	N	0.672305	0.074155	0.153324
N80	N	0.672349	0.074111	-0.153186
C81	C	0.711273	0.035196	0.561969
C82	C	0.711276	0.035192	0.623889
O83	O	0.744384	0.002076	0.655911
N84	N	0.672334	0.074115	0.654862
C85	C	0.633384	0.113041	0.623911
O86	O	0.600261	0.146147	0.655941
C87	C	0.633378	0.113042	0.561992
C88	C	0.672326	0.074120	0.531023
C89	C	0.750218	-0.003724	0.531000
C90	C	0.750215	-0.003719	0.469085
C91	C	0.711268	0.035206	0.438138
C92	C	0.672324	0.074125	0.469107
C93	C	0.594425	0.151965	0.531042
C94	C	0.594423	0.151962	0.469119
C95	C	0.633371	0.113040	0.438150
C96	C	0.633375	0.113054	0.376245
N97	N	0.672316	0.074131	0.345273
C98	C	0.711263	0.035207	0.376219
C99	C	0.633397	0.113035	0.753944
C100	C	0.633404	0.113037	0.815862
C101	C	0.711296	0.035187	0.815836
C102	C	0.711291	0.035188	0.753918
C103	C	0.672338	0.074112	0.722972
C104	C	0.711256	0.035220	0.246192
C105	C	0.711251	0.035230	0.184271
C106	C	0.633358	0.113078	0.184302
C107	C	0.633364	0.113071	0.246218
C108	C	0.672315	0.074137	0.277161
O109	O	0.600282	0.146151	0.344184
O110	O	0.744376	0.002101	0.344182
H111	H	0.404512	-0.017441	0.000054
H112	H	0.669724	-0.645245	-0.097228
H113	H	0.246123	-0.071339	0.000094
H114	H	0.673003	-0.372020	-0.150849
Cl115	Cl	0.760255	-0.013745	0.714992
H116	H	0.676211	-0.098742	0.097352
Cl117	Cl	0.760257	-0.013747	0.854753
H118	H	0.512279	-0.016146	0.000052
Cl119	Cl	0.668268	-0.766150	-0.120971
H120	H	0.671712	-0.479764	-0.150849
Cl121	Cl	-0.151966	-0.047136	0.000069
H122	H	0.676251	-0.098758	-0.097224
H123	H	-0.034198	-0.022693	0.000081
H124	H	0.138374	-0.072634	0.000093
H125	H	0.781933	-0.035423	0.556192
H126	H	0.098546	0.219617	0.000077
Cl127	Cl	0.362568	0.193810	0.000065
Cl128	Cl	0.674776	-0.219642	0.121105
Cl129	Cl	0.674812	-0.219681	-0.120981
H130	H	0.672972	-0.371986	0.150979
Cl131	Cl	0.671525	-0.492886	0.174725
Cl132	Cl	0.669843	-0.632046	0.121107
H133	H	0.668394	-0.752971	0.097353
Cl134	Cl	0.760219	-0.013703	0.145342
H135	H	0.742973	0.003516	0.271379
Cl136	Cl	0.799176	-0.052654	0.430159
H137	H	-0.059865	0.165717	0.000079
Cl138	Cl	-0.183919	0.187258	0.000082
Cl139	Cl	0.584447	0.161977	0.854788
Cl140	Cl	0.584427	0.161977	0.715047
Cl141	Cl	0.545458	0.200896	0.569962
Cl142	Cl	0.545450	0.200897	0.430221
H143	H	0.601654	0.144770	0.271433
Cl144	Cl	0.584398	0.162010	0.145388
H145	H	0.206291	0.220907	0.000066
Cl146	Cl	0.496623	0.195408	0.000045
