data_functionalizedCrystal
_audit_creation_method	'MofGen! by Chris Wilmer'
_symmetry_space_group_name_H-M	'P1'
_symmetry_Int_Tables_number	1
_symmetry_cell_setting	triclinic
loop_
_symmetry_equiv_pos_as_xyz
  x,y,z
_cell_length_a	19.077399
_cell_length_b	19.076808
_cell_length_c	19.805399
_cell_angle_alpha	87.672943
_cell_angle_beta	92.276093
_cell_angle_gamma	94.711600
loop_
_atom_site_label
_atom_site_type_symbol
_atom_site_fract_x
_atom_site_fract_y
_atom_site_fract_z
Zn1	Zn	1.066424	-0.237392	-0.332415
Zn2	Zn	1.566424	0.262608	0.167585
Zn3	Zn	1.061601	-0.355291	-0.214855
Zn4	Zn	1.561601	0.144709	0.285145
Zn5	Zn	0.948539	-0.242147	-0.223602
Zn6	Zn	1.448539	0.257853	0.276398
Zn7	Zn	0.943769	-0.359987	-0.332365
Zn8	Zn	1.443769	0.140013	0.167635
O9	O	1.005083	-0.298704	-0.275809
O10	O	1.505083	0.201296	0.224191
O11	O	1.164433	-0.249076	-0.313181
O12	O	1.664433	0.250924	0.186819
O13	O	1.046581	-0.340307	-0.121299
O14	O	1.546581	0.159693	0.378701
O15	O	0.968191	-0.142859	-0.241719
O16	O	1.468191	0.357141	0.258281
O17	O	1.160890	-0.335696	-0.226810
O18	O	1.660890	0.164304	0.273190
O19	O	1.054801	-0.139365	-0.321663
O20	O	1.554801	0.360635	0.178337
O21	O	0.963515	-0.257181	-0.127725
O22	O	1.463515	0.242819	0.372275
O23	O	0.849257	-0.261734	-0.241669
O24	O	1.349257	0.238266	0.258331
O25	O	0.960061	-0.343700	-0.427088
O26	O	1.460061	0.156300	0.072912
O27	O	0.845753	-0.348311	-0.321576
O28	O	1.345753	0.151689	0.178424
O29	O	1.050176	-0.253630	-0.427125
O30	O	1.550176	0.246370	0.072875
O31	O	1.041956	-0.454572	-0.226761
O32	O	1.541956	0.045428	0.273239
O33	O	0.955385	-0.458022	-0.313095
O34	O	1.455385	0.041978	0.186905
C35	C	0.821927	-0.306049	-0.282567
C36	C	1.321927	0.193951	0.217433
C37	C	0.743571	-0.309208	-0.285473
C38	C	1.243571	0.190792	0.214527
C39	C	0.997648	-0.481877	-0.268987
C40	C	1.497648	0.018123	0.231013
C41	C	0.994532	-0.560236	-0.266089
C42	C	1.494532	-0.060236	0.233911
C43	C	0.708566	-0.265548	-0.245309
C44	C	1.208566	0.234452	0.254691
C45	C	0.634942	-0.268522	-0.248039
C46	C	1.134942	0.231478	0.251961
C47	C	0.596324	-0.315153	-0.290938
C48	C	1.096324	0.184847	0.209062
C49	C	0.631334	-0.358818	-0.331104
C50	C	1.131334	0.141182	0.168896
C51	C	0.704957	-0.355846	-0.328370
C52	C	1.204957	0.144154	0.171630
C53	C	0.375943	-0.328883	-0.303566
C54	C	0.875943	0.171117	0.196434
C55	C	0.302315	-0.331850	-0.306299
C56	C	0.802315	0.168150	0.193701
C57	C	0.305928	-0.241555	-0.223233
C58	C	0.805928	0.258445	0.276767
C59	C	0.379551	-0.238585	-0.220506
C60	C	0.879551	0.261415	0.279494
C61	C	0.414555	-0.282252	-0.260669
C62	C	0.914555	0.217748	0.239331
N63	N	0.521069	-0.318193	-0.293732
N64	N	1.021069	0.181807	0.206268
N65	N	0.489809	-0.279215	-0.257871
N66	N	0.989809	0.220785	0.242129
C67	C	1.038128	-0.595171	-0.306386
C68	C	1.538128	-0.095171	0.193614
C69	C	1.035197	-0.668799	-0.303664
C70	C	1.535197	-0.168799	0.196336
C71	C	0.988674	-0.707489	-0.260641
C72	C	1.488674	-0.207489	0.239359
C73	C	0.945074	-0.672549	-0.220342
C74	C	1.445074	-0.172549	0.279658
C75	C	0.948001	-0.598923	-0.223068
C76	C	1.448001	-0.098923	0.276932
C77	C	0.975083	-0.927888	-0.248024
C78	C	1.475083	-0.427888	0.251976
C79	C	0.972160	-1.001518	-0.245300
C80	C	1.472160	-0.501518	0.254700
C81	C	1.062282	-0.997763	-0.328623
C82	C	1.562282	-0.497763	0.171377
C83	C	1.065209	-0.924136	-0.331342
C84	C	1.565209	-0.424136	0.168658
C85	C	1.021606	-0.889202	-0.291046
C86	C	1.521606	-0.389202	0.208954
N87	N	0.985678	-0.782748	-0.257856
N88	N	1.485678	-0.282748	0.242144
N89	N	1.024598	-0.813945	-0.293835
N90	N	1.524598	-0.313945	0.206165
C91	C	1.188955	-0.291332	-0.269026
C92	C	1.688955	0.208668	0.230974
C93	C	1.267310	-0.288190	-0.266135
C94	C	1.767310	0.211810	0.233865
C95	C	1.005125	-0.298658	-0.452352
C96	C	1.505125	0.201342	0.047648
C97	C	1.005142	-0.298639	-0.527584
C98	C	1.505142	0.201361	-0.027584
C99	C	1.012566	-0.114816	-0.282672
C100	C	1.512566	0.385184	0.217328
C101	C	1.015755	-0.036453	-0.285597
C102	C	1.515755	0.463547	0.214403
C103	C	1.052066	-0.251737	-0.562949
C104	C	1.552066	0.248263	-0.062949
C105	C	1.052074	-0.251716	-0.633638
C106	C	1.552074	0.248284	-0.133638
C107	C	1.005161	-0.298601	-0.668961
C108	C	1.505161	0.201399	-0.168961
C109	C	0.958232	-0.345505	-0.633591
C110	C	1.458232	0.154495	-0.133591
C111	C	0.958222	-0.345522	-0.562904
C112	C	1.458222	0.154478	-0.062904
C113	C	0.958275	-0.345438	-0.918666
C114	C	1.458275	0.154562	-0.418666
C115	C	0.958291	-0.345419	-0.989358
C116	C	1.458291	0.154581	-0.489358
C117	C	1.052127	-0.251632	-0.989400
C118	C	1.552127	0.248368	-0.489400
C119	C	1.052116	-0.251649	-0.918713
C120	C	1.552116	0.248351	-0.418713
C121	C	1.005185	-0.298550	-0.883349
C122	C	1.505185	0.201450	-0.383349
C123	C	1.005176	-0.298571	-0.806700
C124	C	1.505176	0.201429	-0.306700
C125	C	1.005173	-0.298584	-0.745608
C126	C	1.505173	0.201416	-0.245608
C127	C	1.005085	-0.298698	-0.099954
C128	C	1.505085	0.201302	0.400046
C129	C	1.005212	-0.298513	-0.024724
C130	C	1.505212	0.201487	0.475276
H131	H	0.740003	-0.227570	-0.210382
H132	H	1.240003	0.272430	0.289618
O133	O	0.907631	-0.396071	-0.671690
O134	O	1.407631	0.103929	-0.171690
H135	H	0.874995	-0.428683	-0.635221
H136	H	1.374995	0.071317	-0.135221
H137	H	0.920005	-0.383707	-0.534111
H138	H	1.420005	0.116293	-0.034111
H139	H	1.090320	-0.213472	-0.889956
H140	H	1.590320	0.286528	-0.389956
H141	H	0.733457	-0.391399	-0.361076
H142	H	1.233457	0.108601	0.138924
H143	H	0.606444	-0.232974	-0.215329
H144	H	1.106444	0.267026	0.284671
H145	H	1.076015	-0.563674	-0.341417
H146	H	1.576015	-0.063674	0.158583
O147	O	1.115389	-0.882411	-0.377749
O148	O	1.615389	-0.382411	0.122251
H149	H	1.110105	-0.825345	-0.372869
H150	H	1.610105	-0.325345	0.127131
H151	H	0.934272	-1.033018	-0.210264
H152	H	1.434272	-0.533018	0.289736
O153	O	0.421203	-0.188311	-0.174216
O154	O	0.921203	0.311689	0.325784
H155	H	0.384492	-0.158461	-0.146734
H156	H	0.884492	0.341539	0.353266
H157	H	1.070702	-0.697239	-0.336473
H158	H	1.570702	-0.197239	0.163527
O159	O	0.894893	-0.714279	-0.173940
O160	O	1.394893	-0.214279	0.326060
H161	H	0.865065	-0.677615	-0.146382
H162	H	1.365065	-0.177615	0.353618
H163	H	0.270875	-0.369822	-0.341237
H164	H	0.770875	0.130178	0.158763
O165	O	0.268175	-0.194479	-0.179895
O166	O	0.768175	0.305521	0.320105
H167	H	0.210493	-0.204386	-0.188992
H168	H	0.710493	0.295614	0.311008
O169	O	1.109299	-1.035440	-0.372095
O170	O	1.609299	-0.535440	0.127905
H171	H	1.099443	-1.093137	-0.362980
H172	H	1.599443	-0.593137	0.137020
H173	H	0.920071	-0.383638	-0.889881
H174	H	1.420071	0.116362	-0.389881
H175	H	0.939581	-0.899450	-0.215212
H176	H	1.439581	-0.399450	0.284788
H177	H	0.912500	-0.570480	-0.190254
H178	H	1.412500	-0.070480	0.309746
H179	H	0.404434	-0.364440	-0.336270
H180	H	0.904434	0.135560	0.163730
O181	O	1.102665	-0.201168	-0.524852
O182	O	1.602665	0.298832	-0.024852
H183	H	1.135290	-0.168546	-0.561322
H184	H	1.635290	0.331454	-0.061322
O185	O	1.102688	-0.201134	-0.671784
O186	O	1.602688	0.298866	-0.171784
H187	H	1.135314	-0.168542	-0.635346
H188	H	1.635314	0.331458	-0.135346
O189	O	1.102730	-0.201023	-1.027542
O190	O	1.602730	0.298977	-0.527542
H191	H	1.094849	-0.208874	-1.082630
H192	H	1.594849	0.291126	-0.582630
H193	H	0.599886	-0.396789	-0.366030
H194	H	1.099886	0.103211	0.133970
O195	O	0.907680	-0.395982	-1.027459
O196	O	1.407680	0.104018	-0.527459
H197	H	0.917502	-0.450836	-1.011379
H198	H	1.417502	0.049164	-0.511379
