data_functionalizedCrystal
_audit_creation_method	'MofGen! by Chris Wilmer'
_symmetry_space_group_name_H-M	'P1'
_symmetry_Int_Tables_number	1
_symmetry_cell_setting	triclinic
loop_
_symmetry_equiv_pos_as_xyz
  x,y,z
_cell_length_a	10.723023
_cell_length_b	23.532357
_cell_length_c	22.610064
_cell_angle_alpha	89.990404
_cell_angle_beta	89.984399
_cell_angle_gamma	83.647920
loop_
_atom_site_label
_atom_site_type_symbol
_atom_site_fract_x
_atom_site_fract_y
_atom_site_fract_z
O1	O	1.654690	0.079870	-0.049191
O2	O	2.154690	0.579870	0.450809
O3	O	1.291297	0.087516	-0.049193
O4	O	1.791297	0.587516	0.450807
O5	O	1.483984	0.000831	-0.049180
O6	O	1.983984	0.500831	0.450820
O7	O	1.462003	0.166555	-0.049204
O8	O	1.962003	0.666555	0.450796
O9	O	1.483926	0.000831	0.049189
O10	O	1.983926	0.500831	0.549189
O11	O	1.291239	0.087516	0.049176
O12	O	1.791239	0.587516	0.549176
O13	O	1.654632	0.079870	0.049178
O14	O	2.154632	0.579870	0.549178
Zn15	Zn	1.472926	0.083693	0.064795
Zn16	Zn	1.972926	0.583693	0.564795
Zn17	Zn	1.473003	0.083693	-0.064810
Zn18	Zn	1.973003	0.583693	0.435190
O19	O	1.461945	0.166556	0.049165
O20	O	1.961945	0.666556	0.549165
C21	C	1.244785	0.086960	-0.000009
C22	C	1.744785	0.586960	0.499991
C23	C	1.106284	0.085295	-0.000009
C24	C	1.606284	0.585295	0.499991
C25	C	0.901363	0.082833	0.050947
C26	C	1.401363	0.582833	0.550947
C27	C	1.044512	0.084554	0.050949
C28	C	1.544512	0.584554	0.550949
C29	C	1.483405	-0.020389	0.000007
C30	C	1.983405	0.479611	0.500007
C31	C	1.481752	-0.083619	0.000012
C32	C	1.981752	0.416381	0.500012
C33	C	1.471406	-0.475698	-0.053641
C34	C	1.971406	0.024302	0.446359
C35	C	1.469835	-0.535107	-0.053644
C36	C	1.969835	-0.035107	0.446356
O37	O	1.469007	-0.565829	-0.099247
O38	O	1.969007	-0.065829	0.400753
N39	N	1.469024	-0.564823	-0.000024
N40	N	1.969024	-0.064823	0.499976
C41	C	1.469772	-0.535126	0.053603
C42	C	1.969772	-0.035126	0.553603
O43	O	1.468937	-0.565857	0.099211
O44	O	1.968937	-0.065857	0.599211
C45	C	1.471334	-0.475717	0.053606
C46	C	1.971334	0.024283	0.553606
C47	C	1.472158	-0.446004	-0.000018
C48	C	1.972158	0.053996	0.499982
C49	C	1.472228	-0.445985	-0.107260
C50	C	1.972228	0.054015	0.392740
C51	C	1.473802	-0.386580	-0.107257
C52	C	1.973802	0.113420	0.392743
C53	C	1.474553	-0.356887	-0.053634
C54	C	1.974553	0.143113	0.446366
C55	C	1.473731	-0.386599	-0.000014
C56	C	1.973731	0.113401	0.499986
C57	C	1.472073	-0.446020	0.107233
C58	C	1.972073	0.053980	0.607233
C59	C	1.473635	-0.386607	0.107231
C60	C	1.973635	0.113393	0.607231
C61	C	1.474458	-0.356894	0.053607
C62	C	1.974458	0.143106	0.553607
C63	C	1.476056	-0.297501	0.053612
C64	C	1.976056	0.202499	0.553612
N65	N	1.476867	-0.267785	-0.000008
N66	N	1.976867	0.232215	0.499992
C67	C	1.476116	-0.297478	-0.053631
C68	C	1.976116	0.202522	0.446369
C69	C	1.466488	-0.659889	0.053593
C70	C	1.966488	-0.159889	0.553593
C71	C	1.464935	-0.719297	0.053591
C72	C	1.964935	-0.219297	0.553591
C73	C	1.464996	-0.719274	-0.053657
C74	C	1.964996	-0.219274	0.446343
C75	C	1.466558	-0.659865	-0.053654
C76	C	1.966558	-0.159865	0.446346
C77	C	1.467299	-0.630173	-0.000027
C78	C	1.967299	-0.130173	0.499973
C79	C	1.479422	-0.172722	-0.053619
C80	C	1.979422	0.327278	0.446381
C81	C	1.481001	-0.113312	-0.053611
C82	C	1.981001	0.386688	0.446389
C83	C	1.480933	-0.113339	0.053636
C84	C	1.980933	0.386661	0.553636
C85	C	1.479361	-0.172745	0.053628
C86	C	1.979361	0.327255	0.553628
C87	C	1.478601	-0.202435	-0.000004
C88	C	1.978601	0.297565	0.499996
O89	O	1.476880	-0.266741	0.099192
O90	O	1.976880	0.233259	0.599192
O91	O	1.476935	-0.266739	-0.099231
O92	O	1.976935	0.233261	0.400769
C93	C	1.701143	0.080427	-0.000008
C94	C	2.201143	0.580427	0.499992
C95	C	1.839645	0.082091	-0.000011
C96	C	2.339645	0.582091	0.499989
C97	C	1.462524	0.187776	-0.000023
C98	C	1.962524	0.687776	0.499977
C99	C	1.464177	0.251005	-0.000032
C100	C	1.964177	0.751005	0.499968
N101	N	1.472883	0.083694	0.153248
N102	N	1.972883	0.583694	0.653248
C103	C	1.548223	0.118547	0.561884
C104	C	2.048223	0.618547	1.061884
C105	C	1.548238	0.118547	0.623804
C106	C	2.048238	0.618547	1.123804
O107	O	1.612251	0.148174	0.655819
O108	O	2.112251	0.648174	1.155819
N109	N	1.473013	0.083692	0.654785
N110	N	1.973013	0.583692	1.154785
C111	C	1.397779	0.048832	0.623842
C112	C	1.897779	0.548832	1.123842
O113	O	1.333797	0.019186	0.655880
O114	O	1.833797	0.519186	1.155880
C115	C	1.397772	0.048831	0.561924
C116	C	1.897772	0.548831	1.061924
C117	C	1.472992	0.083691	0.530946
C118	C	1.972992	0.583691	1.030946
C119	C	1.623438	0.153405	0.530907
C120	C	2.123438	0.653405	1.030907
C121	C	1.623421	0.153406	0.468991
C122	C	2.123421	0.653406	0.968991
C123	C	1.548190	0.118550	0.438053
C124	C	2.048190	0.618550	0.938053
C125	C	1.472975	0.083693	0.469031
C126	C	1.972975	0.583693	0.969031
C127	C	1.322545	0.013968	0.530982
C128	C	1.822545	0.513968	1.030982
C129	C	1.322546	0.013969	0.469059
C130	C	1.822546	0.513969	0.969059
C131	C	1.397765	0.048830	0.438082
C132	C	1.897765	0.548830	0.938082
C133	C	1.397727	0.048838	0.376177
C134	C	1.897727	0.548838	0.876177
N135	N	1.472952	0.083693	0.345196
N136	N	1.972952	0.583693	0.845196
C137	C	1.548183	0.118549	0.376134
C138	C	2.048183	0.618549	0.876134
C139	C	1.397801	0.048838	0.753876
C140	C	1.897801	0.548838	1.253876
C141	C	1.397800	0.048843	0.815794
C142	C	1.897800	0.548843	1.315794
C143	C	1.548261	0.118556	0.815751
C144	C	2.048261	0.618556	1.315751
C145	C	1.548254	0.118554	0.753832
C146	C	2.048254	0.618554	1.253832
C147	C	1.473025	0.083692	0.722895
C148	C	1.973025	0.583692	1.222895
C149	C	1.548142	0.118549	0.246107
C150	C	2.048142	0.618549	0.746107
C151	C	1.548114	0.118550	0.184186
C152	C	2.048114	0.618550	0.684186
C153	C	1.397659	0.048834	0.184234
C154	C	1.897659	0.548834	0.684234
C155	C	1.397681	0.048836	0.246149
C156	C	1.897681	0.548836	0.746149
C157	C	1.472932	0.083695	0.277085
C158	C	1.972932	0.583695	0.777085
O159	O	1.333751	0.019224	0.344123
O160	O	1.833751	0.519224	0.844123
O161	O	1.612167	0.148185	0.344090
O162	O	2.112167	0.648185	0.844090
N163	N	1.473037	0.083697	0.846737
N164	N	1.973037	0.583697	1.346737
H165	H	1.481674	-0.089123	-0.097280
H166	H	1.981674	0.410877	0.402720
N167	N	1.478637	-0.204741	-0.111464
N168	N	1.978637	0.295259	0.388536
H169	H	1.479411	-0.176898	-0.145427
H170	H	1.979411	0.323102	0.354573
H171	H	1.555361	-0.233702	-0.113791
H172	H	2.055361	0.266298	0.386209
N173	N	0.910008	0.082936	-0.057805
N174	N	1.410008	0.582936	0.442195
H175	H	0.953444	0.118826	-0.060169
H176	H	1.453444	0.618826	0.439831
H177	H	0.974509	0.048320	-0.060123
H178	H	1.474509	0.548320	0.439877
H179	H	1.474468	-0.362393	-0.150923
H180	H	1.974468	0.137607	0.349077
H181	H	1.684707	0.181789	0.556090
H182	H	2.184707	0.681789	1.056090
N183	N	0.830628	0.081854	0.108627
N184	N	1.330628	0.581854	0.608627
H185	H	0.842287	0.117319	0.132225
H186	H	1.342287	0.617319	0.632225
H187	H	0.738472	0.080684	0.100166
H188	H	1.238472	0.580684	0.600166
N189	N	1.464063	-0.751337	0.111431
N190	N	1.964063	-0.251337	0.611431
H191	H	1.386052	-0.771667	0.113823
H192	H	1.886052	-0.271667	0.613823
H193	H	1.540822	-0.780274	0.113788
H194	H	2.040822	-0.280274	0.613788
N195	N	1.478505	-0.204798	0.111463
N196	N	1.978505	0.295202	0.611463
H197	H	1.400496	-0.225130	0.113856
H198	H	1.900496	0.274870	0.613856
H199	H	1.555266	-0.233736	0.113809
H200	H	2.055266	0.266264	0.613809
N201	N	1.241430	-0.023641	0.564381
N202	N	1.741430	0.476359	1.064381
H203	H	1.252839	-0.018359	0.608303
H204	H	1.752839	0.481641	1.108303
H205	H	1.150539	-0.012773	0.553569
H206	H	1.650539	0.487227	1.053569
H207	H	1.609517	0.146939	0.840952
H208	H	2.109517	0.646939	1.340952
N209	N	1.471503	-0.478010	-0.165101
N210	N	1.971503	0.021990	0.334899
H211	H	1.472290	-0.450166	-0.199063
H212	H	1.972290	0.049834	0.300937
H213	H	1.548250	-0.506959	-0.167411
H214	H	2.048250	-0.006959	0.332589
N215	N	1.467446	-0.627821	-0.111490
N216	N	1.967446	-0.127821	0.388510
H217	H	1.466737	-0.655651	-0.145457
H218	H	1.966737	-0.155651	0.354543
H219	H	1.390733	-0.598855	-0.113830
H220	H	1.890733	-0.098855	0.386170
H221	H	1.261285	-0.014421	0.443874
H222	H	1.761285	0.485579	0.943874
N223	N	1.464184	-0.751306	-0.111495
N224	N	1.964184	-0.251306	0.388505
H225	H	1.463065	-0.793449	-0.103356
H226	H	1.963065	-0.293449	0.396644
H227	H	1.387109	-0.736602	-0.134912
H228	H	1.887109	-0.236602	0.365088
H229	H	1.097589	0.085189	0.094576
H230	H	1.597589	0.585189	0.594576
N231	N	1.035989	0.084450	-0.057802
N232	N	1.535989	0.584450	0.442198
H233	H	1.048021	0.119961	-0.081265
H234	H	1.548021	0.619961	0.418735
H235	H	1.069188	0.049457	-0.081206
H236	H	1.569188	0.549457	0.418794
N237	N	1.467302	-0.627866	0.111437
N238	N	1.967302	-0.127866	0.611437
H239	H	1.466555	-0.655710	0.145401
H240	H	1.966555	-0.155710	0.645401
H241	H	1.545313	-0.607536	0.113776
H242	H	2.045313	-0.107536	0.613776
N243	N	1.474438	-0.354578	0.165070
N244	N	1.974438	0.145422	0.665070
H245	H	1.396791	-0.360603	0.188510
H246	H	1.896791	0.139397	0.688510
H247	H	1.551559	-0.369256	0.188467
H248	H	2.051559	0.130744	0.688467
N249	N	1.471187	-0.478057	0.165070
N250	N	1.971187	0.021943	0.665070
H251	H	1.471893	-0.450223	0.199035
H252	H	1.971893	0.049777	0.699035
H253	H	1.393172	-0.498387	0.167405
H254	H	1.893172	0.001613	0.667405
N255	N	1.481755	-0.081308	0.111471
N256	N	1.981755	0.418692	0.611471
H257	H	1.482873	-0.039165	0.103331
H258	H	1.982873	0.460835	0.603331
H259	H	1.404104	-0.087375	0.134885
H260	H	1.904104	0.412625	0.634885
H261	H	1.609367	0.146940	0.158967
H262	H	2.109367	0.646940	0.658967
N263	N	1.629316	0.156141	0.279467
N264	N	2.129316	0.656141	0.779467
H265	H	1.676958	0.178219	0.250440
H266	H	2.176958	0.678219	0.750440
H267	H	1.574576	0.183757	0.305165
H268	H	2.074576	0.683757	0.805165
H269	H	1.684678	0.181791	0.443775
H270	H	2.184678	0.681791	0.943775
N271	N	1.316532	0.011237	0.150857
N272	N	1.816532	0.511237	0.650857
H273	H	1.341695	-0.030095	0.161638
H274	H	1.841695	0.469905	0.661638
H275	H	1.225632	0.022132	0.161655
H276	H	1.725632	0.522132	0.661655
N277	N	1.629385	0.156152	0.720423
N278	N	2.129385	0.656152	1.220423
H279	H	1.677039	0.178232	0.749424
H280	H	2.177039	0.678232	1.249424
H281	H	1.690703	0.131576	0.694730
H282	H	2.190703	0.631576	1.194730
N283	N	1.316668	0.011244	0.849202
N284	N	1.816668	0.511244	1.349202
H285	H	1.269015	-0.010836	0.820201
H286	H	1.769015	0.489164	1.320201
H287	H	1.371443	-0.016369	0.874883
H288	H	1.871443	0.483631	1.374883
N289	N	1.316650	0.011238	0.720510
N290	N	1.816650	0.511238	1.220510
H291	H	1.269001	-0.010839	0.749536
H292	H	1.769001	0.489161	1.249536
H293	H	1.255327	0.035812	0.694825
H294	H	1.755327	0.535812	1.194825
H295	H	1.336415	0.020457	0.271373
H296	H	1.836415	0.520457	0.771373
