data_functionalizedCrystal
_audit_creation_method	'MofGen! by Chris Wilmer'
_symmetry_space_group_name_H-M	'P1'
_symmetry_Int_Tables_number	1
_symmetry_cell_setting	triclinic
loop_
_symmetry_equiv_pos_as_xyz
  x,y,z
_cell_length_a	14.908571
_cell_length_b	16.120444
_cell_length_c	14.908308
_cell_angle_alpha	95.986749
_cell_angle_beta	90.175053
_cell_angle_gamma	89.788391
loop_
_atom_site_label
_atom_site_type_symbol
_atom_site_fract_x
_atom_site_fract_y
_atom_site_fract_z
Zn1	Zn	1.320089	-0.434924	-0.609966
Zn2	Zn	1.820089	0.065076	-0.109966
Zn3	Zn	1.321029	-0.566746	-0.466391
Zn4	Zn	1.821029	-0.066746	0.033609
Zn5	Zn	1.179332	-0.418916	-0.450140
Zn6	Zn	1.679332	0.081084	0.049860
Zn7	Zn	1.162114	-0.565756	-0.607991
Zn8	Zn	1.662114	-0.065756	-0.107991
O9	O	1.245641	-0.496586	-0.533622
O10	O	1.745641	0.003414	-0.033622
O11	O	1.445627	-0.459524	-0.598548
O12	O	1.945627	0.040476	-0.098548
O13	O	1.309832	-0.540851	-0.338087
O14	O	1.809832	-0.040851	0.161913
O15	O	1.204815	-0.304419	-0.465366
O16	O	1.704815	0.195581	0.034634
O17	O	1.446318	-0.556373	-0.493063
O18	O	1.946318	-0.056373	0.006937
O19	O	1.308229	-0.316180	-0.582790
O20	O	1.808229	0.183820	-0.082790
O21	O	1.205727	-0.432242	-0.326147
O22	O	1.705727	0.067758	0.173853
O23	O	1.051634	-0.431281	-0.463452
O24	O	1.551634	0.068719	0.036548
O25	O	1.175471	-0.554686	-0.734401
O26	O	1.675471	-0.054686	-0.234401
O27	O	1.038984	-0.539164	-0.579424
O28	O	1.538984	-0.039164	-0.079424
O29	O	1.291534	-0.458564	-0.735852
O30	O	1.791534	0.041436	-0.235852
O31	O	1.293136	-0.683236	-0.491149
O32	O	1.793136	-0.183236	0.008851
O33	O	1.176382	-0.682508	-0.595182
O34	O	1.676382	-0.182508	-0.095182
C35	C	1.012791	-0.483379	-0.519461
C36	C	1.512791	0.016621	-0.019461
C37	C	0.913174	-0.477750	-0.513425
C38	C	1.413174	0.022250	-0.013425
C39	C	1.233016	-0.713113	-0.544736
C40	C	1.733016	-0.213113	-0.044736
C41	C	1.227696	-0.805750	-0.549525
C42	C	1.727696	-0.305750	-0.049525
C43	C	0.712859	-0.579668	-0.622700
C44	C	1.212859	-0.079668	-0.122700
C45	C	0.619260	-0.574382	-0.617032
C46	C	1.119260	-0.074382	-0.117032
C47	C	0.632375	-0.461888	-0.496427
C48	C	1.132375	0.038112	0.003573
C49	C	0.725974	-0.467174	-0.502095
C50	C	1.225974	0.032826	-0.002095
C51	C	0.766213	-0.526067	-0.565232
C52	C	1.266213	-0.026067	-0.065232
C53	C	0.859814	-0.531357	-0.570895
C54	C	1.359814	-0.031357	-0.070895
C55	C	0.872926	-0.418859	-0.450295
C56	C	1.372926	0.081141	0.049705
C57	C	0.779327	-0.413573	-0.444627
C58	C	1.279327	0.086427	0.055373
C59	C	1.273450	-1.016974	-0.508982
C60	C	1.773450	-0.516974	-0.008982
C61	C	1.217997	-0.975356	-0.558281
C62	C	1.717997	-0.475356	-0.058281
C63	C	1.223395	-0.880979	-0.553408
C64	C	1.723395	-0.380979	-0.053408
C65	C	1.268053	-1.111360	-0.513854
C66	C	1.768053	-0.611360	-0.013854
C67	C	1.479400	-0.509845	-0.547839
C68	C	1.979400	-0.009845	-0.047839
C69	C	1.579014	-0.515495	-0.553897
C70	C	2.079014	-0.015495	-0.053897
C71	C	1.231477	-0.508300	-0.768750
C72	C	1.731477	-0.008300	-0.268750
C73	C	1.225441	-0.513292	-0.868948
C74	C	1.725441	-0.013292	-0.368948
C75	C	1.258338	-0.279215	-0.522486
C76	C	1.758338	0.220785	-0.022486
C77	C	1.263749	-0.186585	-0.517740
C78	C	1.763749	0.313415	-0.017740
C79	C	1.334954	-0.422562	-1.058741
C80	C	1.834954	0.077438	-0.558741
C81	C	1.329286	-0.427249	-1.152885
C82	C	1.829286	0.072751	-0.652885
C83	C	1.208432	-0.527350	-1.151383
C84	C	1.708432	-0.027350	-0.651383
C85	C	1.214101	-0.522663	-1.057238
C86	C	1.714101	-0.022663	-0.557238
C87	C	1.277364	-0.470267	-1.010921
C88	C	1.777364	0.029733	-0.510921
C89	C	1.283036	-0.465585	-0.916775
C90	C	1.783036	0.034415	-0.416775
C91	C	1.162179	-0.565681	-0.915273
C92	C	1.662179	-0.065681	-0.415273
C93	C	1.156511	-0.570368	-1.009418
C94	C	1.656511	-0.070368	-0.509418
C95	C	1.259805	-0.484860	-0.299408
C96	C	1.759805	0.015140	0.200592
C97	C	1.266028	-0.479643	-0.199210
C98	C	1.766028	0.020357	0.300790
H99	H	0.892574	-0.579312	-0.622304
H100	H	1.392574	-0.079312	-0.122304
H101	H	1.156926	-0.570007	-1.189111
H102	H	1.656926	-0.070007	-0.689111
C103	C	1.392641	-0.374771	-1.205485
C104	C	1.892641	0.125229	-0.705485
N105	N	1.440363	-0.335243	-1.245102
N106	N	1.940363	0.164757	-0.745102
H107	H	0.745623	-0.627625	-0.674104
H108	H	1.245623	-0.127625	-0.174104
C109	C	1.343051	-0.969355	-0.447016
C110	C	1.843051	-0.469355	0.052984
N111	N	1.395470	-0.933478	-0.400340
N112	N	1.895470	-0.433478	0.099660
C113	C	1.148379	-1.022974	-0.620237
C114	C	1.648379	-0.522974	-0.120237
N115	N	1.095941	-1.058843	-0.666897
N116	N	1.595941	-0.558843	-0.166897
C117	C	0.560575	-0.633353	-0.680245
C118	C	1.060575	-0.133353	-0.180245
N119	N	0.516372	-0.677774	-0.727858
N120	N	1.016372	-0.177774	-0.227858
H121	H	0.599595	-0.413936	-0.445029
H122	H	1.099595	0.086064	0.054971
H123	H	1.334550	-0.422923	-0.879065
H124	H	1.834550	0.077077	-0.379065
H125	H	1.386470	-0.379904	-1.021029
H126	H	1.886470	0.120096	-0.521029
C127	C	1.086918	-0.627994	-1.060377
C128	C	1.586918	-0.127994	-0.560377
N129	N	1.034499	-0.671398	-1.098759
N130	N	1.534499	-0.171398	-0.598759
H131	H	0.746551	-0.365623	-0.393225
H132	H	1.246551	0.134377	0.106775
C133	C	0.931623	-0.359897	-0.387074
C134	C	1.431623	0.140103	0.112926
N135	N	0.975834	-0.315490	-0.339455
N136	N	1.475834	0.184510	0.160545
H137	H	1.115288	-0.604529	-0.876328
H138	H	1.615288	-0.104529	-0.376328
