data_functionalizedCrystal
_audit_creation_method	'MofGen! by Chris Wilmer'
_symmetry_space_group_name_H-M	'P1'
_symmetry_Int_Tables_number	1
_symmetry_cell_setting	triclinic
loop_
_symmetry_equiv_pos_as_xyz
  x,y,z
_cell_length_a	18.101398
_cell_length_b	16.625546
_cell_length_c	16.625539
_cell_angle_alpha	90.030397
_cell_angle_beta	89.974087
_cell_angle_gamma	89.982266
loop_
_atom_site_label
_atom_site_type_symbol
_atom_site_fract_x
_atom_site_fract_y
_atom_site_fract_z
Zn1	Zn	1.132177	0.321102	-0.456013
Zn2	Zn	1.465510	0.654435	-0.122679
Zn3	Zn	1.798844	0.987769	0.210654
Zn4	Zn	1.132088	0.455945	-0.321175
Zn5	Zn	1.465422	0.789278	0.012159
Zn6	Zn	1.798755	1.122612	0.345492
Zn7	Zn	1.008333	0.321119	-0.321181
Zn8	Zn	1.341666	0.654452	0.012153
Zn9	Zn	1.674999	0.987786	0.345486
Zn10	Zn	1.008305	0.455885	-0.455952
Zn11	Zn	1.341639	0.789218	-0.122619
Zn12	Zn	1.674972	1.122552	0.210715
O13	O	1.070226	0.388513	-0.388580
O14	O	1.403559	0.721846	-0.055247
O15	O	1.736892	1.055179	0.278087
O16	O	1.235798	0.339007	-0.438149
O17	O	1.569131	0.672340	-0.104816
O18	O	1.902465	1.005674	0.228518
O19	O	1.115646	0.438092	-0.208343
O20	O	1.448979	0.771426	0.124990
O21	O	1.782313	1.104759	0.458324
O22	O	1.024809	0.208284	-0.339094
O23	O	1.358143	0.541618	-0.005761
O24	O	1.691476	0.874951	0.327573
O25	O	1.235733	0.438076	-0.339084
O26	O	1.569066	0.771409	-0.005751
O27	O	1.902400	1.104742	0.327582
O28	O	1.115797	0.208272	-0.438154
O29	O	1.449131	0.541605	-0.104821
O30	O	1.782464	0.874938	0.228512
O31	O	1.024723	0.339036	-0.208347
O32	O	1.358057	0.672370	0.124986
O33	O	1.691390	1.005703	0.458319
O34	O	0.904696	0.338978	-0.339035
O35	O	1.238029	0.672311	-0.005702
O36	O	1.571363	1.005645	0.327631
O37	O	1.024763	0.437974	-0.568793
O38	O	1.358096	0.771307	-0.235459
O39	O	1.691430	1.104640	0.097874
O40	O	0.904676	0.437990	-0.438051
O41	O	1.238009	0.771324	-0.104718
O42	O	1.571343	1.104657	0.228615
O43	O	1.115771	0.338949	-0.568837
O44	O	1.449104	0.672282	-0.235504
O45	O	1.782438	1.005616	0.097830
O46	O	1.115620	0.568770	-0.339026
O47	O	1.448953	0.902103	-0.005692
O48	O	1.782286	1.235436	0.327641
O49	O	1.024677	0.568725	-0.438046
O50	O	1.358010	0.902059	-0.104713
O51	O	1.691344	1.235392	0.228621
C52	C	1.070156	0.598004	-0.388546
C53	C	1.403489	0.931337	-0.055213
C54	C	1.736822	1.264670	0.278120
C55	C	1.070193	0.687625	-0.388559
C56	C	1.403527	1.020958	-0.055225
C57	C	1.736860	1.354291	0.278108
C58	C	0.877815	0.388480	-0.388538
C59	C	1.211149	0.721813	-0.055205
C60	C	1.544482	1.055147	0.278129
C61	C	0.795501	0.388485	-0.388539
C62	C	1.128834	0.721819	-0.055206
C63	C	1.462168	1.055152	0.278128
C64	C	1.070274	0.388453	-0.598889
C65	C	1.403607	0.721786	-0.265556
C66	C	1.736941	1.055119	0.067778
C67	C	1.070294	0.388427	-0.688510
C68	C	1.403628	0.721760	-0.355177
C69	C	1.736961	1.055094	-0.021844
C70	C	0.496410	0.388536	-0.388607
C71	C	0.829744	0.721869	-0.055273
C72	C	1.163077	1.055202	0.278060
C73	C	0.527723	0.325929	-0.326612
C74	C	0.861057	0.659262	0.006721
C75	C	1.194390	0.992595	0.340054
C76	C	0.613341	0.326097	-0.326348
C77	C	0.946675	0.659430	0.006985
C78	C	1.280008	0.992763	0.340319
C79	C	0.644793	0.388510	-0.388573
C80	C	0.978126	0.721843	-0.055240
C81	C	1.311459	1.055177	0.278094
C82	C	0.613686	0.473447	-0.365354
C83	C	0.947019	0.806781	-0.032021
C84	C	1.280352	1.140114	0.301313
C85	C	0.528041	0.473099	-0.364923
C86	C	0.861374	0.806433	-0.031590
C87	C	1.194707	1.139766	0.301744
C88	C	0.528024	0.366944	-0.473966
C89	C	0.861357	0.700278	-0.140633
C90	C	1.194691	1.033611	0.192700
C91	C	0.613675	0.365053	-0.473500
C92	C	0.947008	0.698386	-0.140167
C93	C	1.280341	1.031719	0.193166
C94	C	0.728652	0.388501	-0.388556
C95	C	1.061986	0.721834	-0.055222
C96	C	1.395319	1.055168	0.278111
C97	C	0.412551	0.388551	-0.388622
C98	C	0.745884	0.721884	-0.055289
C99	C	1.079217	1.055217	0.278044
C100	C	1.263388	0.388546	-0.388623
C101	C	1.596721	0.721880	-0.055289
C102	C	1.930054	1.055213	0.278044
C103	C	1.345702	0.388560	-0.388641
C104	C	1.679035	0.721894	-0.055308
C105	C	2.012368	1.055227	0.278026
C106	C	1.070316	0.178204	-0.388632
C107	C	1.403650	0.511537	-0.055298
C108	C	1.736983	0.844871	0.278035
C109	C	1.070355	0.088583	-0.388654
C110	C	1.403688	0.421916	-0.055320
C111	C	1.737022	0.755249	0.278013
C112	C	1.070323	1.015800	-0.388643
C113	C	1.403656	1.349134	-0.055309
C114	C	1.736989	1.682467	0.278024
C115	C	1.070284	0.924492	-0.388622
C116	C	1.403618	1.257825	-0.055288
C117	C	1.736951	1.591159	0.278045
C118	C	1.070257	0.851715	-0.388600
C119	C	1.403591	1.185049	-0.055267
C120	C	1.736924	1.518382	0.278066
C121	C	1.070220	0.760401	-0.388580
C122	C	1.403554	1.093735	-0.055247
C123	C	1.736887	1.427068	0.278087
C124	C	1.070329	0.388337	-1.016686
C125	C	1.403662	0.721670	-0.683353
C126	C	1.736995	1.055004	-0.350019
C127	C	1.070317	0.388365	-0.925378
C128	C	1.403650	0.721698	-0.592044
C129	C	1.736984	1.055031	-0.258711
C130	C	1.070312	0.388383	-0.852601
C131	C	1.403645	0.721716	-0.519268
C132	C	1.736979	1.055049	-0.185934
C133	C	1.070300	0.388409	-0.761287
C134	C	1.403633	0.721742	-0.427953
C135	C	1.736966	1.055076	-0.094620
C136	C	1.070220	0.388514	-0.179089
C137	C	1.403554	0.721848	0.154244
C138	C	1.736887	1.055181	0.487577
C139	C	1.070343	0.388313	-0.089469
C140	C	1.403677	0.721646	0.243865
C141	C	1.737010	1.054980	0.577198
H142	H	0.634374	0.263112	-0.340902
H143	H	0.967707	0.596446	-0.007569
H144	H	1.301040	0.929779	0.325764
O145	O	0.500591	0.536983	-0.422116
O146	O	0.833925	0.870316	-0.088783
O147	O	1.167258	1.203649	0.244551
H148	H	0.466561	0.508508	-0.469789
H149	H	0.799894	0.841841	-0.136455
H150	H	1.133228	1.175174	0.196878
O151	O	0.640668	0.536901	-0.423285
O152	O	0.974001	0.870235	-0.089952
O153	O	1.307335	1.203568	0.243382
H154	H	0.676625	0.508505	-0.469348
H155	H	1.009958	0.841839	-0.136015
H156	H	1.343292	1.175172	0.197319
O157	O	0.640614	0.282261	-0.496698
O158	O	0.973948	0.615594	-0.163364
O159	O	1.307281	0.948928	0.169969
H160	H	0.618382	0.266127	-0.556784
H161	H	0.951715	0.599461	-0.223450
H162	H	1.285049	0.932794	0.109883
O163	O	0.642055	0.498128	-0.283591
O164	O	0.975389	0.831462	0.049742
O165	O	1.308722	1.164795	0.383076
H166	H	0.619685	0.558280	-0.267845
H167	H	0.953019	0.891613	0.065489
H168	H	1.286352	1.224946	0.398822
O169	O	0.642018	0.421074	-0.537957
O170	O	0.975352	0.754407	-0.204624
O171	O	1.308685	1.087740	0.128710
H172	H	0.703239	0.417928	-0.540082
H173	H	1.036573	0.751261	-0.206749
H174	H	1.369906	1.084595	0.126584
H175	H	0.506444	0.306086	-0.495077
H176	H	0.839778	0.639420	-0.161743
H177	H	1.173111	0.972753	0.171590
O178	O	0.501196	0.427335	-0.535160
O179	O	0.834529	0.760668	-0.201827
O180	O	1.167862	1.094002	0.131506
H181	H	0.520237	0.488366	-0.517769
H182	H	0.853570	0.821700	-0.184436
H183	H	1.186904	1.155033	0.148898
H184	H	0.633795	0.340370	-0.263097
H185	H	0.967129	0.673704	0.070236
H186	H	1.300462	1.007037	0.403569
O187	O	0.500414	0.242258	-0.345661
O188	O	0.833747	0.575591	-0.012328
O189	O	1.167081	0.908924	0.321006
H190	H	0.518819	0.224954	-0.406968
H191	H	0.852152	0.558287	-0.073635
H192	H	1.185486	0.891620	0.259698
O193	O	0.499204	0.344629	-0.243309
O194	O	0.832538	0.677962	0.090024
O195	O	1.165871	1.011295	0.423358
H196	H	0.462823	0.398319	-0.245868
H197	H	0.796157	0.731652	0.087465
H198	H	1.129490	1.064986	0.420799
H199	H	0.508030	0.491410	-0.302521
H200	H	0.841363	0.824743	0.030812
H201	H	1.174696	1.158077	0.364146
