data_functionalizedCrystal
_audit_creation_method	'MofGen! by Chris Wilmer'
_symmetry_space_group_name_H-M	'P1'
_symmetry_Int_Tables_number	1
_symmetry_cell_setting	triclinic
loop_
_symmetry_equiv_pos_as_xyz
  x,y,z
_cell_length_a	10.654556
_cell_length_b	12.811415
_cell_length_c	9.130313
_cell_angle_alpha	84.564622
_cell_angle_beta	89.998135
_cell_angle_gamma	84.264596
loop_
_atom_site_label
_atom_site_type_symbol
_atom_site_fract_x
_atom_site_fract_y
_atom_site_fract_z
O1	O	1.667069	0.147458	-0.141327
O2	O	1.301519	0.161497	-0.143206
O3	O	1.493490	0.001752	-0.121974
O4	O	1.475097	0.307203	-0.162559
O5	O	1.493477	0.001748	0.121625
O6	O	1.301505	0.161493	0.100393
O7	O	1.667056	0.147454	0.102272
Cu8	Cu	1.484279	0.154473	0.123575
Cu9	Cu	1.484295	0.154478	-0.164509
O10	O	1.475084	0.307199	0.081040
C11	C	1.254719	0.160463	-0.021271
C12	C	1.115293	0.157375	-0.020867
C13	C	0.918777	0.153029	-0.153064
C14	C	1.049784	0.155924	-0.153458
C15	C	1.049789	0.155919	0.112128
C16	C	0.918785	0.153016	0.112521
C17	C	1.492453	-0.037362	0.005019
C18	C	1.489366	-0.153903	0.020494
C19	C	1.483557	-0.372879	-0.216030
C20	C	1.480657	-0.482379	-0.201497
C21	C	1.480656	-0.482405	0.064092
C22	C	1.483556	-0.372905	0.049559
C23	C	1.485009	-0.318145	-0.090507
C24	C	1.487918	-0.208644	-0.105038
C25	C	1.487908	-0.208671	0.160549
C26	C	1.485008	-0.318171	0.175082
C27	C	1.713855	0.148488	-0.019666
C28	C	1.853282	0.151577	-0.020080
C29	C	1.476122	0.346313	-0.045956
C30	C	1.479208	0.462854	-0.061441
N31	N	1.484278	0.154468	0.326199
N32	N	1.484307	0.154475	-0.367131
C33	C	1.569311	0.083763	0.412248
C34	C	1.569323	0.083763	0.565585
C35	C	1.399264	0.225183	0.546808
C36	C	1.399247	0.225177	0.393475
H37	H	1.103137	0.157093	0.220086
C38	C	0.846731	0.151417	0.258815
C39	C	0.850950	0.242798	0.356226
C40	C	0.778898	0.241193	0.502513
C41	C	0.702627	0.148209	0.551389
C42	C	0.698404	0.056821	0.453975
C43	C	0.770457	0.058426	0.307688
H44	H	0.907414	0.311637	0.320047
H45	H	0.782024	0.308845	0.574624
H46	H	0.649289	0.147021	0.659679
H47	H	0.641941	-0.012018	0.490154
H48	H	0.767331	-0.009226	0.235577
C49	C	1.489506	-0.148467	0.298640
C50	C	1.382584	-0.062066	0.323710
C51	C	1.384189	-0.001864	0.461798
C52	C	1.492715	-0.028063	0.574816
C53	C	1.599646	-0.114467	0.549749
C54	C	1.598041	-0.174669	0.411661
H55	H	1.302238	-0.042669	0.240044
H56	H	1.305031	0.062098	0.480354
H57	H	1.493904	0.016502	0.677038
H58	H	1.679991	-0.133865	0.633415
H59	H	1.677198	-0.238632	0.393105
C60	C	1.121831	0.157523	-0.299742
C61	C	1.198117	0.250498	-0.348621
C62	C	1.270165	0.252094	-0.494911
C63	C	1.265927	0.160716	-0.592321
C64	C	1.189637	0.067734	-0.543444
C65	C	1.117590	0.066138	-0.397154
H66	H	1.201258	0.318148	-0.276510
H67	H	1.326639	0.320926	-0.531092
H68	H	1.319261	0.161897	-0.700614
H69	H	1.186497	0.000084	-0.615555
H70	H	1.061115	-0.002694	-0.360973
H71	H	1.489104	-0.164061	-0.219087
H72	H	1.484751	-0.328294	-0.330076
H73	H	1.479471	-0.526938	-0.303711
C74	C	1.305742	0.302968	0.620812
C75	C	1.305827	0.303045	0.789463
C76	C	1.212305	0.380835	0.863461
C77	C	1.118699	0.458549	0.768807
C78	C	1.118612	0.458476	0.600146
C79	C	1.212133	0.380685	0.526148
H80	H	1.375122	0.245514	0.859540
H81	H	1.212371	0.380890	0.988315
H82	H	1.049469	0.516135	0.823585
H83	H	1.049316	0.516007	0.530069
H84	H	1.212067	0.380631	0.401294
H85	H	1.479463	-0.527008	0.178126
C86	C	1.662833	0.005978	0.338244
C87	C	1.756362	-0.071801	0.432906
C88	C	1.849884	-0.149591	0.358909
C89	C	1.849876	-0.149603	0.190249
C90	C	1.756343	-0.071822	0.095577
C91	C	1.662822	0.005968	0.169575
H92	H	1.756371	-0.071794	0.557767
H93	H	1.919123	-0.207170	0.428992
H94	H	1.919106	-0.207189	0.135471
H95	H	1.756334	-0.071829	-0.029284
H96	H	1.593583	0.063547	0.099491
H97	H	0.865448	0.151855	-0.261036
H98	H	1.483820	-0.362771	0.289119
H99	H	1.638564	0.026188	0.635643
H100	H	1.329996	0.282754	0.323408
