data_functionalizedCrystal
_audit_creation_method	'MofGen! by Chris Wilmer'
_symmetry_space_group_name_H-M	'P1'
_symmetry_Int_Tables_number	1
_symmetry_cell_setting	triclinic
loop_
_symmetry_equiv_pos_as_xyz
  x,y,z
_cell_length_a	18.050589
_cell_length_b	19.805407
_cell_length_c	18.050582
_cell_angle_alpha	90.015480
_cell_angle_beta	89.981795
_cell_angle_gamma	89.975629
loop_
_atom_site_label
_atom_site_type_symbol
_atom_site_fract_x
_atom_site_fract_y
_atom_site_fract_z
Zn1	Zn	-0.295783	-1.034702	-0.419946
Zn2	Zn	0.037550	-0.701369	-0.086613
Zn3	Zn	0.370884	-0.368036	0.246721
Zn4	Zn	-0.419966	-1.034621	-0.295766
Zn5	Zn	-0.086633	-0.701288	0.037568
Zn6	Zn	0.246700	-0.367954	0.370901
Zn7	Zn	-0.295786	-0.921524	-0.295769
Zn8	Zn	0.037547	-0.588191	0.037564
Zn9	Zn	0.370880	-0.254858	0.370898
Zn10	Zn	-0.419927	-0.921477	-0.419913
Zn11	Zn	-0.086594	-0.588144	-0.086580
Zn12	Zn	0.246739	-0.254810	0.246754
O13	O	-0.357866	-0.978081	-0.357848
O14	O	-0.024532	-0.644748	-0.024515
O15	O	0.308801	-0.311414	0.308818
O16	O	-0.312271	-1.129408	-0.403486
O17	O	0.021062	-0.796075	-0.070152
O18	O	0.354396	-0.462741	0.263181
O19	O	-0.403511	-1.019604	-0.191841
O20	O	-0.070178	-0.686271	0.141492
O21	O	0.263156	-0.352938	0.474825
O22	O	-0.191861	-0.936591	-0.312257
O23	O	0.141472	-0.603258	0.021077
O24	O	0.474805	-0.269925	0.354410
O25	O	-0.403508	-1.129348	-0.312251
O26	O	-0.070175	-0.796015	0.021082
O27	O	0.263159	-0.462682	0.354416
O28	O	-0.191859	-1.019743	-0.403489
O29	O	0.141475	-0.686410	-0.070156
O30	O	0.474808	-0.353076	0.263178
O31	O	-0.312277	-0.936513	-0.191844
O32	O	0.021057	-0.603179	0.141489
O33	O	0.354390	-0.269846	0.474823
O34	O	-0.312239	-0.826801	-0.312224
O35	O	0.021094	-0.493468	0.021109
O36	O	0.354428	-0.160135	0.354442
O37	O	-0.403442	-0.936511	-0.523842
O38	O	-0.070108	-0.603177	-0.190509
O39	O	0.263225	-0.269844	0.142825
O40	O	-0.403445	-0.826767	-0.403432
O41	O	-0.070111	-0.493433	-0.070099
O42	O	0.263222	-0.160100	0.263234
O43	O	-0.312233	-1.019697	-0.523866
O44	O	0.021100	-0.686364	-0.190533
O45	O	0.354433	-0.353030	0.142800
O46	O	-0.523886	-1.019558	-0.312219
O47	O	-0.190552	-0.686225	0.021115
O48	O	0.142781	-0.352892	0.354448
O49	O	-0.523857	-0.936432	-0.403429
O50	O	-0.190524	-0.603098	-0.070096
O51	O	0.142810	-0.269765	0.263238
C52	C	-0.357838	-0.802225	-0.357826
C53	C	-0.024505	-0.468892	-0.024492
C54	C	0.308828	-0.135558	0.308841
C55	C	-0.357845	-0.726993	-0.357834
C56	C	-0.024511	-0.393660	-0.024500
C57	C	0.308822	-0.060326	0.308833
C58	C	-0.310421	-0.691681	-0.405411
C59	C	0.022912	-0.358347	-0.072078
C60	C	0.356246	-0.025014	0.261256
C61	C	-0.310423	-0.620992	-0.405412
C62	C	0.022910	-0.287659	-0.072079
C63	C	0.356243	0.045674	0.261255
C64	C	-0.357854	-0.585618	-0.357839
C65	C	-0.024520	-0.252284	-0.024505
C66	C	0.308813	0.081049	0.308828
C67	C	-0.405280	-0.620935	-0.310256
C68	C	-0.071946	-0.287602	0.023077
C69	C	0.261387	0.045732	0.356411
C70	C	-0.405273	-0.691622	-0.310252
C71	C	-0.071940	-0.358289	0.023081
C72	C	0.261394	-0.024955	0.356415
C73	C	-0.405307	-0.335862	-0.310271
C74	C	-0.071973	-0.002528	0.023062
C75	C	0.261360	0.330805	0.356395
C76	C	-0.405311	-0.265169	-0.310281
C77	C	-0.071978	0.068164	0.023053
C78	C	0.261356	0.401497	0.356386
C79	C	-0.310457	-0.265232	-0.405431
C80	C	0.022876	0.068102	-0.072098
C81	C	0.356210	0.401435	0.261235
C82	C	-0.310450	-0.335919	-0.405427
C83	C	0.022883	-0.002586	-0.072094
C84	C	0.356216	0.330748	0.261240
C85	C	-0.357873	-0.371230	-0.357842
C86	C	-0.024540	-0.037897	-0.024509
C87	C	0.308794	0.295437	0.308825
C88	C	-0.357869	-0.447879	-0.357841
C89	C	-0.024536	-0.114545	-0.024507
C90	C	0.308798	0.218788	0.308826
C91	C	-0.357862	-0.508970	-0.357843
C92	C	-0.024529	-0.175637	-0.024510
C93	C	0.308805	0.157696	0.308823
C94	C	-0.550818	-0.977999	-0.357836
C95	C	-0.217484	-0.644666	-0.024503
C96	C	0.115849	-0.311333	0.308831
C97	C	-0.633364	-0.978026	-0.357856
C98	C	-0.300030	-0.644693	-0.024522
C99	C	0.033303	-0.311360	0.308811
C100	C	-0.832826	-0.932867	-0.407439
C101	C	-0.499492	-0.599533	-0.074105
C102	C	-0.166159	-0.266200	0.259228
C103	C	-0.882258	-0.916372	-0.339671
C104	C	-0.548925	-0.583039	-0.006338
C105	C	-0.215592	-0.249706	0.326996
C106	C	-0.784494	-0.978093	-0.357865
C107	C	-0.451161	-0.644760	-0.024532
C108	C	-0.117827	-0.311426	0.308801
C109	C	-0.882143	-0.994620	-0.425641
C110	C	-0.548810	-0.661287	-0.092307
C111	C	-0.215476	-0.327954	0.241026
C112	C	-0.930479	-0.978156	-0.357881
C113	C	-0.597146	-0.644822	-0.024547
C114	C	-0.263812	-0.311489	0.308786
C115	C	-0.832839	-0.961566	-0.290062
C116	C	-0.499506	-0.628233	0.043271
C117	C	-0.166173	-0.294899	0.376605
C118	C	-0.832720	-1.039843	-0.376077
C119	C	-0.499386	-0.706510	-0.042744
C120	C	-0.166053	-0.373176	0.290589
C121	C	-0.882130	-1.023372	-0.308263
C122	C	-0.548797	-0.690039	0.025070
C123	C	-0.215463	-0.356705	0.358404
C124	C	-0.700396	-0.978055	-0.357857
C125	C	-0.367062	-0.644722	-0.024524
C126	C	-0.033729	-0.311388	0.308809
C127	C	-1.014575	-0.978194	-0.357881
C128	C	-0.681242	-0.644861	-0.024548
C129	C	-0.347909	-0.311527	0.308786
C130	C	-0.164160	-0.978182	-0.357877
C131	C	0.169173	-0.644848	-0.024544
C132	C	0.502507	-0.311515	0.308790
C133	C	-0.081614	-0.978224	-0.357889
C134	C	0.251719	-0.644891	-0.024556
C135	C	0.585052	-0.311558	0.308777
C136	C	-0.357833	-0.978108	-0.551554
C137	C	-0.024499	-0.644774	-0.218221
C138	C	0.308834	-0.311441	0.115113
C139	C	-0.357819	-0.978119	-0.634100
C140	C	-0.024485	-0.644786	-0.300767
C141	C	0.308848	-0.311452	0.032567
C142	C	-0.357888	-0.154624	-0.357865
C143	C	-0.024555	0.178710	-0.024532
C144	C	0.308779	0.512043	0.308802
C145	C	-0.357883	-0.229856	-0.357855
C146	C	-0.024550	0.103478	-0.024522
C147	C	0.308784	0.436811	0.308812
C148	C	-0.407350	-0.932917	-0.833537
C149	C	-0.074017	-0.599583	-0.500204
C150	C	0.259317	-0.266250	-0.166871
C151	C	-0.425508	-0.994669	-0.882931
C152	C	-0.092175	-0.661335	-0.549597
C153	C	0.241159	-0.328002	-0.216264
C154	C	-0.357762	-0.978152	-0.785230
C155	C	-0.024429	-0.644819	-0.451897
C156	C	0.308905	-0.311486	-0.118564
C157	C	-0.339583	-0.916434	-0.882919
C158	C	-0.006250	-0.583101	-0.549585
C159	C	0.327083	-0.249768	-0.216252
C160	C	-0.357709	-0.978179	-0.931216
C161	C	-0.024375	-0.644846	-0.597882
C162	C	0.308958	-0.311512	-0.264549
C163	C	-0.375956	-1.039937	-0.833536
C164	C	-0.042622	-0.706603	-0.500203
C165	C	0.290711	-0.373270	-0.166870
C166	C	-0.289999	-0.961660	-0.833520
C167	C	0.043334	-0.628327	-0.500187
C168	C	0.376667	-0.294994	-0.166853
C169	C	-0.308132	-1.023455	-0.882891
C170	C	0.025202	-0.690122	-0.549558
C171	C	0.358535	-0.356788	-0.216225
C172	C	-0.357795	-0.978136	-0.701132
C173	C	-0.024461	-0.644803	-0.367799
C174	C	0.308872	-0.311469	-0.034465
C175	C	-0.357676	-0.978202	-1.015312
C176	C	-0.024343	-0.644869	-0.681979
C177	C	0.308991	-0.311536	-0.348645
C178	C	-0.357845	-0.978094	-0.164896
C179	C	-0.024512	-0.644760	0.168437
C180	C	0.308822	-0.311427	0.501770
C181	C	-0.357650	-0.978214	-0.082351
C182	C	-0.024316	-0.644880	0.250982
C183	C	0.309017	-0.311547	0.584316
H184	H	-0.271840	-0.236473	-0.444175
H185	H	0.061493	0.096860	-0.110841
H186	H	0.394826	0.430194	0.222492
H187	H	-0.324230	-0.864229	-0.904611
H188	H	0.009103	-0.530896	-0.571278
H189	H	0.342437	-0.197562	-0.237944
H190	H	-0.811176	-0.894564	-0.449302
H191	H	-0.477843	-0.561231	-0.115968
H192	H	-0.144509	-0.227897	0.217365
H193	H	-0.271807	-0.592244	-0.444156
H194	H	0.061526	-0.258911	-0.110822
H195	H	0.394859	0.074423	0.222511
H196	H	-0.811272	-0.947552	-0.232736
H197	H	-0.477939	-0.614218	0.100598
H198	H	-0.144605	-0.280885	0.433931
C199	C	-0.911655	-0.845862	-0.318864
C200	C	-0.578322	-0.512528	0.014469
C201	C	-0.244989	-0.179195	0.347803
N202	N	-0.933795	-0.792752	-0.303197
N203	N	-0.600462	-0.459418	0.030136
N204	N	-0.267128	-0.126085	0.363470
H205	H	-0.271799	-0.720478	-0.444153
H206	H	0.061534	-0.387144	-0.110819
H207	H	0.394867	-0.053811	0.222514
C208	C	-0.457453	-0.582020	-0.257924
C209	C	-0.124119	-0.248687	0.075409
C210	C	0.209214	0.084647	0.408743
N211	N	-0.496752	-0.552710	-0.218508
N212	N	-0.163419	-0.219377	0.114825
N213	N	0.169914	0.113957	0.448158
H214	H	-0.903643	-1.061645	-0.266299
H215	H	-0.570309	-0.728312	0.067035
H216	H	-0.236976	-0.394979	0.400368
C217	C	-0.457485	-0.226259	-0.257938
C218	C	-0.124151	0.107075	0.075396
C219	C	0.209182	0.440408	0.408729
N220	N	-0.496779	-0.196951	-0.218514
N221	N	-0.163445	0.136382	0.114819
N222	N	0.169888	0.469716	0.448153
H223	H	-0.232733	-0.947677	-0.811800
H224	H	0.100600	-0.614344	-0.478467
H225	H	0.433934	-0.281011	-0.145134
C226	C	-0.457444	-0.730465	-0.257915
C227	C	-0.124111	-0.397132	0.075419
C228	C	0.209222	-0.063799	0.408752
N229	N	-0.496740	-0.759721	-0.218491
N230	N	-0.163407	-0.426388	0.114842
N231	N	0.169926	-0.093054	0.448175
C232	C	-0.258271	-0.374827	-0.457758
C233	C	0.075063	-0.041494	-0.124425
C234	C	0.408396	0.291839	0.208908
N235	N	-0.218964	-0.404132	-0.497172
N236	N	0.114369	-0.070799	-0.163839
N237	N	0.447702	0.262535	0.169494
C238	C	-0.803288	-1.110328	-0.396919
C239	C	-0.469955	-0.776995	-0.063585
C240	C	-0.136621	-0.443662	0.269748
N241	N	-0.781114	-1.163416	-0.412627
N242	N	-0.447781	-0.830083	-0.079294
N243	N	-0.114447	-0.496750	0.254040
C244	C	-0.457476	-0.374695	-0.257930
C245	C	-0.124143	-0.041361	0.075404
C246	C	0.209190	0.291972	0.408737
N247	N	-0.496774	-0.403946	-0.218504
N248	N	-0.163441	-0.070613	0.114830
N249	N	0.169893	0.262721	0.448163
H250	H	-0.903800	-1.008574	-0.482951
H251	H	-0.570466	-0.675241	-0.149618
H252	H	-0.237133	-0.341908	0.183715
H253	H	-0.449340	-0.894699	-0.811868
H254	H	-0.116006	-0.561365	-0.478534
H255	H	0.217327	-0.228032	-0.145201
H256	H	-0.391374	-1.092157	-0.811936
H257	H	-0.058040	-0.758824	-0.478602
H258	H	0.275293	-0.425490	-0.145269
H259	H	-0.266174	-1.061765	-0.904425
H260	H	0.067159	-0.728431	-0.571091
H261	H	0.400493	-0.395098	-0.237758
H262	H	-0.482791	-1.008634	-0.904634
H263	H	-0.149457	-0.675301	-0.571301
H264	H	0.183876	-0.341967	-0.237968
