data_functionalizedCrystal
_audit_creation_method	'MofGen! by Chris Wilmer'
_symmetry_space_group_name_H-M	'P1'
_symmetry_Int_Tables_number	1
_symmetry_cell_setting	triclinic
loop_
_symmetry_equiv_pos_as_xyz
  x,y,z
_cell_length_a	16.625547
_cell_length_b	21.295417
_cell_length_c	16.625539
_cell_angle_alpha	89.966627
_cell_angle_beta	89.975178
_cell_angle_gamma	90.030443
loop_
_atom_site_label
_atom_site_type_symbol
_atom_site_fract_x
_atom_site_fract_y
_atom_site_fract_z
Zn1	Zn	1.232635	-0.250609	-0.455972
Zn2	Zn	1.732635	0.249391	0.044028
Zn3	Zn	1.232520	-0.355882	-0.321128
Zn4	Zn	1.732520	0.144118	0.178872
Zn5	Zn	1.097797	-0.250631	-0.321143
Zn6	Zn	1.597797	0.249369	0.178857
Zn7	Zn	1.097749	-0.355844	-0.455908
Zn8	Zn	1.597749	0.144156	0.044092
O9	O	1.165175	-0.303242	-0.388538
O10	O	1.665175	0.196758	0.111462
O11	O	1.345452	-0.264581	-0.438106
O12	O	1.845452	0.235419	0.061894
O13	O	1.214620	-0.341946	-0.208297
O14	O	1.714620	0.158054	0.291703
O15	O	1.115753	-0.162539	-0.339062
O16	O	1.615753	0.337461	0.160938
O17	O	1.345367	-0.341925	-0.339036
O18	O	1.845367	0.158075	0.160964
O19	O	1.214818	-0.162523	-0.438121
O20	O	1.714818	0.337477	0.061879
O21	O	1.115640	-0.264618	-0.208308
O22	O	1.615640	0.235382	0.291692
O23	O	0.984958	-0.264581	-0.338999
O24	O	1.484958	0.235419	0.161001
O25	O	1.115670	-0.341859	-0.568749
O26	O	1.615670	0.158141	-0.068749
O27	O	0.984923	-0.341881	-0.438010
O28	O	1.484923	0.158119	0.061990
O29	O	1.214771	-0.264544	-0.568796
O30	O	1.714771	0.235456	-0.068796
O31	O	1.214573	-0.443967	-0.338973
O32	O	1.714573	0.056033	0.161027
O33	O	1.115558	-0.443939	-0.437995
O34	O	1.615558	0.056061	0.062005
C35	C	0.955684	-0.303229	-0.388500
C36	C	1.455684	0.196771	0.111500
C37	C	0.866063	-0.303239	-0.388502
C38	C	1.366063	0.196761	0.111498
C39	C	0.793281	-0.303241	-0.388512
C40	C	1.293281	0.196759	0.111488
C41	C	0.701972	-0.303244	-0.388533
C42	C	1.201972	0.196756	0.111467
C43	C	0.629196	-0.303250	-0.388553
C44	C	1.129196	0.196750	0.111447
C45	C	0.537882	-0.303254	-0.388572
C46	C	1.037882	0.196746	0.111428
C47	C	1.165070	-0.466793	-0.388493
C48	C	1.665070	0.033207	0.111507
C49	C	1.165098	-0.536761	-0.388501
C50	C	1.665098	-0.036761	0.111499
C51	C	1.216701	-0.569622	-0.336993
C52	C	1.716701	-0.069622	0.163007
C53	C	1.216739	-0.635364	-0.337011
C54	C	1.716739	-0.135364	0.162989
C55	C	1.165159	-0.668244	-0.388529
C56	C	1.665159	-0.168244	0.111471
C57	C	1.113552	-0.635376	-0.440047
C58	C	1.613552	-0.135376	0.059953
C59	C	1.113522	-0.569634	-0.440033
C60	C	1.613522	-0.069634	0.059967
N61	N	1.094624	-0.771510	-0.394663
N62	N	1.594624	-0.271510	0.105337
N63	N	1.094656	-0.833961	-0.394671
N64	N	1.594656	-0.333961	0.105329
C65	C	1.165250	-0.866319	-0.388575
C66	C	1.665250	-0.366319	0.111425
N67	N	1.235813	-0.833866	-0.382454
N68	N	1.735813	-0.333866	0.117546
N69	N	1.235780	-0.771408	-0.382441
N70	N	1.735780	-0.271408	0.117559
C71	C	1.165187	-0.739529	-0.388550
C72	C	1.665187	-0.239529	0.111450
C73	C	1.216898	-0.970465	-0.337084
C74	C	1.716898	-0.470465	0.162916
C75	C	1.216937	-1.036208	-0.337108
C76	C	1.716937	-0.536208	0.162892
C77	C	1.113743	-1.036218	-0.440139
C78	C	1.613743	-0.536218	0.059861
C79	C	1.113712	-0.970476	-0.440120
C80	C	1.613712	-0.470476	0.059880
C81	C	1.165288	-0.937603	-0.388588
C82	C	1.665288	-0.437603	0.111412
C83	C	1.375484	-0.303254	-0.388576
C84	C	1.875484	0.196746	0.111424
C85	C	1.465105	-0.303260	-0.388593
C86	C	1.965105	0.196740	0.111407
C87	C	1.165228	-0.303195	-0.598847
C88	C	1.665228	0.196805	-0.098847
C89	C	1.165250	-0.303175	-0.688468
C90	C	1.665250	0.196825	-0.188468
C91	C	1.165303	-0.139051	-0.388600
C92	C	1.665303	0.360949	0.111400
C93	C	1.165358	-0.069083	-0.388627
C94	C	1.665358	0.430917	0.111373
C95	C	1.165287	-0.303104	-1.016644
C96	C	1.665287	0.196896	-0.516644
C97	C	1.165275	-0.303126	-0.925335
C98	C	1.665275	0.196874	-0.425335
C99	C	1.165269	-0.303140	-0.852559
C100	C	1.665269	0.196860	-0.352559
C101	C	1.165256	-0.303161	-0.761244
C102	C	1.665256	0.196839	-0.261244
C103	C	1.165169	-0.303243	-0.179047
C104	C	1.665169	0.196757	0.320953
C105	C	1.165303	-0.303086	-0.089426
C106	C	1.665303	0.196914	0.410574
H107	H	1.258700	-0.542859	-0.295035
H108	H	1.758700	-0.042859	0.204965
Br109	Br	1.286777	-0.679971	-0.267103
Br110	Br	1.786777	-0.179971	0.232897
Br111	Br	1.043673	-0.925876	-0.510025
Br112	Br	1.543673	-0.425876	-0.010025
Br113	Br	1.043557	-0.679996	-0.509971
Br114	Br	1.543557	-0.179996	-0.009971
Br115	Br	1.043484	-0.525035	-0.509943
Br116	Br	1.543484	-0.025035	-0.009943
H117	H	1.258964	-1.062962	-0.295165
H118	H	1.758964	-0.562962	0.204835
Br119	Br	1.286890	-0.925847	-0.267147
Br120	Br	1.786890	-0.425847	0.232853
Br121	Br	1.043749	-1.080833	-0.510066
Br122	Br	1.543749	-0.580833	-0.010066
