data_functionalizedCrystal
_audit_creation_method	'MofGen! by Chris Wilmer'
_symmetry_space_group_name_H-M	'P1'
_symmetry_Int_Tables_number	1
_symmetry_cell_setting	triclinic
loop_
_symmetry_equiv_pos_as_xyz
  x,y,z
_cell_length_a	17.699104
_cell_length_b	17.699092
_cell_length_c	16.776229
_cell_angle_alpha	89.995030
_cell_angle_beta	90.008863
_cell_angle_gamma	96.711057
loop_
_atom_site_label
_atom_site_type_symbol
_atom_site_fract_x
_atom_site_fract_y
_atom_site_fract_z
O1	O	-1.004071	0.095788	-0.066317
O2	O	-0.504071	0.595788	0.433683
O3	O	-0.783696	0.108224	-0.066311
O4	O	-0.283696	0.608224	0.433689
O5	O	-0.900106	-0.008183	-0.066312
O6	O	-0.400106	0.491817	0.433688
O7	O	-0.887661	0.212194	-0.066316
O8	O	-0.387661	0.712194	0.433684
O9	O	-0.900091	-0.008190	0.066264
O10	O	-0.400091	0.491810	0.566264
O11	O	-0.783680	0.108216	0.066265
O12	O	-0.283680	0.608216	0.566265
O13	O	-1.004056	0.095781	0.066260
O14	O	-0.504056	0.595781	0.566260
Zn15	Zn	-0.893866	0.101997	0.087312
Zn16	Zn	-0.393866	0.601997	0.587312
Zn17	Zn	-0.893886	0.102007	-0.087363
Zn18	Zn	-0.393886	0.602007	0.412637
O19	O	-0.887645	0.212187	0.066261
O20	O	-0.387645	0.712187	0.566261
C21	C	-0.755491	0.107772	-0.000022
C22	C	-0.255491	0.607772	0.499978
C23	C	-0.671474	0.106427	-0.000020
C24	C	-0.171474	0.606427	0.499980
C25	C	-0.899652	-0.036383	-0.000025
C26	C	-0.399652	0.463617	0.499975
C27	C	-0.898311	-0.120401	-0.000029
C28	C	-0.398311	0.379599	0.499971
C29	C	-0.146605	0.167170	-0.000021
C30	C	0.353395	0.667170	0.499979
C31	C	-0.225548	0.168430	-0.000025
C32	C	0.274452	0.668430	0.499975
C33	C	-0.274164	0.100095	-0.000024
C34	C	0.225836	0.600095	0.499976
C35	C	-0.243832	0.030496	-0.000028
C36	C	0.256168	0.530496	0.499972
C37	C	-0.164890	0.029238	-0.000031
C38	C	0.335110	0.529238	0.499969
C39	C	-0.562198	0.035569	-0.000021
C40	C	-0.062198	0.535569	0.499979
C41	C	-0.641145	0.036833	-0.000016
C42	C	-0.141145	0.536833	0.499984
C43	C	-0.622857	0.174761	-0.000015
C44	C	-0.122857	0.674761	0.499985
C45	C	-0.543915	0.173503	-0.000017
C46	C	-0.043915	0.673503	0.499983
C47	C	-0.513590	0.103905	-0.000025
C48	C	-0.013590	0.603905	0.499975
C49	C	-0.427990	0.102540	-0.000023
C50	C	0.072010	0.602540	0.499977
C51	C	-0.359762	0.101458	-0.000021
C52	C	0.140238	0.601458	0.499979
C53	C	-0.897691	-0.159865	-0.072297
C54	C	-0.397691	0.340135	0.427703
C55	C	-0.896426	-0.238808	-0.072298
C56	C	-0.396426	0.261192	0.427702
C57	C	-0.895786	-0.278286	-0.000030
C58	C	-0.395786	0.221714	0.499970
C59	C	-0.896404	-0.238817	0.072244
C60	C	-0.396404	0.261183	0.572244
C61	C	-0.897663	-0.159875	0.072244
C62	C	-0.397663	0.340125	0.572244
C63	C	-0.891324	-0.557182	0.072245
C64	C	-0.391324	-0.057182	0.572245
C65	C	-0.890066	-0.636131	0.072240
C66	C	-0.390066	-0.136131	0.572240
C67	C	-0.890086	-0.636115	-0.072297
C68	C	-0.390086	-0.136115	0.427703
C69	C	-0.891345	-0.557173	-0.072297
C70	C	-0.391345	-0.057173	0.427703
C71	C	-0.891959	-0.517710	-0.000023
C72	C	-0.391959	-0.017710	0.499977
C73	C	-0.893329	-0.432111	-0.000023
C74	C	-0.393329	0.067889	0.499977
C75	C	-0.894421	-0.363885	-0.000029
C76	C	-0.394421	0.136115	0.499971
C77	C	-0.032260	0.096232	-0.000027
C78	C	0.467740	0.596232	0.499973
C79	C	-0.116278	0.097577	-0.000023
C80	C	0.383722	0.597577	0.499977
C81	C	-0.888100	0.240387	-0.000028
C82	C	-0.388100	0.740387	0.499972
C83	C	-0.889441	0.324405	-0.000029
C84	C	-0.389441	0.824405	0.499971
N85	N	-0.893857	0.101990	0.206523
N86	N	-0.393857	0.601990	0.706523
N87	N	-0.893900	0.102008	-0.206575
N88	N	-0.393900	0.602008	0.293425
C89	C	-0.945420	0.050467	0.248240
C90	C	-0.445420	0.550467	0.748240
C91	C	-0.945424	0.050466	0.331692
C92	C	-0.445424	0.550466	0.831692
C93	C	-0.893869	0.101993	0.373426
C94	C	-0.393869	0.601993	0.873426
C95	C	-0.842301	0.153519	0.331704
C96	C	-0.342301	0.653519	0.831704
C97	C	-0.842294	0.153516	0.248253
C98	C	-0.342294	0.653516	0.748253
C99	C	-0.842328	0.153534	0.668251
C100	C	-0.342328	0.653534	1.168251
C101	C	-0.842341	0.153535	0.751707
C102	C	-0.342341	0.653535	1.251707
C103	C	-0.945458	0.050485	0.751690
C104	C	-0.445458	0.550485	1.251690
C105	C	-0.945451	0.050481	0.668239
C106	C	-0.445451	0.550481	1.168239
C107	C	-0.893881	0.102004	0.626524
C108	C	-0.393881	0.602004	1.126524
C109	C	-0.893876	0.102003	0.536036
C110	C	-0.393876	0.602003	1.036036
C111	C	-0.893877	0.101998	0.463913
C112	C	-0.393877	0.601998	0.963913
H113	H	-0.107027	0.222817	-0.000016
H114	H	0.392973	0.722817	0.499984
F115	F	-0.295574	-0.042231	-0.000030
F116	F	0.204426	0.457769	0.499970
H117	H	-0.140199	-0.027432	-0.000033
H118	H	0.359801	0.472568	0.499967
F119	F	-1.000342	-0.004354	0.796092
F120	F	-0.500342	0.495646	1.296092
H121	H	-0.891870	-0.525034	-0.131145
H122	H	-0.391870	-0.025034	0.368855
H123	H	-0.898216	-0.127727	-0.131147
H124	H	-0.398216	0.372273	0.368853
F125	F	-1.000296	-0.004373	0.203831
F126	F	-0.500296	0.495627	0.703831
F127	F	-0.895767	-0.280804	-0.149216
F128	F	-0.395767	0.219196	0.350784
F129	F	-0.889430	-0.678121	-0.149218
F130	F	-0.389430	-0.178121	0.350782
H131	H	-0.987409	0.008511	0.365657
H132	H	-0.487409	0.508511	0.865657
F133	F	-0.257821	0.242500	-0.000027
F134	F	0.242179	0.742500	0.499973
F135	F	-0.895715	-0.280834	0.149158
F136	F	-0.395715	0.219166	0.649158
F137	F	-0.889384	-0.678145	0.149161
F138	F	-0.389384	-0.178145	0.649161
F139	F	-0.891967	-0.515192	0.149165
F140	F	-0.391967	-0.015192	0.649165
F141	F	-1.000325	-0.004358	0.623826
F142	F	-0.500325	0.495642	1.123826
F143	F	-0.787446	0.208370	0.623861
F144	F	-0.287446	0.708370	1.123861
H145	H	-0.800305	0.195471	0.214288
H146	H	-0.300305	0.695471	0.714288
F147	F	-0.898322	-0.117875	0.149162
F148	F	-0.398322	0.382125	0.649162
F149	F	-0.787465	0.208380	0.796123
F150	F	-0.287465	0.708380	1.296123
F151	F	-0.492178	0.246234	-0.000015
F152	F	0.007822	0.746234	0.499985
H153	H	-0.647557	0.231431	-0.000012
H154	H	-0.147557	0.731431	0.499988
F155	F	-0.692885	-0.035902	-0.000016
F156	F	-0.192885	0.464098	0.499984
H157	H	-0.800320	0.195471	0.365688
H158	H	-0.300320	0.695471	0.865688
F159	F	-0.529934	-0.038503	-0.000044
F160	F	-0.029934	0.461497	0.499956
