data_functionalizedCrystal
_audit_creation_method	'MofGen! by Chris Wilmer'
_symmetry_space_group_name_H-M	'P1'
_symmetry_Int_Tables_number	1
_symmetry_cell_setting	triclinic
loop_
_symmetry_equiv_pos_as_xyz
  x,y,z
_cell_length_a	11.792254
_cell_length_b	10.868271
_cell_length_c	9.065215
_cell_angle_alpha	90.004170
_cell_angle_beta	95.393352
_cell_angle_gamma	89.994489
loop_
_atom_site_label
_atom_site_type_symbol
_atom_site_fract_x
_atom_site_fract_y
_atom_site_fract_z
O1	O	-1.508020	0.102354	0.202314
O2	O	-1.177796	0.102349	0.223136
O3	O	-1.349736	0.102346	-0.001981
O4	O	-1.336081	0.102357	0.427431
O5	O	-1.349721	-0.102298	-0.001990
O6	O	-1.177782	-0.102296	0.223127
O7	O	-1.508006	-0.102290	0.202305
Zn8	Zn	-1.342892	-0.134785	0.212715
Zn9	Zn	-1.342911	0.134843	0.212726
O10	O	-1.336067	-0.102288	0.427422
C11	C	-1.135491	0.000026	0.221820
C12	C	-1.009456	0.000024	0.217894
C13	C	-0.907102	0.000027	0.214704
C14	C	-0.778694	0.000024	0.210715
N15	N	-1.342887	-0.318799	0.212706
C16	C	-1.342905	-0.569805	0.212723
C17	C	-1.342891	-0.430127	0.212718
C18	C	-0.550311	0.000029	0.203621
C19	C	-0.676346	0.000022	0.207547
C20	C	-1.348417	0.000025	-0.056960
C21	C	-1.344495	0.000029	-0.220767
N22	N	-1.342924	0.318857	0.212724
C23	C	-1.337385	0.000036	0.482401
C24	C	-1.341307	0.000040	0.646208
