data_functionalizedCrystal
_audit_creation_method	'MofGen! by Chris Wilmer'
_symmetry_space_group_name_H-M	'P1'
_symmetry_Int_Tables_number	1
_symmetry_cell_setting	triclinic
loop_
_symmetry_equiv_pos_as_xyz
  x,y,z
_cell_length_a	23.096457
_cell_length_b	21.606444
_cell_length_c	21.606444
_cell_angle_alpha	90.002006
_cell_angle_beta	60.001019
_cell_angle_gamma	60.003762
loop_
_atom_site_label
_atom_site_type_symbol
_atom_site_fract_x
_atom_site_fract_y
_atom_site_fract_z
Zr1	Zr	0.633725	-0.081181	0.596252
O2	O	0.754507	-0.180000	0.497430
O3	O	0.512941	-0.050892	0.626543
O4	O	0.633721	-0.180004	0.626547
O5	O	0.633731	0.050961	0.497427
O6	O	0.633721	-0.180002	0.728399
O7	O	0.633727	-0.050889	0.497427
O8	O	0.417667	0.050955	0.728393
O9	O	0.849785	-0.179996	0.497433
O10	O	0.562622	-0.037968	0.715476
O11	O	0.562625	0.038040	0.639465
O12	O	0.704829	-0.113972	0.639469
O13	O	0.704832	-0.037964	0.563458
Zr14	Zr	0.633732	0.081260	0.758693
Zr15	Zr	0.633725	-0.081179	0.758694
Zr16	Zr	0.633732	0.081257	0.596251
Zr17	Zr	0.785683	-0.081175	0.596256
Zr18	Zr	0.481774	0.081253	0.758689
O19	O	0.754516	0.050970	0.728402
O20	O	0.754507	-0.179997	0.728402
O21	O	0.754517	0.050967	0.497430
O22	O	0.512950	0.180078	0.857515
O23	O	0.512940	-0.050888	0.857515
O24	O	0.512950	0.180075	0.626543
O25	O	0.633726	-0.050883	0.857518
O26	O	0.633736	0.180082	0.728398
O27	O	0.633736	0.180080	0.626546
O28	O	0.633730	0.050967	0.857518
O29	O	0.849785	-0.179994	0.626553
O30	O	0.417672	0.180072	0.728392
O31	O	0.417672	0.180074	0.857512
O32	O	0.417667	0.050957	0.857512
O33	O	0.849790	-0.050879	0.497433
O34	O	0.849790	-0.050877	0.626552
O35	O	0.562628	0.114050	0.715476
O36	O	0.562625	0.038042	0.791487
O37	O	0.704832	-0.037962	0.715480
O38	O	0.704835	0.038046	0.639469
C39	C	0.443653	0.000030	0.677467
C40	C	0.379143	0.000028	0.677466
C41	C	0.633729	0.000036	0.474282
C42	C	0.633729	0.000035	0.405321
C43	C	0.633737	0.203225	0.677472
C44	C	0.633739	0.272184	0.677472
C45	C	0.348841	-0.039651	0.717137
C46	C	0.288218	-0.039644	0.717145
C47	C	0.257912	0.000030	0.677466
C48	C	0.288219	0.039717	0.637792
C49	C	0.348834	0.039716	0.637792
N50	N	0.195517	-0.005473	0.612895
N51	N	0.137936	-0.005476	0.612897
C52	C	0.075281	0.000037	0.677465
N53	N	0.072388	0.005538	0.742030
N54	N	0.129977	0.005537	0.742027
C55	C	0.192185	0.000036	0.677462
C56	C	-0.020757	-0.039637	0.717148
C57	C	-0.081384	-0.039625	0.717158
C58	C	-0.081376	0.039731	0.637798
C59	C	-0.020756	0.039724	0.637796
C60	C	0.009553	0.000036	0.677469
C61	C	0.823804	0.000048	0.677478
C62	C	0.888314	0.000051	0.677479
C63	C	0.633720	-0.203147	0.677473
C64	C	0.633718	-0.272106	0.677473
C65	C	0.707969	0.264910	0.637799
C66	C	0.707967	0.329708	0.637795
C67	C	0.633734	0.401778	0.677470
C68	C	0.559498	0.409051	0.717145
C69	C	0.559502	0.344254	0.717143
C70	C	0.559484	0.670369	0.717151
C71	C	0.559487	0.735167	0.717151
C72	C	0.707950	0.655822	0.637803
C73	C	0.707953	0.591026	0.637801
C74	C	0.633718	0.598304	0.677472
C75	C	0.633721	0.528043	0.677474
C76	C	0.633730	0.472039	0.677473
C77	C	0.633729	-0.056077	0.372923
C78	C	0.633725	-0.056074	0.308129
C79	C	0.633726	0.000038	0.275731
C80	C	0.633724	0.056155	0.308136
C81	C	0.633722	0.056155	0.372931
C82	C	0.633730	0.056158	0.046822
C83	C	0.633734	0.056153	-0.017980
C84	C	0.633732	-0.056071	-0.017981
C85	C	0.633731	-0.056072	0.046815
C86	C	0.633724	0.000048	0.079216
C87	C	0.633727	0.000045	0.149474
C88	C	0.633729	0.000038	0.205472
C89	C	0.633728	0.000042	0.880663
C90	C	0.633728	0.000043	0.949624
C91	C	0.443653	0.000034	0.880658
C92	C	0.379143	0.000032	0.949617
C93	C	0.443661	0.203216	0.677467
C94	C	0.379154	0.272173	0.677465
C95	C	0.443661	0.203220	0.880657
C96	C	0.379154	0.272177	0.949617
C97	C	0.823796	-0.203141	0.474288
C98	C	0.888303	-0.272099	0.405329
C99	C	0.823804	0.000045	0.474287
C100	C	0.888314	0.000046	0.405328
C101	C	0.823796	-0.203138	0.677478
C102	C	0.888303	-0.272095	0.677480
C103	C	0.348847	-0.039653	0.942324
C104	C	0.288241	-0.039669	1.007112
C105	C	0.257929	0.000003	1.079193
C106	C	0.288231	0.039688	1.086484
C107	C	0.348839	0.039700	1.021697
C108	C	0.348862	0.344239	0.717141
C109	C	0.288260	0.409037	0.717137
C110	C	0.257945	0.401768	0.677460
C111	C	0.288243	0.329694	0.637779
C112	C	0.348849	0.264897	0.637780
C113	C	0.348859	0.264885	1.021684
C114	C	0.288256	0.329672	1.086485
C115	C	0.257945	0.401750	1.079216
C116	C	0.288246	0.409041	1.007141
C117	C	0.348852	0.344255	0.942342
C118	C	0.918605	-0.264807	0.333261
C119	C	0.979227	-0.329593	0.268460
C120	C	1.009541	-0.401672	0.275729
C121	C	0.979237	-0.408963	0.347804
C122	C	0.918620	-0.344176	0.412603
C123	C	0.918617	0.039724	0.412621
C124	C	0.979239	0.039723	0.347833
C125	C	1.009553	0.000048	0.275752
C126	C	0.979249	-0.039634	0.268461
C127	C	0.918631	-0.039637	0.333248
C128	C	0.918598	-0.264801	0.717164
C129	C	0.979201	-0.329587	0.717181
C130	C	1.009512	-0.401666	0.677508
C131	C	0.979211	-0.408958	0.637822
C132	C	0.918605	-0.344173	0.637811
H133	H	0.263541	-0.071956	0.749452
H134	H	0.768413	0.323778	0.605490
H135	H	1.058899	-0.454419	0.222959
H136	H	0.208596	0.454535	0.677466
C137	C	1.012564	-0.488250	0.594182
C138	C	0.954245	-0.512099	0.614890
C139	C	0.987604	-0.591393	0.571247
C140	C	1.079281	-0.646838	0.506896
C141	C	1.137605	-0.622989	0.486185
C142	C	1.104246	-0.543695	0.529828
H143	H	0.886375	-0.471055	0.662529
H144	H	0.944428	-0.609047	0.586579
H145	H	1.103975	-0.705536	0.474589
H146	H	1.205475	-0.664033	0.438546
H147	H	1.147422	-0.526041	0.514496
H148	H	0.893949	-0.350123	0.471282
H149	H	0.373514	-0.071965	0.749444
C150	C	1.012580	-0.488251	0.355794
C151	C	1.054254	-0.512094	0.397433
C152	C	1.087594	-0.591384	0.405422
C153	C	1.079260	-0.646832	0.371772
C154	C	1.037584	-0.622990	0.330130
C155	C	1.004244	-0.543700	0.322142
H156	H	1.060425	-0.471048	0.422345
H157	H	1.118445	-0.609033	0.436248
H158	H	1.103940	-0.705527	0.377686
H159	H	1.031413	-0.664037	0.305218
H160	H	0.973393	-0.526051	0.291316
C161	C	0.633729	0.117884	-0.053615
C162	C	0.563012	0.171106	-0.060361
C163	C	0.563007	0.232833	-0.095997
C164	C	0.633720	0.241337	-0.124888
C165	C	0.704442	0.188112	-0.118143
C166	C	0.704446	0.126386	-0.082506
H167	H	0.510661	0.164813	-0.038974
H168	H	0.510654	0.272233	-0.100990
H169	H	0.633716	0.287030	-0.151268
H170	H	0.756792	0.194406	-0.139530
H171	H	0.756800	0.086986	-0.077513
C172	C	0.477847	0.352254	0.760782
C173	C	0.477847	0.280982	0.760776
C174	C	0.396190	0.288984	0.804411
C175	C	0.314534	0.368257	0.848052
C176	C	0.314531	0.439534	0.848060
C177	C	0.396188	0.431533	0.804425
H178	H	0.538297	0.222294	0.728469
H179	H	0.396193	0.236219	0.804405
H180	H	0.254087	0.374180	0.880353
H181	H	0.254082	0.498222	0.880367
H182	H	0.396185	0.484297	0.804431
C183	C	0.191272	0.473011	1.150500
C184	C	0.157921	0.552300	1.142515
C185	C	0.091247	0.623558	1.213802
C186	C	0.057923	0.615528	1.293073
C187	C	0.091274	0.536236	1.301061
C188	C	0.157949	0.464978	1.229775
H189	H	0.182589	0.558247	1.083831
H190	H	0.066558	0.682255	1.207888
H191	H	0.008567	0.668277	1.345844
H192	H	0.066606	0.530289	1.359745
H193	H	0.182637	0.406281	1.235688
H194	H	0.263542	0.071988	1.145181
H195	H	0.373510	0.350203	0.883663
H196	H	0.768401	0.532345	0.605497
C197	C	0.885284	0.083365	0.491904
C198	C	0.918635	0.126998	0.499910
C199	C	0.885311	0.170637	0.579191
C200	C	0.818636	0.170643	0.650466
C201	C	0.785281	0.127009	0.642463
C202	C	0.818605	0.083370	0.563182
H203	H	0.967995	0.126995	0.447146
H204	H	0.910002	0.202938	0.585116
H205	H	0.793968	0.202948	0.709155
H206	H	0.735921	0.127012	0.695227
H207	H	0.793914	0.051068	0.557257
H208	H	1.003903	0.072040	0.353784
C209	C	1.012590	-0.083264	0.189169
C210	C	1.079256	-0.083243	0.117912
C211	C	1.112593	-0.126865	0.038618
C212	C	1.079263	-0.170507	0.030581
C213	C	1.012593	-0.170530	0.101841
C214	C	0.979256	-0.126908	0.181134
H215	H	1.103932	-0.050934	0.123859
H216	H	1.161946	-0.126848	-0.014133
H217	H	1.103941	-0.202799	-0.028117
H218	H	0.987917	-0.202838	0.095893
H219	H	0.929903	-0.126925	0.233885
H220	H	0.893927	-0.206123	0.327328
H221	H	1.058912	0.000057	0.223004
H222	H	0.768396	0.649903	0.605497
H223	H	0.499037	0.676305	0.749456
H224	H	0.633733	-0.101765	0.073189
H225	H	0.373507	0.072026	0.605485
C226	C	0.382151	0.083368	1.029726
C227	C	0.348795	0.127010	1.109016
C228	C	0.382102	0.170682	1.117053
C229	C	0.448764	0.170710	1.045799
C230	C	0.482123	0.127066	0.966504
C231	C	0.448817	0.083395	0.958467
H232	H	0.299445	0.126991	1.161768
H233	H	0.357407	0.202990	1.175753
H234	H	0.473420	0.203038	1.051748
H235	H	0.531474	0.127086	0.913752
H236	H	0.473512	0.051087	0.899767
H237	H	0.263540	0.072020	0.605486
H238	H	0.633734	-0.101765	-0.044366
H239	H	0.633726	0.101851	0.073196
C240	C	0.254888	0.321707	0.594141
C241	C	0.163210	0.355355	0.636694
C242	C	0.129848	0.347372	0.593060
C243	C	0.188164	0.305742	0.506872
C244	C	0.279848	0.272092	0.464314
C245	C	0.313209	0.280075	0.507948
H246	H	0.120036	0.386174	0.700499
H247	H	0.061978	0.372282	0.624565
H248	H	0.163468	0.299833	0.474572
H249	H	0.323022	0.241272	0.400509
H250	H	0.381080	0.255164	0.476444
C251	C	0.254885	0.488332	0.999157
C252	C	0.263202	0.543798	1.032803
C253	C	0.229830	0.623092	1.024823
C254	C	0.188141	0.646920	0.983198
C255	C	0.179821	0.591453	0.949550
C256	C	0.213193	0.512159	0.957529
H257	H	0.294065	0.526160	1.063619
H258	H	0.235989	0.664152	1.049732
H259	H	0.163437	0.705619	0.977291
H260	H	0.148958	0.609091	0.918734
H261	H	0.207034	0.471099	0.932620
C262	C	0.254935	0.488311	0.760795
C263	C	0.163265	0.543769	0.825159
C264	C	0.129942	0.623040	0.868818
C265	C	0.188289	0.646854	0.848114
C266	C	0.279964	0.591395	0.783747
C267	C	0.313287	0.512124	0.740088
H268	H	0.120068	0.526142	0.840488
H269	H	0.062077	0.664094	0.916467
H270	H	0.163621	0.705535	0.880434
H271	H	0.323161	0.609022	0.768418
H272	H	0.381152	0.471070	0.692439
C273	C	0.012586	0.083366	0.594147
C274	C	-0.045747	0.169549	0.614863
C275	C	-0.012410	0.213195	0.571215
C276	C	0.079261	0.170658	0.506849
C277	C	0.137600	0.084470	0.486129
C278	C	0.104262	0.040824	0.529778
H279	H	-0.113612	0.201041	0.662513
H280	H	-0.055596	0.276998	0.586553
H281	H	0.103940	0.202968	0.474538
H282	H	0.205465	0.052978	0.438479
H283	H	0.147449	-0.022978	0.514439
C284	C	0.477825	0.814449	0.760791
C285	C	0.396168	0.822457	0.804425
C286	C	0.314512	0.901737	0.848062
C287	C	0.314513	0.973009	0.848066
C288	C	0.396172	0.965003	0.804430
C289	C	0.477829	0.885723	0.760793
H290	H	0.396165	0.769696	0.804424
H291	H	0.254062	0.907663	0.880364
H292	H	0.254066	1.031696	0.880369
H293	H	0.396175	1.017765	0.804431
H294	H	0.538279	0.879797	0.728491
H295	H	0.893961	-0.071945	0.327300
C296	C	0.885293	-0.352204	0.594145
C297	C	0.918646	-0.431492	0.550503
C298	C	0.885338	-0.439530	0.506835
C299	C	0.818678	-0.368279	0.506808
C300	C	0.785321	-0.288985	0.550451
C301	C	0.818629	-0.280947	0.594120
H302	H	0.967996	-0.484241	0.550522
H303	H	0.910032	-0.498229	0.474527
H304	H	0.794021	-0.374229	0.474482
H305	H	0.735971	-0.236236	0.550433
H306	H	0.793936	-0.222248	0.626427
C307	C	0.885257	-0.185519	0.760815
C308	C	0.918584	-0.177512	0.804473
C309	C	0.885243	-0.098233	0.848132
C310	C	0.818576	-0.026960	0.848134
C311	C	0.785245	-0.034965	0.804474
C312	C	0.818586	-0.114244	0.760815
H313	H	0.967939	-0.230274	0.804473
H314	H	0.909917	-0.092307	0.880451
H315	H	0.793895	0.031727	0.880453
H316	H	0.735891	0.017797	0.804474
H317	H	0.793912	-0.120170	0.728496
H318	H	0.499057	0.467737	0.749445
H319	H	1.003866	-0.323634	0.749496
C320	C	0.382159	0.185625	0.594140
C321	C	0.348805	0.177638	0.550503
C322	C	0.382113	0.098367	0.506859
C323	C	0.448775	0.027083	0.506852
C324	C	0.482133	0.035068	0.550490
C325	C	0.448825	0.114339	0.594134
H326	H	0.299454	0.230409	0.550507
H327	H	0.357419	0.092457	0.474556
H328	H	0.473431	-0.031598	0.474544
H329	H	0.531484	-0.017703	0.550486
H330	H	0.473520	0.120249	0.626437
C331	C	0.633727	-0.117803	0.408557
C332	C	0.563014	-0.126303	0.437434
C333	C	0.563009	-0.188029	0.473068
C334	C	0.633717	-0.241255	0.479824
C335	C	0.704435	-0.232755	0.450946
C336	C	0.704440	-0.171030	0.415313
H337	H	0.510667	-0.086901	0.432433
H338	H	0.510658	-0.194321	0.494445
H339	H	0.633713	-0.286948	0.506202
H340	H	0.756782	-0.272157	0.455947
H341	H	0.756791	-0.164738	0.393935
C342	C	0.633729	-0.117799	0.272485
C343	C	0.633772	-0.179548	0.308092
C344	C	0.633776	-0.241274	0.272447
C345	C	0.633737	-0.241252	0.201196
C346	C	0.633695	-0.179501	0.165585
C347	C	0.633691	-0.117775	0.201230
H348	H	0.633800	-0.179566	0.360840
H349	H	0.633807	-0.286986	0.298809
H350	H	0.633740	-0.286946	0.174810
H351	H	0.633666	-0.179483	0.112837
H352	H	0.633660	-0.072063	0.174868
C353	C	0.254930	0.321639	1.165760
C354	C	0.213258	0.279995	1.189572
C355	C	0.179934	0.271960	1.268844
C356	C	0.188282	0.305568	1.324306
C357	C	0.229955	0.347214	1.300495
C358	C	0.263279	0.355249	1.221223
H359	H	0.207076	0.255115	1.148515
H360	H	0.149084	0.241131	1.286470
H361	H	0.163613	0.299619	1.382988
H362	H	0.236137	0.372095	1.341552
H363	H	0.294129	0.386079	1.203597
H364	H	1.003891	-0.323642	0.209780
H365	H	0.768419	0.206230	0.605494
H366	H	0.003919	-0.071950	0.749456
H367	H	1.058862	-0.454412	0.677523
H368	H	0.373529	0.206201	1.027617
C369	C	0.633726	0.117881	0.272502
C370	C	0.633725	0.117888	0.201230
C371	C	0.633730	0.179614	0.165596
C372	C	0.633736	0.241333	0.201235
C373	C	0.633736	0.241328	0.272510
C374	C	0.633731	0.179602	0.308144
H375	H	0.633721	0.072198	0.174845
H376	H	0.633730	0.179618	0.112833
H377	H	0.633740	0.287026	0.174857
H378	H	0.633740	0.287018	0.298895
H379	H	0.633731	0.179599	0.360907
H380	H	-0.106050	0.072035	0.605490
H381	H	0.633720	0.101848	0.399310
H382	H	0.373527	-0.071968	0.883638
H383	H	0.263577	-0.071986	1.001161
H384	H	-0.106060	-0.071933	0.749468
H385	H	0.208577	-0.000012	1.131941
H386	H	0.373538	0.350173	0.749451
