data_functionalizedCrystal
_audit_creation_method	'MofGen! by Chris Wilmer'
_symmetry_space_group_name_H-M	'P1'
_symmetry_Int_Tables_number	1
_symmetry_cell_setting	triclinic
loop_
_symmetry_equiv_pos_as_xyz
  x,y,z
_cell_length_a	11.792241
_cell_length_b	12.503572
_cell_length_c	11.792254
_cell_angle_alpha	86.452607
_cell_angle_beta	84.196007
_cell_angle_gamma	93.538276
loop_
_atom_site_label
_atom_site_type_symbol
_atom_site_fract_x
_atom_site_fract_y
_atom_site_fract_z
O1	O	1.513413	0.089216	0.149049
O2	O	1.763413	0.339216	0.399049
O3	O	2.013413	0.589216	0.649049
O4	O	2.263413	0.839216	0.899049
O5	O	1.183074	0.089241	0.165080
O6	O	1.433074	0.339241	0.415080
O7	O	1.683074	0.589241	0.665080
O8	O	1.933074	0.839241	0.915080
O9	O	1.356252	0.089221	-0.008105
O10	O	1.606252	0.339221	0.241895
O11	O	1.856252	0.589221	0.491895
O12	O	2.106252	0.839221	0.741895
O13	O	1.340235	0.089237	0.322233
O14	O	1.590235	0.339237	0.572233
O15	O	1.840235	0.589237	0.822233
O16	O	2.090235	0.839237	1.072233
O17	O	1.343228	-0.089420	0.004941
O18	O	1.593228	0.160580	0.254941
O19	O	1.843228	0.410580	0.504941
O20	O	2.093228	0.660580	0.754941
O21	O	1.170050	-0.089399	0.178126
O22	O	1.420050	0.160601	0.428126
O23	O	1.670050	0.410601	0.678126
O24	O	1.920050	0.660601	0.928126
O25	O	1.500389	-0.089424	0.162095
O26	O	1.750389	0.160576	0.412095
O27	O	2.000389	0.410576	0.662095
O28	O	2.250389	0.660576	0.912095
Cu29	Cu	1.334030	-0.105723	0.171302
Cu30	Cu	1.584030	0.144277	0.421302
Cu31	Cu	1.834030	0.394277	0.671302
Cu32	Cu	2.084030	0.644277	0.921302
Cu33	Cu	1.349433	0.105540	0.155873
Cu34	Cu	1.599433	0.355540	0.405873
Cu35	Cu	1.849433	0.605540	0.655873
Cu36	Cu	2.099433	0.855540	0.905873
O37	O	1.327211	-0.089403	0.335279
O38	O	1.577211	0.160597	0.585279
O39	O	1.827211	0.410597	0.835279
O40	O	2.077211	0.660597	1.085279
C41	C	1.134271	-0.000076	0.170595
C42	C	1.384271	0.249924	0.420595
C43	C	1.634271	0.499924	0.670595
C44	C	1.884271	0.749924	0.920595
C45	C	1.008258	-0.000066	0.167580
C46	C	1.258258	0.249934	0.417580
C47	C	1.508258	0.499934	0.667580
C48	C	1.758258	0.749934	0.917580
N49	N	1.323206	-0.254314	0.182153
N50	N	1.573206	-0.004314	0.432153
N51	N	1.823206	0.245686	0.682153
N52	N	2.073206	0.495686	0.932153
C53	C	0.777544	-0.000097	0.162040
C54	C	1.027544	0.249903	0.412040
C55	C	1.277544	0.499903	0.662040
C56	C	1.527544	0.749903	0.912040
C57	C	0.905930	-0.000080	0.165118
C58	C	1.155930	0.249920	0.415118
C59	C	1.405930	0.499920	0.665118
C60	C	1.655930	0.749920	0.915118
C61	C	1.307282	-0.473427	0.198124
C62	C	1.557282	-0.223427	0.448124
C63	C	1.807282	0.026573	0.698124
C64	C	2.057282	0.276573	0.948124
C65	C	1.376186	-0.526762	0.129045
C66	C	1.626186	-0.276762	0.379045
C67	C	1.876186	-0.026762	0.629045
C68	C	2.126186	0.223238	0.879045
C69	C	1.367326	-0.648685	0.137932
C70	C	1.617326	-0.398685	0.387932
C71	C	1.867326	-0.148685	0.637932
C72	C	2.117326	0.101315	0.887932
C73	C	1.316141	-0.351494	0.189239
C74	C	1.566141	-0.101494	0.439239
C75	C	1.816141	0.148506	0.689239
C76	C	2.066141	0.398506	0.939239
C77	C	1.549192	-0.000105	0.156579
C78	C	1.799192	0.249895	0.406579
C79	C	2.049192	0.499895	0.656579
C80	C	2.299192	0.749895	0.906579
C81	C	1.675205	-0.000107	0.159594
C82	C	1.925205	0.249893	0.409594
C83	C	2.175205	0.499893	0.659594
C84	C	2.425205	0.749893	0.909594
C85	C	1.348731	-0.000099	-0.043872
C86	C	1.598731	0.249901	0.206128
C87	C	1.848731	0.499901	0.456128
C88	C	2.098731	0.749901	0.706128
C89	C	1.345711	-0.000098	-0.169886
C90	C	1.595711	0.249902	0.080114
C91	C	1.845711	0.499902	0.330114
C92	C	2.095711	0.749902	0.580114
N93	N	1.360266	0.254131	0.145013
N94	N	1.610266	0.504131	0.395013
N95	N	1.860266	0.754131	0.645013
N96	N	2.110266	1.004131	0.895013
C97	C	1.343257	-0.000094	-0.272222
C98	C	1.593257	0.249906	-0.022222
C99	C	1.843257	0.499906	0.227778
C100	C	2.093257	0.749906	0.477778
C101	C	1.340189	-0.000084	-0.400610
C102	C	1.590189	0.249916	-0.150610
C103	C	1.840189	0.499916	0.099390
C104	C	2.090189	0.749916	0.349390
C105	C	1.334732	-0.000081	0.371047
C106	C	1.584732	0.249919	0.621047
C107	C	1.834732	0.499919	0.871047
C108	C	2.084732	0.749919	1.121047
C109	C	1.337753	-0.000075	0.497059
C110	C	1.587753	0.249925	0.747059
C111	C	1.837753	0.499925	0.997059
C112	C	2.087753	0.749925	1.247059
H113	H	1.441832	-0.480857	0.063230
H114	H	1.691832	-0.230857	0.313230
H115	H	1.941832	0.019143	0.563230
H116	H	2.191832	0.269143	0.813230
C117	C	1.218602	-0.535440	0.287031
C118	C	1.468602	-0.285440	0.537031
C119	C	1.718602	-0.035440	0.787031
C120	C	1.968602	0.214560	1.037031
N121	N	1.151809	-0.582160	0.353995
N122	N	1.401809	-0.332160	0.603995
N123	N	1.651809	-0.082160	0.853995
N124	N	1.901809	0.167840	1.103995
