data_functionalizedCrystal
_audit_creation_method	'MofGen! by Chris Wilmer'
_symmetry_space_group_name_H-M	'P1'
_symmetry_Int_Tables_number	1
_symmetry_cell_setting	triclinic
loop_
_symmetry_equiv_pos_as_xyz
  x,y,z
_cell_length_a	12.759401
_cell_length_b	12.759400
_cell_length_c	11.169409
_cell_angle_alpha	89.966891
_cell_angle_beta	89.977535
_cell_angle_gamma	90.014907
loop_
_atom_site_label
_atom_site_type_symbol
_atom_site_fract_x
_atom_site_fract_y
_atom_site_fract_z
Zn1	Zn	1.606271	-0.418174	-0.678621
Zn2	Zn	1.606161	-0.593900	-0.477935
Zn3	Zn	1.430569	-0.418236	-0.477946
Zn4	Zn	1.430562	-0.593812	-0.678571
O5	O	1.518391	-0.506030	-0.578268
O6	O	1.753278	-0.441495	-0.652016
O7	O	1.582825	-0.570660	-0.309987
O8	O	1.453925	-0.271207	-0.504591
O9	O	1.753197	-0.570600	-0.504573
O10	O	1.583013	-0.271161	-0.652026
O11	O	1.453818	-0.441601	-0.309995
O12	O	1.283547	-0.441516	-0.504543
O13	O	1.453913	-0.570451	-0.846527
O14	O	1.283542	-0.570511	-0.651941
O15	O	1.583006	-0.441410	-0.846564
O16	O	1.582819	-0.740909	-0.504524
O17	O	1.453807	-0.740845	-0.651930
C18	C	1.245423	-0.506012	-0.578238
C19	C	1.128647	-0.506029	-0.578254
C20	C	1.073739	-0.573147	-0.501382
C21	C	0.964015	-0.573164	-0.501413
C22	C	0.964116	-0.438938	-0.655193
C23	C	1.073838	-0.438926	-0.655166
C24	C	0.814023	-0.697043	-0.458324
C25	C	0.759111	-0.764152	-0.381433
C26	C	0.794658	-0.780161	-0.264285
C27	C	0.885115	-0.729046	-0.224005
C28	C	0.940021	-0.661930	-0.300890
C29	C	0.904476	-0.645941	-0.418054
C30	C	1.223832	-0.315046	-0.698243
C31	C	1.278740	-0.247923	-0.775123
C32	C	1.243196	-0.231903	-0.892272
C33	C	1.152736	-0.282999	-0.932548
C34	C	1.097827	-0.350122	-0.855669
C35	C	1.133380	-0.366144	-0.738521
C36	C	1.518329	-0.778998	-0.578247
C37	C	1.518398	-0.895774	-0.578278
C38	C	1.585585	-0.950523	-0.655113
C39	C	1.585644	-1.060247	-0.655145
C40	C	1.451326	-1.060464	-0.501498
C41	C	1.451263	-0.950742	-0.501472
C42	C	1.623206	-1.210068	-0.796762
C43	C	1.690410	-1.264820	-0.873586
C44	C	1.792895	-1.229111	-0.892109
C45	C	1.828198	-1.138651	-0.833791
C46	C	1.761001	-1.083905	-0.756958
C47	C	1.658501	-1.119613	-0.738458
C48	C	1.413711	-0.800919	-0.359854
C49	C	1.346518	-0.746170	-0.283014
C50	C	1.244031	-0.781878	-0.264478
C51	C	1.208731	-0.872341	-0.322776
C52	C	1.275924	-0.927089	-0.399616
C53	C	1.378411	-0.891374	-0.418153
C54	C	1.792424	-0.506050	-0.578299
C55	C	1.909201	-0.506058	-0.578312
C56	C	1.518471	-0.505914	-0.891311
C57	C	1.518506	-0.505864	-1.024711
C58	C	1.518482	-0.231997	-0.578316
C59	C	1.518521	-0.115220	-0.578336
C60	C	1.518371	-0.506071	-0.266443
C61	C	1.518540	-0.505825	-0.133044
H62	H	1.352393	-0.206311	-0.742316
H63	H	1.125278	-0.901417	-0.307681
H64	H	0.919478	-0.384304	-0.717810
H65	H	1.024162	-0.391716	-0.888467
H66	H	1.189324	-0.737292	-0.201905
C67	C	1.799826	-0.984400	-0.692816
N68	N	1.829070	-0.909447	-0.644513
C69	C	1.262942	-0.332667	-0.569371
N70	N	1.292399	-0.345934	-0.472304
H71	H	1.396669	-1.105233	-0.438964
C72	C	1.113634	-0.265379	-1.061420
N73	N	1.084184	-0.252103	-1.158489
C74	C	1.039521	-0.605711	-0.256590
N75	N	1.114471	-0.563373	-0.223222
H76	H	1.375270	-0.672514	-0.235539
C77	C	1.526455	-0.761632	-0.380239
N78	N	1.611374	-0.732041	-0.395586
C79	C	1.659429	-0.890062	-0.739608
N80	N	1.715048	-0.844525	-0.803256
H81	H	1.911657	-1.109591	-0.848868
C82	C	0.774918	-0.679446	-0.587197
N83	N	0.745457	-0.666188	-0.684264
H84	H	1.661656	-1.338473	-0.921070
C85	C	1.134024	-0.646970	-0.416786
N86	N	1.179428	-0.702579	-0.353069
H87	H	0.749943	-0.834806	-0.201682
C88	C	0.924203	-0.746652	-0.095127
N89	N	0.953648	-0.759916	0.001945
C90	C	0.659613	-0.820378	-0.425747
N91	N	0.584670	-0.862726	-0.459119
C92	C	1.866816	-1.289341	-0.976620
N93	N	1.922487	-1.334709	-1.040279
C94	C	1.303599	-0.158061	-0.976837
N95	N	1.349093	-0.102448	-1.040533
C96	C	1.510450	-1.249329	-0.776439
N97	N	1.425516	-1.278898	-0.761142
H98	H	1.247175	-1.000749	-0.447085
