data_functionalizedCrystal
_audit_creation_method	'MofGen! by Chris Wilmer'
_symmetry_space_group_name_H-M	'P1'
_symmetry_Int_Tables_number	1
_symmetry_cell_setting	triclinic
loop_
_symmetry_equiv_pos_as_xyz
  x,y,z
_cell_length_a	12.837943
_cell_length_b	12.503572
_cell_length_c	12.784890
_cell_angle_alpha	86.847872
_cell_angle_beta	83.967749
_cell_angle_gamma	93.890817
loop_
_atom_site_label
_atom_site_type_symbol
_atom_site_fract_x
_atom_site_fract_y
_atom_site_fract_z
O1	O	1.357242	0.089299	0.268324
O2	O	1.056656	0.089306	0.254797
O3	O	1.228946	0.089297	0.109061
O4	O	1.184953	0.089309	0.414060
O5	O	1.215987	-0.089345	0.120041
O6	O	1.043697	-0.089335	0.265778
O7	O	1.344283	-0.089342	0.279304
Cu8	Cu	1.192807	-0.105650	0.273543
Cu9	Cu	1.208133	0.105614	0.260558
O10	O	1.171994	-0.089333	0.425040
C11	C	1.011968	-0.000014	0.255718
C12	C	0.898120	-0.000012	0.242090
N13	N	1.182035	-0.254242	0.282677
C14	C	0.642392	-0.000021	0.405922
C15	C	0.535420	-0.000019	0.393123
C16	C	0.577201	-0.000015	0.203692
C17	C	0.684173	-0.000017	0.216492
C18	C	0.716764	-0.000018	0.317610
C19	C	0.823739	-0.000011	0.330409
C20	C	0.865517	-0.000015	0.140979
C21	C	0.758545	-0.000014	0.128180
C22	C	1.166189	-0.473356	0.296121
C23	C	1.234756	-0.526687	0.237976
C24	C	1.225939	-0.648610	0.245456
C25	C	1.175005	-0.351422	0.288642
C26	C	1.388971	-0.000020	0.278383
C27	C	1.502820	-0.000015	0.292011
C28	C	1.225328	-0.000023	0.075241
C29	C	1.233842	-0.000021	-0.041890
N30	N	1.218913	0.254206	0.251417
C31	C	1.340542	-0.000021	-0.210060
C32	C	1.332550	-0.000023	-0.100004
C33	C	1.143120	-0.000019	-0.093840
C34	C	1.151113	-0.000017	-0.203895
C35	C	1.249828	-0.000017	-0.262002
C36	C	1.257820	-0.000007	-0.372060
C37	C	1.068391	-0.000011	-0.365892
C38	C	1.060398	-0.000013	-0.255837
C39	C	1.175612	-0.000010	0.458860
C40	C	1.167098	-0.000006	0.575991
H41	H	0.850272	-0.000014	0.412744
H42	H	0.550639	-0.000103	0.121372
C43	C	0.968598	-0.000002	-0.423037
N44	N	0.893437	0.000008	-0.466080
C45	C	1.323016	-0.464668	0.163147
N46	N	1.389496	-0.417951	0.106795
H47	H	0.980028	-0.000017	-0.208511
H48	H	1.062751	-0.000027	-0.046510
H49	H	1.100870	-0.519260	0.351517
C50	C	0.722682	-0.000011	0.016955
N51	N	0.695671	-0.000004	-0.066822
H52	H	0.926084	-0.000005	0.069069
C53	C	0.678245	-0.000015	0.517151
N54	N	0.705248	-0.000011	0.600931
H55	H	1.338199	-0.000000	-0.419369
C56	C	1.449128	-0.000013	-0.273980
N57	N	1.530917	-0.000008	-0.322123
C58	C	1.432343	-0.000025	-0.042873
N59	N	1.507513	-0.000026	0.000159
H60	H	0.474868	-0.000025	0.465036
