data_functionalizedCrystal
_audit_creation_method	'MofGen! by Chris Wilmer'
_symmetry_space_group_name_H-M	'P1'
_symmetry_Int_Tables_number	1
_symmetry_cell_setting	triclinic
loop_
_symmetry_equiv_pos_as_xyz
  x,y,z
_cell_length_a	16.120530
_cell_length_b	12.594516
_cell_length_c	16.120297
_cell_angle_alpha	92.876309
_cell_angle_beta	90.128140
_cell_angle_gamma	87.107535
loop_
_atom_site_label
_atom_site_type_symbol
_atom_site_fract_x
_atom_site_fract_y
_atom_site_fract_z
Zn1	Zn	1.247525	-0.539250	-0.534592
Zn2	Zn	1.747525	-0.039250	-0.034592
Zn3	Zn	1.254502	-0.708694	-0.395543
Zn4	Zn	1.754502	-0.208694	0.104457
Zn5	Zn	1.115513	-0.521264	-0.388509
Zn6	Zn	1.615513	-0.021264	0.111491
Zn7	Zn	1.108459	-0.707714	-0.527512
Zn8	Zn	1.608459	-0.207714	-0.027512
O9	O	1.181500	-0.619231	-0.461539
O10	O	1.681500	-0.119231	0.038461
O11	O	1.364818	-0.569665	-0.522053
O12	O	1.864818	-0.069665	-0.022053
O13	O	1.241937	-0.676714	-0.278244
O14	O	1.741937	-0.176714	0.221756
O15	O	1.133056	-0.374708	-0.407906
O16	O	1.633056	0.125292	0.092094
O17	O	1.369944	-0.694154	-0.419895
O18	O	1.869944	-0.194154	0.080105
O19	O	1.230045	-0.387922	-0.515233
O20	O	1.730045	0.112078	-0.015233
O21	O	1.139822	-0.539010	-0.273076
O22	O	1.639822	-0.039010	0.226924
O23	O	0.998209	-0.538060	-0.401042
O24	O	1.498209	-0.038060	0.098958
O25	O	1.121034	-0.692484	-0.644817
O26	O	1.621034	-0.192484	-0.144817
O27	O	0.993027	-0.675043	-0.503166
O28	O	1.493027	-0.175043	-0.003166
O29	O	1.223205	-0.568715	-0.650019
O30	O	1.723205	-0.068715	-0.150019
O31	O	1.235097	-0.857506	-0.413030
O32	O	1.735097	-0.357506	0.086970
O33	O	1.127800	-0.856786	-0.509987
O34	O	1.627800	-0.356786	-0.009987
C35	C	0.965445	-0.604494	-0.450573
C36	C	1.465445	-0.104494	0.049427
C37	C	0.873015	-0.598217	-0.445901
C38	C	1.373015	-0.098217	0.054099
C39	C	0.703784	-0.586731	-0.437379
C40	C	1.203784	-0.086731	0.062621
C41	C	0.660053	-0.651812	-0.485759
C42	C	1.160053	-0.151812	0.014241
C43	C	0.565887	-0.645422	-0.481018
C44	C	1.065887	-0.145422	0.018982
C45	C	0.797959	-0.593120	-0.442120
C46	C	1.297959	-0.093120	0.057880
C47	C	1.181462	-0.895768	-0.461523
C48	C	1.681462	-0.395768	0.038477
C49	C	1.181520	-1.014079	-0.461547
C50	C	1.681520	-0.514079	0.038453
C51	C	1.239941	-1.083693	-0.408875
C52	C	1.739941	-0.583693	0.091125
C53	C	1.256413	-1.160447	-0.485802
C54	C	1.756413	-0.660447	0.014198
C55	C	1.165150	-1.148134	-0.384674
C56	C	1.665150	-0.648134	0.115326
C57	C	1.198029	-1.089279	-0.538516
C58	C	1.698029	-0.589279	-0.038516
C59	C	1.106733	-1.076955	-0.437335
C60	C	1.606733	-0.576955	0.062665
C61	C	1.123174	-1.153678	-0.514313
C62	C	1.623174	-0.653678	-0.014313
C63	C	1.398398	-0.634025	-0.472548
C64	C	1.898398	-0.134025	0.027452
C65	C	1.490827	-0.640330	-0.477240
C66	C	1.990827	-0.140330	0.022760
C67	C	1.170555	-0.632496	-0.678434
C68	C	1.670555	-0.132496	-0.178434
C69	C	1.165890	-0.638149	-0.770862
C70	C	1.665890	-0.138149	-0.270862
C71	C	1.181559	-0.341616	-0.461575
C72	C	1.681559	0.158384	0.038425
C73	C	1.181585	-0.223313	-0.461590
C74	C	1.681585	0.276687	0.038410
C75	C	1.157344	-0.648444	-0.940087
C76	C	1.657344	-0.148444	-0.440087
C77	C	1.205819	-0.589709	-0.983851
C78	C	1.705819	-0.089709	-0.483851
C79	C	1.201064	-0.595437	-1.078014
C80	C	1.701064	-0.095437	-0.578014
C81	C	1.162098	-0.642717	-0.845915
C82	C	1.662098	-0.142717	-0.345915
C83	C	1.192450	-0.605943	-0.245490
C84	C	1.692450	-0.105943	0.254510
C85	C	1.197275	-0.600001	-0.153071
C86	C	1.697275	-0.100001	0.346929
H87	H	1.289351	-1.052958	-0.364374
H88	H	1.789351	-0.552958	0.135626
H89	H	1.112277	-0.703028	-0.973335
H90	H	1.612277	-0.203028	-0.473335
C91	C	0.658829	-0.504992	-0.376611
C92	C	1.158829	-0.004992	0.123389
H93	H	0.600520	-0.511380	-0.381352
H94	H	1.100520	-0.011380	0.118648
H95	H	0.672402	-0.435191	-0.389565
H96	H	1.172402	0.064809	0.110435
H97	H	0.675817	-0.518000	-0.321416
H98	H	1.175817	-0.018000	0.178584
H99	H	1.319686	-1.196913	-0.506304
H100	H	1.819686	-0.696913	-0.006304
H101	H	1.211836	-1.063357	-0.603597
H102	H	1.711836	-0.563357	-0.103597
H103	H	0.693335	-0.712328	-0.530741
H104	H	1.193335	-0.212328	-0.030741
C105	C	1.056469	-1.194956	-0.574581
C106	C	1.556469	-0.694956	-0.074581
H107	H	1.068260	-1.174828	-0.629162
H108	H	1.568260	-0.674828	-0.129162
H109	H	1.003459	-1.165174	-0.557834
H110	H	1.503459	-0.665174	-0.057834
H111	H	1.056553	-1.270346	-0.573938
H112	H	1.556553	-0.770346	-0.073938
C113	C	1.266713	-0.515972	-0.938943
C114	C	1.766713	-0.015972	-0.438943
H115	H	1.296500	-0.479870	-0.978787
H116	H	1.796500	0.020130	-0.478787
H117	H	1.304611	-0.557143	-0.906903
H118	H	1.804611	-0.057143	-0.406903
H119	H	1.236590	-0.465398	-0.903440
H120	H	1.736590	0.034602	-0.403440
H121	H	1.151277	-1.174187	-0.319645
H122	H	1.651277	-0.674187	0.180355
C123	C	1.021288	-1.027649	-0.409609
C124	C	1.521288	-0.527649	0.090391
H125	H	1.009716	-1.047608	-0.354932
H126	H	1.509716	-0.547608	0.145068
H127	H	0.979698	-1.052610	-0.446482
H128	H	1.479698	-0.552610	0.053518
H129	H	1.021742	-0.952300	-0.410287
H130	H	1.521742	-0.452300	0.089713
