data_functionalizedCrystal
_audit_creation_method	'MofGen! by Chris Wilmer'
_symmetry_space_group_name_H-M	'P1'
_symmetry_Int_Tables_number	1
_symmetry_cell_setting	triclinic
loop_
_symmetry_equiv_pos_as_xyz
  x,y,z
_cell_length_a	9.065218
_cell_length_b	19.188930
_cell_length_c	8.140239
_cell_angle_alpha	89.991371
_cell_angle_beta	89.997198
_cell_angle_gamma	84.080333
loop_
_atom_site_label
_atom_site_type_symbol
_atom_site_fract_x
_atom_site_fract_y
_atom_site_fract_z
O1	O	1.956846	0.102369	-0.136639
O2	O	2.456846	0.602369	0.363361
O3	O	1.527270	0.110766	-0.136643
O4	O	2.027270	0.610766	0.363357
O5	O	1.754455	0.005009	-0.136609
O6	O	2.254455	0.505009	0.363391
O7	O	1.729662	0.208127	-0.136674
O8	O	2.229662	0.708127	0.363326
O9	O	1.754443	0.005007	0.136618
O10	O	2.254443	0.505007	0.636618
O11	O	1.527258	0.110765	0.136584
O12	O	2.027258	0.610765	0.636584
O13	O	1.956834	0.102368	0.136588
O14	O	2.456834	0.602368	0.636588
Zn15	Zn	1.742044	0.106566	0.179966
Zn16	Zn	2.242044	0.606566	0.679966
Zn17	Zn	1.742060	0.106568	-0.180022
Zn18	Zn	2.242060	0.606568	0.319978
O19	O	1.729649	0.208126	0.136553
O20	O	2.229649	0.708126	0.636553
C21	C	1.472305	0.109959	-0.000030
C22	C	1.972305	0.609959	0.499970
C23	C	1.308546	0.107546	-0.000030
C24	C	1.808546	0.607546	0.499970
C25	C	1.753646	-0.021009	0.000009
C26	C	2.253646	0.478991	0.500009
C27	C	1.751236	-0.098533	0.000023
C28	C	2.251236	0.401467	0.500023
C29	C	1.884540	-0.142421	0.000032
C30	C	2.384540	0.357579	0.500032
C31	C	1.882276	-0.215262	0.000006
C32	C	2.382276	0.284738	0.500006
C33	C	1.746699	-0.244212	0.000003
C34	C	2.246699	0.255788	0.500003
C35	C	1.613377	-0.200314	-0.000015
C36	C	2.113377	0.299686	0.499985
C37	C	1.615646	-0.127474	-0.000005
C38	C	2.115646	0.372526	0.499995
N39	N	1.643063	-0.353023	0.092987
N40	N	2.143063	0.146977	0.592987
N41	N	1.640918	-0.422218	0.092981
N42	N	2.140918	0.077782	0.592981
C43	C	1.739858	-0.463674	-0.000030
C44	C	2.239858	0.036326	0.499970
N45	N	1.841047	-0.433322	-0.093014
N46	N	2.341047	0.066678	0.406986
N47	N	1.843197	-0.364120	-0.093001
N48	N	2.343197	0.135880	0.406999
C49	C	1.744225	-0.323194	-0.000008
C50	C	2.244225	0.176806	0.499992
C51	C	1.870716	-0.586546	-0.000052
C52	C	2.370716	-0.086546	0.499948
C53	C	1.868446	-0.659388	-0.000088
C54	C	2.368446	-0.159388	0.499912
C55	C	1.599544	-0.644438	-0.000092
C56	C	2.099544	-0.144438	0.499908
C57	C	1.601818	-0.571598	-0.000072
C58	C	2.101818	-0.071598	0.499928
C59	C	1.737408	-0.542656	-0.000044
C60	C	2.237408	-0.042656	0.499956
C61	C	2.011799	0.103176	-0.000029
C62	C	2.511799	0.603176	0.499971
C63	C	2.175558	0.105589	-0.000040
C64	C	2.675558	0.605589	0.499960
C65	C	1.730458	0.234144	-0.000068
C66	C	2.230458	0.734144	0.499932
C67	C	1.732869	0.311667	-0.000093
C68	C	2.232869	0.811667	0.499907
N69	N	1.742044	0.106565	0.425649
N70	N	2.242044	0.606565	0.925649
N71	N	1.742073	0.106564	-0.425705
N72	N	2.242073	0.606564	0.074295
H73	H	1.990832	-0.251003	0.000007
H74	H	2.490832	0.248997	0.500007
C75	C	1.464248	-0.232156	-0.000012
C76	C	1.964248	0.267844	0.499988
H77	H	1.481988	-0.281823	0.000001
H78	H	1.981988	0.218177	0.500001
H79	H	1.409380	-0.217142	-0.095292
H80	H	1.909380	0.282858	0.404708
H81	H	1.409377	-0.217154	0.095281
H82	H	1.909377	0.282846	0.595281
C83	C	2.033679	-0.110585	0.000057
C84	C	2.533679	0.389415	0.500057
H85	H	2.015943	-0.060918	0.000076
H86	H	2.515943	0.439082	0.500076
H87	H	2.088564	-0.125585	-0.095216
H88	H	2.588564	0.374415	0.404784
H89	H	2.088531	-0.125602	0.095356
H90	H	2.588531	0.374398	0.595356
C91	C	1.469004	-0.079195	0.000000
C92	C	1.969004	0.420805	0.500000
H93	H	1.387932	-0.106866	0.000003
H94	H	1.887932	0.393134	0.500003
H95	H	1.464304	-0.050458	-0.095270
H96	H	1.964304	0.449542	0.404730
H97	H	1.464300	-0.050483	0.095303
H98	H	1.964300	0.449517	0.595303
H99	H	1.981122	-0.562980	-0.000036
H100	H	2.481122	-0.062980	0.499964
H101	H	1.977004	-0.695122	-0.000090
H102	H	2.477004	-0.195122	0.499910
C103	C	1.450412	-0.676275	-0.000100
C104	C	1.950412	-0.176275	0.499900
H105	H	1.468151	-0.725942	-0.000098
H106	H	1.968151	-0.225942	0.499902
H107	H	1.395547	-0.661256	-0.095379
H108	H	1.895547	-0.161256	0.404621
H109	H	1.395539	-0.661276	0.095193
H110	H	1.895539	-0.161276	0.595193
C111	C	1.455181	-0.523318	-0.000055
C112	C	1.955181	-0.023318	0.499945
H113	H	1.374110	-0.550990	-0.000046
H114	H	1.874110	-0.050990	0.499954
H115	H	1.450476	-0.494582	-0.095327
H116	H	1.950476	0.005418	0.404673
H117	H	1.450479	-0.494604	0.095246
H118	H	1.950479	0.005396	0.595246
