data_functionalizedCrystal
_audit_creation_method	'MofGen! by Chris Wilmer'
_symmetry_space_group_name_H-M	'P1'
_symmetry_Int_Tables_number	1
_symmetry_cell_setting	triclinic
loop_
_symmetry_equiv_pos_as_xyz
  x,y,z
_cell_length_a	11.792241
_cell_length_b	17.038272
_cell_length_c	10.268362
_cell_angle_alpha	89.994496
_cell_angle_beta	89.999626
_cell_angle_gamma	87.652486
loop_
_atom_site_label
_atom_site_type_symbol
_atom_site_fract_x
_atom_site_fract_y
_atom_site_fract_z
O1	O	1.516303	0.107207	-0.108175
O2	O	1.186930	0.118256	-0.108205
O3	O	1.349659	-0.001093	-0.108180
O4	O	1.353574	0.226556	-0.108200
O5	O	1.349643	-0.001098	0.108421
O6	O	1.186914	0.118251	0.108396
O7	O	1.516287	0.107202	0.108426
Cu8	Cu	1.351600	0.112726	0.128188
Cu9	Cu	1.351618	0.112732	-0.127967
O10	O	1.353558	0.226551	0.108401
C11	C	1.144571	0.117559	0.000092
C12	C	1.018375	0.115482	0.000080
C13	C	0.787328	0.111662	0.000118
C14	C	0.915899	0.113785	0.000097
C15	C	1.346090	-0.030239	0.000120
C16	C	1.335466	-0.117079	0.000119
C17	C	1.433006	-0.166762	0.000129
C18	C	1.423017	-0.248357	0.000116
C19	C	1.315487	-0.280267	0.000102
C20	C	1.217940	-0.230577	0.000087
C21	C	1.227930	-0.148984	0.000091
C22	C	1.280194	-0.526181	0.000081
C23	C	1.270211	-0.607780	0.000080
C24	C	1.475289	-0.625554	0.000107
C25	C	1.485270	-0.543958	0.000118
C26	C	1.387723	-0.494276	0.000097
C27	C	1.305274	-0.363669	0.000092
C28	C	1.397937	-0.410875	0.000097
C29	C	1.558647	0.107899	0.000127
C30	C	1.684843	0.109976	0.000130
C31	C	1.357127	0.255697	0.000098
C32	C	1.367751	0.342537	0.000091
N33	N	1.351595	0.112721	0.308354
N34	N	1.351631	0.112730	-0.308133
C35	C	1.351612	0.112730	0.574025
C36	C	1.351599	0.112728	0.426187
H37	H	1.520568	-0.140788	0.000149
H38	H	1.217723	-0.389660	0.000083
H39	H	1.502445	-0.288806	0.000127
O40	O	1.589667	-0.512875	-0.000050
C41	C	1.601604	-0.466219	-0.112243
H42	H	1.514078	-0.446272	-0.149650
H43	H	1.648357	-0.502048	-0.190792
C44	C	1.777220	-0.418302	-0.032214
C45	C	1.669719	-0.393796	-0.078152
H46	H	1.819241	-0.373629	-0.011189
H47	H	1.769180	-0.449737	0.043370
H48	H	1.816166	-0.448160	-0.097680
H49	H	1.630770	-0.363948	-0.012681
H50	H	1.677754	-0.362354	-0.153725
O51	O	1.569924	-0.673927	0.000058
C52	C	1.538056	-0.752787	0.000084
H53	H	1.448572	-0.756290	-0.040929
H54	H	1.540078	-0.776371	0.103997
C55	C	1.731297	-0.798034	-0.034485
C56	C	1.621395	-0.802338	-0.084868
H57	H	1.782707	-0.828602	-0.086882
H58	H	1.752769	-0.744906	-0.034498
H59	H	1.732966	-0.817687	0.052108
H60	H	1.619725	-0.782677	-0.171453
H61	H	1.599925	-0.855465	-0.084872
O62	O	1.113422	-0.261478	0.000243
C63	C	1.053484	-0.236154	0.112430
H64	H	1.089891	-0.179442	0.149836
H65	H	1.062064	-0.283312	0.190983
C66	C	0.882522	-0.291047	0.032393
C67	C	0.927232	-0.221390	0.078329
H68	H	0.804643	-0.281943	0.011361
H69	H	0.922904	-0.308112	-0.043188
H70	H	0.889683	-0.330339	0.097861
H71	H	0.920084	-0.182102	0.012855
H72	H	0.886846	-0.204318	0.153898
H73	H	1.182643	-0.633757	0.000090
O74	O	1.185526	-0.477844	0.000241
C75	C	1.185143	-0.430133	0.112435
H76	H	1.275662	-0.425628	0.149845
H77	H	1.130686	-0.457195	0.190982
C78	C	1.024835	-0.353077	0.032401
C79	C	1.136013	-0.347539	0.078342
H80	H	0.994524	-0.302130	0.011375
H81	H	1.025089	-0.385222	-0.043184
H82	H	0.979468	-0.375632	0.097865
H83	H	1.181381	-0.324994	0.012873
H84	H	1.135765	-0.315388	0.153916
H85	H	1.148503	-0.108532	0.000083
O86	O	1.502326	-0.379788	-0.000062
C87	C	1.514259	-0.333132	-0.112256
H88	H	1.426731	-0.313197	-0.149672
H89	H	1.561028	-0.368956	-0.190799
C90	C	1.689853	-0.285189	-0.032210
C91	C	1.582350	-0.260698	-0.078160
H92	H	1.731859	-0.240510	-0.011182
H93	H	1.681817	-0.316624	0.043375
H94	H	1.728813	-0.315042	-0.097671
H95	H	1.543387	-0.230854	-0.012694
H96	H	1.590382	-0.229256	-0.153733
