data_functionalizedCrystal
_audit_creation_method	'MofGen! by Chris Wilmer'
_symmetry_space_group_name_H-M	'P1'
_symmetry_Int_Tables_number	1
_symmetry_cell_setting	triclinic
loop_
_symmetry_equiv_pos_as_xyz
  x,y,z
_cell_length_a	10.489711
_cell_length_b	10.489741
_cell_length_c	10.868271
_cell_angle_alpha	90.005316
_cell_angle_beta	90.002197
_cell_angle_gamma	84.533091
loop_
_atom_site_label
_atom_site_type_symbol
_atom_site_fract_x
_atom_site_fract_y
_atom_site_fract_z
O1	O	1.694068	0.179790	0.102366
O2	O	1.322868	0.196722	0.102359
O3	O	1.516915	0.002657	0.102355
O4	O	1.500022	0.373855	0.102370
O5	O	1.516912	0.002646	-0.102289
O6	O	1.322866	0.196711	-0.102286
O7	O	1.694066	0.179779	-0.102279
Zn8	Zn	1.508465	0.188243	-0.134774
Zn9	Zn	1.508469	0.188257	0.134854
O10	O	1.500019	0.373844	-0.102275
C11	C	1.275334	0.195446	0.000035
C12	C	1.133703	0.191644	0.000032
C13	C	0.951317	0.308348	0.000051
C14	C	1.043463	0.250058	0.100947
C15	C	1.043434	0.250016	-0.100816
C16	C	0.973512	0.126515	0.101038
C17	C	0.973473	0.126491	-0.100816
C18	C	1.065593	0.068111	0.000105
C19	C	1.515638	-0.044880	0.000034
C20	C	1.511820	-0.186509	0.000036
C21	C	1.388354	-0.254636	0.000042
C22	C	1.446677	-0.346770	-0.100857
C23	C	1.446709	-0.346734	0.100907
C24	C	1.570194	-0.276778	-0.100947
C25	C	1.570209	-0.276732	0.100907
C26	C	1.628622	-0.368839	-0.000016
C27	C	1.741600	0.181055	0.000047
C28	C	1.883231	0.184857	0.000058
C29	C	1.501296	0.421381	0.000049
C30	C	1.505114	0.563010	0.000055
N31	N	1.508471	0.188258	0.318868
N32	N	1.508473	0.188233	-0.318788
C33	C	1.508468	0.188250	0.569874
C34	C	1.508466	0.188258	0.430197
H35	H	0.942704	0.074317	0.186438
F36	F	1.083899	0.318334	-0.212309
H37	H	1.730226	-0.418274	-0.000070
H38	H	1.115050	-0.033484	0.000152
F39	F	1.255670	-0.189725	-0.000087
H40	H	1.394435	-0.377780	-0.186162
H41	H	1.622389	-0.245956	-0.186345
H42	H	1.622407	-0.245689	0.186217
H43	H	0.901626	0.409850	0.000155
H44	H	1.074459	0.302318	0.186249
F45	F	0.932920	0.058243	-0.212321
F46	F	1.378399	-0.387221	0.212397
