data_functionalizedCrystal
_audit_creation_method	'MofGen! by Chris Wilmer'
_symmetry_space_group_name_H-M	'P1'
_symmetry_Int_Tables_number	1
_symmetry_cell_setting	triclinic
loop_
_symmetry_equiv_pos_as_xyz
  x,y,z
_cell_length_a	8.497365
_cell_length_b	10.686285
_cell_length_c	10.686220
_cell_angle_alpha	89.654569
_cell_angle_beta	85.661520
_cell_angle_gamma	85.581624
loop_
_atom_site_label
_atom_site_type_symbol
_atom_site_fract_x
_atom_site_fract_y
_atom_site_fract_z
Zn1	Zn	-0.670953	-0.351837	-1.956275
Zn2	Zn	-0.170953	0.148163	-1.456275
Zn3	Zn	-0.385539	-0.561733	-1.972227
Zn4	Zn	0.114461	-0.061733	-1.472227
Zn5	Zn	-0.425716	-0.368084	-1.746466
Zn6	Zn	0.074284	0.131916	-1.246466
Zn7	Zn	-0.667821	-0.577660	-1.762600
Zn8	Zn	-0.167821	-0.077660	-1.262600
O9	O	-0.537507	-0.464829	-1.859392
O10	O	-0.037507	0.035171	-1.359392
O11	O	-0.617589	-0.366216	-2.133927
O12	O	-0.117589	0.133784	-1.633927
O13	O	-0.170101	-0.536179	-1.942203
O14	O	0.329899	-0.036179	-1.442203
O15	O	-0.476373	-0.190379	-1.760870
O16	O	0.023627	0.309621	-1.260870
O17	O	-0.407897	-0.520425	-2.145646
O18	O	0.092103	-0.020425	-1.645646
O19	O	-0.656547	-0.178442	-1.915016
O20	O	-0.156547	0.321558	-1.415016
O21	O	-0.199619	-0.393906	-1.776337
O22	O	0.300381	0.106094	-1.276337
O23	O	-0.473335	-0.409350	-1.573071
O24	O	0.026665	0.090650	-1.073071
O25	O	-0.889004	-0.547570	-1.788368
O26	O	-0.389004	-0.047570	-1.288368
O27	O	-0.651208	-0.563324	-1.584924
O28	O	-0.151208	-0.063324	-1.084924
O29	O	-0.891306	-0.381659	-1.930660
O30	O	-0.391306	0.118341	-1.430660
O31	O	-0.404860	-0.739396	-1.957847
O32	O	0.095140	-0.239396	-1.457847
O33	O	-0.612250	-0.751097	-1.803835
O34	O	-0.112250	-0.251097	-1.303835
C35	C	-0.503887	-0.790762	-1.884357
C36	C	-0.003887	-0.290762	-1.384357
C37	C	-0.489546	-0.930189	-1.895152
C38	C	0.010454	-0.430189	-1.395152
C39	C	-0.566292	-0.489829	-1.533483
C40	C	-0.066292	0.010171	-1.033483
C41	C	-0.578641	-0.500554	-1.394060
C42	C	-0.078641	-0.000554	-0.894060
C43	C	-0.127621	-0.464972	-1.859312
C44	C	0.372379	0.035028	-1.359312
C45	C	0.051011	-0.464701	-1.859471
C46	C	0.551011	0.035299	-1.359471
C47	C	-0.508611	-0.439732	-2.186573
C48	C	-0.008611	0.060268	-1.686573
C49	C	-0.496297	-0.429037	-2.325999
C50	C	0.003703	0.070963	-1.825999
C51	C	-0.571291	-0.137619	-1.834364
C52	C	-0.071291	0.362381	-1.334364
C53	C	-0.585687	0.001818	-1.823698
C54	C	-0.085687	0.501818	-1.323698
H55	H	-0.678971	-0.949729	-1.754265
H56	H	-0.178971	-0.449729	-1.254265
H57	H	-0.416350	-0.359603	-1.374391
H58	H	0.083650	0.140397	-0.874391
O59	O	-0.684454	-0.592641	-1.330027
O60	O	-0.184454	-0.092641	-0.830027
H61	H	-0.808340	-0.569375	-1.353527
H62	H	-0.308340	-0.069375	-0.853527
H63	H	-0.396247	-0.978651	-1.964581
H64	H	0.103753	-0.478651	-1.464581
