data_functionalizedCrystal
_audit_creation_method	'MofGen! by Chris Wilmer'
_symmetry_space_group_name_H-M	'P1'
_symmetry_Int_Tables_number	1
_symmetry_cell_setting	triclinic
loop_
_symmetry_equiv_pos_as_xyz
  x,y,z
_cell_length_a	15.944551
_cell_length_b	27.732048
_cell_length_c	14.421503
_cell_angle_alpha	89.999321
_cell_angle_beta	89.996859
_cell_angle_gamma	83.070697
loop_
_atom_site_label
_atom_site_type_symbol
_atom_site_fract_x
_atom_site_fract_y
_atom_site_fract_z
O1	O	1.113714	0.062334	-0.077025
O2	O	0.869064	0.070020	-0.077050
O3	O	0.998987	-0.004187	-0.077019
O4	O	0.983791	0.136540	-0.077056
O5	O	0.998966	-0.004176	0.077204
O6	O	0.869042	0.070031	0.077174
O7	O	1.113693	0.062345	0.077198
Cu8	Cu	0.991366	0.066189	0.091268
Cu9	Cu	0.991391	0.066176	-0.091119
O10	O	0.983769	0.136552	0.077168
C11	C	0.837763	0.069706	0.000059
C12	C	0.744530	0.068749	0.000051
C13	C	0.998658	-0.022190	0.000095
C14	C	0.997697	-0.075849	0.000103
C15	C	0.530305	0.020466	0.000081
C16	C	0.469002	0.042882	-0.075965
C17	C	0.573827	0.067019	0.000062
C18	C	0.469003	0.042904	0.076087
C19	C	0.408936	0.065344	0.000077
C20	C	0.513752	0.089447	-0.076047
C21	C	0.513759	0.089463	0.076074
C22	C	0.452474	0.111912	0.000009
C23	C	0.668816	0.067983	0.000053
C24	C	0.313947	0.064384	0.000080
C25	C	1.068426	-0.414358	0.000062
C26	C	1.064862	-0.616033	0.000049
O27	O	1.129539	-0.647008	0.000015
N28	N	0.987823	-0.635490	0.000042
C29	C	0.911669	-0.604525	0.000032
O30	O	0.846061	-0.625703	0.000017
C31	C	0.915234	-0.402851	0.000039
C32	C	0.992278	-0.383397	0.000055
C33	C	1.145464	-0.394903	0.000077
C34	C	1.146354	-0.344487	0.000086
C35	C	1.070206	-0.313526	0.000079
C36	C	0.993168	-0.332981	0.000064
C37	C	0.839081	-0.371887	0.000023
C38	C	0.839979	-0.321466	0.000022
C39	C	0.917024	-0.302012	0.000038
C40	C	0.917911	-0.251604	0.000065
N41	N	0.994950	-0.232147	0.000072
C42	C	1.071098	-0.263108	0.000079
C43	C	0.909803	-0.710408	0.000031
C44	C	0.908912	-0.760826	0.000031
C45	C	1.062105	-0.772330	0.000045
C46	C	1.062995	-0.721911	0.000052
C47	C	0.986842	-0.690950	0.000038
C48	C	1.072961	-0.157231	0.000097
C49	C	1.073845	-0.106810	0.000109
C50	C	0.920652	-0.095310	0.000090
C51	C	0.919768	-0.145727	0.000083
C52	C	0.995930	-0.176686	0.000083
O53	O	0.853269	-0.220600	0.000089
O54	O	1.136697	-0.241921	0.000074
C55	C	1.067536	-0.464774	0.000054
C56	C	0.990498	-0.484228	0.000039
C57	C	0.914350	-0.453268	0.000032
C58	C	0.989607	-0.534647	0.000039
C59	C	1.065754	-0.565608	0.000045
C60	C	1.142794	-0.546150	0.000052
C61	C	1.143684	-0.495734	0.000061
C62	C	0.837311	-0.472725	0.000025
C63	C	0.836427	-0.523141	0.000018
C64	C	0.912575	-0.554102	0.000024
C65	C	1.144993	0.062658	0.000087
C66	C	1.238227	0.063615	0.000090
C67	C	0.984099	0.154554	0.000051
C68	C	0.985059	0.208213	0.000038
N69	N	0.991354	0.066198	0.219549
N70	N	0.991409	0.066163	-0.219401
C71	C	0.931267	0.100495	0.469189
C72	C	1.007044	0.109880	0.530996
C73	C	0.991374	0.066186	0.408710
C74	C	0.915616	0.056813	0.530997
C75	C	0.991387	0.066176	0.591432
C76	C	1.067190	0.075592	0.469157
C77	C	0.975712	0.022507	0.469153
C78	C	1.051545	0.031872	0.530932
C79	C	0.991366	0.066193	0.303449
C80	C	0.991405	0.066169	0.696691
H81	H	0.564143	-0.018169	-0.000003
C82	C	1.229240	-0.428953	0.000095
N83	N	1.292346	-0.454596	0.000118
C84	C	1.120297	-0.007329	0.567343
N85	N	1.172083	-0.036851	0.594773
C86	C	0.540605	0.116045	0.162920
N87	N	0.560829	0.136063	0.228341
C88	C	1.153767	0.086358	0.432617
N89	N	1.218973	0.094470	0.405094
C90	C	0.957765	-0.027373	0.432419
N91	N	0.944237	-0.064943	0.404748
H92	H	0.449158	0.023187	-0.140246
C93	C	1.147749	-0.700516	0.000062
N94	N	1.211589	-0.684404	0.000066
C95	C	0.540417	0.116017	-0.163002
N96	N	0.560504	0.136027	-0.228497
C97	C	0.406987	0.164159	-0.000063
N98	N	0.372723	0.203509	-0.000122
H99	H	1.134979	-0.182432	0.000094
C100	C	1.226556	-0.580217	0.000058
N101	N	1.289643	-0.605878	0.000057
C102	C	0.442205	0.016299	0.162940
N103	N	0.422024	-0.003743	0.228355
C104	C	1.158603	-0.085414	0.000125
N105	N	1.222441	-0.069300	0.000134
C106	C	1.231110	-0.323094	0.000094
N107	N	1.294952	-0.306985	0.000096
C108	C	0.829057	0.046107	0.567690
N109	N	0.763858	0.038046	0.595323
H110	H	1.124107	-0.797547	0.000051
H111	H	0.776344	-0.387718	0.000004
H112	H	0.846175	-0.776661	0.000034
H113	H	1.206421	-0.479900	0.000073
C114	C	0.826023	-0.676357	0.000016
N115	N	0.762918	-0.650711	0.000007
H116	H	0.857033	-0.161567	0.000095
C117	C	0.836894	-0.061244	0.000076
N118	N	0.773806	-0.035584	0.000056
C119	C	0.756202	-0.287412	0.000010
N120	N	0.693102	-0.261764	0.000004
H121	H	0.773684	-0.538976	0.000013
H122	H	0.775301	-0.447521	0.000017
C123	C	0.862671	0.139723	0.432553
N124	N	0.811009	0.169270	0.404956
H125	H	1.020304	0.146814	0.558160
