data_functionalizedCrystal
_audit_creation_method	'MofGen! by Chris Wilmer'
_symmetry_space_group_name_H-M	'P1'
_symmetry_Int_Tables_number	1
_symmetry_cell_setting	triclinic
loop_
_symmetry_equiv_pos_as_xyz
  x,y,z
_cell_length_a	27.732048
_cell_length_b	16.098538
_cell_length_c	17.038272
_cell_angle_alpha	92.920305
_cell_angle_beta	86.877106
_cell_angle_gamma	87.289549
loop_
_atom_site_label
_atom_site_type_symbol
_atom_site_fract_x
_atom_site_fract_y
_atom_site_fract_z
O1	O	0.647197	-0.069149	0.089471
O2	O	0.507051	-0.069174	0.103608
O3	O	0.576291	-0.069155	-0.017266
O4	O	0.577957	-0.069168	0.210345
O5	O	0.572245	0.069357	-0.010233
O6	O	0.503005	0.069338	0.110641
O7	O	0.643151	0.069363	0.096504
Zn8	Zn	0.572436	0.091342	0.104689
Zn9	Zn	0.577766	-0.091153	0.095423
O10	O	0.573911	0.069344	0.217378
C11	C	0.487008	0.000078	0.106827
C12	C	0.433312	0.000069	0.105933
N13	N	0.568801	0.215890	0.111013
N14	N	0.581404	-0.215702	0.089092
C15	C	0.097506	0.000101	0.171738
C16	C	-0.104306	0.000109	0.168423
O17	O	-0.132810	0.000142	0.228597
N18	N	-0.126708	0.000112	0.096749
C19	C	-0.098654	0.000118	0.025900
O20	O	-0.122340	0.000129	-0.035139
C21	C	0.103156	0.000116	0.029216
C22	C	0.125556	0.000105	0.100894
C23	C	0.119906	0.000091	0.243410
C24	C	0.170356	0.000085	0.244238
C25	C	0.198406	0.000088	0.173394
C26	C	0.176006	0.000099	0.101722
C27	C	0.131209	0.000128	-0.041632
C28	C	0.181664	0.000130	-0.040797
C29	C	0.204064	0.000119	0.030881
C30	C	0.254506	0.000096	0.031705
N31	N	0.276908	0.000093	0.103379
C32	C	0.248858	0.000090	0.174223
C33	C	-0.204608	0.000117	0.024163
C34	C	-0.255060	0.000116	0.023334
C35	C	-0.260708	0.000109	0.165858
C36	C	-0.210254	0.000104	0.166686
C37	C	-0.182205	0.000114	0.095837
C38	C	0.354807	0.000075	0.175956
C39	C	0.405262	0.000065	0.176778
C40	C	0.410905	0.000077	0.034255
C41	C	0.360455	0.000082	0.033433
C42	C	0.332407	0.000084	0.104290
O43	O	0.283040	0.000072	-0.028436
O44	O	0.272552	0.000097	0.235254
C45	C	0.047056	0.000108	0.170910
C46	C	0.024656	0.000118	0.099238
C47	C	0.052706	0.000122	0.028394
C48	C	-0.025796	0.000117	0.098409
C49	C	-0.053846	0.000113	0.169253
C50	C	-0.031444	0.000111	0.240927
C51	C	0.019006	0.000104	0.241754
C52	C	0.030304	0.000124	-0.043280
C53	C	-0.020147	0.000130	-0.044102
C54	C	-0.048197	0.000126	0.026742
C55	C	0.663194	0.000108	0.093284
C56	C	0.716890	0.000112	0.094178
C57	C	0.572753	0.000100	-0.042860
C58	C	0.568232	0.000099	-0.129600
C59	C	0.598202	0.259483	0.059727
C60	C	0.595664	0.346672	0.064159
C61	C	0.563728	0.390265	0.119880
C62	C	0.534324	0.346666	0.171168
C63	C	0.536860	0.259479	0.166732
C64	C	0.554536	0.653513	0.135945
C65	C	0.552004	0.740705	0.140378
C66	C	0.613343	0.740705	0.033367
C67	C	0.615878	0.653517	0.028940
C68	C	0.586472	0.609925	0.080225
C69	C	0.561135	0.479385	0.124412
C70	C	0.589064	0.520806	0.075689
C71	C	0.609735	0.000108	-0.180198
C72	C	0.605485	0.000099	-0.261699
C73	C	0.559732	0.000088	-0.292601
C74	C	0.518226	0.000077	-0.241997
C75	C	0.522477	0.000080	-0.160498
C76	C	0.544715	0.000074	-0.538185
C77	C	0.540467	0.000074	-0.619691
C78	C	0.627727	0.000094	-0.639387
C79	C	0.631973	0.000102	-0.557885
C80	C	0.590468	0.000086	-0.507288
C81	C	0.555386	0.000082	-0.375908
C82	C	0.594814	0.000087	-0.423983
C83	C	0.577449	0.000086	0.242972
C84	C	0.581970	0.000082	0.329712
H85	H	0.423497	0.000056	0.235149
H86	H	0.433753	0.000077	-0.023425
O87	O	0.208965	0.000026	-0.109576
C88	C	0.271272	-0.071758	-0.195030
C89	C	0.240395	-0.071730	-0.117108
H90	H	0.296684	-0.129774	-0.201152
H91	H	0.293381	-0.013832	-0.195275
H92	H	0.246582	-0.071709	-0.246382
H93	H	0.265050	-0.071808	-0.065714
H94	H	0.218282	-0.129650	-0.116931
H95	H	0.097072	0.000091	0.301103
O96	O	0.530140	0.521639	0.178643
C97	C	0.506655	0.548348	0.316198
C98	C	0.541783	0.500429	0.254868
H99	H	0.516062	0.531230	0.377841
H100	H	0.468033	0.531197	0.305639
H101	H	0.509884	0.618146	0.310514
H102	H	0.538598	0.430619	0.260517
H103	H	0.580391	0.517648	0.265446
O104	O	0.641878	0.782961	-0.016566
C105	C	0.663797	0.809693	-0.151410
C106	C	0.631462	0.761771	-0.094943
H107	H	0.655380	0.792592	-0.214789
H108	H	0.703418	0.792529	-0.142603
H109	H	0.656506	0.879491	-0.138631
H110	H	0.638710	0.691963	-0.107687
H111	H	0.591850	0.779005	-0.103761
H112	H	0.661518	0.000105	-0.680591
O113	O	0.192168	0.000180	0.313818
C114	C	0.243739	0.071935	0.401145
C115	C	0.219076	0.071926	0.322313
H116	H	0.265492	0.129944	0.408045
H117	H	0.268936	0.014002	0.402158
H118	H	0.215016	0.071889	0.451621
H119	H	0.247766	0.072001	0.271793
H120	H	0.193870	0.129854	0.321367
O121	O	0.510972	-0.000032	-0.406028
C122	C	0.457624	-0.071825	-0.490224
C123	C	0.507943	-0.071788	-0.456181
H124	H	0.455154	-0.129842	-0.530766
H125	H	0.451756	-0.013900	-0.525004
H126	H	0.428693	-0.071785	-0.440050
H127	H	0.536904	-0.071857	-0.506306
H128	H	0.513768	-0.129708	-0.421379
H129	H	0.503207	0.000078	-0.644846
O130	O	0.620031	0.478517	0.021446
C131	C	0.643545	0.451936	-0.116114
C132	C	0.608434	0.499863	-0.054763
H133	H	0.634188	0.469190	-0.177742
H134	H	0.640310	0.382120	-0.110559
H135	H	0.682158	0.469061	-0.105450
H136	H	0.569807	0.482808	-0.065388
H137	H	0.611711	0.569668	-0.060333
O138	O	0.338770	0.000119	-0.036261
C139	C	0.349704	0.000070	-0.177540
C140	C	0.374320	0.000040	-0.098666
H141	H	0.378436	-0.000012	-0.228016
H142	H	0.324555	0.058055	-0.178604
H143	H	0.327895	-0.057879	-0.184389
H144	H	0.396154	0.057949	-0.091766
H145	H	0.399442	-0.057984	-0.097638
H146	H	0.488681	0.000073	-0.119301
H147	H	0.037239	0.000096	0.300122
H148	H	0.641883	0.618025	-0.016432
H149	H	0.510918	0.000062	-0.496998
O150	O	0.639234	-0.000014	-0.393881
C151	C	0.696778	-0.071780	-0.316967
C152	C	0.646457	-0.071764	-0.351005
H153	H	0.702638	-0.129793	-0.282308
H154	H	0.699261	-0.013851	-0.276312
H155	H	0.725705	-0.071731	-0.367137
H156	H	0.617500	-0.071843	-0.300887
H157	H	0.644015	-0.129688	-0.391680
O158	O	0.327639	0.000035	0.244855
C159	C	0.327374	0.000060	0.386306
C160	C	0.358200	0.000095	0.308338
H161	H	0.352069	0.000126	0.437653
H162	H	0.305314	-0.057920	0.386593
H163	H	0.301912	0.058014	0.392393
H164	H	0.383689	-0.057819	0.302200
H165	H	0.380228	0.058114	0.308086
H166	H	-0.054291	0.000104	0.298610
O167	O	0.624247	0.389114	0.014456
C168	C	0.686698	0.487507	0.002106
C169	C	0.654349	0.439507	0.058484
H170	H	0.711051	0.528248	0.037680
H171	H	0.663075	0.528393	-0.034614
H172	H	0.709941	0.441363	-0.038495
H173	H	0.631101	0.485591	0.099135
H174	H	0.678000	0.398609	0.095149
H175	H	-0.192020	0.000100	0.225052
H176	H	0.646992	0.000122	-0.155044
H177	H	0.480973	0.000063	-0.267164
H178	H	-0.038379	0.000132	-0.102475
H179	H	0.525996	0.776195	0.185756
H180	H	-0.283555	0.000106	0.223542
H181	H	-0.273293	0.000112	-0.035034
H182	H	0.053137	0.000129	-0.100971
H183	H	-0.181774	0.000126	-0.033534
O184	O	0.645761	0.000217	-0.310926
C185	C	0.689518	0.072000	-0.410711
C186	C	0.643876	0.071964	-0.355013
H187	H	0.688014	0.130010	-0.446359
H188	H	0.691405	0.014069	-0.452347
H189	H	0.722944	0.071972	-0.374615
H190	H	0.610424	0.072022	-0.391046
H191	H	0.642031	0.129891	-0.313375
O192	O	0.525929	0.611133	0.185661
C193	C	0.463521	0.512664	0.198041
C194	C	0.495878	0.560629	0.141645
H195	H	0.439223	0.471807	0.162476
H196	H	0.440228	0.558758	0.238622
H197	H	0.487185	0.471874	0.234782
H198	H	0.472251	0.601420	0.104853
H199	H	0.519174	0.514490	0.101116
H200	H	0.669230	0.000111	-0.532731
O201	O	0.503232	0.388975	0.225214
C202	C	0.420334	0.415628	0.273320
C203	C	0.455492	0.367678	0.212055
H204	H	0.381730	0.398414	0.262712
H205	H	0.423531	0.485441	0.267683
H206	H	0.429722	0.398484	0.334964
H207	H	0.446127	0.384752	0.150383
H208	H	0.452289	0.297877	0.217761
O209	O	0.629170	0.217196	0.005479
C210	C	0.652674	0.190641	-0.132087
C211	C	0.617564	0.238552	-0.070723
H212	H	0.643309	0.207902	-0.193709
H213	H	0.649445	0.120822	-0.126541
H214	H	0.691286	0.207773	-0.121429
H215	H	0.578937	0.221489	-0.081341
H216	H	0.620835	0.308359	-0.076283
O217	O	0.109534	0.000183	-0.111328
C218	C	0.120483	0.000169	-0.252603
C219	C	0.145090	0.000122	-0.173723
H220	H	0.149220	0.000102	-0.303070
H221	H	0.095333	0.058154	-0.253662
H222	H	0.098676	-0.057780	-0.259472
H223	H	0.166922	0.058031	-0.166802
H224	H	0.170213	-0.057902	-0.172699
O225	O	0.508353	0.217167	0.216662
C226	C	0.486380	0.190507	0.351504
C227	C	0.518704	0.238461	0.295048
H228	H	0.494731	0.207718	0.414891
H229	H	0.493680	0.120695	0.338829
H230	H	0.446772	0.207651	0.342581
H231	H	0.558324	0.221386	0.303938
H232	H	0.511364	0.308261	0.307736
