data_functionalizedCrystal
_audit_creation_method	'MofGen! by Chris Wilmer'
_symmetry_space_group_name_H-M	'P1'
_symmetry_Int_Tables_number	1
_symmetry_cell_setting	triclinic
loop_
_symmetry_equiv_pos_as_xyz
  x,y,z
_cell_length_a	18.215407
_cell_length_b	13.032721
_cell_length_c	18.215399
_cell_angle_alpha	97.151969
_cell_angle_beta	89.983176
_cell_angle_gamma	97.205008
loop_
_atom_site_label
_atom_site_type_symbol
_atom_site_fract_x
_atom_site_fract_y
_atom_site_fract_z
Zn1	Zn	1.087859	-0.416014	-0.453318
Zn2	Zn	1.421193	-0.082681	-0.119985
Zn3	Zn	1.754526	0.250653	0.213349
Zn4	Zn	1.072150	-0.590784	-0.345880
Zn5	Zn	1.405484	-0.257450	-0.012547
Zn6	Zn	1.738817	0.075883	0.320786
Zn7	Zn	0.964795	-0.416056	-0.330269
Zn8	Zn	1.298128	-0.082722	0.003064
Zn9	Zn	1.631461	0.250611	0.336398
Zn10	Zn	0.949140	-0.590718	-0.468899
Zn11	Zn	1.282473	-0.257385	-0.135566
Zn12	Zn	1.615806	0.075948	0.197767
O13	O	1.018486	-0.503393	-0.399592
O14	O	1.351819	-0.170060	-0.066258
O15	O	1.685153	0.163274	0.267075
O16	O	1.188759	-0.439208	-0.439079
O17	O	1.522092	-0.105874	-0.105745
O18	O	1.855426	0.227459	0.227588
O19	O	1.057887	-0.567650	-0.240829
O20	O	1.391220	-0.234317	0.092504
O21	O	1.724553	0.099016	0.425837
O22	O	0.994246	-0.269811	-0.333537
O23	O	1.327579	0.063522	-0.000204
O24	O	1.660912	0.396855	0.333129
O25	O	1.177218	-0.567610	-0.360145
O26	O	1.510551	-0.234277	-0.026811
O27	O	1.843884	0.099056	0.306522
O28	O	1.084661	-0.269781	-0.423941
O29	O	1.417994	0.063553	-0.090608
O30	O	1.751327	0.396886	0.242726
O31	O	0.979013	-0.439278	-0.229360
O32	O	1.312346	-0.105945	0.103974
O33	O	1.645680	0.227388	0.437307
O34	O	0.859735	-0.439215	-0.348646
O35	O	1.193068	-0.105882	-0.015313
O36	O	1.526401	0.227452	0.318021
O37	O	0.967564	-0.567499	-0.569813
O38	O	1.300897	-0.234165	-0.236480
O39	O	1.634231	0.099168	0.096854
O40	O	0.848233	-0.567539	-0.450497
O41	O	1.181566	-0.234205	-0.117164
O42	O	1.514900	0.099128	0.216169
O43	O	1.069481	-0.439144	-0.558365
O44	O	1.402814	-0.105811	-0.225032
O45	O	1.736147	0.227523	0.108302
O46	O	1.042707	-0.737014	-0.375254
O47	O	1.376040	-0.403680	-0.041920
O48	O	1.709373	-0.070347	0.291413
O49	O	0.952331	-0.736966	-0.465635
O50	O	1.285665	-0.403632	-0.132302
O51	O	1.618998	-0.070299	0.201032
C52	C	0.827281	-0.503375	-0.399569
C53	C	1.160615	-0.170042	-0.066236
C54	C	1.493948	0.163292	0.267098
C55	C	0.745481	-0.503393	-0.399579
C56	C	1.078814	-0.170059	-0.066246
C57	C	1.412148	0.163274	0.267088
C58	C	0.551308	-0.570316	-0.452563
C59	C	0.884641	-0.236983	-0.119230
C60	C	1.217975	0.096351	0.214103
C61	C	0.474449	-0.570319	-0.452573
C62	C	0.807782	-0.236986	-0.119239
C63	C	1.141116	0.096348	0.214094
C64	C	0.486415	-0.436489	-0.346638
C65	C	0.819748	-0.103155	-0.013305
C66	C	1.153081	0.230178	0.320029
C67	C	0.563273	-0.436481	-0.346632
C68	C	0.896606	-0.103148	-0.013299
C69	C	1.229939	0.230186	0.320034
C70	C	0.595717	-0.503401	-0.399594
C71	C	0.929050	-0.170067	-0.066261
C72	C	1.262383	0.163266	0.267072
C73	C	0.442000	-0.503412	-0.399609
C74	C	0.775333	-0.170078	-0.066276
C75	C	1.108666	0.163255	0.267057
C76	C	0.358666	-0.503415	-0.399619
C77	C	0.691999	-0.170081	-0.066286
C78	C	1.025332	0.163252	0.267047
C79	C	0.679056	-0.503396	-0.399586
C80	C	1.012389	-0.170063	-0.066252
C81	C	1.345723	0.163270	0.267081
C82	C	0.994136	-0.774908	-0.423845
C83	C	1.327469	-0.441574	-0.090512
C84	C	1.660802	-0.108241	0.242821
C85	C	0.983786	-0.891063	-0.434246
C86	C	1.317119	-0.557730	-0.100912
C87	C	1.650452	-0.224396	0.232421
C88	C	1.023927	-0.942838	-0.394197
C89	C	1.357260	-0.609505	-0.060863
C90	C	1.690594	-0.276171	0.272470
C91	C	1.013231	-1.062890	-0.404945
C92	C	1.346564	-0.729557	-0.071612
C93	C	1.679897	-0.396224	0.261722
C94	C	1.210437	-0.503412	-0.399615
C95	C	1.543771	-0.170078	-0.066282
C96	C	1.877104	0.163255	0.267052
C97	C	1.292235	-0.503420	-0.399625
C98	C	1.625569	-0.170086	-0.066292
C99	C	1.958902	0.163247	0.267042
C100	C	1.018528	-0.503309	-0.591537
C101	C	1.351862	-0.169976	-0.258204
C102	C	1.685195	0.163357	0.075129
C103	C	1.018546	-0.503274	-0.673333
C104	C	1.351880	-0.169940	-0.340000
C105	C	1.685213	0.163393	-0.006666
C106	C	1.042952	-0.230818	-0.375260
C107	C	1.376285	0.102516	-0.041926
C108	C	1.709618	0.435849	0.291407
C109	C	1.053377	-0.114662	-0.364891
C110	C	1.386711	0.218671	-0.031557
C111	C	1.720044	0.552004	0.301776
C112	C	0.977521	-0.436385	-0.855552
C113	C	1.310854	-0.103052	-0.522218
C114	C	1.644187	0.230281	-0.188885
C115	C	0.977535	-0.436364	-0.932409
C116	C	1.310869	-0.103031	-0.599075
C117	C	1.644202	0.230302	-0.265742
C118	C	1.059671	-0.570038	-0.944341
C119	C	1.393004	-0.236704	-0.611008
C120	C	1.726338	0.096629	-0.277674
C121	C	1.059652	-0.570063	-0.867486
C122	C	1.392985	-0.236730	-0.534153
C123	C	1.726319	0.096603	-0.200819
C124	C	1.018578	-0.503231	-0.823093
C125	C	1.351912	-0.169898	-0.489759
C126	C	1.685245	0.163436	-0.156426
C127	C	1.018612	-0.503185	-0.976805
C128	C	1.351946	-0.169851	-0.643471
C129	C	1.685279	0.163482	-0.310138
C130	C	1.018628	-0.503162	-1.060136
C131	C	1.351962	-0.169829	-0.726803
C132	C	1.685295	0.163504	-0.393470
C133	C	1.018561	-0.503255	-0.739756
C134	C	1.351894	-0.169921	-0.406423
C135	C	1.685227	0.163412	-0.073089
C136	C	1.018493	-0.503401	-0.208386
C137	C	1.351826	-0.170067	0.124947
C138	C	1.685160	0.163266	0.458281
C139	C	1.018644	-0.503142	-0.126565
C140	C	1.351977	-0.169809	0.206769
C141	C	1.685311	0.163525	0.540102
H142	H	0.599432	-0.381984	-0.303498
H143	H	0.932766	-0.048651	0.029835
H144	H	1.266099	0.284683	0.363169
N145	N	0.451417	-0.364331	-0.289509
N146	N	0.784750	-0.030998	0.043824
N147	N	1.118083	0.302336	0.377158
H148	H	0.491214	-0.321938	-0.255953
H149	H	0.824548	0.011395	0.077381
H150	H	1.157881	0.344729	0.410714
H151	H	0.423867	-0.316023	-0.315204
H152	H	0.757201	0.017310	0.018130
H153	H	1.090534	0.350644	0.351463
N154	N	1.109396	-1.055668	-0.308929
N155	N	1.442729	-0.722335	0.024405
N156	N	1.776062	-0.389001	0.357738
H157	H	1.160300	-1.074535	-0.322088
H158	H	1.493634	-0.741202	0.011245
H159	H	1.826967	-0.407869	0.344578
H160	H	1.109034	-0.978288	-0.309209
H161	H	1.442368	-0.644955	0.024125
H162	H	1.775701	-0.311622	0.357458
H163	H	1.093087	-0.624501	-0.841058
H164	H	1.426421	-0.291168	-0.507725
H165	H	1.759754	0.042166	-0.174392
N166	N	0.927776	-0.950063	-0.490209
N167	N	1.261109	-0.616730	-0.156876
N168	N	1.594442	-0.283397	0.176457
H169	H	0.928075	-1.027462	-0.489955
H170	H	1.261408	-0.694128	-0.156622
H171	H	1.594742	-0.360795	0.176711
H172	H	0.876899	-0.931117	-0.477021
H173	H	1.210233	-0.597783	-0.143688
H174	H	1.543566	-0.264450	0.189645
N175	N	0.586301	-0.642481	-0.509691
N176	N	0.919635	-0.309148	-0.176358
N177	N	1.252968	0.024186	0.156976
H178	H	0.641730	-0.632327	-0.501650
H179	H	0.975063	-0.298994	-0.168317
H180	H	1.308396	0.034339	0.165016
H181	H	0.566171	-0.717097	-0.504819
H182	H	0.899504	-0.383764	-0.171485
H183	H	1.232837	-0.050430	0.161848
N184	N	1.103981	-0.642101	-0.992224
N185	N	1.437314	-0.308768	-0.658890
N186	N	1.770648	0.024565	-0.325557
H187	H	1.129988	-0.684453	-0.959997
H188	H	1.463321	-0.351119	-0.626663
H189	H	1.796654	-0.017786	-0.293330
H190	H	1.069696	-0.690452	-1.028426
H191	H	1.403030	-0.357118	-0.695093
H192	H	1.736363	-0.023785	-0.361760
N193	N	0.426548	-0.642498	-0.509698
N194	N	0.759881	-0.309165	-0.176365
N195	N	1.093215	0.024168	0.156969
H196	H	0.441391	-0.626366	-0.560857
H197	H	0.774724	-0.293033	-0.227524
H198	H	1.108058	0.040300	0.105810
H199	H	0.433247	-0.717113	-0.504778
H200	H	0.766580	-0.383780	-0.171445
H201	H	1.099913	-0.050446	0.161888
N202	N	1.079946	-0.883838	-0.338243
N203	N	1.413280	-0.550504	-0.004909
N204	N	1.746613	-0.217171	0.328424
H205	H	1.079648	-0.806439	-0.338498
H206	H	1.412982	-0.473106	-0.005164
H207	H	1.746315	-0.139772	0.328169
H208	H	1.066839	-0.902923	-0.287368
H209	H	1.400172	-0.569590	0.045965
H210	H	1.733505	-0.236257	0.379299
N211	N	0.957218	-1.121887	-0.460912
N212	N	1.290551	-0.788553	-0.127578
N213	N	1.623884	-0.455220	0.205755
H214	H	0.957517	-1.199285	-0.460658
H215	H	1.290850	-0.865952	-0.127325
H216	H	1.624184	-0.532618	0.206009
H217	H	0.906341	-1.102940	-0.447724
H218	H	1.239675	-0.769607	-0.114390
H219	H	1.573008	-0.436273	0.218943
N220	N	0.933224	-0.364304	-0.807669
N221	N	1.266557	-0.030971	-0.474335
N222	N	1.599891	0.302363	-0.141002
H223	H	0.907217	-0.321955	-0.839897
H224	H	1.240550	0.011378	-0.506563
H225	H	1.573883	0.344712	-0.173230
H226	H	0.895342	-0.406847	-0.779571
H227	H	1.228675	-0.073514	-0.446237
H228	H	1.562008	0.259819	-0.112904
H229	H	0.944101	-0.381933	-0.958833
H230	H	1.277435	-0.048599	-0.625499
H231	H	1.610768	0.284734	-0.292166
