data_functionalizedCrystal
_audit_creation_method	'MofGen! by Chris Wilmer'
_symmetry_space_group_name_H-M	'P1'
_symmetry_Int_Tables_number	1
_symmetry_cell_setting	triclinic
loop_
_symmetry_equiv_pos_as_xyz
  x,y,z
_cell_length_a	10.654562
_cell_length_b	10.967829
_cell_length_c	9.730223
_cell_angle_alpha	77.870761
_cell_angle_beta	89.996961
_cell_angle_gamma	84.601947
loop_
_atom_site_label
_atom_site_type_symbol
_atom_site_fract_x
_atom_site_fract_y
_atom_site_fract_z
O1	O	1.667798	0.175346	-0.155905
O2	O	1.302319	0.192028	-0.159839
O3	O	1.493489	0.002112	-0.114863
O4	O	1.476628	0.365262	-0.200881
O5	O	1.493487	0.002116	0.113716
O6	O	1.302317	0.192033	0.068740
O7	O	1.667796	0.175350	0.072674
Zn8	Zn	1.485056	0.183692	0.106999
Zn9	Zn	1.485059	0.183686	-0.194164
O10	O	1.476626	0.365267	0.027698
C11	C	1.255521	0.190802	-0.045256
C12	C	1.116079	0.187128	-0.044379
C13	C	1.050547	0.185416	0.080614
C14	C	0.919525	0.181973	0.081407
C15	C	0.919578	0.181959	-0.167800
C16	C	1.050598	0.185393	-0.168589
C17	C	1.050515	0.185430	0.224491
C18	C	0.919493	0.181987	0.225283
C19	C	1.492261	-0.044386	0.010438
C20	C	1.488590	-0.182942	0.043248
C21	C	1.486955	-0.244710	-0.060536
C22	C	1.483161	-0.387915	-0.026627
C23	C	1.714595	0.176576	-0.041912
C24	C	1.854037	0.180251	-0.042798
C25	C	1.477854	0.411764	-0.097606
C26	C	1.481525	0.550320	-0.130426
N27	N	1.485063	0.183696	0.312534
N28	N	1.485062	0.183673	-0.399697
C29	C	1.569735	0.099630	0.404369
C30	C	1.569732	0.099614	0.548255
C31	C	1.400381	0.267743	0.508457
C32	C	1.400379	0.267751	0.364575
C33	C	1.667513	0.002566	0.427346
C34	C	1.667509	0.002550	0.571232
H35	H	0.889918	0.090977	0.291486
C36	C	1.307231	0.360197	0.565718
N37	N	1.237069	0.429835	0.608844
C38	C	0.847536	0.180056	-0.304425
N39	N	0.793276	0.178625	-0.407334
H40	H	0.873194	0.268232	0.260091
H41	H	1.482919	-0.396549	-0.244391
C42	C	1.481254	-0.459687	0.127336
N43	N	1.479819	-0.513749	0.243298
C44	C	1.638555	-0.127011	0.405273
N45	N	1.616741	-0.224605	0.388647
H46	H	1.331422	0.336193	0.289806
H47	H	1.096787	0.099190	0.300171
H48	H	1.487173	-0.236076	0.157205
H49	H	1.488358	-0.191574	-0.174493
H50	H	1.758691	0.032963	0.375515
C51	C	1.626292	-0.119895	0.660518
N52	N	1.595239	-0.212116	0.727769
H53	H	1.103952	0.186767	-0.270366
C54	C	1.090457	0.308377	0.255696
N55	N	1.120542	0.400981	0.279201
C56	C	1.797854	0.031537	0.617122
N57	N	1.896013	0.053405	0.651677
