data_functionalizedCrystal
_audit_creation_method	'MofGen! by Chris Wilmer'
_symmetry_space_group_name_H-M	'P1'
_symmetry_Int_Tables_number	1
_symmetry_cell_setting	triclinic
loop_
_symmetry_equiv_pos_as_xyz
  x,y,z
_cell_length_a	18.050589
_cell_length_b	16.625548
_cell_length_c	16.625539
_cell_angle_alpha	89.979432
_cell_angle_beta	89.975176
_cell_angle_gamma	90.029289
loop_
_atom_site_label
_atom_site_type_symbol
_atom_site_fract_x
_atom_site_fract_y
_atom_site_fract_z
Zn1	Zn	-0.295637	1.232648	-0.455929
Zn2	Zn	-0.419835	1.232538	-0.321104
Zn3	Zn	-0.295665	1.097810	-0.321109
Zn4	Zn	-0.419792	1.097767	-0.455894
O5	O	-0.357732	1.165191	-0.388509
O6	O	-0.312118	1.345466	-0.438056
O7	O	-0.403393	1.214638	-0.208272
O8	O	-0.191737	1.115761	-0.339010
O9	O	-0.403366	1.345385	-0.339001
O10	O	-0.191716	1.214826	-0.438061
O11	O	-0.312166	1.115654	-0.208276
O12	O	-0.312125	0.984972	-0.338976
O13	O	-0.403293	1.115687	-0.568731
O14	O	-0.403320	0.984940	-0.438002
O15	O	-0.312077	1.214784	-0.568757
O16	O	-0.523754	1.214596	-0.338968
O17	O	-0.523722	1.115580	-0.437997
C18	C	-0.357722	0.955700	-0.388487
C19	C	-0.357735	0.866079	-0.388496
C20	C	-0.550684	1.165093	-0.388496
C21	C	-0.633230	1.165126	-0.388517
C22	C	-0.357740	0.537903	-0.388531
C23	C	-0.357736	0.629212	-0.388518
C24	C	-0.357738	0.701988	-0.388513
C25	C	-0.357734	0.793302	-0.388502
C26	C	-0.832691	1.111334	-0.442350
C27	C	-0.882133	1.091677	-0.368775
C28	C	-0.784360	1.165205	-0.388528
C29	C	-0.882000	1.184901	-0.462112
C30	C	-0.930346	1.165280	-0.388544
C31	C	-0.832715	1.145510	-0.314913
C32	C	-0.832578	1.238767	-0.408300
C33	C	-0.881998	1.219139	-0.334673
C34	C	-0.700262	1.165160	-0.388519
C35	C	-1.014442	1.165325	-0.388544
C36	C	-0.164027	1.165310	-0.388540
C37	C	-0.081481	1.165361	-0.388553
C38	C	-0.357677	1.165243	-0.598818
C39	C	-0.357653	1.165266	-0.688439
C40	C	-0.357743	1.375500	-0.388532
C41	C	-0.357748	1.465121	-0.388542
C42	C	-0.357570	1.165303	-1.016615
C43	C	-0.357596	1.165290	-0.925307
C44	C	-0.357612	1.165285	-0.852530
C45	C	-0.357637	1.165271	-0.761216
C46	C	-0.357734	1.165185	-0.179018
C47	C	-0.357548	1.165319	-0.089398
H48	H	-0.903916	1.029503	-0.352066
F49	F	-0.804390	1.051703	-0.501760
F50	F	-0.804539	1.123682	-0.233559
F51	F	-0.910119	1.278729	-0.275123
F52	F	-0.804107	1.320016	-0.430184
F53	F	-0.910300	1.206636	-0.543440
