data_functionalizedCrystal
_audit_creation_method	'MofGen! by Chris Wilmer'
_symmetry_space_group_name_H-M	'P1'
_symmetry_Int_Tables_number	1
_symmetry_cell_setting	triclinic
loop_
_symmetry_equiv_pos_as_xyz
  x,y,z
_cell_length_a	12.759401
_cell_length_b	12.759399
_cell_length_c	12.759393
_cell_angle_alpha	89.968020
_cell_angle_beta	89.981504
_cell_angle_gamma	90.015277
loop_
_atom_site_label
_atom_site_type_symbol
_atom_site_fract_x
_atom_site_fract_y
_atom_site_fract_z
Zn1	Zn	1.606252	-0.418200	-0.593978
Zn2	Zn	1.606145	-0.593919	-0.418297
Zn3	Zn	1.430554	-0.418255	-0.418318
Zn4	Zn	1.430542	-0.593838	-0.593939
O5	O	1.518373	-0.506053	-0.506133
O6	O	1.753259	-0.441520	-0.570682
O7	O	1.582813	-0.570673	-0.271279
O8	O	1.453911	-0.271227	-0.441645
O9	O	1.753181	-0.570620	-0.441610
O10	O	1.582996	-0.271186	-0.570702
O11	O	1.453807	-0.441614	-0.271294
O12	O	1.283532	-0.441535	-0.441606
O13	O	1.453890	-0.570482	-0.740965
O14	O	1.283522	-0.570536	-0.570634
O15	O	1.582983	-0.441442	-0.740994
O16	O	1.582801	-0.740929	-0.441571
O17	O	1.453786	-0.740870	-0.570614
C18	C	1.245406	-0.506033	-0.506119
C19	C	1.128629	-0.506050	-0.506138
C20	C	1.073790	-0.573328	-0.573211
C21	C	0.964066	-0.573342	-0.573223
C22	C	0.964030	-0.438796	-0.439078
C23	C	1.073752	-0.438778	-0.439072
C24	C	1.073810	-0.651010	-0.650656
C25	C	0.964086	-0.651024	-0.650667
C26	C	1.518309	-0.779020	-0.506109
C27	C	1.518378	-0.895797	-0.506134
C28	C	1.585633	-0.950655	-0.439018
C29	C	1.585700	-1.060379	-0.439053
C30	C	1.451249	-1.060377	-0.573324
C31	C	1.451187	-0.950655	-0.573293
C32	C	1.709709	-1.210258	-0.401662
C33	C	1.776955	-1.265120	-0.334530
C34	C	1.793120	-1.229581	-0.232019
C35	C	1.742023	-1.139183	-0.196620
C36	C	1.674770	-1.084327	-0.263747
C37	C	1.658625	-1.119864	-0.366273
C38	C	1.327177	-0.800774	-0.610673
C39	C	1.259917	-0.745916	-0.677795
C40	C	1.243742	-0.781452	-0.780308
C41	C	1.294820	-0.871854	-0.815703
C42	C	1.362079	-0.926712	-0.748580
C43	C	1.378256	-0.891168	-0.646069
C44	C	1.792407	-0.506073	-0.506148
C45	C	1.909183	-0.506082	-0.506154
C46	C	1.518447	-0.505947	-0.780166
C47	C	1.518478	-0.505902	-0.896943
C48	C	1.518467	-0.232019	-0.506180
C49	C	1.518506	-0.115243	-0.506200
C50	C	1.585707	-0.438704	-0.951822
C51	C	1.585732	-0.438666	-1.061546
C52	C	1.451297	-0.573033	-1.061503
C53	C	1.451267	-0.573064	-0.951781
C54	C	1.663325	-0.361131	-0.951848
C55	C	1.663350	-0.361093	-1.061572
C56	C	1.518361	-0.506083	-0.233166
C57	C	1.518533	-0.505832	-0.116389
H58	H	0.919336	-0.384025	-0.384476
H59	H	1.818558	-1.338722	-0.363361
Br60	Br	1.190553	-0.623256	-0.629742
H61	H	1.696564	-1.239195	-0.485138
Br62	Br	1.614656	-0.232311	-1.118333
Br63	Br	1.431400	-1.049403	-0.796615
H64	H	1.744720	-0.382886	-1.091350
Br65	Br	1.627046	-0.225524	-0.902243
H66	H	1.396520	-0.627780	-0.907102
H67	H	1.281650	-0.900788	-0.899177
Br68	Br	0.914413	-0.786595	-0.614076
Br69	Br	1.360084	-0.664175	-1.135932
H70	H	1.107823	-0.728262	-0.621371
H71	H	1.396543	-1.105056	-0.628001
H72	H	1.188970	-0.736777	-0.834957
Br73	Br	1.349134	-0.752534	-0.471545
H74	H	1.118398	-0.383987	-0.384461
Br75	Br	1.123503	-0.614849	-0.786335
H76	H	1.640345	-0.905992	-0.384334
H77	H	1.633170	-1.010725	-0.234927
Br78	Br	1.792113	-0.409744	-0.895108
H79	H	0.930088	-0.621980	-0.728019
H80	H	1.847874	-1.274257	-0.177359
Br81	Br	1.763949	-1.090968	-0.057484
