data_functionalizedCrystal
_audit_creation_method	'MofGen! by Chris Wilmer'
_symmetry_space_group_name_H-M	'P1'
_symmetry_Int_Tables_number	1
_symmetry_cell_setting	triclinic
loop_
_symmetry_equiv_pos_as_xyz
  x,y,z
_cell_length_a	16.625548
_cell_length_b	11.169416
_cell_length_c	11.169417
_cell_angle_alpha	89.996023
_cell_angle_beta	90.007040
_cell_angle_gamma	89.988592
loop_
_atom_site_label
_atom_site_type_symbol
_atom_site_fract_x
_atom_site_fract_y
_atom_site_fract_z
Zn1	Zn	1.232641	0.477994	0.678661
Zn2	Zn	1.732641	0.977994	1.178661
Zn3	Zn	1.232604	0.678641	0.477983
Zn4	Zn	1.732604	1.178641	0.977983
Zn5	Zn	1.097834	0.477974	0.477984
Zn6	Zn	1.597834	0.977974	0.977984
Zn7	Zn	1.097802	0.678638	0.678616
Zn8	Zn	1.597802	1.178638	1.178616
O9	O	1.165220	0.578312	0.578311
O10	O	1.665220	1.078312	1.078311
O11	O	1.345468	0.504620	0.652059
O12	O	1.845468	1.004620	1.152059
O13	O	1.214725	0.652014	0.310034
O14	O	1.714725	1.152014	0.810034
O15	O	1.115746	0.310027	0.504623
O16	O	1.615746	0.810027	1.004623
O17	O	1.345442	0.652034	0.504622
O18	O	1.845442	1.152034	1.004622
O19	O	1.214787	0.310042	0.652060
O20	O	1.714787	0.810042	1.152060
O21	O	1.115710	0.504585	0.310034
O22	O	1.615710	1.004585	0.810034
O23	O	0.984998	0.504583	0.504580
O24	O	1.484998	1.004583	1.004580
O25	O	1.115690	0.652029	0.846572
O26	O	1.615690	1.152029	1.346572
O27	O	0.984973	0.652010	0.651983
O28	O	1.484973	1.152010	1.151983
O29	O	1.214755	0.504617	0.846605
O30	O	1.714755	1.004617	1.346605
O31	O	1.214693	0.846590	0.504579
O32	O	1.714693	1.346590	1.004579
O33	O	1.115654	0.846588	0.651983
O34	O	1.615654	1.346588	1.151983
C35	C	0.955729	0.578294	0.578277
C36	C	1.455729	1.078294	1.078277
C37	C	0.866108	0.578316	0.578292
C38	C	1.366108	1.078316	1.078292
C39	C	1.165223	0.578325	0.891353
C40	C	1.665223	1.078325	1.391353
C41	C	1.165224	0.578331	1.024753
C42	C	1.665224	1.078331	1.524753
C43	C	1.165188	0.890136	0.578302
C44	C	1.665188	1.390136	1.078302
C45	C	1.165248	1.023536	0.578338
C46	C	1.665248	1.523536	1.078338
C47	C	0.537933	0.578324	0.578343
C48	C	1.037933	1.078324	1.078343
C49	C	0.629241	0.578318	0.578325
C50	C	1.129241	1.078318	1.078325
C51	C	0.702018	0.578321	0.578316
C52	C	1.202018	1.078321	1.078316
C53	C	0.793332	0.578314	0.578300
C54	C	1.293332	1.078314	1.078300
C55	C	1.375529	0.578330	0.578345
C56	C	1.875529	1.078330	1.078345
C57	C	1.465150	0.578337	0.578360
C58	C	1.965150	1.078337	1.078360
C59	C	1.165274	0.265269	0.578346
C60	C	1.665274	0.765269	1.078346
C61	C	1.165297	0.131869	0.578362
C62	C	1.665297	0.631869	1.078362
C63	C	1.165214	0.578329	1.266486
C64	C	1.665214	1.078329	1.766486
C65	C	1.165221	0.578336	1.133086
C66	C	1.665221	1.078336	1.633086
