data_functionalizedCrystal
_audit_creation_method	'MofGen! by Chris Wilmer'
_symmetry_space_group_name_H-M	'P1'
_symmetry_Int_Tables_number	1
_symmetry_cell_setting	triclinic
loop_
_symmetry_equiv_pos_as_xyz
  x,y,z
_cell_length_a	6.817900
_cell_length_b	12.200875
_cell_length_c	12.200863
_cell_angle_alpha	93.006308
_cell_angle_beta	107.143441
_cell_angle_gamma	107.143593
loop_
_atom_site_label
_atom_site_type_symbol
_atom_site_fract_x
_atom_site_fract_y
_atom_site_fract_z
V1	V	-4.086881	-0.357778	-0.158973
V2	V	-3.836881	-0.107778	0.091027
V3	V	-3.586881	0.142222	0.341027
V4	V	-3.336881	0.392222	0.591027
O5	O	-4.054179	-0.350847	0.007371
O6	O	-3.804179	-0.100847	0.257371
O7	O	-3.554179	0.149153	0.507371
O8	O	-3.304179	0.399153	0.757371
O9	O	-4.056329	-0.355446	-0.314959
O10	O	-3.806329	-0.105446	-0.064959
O11	O	-3.556329	0.144554	0.185041
O12	O	-3.306329	0.394554	0.435041
O13	O	-4.056333	-0.513764	-0.156645
O14	O	-3.806333	-0.263764	0.093355
O15	O	-3.556333	-0.013764	0.343355
O16	O	-3.306333	0.236236	0.593355
O17	O	-4.054175	-0.191433	-0.152038
O18	O	-3.804175	0.058567	0.097962
O19	O	-3.554175	0.308567	0.347962
O20	O	-3.304175	0.558567	0.597962
V21	V	-4.565883	-0.337868	-0.139062
V22	V	-4.315883	-0.087868	0.110938
V23	V	-4.065883	0.162132	0.360938
V24	V	-3.815883	0.412132	0.610938
O25	O	-4.358057	-0.401452	-0.202649
O26	O	-4.108057	-0.151452	0.047351
O27	O	-3.858057	0.098548	0.297351
O28	O	-3.608057	0.348548	0.547351
O29	O	-4.744905	-0.294193	-0.095387
O30	O	-4.494905	-0.044193	0.154613
O31	O	-4.244905	0.205807	0.404613
O32	O	-3.994905	0.455807	0.654613
O33	O	-4.373229	-0.340199	0.016923
O34	O	-4.123229	-0.090199	0.266923
O35	O	-3.873229	0.159801	0.516923
O36	O	-3.623229	0.409801	0.766923
O37	O	-4.715983	-0.344798	-0.305407
O38	O	-4.465983	-0.094798	-0.055407
O39	O	-4.215983	0.155202	0.194593
O40	O	-3.965983	0.405202	0.444593
O41	O	-4.715986	-0.504212	-0.145997
O42	O	-4.465986	-0.254212	0.104003
O43	O	-4.215986	-0.004212	0.354003
O44	O	-3.965986	0.245788	0.604003
O45	O	-4.373226	-0.181881	-0.141390
O46	O	-4.123226	0.068119	0.108610
O47	O	-3.873226	0.318119	0.358610
O48	O	-3.623226	0.568119	0.608610
C49	C	-3.905095	-0.349832	-0.352981
C50	C	-3.655095	-0.099832	-0.102981
C51	C	-3.405095	0.150168	0.147019
C52	C	-3.155095	0.400168	0.397019
C53	C	-3.961521	-0.348965	-0.480503
C54	C	-3.711521	-0.098965	-0.230503
C55	C	-3.461521	0.151035	0.019497
C56	C	-3.211521	0.401035	0.269497
C57	C	-4.064793	-0.347388	-0.713978
C58	C	-3.814793	-0.097388	-0.463978
C59	C	-3.564793	0.152612	-0.213978
C60	C	-3.314793	0.402612	0.036022
C61	C	-4.007317	-0.348266	-0.584056
C62	C	-3.757317	-0.098266	-0.334056
C63	C	-3.507317	0.151734	-0.084056
C64	C	-3.257317	0.401734	0.165944
C65	C	-3.905097	-0.551781	-0.151035
C66	C	-3.655097	-0.301781	0.098965
C67	C	-3.405097	-0.051781	0.348965
C68	C	-3.155097	0.198219	0.598965
C69	C	-3.961522	-0.679301	-0.150164
C70	C	-3.711522	-0.429301	0.099836
C71	C	-3.461522	-0.179301	0.349836
C72	C	-3.211522	0.070699	0.599836
C73	C	-4.064787	-0.912775	-0.148571
C74	C	-3.814787	-0.662775	0.101429
C75	C	-3.564787	-0.412775	0.351429
C76	C	-3.314787	-0.162775	0.601429
C77	C	-4.007315	-0.782853	-0.149457
C78	C	-3.757315	-0.532853	0.100543
C79	C	-3.507315	-0.282853	0.350543
C80	C	-3.257315	-0.032853	0.600543
C81	C	-4.187806	-0.345810	0.054940
C82	C	-3.937806	-0.095810	0.304940
C83	C	-3.687806	0.154190	0.554940
C84	C	-3.437806	0.404190	0.804940
C85	C	-4.110619	-0.346684	0.182460
C86	C	-3.860619	-0.096684	0.432460
C87	C	-3.610619	0.153316	0.682460
C88	C	-3.360619	0.403316	0.932460
C89	C	-4.187803	-0.143858	-0.147004
C90	C	-3.937803	0.106142	0.102996
C91	C	-3.687803	0.356142	0.352996
C92	C	-3.437803	0.606142	0.602996
C93	C	-4.110616	-0.016337	-0.147869
C94	C	-3.860616	0.233663	0.102131
C95	C	-3.610616	0.483663	0.352131
C96	C	-3.360616	0.733663	0.602131
