data_functionalizedCrystal
_audit_creation_method	'MofGen! by Chris Wilmer'
_symmetry_space_group_name_H-M	'P1'
_symmetry_Int_Tables_number	1
_symmetry_cell_setting	triclinic
loop_
_symmetry_equiv_pos_as_xyz
  x,y,z
_cell_length_a	19.077115
_cell_length_b	21.295417
_cell_length_c	19.076919
_cell_angle_alpha	92.267699
_cell_angle_beta	90.076897
_cell_angle_gamma	87.725900
loop_
_atom_site_label
_atom_site_type_symbol
_atom_site_fract_x
_atom_site_fract_y
_atom_site_fract_z
Zn1	Zn	1.058240	-0.304535	-0.440381
Zn2	Zn	1.391573	0.028799	-0.107048
Zn3	Zn	1.724906	0.362132	0.226286
Zn4	Zn	1.062869	-0.405748	-0.322866
Zn5	Zn	1.396203	-0.072414	0.010467
Zn6	Zn	1.729536	0.260919	0.343800
Zn7	Zn	0.945458	-0.296102	-0.318176
Zn8	Zn	1.278792	0.037231	0.015157
Zn9	Zn	1.612125	0.370565	0.348490
Zn10	Zn	0.940691	-0.405368	-0.435620
Zn11	Zn	1.274025	-0.072035	-0.102287
Zn12	Zn	1.607358	0.261299	0.231046
O13	O	1.001815	-0.352938	-0.379261
O14	O	1.335148	-0.019605	-0.045928
O15	O	1.668481	0.313729	0.287406
O16	O	1.157185	-0.321649	-0.428748
O17	O	1.490518	0.011685	-0.095414
O18	O	1.823852	0.345018	0.237919
O19	O	1.051227	-0.387833	-0.223913
O20	O	1.384561	-0.054499	0.109420
O21	O	1.717894	0.278834	0.442754
O22	O	0.960476	-0.209134	-0.334417
O23	O	1.293810	0.124199	-0.001084
O24	O	1.627143	0.457532	0.332250
O25	O	1.160587	-0.396009	-0.342410
O26	O	1.493920	-0.062676	-0.009077
O27	O	1.827253	0.270657	0.324257
O28	O	1.043336	-0.215330	-0.424200
O29	O	1.376670	0.118004	-0.090867
O30	O	1.710003	0.451337	0.242466
O31	O	0.964966	-0.307276	-0.220468
O32	O	1.298299	0.026057	0.112866
O33	O	1.631632	0.359390	0.446199
O34	O	0.846495	-0.306908	-0.329801
O35	O	1.179828	0.026425	0.003533
O36	O	1.513161	0.359758	0.336866
O37	O	0.952352	-0.395363	-0.534583
O38	O	1.285685	-0.062029	-0.201250
O39	O	1.619018	0.271304	0.132084
O40	O	0.842992	-0.387186	-0.416086
O41	O	1.176326	-0.053852	-0.082753
O42	O	1.509659	0.279481	0.250581
O43	O	1.038714	-0.321281	-0.538081
O44	O	1.372047	0.012053	-0.204747
O45	O	1.705381	0.345386	0.128586
O46	O	1.046605	-0.493784	-0.337794
O47	O	1.379938	-0.160450	-0.004460
O48	O	1.713272	0.172883	0.328873
O49	O	0.956841	-0.493505	-0.420633
O50	O	1.290174	-0.160171	-0.087300
O51	O	1.623508	0.173162	0.246033
C52	C	0.819247	-0.346091	-0.371918
C53	C	1.152581	-0.012758	-0.038585
C54	C	1.485914	0.320575	0.294748
C55	C	0.741143	-0.343178	-0.368794
C56	C	1.074477	-0.009845	-0.035460
C57	C	1.407810	0.323489	0.297873
C58	C	0.301695	-0.322256	-0.346390
C59	C	0.635028	0.011078	-0.013057
C60	C	0.968361	0.344411	0.320277
C61	C	0.375081	-0.324997	-0.349330
C62	C	0.708415	0.008337	-0.015996
C63	C	1.041748	0.341670	0.317337
C64	C	0.409970	-0.368227	-0.395651
C65	C	0.743304	-0.034894	-0.062317
C66	C	1.076637	0.298440	0.271016
C67	C	0.371468	-0.408714	-0.439040
C68	C	0.704802	-0.075381	-0.105707
C69	C	1.038135	0.257952	0.227627
C70	C	0.298083	-0.405970	-0.436103
C71	C	0.631416	-0.072637	-0.102770
C72	C	0.964750	0.260697	0.230563
C73	C	0.629256	-0.380921	-0.409246
C74	C	0.962589	-0.047588	-0.075913
C75	C	1.295923	0.285746	0.257420
C76	C	0.702647	-0.383664	-0.412178
C77	C	1.035980	-0.050330	-0.078845
C78	C	1.369313	0.283003	0.254489
C79	C	0.706255	-0.299945	-0.322468
C80	C	1.039588	0.033389	0.010865
C81	C	1.372921	0.366722	0.344198
C82	C	0.632868	-0.297207	-0.319533
C83	C	0.966201	0.036127	0.013801
C84	C	1.299534	0.369460	0.347134
C85	C	0.594372	-0.337692	-0.362925
C86	C	0.927705	-0.004358	-0.029591
C87	C	1.261039	0.328975	0.303742
N88	N	0.484983	-0.371031	-0.398655
N89	N	0.818317	-0.037698	-0.065322
N90	N	1.151650	0.295636	0.268012
N91	N	0.519360	-0.334884	-0.359923
N92	N	0.852694	-0.001551	-0.026590
N93	N	1.186027	0.331783	0.306743
C94	C	1.001727	-0.516485	-0.379222
C95	C	1.335060	-0.183152	-0.045889
C96	C	1.668393	0.150182	0.287445
C97	C	1.001752	-0.586454	-0.379231
C98	C	1.335086	-0.253121	-0.045898
C99	C	1.668419	0.080212	0.287435
C100	C	1.044870	-0.622490	-0.426012
C101	C	1.378204	-0.289157	-0.092679
C102	C	1.711537	0.044177	0.240654
C103	C	1.044894	-0.688234	-0.426031
C104	C	1.378228	-0.354901	-0.092697
C105	C	1.711561	-0.021567	0.240636
C106	C	1.001808	-0.717940	-0.379256
C107	C	1.335142	-0.384607	-0.045922
C108	C	1.668475	-0.051273	0.287411
C109	C	0.958682	-0.681896	-0.332471
C110	C	1.292015	-0.348563	0.000862
C111	C	1.625348	-0.015229	0.334196
C112	C	0.958653	-0.616153	-0.332459
C113	C	1.291987	-0.282820	0.000875
C114	C	1.625320	0.050513	0.334208
N115	N	0.998974	-0.818882	-0.317547
N116	N	1.332308	-0.485548	0.015786
N117	N	1.665641	-0.152215	0.349120
N118	N	0.999005	-0.881335	-0.317561
N119	N	1.332338	-0.548002	0.015772
N120	N	1.665672	-0.214668	0.349106
C121	C	1.001889	-0.916019	-0.379291
C122	C	1.335222	-0.582685	-0.045957
C123	C	1.668556	-0.249352	0.287376
N124	N	1.004755	-0.885891	-0.441008
N125	N	1.338088	-0.552557	-0.107675
N126	N	1.671422	-0.219224	0.225659
N127	N	1.004728	-0.823432	-0.440994
N128	N	1.338061	-0.490099	-0.107660
N129	N	1.671395	-0.156765	0.225673
C130	C	1.001834	-0.789226	-0.379264
C131	C	1.335167	-0.455893	-0.045931
C132	C	1.668500	-0.122560	0.287403
C133	C	1.045036	-1.023342	-0.426096
C134	C	1.378369	-0.690008	-0.092762
C135	C	1.711702	-0.356675	0.240571
C136	C	1.045055	-1.089087	-0.426115
C137	C	1.378388	-0.755753	-0.092782
C138	C	1.711721	-0.422420	0.240552
C139	C	0.958846	-1.082747	-0.332549
C140	C	1.292179	-0.749414	0.000784
C141	C	1.625512	-0.416081	0.334118
C142	C	0.958823	-1.017004	-0.332536
C143	C	1.292156	-0.683670	0.000798
C144	C	1.625489	-0.350337	0.334131
C145	C	1.001921	-0.987305	-0.379308
C146	C	1.335255	-0.653971	-0.045975
C147	C	1.668588	-0.320638	0.287358
C148	C	1.185095	-0.359812	-0.386633
C149	C	1.518428	-0.026479	-0.053300
C150	C	1.851762	0.306855	0.280034
C151	C	1.263198	-0.362741	-0.389774
C152	C	1.596531	-0.029408	-0.056441
C153	C	1.929865	0.303925	0.276892
C154	C	0.994485	-0.359220	-0.562541
C155	C	1.327818	-0.025887	-0.229207
C156	C	1.661151	0.307447	0.104126
C157	C	0.991361	-0.361897	-0.640644
C158	C	1.324694	-0.028563	-0.307310
C159	C	1.658028	0.304770	0.026023
C160	C	1.001922	-0.188754	-0.379316
C161	C	1.335255	0.144580	-0.045983
C162	C	1.668588	0.477913	0.287350
C163	C	1.001967	-0.118788	-0.379340
C164	C	1.335301	0.214545	-0.046007
C165	C	1.668634	0.547879	0.287327
C166	C	1.034855	-0.324586	-0.679159
C167	C	1.368189	0.008748	-0.345825
C168	C	1.701522	0.342081	-0.012492
C169	C	1.031912	-0.327098	-0.752544
C170	C	1.365245	0.006235	-0.419211
C171	C	1.698578	0.339568	-0.085878
C172	C	0.985477	-0.366926	-0.787414
C173	C	1.318810	-0.033592	-0.454080
C174	C	1.652144	0.299741	-0.120747
C175	C	0.941978	-0.404238	-0.748893
C176	C	1.275311	-0.070905	-0.415560
C177	C	1.608644	0.262429	-0.082227
C178	C	0.944918	-0.401722	-0.675509
C179	C	1.278252	-0.068389	-0.342176
C180	C	1.611585	0.264945	-0.008842
C181	C	0.971858	-0.378584	-1.006694
C182	C	1.305191	-0.045251	-0.673361
C183	C	1.638524	0.288083	-0.340027
C184	C	0.968922	-0.381099	-1.080084
C185	C	1.302255	-0.047765	-0.746751
C186	C	1.635589	0.285568	-0.413417
C187	C	1.058856	-0.303958	-1.083730
C188	C	1.392189	0.029376	-0.750396
C189	C	1.725522	0.362709	-0.417063
C190	C	1.061795	-0.301448	-1.010344
C191	C	1.395128	0.031886	-0.677011
C192	C	1.728462	0.365219	-0.343677
C193	C	1.018293	-0.338758	-0.971830
C194	C	1.351627	-0.005424	-0.638496
C195	C	1.684960	0.327909	-0.305163
N196	N	0.982469	-0.369496	-0.862426
N197	N	1.315802	-0.036163	-0.529092
N198	N	1.649135	0.297170	-0.195759
N199	N	1.021298	-0.336183	-0.896819
N200	N	1.354632	-0.002850	-0.563486
N201	N	1.687965	0.330483	-0.230152
C202	C	1.009157	-0.346637	-0.196696
C203	C	1.342490	-0.013303	0.136637
C204	C	1.675823	0.320030	0.469971
C205	C	1.012416	-0.343788	-0.118599
C206	C	1.345750	-0.010454	0.214734
C207	C	1.679083	0.322879	0.548068
H208	H	0.604467	-0.262008	-0.281808
H209	H	0.937800	0.071325	0.051525
H210	H	1.271133	0.404659	0.384858
O211	O	0.416606	-0.281346	-0.302518
O212	O	0.749940	0.051987	0.030815
O213	O	1.083273	0.385320	0.364148
H214	H	0.380018	-0.250836	-0.269803
H215	H	0.713351	0.082497	0.063531
H216	H	1.046684	0.415831	0.396864
O217	O	1.105751	-0.263704	-1.125278
O218	O	1.439084	0.069629	-0.791944
O219	O	1.772418	0.402963	-0.458611
H220	H	1.140141	-0.294355	-1.160154
H221	H	1.473474	0.038978	-0.826821
H222	H	1.806808	0.372311	-0.493488
O223	O	0.747781	-0.256281	-0.275675
O224	O	1.081115	0.077053	0.057658
O225	O	1.414448	0.410386	0.390992
H226	H	0.735890	-0.264585	-0.219939
H227	H	1.069223	0.068749	0.113394
H228	H	1.402556	0.402082	0.446727
O229	O	0.740281	-0.430288	-0.462146
O230	O	1.073615	-0.096955	-0.128812
O231	O	1.406948	0.236378	0.204521
H232	H	0.701184	-0.457975	-0.491831
H233	H	1.034518	-0.124642	-0.158498
H234	H	1.367851	0.208692	0.174835
H235	H	0.931107	-0.413532	-1.108472
H236	H	1.264440	-0.080199	-0.775139
H237	H	1.597774	0.253134	-0.441805
H238	H	1.072670	-0.292156	-0.650774
H239	H	1.406003	0.041177	-0.317440
H240	H	1.739337	0.374511	0.015893
O241	O	0.256562	-0.449638	-0.482899
O242	O	0.589895	-0.116304	-0.149566
O243	O	0.923228	0.217029	0.183767
H244	H	0.199671	-0.440462	-0.473082
H245	H	0.533004	-0.107129	-0.139749
H246	H	0.866338	0.226205	0.193585
O247	O	0.587745	-0.424708	-0.455901
O248	O	0.921078	-0.091374	-0.122568
O249	O	1.254411	0.241959	0.210765
H250	H	0.624339	-0.455276	-0.488546
H251	H	0.957672	-0.121943	-0.155213
H252	H	1.291005	0.211390	0.178121
H253	H	0.399881	-0.443911	-0.476759
H254	H	0.733214	-0.110578	-0.143425
H255	H	1.066547	0.222756	0.189908
H256	H	1.080166	-1.118426	-0.464213
H257	H	1.413500	-0.785093	-0.130880
H258	H	1.746833	-0.451760	0.202454
O259	O	1.091366	-0.590456	-0.476446
O260	O	1.424699	-0.257123	-0.143112
O261	O	1.758032	0.076211	0.190221
H262	H	1.121355	-0.626564	-0.508977
H263	H	1.454689	-0.293230	-0.175643
H264	H	1.788022	0.040103	0.157690
H265	H	0.923541	-0.586812	-0.294363
H266	H	1.256874	-0.253479	0.038970
H267	H	1.590207	0.079855	0.372304
O268	O	1.091407	-0.727114	-0.476484
O269	O	1.424741	-0.393780	-0.143150
O270	O	1.758074	-0.060447	0.190183
H271	H	1.121375	-0.695417	-0.509001
H272	H	1.454708	-0.362084	-0.175668
H273	H	1.788042	-0.028751	0.157665
O274	O	0.264079	-0.275631	-0.296417
O275	O	0.597412	0.057703	0.036917
O276	O	0.930745	0.391036	0.370250
H277	H	0.232065	-0.301280	-0.259262
H278	H	0.565399	0.032053	0.074071
H279	H	0.898732	0.365387	0.407404
H280	H	0.923760	-1.106933	-0.294468
H281	H	1.257093	-0.773600	0.038865
H282	H	1.590426	-0.440266	0.372199
H283	H	0.923599	-0.706087	-0.294388
H284	H	1.256932	-0.372753	0.038946
H285	H	1.590266	-0.039420	0.372279
O286	O	1.091511	-0.991301	-0.476545
O287	O	1.424844	-0.657968	-0.143211
O288	O	1.758178	-0.324635	0.190122
H289	H	1.121491	-1.027408	-0.509087
H290	H	1.454824	-0.694074	-0.175753
H291	H	1.788158	-0.360741	0.157580
O292	O	0.912330	-0.978130	-0.282066
O293	O	1.245664	-0.644796	0.051267
O294	O	1.578997	-0.311463	0.384601
H295	H	0.882379	-1.009829	-0.249536
H296	H	1.215713	-0.676495	0.083797
H297	H	1.549046	-0.343162	0.417130
H298	H	1.067331	-0.296717	-0.783900
H299	H	1.400665	0.036616	-0.450567
H300	H	1.733998	0.369950	-0.117234
O301	O	1.111881	-0.258494	-0.972734
O302	O	1.445214	0.074839	-0.639401
O303	O	1.778548	0.408173	-0.306067
H304	H	1.141630	-0.232969	-1.011846
H305	H	1.474963	0.100365	-0.678512
H306	H	1.808297	0.433698	-0.345179
H307	H	0.936446	-0.408974	-0.975345
H308	H	1.269779	-0.075641	-0.642012
H309	H	1.603113	0.257693	-0.308678
H310	H	0.904167	-0.436664	-0.777290
H311	H	1.237500	-0.103331	-0.443956
H312	H	1.570834	0.230003	-0.110623
H313	H	0.909493	-0.432098	-0.644150
H314	H	1.242827	-0.098765	-0.310817
H315	H	1.576160	0.234569	0.022516
