data_functionalizedCrystal
_audit_creation_method	'MofGen! by Chris Wilmer'
_symmetry_space_group_name_H-M	'P1'
_symmetry_Int_Tables_number	1
_symmetry_cell_setting	triclinic
loop_
_symmetry_equiv_pos_as_xyz
  x,y,z
_cell_length_a	11.792241
_cell_length_b	27.732048
_cell_length_c	10.868271
_cell_angle_alpha	89.989927
_cell_angle_beta	89.999893
_cell_angle_gamma	83.418036
loop_
_atom_site_label
_atom_site_type_symbol
_atom_site_fract_x
_atom_site_fract_y
_atom_site_fract_z
O1	O	1.504789	0.066248	-0.102217
O2	O	1.174230	0.073076	-0.102248
O3	O	1.349776	-0.000675	-0.102208
O4	O	1.329243	0.139999	-0.102257
O5	O	1.349762	-0.000678	0.102437
O6	O	1.174215	0.073073	0.102397
O7	O	1.504775	0.066245	0.102427
Zn8	Zn	1.339493	0.069659	0.134904
Zn9	Zn	1.339512	0.069662	-0.134724
O10	O	1.329229	0.139996	0.102388
C11	C	1.131945	0.072645	0.000071
C12	C	1.005973	0.071362	0.000061
C13	C	0.775336	0.069001	0.000097
C14	C	0.903679	0.070313	0.000077
C15	C	1.349338	-0.018686	0.000118
C16	C	1.348040	-0.072348	0.000128
C17	C	1.443606	-0.410609	0.000073
C18	C	1.438790	-0.612297	0.000055
O19	O	1.526178	-0.643045	0.000010
N20	N	1.334698	-0.632024	0.000047
C21	C	1.231803	-0.601327	0.000035
O22	O	1.143157	-0.622734	0.000015
C23	C	1.236620	-0.399640	0.000044
C24	C	1.340718	-0.379915	0.000065
C25	C	1.547695	-0.390884	0.000093
C26	C	1.548898	-0.340465	0.000104
C27	C	1.446011	-0.309771	0.000095
C28	C	1.341921	-0.329496	0.000076
C29	C	1.133726	-0.368943	0.000023
C30	C	1.134940	-0.318519	0.000022
C31	C	1.239038	-0.298794	0.000043
C32	C	1.240237	-0.248384	0.000079
N33	N	1.344328	-0.228656	0.000087
C34	C	1.447215	-0.259350	0.000095
C35	C	1.229282	-0.707215	0.000033
C36	C	1.228077	-0.757637	0.000033
C37	C	1.435065	-0.768603	0.000051
C38	C	1.436268	-0.718181	0.000060
C39	C	1.333374	-0.687488	0.000041
C40	C	1.449733	-0.153466	0.000120
C41	C	1.450927	-0.103042	0.000136
C42	C	1.243941	-0.092080	0.000111
C43	C	1.242746	-0.142500	0.000102
C44	C	1.345652	-0.173192	0.000102
O45	O	1.152896	-0.217607	0.000111
O46	O	1.535849	-0.237933	0.000088
C47	C	1.442403	-0.461028	0.000062
C48	C	1.338313	-0.480753	0.000043
C49	C	1.235426	-0.450060	0.000034
C50	C	1.337108	-0.531175	0.000043
C51	C	1.439996	-0.561868	0.000051
C52	C	1.544087	-0.542141	0.000059
C53	C	1.545290	-0.491722	0.000070
C54	C	1.131334	-0.469787	0.000026
C55	C	1.130140	-0.520207	0.000016
C56	C	1.233027	-0.550900	0.000024
C57	C	1.547059	0.066676	0.000106
C58	C	1.673032	0.067959	0.000108
C59	C	1.329667	0.158007	0.000059
C60	C	1.330965	0.211669	0.000041
N61	N	1.339488	0.069656	0.318918
N62	N	1.339525	0.069662	-0.318738
C63	C	1.339506	0.069661	0.569924
C64	C	1.339492	0.069660	0.430246
H65	H	1.535700	-0.086985	0.000156
H66	H	1.627862	-0.567140	0.000071
C67	C	1.016992	-0.541525	-0.000069
C68	C	0.927154	-0.503847	-0.000109
C69	C	0.822910	-0.523464	-0.000216
H70	H	1.012038	-0.560967	0.071267
H71	H	1.012166	-0.560943	-0.071470
H72	H	0.931977	-0.484436	0.071285
H73	H	0.932069	-0.484401	-0.071440
H74	H	0.818084	-0.542883	-0.071618
H75	H	0.817969	-0.542907	0.071121
H76	H	0.761943	-0.497903	-0.000255
C77	C	1.549256	-0.696741	0.000323
C78	C	1.556011	-0.668130	0.105620
C79	C	1.660090	-0.648381	0.105908
H80	H	1.554150	-0.677264	-0.070960
H81	H	1.610386	-0.722234	0.000396
H82	H	1.494898	-0.642641	0.105535
H83	H	1.551137	-0.687597	0.176920
H84	H	1.721220	-0.673874	0.105982
H85	H	1.664975	-0.628906	0.034621
H86	H	1.664692	-0.628970	0.177356
H87	H	1.143310	-0.773692	0.000037
H88	H	1.047549	-0.444801	0.000016
H89	H	1.518839	-0.793603	0.000058
C90	C	1.117437	-0.673976	0.000089
C91	C	1.026034	-0.702051	0.000118
C92	C	0.922986	-0.671450	0.000194
H93	H	1.113433	-0.654062	-0.071254
H94	H	1.113536	-0.654091	0.071484
H95	H	1.029934	-0.721927	-0.071269
H96	H	1.030001	-0.721964	0.071456
H97	H	0.919084	-0.651565	0.071589
H98	H	0.918993	-0.651537	-0.071150
H99	H	0.860957	-0.690494	0.000225
H100	H	1.630058	-0.475667	0.000087
C101	C	1.020584	-0.390256	-0.000069
C102	C	0.930753	-0.352575	-0.000117
C103	C	0.826505	-0.372189	-0.000220
H104	H	1.015626	-0.409697	0.071270
H105	H	1.015755	-0.409677	-0.071467
H106	H	0.935581	-0.333163	0.071274
H107	H	0.935674	-0.333132	-0.071451
H108	H	0.821675	-0.391609	-0.071618
H109	H	0.821558	-0.391629	0.071120
H110	H	0.765542	-0.346625	-0.000264
C111	C	1.023306	-0.285139	0.000197
C112	C	1.017943	-0.255872	0.105470
C113	C	0.915132	-0.225113	0.105668
H114	H	0.961050	-0.304051	0.000247
H115	H	1.019469	-0.265207	-0.071128
H116	H	1.021769	-0.275802	0.176777
H117	H	1.080175	-0.236950	0.105442
H118	H	0.911295	-0.205181	0.034343
H119	H	0.852884	-0.244029	0.105714
H120	H	0.911485	-0.205249	0.177088
C121	C	1.129610	-0.163825	0.000019
C122	C	1.039765	-0.126150	-0.000013
C123	C	0.935527	-0.145772	-0.000122
H124	H	1.124662	-0.183270	0.071352
H125	H	1.124787	-0.183242	-0.071386
H126	H	1.044586	-0.106741	0.071384
H127	H	1.044675	-0.106702	-0.071341
H128	H	0.930703	-0.165189	-0.071527
H129	H	0.930591	-0.165217	0.071211
H130	H	0.874554	-0.120213	-0.000156
H131	H	1.533529	-0.178450	0.000115
C132	C	1.132275	-0.058725	-0.000157
C133	C	1.126938	-0.029460	-0.105459
C134	C	1.024083	0.001269	-0.105766
H135	H	1.128327	-0.038787	0.071123
H136	H	1.070067	-0.077673	-0.000238
H137	H	1.189128	-0.010514	-0.105367
H138	H	1.130866	-0.049385	-0.176755
H139	H	0.961875	-0.017679	-0.105847
H140	H	1.020143	0.021205	-0.034482
H141	H	1.020443	0.021126	-0.177217
H142	H	1.633666	-0.324410	0.000116
H143	H	1.631483	-0.415870	0.000095
