data_functionalizedCrystal
_audit_creation_method	'MofGen! by Chris Wilmer'
_symmetry_space_group_name_H-M	'P1'
_symmetry_Int_Tables_number	1
_symmetry_cell_setting	triclinic
loop_
_symmetry_equiv_pos_as_xyz
  x,y,z
_cell_length_a	14.853567
_cell_length_b	13.330367
_cell_length_c	14.853567
_cell_angle_alpha	89.999156
_cell_angle_beta	96.365070
_cell_angle_gamma	90.004582
loop_
_atom_site_label
_atom_site_type_symbol
_atom_site_fract_x
_atom_site_fract_y
_atom_site_fract_z
O1	O	1.196369	0.083346	-0.117704
O2	O	0.933909	0.083362	-0.131725
O3	O	1.072150	0.083356	0.006515
O4	O	1.058128	0.083351	-0.255944
O5	O	1.072130	-0.083491	0.006519
O6	O	0.933889	-0.083485	-0.131722
O7	O	1.196349	-0.083501	-0.117700
Cu8	Cu	1.065117	-0.098728	-0.124711
Cu9	Cu	1.065141	0.098588	-0.124715
O10	O	1.058108	-0.083496	-0.255941
C11	C	0.900311	-0.000060	-0.131088
C12	C	0.800227	-0.000053	-0.129184
N13	N	1.065107	-0.237509	-0.124708
C14	C	0.387693	-0.000074	-0.039019
C15	C	0.366412	-0.000076	-0.203251
C16	C	0.460446	-0.000073	-0.205042
C17	C	0.518108	-0.000069	-0.123819
C18	C	0.481736	-0.000067	-0.040806
C19	C	0.496825	-0.000064	-0.288053
C20	C	0.590864	-0.000059	-0.289846
C21	C	0.648528	-0.000062	-0.208623
C22	C	0.612150	-0.000062	-0.125607
C23	C	0.669812	-0.000058	-0.044384
C24	C	0.633437	-0.000065	0.038633
C25	C	0.539399	-0.000070	0.040417
C26	C	0.742565	-0.000057	-0.210407
C27	C	0.763855	-0.000052	-0.046172
C28	C	1.003925	-0.710130	-0.185903
C29	C	1.126381	-0.710103	-0.063519
C30	C	1.126371	-0.605084	-0.063516
C31	C	1.065138	-0.552584	-0.124709
C32	C	1.003915	-0.605102	-0.185904
C33	C	1.187598	-0.552559	-0.002328
C34	C	1.187591	-0.447534	-0.002323
C35	C	1.126353	-0.395031	-0.063512
C36	C	1.065127	-0.447556	-0.124710
C37	C	1.003895	-0.395055	-0.185902
C38	C	0.942664	-0.447578	-0.247096
C39	C	0.942677	-0.552599	-0.247093
C40	C	1.126340	-0.290010	-0.063515
C41	C	1.003884	-0.290027	-0.185903
C42	C	1.229947	-0.000078	-0.118337
C43	C	1.330031	-0.000078	-0.120241
C44	C	1.071504	-0.000064	0.040106
C45	C	1.069601	-0.000055	0.140189
N46	N	1.065158	0.237370	-0.124711
C47	C	1.058754	-0.000073	-0.289531
C48	C	1.060657	-0.000075	-0.389615
C49	C	0.979435	-0.000069	0.552723
C50	C	1.143668	-0.000079	0.574004
C51	C	1.145458	-0.000073	0.479971
C52	C	1.064235	-0.000067	0.422309
C53	C	0.981223	-0.000066	0.458680
C54	C	1.228469	-0.000084	0.443591
C55	C	1.230262	-0.000079	0.349552
C56	C	1.149039	-0.000066	0.291889
C57	C	1.066023	-0.000064	0.328266
C58	C	0.984800	-0.000058	0.270604
C59	C	0.901783	-0.000049	0.306979
C60	C	0.899999	-0.000053	0.401017
C61	C	1.150823	-0.000062	0.197851
C62	C	0.986588	-0.000055	0.176561
H63	H	0.810798	-0.000052	0.019971
Br64	Br	1.270706	-0.623805	0.080709
Br65	Br	0.876351	-0.000034	0.098312
H66	H	0.835652	-0.000051	0.260019
H67	H	1.294596	-0.000099	0.490546
H68	H	0.832411	-0.000046	0.430643
Br69	Br	0.920824	-0.781403	-0.268943
H70	H	0.911844	-0.000058	0.582344
Br71	Br	0.490027	-0.000077	0.153073
Br72	Br	1.253893	-0.000109	0.652259
H73	H	1.218414	-0.000076	0.168238
Br74	Br	0.711703	-0.000048	0.148859
Br75	Br	0.338331	-0.000092	0.073642
H76	H	0.319459	-0.000071	-0.269379
H77	H	0.620472	-0.000053	-0.357443
H78	H	1.297860	-0.000085	0.319944
H79	H	0.892811	-0.404820	-0.296924
Br80	Br	0.418568	-0.000048	-0.398276
H81	H	0.772178	-0.000053	-0.277998
H82	H	0.954018	-0.247288	-0.235731
Br83	Br	1.209488	-0.781349	0.019518
Br84	Br	0.859586	-0.623881	-0.330137
Br85	Br	1.209440	-0.218736	0.019519
Br86	Br	1.270685	-0.376259	0.080723
