data_functionalizedCrystal
_audit_creation_method	'MofGen! by Chris Wilmer'
_symmetry_space_group_name_H-M	'P1'
_symmetry_Int_Tables_number	1
_symmetry_cell_setting	triclinic
loop_
_symmetry_equiv_pos_as_xyz
  x,y,z
_cell_length_a	23.532407
_cell_length_b	23.532357
_cell_length_c	15.072220
_cell_angle_alpha	89.993295
_cell_angle_beta	89.992868
_cell_angle_gamma	82.838485
loop_
_atom_site_label
_atom_site_type_symbol
_atom_site_fract_x
_atom_site_fract_y
_atom_site_fract_z
O1	O	0.755254	0.069133	-0.073682
O2	O	0.589389	0.079136	-0.073710
O3	O	0.677338	-0.008799	-0.073677
O4	O	0.667305	0.157068	-0.073715
O5	O	0.677316	-0.008794	0.073888
O6	O	0.589367	0.079141	0.073855
O7	O	0.755233	0.069138	0.073883
Zn8	Zn	0.672296	0.074140	0.097298
Zn9	Zn	0.672325	0.074134	-0.097125
O10	O	0.667283	0.157073	0.073850
C11	C	0.568162	0.078884	0.000069
C12	C	0.504945	0.078118	0.000060
C13	C	0.105834	0.125353	0.000089
C14	C	0.046434	0.124641	0.000095
O15	O	0.009681	0.168428	0.000117
N16	N	0.023817	0.072364	0.000105
C17	C	0.060604	0.020794	0.000119
O18	O	0.035912	-0.023737	0.000129
C19	C	0.120003	0.021506	0.000120
C20	C	0.142616	0.073787	0.000100
C21	C	0.128448	0.177629	0.000070
C22	C	0.187844	0.178341	0.000063
C23	C	0.224626	0.126775	0.000075
C24	C	0.202012	0.074498	0.000093
C25	C	0.156788	-0.030063	0.000140
C26	C	0.216191	-0.029346	0.000142
C27	C	0.238804	0.022935	0.000122
C28	C	0.298190	0.023644	0.000097
N29	N	0.320807	0.075922	0.000087
C30	C	0.284025	0.127487	0.000075
C31	C	-0.064139	0.019303	0.000119
C32	C	-0.123536	0.018590	0.000112
C33	C	-0.137702	0.122437	0.000089
C34	C	-0.078303	0.123149	0.000090
C35	C	-0.041522	0.071580	0.000109
C36	C	0.408761	0.128977	0.000059
C37	C	0.468163	0.129684	0.000048
C38	C	0.482324	0.025837	0.000076
C39	C	0.422927	0.025130	0.000082
C40	C	0.386147	0.076704	0.000077
O41	O	0.334977	-0.020120	0.000079
O42	O	0.308725	0.172011	0.000077
C43	C	0.677076	-0.030013	0.000108
C44	C	0.676322	-0.093232	0.000116
C45	C	0.671597	-0.485246	-0.080370
C46	C	0.670880	-0.544645	-0.080375
O47	O	0.670499	-0.575364	-0.148784
N48	N	0.670512	-0.574354	0.000061
C49	C	0.670856	-0.544659	0.080508
O50	O	0.670477	-0.575383	0.148925
C51	C	0.671569	-0.485260	0.080513
C52	C	0.671943	-0.455556	0.000071
C53	C	0.671969	-0.455541	-0.160805
C54	C	0.672688	-0.396146	-0.160800
C55	C	0.673033	-0.366456	-0.080359
C56	C	0.672661	-0.396160	0.000076
C57	C	0.671909	-0.455566	0.160959
C58	C	0.672622	-0.396163	0.160956
C59	C	0.672995	-0.366458	0.080514
C60	C	0.673725	-0.307075	0.080523
N61	N	0.674092	-0.277366	0.000086
C62	C	0.673746	-0.307057	-0.080355
C63	C	0.669357	-0.669401	0.080493
C64	C	0.668648	-0.728799	0.080490
C65	C	0.668671	-0.728781	-0.080394
C66	C	0.669384	-0.669382	-0.080390
C67	C	0.669725	-0.639692	0.000057
C68	C	0.675255	-0.182323	-0.080337
C69	C	0.675976	-0.122922	-0.080324
C70	C	0.675951	-0.122945	0.080559
C71	C	0.675233	-0.182340	0.080547
C72	C	0.674883	-0.212027	0.000092
O73	O	0.674103	-0.276318	0.148897
O74	O	0.674118	-0.276325	-0.148760
C75	C	0.776459	0.069390	0.000101
C76	C	0.839676	0.070156	0.000105
C77	C	0.667545	0.178287	0.000063
C78	C	0.668300	0.241506	0.000049
N79	N	0.672281	0.074144	0.229987
N80	N	0.672345	0.074125	-0.229814
C81	C	0.672324	0.074131	0.589188
C82	C	0.625108	0.121028	0.551564
C83	C	0.625214	0.121198	0.448738
C84	C	0.672302	0.074138	0.410984
C85	C	0.731651	0.086781	0.448282
C86	C	0.731386	0.087114	0.551140
C87	C	0.660722	0.014450	0.551300
C88	C	0.659356	0.014857	0.448436
C89	C	0.672294	0.074140	0.310271
C90	C	0.672336	0.074130	0.689902
H91	H	0.098505	0.219623	0.000064
O92	O	0.668260	-0.760837	0.167252
H93	H	0.629114	-0.782604	0.171096
H94	H	-0.141942	-0.023982	0.000114
H95	H	0.691539	-0.021650	0.422741
O96	O	0.674842	-0.214377	0.167314
H97	H	0.713340	-0.246736	0.171170
O98	O	0.212232	0.234729	0.000051
H99	H	0.238953	0.237536	0.060194
H100	H	0.246136	-0.071341	0.000157
H101	H	0.404515	-0.017442	0.000085
H102	H	0.674968	-0.206486	-0.145851
O103	O	0.669741	-0.637380	0.167265
H104	H	0.669372	-0.668023	0.223190
O105	O	0.676370	-0.090885	-0.167092
H106	H	0.715056	-0.107587	-0.205666
H107	H	0.378821	0.170974	0.000058
O108	O	0.673085	-0.364114	-0.247566
H109	H	0.673644	-0.317821	-0.234063
H110	H	0.676235	-0.098761	0.146052
H111	H	0.581089	0.113714	0.423522
H112	H	0.632587	0.165493	0.424116
O113	O	0.601526	0.002134	0.416164
H114	H	0.582082	0.037876	0.373621
H115	H	0.695159	-0.020444	0.575631
H116	H	0.671606	-0.479741	0.226463
O117	O	0.566465	0.111299	0.584365
H118	H	0.570342	0.072937	0.627840
O119	O	0.744997	0.144752	0.582907
H120	H	0.751704	0.172126	0.524804
O121	O	-0.024467	-0.036322	0.000126
H122	H	-0.050178	-0.072789	0.000126
O123	O	-0.053918	0.179539	0.000087
H124	H	-0.068715	0.204301	-0.060059
O125	O	0.492550	0.186076	0.000042
H126	H	0.477749	0.210840	-0.060101
O127	O	-0.177380	0.178058	0.000092
H128	H	-0.222481	0.168775	0.000107
H129	H	0.671686	-0.479709	-0.226313
O130	O	0.668283	-0.760803	-0.167165
H131	H	0.706774	-0.793171	-0.171019
O132	O	0.132406	-0.086452	0.000180
H133	H	0.167971	-0.122183	0.000204
O134	O	0.522001	-0.029780	0.000101
H135	H	0.567102	-0.020497	0.000107
H136	H	0.672891	-0.371991	0.226467
O137	O	0.634732	0.179376	0.585765
H138	H	0.672999	0.175121	0.629442
H139	H	0.669687	-0.645201	-0.145893
O140	O	0.779301	0.043574	0.584118
H141	H	0.802562	0.022377	0.526598
H142	H	0.767611	0.053519	0.423826
O143	O	0.745603	0.143764	0.414156
H144	H	0.710363	0.163167	0.370641
H145	H	0.618404	0.002210	0.577287
