data_functionalizedCrystal
_audit_creation_method	'MofGen! by Chris Wilmer'
_symmetry_space_group_name_H-M	'P1'
_symmetry_Int_Tables_number	1
_symmetry_cell_setting	triclinic
loop_
_symmetry_equiv_pos_as_xyz
  x,y,z
_cell_length_a	10.065875
_cell_length_b	10.654550
_cell_length_c	10.654550
_cell_angle_alpha	95.515069
_cell_angle_beta	81.125229
_cell_angle_gamma	81.170343
loop_
_atom_site_label
_atom_site_type_symbol
_atom_site_fract_x
_atom_site_fract_y
_atom_site_fract_z
O1	O	0.113390	-1.686040	0.158115
O2	O	0.113415	-1.320565	0.174917
O3	O	0.113393	-1.511704	-0.016222
O4	O	0.113412	-1.494901	0.349254
O5	O	-0.113591	-1.475258	0.020373
O6	O	-0.113570	-1.284119	0.211512
O7	O	-0.113595	-1.649593	0.194710
Zn8	Zn	-0.149621	-1.461069	0.208921
Zn9	Zn	0.149441	-1.509089	0.160706
O10	O	-0.113573	-1.458454	0.385849
C11	C	-0.000074	-1.255544	0.191980
C12	C	-0.000065	-1.116103	0.188287
N13	N	-0.353723	-1.428306	0.241827
C14	C	-0.000098	-1.492247	-0.044722
C15	C	-0.000096	-1.488555	-0.184166
C16	C	-0.421509	-1.497682	0.172146
C17	C	-0.578674	-1.472476	0.197481
N18	N	0.353543	-1.541862	0.127791
C19	C	-0.000102	-1.714614	0.177646
C20	C	-0.000103	-1.854058	0.181338
C21	C	-0.000063	-1.036617	0.300828
C22	C	-0.000087	-0.905593	0.297355
C23	C	-0.000109	-0.933552	0.068789
C24	C	-0.000095	-1.064573	0.072265
C25	C	-0.000103	-1.601096	-0.263650
C26	C	-0.000086	-1.597622	-0.394674
C27	C	-0.000061	-1.369057	-0.366715
C28	C	-0.000068	-1.372533	-0.235695
C29	C	-0.000078	-1.477912	0.414349
C30	C	-0.000072	-1.481605	0.553791
H31	H	-0.363194	-1.575733	0.093730
H32	H	-0.000141	-0.891579	-0.025671
H33	H	-0.000123	-1.695569	-0.221700
H34	H	-0.000100	-1.129293	-0.019385
N35	N	-0.000034	-1.092188	0.425965
H36	H	-0.084177	-1.049777	0.488889
H37	H	0.000032	-1.187250	0.410985
N38	N	-0.000076	-1.251147	-0.149945
H39	H	0.084065	-1.261009	-0.108520
H40	H	-0.000122	-1.177175	-0.202538
H41	H	-0.000040	-1.274595	-0.408686
N42	N	-0.655900	-1.369067	0.301346
H43	H	-0.757226	-1.365716	0.304720
H44	H	-0.630993	-1.388570	0.386519
N45	N	-0.569233	-1.645256	0.023909
H46	H	-0.467907	-1.648607	0.020530
H47	H	-0.594123	-1.730570	0.042982
N48	N	-0.000161	-0.819848	0.418751
H49	H	-0.000165	-0.872374	0.492776
H50	H	0.083953	-0.778337	0.408767
H51	H	-0.000089	-1.689264	-0.459386
N52	N	-0.430961	-1.324904	0.345686
H53	H	-0.490240	-1.364086	0.411095
H54	H	-0.364046	-1.282103	0.388606
