data_functionalizedCrystal
_audit_creation_method	'MofGen! by Chris Wilmer'
_symmetry_space_group_name_H-M	'P1'
_symmetry_Int_Tables_number	1
_symmetry_cell_setting	triclinic
loop_
_symmetry_equiv_pos_as_xyz
  x,y,z
_cell_length_a	14.971486
_cell_length_b	14.971486
_cell_length_c	14.048226
_cell_angle_alpha	89.993360
_cell_angle_beta	89.998499
_cell_angle_gamma	83.614129
loop_
_atom_site_label
_atom_site_type_symbol
_atom_site_fract_x
_atom_site_fract_y
_atom_site_fract_z
O1	O	1.186947	0.116565	-0.079052
O2	O	0.926547	0.130523	-0.079078
O3	O	1.063726	-0.006656	-0.079057
O4	O	1.049768	0.253744	-0.079072
O5	O	1.063710	-0.006664	0.079264
O6	O	0.926530	0.130515	0.079244
O7	O	1.186930	0.116556	0.079270
Zn8	Zn	1.056728	0.123535	0.104394
Zn9	Zn	1.056750	0.123545	-0.104202
O10	O	1.049751	0.253736	0.079249
C11	C	0.893214	0.129895	0.000080
C12	C	0.793917	0.128024	0.000070
C13	C	1.063094	-0.039985	0.000103
C14	C	1.061223	-0.139282	0.000102
C15	C	0.736692	0.208614	0.000067
C16	C	0.643392	0.206850	0.000081
C17	C	0.607320	0.124497	0.000092
C18	C	0.664552	0.043902	0.000098
C19	C	0.757850	0.045666	0.000090
C20	C	0.470090	0.040231	0.000111
C21	C	0.376786	0.038466	0.000117
C22	C	0.355632	0.201415	0.000102
C23	C	0.448930	0.203179	0.000094
C24	C	0.506156	0.122584	0.000099
C25	C	1.141812	-0.196507	0.000111
C26	C	1.140049	-0.289807	0.000101
C27	C	1.057696	-0.325879	0.000089
C28	C	0.977101	-0.268646	0.000078
C29	C	0.978865	-0.175349	0.000081
C30	C	0.973430	-0.463109	0.000074
C31	C	0.971665	-0.556413	0.000073
C32	C	1.134614	-0.577567	0.000094
C33	C	1.136378	-0.484269	0.000097
C34	C	1.055782	-0.427043	0.000088
C35	C	1.220263	0.117185	0.000110
C36	C	1.319561	0.119056	0.000114
C37	C	1.050384	0.287065	0.000087
C38	C	1.052254	0.386362	0.000082
N39	N	1.056719	0.123527	0.246754
N40	N	1.056765	0.123546	-0.246562
C41	C	1.117482	0.062809	0.296581
C42	C	1.117488	0.062808	0.396239
C43	C	1.056735	0.123531	0.446068
C44	C	0.995966	0.184252	0.396234
C45	C	0.995957	0.184247	0.296578
C46	C	0.995992	0.184258	0.603948
C47	C	0.996003	0.184264	0.703611
C48	C	1.117523	0.062819	0.703609
C49	C	1.117514	0.062815	0.603953
C50	C	1.056746	0.123537	0.554126
H51	H	0.766054	0.275675	0.000057
Br52	Br	1.253584	-0.147562	0.000140
Br53	Br	1.199971	-0.019586	0.536325
Br54	Br	0.615598	-0.067865	0.000122
H55	H	0.946496	0.233690	0.436810
H56	H	0.910047	-0.298024	0.000062
H57	H	0.309033	0.267039	0.000103
Br58	Br	0.835515	-0.063710	0.000103
H59	H	0.913240	-0.128756	0.000074
Br60	Br	0.497885	0.314946	0.000065
Br61	Br	0.565731	0.316227	0.000073
H62	H	0.347419	-0.028593	0.000127
H63	H	0.946506	0.233702	0.563382
H64	H	1.166964	0.013367	0.436808
H65	H	0.516682	-0.025399	0.000116
Br66	Br	1.249425	-0.367467	0.000113
H67	H	1.203437	-0.454903	0.000114
Br68	Br	1.243995	-0.655229	0.000106
H69	H	1.167002	0.013377	0.744184
Br70	Br	0.859899	-0.605368	0.000061
Br71	Br	0.913484	0.266648	0.228955
H72	H	0.907800	-0.416517	0.000064
Br73	Br	1.199943	-0.019599	0.228967
H74	H	0.946531	0.233710	0.744176
