data_functionalizedCrystal
_audit_creation_method	'MofGen! by Chris Wilmer'
_symmetry_space_group_name_H-M	'P1'
_symmetry_Int_Tables_number	1
_symmetry_cell_setting	triclinic
loop_
_symmetry_equiv_pos_as_xyz
  x,y,z
_cell_length_a	11.792241
_cell_length_b	19.188930
_cell_length_c	10.868271
_cell_angle_alpha	89.989749
_cell_angle_beta	89.999893
_cell_angle_gamma	83.669099
loop_
_atom_site_label
_atom_site_type_symbol
_atom_site_fract_x
_atom_site_fract_y
_atom_site_fract_z
O1	O	1.505476	0.095695	-0.102218
O2	O	2.005476	0.595695	0.397782
O3	O	1.174987	0.105557	-0.102248
O4	O	1.674987	0.605557	0.397752
O5	O	1.349769	-0.000975	-0.102208
O6	O	1.849769	0.499025	0.397792
O7	O	1.330695	0.202228	-0.102258
O8	O	1.830695	0.702228	0.397742
O9	O	1.349755	-0.000980	0.102437
O10	O	1.849755	0.499020	0.602437
O11	O	1.174973	0.105553	0.102396
O12	O	1.674973	0.605553	0.602396
O13	O	1.505462	0.095691	0.102427
O14	O	2.005462	0.595691	0.602427
Zn15	Zn	1.340215	0.100621	0.134903
Zn16	Zn	1.840215	0.600621	0.634903
Zn17	Zn	1.340234	0.100627	-0.134725
Zn18	Zn	1.840234	0.600627	0.365275
O19	O	1.330680	0.202224	0.102387
O20	O	1.830680	0.702224	0.602387
C21	C	1.132699	0.104936	0.000071
C22	C	1.632699	0.604936	0.500071
C23	C	1.006713	0.103082	0.000060
C24	C	1.506713	0.603082	0.500060
C25	C	0.776051	0.099672	0.000096
C26	C	1.276051	0.599672	0.500096
C27	C	0.904408	0.101566	0.000076
C28	C	1.404408	0.601566	0.500076
C29	C	1.349144	-0.026992	0.000118
C30	C	1.849144	0.473008	0.500118
C31	C	1.347290	-0.104507	0.000128
C32	C	1.847290	0.395493	0.500128
C33	C	1.449846	-0.148850	0.000143
C34	C	1.949846	0.351150	0.500143
C35	C	1.448104	-0.221684	0.000123
C36	C	1.948104	0.278316	0.500123
C37	C	1.343800	-0.250171	0.000113
C38	C	1.843800	0.249829	0.500113
C39	C	1.241230	-0.205818	0.000091
C40	C	1.741230	0.294182	0.500091
C41	C	1.242975	-0.132986	0.000098
C42	C	1.742975	0.367014	0.500098
N43	N	1.264067	-0.358629	0.069750
N44	N	1.764067	0.141371	0.569750
N45	N	1.262417	-0.427817	0.069746
N46	N	1.762417	0.072183	0.569746
C47	C	1.338536	-0.469609	0.000088
C48	C	1.838536	0.030391	0.500088
N49	N	1.416386	-0.439602	-0.069550
N50	N	1.916386	0.060398	0.430450
N51	N	1.418040	-0.370408	-0.069540
N52	N	1.918040	0.129592	0.430460
C53	C	1.341896	-0.329144	0.000104
C54	C	1.841896	0.170856	0.500104
C55	C	1.439211	-0.592928	0.000080
C56	C	1.939211	-0.092928	0.500080
C57	C	1.437464	-0.665762	0.000052
C58	C	1.937464	-0.165762	0.500052
C59	C	1.230588	-0.649895	0.000032
C60	C	1.730588	-0.149895	0.500032
C61	C	1.232337	-0.577062	0.000047
C62	C	1.732337	-0.077062	0.500047
C63	C	1.336652	-0.548583	0.000077
C64	C	1.836652	-0.048583	0.500077
C65	C	1.547751	0.096313	0.000105
C66	C	2.047751	0.596313	0.500105
C67	C	1.673737	0.098167	0.000108
C68	C	2.173737	0.598167	0.500108
C69	C	1.331305	0.228240	0.000058
C70	C	1.831305	0.728240	0.500058
C71	C	1.333159	0.305755	0.000040
C72	C	1.833159	0.805755	0.500040
N73	N	1.340211	0.100617	0.318917
N74	N	1.840211	0.600617	0.818917
N75	N	1.340248	0.100626	-0.318739
N76	N	1.840248	0.600626	0.181261
C77	C	1.340228	0.100625	0.569923
C78	C	1.840228	0.600625	1.069923
C79	C	1.340215	0.100623	0.430246
C80	C	1.840215	0.600623	0.930246
H81	H	1.534787	-0.125667	0.000163
H82	H	2.034787	0.374333	0.500163
C83	C	1.526647	-0.784451	0.000029
C84	C	2.026647	-0.284451	0.500029
C85	C	1.550203	-0.714509	0.000057
C86	C	2.050203	-0.214509	0.500057
H87	H	1.596249	-0.814545	0.000022
H88	H	2.096249	-0.314545	0.500022
H89	H	1.483863	-0.793138	0.071380
H90	H	1.983863	-0.293138	0.571380
H91	H	1.483867	-0.793107	-0.071349
H92	H	1.983867	-0.293107	0.428651
H93	H	1.592975	-0.705852	0.071439
H94	H	2.092975	-0.205852	0.571439
H95	H	1.593004	-0.705819	-0.071302
H96	H	2.093004	-0.205819	0.428698
C97	C	1.067191	-0.097026	-0.105118
C98	C	1.567191	0.402974	0.394882
C99	C	1.130236	-0.084241	0.000091
C100	C	1.630236	0.415759	0.500091
H101	H	0.997587	-0.066934	-0.105114
H102	H	1.497587	0.433066	0.394886
H103	H	1.109981	-0.088334	-0.176461
H104	H	1.609981	0.411666	0.323539
H105	H	1.051232	-0.144481	-0.105116
H106	H	1.551232	0.355519	0.394884
H107	H	1.146202	-0.036787	0.000085
H108	H	1.646202	0.463213	0.500085
H109	H	1.087436	-0.092928	0.071452
H110	H	1.587436	0.407072	0.571452
C111	C	1.056552	-0.541107	-0.105156
C112	C	1.556552	-0.041107	0.394844
C113	C	1.119600	-0.528317	0.000048
C114	C	1.619600	-0.028317	0.500048
H115	H	0.986947	-0.511016	-0.105152
H116	H	1.486947	-0.011016	0.394848
H117	H	1.099340	-0.532415	-0.176502
H118	H	1.599340	-0.032415	0.323498
H119	H	1.040597	-0.588562	-0.105151
H120	H	1.540597	-0.088562	0.394849
H121	H	1.135563	-0.480864	0.000038
H122	H	1.635563	0.019136	0.500038
H123	H	1.076804	-0.537004	0.071412
H124	H	1.576804	-0.037004	0.571412
C125	C	1.652767	-0.230059	0.000177
C126	C	2.152767	0.269941	0.500177
C127	C	1.560841	-0.270437	0.000149
C128	C	2.060841	0.229563	0.500149
H129	H	1.722364	-0.260158	0.000201
H130	H	2.222364	0.239842	0.500201
H131	H	1.649163	-0.201317	-0.071183
H132	H	2.149163	0.298683	0.428817
H133	H	1.649126	-0.201327	0.071546
H134	H	2.149126	0.298673	0.571546
H135	H	1.564477	-0.299166	-0.071225
H136	H	2.064477	0.200834	0.428775
H137	H	1.564448	-0.299192	0.071516
H138	H	2.064448	0.200808	0.571516
C139	C	1.053712	-0.658806	0.105209
C140	C	1.553712	-0.158806	0.605209
C141	C	1.115932	-0.681199	0.000017
C142	C	1.615932	-0.181199	0.500017
H143	H	0.982924	-0.678131	0.105189
H144	H	1.482924	-0.178131	0.605189
H145	H	1.095917	-0.674016	0.176563
H146	H	1.595917	-0.174016	0.676563
H147	H	1.040082	-0.609082	0.105202
H148	H	1.540082	-0.109082	0.605202
H149	H	1.129569	-0.730922	0.000028
H150	H	1.629569	-0.230922	0.500028
H151	H	1.073717	-0.665993	-0.071356
H152	H	1.573717	-0.165993	0.428644
C153	C	1.533744	-0.488324	0.000119
C154	C	2.033744	0.011676	0.500119
C155	C	1.553868	-0.561616	0.000100
C156	C	2.053868	-0.061616	0.500100
H157	H	1.604530	-0.468997	0.000138
H158	H	2.104530	0.031003	0.500138
H159	H	1.491543	-0.473122	-0.071242
H160	H	1.991543	0.026878	0.428758
H161	H	1.491525	-0.473148	0.071487
H162	H	1.991525	0.026852	0.571487
H163	H	1.596080	-0.576792	-0.071273
H164	H	2.096080	-0.076792	0.428727
H165	H	1.596087	-0.576825	0.071468
H166	H	2.096087	-0.076825	0.571468
H167	H	1.156305	-0.229017	0.000080
H168	H	1.656305	0.270983	0.500080
