data_functionalizedCrystal
_audit_creation_method	'MofGen! by Chris Wilmer'
_symmetry_space_group_name_H-M	'P1'
_symmetry_Int_Tables_number	1
_symmetry_cell_setting	triclinic
loop_
_symmetry_equiv_pos_as_xyz
  x,y,z
_cell_length_a	16.109302
_cell_length_b	18.266242
_cell_length_c	16.109304
_cell_angle_alpha	90.003536
_cell_angle_beta	83.462209
_cell_angle_gamma	90.010978
loop_
_atom_site_label
_atom_site_type_symbol
_atom_site_fract_x
_atom_site_fract_y
_atom_site_fract_z
O1	O	1.103138	0.060909	0.106871
O2	O	1.603138	0.560909	0.606871
O3	O	0.861076	0.060903	0.120170
O4	O	1.361076	0.560903	0.620170
O5	O	0.988755	0.060907	-0.007510
O6	O	1.488755	0.560907	0.492490
O7	O	0.975459	0.060905	0.234551
O8	O	1.475459	0.560905	0.734551
O9	O	0.988734	-0.060855	-0.007517
O10	O	1.488734	0.439145	0.492483
O11	O	0.861054	-0.060859	0.120163
O12	O	1.361054	0.439141	0.620163
O13	O	1.103116	-0.060853	0.106865
O14	O	1.603116	0.439147	0.606865
Zn15	Zn	0.982082	-0.080188	0.113513
Zn16	Zn	1.482082	0.419812	0.613513
Zn17	Zn	0.982110	0.080238	0.113522
Zn18	Zn	1.482110	0.580238	0.613522
O19	O	0.975437	-0.060857	0.234545
O20	O	1.475437	0.439143	0.734545
C21	C	0.830090	0.000021	0.119628
C22	C	1.330090	0.500021	0.619628
C23	C	0.737795	0.000019	0.118012
C24	C	1.237795	0.500019	0.618012
C25	C	0.525442	-0.066346	0.114274
C26	C	1.025442	0.433654	0.614274
C27	C	0.438722	-0.066344	0.112747
C28	C	0.938722	0.433656	0.612747
C29	C	0.438756	0.066408	0.112758
C30	C	0.938756	0.566408	0.612758
C31	C	0.525476	0.066405	0.114279
C32	C	1.025476	0.566405	0.614279
C33	C	0.568816	0.000025	0.115041
C34	C	1.068816	0.500025	0.615041
C35	C	0.395377	0.000031	0.111994
C36	C	0.895377	0.500031	0.611994
C37	C	0.301351	0.000034	0.110338
C38	C	0.801351	0.500034	0.610338
C39	C	0.662848	0.000022	0.116695
C40	C	1.162848	0.500022	0.616695
N41	N	0.982069	-0.189675	0.113506
N42	N	1.482069	0.310325	0.613506
C43	C	1.038623	-0.227982	0.056997
C44	C	1.538623	0.272018	0.556997
C45	C	1.038629	-0.304627	0.056994
C46	C	1.538629	0.195373	0.556994
C47	C	0.982087	-0.342962	0.113513
C48	C	1.482087	0.157038	0.613513
C49	C	0.925521	-0.304646	0.170026
C50	C	1.425521	0.195354	0.670026
C51	C	0.925512	-0.228002	0.170023
C52	C	1.425512	0.271998	0.670023
N53	N	0.971485	-0.463295	0.187083
N54	N	1.471485	0.036705	0.687083
N55	N	0.971499	-0.536103	0.187083
N56	N	1.471499	-0.036103	0.687083
C57	C	0.982110	-0.573885	0.113525
C58	C	1.482110	-0.073885	0.613525
N59	N	0.992724	-0.536107	0.039964
N60	N	1.492724	-0.036107	0.539964
N61	N	0.992714	-0.463293	0.039965
N62	N	1.492714	0.036707	0.539965
C63	C	0.982090	-0.426069	0.113523
C64	C	1.482090	0.073931	0.613523
C65	C	1.038674	-0.695299	0.057007
C66	C	1.538674	-0.195299	0.557007
C67	C	1.038674	-0.771945	0.057002
C68	C	1.538674	-0.271945	0.557002
C69	C	0.925570	-0.771962	0.170042
C70	C	1.425570	-0.271962	0.670042
C71	C	0.925567	-0.695317	0.170040
C72	C	1.425567	-0.195317	0.670040
C73	C	0.982123	-0.656990	0.113523
C74	C	1.482123	-0.156990	0.613523
C75	C	1.134102	0.000031	0.107407
C76	C	1.634102	0.500031	0.607407
C77	C	1.226397	0.000038	0.109022
C78	C	1.726397	0.500038	0.609022
C79	C	0.988206	0.000027	-0.038488
C80	C	1.488206	0.500027	0.461512
C81	C	0.986590	0.000032	-0.130784
C82	C	1.486590	0.500032	0.369216
N83	N	0.982130	0.189725	0.113521
N84	N	1.482130	0.689725	0.613521
C85	C	0.982868	0.066402	-0.343117
C86	C	1.482868	0.566402	0.156883
C87	C	0.981342	0.066401	-0.429838
C88	C	1.481342	0.566401	0.070162
C89	C	0.981322	-0.066350	-0.429842
C90	C	1.481322	0.433650	0.070158
C91	C	0.982842	-0.066349	-0.343122
C92	C	1.482842	0.433651	0.156878
C93	C	0.983619	0.000029	-0.299763
C94	C	1.483619	0.500029	0.200237
C95	C	0.980573	0.000027	-0.473202
C96	C	1.480573	0.500027	0.026798
C97	C	0.978918	0.000026	-0.567228
C98	C	1.478918	0.500026	-0.067228
C99	C	0.985273	0.000031	-0.205731
C100	C	1.485273	0.500031	0.294269
C101	C	0.975987	0.000024	0.265523
C102	C	1.475987	0.500024	0.765523
C103	C	0.977603	0.000024	0.357818
C104	C	1.477603	0.500024	0.857818
H105	H	0.560727	-0.120397	0.114894
H106	H	1.060727	0.379603	0.614894
H107	H	0.980691	-0.120393	-0.465156
H108	H	1.480691	0.379607	0.034844
H109	H	0.403411	-0.120390	0.112122
H110	H	0.903411	0.379610	0.612122
H111	H	0.983450	-0.120401	-0.307822
H112	H	1.483450	0.379599	0.192178
H113	H	1.084684	-0.335823	0.010975
H114	H	1.584684	0.164177	0.510975
H115	H	0.403458	0.120451	0.112139
H116	H	0.903458	0.620451	0.612139
H117	H	1.084673	-0.196779	0.010976
H118	H	1.584673	0.303221	0.510976
H119	H	0.560792	0.120456	0.114902
H120	H	1.060792	0.620456	0.614902
H121	H	0.879483	-0.335862	0.216044
H122	H	1.379483	0.164138	0.716044
H123	H	0.879457	-0.196812	0.216040
H124	H	1.379457	0.303188	0.716040
H125	H	1.084723	-0.664092	0.010985
H126	H	1.584723	-0.164092	0.510985
H127	H	0.879530	-0.803174	0.216058
H128	H	1.379530	-0.303174	0.716058
H129	H	1.084725	-0.803136	0.010981
H130	H	1.584725	-0.303136	0.510981
H131	H	0.980728	0.120448	-0.465133
H132	H	1.480728	0.620448	0.034867
H133	H	0.879518	-0.664125	0.216058
H134	H	1.379518	-0.164125	0.716058
H135	H	0.983498	0.120451	-0.307816
H136	H	1.483498	0.620451	0.192184
