data_functionalizedCrystal
_audit_creation_method	'MofGen! by Chris Wilmer'
_symmetry_space_group_name_H-M	'P1'
_symmetry_Int_Tables_number	1
_symmetry_cell_setting	triclinic
loop_
_symmetry_equiv_pos_as_xyz
  x,y,z
_cell_length_a	14.044220
_cell_length_b	15.944564
_cell_length_c	12.503552
_cell_angle_alpha	93.518927
_cell_angle_beta	93.844387
_cell_angle_gamma	91.653594
loop_
_atom_site_label
_atom_site_type_symbol
_atom_site_fract_x
_atom_site_fract_y
_atom_site_fract_z
O1	O	1.263202	-0.198060	0.089324
O2	O	1.513202	0.051940	0.339324
O3	O	1.763202	0.301940	0.589324
O4	O	2.013202	0.551940	0.839324
O5	O	0.987232	-0.190752	0.089326
O6	O	1.237232	0.059248	0.339326
O7	O	1.487232	0.309248	0.589326
O8	O	1.737232	0.559248	0.839326
O9	O	1.132746	-0.072696	0.089315
O10	O	1.382746	0.177304	0.339315
O11	O	1.632746	0.427304	0.589315
O12	O	1.882746	0.677304	0.839315
O13	O	1.117688	-0.316116	0.089335
O14	O	1.367688	-0.066116	0.339335
O15	O	1.617688	0.183884	0.589335
O16	O	1.867688	0.433884	0.839335
O17	O	1.121790	-0.081582	-0.089327
O18	O	1.371790	0.168418	0.160673
O19	O	1.621790	0.418418	0.410673
O20	O	1.871790	0.668418	0.660673
O21	O	0.976276	-0.199638	-0.089315
O22	O	1.226276	0.050362	0.160685
O23	O	1.476276	0.300362	0.410685
O24	O	1.726276	0.550362	0.660685
O25	O	1.252246	-0.206946	-0.089318
O26	O	1.502246	0.043054	0.160682
O27	O	1.752246	0.293054	0.410682
O28	O	2.002246	0.543054	0.660682
Cu29	Cu	1.113260	-0.204104	-0.105628
Cu30	Cu	1.363260	0.045896	0.144372
Cu31	Cu	1.613260	0.295896	0.394372
Cu32	Cu	1.863260	0.545896	0.644372
Cu33	Cu	1.126217	-0.193595	0.105636
Cu34	Cu	1.376217	0.056405	0.355636
Cu35	Cu	1.626217	0.306405	0.605636
Cu36	Cu	1.876217	0.556405	0.855636
O37	O	1.106732	-0.325002	-0.089306
O38	O	1.356732	-0.075002	0.160694
O39	O	1.606732	0.174998	0.410694
O40	O	1.856732	0.424998	0.660694
C41	C	0.946439	-0.191997	0.000006
C42	C	1.196439	0.058003	0.250006
C43	C	1.446439	0.308003	0.500006
C44	C	1.696439	0.558003	0.750006
C45	C	0.841212	-0.182455	0.000006
C46	C	1.091212	0.067545	0.250006
C47	C	1.341212	0.317545	0.500006
C48	C	1.591212	0.567545	0.750006
C49	C	1.126641	-0.045799	-0.000007
C50	C	1.376641	0.204201	0.249993
C51	C	1.626641	0.454201	0.499993
C52	C	1.876641	0.704201	0.749993
C53	C	1.124760	0.047588	-0.000008
C54	C	1.374760	0.297588	0.249992
C55	C	1.624760	0.547588	0.499992
C56	C	1.874760	0.797588	0.749992
N57	N	1.104154	-0.211495	-0.254220
N58	N	1.354154	0.038505	-0.004220
N59	N	1.604154	0.288505	0.245780
N60	N	1.854154	0.538505	0.495780
C61	C	1.293039	-0.205702	0.000005
C62	C	1.543039	0.044298	0.250005
C63	C	1.793039	0.294298	0.500005
C64	C	2.043039	0.544298	0.750005
C65	C	1.398266	-0.215242	0.000011
C66	C	1.648266	0.034758	0.250011
C67	C	1.898266	0.284758	0.500011
C68	C	2.148266	0.534758	0.750011
C69	C	1.590929	-0.232686	0.000012
C70	C	1.840929	0.017314	0.250012
C71	C	2.090929	0.267314	0.500012
C72	C	2.340929	0.517314	0.750012
C73	C	1.648554	-0.165016	0.000006
C74	C	1.898554	0.084984	0.250006
C75	C	2.148554	0.334984	0.500006
C76	C	2.398554	0.584984	0.750006
C77	C	1.755759	-0.174721	0.000006
C78	C	2.005759	0.075279	0.250006
C79	C	2.255759	0.325279	0.500006
C80	C	2.505759	0.575279	0.750006
C81	C	1.483715	-0.222981	0.000012
C82	C	1.733715	0.027019	0.250012
C83	C	1.983715	0.277019	0.500012
C84	C	2.233715	0.527019	0.750012
C85	C	1.030065	0.269534	0.000007
C86	C	1.280065	0.519534	0.250007
C87	C	1.530065	0.769534	0.500007
C88	C	1.780065	1.019534	0.750007
C89	C	1.068628	0.322878	-0.088075
C90	C	1.318628	0.572878	0.161925
C91	C	1.568628	0.822878	0.411925
C92	C	1.818628	1.072878	0.661925
C93	C	1.121358	0.218568	-0.000000
C94	C	1.371358	0.468568	0.250000
C95	C	1.621358	0.718568	0.500000
C96	C	1.871358	0.968568	0.750000
C97	C	1.079452	0.331621	0.088052
C98	C	1.329452	0.581621	0.338052
C99	C	1.579452	0.831621	0.588052
C100	C	1.829452	1.081621	0.838052
C101	C	1.118065	0.383726	0.000012
C102	C	1.368065	0.633726	0.250012
C103	C	1.618065	0.883726	0.500012
C104	C	1.868065	1.133726	0.750012
C105	C	1.159942	0.270677	-0.088155
C106	C	1.409942	0.520677	0.161845
C107	C	1.659942	0.770677	0.411845
C108	C	1.909942	1.020677	0.661845
C109	C	1.170757	0.279419	0.088051
C110	C	1.420757	0.529419	0.338051
C111	C	1.670757	0.779419	0.588051
C112	C	1.920757	1.029419	0.838051
C113	C	1.209386	0.332739	-0.000052
C114	C	1.459386	0.582739	0.249948
C115	C	1.709386	0.832739	0.499948
C116	C	1.959386	1.082739	0.749948
C117	C	1.123252	0.123424	-0.000008
C118	C	1.373252	0.373424	0.249992
C119	C	1.623252	0.623424	0.499992
C120	C	1.873252	0.873424	0.749992
C121	C	1.116178	0.478868	0.000012
C122	C	1.366178	0.728868	0.250012
C123	C	1.616178	0.978868	0.500012
C124	C	1.866178	1.228868	0.750012
C125	C	1.112824	0.648100	0.000016
C126	C	1.362824	0.898100	0.250016
C127	C	1.612824	1.148100	0.500016
C128	C	1.862824	1.398100	0.750016
C129	C	1.114667	0.554712	0.000020
C130	C	1.364667	0.804712	0.250020
C131	C	1.614667	1.054712	0.500020
C132	C	1.864667	1.304712	0.750020
C133	C	1.148722	-0.175321	-0.526657
C134	C	1.398722	0.074679	-0.276657
C135	C	1.648722	0.324679	-0.026657
C136	C	1.898722	0.574679	0.223343
C137	C	1.090767	-0.222368	-0.473328
C138	C	1.340767	0.027632	-0.223328
C139	C	1.590767	0.277632	0.026672
C140	C	1.840767	0.527632	0.276672
C141	C	1.098217	-0.216317	-0.351405
C142	C	1.348217	0.033683	-0.101405
C143	C	1.598217	0.283683	0.148595
C144	C	1.848217	0.533683	0.398595
C145	C	1.141272	-0.181372	-0.648591
C146	C	1.391272	0.068628	-0.398591
C147	C	1.641272	0.318628	-0.148591
C148	C	1.891272	0.568628	0.101409
N149	N	1.135331	-0.186197	0.254228
N150	N	1.385331	0.063803	0.504228
N151	N	1.635331	0.313803	0.754228
N152	N	1.885331	0.563803	1.004228
H153	H	1.617380	-0.099788	0.000078
H154	H	1.867380	0.150212	0.250078
H155	H	2.117380	0.400212	0.500078
H156	H	2.367380	0.650212	0.750078
H157	H	1.285223	0.360216	-0.000103
H158	H	1.535223	0.610216	0.249897
H159	H	1.785223	0.860216	0.499897
H160	H	2.035223	1.110216	0.749897
Cl161	Cl	1.212452	0.229634	-0.203250
Cl162	Cl	1.462452	0.479634	0.046750
Cl163	Cl	1.712452	0.729634	0.296750
Cl164	Cl	1.962452	0.979634	0.546750
Cl165	Cl	1.237375	0.249594	0.203026
Cl166	Cl	1.487375	0.499594	0.453026
Cl167	Cl	1.737375	0.749594	0.703026
Cl168	Cl	1.987375	0.999594	0.953026
H169	H	1.203932	-0.130502	-0.480751
H170	H	1.453932	0.119498	-0.230751
H171	H	1.703932	0.369498	0.019249
H172	H	1.953932	0.619498	0.269249
H173	H	1.622107	-0.297904	0.000018
H174	H	1.872107	-0.047904	0.250018
H175	H	2.122107	0.202096	0.500018
H176	H	2.372107	0.452096	0.750018
Cl177	Cl	0.913069	0.226863	-0.000120
Cl178	Cl	1.163069	0.476863	0.249880
Cl179	Cl	1.413069	0.726863	0.499880
Cl180	Cl	1.663069	0.976863	0.749880
H181	H	1.025448	0.342173	-0.162540
H182	H	1.275448	0.592173	0.087460
H183	H	1.525448	0.842173	0.337460
H184	H	1.775448	1.092173	0.587460
H185	H	1.045394	0.358294	0.162523
H186	H	1.295394	0.608294	0.412523
H187	H	1.545394	0.858294	0.662523
H188	H	1.795394	1.108294	0.912523
Cl189	Cl	1.005525	-0.291575	-0.544209
Cl190	Cl	1.255525	-0.041575	-0.294209
Cl191	Cl	1.505525	0.208425	-0.044209
Cl192	Cl	1.755525	0.458425	0.205791
