data_functionalizedCrystal
_audit_creation_method	'MofGen! by Chris Wilmer'
_symmetry_space_group_name_H-M	'P1'
_symmetry_Int_Tables_number	1
_symmetry_cell_setting	triclinic
loop_
_symmetry_equiv_pos_as_xyz
  x,y,z
_cell_length_a	16.109301
_cell_length_b	27.732048
_cell_length_c	15.186229
_cell_angle_alpha	89.991324
_cell_angle_beta	89.999362
_cell_angle_gamma	83.052068
loop_
_atom_site_label
_atom_site_type_symbol
_atom_site_fract_x
_atom_site_fract_y
_atom_site_fract_z
O1	O	1.102361	0.062130	-0.073183
O2	O	0.860204	0.069862	-0.073198
O3	O	0.988803	-0.004369	-0.073173
O4	O	0.973762	0.136361	-0.073208
O5	O	0.988795	-0.004370	0.073284
O6	O	0.860195	0.069861	0.073259
O7	O	1.102353	0.062129	0.073275
Zn8	Zn	0.981273	0.065995	0.096520
Zn9	Zn	0.981284	0.065996	-0.096444
O10	O	0.973753	0.136360	0.073250
C11	C	0.829228	0.069548	0.000029
C12	C	0.736945	0.068609	0.000024
C13	C	0.514154	0.110473	0.000024
C14	C	0.427445	0.109587	0.000030
C15	C	0.448409	0.021514	0.000048
C16	C	0.535117	0.022401	0.000048
C17	C	0.567987	0.066882	0.000032
C18	C	0.394570	0.065109	0.000037
C19	C	0.300556	0.064148	0.000044
C20	C	0.662007	0.067843	0.000027
C21	C	0.988483	-0.022378	0.000058
C22	C	0.987533	-0.076037	0.000065
C23	C	1.057541	-0.414559	0.000024
C24	C	1.054013	-0.616233	0.000012
O25	O	1.118031	-0.647221	-0.000023
N26	N	0.977759	-0.635676	0.000008
C27	C	0.902381	-0.604697	0.000001
O28	O	0.837441	-0.625862	-0.000011
C29	C	0.905910	-0.403024	0.000008
C30	C	0.982169	-0.383584	0.000020
C31	C	1.133794	-0.395119	0.000036
C32	C	1.134675	-0.344703	0.000044
C33	C	1.059303	-0.313728	0.000040
C34	C	0.983050	-0.333168	0.000028
C35	C	0.830533	-0.372045	-0.000005
C36	C	0.831422	-0.321624	-0.000006
C37	C	0.907681	-0.302184	0.000007
C38	C	0.908559	-0.251777	0.000032
N39	N	0.984814	-0.232334	0.000036
C40	C	1.060186	-0.263310	0.000040
C41	C	0.900534	-0.710579	-0.000000
C42	C	0.899652	-0.760997	-0.000000
C43	C	1.051284	-0.772530	0.000009
C44	C	1.052166	-0.722111	0.000015
C45	C	0.976789	-0.691136	0.000004
C46	C	1.062030	-0.157433	0.000058
C47	C	1.062905	-0.107012	0.000069
C48	C	0.911273	-0.095484	0.000056
C49	C	0.910398	-0.145900	0.000049
C50	C	0.985783	-0.176874	0.000047
O51	O	0.844576	-0.220761	0.000057
O52	O	1.125116	-0.242135	0.000033
C53	C	1.056660	-0.464975	0.000016
C54	C	0.980407	-0.484415	0.000005
C55	C	0.905035	-0.453440	0.000001
C56	C	0.979525	-0.534833	0.000005
C57	C	1.054897	-0.565808	0.000009
C58	C	1.131151	-0.546365	0.000013
C59	C	1.132032	-0.495950	0.000020
C60	C	0.828781	-0.472883	-0.000003
C61	C	0.827906	-0.523299	-0.000010
C62	C	0.903278	-0.554274	-0.000006
C63	C	1.133328	0.062443	0.000046
C64	C	1.225612	0.063382	0.000045
C65	C	0.974073	0.154369	0.000017
C66	C	0.975024	0.208028	0.000004
N67	N	0.981271	0.065994	0.228213
N68	N	0.981292	0.065994	-0.228136
C69	C	1.038234	0.033135	0.453947
C70	C	1.038237	0.033134	0.546136
C71	C	0.924323	0.098854	0.546124
C72	C	0.924317	0.098852	0.453936
C73	C	0.981277	0.065993	0.407850
C74	C	0.981286	0.065994	0.592227
C75	C	0.981288	0.065993	0.692183
C76	C	0.981274	0.065994	0.307887
H77	H	0.383617	0.145084	0.000025
C78	C	1.220801	-0.458497	-0.075246
C79	C	1.216655	-0.429160	0.000041
H80	H	1.271962	-0.479507	-0.075239
H81	H	1.175276	-0.477297	-0.075244
H82	H	1.217990	-0.438580	-0.126314
H83	H	1.219459	-0.449077	0.051110
H84	H	1.262192	-0.410359	0.000048
H85	H	1.114263	-0.706287	0.000025
C86	C	1.260126	-0.571718	-0.075271
C87	C	1.214003	-0.580419	0.000014
H88	H	1.311274	-0.592741	-0.075269
H89	H	1.228829	-0.577604	-0.126335
H90	H	1.271567	-0.538909	-0.075255
H91	H	1.202557	-0.613227	-0.000005
H92	H	1.245307	-0.574537	0.051091
C93	C	0.678109	-0.506822	-0.000035
C94	C	0.744073	-0.544663	-0.000027
H95	H	0.626357	-0.520011	-0.000057
H96	H	0.681601	-0.487407	0.051041
H97	H	0.681627	-0.487389	-0.051105
H98	H	0.740559	-0.564094	0.051046
H99	H	0.740580	-0.564086	-0.051109
C100	C	0.874419	0.182526	0.425518
C101	C	0.861708	0.134974	0.403258
H102	H	0.835769	0.204824	0.394227
H103	H	0.866267	0.187228	0.487009
H104	H	0.929838	0.187778	0.410399
H105	H	0.806290	0.129722	0.418383
H106	H	0.869853	0.130271	0.341753
C107	C	1.151478	0.022629	0.350221
C108	C	1.100799	-0.002998	0.403265
H109	H	1.190093	0.000316	0.318932
H110	H	1.117555	0.042205	0.309592
H111	H	1.181165	0.042740	0.386168
H112	H	1.071107	-0.023106	0.367317
H113	H	1.134726	-0.022582	0.443898
C114	C	1.088822	0.003951	0.687457
C115	C	1.100846	-0.002985	0.596808
H116	H	1.127472	-0.018351	0.718737
H117	H	1.097437	0.036208	0.702552
H118	H	1.033403	-0.001309	0.702560
H119	H	1.156263	0.002279	0.581703
H120	H	1.092237	-0.035250	0.581707
C121	C	0.681449	-0.315293	-0.000025
C122	C	0.748562	-0.287577	-0.000015
H123	H	0.630297	-0.294273	-0.000024
H124	H	0.684267	-0.335191	-0.051097
H125	H	0.684262	-0.335205	0.051049
H126	H	0.745753	-0.267668	-0.051093
H127	H	0.745743	-0.267671	0.051062
C128	C	0.741789	-0.409489	-0.075290
C129	C	0.745923	-0.438840	-0.000006
H130	H	0.690629	-0.388477	-0.075289
H131	H	0.787315	-0.390691	-0.075278
H132	H	0.744604	-0.429396	-0.126360
H133	H	0.743113	-0.418933	0.051065
H134	H	0.700384	-0.457640	-0.000009
H135	H	0.540913	0.146692	0.000017
H136	H	0.421636	-0.014700	0.000066
H137	H	0.877948	0.125607	0.583656
C138	C	0.547138	-0.064748	0.000056
C139	C	0.594298	-0.025519	0.000053
H140	H	0.583676	-0.094329	0.000055
H141	H	0.512885	-0.063265	0.051125
H142	H	0.512882	-0.063258	-0.051022
H143	H	0.628550	-0.027007	0.051134
H144	H	0.628566	-0.027002	-0.051021
H145	H	1.125007	-0.091187	0.000082
H146	H	1.123416	-0.182646	0.000053
H147	H	1.196773	-0.328880	0.000051
H148	H	1.112655	-0.797759	0.000012
H149	H	0.849907	-0.070255	0.000055
C150	C	0.749861	-0.744521	-0.000016
C151	C	0.815825	-0.782362	-0.000007
H152	H	0.698110	-0.757710	-0.000030
H153	H	0.753357	-0.725102	0.051055
H154	H	0.753375	-0.725091	-0.051091
H155	H	0.812315	-0.801790	0.051071
H156	H	0.812328	-0.801788	-0.051084
H157	H	0.839149	-0.685363	-0.000009
C158	C	0.821448	-0.195900	-0.075253
C159	C	0.826577	-0.167275	0.000043
H160	H	0.769702	-0.209096	-0.075258
H161	H	0.824942	-0.176462	-0.126310
H162	H	0.866217	-0.221562	-0.075246
H163	H	0.781812	-0.141610	0.000033
H164	H	0.823075	-0.186714	0.051113
H165	H	0.768435	-0.387864	-0.000021
H166	H	1.194130	-0.480127	0.000031
