data_functionalizedCrystal
_audit_creation_method	'MofGen! by Chris Wilmer'
_symmetry_space_group_name_H-M	'P1'
_symmetry_Int_Tables_number	1
_symmetry_cell_setting	triclinic
loop_
_symmetry_equiv_pos_as_xyz
  x,y,z
_cell_length_a	17.000371
_cell_length_b	17.038272
_cell_length_c	9.130313
_cell_angle_alpha	89.998262
_cell_angle_beta	89.999497
_cell_angle_gamma	83.355402
loop_
_atom_site_label
_atom_site_type_symbol
_atom_site_fract_x
_atom_site_fract_y
_atom_site_fract_z
O1	O	1.057997	0.028039	-0.121806
O2	O	1.557997	0.528039	0.378194
O3	O	0.828177	0.056284	-0.121808
O4	O	1.328177	0.556284	0.378192
O5	O	0.941721	-0.071560	-0.121795
O6	O	1.441721	0.428440	0.378205
O7	O	0.944453	0.155884	-0.121819
O8	O	1.444453	0.655884	0.378181
O9	O	0.941719	-0.071557	0.121803
O10	O	1.441719	0.428443	0.621803
O11	O	0.828175	0.056288	0.121791
O12	O	1.328175	0.556288	0.621791
O13	O	1.057995	0.028043	0.121793
O14	O	1.557995	0.528043	0.621793
Cu15	Cu	0.943085	0.042165	0.144034
Cu16	Cu	1.443085	0.542165	0.644034
Cu17	Cu	0.943087	0.042161	-0.144049
Cu18	Cu	1.443087	0.542161	0.355951
O19	O	0.944451	0.155887	0.121780
O20	O	1.444451	0.655887	0.621780
C21	C	0.798625	0.057803	-0.000009
C22	C	1.298625	0.557803	0.499991
C23	C	0.710572	0.062314	-0.000009
C24	C	1.210572	0.562314	0.499991
C25	C	0.673845	-0.007108	0.000000
C26	C	1.173845	0.492892	0.500000
C27	C	0.591110	-0.002864	-0.000011
C28	C	1.091110	0.497136	0.499989
C29	C	0.545102	0.070802	-0.000021
C30	C	1.045102	0.570802	0.499979
C31	C	0.581834	0.140229	-0.000035
C32	C	1.081834	0.640229	0.499965
C33	C	0.664568	0.135985	-0.000034
C34	C	1.164568	0.635985	0.499966
C35	C	0.295066	0.087196	-0.000032
C36	C	0.795066	0.587196	0.499968
C37	C	0.212327	0.091434	-0.000028
C38	C	0.712327	0.591434	0.499972
C39	C	0.221608	-0.051659	-0.000007
C40	C	0.721608	0.448341	0.499993
C41	C	0.304344	-0.055897	0.000002
C42	C	0.804344	0.444103	0.500002
C43	C	0.341068	0.013530	-0.000019
C44	C	0.841068	0.513530	0.499981
C45	C	0.460533	0.075141	-0.000027
C46	C	0.960533	0.575141	0.499973
C47	C	0.425636	0.009190	-0.000023
C48	C	0.925636	0.509190	0.499977
C49	C	0.939235	-0.100516	0.000004
C50	C	1.439235	0.399484	0.500004
C51	C	0.931823	-0.186802	0.000003
C52	C	1.431823	0.313198	0.500003
C53	C	0.999881	-0.241577	0.000006
C54	C	1.499881	0.258423	0.500006
C55	C	0.992911	-0.322650	-0.000008
C56	C	1.492911	0.177350	0.499992
C57	C	0.917882	-0.348946	-0.000014
C58	C	1.417882	0.151054	0.499986
C59	C	0.849819	-0.294164	-0.000021
C60	C	1.349819	0.205836	0.499979
C61	C	0.856789	-0.213093	-0.000017
C62	C	1.356789	0.286907	0.499983
C63	C	0.893256	-0.593018	-0.000034
C64	C	1.393256	-0.093018	0.499966
C65	C	0.886291	-0.674096	-0.000033
C66	C	1.386291	-0.174096	0.499967
C67	C	1.029384	-0.702577	-0.000024
C68	C	1.529384	-0.202577	0.499976
C69	C	1.036348	-0.621502	-0.000012
C70	C	1.536348	-0.121502	0.499988
C71	C	0.968285	-0.566727	-0.000026
C72	C	1.468285	-0.066727	0.499974
C73	C	0.910756	-0.431816	-0.000024
C74	C	1.410756	0.068184	0.499976
C75	C	0.975411	-0.483859	-0.000027
C76	C	1.475411	0.016141	0.499973
C77	C	1.087547	0.026524	-0.000010
C78	C	1.587547	0.526524	0.499990
C79	C	1.175600	0.022013	-0.000019
C80	C	1.675600	0.522013	0.499981
C81	C	0.946936	0.184843	-0.000022
C82	C	1.446936	0.684843	0.499978
C83	C	0.954349	0.271129	-0.000031
C84	C	1.454349	0.771129	0.499969
N85	N	0.943090	0.042167	0.346657
N86	N	1.443090	0.542167	0.846657
N87	N	0.943088	0.042153	-0.346672
N88	N	1.443088	0.542153	0.153328
C89	C	0.993382	-0.014425	0.423315
C90	C	1.493382	0.485575	0.923315
C91	C	0.993379	-0.014434	0.576651
C92	C	1.493379	0.485566	1.076651
C93	C	0.892790	0.098748	0.576660
C94	C	1.392790	0.598748	1.076660
C95	C	0.892789	0.098753	0.423326
C96	C	1.392789	0.598753	0.923326
C97	C	1.043683	-0.071011	0.346646
C98	C	1.543683	0.428989	0.846646
C99	C	1.093980	-0.127608	0.423304
C100	C	1.593980	0.372392	0.923304
C101	C	1.093977	-0.127617	0.576641
C102	C	1.593977	0.372383	1.076641
C103	C	1.043677	-0.071030	0.653320
C104	C	1.543677	0.428970	1.153320
H105	H	0.694469	0.192515	-0.000035
H106	H	1.194469	0.692515	0.499965
Br107	Br	0.808933	-0.467510	-0.000046
Br108	Br	1.308933	0.032490	0.499954
Br109	Br	0.541270	-0.097084	-0.000049
Br110	Br	1.041270	0.402916	0.499951
H111	H	1.043674	-0.071047	0.778177
H112	H	1.543674	0.428953	1.278177
Br113	Br	1.101711	-0.205899	0.000034
Br114	Br	1.601711	0.294101	0.500034
H115	H	1.134927	-0.173684	0.360864
H116	H	1.634927	0.326316	0.860864
H117	H	0.191698	-0.108182	-0.000006
H118	H	0.691698	0.391818	0.499994
Br119	Br	0.519395	0.240205	-0.000069
Br120	Br	1.019395	0.740205	0.499931
H121	H	1.084797	-0.747183	-0.000015
H122	H	1.584797	-0.247183	0.499985
Br123	Br	1.162226	-0.204432	0.680676
Br124	Br	1.662226	0.295568	1.180676
H125	H	0.463099	-0.050788	-0.000023
H126	H	0.963099	0.449212	0.499977
Br127	Br	0.824529	0.175556	0.319286
Br128	Br	1.324529	0.675556	0.819286
Br129	Br	0.398087	0.175114	-0.000048
Br130	Br	0.898087	0.675114	0.499952
Br131	Br	0.747992	-0.329850	-0.000053
Br132	Br	1.247992	0.170150	0.499947
Br133	Br	1.085281	-0.396987	-0.000006
Br134	Br	1.585281	0.103013	0.499994
H135	H	1.043691	-0.071008	0.221792
H136	H	1.543691	0.428992	0.721792
Br137	Br	0.736277	-0.107088	0.000029
Br138	Br	1.236277	0.392912	0.500029
Br139	Br	0.784459	-0.709782	-0.000026
Br140	Br	1.284459	-0.209782	0.499974
H141	H	0.341798	-0.115883	0.000017
H142	H	0.841798	0.384117	0.500017
H143	H	1.036500	-0.462446	-0.000055
H144	H	1.536500	0.037554	0.499945
H145	H	0.174868	0.151425	-0.000030
H146	H	0.674868	0.651425	0.499970
H147	H	1.097445	-0.600099	-0.000007
H148	H	1.597445	-0.100099	0.499993
H149	H	0.324957	0.143728	-0.000060
H150	H	0.824957	0.643728	0.499940
Br151	Br	0.824532	0.175542	0.680722
Br152	Br	1.324532	0.675542	1.180722
H153	H	0.837834	-0.548429	-0.000046
H154	H	1.337834	-0.048429	0.499954
H155	H	0.801369	-0.168494	-0.000019
H156	H	1.301369	0.331506	0.499981
