data_functionalizedCrystal
_audit_creation_method	'MofGen! by Chris Wilmer'
_symmetry_space_group_name_H-M	'P1'
_symmetry_Int_Tables_number	1
_symmetry_cell_setting	triclinic
loop_
_symmetry_equiv_pos_as_xyz
  x,y,z
_cell_length_a	10.654549
_cell_length_b	10.654560
_cell_length_c	14.586319
_cell_angle_alpha	89.991656
_cell_angle_beta	89.999505
_cell_angle_gamma	95.512986
loop_
_atom_site_label
_atom_site_type_symbol
_atom_site_fract_x
_atom_site_fract_y
_atom_site_fract_z
O1	O	1.667841	-0.176399	0.076225
O2	O	1.302363	-0.193205	0.076232
O3	O	1.493498	-0.002064	0.076216
O4	O	1.476706	-0.367541	0.076240
O5	O	1.493496	-0.002052	-0.076264
O6	O	1.302361	-0.193193	-0.076249
O7	O	1.667839	-0.176387	-0.076256
Cu8	Cu	1.485100	-0.184789	-0.090175
Cu9	Cu	1.485102	-0.184803	0.090151
O10	O	1.476704	-0.367529	-0.076241
C11	C	1.255564	-0.191966	-0.000008
C12	C	1.116120	-0.188274	-0.000006
C13	C	0.905610	-0.297337	-0.000003
C14	C	1.036631	-0.300815	0.000003
C15	C	1.064584	-0.072247	-0.000011
C16	C	0.933565	-0.068770	-0.000010
C17	C	1.198894	-0.442867	0.053434
C18	C	1.250426	-0.558892	0.053427
C19	C	1.195564	-0.658660	0.000003
C20	C	1.089171	-0.642409	-0.053436
C21	C	1.037645	-0.526383	-0.053437
C22	C	1.092505	-0.426619	0.000009
C23	C	0.771298	0.073275	-0.053449
C24	C	0.719771	0.189302	-0.053456
C25	C	0.774632	0.289081	-0.000038
C26	C	0.881031	0.272842	0.053387
C27	C	0.932558	0.156815	0.053395
C28	C	0.877688	0.057036	-0.000022
C29	C	1.492261	0.044740	-0.000025
C30	C	1.488564	0.184183	-0.000028
C31	C	1.486824	0.249711	-0.083143
C32	C	1.483361	0.380733	-0.083138
C33	C	1.483372	0.380687	0.083104
C34	C	1.486844	0.249668	0.083099
C35	C	1.552061	0.568796	-0.182993
C36	C	1.550300	0.634326	-0.266113
C37	C	1.477959	0.582841	-0.339499
C38	C	1.407350	0.465825	-0.329768
C39	C	1.409100	0.400301	-0.246647
C40	C	1.481470	0.451787	-0.173264
C41	C	1.418133	0.061602	0.182947
C42	C	1.419875	-0.003926	0.266069
C43	C	1.492207	0.047555	0.339463
C44	C	1.562798	0.164572	0.329742
C45	C	1.561057	0.230100	0.246620
C46	C	1.488727	0.178611	0.173226
C47	C	1.714638	-0.177627	-0.000015
C48	C	1.854081	-0.181319	-0.000011
C49	C	1.477938	0.585667	-0.000005
C50	C	1.481628	0.446224	-0.000017
N51	N	1.485104	-0.184804	0.216983
N52	N	1.485108	-0.184778	-0.217007
C53	C	1.569905	-0.100334	0.451982
C54	C	1.569909	-0.100331	0.547964
C55	C	1.400303	-0.269258	0.547986
C56	C	1.400306	-0.269266	0.452007
C57	C	1.485106	-0.184797	0.404007
C58	C	1.485106	-0.184786	0.595968
C59	C	1.485109	-0.184783	0.700035
C60	C	1.485104	-0.184801	0.299934
H61	H	1.237531	-0.753130	-0.000003
H62	H	1.638961	-0.031555	0.587022
Br63	Br	1.394812	-0.580947	0.125948
Br64	Br	0.955502	0.408263	0.125880
Br65	Br	0.575385	0.211350	-0.125978
H66	H	1.618532	0.325389	0.238711
Br67	Br	1.285219	-0.383888	0.613132
Br68	Br	1.475557	0.671785	-0.452299
Br69	Br	0.704714	0.446557	-0.000062
Br70	Br	1.309138	0.395975	-0.429362
Br71	Br	1.660961	0.234453	0.429351
H72	H	1.493563	-0.005779	0.407162
H73	H	0.726618	-0.007969	-0.096951
Br74	Br	1.285223	-0.383912	0.386890
H75	H	1.351639	0.305013	-0.238733
H76	H	1.607797	0.729602	-0.274029
H77	H	0.840897	-0.388982	-0.000002
Br78	Br	1.273332	-0.307481	0.125971
H79	H	1.638956	-0.031556	0.412903
Br80	Br	1.014734	-0.777811	-0.125959
Br81	Br	1.489165	0.160841	-0.195957
H82	H	1.610985	0.610720	-0.123245
H83	H	1.362466	-0.099254	0.273958
H84	H	1.129315	0.019386	-0.000013
H85	H	1.019196	0.143599	0.096900
Br86	Br	1.481043	0.469569	0.195914
Br87	Br	0.893268	-0.504318	-0.125955
Br88	Br	1.319973	-0.008282	0.083335
