data_functionalizedCrystal
_audit_creation_method	'MofGen! by Chris Wilmer'
_symmetry_space_group_name_H-M	'P1'
_symmetry_Int_Tables_number	1
_symmetry_cell_setting	triclinic
loop_
_symmetry_equiv_pos_as_xyz
  x,y,z
_cell_length_a	12.759401
_cell_length_b	12.594516
_cell_length_c	12.759393
_cell_angle_alpha	90.028050
_cell_angle_beta	90.020938
_cell_angle_gamma	90.017577
loop_
_atom_site_label
_atom_site_type_symbol
_atom_site_fract_x
_atom_site_fract_y
_atom_site_fract_z
Zn1	Zn	1.606257	-0.423647	0.594038
Zn2	Zn	2.106257	0.076353	1.094038
Zn3	Zn	1.606143	-0.601663	0.418366
Zn4	Zn	2.106143	-0.101663	0.918366
Zn5	Zn	1.430555	-0.423704	0.418373
Zn6	Zn	1.930555	0.076296	0.918373
Zn7	Zn	1.430543	-0.601589	0.594003
Zn8	Zn	1.930543	-0.101589	1.094003
O9	O	1.518375	-0.512651	0.506195
O10	O	2.018375	-0.012651	1.006195
O11	O	1.753263	-0.447269	0.570746
O12	O	2.253263	0.052731	1.070746
O13	O	1.582809	-0.578111	0.271345
O14	O	2.082809	-0.078111	0.771345
O15	O	1.453915	-0.274751	0.441693
O16	O	1.953915	0.225249	0.941693
O17	O	1.753179	-0.578056	0.441680
O18	O	2.253179	-0.078056	0.941680
O19	O	1.583002	-0.274709	0.570754
O20	O	2.083002	0.225291	1.070754
O21	O	1.453805	-0.447365	0.271351
O22	O	1.953805	0.052635	0.771351
O23	O	1.283533	-0.447293	0.441659
O24	O	1.783533	0.052707	0.941659
O25	O	1.453894	-0.577930	0.741029
O26	O	1.953894	-0.077930	1.241029
O27	O	1.283524	-0.577985	0.570694
O28	O	1.783524	-0.077985	1.070694
O29	O	1.582990	-0.447197	0.741054
O30	O	2.082990	0.052803	1.241054
O31	O	1.582797	-0.750599	0.441646
O32	O	2.082797	-0.250599	0.941646
O33	O	1.453784	-0.750545	0.570686
O34	O	1.953784	-0.250545	1.070686
C35	C	1.245407	-0.512638	0.506174
C36	C	1.745407	-0.012638	1.006174
C37	C	1.128631	-0.512658	0.506190
C38	C	1.628631	-0.012658	1.006190
C39	C	1.073791	-0.580812	0.573272
C40	C	1.573791	-0.080812	1.073272
C41	C	0.964067	-0.580817	0.573293
C42	C	1.464067	-0.080817	1.073293
C43	C	0.964031	-0.444509	0.439140
C44	C	1.464031	0.055491	0.939140
C45	C	1.073753	-0.444500	0.439125
C46	C	1.573753	0.055500	0.939125
C47	C	1.518306	-0.789192	0.506185
C48	C	2.018306	-0.289192	1.006185
C49	C	1.518372	-0.907497	0.506215
C50	C	2.018372	-0.407497	1.006215
C51	C	1.448195	-0.976759	0.576351
C52	C	1.948195	-0.476759	1.076351
C53	C	1.422594	-1.047629	0.480484
C54	C	1.922594	-0.547629	0.980484
C55	C	1.544069	-1.047427	0.602099
C56	C	2.044069	-0.547427	1.102099
C57	C	1.492721	-0.976808	0.410297
C58	C	1.992721	-0.476808	0.910297
C59	C	1.614240	-0.976600	0.531977
C60	C	2.114240	-0.476600	1.031977
C61	C	1.588675	-1.047438	0.436044
C62	C	2.088675	-0.547438	0.936044
C63	C	1.792408	-0.512665	0.506216
C64	C	2.292408	-0.012665	1.006216
C65	C	1.909184	-0.512671	0.506226
C66	C	2.409184	-0.012671	1.006226
C67	C	1.518453	-0.512549	0.780228
C68	C	2.018453	-0.012549	1.280228
C69	C	1.518487	-0.512505	0.897005
C70	C	2.018487	-0.012505	1.397005
C71	C	1.518472	-0.235030	0.506228
C72	C	2.018472	0.264970	1.006228
C73	C	1.518514	-0.116725	0.506242
C74	C	2.018514	0.383275	1.006242
C75	C	1.518357	-0.512676	0.233228
C76	C	2.018357	-0.012676	0.733228
C77	C	1.518527	-0.512420	0.116451
C78	C	2.018527	-0.012420	0.616451
C79	C	1.585712	-0.444422	0.951882
C80	C	2.085712	0.055578	1.451882
C81	C	1.585730	-0.444376	1.061606
C82	C	2.085730	0.055624	1.561606
C83	C	1.451294	-0.580506	1.061567
C84	C	1.951294	-0.080506	1.561567
C85	C	1.451272	-0.580546	0.951844
C86	C	1.951272	-0.080546	1.451844
H87	H	1.118405	-0.388994	0.384499
H88	H	1.618405	0.111006	0.884499
H89	H	1.640470	-0.388934	1.106282
H90	H	2.140470	0.111066	1.606282
H91	H	1.648082	-1.078276	0.376676
H92	H	2.148082	-0.578276	0.876676
H93	H	1.388743	-0.945724	0.635576
H94	H	1.888743	-0.445724	1.135576
H95	H	1.396572	-0.635905	1.106230
H96	H	1.896572	-0.135905	1.606230
H97	H	1.565747	-1.078448	0.683176
H98	H	2.065747	-0.578448	1.183176
H99	H	1.695229	-0.945381	0.553791
H100	H	2.195229	-0.445381	1.053791
Br101	Br	1.360021	-0.672942	0.877361
Br102	Br	1.860021	-0.172942	1.377361
H103	H	1.341587	-1.078851	0.458716
H104	H	1.841587	-0.578851	0.958716
H105	H	0.919422	-0.636313	0.627920
H106	H	1.419422	-0.136313	1.127920
Br107	Br	1.456439	-0.925328	0.275123
Br108	Br	1.956439	-0.425328	0.775123
Br109	Br	1.148265	-0.673309	0.664290
Br110	Br	1.648265	-0.173309	1.164290
H111	H	0.919337	-0.389018	0.384537
H112	H	1.419337	0.110982	0.884537
Br113	Br	1.676929	-0.352079	0.877460
Br114	Br	2.176929	0.147921	1.377460
