data_functionalizedCrystal
_audit_creation_method	'MofGen! by Chris Wilmer'
_symmetry_space_group_name_H-M	'P1'
_symmetry_Int_Tables_number	1
_symmetry_cell_setting	triclinic
loop_
_symmetry_equiv_pos_as_xyz
  x,y,z
_cell_length_a	14.044220
_cell_length_b	12.811442
_cell_length_c	12.503552
_cell_angle_alpha	88.119432
_cell_angle_beta	86.160109
_cell_angle_gamma	88.597742
loop_
_atom_site_label
_atom_site_type_symbol
_atom_site_fract_x
_atom_site_fract_y
_atom_site_fract_z
O1	O	1.265619	0.246098	-0.113171
O2	O	1.765619	0.746098	0.386829
O3	O	0.989561	0.237017	-0.112314
O4	O	1.489561	0.737017	0.387686
O5	O	1.133630	0.090332	-0.098009
O6	O	1.633630	0.590332	0.401991
O7	O	1.121550	0.392783	-0.127477
O8	O	1.621550	0.892783	0.372523
O9	O	1.122782	0.101373	0.079557
O10	O	1.622782	0.601373	0.579557
O11	O	0.978713	0.248058	0.065252
O12	O	1.478713	0.748058	0.565252
O13	O	1.254771	0.257139	0.064394
O14	O	1.754771	0.757139	0.564394
Cu15	Cu	1.115752	0.253606	0.081036
Cu16	Cu	1.615752	0.753606	0.581036
Cu17	Cu	1.128580	0.240549	-0.128956
Cu18	Cu	1.628580	0.740549	0.371044
O19	O	1.110703	0.403824	0.050089
O20	O	1.610703	0.903824	0.550089
C21	C	1.127195	0.056911	-0.005434
C22	C	1.627195	0.556911	0.494566
C23	C	1.124172	-0.059122	0.005863
C24	C	1.624172	0.440878	0.505863
C25	C	0.948783	0.238563	-0.023148
C26	C	1.448783	0.738563	0.476852
C27	C	0.843440	0.226707	-0.022003
C28	C	1.343440	0.726707	0.477997
C29	C	1.114002	-0.216650	0.118576
C30	C	1.614002	0.283350	0.618576
C31	C	1.116839	-0.107626	0.107963
C32	C	1.616839	0.392374	0.607963
C33	C	1.128665	-0.119649	-0.085630
C34	C	1.628665	0.380351	0.414370
C35	C	1.125828	-0.228673	-0.075017
C36	C	1.625828	0.271327	0.424983
C37	C	1.118498	-0.277170	0.027089
C38	C	1.618498	0.222830	0.527089
C39	C	1.115668	-0.386196	0.037701
C40	C	1.615668	0.113804	0.537701
C41	C	1.127487	-0.398216	-0.155891
C42	C	1.627487	0.101784	0.344109
C43	C	1.130324	-0.289192	-0.166504
C44	C	1.630324	0.210808	0.333496
C45	C	0.650562	0.205035	-0.019871
C46	C	1.150562	0.705035	0.480129
C47	C	0.593765	0.289116	-0.028058
C48	C	1.093765	0.789116	0.471942
C49	C	0.486441	0.277057	-0.026871
C50	C	0.986441	0.777057	0.473129
C51	C	0.757896	0.217092	-0.021057
C52	C	1.257896	0.717092	0.478943
C53	C	1.295549	0.255593	-0.024774
C54	C	1.795549	0.755593	0.475226
C55	C	1.400892	0.267448	-0.025926
C56	C	1.900892	0.767448	0.474074
C57	C	1.117137	0.437244	-0.042488
C58	C	1.617137	0.937244	0.457512
C59	C	1.120161	0.553277	-0.053793
C60	C	1.620161	1.053277	0.446207
N61	N	1.106736	0.262790	0.228733
N62	N	1.606736	0.762790	0.728733
N63	N	1.137603	0.231358	-0.276652
N64	N	1.637603	0.731358	0.223348
C65	C	1.150861	0.217844	0.505550
C66	C	1.650861	0.717844	1.005550
C67	C	1.093482	0.276300	0.446525
C68	C	1.593482	0.776300	0.946525
C69	C	1.100858	0.268781	0.325334
C70	C	1.600858	0.768781	0.825334
C71	C	1.143486	0.225362	0.626751
C72	C	1.643486	0.725362	1.126751
H73	H	1.109701	-0.425680	0.120841
H74	H	1.609701	0.074320	0.620841
C75	C	1.224710	0.142618	0.450871
C76	C	1.724710	0.642618	0.950871
H77	H	1.259742	0.106924	0.503840
H78	H	1.759742	0.606924	1.003840
H79	H	1.267205	0.181176	0.403243
H80	H	1.767205	0.681176	0.903243
H81	H	1.192735	0.093332	0.411802
H82	H	1.692735	0.593332	0.911802
H83	H	1.131150	-0.447503	-0.230387
H84	H	1.631150	0.052497	0.269613
H85	H	1.108040	-0.256137	0.201715
H86	H	1.608040	0.243863	0.701715
C87	C	1.138391	-0.235845	-0.278814
C88	C	1.638391	0.264155	0.221186
H89	H	1.140659	-0.287506	-0.331780
H90	H	1.640659	0.212494	0.168220
H91	H	1.194955	-0.196376	-0.286695
H92	H	1.694955	0.303624	0.213305
H93	H	1.084524	-0.190755	-0.287261
H94	H	1.584524	0.309245	0.212739
H95	H	0.625742	0.370156	-0.035959
H96	H	1.125742	0.870156	0.464041
H97	H	1.113169	-0.058355	0.182461
H98	H	1.613169	0.441645	0.682461
H99	H	1.038818	0.331994	0.487009
H100	H	1.538818	0.831994	0.987009
C101	C	0.607371	0.095562	-0.009211
C102	C	1.107371	0.595562	0.490789
H103	H	0.539857	0.101717	-0.009815
H104	H	1.039857	0.601717	0.490185
H105	H	0.624021	0.062558	0.056293
H106	H	1.124021	0.562558	0.556293
H107	H	0.631571	0.054878	-0.067559
H108	H	1.131571	0.554878	0.432441
C109	C	1.136719	-0.066290	-0.197934
C110	C	1.636719	0.433710	0.302066
H111	H	1.137765	0.007308	-0.191147
H112	H	1.637765	0.507308	0.308853
H113	H	1.083471	-0.083817	-0.236244
H114	H	1.583471	0.416183	0.263756
H115	H	1.193903	-0.089431	-0.235692
H116	H	1.693903	0.410569	0.264308
