data_functionalizedCrystal
_audit_creation_method	'MofGen! by Chris Wilmer'
_symmetry_space_group_name_H-M	'P1'
_symmetry_Int_Tables_number	1
_symmetry_cell_setting	triclinic
loop_
_symmetry_equiv_pos_as_xyz
  x,y,z
_cell_length_a	11.792254
_cell_length_b	11.792241
_cell_length_c	16.776229
_cell_angle_alpha	89.993219
_cell_angle_beta	89.992926
_cell_angle_gamma	84.196007
loop_
_atom_site_label
_atom_site_type_symbol
_atom_site_fract_x
_atom_site_fract_y
_atom_site_fract_z
O1	O	1.506904	0.155639	-0.066288
O2	O	2.006904	0.655639	0.433712
O3	O	1.176565	0.171657	-0.066290
O4	O	1.676565	0.671657	0.433710
O5	O	1.349751	-0.001522	-0.066283
O6	O	1.849751	0.498478	0.433717
O7	O	1.333718	0.328818	-0.066294
O8	O	1.833718	0.828818	0.433706
O9	O	1.349728	-0.001533	0.066293
O10	O	1.849728	0.498467	0.566293
O11	O	1.176542	0.171646	0.066287
O12	O	1.676542	0.671646	0.566287
O13	O	1.506881	0.155628	0.066289
O14	O	2.006881	0.655628	0.566289
Zn15	Zn	1.341708	0.163635	0.087337
Zn16	Zn	1.841708	0.663635	0.587337
Zn17	Zn	1.341738	0.163650	-0.087338
Zn18	Zn	1.841738	0.663650	0.412662
O19	O	1.333695	0.328807	0.066282
O20	O	1.833695	0.828807	0.566282
C21	C	1.134263	0.170642	-0.000002
C22	C	1.634263	0.670642	0.499998
C23	C	1.008250	0.167622	-0.000002
C24	C	1.508250	0.667622	0.499998
C25	C	1.348732	-0.043819	0.000005
C26	C	1.848732	0.456181	0.500005
C27	C	1.345718	-0.169832	0.000004
C28	C	1.845718	0.330168	0.500004
C29	C	0.905913	0.165168	-0.000005
C30	C	1.405913	0.665168	0.499995
C31	C	0.777527	0.162100	-0.000006
C32	C	1.277527	0.662100	0.499994
C33	C	1.340175	-0.400545	-0.000009
C34	C	1.840175	0.099455	0.499991
C35	C	1.343255	-0.272160	-0.000002
C36	C	1.843255	0.227840	0.499998
C37	C	1.549183	0.156643	-0.000001
C38	C	2.049183	0.656643	0.499999
C39	C	1.675196	0.159663	-0.000006
C40	C	2.175196	0.659663	0.499994
C41	C	1.334714	0.371104	-0.000008
C42	C	1.834714	0.871104	0.499992
C43	C	1.337728	0.497118	-0.000012
C44	C	1.837728	0.997118	0.499988
N45	N	1.341695	0.163625	0.206548
N46	N	1.841695	0.663625	0.706548
N47	N	1.341760	0.163651	-0.206549
N48	N	1.841760	0.663651	0.293451
C49	C	1.418406	0.086973	0.248268
C50	C	1.918406	0.586973	0.748268
C51	C	1.418412	0.086972	0.331721
C52	C	1.918412	0.586972	0.831721
C53	C	1.341712	0.163629	0.373451
C54	C	1.841712	0.663629	0.873451
C55	C	1.264994	0.240285	0.331725
C56	C	1.764994	0.740285	0.831725
C57	C	1.264983	0.240280	0.248275
C58	C	1.764983	0.740280	0.748275
C59	C	1.265035	0.240308	0.668273
C60	C	1.765035	0.740308	1.168273
C61	C	1.265054	0.240309	0.751729
C62	C	1.765054	0.740309	1.251729
C63	C	1.418464	0.087000	0.751718
C64	C	1.918464	0.587000	1.251718
C65	C	1.418453	0.086995	0.668268
C66	C	1.918453	0.586995	1.168268
C67	C	1.341731	0.163646	0.626549
C68	C	1.841731	0.663646	1.126549
C69	C	1.341724	0.163644	0.536061
C70	C	1.841724	0.663644	1.036061
C71	C	1.341724	0.163637	0.463938
C72	C	1.841724	0.663637	0.963938
H73	H	1.480868	0.024555	0.214297
H74	H	1.980868	0.524555	0.714297
H75	H	1.202592	0.302735	0.785705
H76	H	1.702592	0.802735	1.285705
C77	C	1.180606	0.324601	0.202383
C78	C	1.680606	0.824601	0.702383
H79	H	1.134935	0.370264	0.239187
H80	H	1.634935	0.870264	0.739187
H81	H	1.133108	0.283449	0.169840
H82	H	1.633108	0.783449	0.669840
H83	H	1.221725	0.372128	0.169818
H84	H	1.721725	0.872128	0.669818
C85	C	1.502804	0.002666	0.377609
C86	C	2.002804	0.502666	0.877609
H87	H	1.548494	-0.042977	0.340804
H88	H	2.048494	0.457023	0.840804
H89	H	1.461706	-0.044866	0.410177
H90	H	1.961706	0.455134	0.910177
H91	H	1.550300	0.043836	0.410148
H92	H	2.050300	0.543836	0.910148
C93	C	1.502819	0.002669	0.622368
C94	C	2.002819	0.502669	1.122368
H95	H	1.548499	-0.042992	0.659168
H96	H	2.048499	0.457008	1.159168
H97	H	1.550308	0.043813	0.589799
H98	H	2.050308	0.543813	1.089799
H99	H	1.461686	-0.044861	0.589829
H100	H	1.961686	0.455139	1.089829
C101	C	1.180654	0.324629	0.622393
C102	C	1.680654	0.824629	1.122393
H103	H	1.134988	0.370291	0.659200
H104	H	1.634988	0.870291	1.159200
H105	H	1.133151	0.283483	0.589851
H106	H	1.633151	0.783483	1.089851
H107	H	1.221772	0.372158	0.589828
H108	H	1.721772	0.872158	1.089828
C109	C	1.502847	0.002673	0.797611
C110	C	2.002847	0.502673	1.297611
H111	H	1.491864	0.013641	0.853288
H112	H	1.991864	0.513641	1.353288
H113	H	1.578666	0.015513	0.783922
H114	H	2.078666	0.515513	1.283922
H115	H	1.490050	-0.073166	0.783941
H116	H	1.990050	0.426834	1.283941
H117	H	1.202538	0.302697	0.365707
H118	H	1.702538	0.802697	0.865707
