data_functionalizedCrystal
_audit_creation_method	'MofGen! by Chris Wilmer'
_symmetry_space_group_name_H-M	'P1'
_symmetry_Int_Tables_number	1
_symmetry_cell_setting	triclinic
loop_
_symmetry_equiv_pos_as_xyz
  x,y,z
_cell_length_a	16.992701
_cell_length_b	10.723023
_cell_length_c	16.053802
_cell_angle_alpha	92.591082
_cell_angle_beta	87.243340
_cell_angle_gamma	87.567359
loop_
_atom_site_label
_atom_site_type_symbol
_atom_site_fract_x
_atom_site_fract_y
_atom_site_fract_z
O1	O	1.045096	0.259790	-0.069432
O2	O	0.816796	0.256889	-0.069433
O3	O	0.936212	0.077217	-0.069429
O4	O	0.925680	0.439462	-0.069436
O5	O	0.929639	0.087063	0.069430
O6	O	0.810222	0.266735	0.069426
O7	O	1.038523	0.269636	0.069426
Zn8	Zn	0.923329	0.269749	0.091473
Zn9	Zn	0.931990	0.256776	-0.091479
O10	O	0.919106	0.449308	0.069423
C11	C	0.784276	0.258076	-0.000004
C12	C	0.697172	0.246930	-0.000004
C13	C	0.207810	0.172036	-0.000005
C14	C	0.289652	0.182519	-0.000000
C15	C	0.321831	0.300562	-0.000006
C16	C	0.272161	0.408130	-0.000009
C17	C	0.190320	0.397646	-0.000008
C18	C	0.565661	0.344013	-0.000005
C19	C	0.647509	0.354489	-0.000009
C20	C	0.664995	0.128877	0.000001
C21	C	0.583151	0.118403	-0.000002
C22	C	0.533489	0.225971	-0.000000
N23	N	0.405487	0.311280	-0.000004
N24	N	0.449834	0.215252	0.000003
C25	C	0.932159	0.035574	-0.000001
C26	C	0.929866	-0.103178	-0.000003
C27	C	0.932250	-0.170132	-0.071938
C28	C	0.929880	-0.313539	-0.071942
C29	C	1.071043	0.268449	-0.000005
C30	C	1.158147	0.279595	-0.000010
C31	C	0.923159	0.490951	-0.000008
C32	C	0.925453	0.629702	-0.000010
N33	N	0.917424	0.278602	0.216333
N34	N	0.937901	0.247914	-0.216340
C35	C	0.968255	0.202182	0.260028
C36	C	0.964132	0.208388	0.347435
C37	C	0.909181	0.291021	0.391145
C38	C	0.858345	0.367444	0.347443
C39	C	0.862465	0.361231	0.260038
C40	C	0.891184	0.318124	0.652554
C41	C	0.887070	0.324333	0.739965
C42	C	0.992856	0.165275	0.739951
C43	C	0.996975	0.159075	0.652544
C44	C	0.946136	0.235493	0.608850
N45	N	0.904967	0.297369	0.480488
N46	N	0.950347	0.229138	0.519508
H47	H	0.181617	0.075912	-0.000006
H48	H	1.041720	0.091789	0.616958
C49	C	0.622008	0.576456	-0.000004
C50	C	0.682880	0.484253	-0.000010
H51	H	0.643847	0.656561	-0.000001
H52	H	0.592741	0.564248	-0.048422
H53	H	0.588160	0.571103	0.048425
H54	H	0.716726	0.489600	-0.048442
H55	H	0.712161	0.496466	0.048413
C56	C	0.750377	0.385860	0.766924
C57	C	0.826657	0.415152	0.788020
H58	H	0.713084	0.441918	0.796597
H59	H	0.745552	0.393112	0.708624
H60	H	0.740759	0.302687	0.781258
H61	H	0.836277	0.498322	0.773680
H62	H	0.831484	0.407911	0.846332
H63	H	1.013005	0.134900	0.224446
H64	H	0.298367	0.504244	-0.000009
H65	H	0.936041	-0.121285	-0.133520
H66	H	0.926067	-0.152024	0.061579
H67	H	0.330085	0.094932	0.000007
H68	H	0.849791	0.380349	0.616985
H69	H	0.931920	-0.371100	-0.133527
H70	H	0.813599	0.434721	0.383036
H71	H	0.821072	0.423458	0.224462
H72	H	0.556958	0.022280	0.000002
H73	H	0.705438	0.041302	0.000001
H74	H	0.149884	0.485232	-0.000009
C75	C	0.466869	0.458042	-0.071398
C76	C	0.511082	0.462252	-0.000017
H77	H	0.433169	0.531040	-0.071404
H78	H	0.501453	0.453997	-0.119811
H79	H	0.435990	0.386242	-0.071380
H80	H	0.541965	0.534047	-0.000038
H81	H	0.476493	0.466309	0.048409
H82	H	1.005522	0.146160	0.383012
H83	H	0.923420	-0.312746	0.061578
H84	H	1.034246	0.103058	0.775535
