data_functionalizedCrystal
_audit_creation_method	'MofGen! by Chris Wilmer'
_symmetry_space_group_name_H-M	'P1'
_symmetry_Int_Tables_number	1
_symmetry_cell_setting	triclinic
loop_
_symmetry_equiv_pos_as_xyz
  x,y,z
_cell_length_a	25.639239
_cell_length_b	17.077404
_cell_length_c	17.077396
_cell_angle_alpha	90.019501
_cell_angle_beta	90.031074
_cell_angle_gamma	90.038911
loop_
_atom_site_label
_atom_site_type_symbol
_atom_site_fract_x
_atom_site_fract_y
_atom_site_fract_z
Zn1	Zn	0.208148	-1.199968	-0.443829
Zn2	Zn	0.708148	-0.699968	0.056171
Zn3	Zn	0.295585	-1.199839	-0.312557
Zn4	Zn	0.795585	-0.699839	0.187443
Zn5	Zn	0.208166	-1.068700	-0.312576
Zn6	Zn	0.708166	-0.568700	0.187424
Zn7	Zn	0.295554	-1.068632	-0.443780
Zn8	Zn	0.795554	-0.568632	0.056220
O9	O	0.251863	-1.134285	-0.378185
O10	O	0.751863	-0.634285	0.121815
O11	O	0.219752	-1.309798	-0.426427
O12	O	0.719752	-0.809798	0.073573
O13	O	0.284010	-1.182418	-0.202712
O14	O	0.784010	-0.682418	0.297288
O15	O	0.134998	-1.086196	-0.330016
O16	O	0.634998	-0.586196	0.169984
O17	O	0.283992	-1.309703	-0.329982
O18	O	0.783992	-0.809703	0.170018
O19	O	0.134985	-1.182638	-0.426446
O20	O	0.634985	-0.682638	0.073554
O21	O	0.219783	-1.086071	-0.202727
O22	O	0.719783	-0.586071	0.297273
O23	O	0.219753	-0.958844	-0.329969
O24	O	0.719753	-0.458844	0.170031
O25	O	0.283939	-1.086080	-0.553634
O26	O	0.783939	-0.586080	-0.053634
O27	O	0.283957	-0.958794	-0.426364
O28	O	0.783957	-0.458794	0.073636
O29	O	0.219722	-1.182572	-0.553669
O30	O	0.719722	-0.682572	-0.053669
O31	O	0.368746	-1.182352	-0.329935
O32	O	0.868746	-0.682352	0.170065
O33	O	0.368724	-1.085954	-0.426345
O34	O	0.868724	-0.585954	0.073655
C35	C	0.387706	-1.134153	-0.378150
C36	C	0.887706	-0.634153	0.121850
C37	C	0.445820	-1.134168	-0.378160
C38	C	0.945820	-0.634168	0.121840
C39	C	0.251854	-0.930337	-0.378164
C40	C	0.751854	-0.430337	0.121836
C41	C	0.251862	-0.843087	-0.378173
C42	C	0.751862	-0.343087	0.121827
C43	C	0.115490	-1.134439	-0.378239
C44	C	0.615490	-0.634439	0.121761
C45	C	0.057376	-1.134505	-0.378261
C46	C	0.557376	-0.634505	0.121739
C47	C	0.806182	-1.184610	-0.328071
C48	C	1.306182	-0.684610	0.171929
C49	C	0.860787	-1.184641	-0.328081
C50	C	1.360787	-0.684641	0.171919
O51	O	0.889023	-1.227391	-0.285454
O52	O	1.389023	-0.727391	0.214546
N53	N	0.888102	-1.134423	-0.378237
N54	N	1.388102	-0.634423	0.121763
C55	C	0.860811	-1.084177	-0.428392
C56	C	1.360811	-0.584177	0.071608
O57	O	0.889059	-1.041467	-0.471056
O58	O	1.389059	-0.541467	0.028944
C59	C	0.806208	-1.084151	-0.428385
C60	C	1.306208	-0.584151	0.071615
C61	C	0.778895	-1.134367	-0.378220
C62	C	1.278895	-0.634367	0.121780
C63	C	0.778869	-1.234822	-0.277910
C64	C	1.278869	-0.734822	0.222090
C65	C	0.724269	-1.234790	-0.277899
C66	C	1.224269	-0.734790	0.222101
C67	C	0.696981	-1.184547	-0.328048
C68	C	1.196981	-0.684547	0.171952
C69	C	0.724294	-1.134335	-0.378209
C70	C	1.224294	-0.634335	0.121791
C71	C	0.778917	-1.033910	-0.478543
C72	C	1.278917	-0.533910	0.021457
C73	C	0.724310	-1.033889	-0.478532
C74	C	1.224310	-0.533889	0.021468
C75	C	0.696997	-1.084104	-0.428367
C76	C	1.196997	-0.584104	0.071633
C77	C	0.642406	-1.084060	-0.428346
C78	C	1.142406	-0.584060	0.071654
N79	N	0.615090	-1.134278	-0.378190
N80	N	1.115090	-0.634278	0.121810
C81	C	0.642378	-1.184521	-0.328041
C82	C	1.142378	-0.684521	0.171959
C83	C	0.975482	-1.084236	-0.428404
C84	C	1.475482	-0.584236	0.071596
C85	C	1.030084	-1.084258	-0.428408
C86	C	1.530084	-0.584258	0.071592
C87	C	1.030056	-1.184722	-0.328098
C88	C	1.530056	-0.684722	0.171902
C89	C	0.975452	-1.184696	-0.328091
C90	C	1.475452	-0.684696	0.171909
C91	C	0.948166	-1.134454	-0.378248
C92	C	1.448166	-0.634454	0.121752
C93	C	0.527713	-1.184450	-0.328020
C94	C	1.027713	-0.684450	0.171980
C95	C	0.473107	-1.184412	-0.328011
C96	C	0.973107	-0.684412	0.171989
C97	C	0.473140	-1.083951	-0.428324
C98	C	0.973140	-0.583951	0.071676
C99	C	0.527741	-1.083986	-0.428331
C100	C	1.027741	-0.583986	0.071669
C101	C	0.555026	-1.134242	-0.378176
C102	C	1.055026	-0.634242	0.121824
O103	O	0.614135	-1.041334	-0.470954
O104	O	1.114135	-0.541334	0.029046
O105	O	0.614123	-1.227232	-0.285392
O106	O	1.114123	-0.727232	0.214608
C107	C	0.251825	-1.134333	-0.582930
C108	C	0.751825	-0.634333	-0.082930
C109	C	0.251808	-1.134353	-0.670180
C110	C	0.751808	-0.634353	-0.170180
C111	C	0.251873	-1.339029	-0.378208
C112	C	0.751873	-0.839029	0.121792
C113	C	0.251877	-1.426279	-0.378217
C114	C	0.751877	-0.926279	0.121783
C115	C	0.285344	-0.802092	-0.428285
C116	C	0.785344	-0.302092	0.071715
C117	C	0.285345	-0.720111	-0.428298
C118	C	0.785345	-0.220111	0.071702
C119	C	0.251867	-0.679128	-0.378194
C120	C	0.751867	-0.179128	0.121806
C121	C	0.218382	-0.720129	-0.328079
C122	C	0.718382	-0.220129	0.171921
C123	C	0.218378	-0.802108	-0.328071
C124	C	0.718378	-0.302108	0.171929
C125	C	0.218392	-0.549259	-0.328098
C126	C	0.718392	-0.049259	0.171902
C127	C	0.218396	-0.467275	-0.328105
C128	C	0.718396	0.032725	0.171895
C129	C	0.285358	-0.467262	-0.428325
C130	C	0.785358	0.032738	0.071675
C131	C	0.285355	-0.549241	-0.428317
C132	C	0.785355	-0.049241	0.071683
C133	C	0.251871	-0.590237	-0.378201
C134	C	0.751871	-0.090237	0.121799
C135	C	0.218368	-1.184598	-0.711190
C136	C	0.718368	-0.684598	-0.211190
C137	C	0.218350	-1.184608	-0.793170
C138	C	0.718350	-0.684608	-0.293170
C139	C	0.251777	-1.134375	-0.834139
C140	C	0.751777	-0.634375	-0.334139
C141	C	0.285219	-1.084124	-0.793123
C142	C	0.785219	-0.584124	-0.293123
C143	C	0.285233	-1.084111	-0.711144
C144	C	0.785233	-0.584111	-0.211144
C145	C	0.285187	-1.084156	-0.963994
C146	C	0.785187	-0.584156	-0.463994
C147	C	0.285174	-1.084169	-1.045978
C148	C	0.785174	-0.584169	-0.545978
C149	C	0.218304	-1.184652	-1.046019
C150	C	0.718304	-0.684652	-0.546019
C151	C	0.218319	-1.184639	-0.964040
C152	C	0.718319	-0.684639	-0.464040
C153	C	0.251762	-1.134389	-0.923030
C154	C	0.751762	-0.634389	-0.423030
C155	C	0.251864	-1.134283	-0.174238
C156	C	0.751864	-0.634283	0.325762
C157	C	0.251733	-1.134415	-0.086988
C158	C	0.751733	-0.634415	0.413012
H159	H	0.549922	-1.225375	-0.287182
H160	H	1.049922	-0.725375	0.212818
H161	H	0.702096	-0.992977	-0.519379
H162	H	1.202096	-0.492977	-0.019379
H163	H	0.312607	-0.835454	-0.469084
H164	H	0.812607	-0.335454	0.030916
O165	O	0.554195	-1.035180	-0.477131
O166	O	1.054195	-0.535180	0.022869
C167	C	0.518399	-0.990812	-0.521375
C168	C	1.018399	-0.490812	-0.021375
H169	H	0.479450	-1.022936	-0.524105
H170	H	0.979450	-0.522936	-0.024105
H171	H	0.534149	-0.982417	-0.583221
H172	H	1.034149	-0.482417	-0.083221
H173	H	0.512651	-0.931205	-0.492576
H174	H	1.012651	-0.431205	0.007424
H175	H	0.702034	-1.275682	-0.237052
H176	H	1.202034	-0.775682	0.262948
O177	O	0.446519	-1.233233	-0.279389
O178	O	0.946519	-0.733233	0.220611
C179	C	0.414887	-1.283904	-0.324118
C180	C	0.914887	-0.783904	0.175882
H181	H	0.406697	-1.256180	-0.383578
H182	H	0.906697	-0.756180	0.116422
H183	H	0.376499	-1.294423	-0.292143
H184	H	0.876499	-0.794423	0.207857
H185	H	0.435888	-1.342081	-0.332803
H186	H	0.935888	-0.842081	0.167197
H187	H	1.052318	-1.043360	-0.469250
H188	H	1.552318	-0.543360	0.030750
H189	H	0.191121	-0.686754	-0.287287
H190	H	0.691121	-0.186754	0.212713
H191	H	0.953217	-1.225586	-0.287242
H192	H	1.453217	-0.725586	0.212758
O193	O	0.185925	-0.589051	-0.279300
O194	O	0.685925	-0.089051	0.220700
C195	C	0.197283	-0.568958	-0.201039
C196	C	0.697283	-0.068958	0.298961
H197	H	0.239048	-0.546376	-0.196972
H198	H	0.739048	-0.046376	0.303028
H199	H	0.192751	-0.622858	-0.162264
H200	H	0.692751	-0.122858	0.337736
H201	H	0.169235	-0.521393	-0.180596
H202	H	0.669235	-0.021393	0.319404
O203	O	0.446602	-1.035263	-0.477122
O204	O	0.946602	-0.535263	0.022878
C205	C	0.414956	-1.079923	-0.527832
C206	C	0.914956	-0.579923	-0.027832
H207	H	0.431374	-1.141750	-0.532735
H208	H	0.931374	-0.641750	-0.032735
H209	H	0.414322	-1.051506	-0.588220
H210	H	0.914322	-0.551506	-0.088220
H211	H	0.373585	-1.082627	-0.503550
H212	H	0.873585	-0.582627	-0.003550
O213	O	0.317802	-0.589138	-0.477027
O214	O	0.817802	-0.089138	0.022973
C215	C	0.288072	-0.636592	-0.527814
C216	C	0.788072	-0.136592	-0.027814
H217	H	0.248426	-0.648894	-0.500233
H218	H	0.748426	-0.148894	-0.000233
H219	H	0.309373	-0.694226	-0.538271
H220	H	0.809373	-0.194226	-0.038271
H221	H	0.282378	-0.605028	-0.586005
H222	H	0.782378	-0.105028	-0.086005
H223	H	0.312609	-0.686736	-0.469104
H224	H	0.812609	-0.186736	0.030896
O225	O	0.185841	-0.841813	-0.279313
O226	O	0.685841	-0.341813	0.220687
C227	C	0.156285	-0.788063	-0.235103
C228	C	0.656285	-0.288063	0.264897
H229	H	0.177700	-0.729604	-0.232334
H230	H	0.677700	-0.229604	0.267666
H231	H	0.150656	-0.811727	-0.173268
H232	H	0.650656	-0.311727	0.326732
H233	H	0.116600	-0.779395	-0.263955
H234	H	0.616600	-0.279395	0.236045
O235	O	1.056487	-1.233561	-0.279312
O236	O	1.556487	-0.733561	0.220688
C237	C	1.020676	-1.277898	-0.235049
C238	C	1.520676	-0.777898	0.264951
H239	H	0.981774	-1.245731	-0.232285
H240	H	1.481774	-0.745731	0.267715
H241	H	1.036479	-1.286319	-0.173216
H242	H	1.536479	-0.786319	0.326784
H243	H	1.014816	-1.337493	-0.263853
H244	H	1.514816	-0.837493	0.236147
H245	H	0.801081	-1.275740	-0.237072
H246	H	1.301081	-0.775740	0.262928
O247	O	0.185937	-1.233448	-0.833099
O248	O	0.685937	-0.733448	-0.333099
C249	C	0.215695	-1.284130	-0.880511
C250	C	0.715695	-0.784130	-0.380511
H251	H	0.255316	-1.256406	-0.892767
H252	H	0.755316	-0.756406	-0.392767
H253	H	0.194387	-1.294670	-0.938170
H254	H	0.694387	-0.794670	-0.438170
H255	H	0.221444	-1.342297	-0.848935
H256	H	0.721444	-0.842297	-0.348935
H257	H	0.312459	-1.043188	-0.677755
H258	H	0.812459	-0.543188	-0.177755
O259	O	0.317565	-1.035323	-1.085858
O260	O	0.817565	-0.535323	-0.585858
C261	C	0.287776	-0.984661	-1.133262
C262	C	0.787776	-0.484661	-0.633262
H263	H	0.248157	-1.012409	-1.145566
H264	H	0.748157	-0.512409	-0.645566
H265	H	0.309059	-0.974113	-1.190899
H266	H	0.809059	-0.474113	-0.690899
H267	H	0.282023	-0.926495	-1.101656
H268	H	0.782023	-0.426495	-0.601656
O269	O	0.949058	-1.035346	-0.477149
O270	O	1.449058	-0.535346	0.022851
C271	C	0.984882	-0.991048	-0.521428
C272	C	1.484882	-0.491048	-0.021428
H273	H	1.023819	-0.988375	-0.489273
H274	H	1.523819	-0.488375	0.010727
H275	H	0.969148	-0.929185	-0.529743
H276	H	1.469148	-0.429185	-0.029743
H277	H	0.990646	-1.019761	-0.581073
H278	H	1.490646	-0.519761	-0.081073
H279	H	0.312621	-0.433879	-0.469133
H280	H	0.812621	0.066121	0.030867
H281	H	0.191129	-0.433908	-0.287315
H282	H	0.691129	0.066092	0.212685
O283	O	0.185848	-1.233420	-0.671517
O284	O	0.685848	-0.733420	-0.171517
C285	C	0.156337	-1.277782	-0.725297
C286	C	0.656337	-0.777782	-0.225297
H287	H	0.154516	-1.245640	-0.783729
H288	H	0.654516	-0.745640	-0.283729
H289	H	0.115147	-1.286198	-0.701631
H290	H	0.615147	-0.786198	-0.201631
H291	H	0.175484	-1.337380	-0.734020
H292	H	0.675484	-0.837380	-0.234020
O293	O	0.805465	-0.985054	-0.527168
O294	O	1.305465	-0.485054	-0.027168
C295	C	0.837118	-0.934398	-0.482456
C296	C	1.337118	-0.434398	0.017544
H297	H	0.820700	-0.929564	-0.420621
H298	H	1.320700	-0.429564	0.079379
H299	H	0.837761	-0.873978	-0.510804
H300	H	1.337761	-0.373978	-0.010804
H301	H	0.878486	-0.958687	-0.479787
H302	H	1.378486	-0.458687	0.020213
H303	H	0.191103	-1.225547	-0.930685
H304	H	0.691103	-0.725547	-0.430685
H305	H	0.191073	-1.225566	-1.079414
H306	H	0.691073	-0.725566	-0.579414
H307	H	0.312412	-1.043225	-0.930606
H308	H	0.812412	-0.543225	-0.430606
H309	H	0.312433	-1.043221	-0.826487
H310	H	0.812433	-0.543221	-0.326487
