data_functionalizedCrystal
_audit_creation_method	'MofGen! by Chris Wilmer'
_symmetry_space_group_name_H-M	'P1'
_symmetry_Int_Tables_number	1
_symmetry_cell_setting	triclinic
loop_
_symmetry_equiv_pos_as_xyz
  x,y,z
_cell_length_a	16.974800
_cell_length_b	10.723024
_cell_length_c	16.053934
_cell_angle_alpha	87.402214
_cell_angle_beta	96.214647
_cell_angle_gamma	83.927745
loop_
_atom_site_label
_atom_site_type_symbol
_atom_site_fract_x
_atom_site_fract_y
_atom_site_fract_z
O1	O	1.050084	0.158832	0.001551
O2	O	1.383418	0.492165	0.334885
O3	O	1.716751	0.825498	0.668218
O4	O	0.819246	0.180290	-0.014053
O5	O	1.152579	0.513623	0.319280
O6	O	1.485913	0.846957	0.652614
O7	O	0.939990	-0.012124	-0.005888
O8	O	1.273323	0.321209	0.327446
O9	O	1.606657	0.654543	0.660779
O10	O	0.929340	0.351246	-0.006614
O11	O	1.262674	0.684579	0.326720
O12	O	1.596007	1.017912	0.660053
O13	O	0.946600	-0.022678	0.133416
O14	O	1.279933	0.310655	0.466749
O15	O	1.613266	0.643988	0.800082
O16	O	0.825856	0.169736	0.125250
O17	O	1.159189	0.503069	0.458584
O18	O	1.492522	0.836402	0.791917
O19	O	1.056694	0.148277	0.140855
O20	O	1.390028	0.481611	0.474188
O21	O	1.723361	0.814944	0.807521
Zn22	Zn	0.942324	0.157331	0.155170
Zn23	Zn	1.275658	0.490664	0.488503
Zn24	Zn	1.608991	0.823998	0.821837
Zn25	Zn	0.933616	0.171237	-0.028368
Zn26	Zn	1.266949	0.504570	0.304965
Zn27	Zn	1.600282	0.837903	0.638299
O28	O	0.935950	0.340692	0.132690
O29	O	1.269284	0.674025	0.466023
O30	O	1.602617	1.007358	0.799356
C31	C	0.792993	0.174396	0.053601
C32	C	1.126327	0.507729	0.386934
C33	C	1.459660	0.841063	0.720267
C34	C	0.704921	0.172543	0.047647
C35	C	1.038254	0.505877	0.380981
C36	C	1.371588	0.839210	0.714314
C37	C	0.667152	0.165917	0.120786
C38	C	1.000486	0.499250	0.454120
C39	C	1.333819	0.832583	0.787453
C40	C	0.584401	0.164156	0.115195
C41	C	0.917734	0.497489	0.448528
C42	C	1.251067	0.830822	0.781861
C43	C	0.539419	0.169031	0.036463
C44	C	0.872752	0.502364	0.369797
C45	C	1.206085	0.835697	0.703130
C46	C	0.577193	0.175654	-0.036681
C47	C	0.910526	0.508988	0.296652
C48	C	1.243860	0.842321	0.629985
C49	C	0.659944	0.177406	-0.031089
C50	C	0.993277	0.510739	0.302244
C51	C	1.326611	0.844073	0.635578
C52	C	0.291544	0.164400	0.011595
C53	C	0.624877	0.497733	0.344928
C54	C	0.958211	0.831067	0.678262
C55	C	0.208787	0.162651	0.006008
C56	C	0.542121	0.495985	0.339342
C57	C	0.875454	0.829318	0.672675
C58	C	0.216001	0.151151	0.157885
C59	C	0.549334	0.484484	0.491218
C60	C	0.882668	0.817817	0.824552
C61	C	0.298752	0.152910	0.163470
C62	C	0.632086	0.486244	0.496804
C63	C	0.965419	0.819577	0.830137
C64	C	0.336520	0.159527	0.090326
C65	C	0.669854	0.492861	0.423659
C66	C	1.003187	0.826194	0.756993
N67	N	0.454833	0.167235	0.030746
N68	N	0.788166	0.500568	0.364079
N69	N	1.121500	0.833902	0.697413
N70	N	0.421105	0.161314	0.096044
N71	N	0.754439	0.494647	0.429377
N72	N	1.087772	0.827981	0.762711
C73	C	0.942520	-0.063885	0.063711
C74	C	1.275853	0.269448	0.397044
C75	C	1.609186	0.602782	0.730377
C76	C	0.940201	-0.202392	0.063551
C77	C	1.273534	0.130942	0.396884
C78	C	1.606868	0.464275	0.730218
C79	C	1.007763	-0.278751	0.068117
C80	C	1.341096	0.054582	0.401450
C81	C	1.674430	0.387915	0.734783
C82	C	1.005368	-0.421906	0.067952
C83	C	1.338701	-0.088572	0.401285
C84	C	1.672035	0.244761	0.734619
C85	C	1.082947	0.154171	0.073199
C86	C	1.416280	0.487505	0.406533
C87	C	1.749613	0.820838	0.739866
C88	C	1.171019	0.156025	0.079147
C89	C	1.504352	0.489358	0.412481
C90	C	1.837685	0.822691	0.745814
C91	C	0.933420	0.392453	0.063089
C92	C	1.266754	0.725786	0.396423
C93	C	1.600087	1.059119	0.729756
C94	C	0.935739	0.530960	0.063244
C95	C	1.269072	0.864293	0.396577
C96	C	1.602405	1.197626	0.729910
N97	N	0.948274	0.147840	0.280430
N98	N	1.281607	0.481173	0.613764
N99	N	1.614940	0.814506	0.947097
N100	N	0.927673	0.180718	-0.153628
N101	N	1.261006	0.514051	0.179705
N102	N	1.594339	0.847384	0.513039
C103	C	0.896887	0.229682	0.320670
C104	C	1.230220	0.563015	0.654003
C105	C	1.563553	0.896349	0.987336
C106	C	0.901071	0.223037	0.408358
C107	C	1.234405	0.556371	0.741691
C108	C	1.567738	0.889704	1.075024
C109	C	0.956640	0.134544	0.455805
C110	C	1.289973	0.467877	0.789138
C111	C	1.623307	0.801210	1.122471
C112	C	1.008032	0.052697	0.415559
C113	C	1.341366	0.386031	0.748893
C114	C	1.674699	0.719364	1.082226
C115	C	1.003851	0.059349	0.327873
C116	C	1.337184	0.392682	0.661206
C117	C	1.670517	0.726016	0.994540
C118	C	0.974884	0.105523	0.718441
C119	C	1.308217	0.438857	1.051774
C120	C	1.641550	0.772190	1.385107
C121	C	0.979060	0.098875	0.806133
C122	C	1.312393	0.432209	1.139466
C123	C	1.645726	0.765542	1.472799
C124	C	0.872099	0.269218	0.798925
C125	C	1.205433	0.602551	1.132258
C126	C	1.538766	0.935884	1.465592
C127	C	0.867920	0.275856	0.711237
C128	C	1.201253	0.609190	1.044571
C129	C	1.534586	0.942523	1.377904
C130	C	0.919315	0.194015	0.671000
C131	C	1.252648	0.527348	1.004333
C132	C	1.585981	0.860681	1.337666
N133	N	0.960917	0.127747	0.545436
N134	N	1.294250	0.461080	0.878769
N135	N	1.627584	0.794414	1.212102
N136	N	0.915041	0.200818	0.581370
N137	N	1.248374	0.534152	0.914704
N138	N	1.581708	0.867485	1.248037
H139	H	0.553655	0.158739	0.174753
H140	H	0.886989	0.492072	0.508086
H141	H	1.220322	0.825405	0.841419
H142	H	0.880586	-0.242998	0.059516
H143	H	1.213919	0.090335	0.392849
H144	H	1.547252	0.423668	0.726182
H145	H	1.016730	0.038882	0.685686
H146	H	1.350064	0.372216	1.019019
H147	H	1.683397	0.705549	1.352353
H148	H	0.335372	0.148935	0.227582
H149	H	0.668706	0.482268	0.560915
H150	H	1.002039	0.815601	0.894249
H151	H	1.053281	-0.019352	0.454196
H152	H	1.386615	0.313981	0.787529
H153	H	1.719948	0.647314	1.120862
H154	H	0.859229	0.289681	0.441120
H155	H	1.192562	0.623014	0.774454
H156	H	1.525895	0.956347	1.107787
H157	H	0.822671	0.347915	0.672608
H158	H	1.156005	0.681248	1.005941
H159	H	1.489338	1.014582	1.339274
H160	H	0.830257	0.335851	0.831695
H161	H	1.163590	0.669184	1.165028
H162	H	1.496923	1.002517	1.498361
H163	H	0.851634	0.301738	0.282044
H164	H	1.184967	0.635071	0.615377
H165	H	1.518300	0.968405	0.948710
H166	H	0.185242	0.145761	0.217435
H167	H	0.518575	0.479095	0.550768
H168	H	0.851908	0.812428	0.884102
H169	H	1.045696	-0.007294	0.295111
H170	H	1.379030	0.326039	0.628444
H171	H	1.712363	0.659372	0.961778
H172	H	0.690693	0.182805	-0.090647
H173	H	1.024027	0.516138	0.242687
H174	H	1.357360	0.849471	0.576020
H175	H	0.703771	0.161957	0.184898
H176	H	1.037104	0.495291	0.518231
H177	H	1.370437	0.828624	0.851565
H178	H	0.322285	0.169784	-0.047964
H179	H	0.655618	0.503117	0.285369
H180	H	0.988951	0.836450	0.618702
H181	H	0.172164	0.166625	-0.058108
H182	H	0.505498	0.499958	0.275226
H183	H	0.838831	0.833292	0.608559
H184	H	1.067378	-0.238145	0.072152
H185	H	1.400712	0.095189	0.405485
H186	H	1.734045	0.428522	0.738818
H187	H	1.024312	0.026808	0.844760
H188	H	1.357646	0.360141	1.178094
H189	H	1.690979	0.693474	1.511427
H190	H	0.540563	0.179615	-0.100786
H191	H	0.873896	0.512948	0.232547
H192	H	1.207229	0.846281	0.565880
H193	H	1.063206	-0.487517	0.071864
H194	H	1.396540	-0.154184	0.405198
H195	H	1.729873	0.179149	0.738531
H196	H	0.877898	-0.403437	0.059340
H197	H	1.211231	-0.070103	0.392674
H198	H	1.544564	0.263230	0.726007
