data_functionalizedCrystal
_audit_creation_method	'MofGen! by Chris Wilmer'
_symmetry_space_group_name_H-M	'P1'
_symmetry_Int_Tables_number	1
_symmetry_cell_setting	triclinic
loop_
_symmetry_equiv_pos_as_xyz
  x,y,z
_cell_length_a	12.645331
_cell_length_b	12.645330
_cell_length_c	14.908308
_cell_angle_alpha	93.270481
_cell_angle_beta	93.282452
_cell_angle_gamma	90.018103
loop_
_atom_site_label
_atom_site_type_symbol
_atom_site_fract_x
_atom_site_fract_y
_atom_site_fract_z
Zn1	Zn	1.586104	-0.456593	-0.510011
Zn2	Zn	1.596227	-0.623655	-0.359165
Zn3	Zn	1.419059	-0.446409	-0.359181
Zn4	Zn	1.408802	-0.633815	-0.509986
O5	O	1.502548	-0.540118	-0.434586
O6	O	1.735793	-0.478765	-0.490005
O7	O	1.581255	-0.591629	-0.232924
O8	O	1.441274	-0.299414	-0.379206
O9	O	1.743231	-0.601505	-0.379179
O10	O	1.564001	-0.306896	-0.490021
O11	O	1.451090	-0.461407	-0.232936
O12	O	1.269351	-0.471258	-0.379181
O13	O	1.423792	-0.618820	-0.636232
O14	O	1.261815	-0.608944	-0.489977
O15	O	1.554055	-0.488616	-0.636250
O16	O	1.571309	-0.773349	-0.379154
O17	O	1.433608	-0.780813	-0.489962
C18	C	1.227119	-0.540099	-0.434579
C19	C	1.109287	-0.540118	-0.434597
C20	C	1.059707	-0.626870	-0.504197
C21	C	0.937161	-0.627193	-0.503990
C22	C	0.947797	-0.563504	-0.339408
C23	C	1.070367	-0.564110	-0.339811
C24	C	1.062460	-0.429751	-0.459354
C25	C	0.939713	-0.430512	-0.461451
C26	C	1.502471	-0.815547	-0.434573
C27	C	1.502533	-0.933379	-0.434598
C28	C	1.416229	-1.105697	-0.504522
C29	C	1.415827	-0.983122	-0.504297
C30	C	1.478743	-0.971528	-0.339525
C31	C	1.478216	-1.094155	-0.339950
C32	C	1.613179	-1.102120	-0.458975
C33	C	1.612350	-0.979654	-0.461054
C34	C	1.779052	-0.540138	-0.434593
C35	C	1.896882	-0.540146	-0.434596
C36	C	1.486650	-0.555988	-0.669889
C37	C	1.479875	-0.562750	-0.770162
C38	C	1.502652	-0.263615	-0.434618
C39	C	1.502697	-0.145786	-0.434632
C40	C	1.602784	-0.439852	-0.958606
C41	C	1.596422	-0.446202	-1.052821
C42	C	1.460784	-0.581795	-1.052808
C43	C	1.467146	-0.575445	-0.958593
C44	C	1.538150	-0.504472	-0.911496
C45	C	1.544516	-0.498128	-0.817279
C46	C	1.408874	-0.633715	-0.817268
C47	C	1.402511	-0.640065	-0.911483
C48	C	1.518445	-0.524234	-0.200197
C49	C	1.525425	-0.517173	-0.099925
H50	H	1.429964	-0.957747	-0.574793
H51	H	1.402976	-0.639577	-1.091172
N52	N	1.666143	-0.376503	-1.103624
H53	H	1.712619	-0.422217	-1.142710
H54	H	1.620369	-0.330018	-1.142665
N55	N	1.325931	-0.716618	-0.962272
H56	H	1.251303	-0.699047	-0.945869
H57	H	1.331786	-0.710811	-1.029092
N58	N	0.891008	-0.607891	-0.597268
H59	H	0.950270	-0.599207	-0.638913
H60	H	0.844898	-0.669925	-0.620392
N61	N	1.092403	-0.608865	-0.597974
H62	H	1.139678	-0.544303	-0.596256
H63	H	1.132094	-0.672843	-0.621753
H64	H	1.094910	-0.365201	-0.408667
N65	N	0.894936	-0.407001	-0.554241
H66	H	0.847105	-0.467108	-0.578788
H67	H	0.852972	-0.339102	-0.550605
N68	N	1.101926	-0.734770	-0.482712
H69	H	1.153029	-0.727701	-0.428090
H70	H	1.041150	-0.782491	-0.470015
N71	N	1.558461	-1.128632	-0.268618
H72	H	1.631163	-1.102758	-0.281972
H73	H	1.539150	-1.097744	-0.207773
H74	H	1.356246	-0.686336	-0.778901
N75	N	1.308224	-1.145186	-0.483440
H76	H	1.307873	-1.225183	-0.486595
H77	H	1.291357	-1.117682	-0.420957
H78	H	0.908918	-0.709113	-0.487565
N79	N	0.903391	-0.341058	-0.399247
H80	H	0.823437	-0.338663	-0.402404
H81	H	0.930373	-0.352941	-0.335548
H82	H	1.430177	-1.139903	-0.575249
H83	H	1.333790	-0.952795	-0.488170
N84	N	1.110097	-0.670697	-0.312091
H85	H	1.047981	-0.716847	-0.299727
H86	H	1.150556	-0.705673	-0.362128
H87	H	1.677521	-1.127657	-0.408071
H88	H	1.399051	-0.939494	-0.318530
H89	H	1.103680	-0.503278	-0.286175
H90	H	1.397645	-1.121449	-0.319327
N91	N	1.621099	-0.421587	-0.766476
H92	H	1.661076	-0.381613	-0.810621
H93	H	1.580603	-0.369894	-0.727389
N94	N	0.914002	-0.482005	-0.268825
H95	H	0.865243	-0.429033	-0.297943
H96	H	0.875620	-0.518392	-0.221551
H97	H	1.540011	-0.938743	-0.286029
N98	N	1.643606	-1.149091	-0.549242
H99	H	1.586072	-1.199160	-0.575272
H100	H	1.652807	-1.090410	-0.591366
H101	H	1.088782	-0.407139	-0.527596
N102	N	0.909017	-0.668887	-0.311216
H103	H	0.942227	-0.683208	-0.249887
H104	H	0.829400	-0.667123	-0.308613
N105	N	1.636272	-0.947315	-0.553732
H106	H	1.638735	-0.867497	-0.553966
H107	H	1.706982	-0.977372	-0.570328
N108	N	1.701493	-0.934812	-0.398536
H109	H	1.689375	-0.953164	-0.334866
H110	H	1.770942	-0.965969	-0.417246
N111	N	1.679372	-0.363320	-0.907800
H112	H	1.719358	-0.323350	-0.951941
H113	H	1.638881	-0.311623	-0.868713
