data_functionalizedCrystal
_audit_creation_method	'MofGen! by Chris Wilmer'
_symmetry_space_group_name_H-M	'P1'
_symmetry_Int_Tables_number	1
_symmetry_cell_setting	triclinic
loop_
_symmetry_equiv_pos_as_xyz
  x,y,z
_cell_length_a	16.109301
_cell_length_b	10.654550
_cell_length_c	15.186229
_cell_angle_alpha	89.997420
_cell_angle_beta	89.999362
_cell_angle_gamma	83.973192
loop_
_atom_site_label
_atom_site_type_symbol
_atom_site_fract_x
_atom_site_fract_y
_atom_site_fract_z
O1	O	1.104090	0.161419	-0.073171
O2	O	0.862148	0.181507	-0.073184
O3	O	0.988682	-0.011352	-0.073174
O4	O	0.977556	0.354278	-0.073181
O5	O	0.988673	-0.011354	0.073283
O6	O	0.862139	0.181505	0.073273
O7	O	1.104082	0.161416	0.073287
Zn8	Zn	0.983109	0.171460	0.096533
Zn9	Zn	0.983120	0.171463	-0.096431
O10	O	0.977548	0.354275	0.073276
C11	C	0.831164	0.180692	0.000043
C12	C	0.738854	0.178253	0.000037
C13	C	0.517228	0.287019	0.000045
C14	C	0.430494	0.284717	0.000051
C15	C	0.449008	0.055896	0.000052
C16	C	0.535741	0.058199	0.000052
C17	C	0.569848	0.173764	0.000045
C18	C	0.396382	0.169159	0.000050
C19	C	0.302341	0.166662	0.000056
C20	C	0.663895	0.176262	0.000040
C21	C	0.987861	-0.058140	0.000054
C22	C	0.985417	-0.197550	0.000050
C23	C	1.059918	-0.278046	0.000057
C24	C	1.057616	-0.409036	0.000051
C25	C	0.906306	-0.379020	0.000035
C26	C	0.908608	-0.248033	0.000035
C27	C	1.136726	-0.227564	0.000073
C28	C	1.211233	-0.308061	0.000081
C29	C	1.208932	-0.439051	0.000075
C30	C	1.132123	-0.489543	0.000061
C31	C	1.135066	0.162231	0.000058
C32	C	1.227376	0.164671	0.000057
C33	C	0.978369	0.401063	0.000047
C34	C	0.980813	0.540473	0.000044
N35	N	0.983108	0.171457	0.228226
N36	N	0.983129	0.171457	-0.228123
C37	C	1.039156	0.086088	0.453953
C38	C	1.039159	0.086085	0.546143
C39	C	0.927074	0.256830	0.546143
C40	C	0.927068	0.256826	0.453955
C41	C	0.983114	0.171456	0.407862
C42	C	0.983122	0.171457	0.592240
C43	C	0.983125	0.171455	0.692196
C44	C	0.983111	0.171457	0.307900
H45	H	0.578586	-0.034032	0.000054
H46	H	0.421227	-0.038193	0.000063
C47	C	0.823002	-0.434080	0.000072
C48	C	0.836932	-0.566022	0.000099
C49	C	0.760211	-0.616785	0.000148
H50	H	0.792231	-0.406587	-0.050989
H51	H	0.792283	-0.406520	0.051164
H52	H	0.867638	-0.593571	-0.050988
H53	H	0.867689	-0.593551	0.051156
H54	H	0.729492	-0.589224	0.051240
H55	H	0.729446	-0.589282	-0.050913
H56	H	0.769652	-0.706312	0.000174
H57	H	0.387654	0.376940	0.000053
H58	H	0.847943	-0.182490	0.000030
H59	H	1.269599	-0.504589	0.000072
C60	C	1.294539	-0.253004	0.000136
C61	C	1.280612	-0.121062	0.000164
C62	C	1.357334	-0.070304	0.000225
H63	H	1.325315	-0.280491	-0.050921
H64	H	1.325250	-0.280574	0.051232
H65	H	1.249914	-0.093503	-0.050926
H66	H	1.249848	-0.093540	0.051217
H67	H	1.388046	-0.097874	0.051321
H68	H	1.388105	-0.097800	-0.050833
H69	H	1.347895	0.019223	0.000252
C70	C	1.100034	-0.006747	0.404068
C71	C	1.149098	-0.081532	0.464169
C72	C	1.205179	-0.167081	0.418251
H73	H	1.134980	0.038291	0.368097
H74	H	1.069844	-0.059106	0.368131
H75	H	1.179286	-0.029179	0.500092
H76	H	1.114175	-0.126598	0.500143
H77	H	1.174989	-0.219440	0.382313
H78	H	1.240119	-0.122032	0.382281
H79	H	1.238470	-0.217841	0.459022
H80	H	1.130255	-0.596205	0.000046
H81	H	1.084793	0.016568	0.583668
H82	H	0.881444	0.326338	0.583680
C83	C	0.554146	0.412577	-0.000092
C84	C	0.527444	0.481061	-0.075427
C85	C	0.561422	0.596741	-0.075574
H86	H	0.613335	0.397914	-0.000138
H87	H	0.536103	0.459268	0.050957
H88	H	0.545491	0.434380	-0.126462
H89	H	0.468259	0.495758	-0.075396
H90	H	0.543380	0.643433	-0.024526
H91	H	0.620610	0.582066	-0.075619
H92	H	0.543304	0.643227	-0.126684
C93	C	0.866182	0.349660	0.404065
C94	C	0.817120	0.424453	0.464160
C95	C	0.761032	0.509988	0.418234
H96	H	0.831236	0.304611	0.368106
H97	H	0.896368	0.402016	0.368115
H98	H	0.786937	0.372105	0.500095
H99	H	0.852044	0.469530	0.500122
H100	H	0.791218	0.562344	0.382284
H101	H	0.726092	0.464929	0.382276
H102	H	0.727743	0.560753	0.459001
H103	H	1.138609	-0.120907	0.000081
