data_functionalizedCrystal
_audit_creation_method	'MofGen! by Chris Wilmer'
_symmetry_space_group_name_H-M	'P1'
_symmetry_Int_Tables_number	1
_symmetry_cell_setting	triclinic
loop_
_symmetry_equiv_pos_as_xyz
  x,y,z
_cell_length_a	12.759401
_cell_length_b	13.031981
_cell_length_c	12.759393
_cell_angle_alpha	82.784016
_cell_angle_beta	89.980804
_cell_angle_gamma	97.192388
loop_
_atom_site_label
_atom_site_type_symbol
_atom_site_fract_x
_atom_site_fract_y
_atom_site_fract_z
Zn1	Zn	1.553150	-0.416060	-0.540807
Zn2	Zn	2.053150	0.083940	-0.040807
Zn3	Zn	1.530727	-0.590871	-0.342784
Zn4	Zn	2.030727	-0.090871	0.157216
Zn5	Zn	1.377444	-0.416111	-0.365140
Zn6	Zn	1.877444	0.083889	0.134860
Zn7	Zn	1.355135	-0.590796	-0.518435
Zn8	Zn	1.855135	-0.090796	-0.018435
O9	O	1.454114	-0.503460	-0.441791
O10	O	1.954114	-0.003460	0.058209
O11	O	1.697195	-0.439259	-0.514546
O12	O	2.197195	0.060741	-0.014546
O13	O	1.510346	-0.567741	-0.198722
O14	O	2.010346	-0.067741	0.301278
O15	O	1.419472	-0.269839	-0.407161
O16	O	1.919472	0.230161	0.092839
O17	O	1.680721	-0.567692	-0.369059
O18	O	2.180721	-0.067692	0.130941
O19	O	1.548562	-0.269802	-0.536223
O20	O	2.048562	0.230198	-0.036223
O21	O	1.397729	-0.439345	-0.215146
O22	O	1.897729	0.060655	0.284854
O23	O	1.227465	-0.439273	-0.385468
O24	O	1.727465	0.060727	0.114532
O25	O	1.381449	-0.567565	-0.668430
O26	O	1.881449	-0.067565	-0.168430
O27	O	1.211074	-0.567614	-0.498093
O28	O	1.711074	-0.067614	0.001907
O29	O	1.526930	-0.439187	-0.684867
O30	O	2.026930	0.060813	-0.184867
O31	O	1.488714	-0.737126	-0.347366
O32	O	1.988714	-0.237126	0.152634
O33	O	1.359707	-0.737071	-0.476416
O34	O	1.859707	-0.237071	0.023584
C35	C	1.181149	-0.503442	-0.441779
C36	C	1.681149	-0.003442	0.058221
C37	C	1.064370	-0.503459	-0.441795
C38	C	1.564370	-0.003459	0.058205
C39	C	1.018071	-0.436705	-0.517638
C40	C	1.518071	0.063295	-0.017638
C41	C	0.908346	-0.436716	-0.517644
C42	C	1.408346	0.063284	-0.017644
C43	C	0.891226	-0.570243	-0.365959
C44	C	1.391226	-0.070243	0.134041
C45	C	1.000951	-0.570227	-0.365950
C46	C	1.500951	-0.070227	0.134050
C47	C	1.419385	-0.775024	-0.407060
C48	C	1.919385	-0.275024	0.092940
C49	C	1.404624	-0.891200	-0.392237
C50	C	1.904624	-0.391200	0.107763
C51	C	1.461873	-0.942893	-0.449549
C52	C	1.961873	-0.442893	0.050451
C53	C	1.446619	-1.062968	-0.434230
C54	C	1.946619	-0.562968	0.065770
C55	C	1.728145	-0.503478	-0.441805
C56	C	2.228145	-0.003478	0.058195
C57	C	1.844920	-0.503486	-0.441810
C58	C	2.344920	-0.003486	0.058190
C59	C	1.454203	-0.503362	-0.715837
C60	C	1.954203	-0.003362	-0.215837
C61	C	1.454240	-0.503321	-0.832619
C62	C	1.954240	-0.003321	-0.332619
C63	C	1.489007	-0.230835	-0.476681
C64	C	1.989007	0.269165	0.023319
C65	C	1.503876	-0.114658	-0.491549
C66	C	2.003876	0.385342	0.008451
C67	C	1.512918	-0.570099	-0.988675
C68	C	2.012918	-0.070099	-0.488675
C69	C	1.512886	-0.570148	-0.878944
C70	C	2.012886	-0.070148	-0.378944
C71	C	1.395615	-0.436447	-0.896030
C72	C	1.895615	0.063553	-0.396030
C73	C	1.395641	-0.436404	-1.005758
C74	C	1.895641	0.063596	-0.505758
C75	C	1.454095	-0.503481	-0.168821
C76	C	1.954095	-0.003481	0.331179
C77	C	1.454299	-0.503228	-0.052078
C78	C	1.954299	-0.003228	0.447922
H79	H	0.870655	-0.382356	-0.579401
H80	H	1.370655	0.117644	-0.079401
H81	H	1.069705	-0.382335	-0.579393
H82	H	1.569705	0.117665	-0.079393
H83	H	1.347859	-0.382040	-0.858304
H84	H	1.847859	0.117960	-0.358304
H85	H	1.347902	-0.381948	-1.057383
H86	H	1.847902	0.118052	-0.557383
H87	H	0.839577	-0.624604	-0.304210
H88	H	1.339577	-0.124604	0.195790
H89	H	1.038647	-0.624587	-0.304184
H90	H	1.538647	-0.124587	0.195816
H91	H	1.344313	-0.935838	-0.331835
H92	H	1.844313	-0.435838	0.168165
H93	H	1.560679	-0.624512	-1.026384
H94	H	2.060679	-0.124512	-0.526384
H95	H	1.386303	-1.107602	-0.373823
H96	H	1.886303	-0.607602	0.126177
H97	H	1.522177	-0.898258	-0.509961
H98	H	2.022177	-0.398258	-0.009961
H99	H	1.564183	-1.070026	-0.551965
H100	H	2.064183	-0.570026	-0.051965
H101	H	1.560619	-0.624601	-0.827325
H102	H	2.060619	-0.124601	-0.327325
