data_functionalizedCrystal
_audit_creation_method	'MofGen! by Chris Wilmer'
_symmetry_space_group_name_H-M	'P1'
_symmetry_Int_Tables_number	1
_symmetry_cell_setting	triclinic
loop_
_symmetry_equiv_pos_as_xyz
  x,y,z
_cell_length_a	13.262390
_cell_length_b	14.971487
_cell_length_c	14.048226
_cell_angle_alpha	90.005694
_cell_angle_beta	74.076255
_cell_angle_gamma	95.960164
loop_
_atom_site_label
_atom_site_type_symbol
_atom_site_fract_x
_atom_site_fract_y
_atom_site_fract_z
O1	O	1.392868	-0.120492	-0.439785
O2	O	1.892868	0.379508	0.060215
O3	O	1.087292	-0.133589	-0.360670
O4	O	1.587292	0.366411	0.139330
O5	O	1.248270	0.003137	-0.402343
O6	O	1.748270	0.503137	0.097657
O7	O	1.231890	-0.257217	-0.398111
O8	O	1.731890	0.242783	0.101889
O9	O	1.248251	0.003145	-0.244017
O10	O	1.748251	0.503145	0.255983
O11	O	1.087273	-0.133581	-0.202344
O12	O	1.587273	0.366419	0.297656
O13	O	1.392849	-0.120483	-0.281458
O14	O	1.892849	0.379517	0.218542
Zn15	Zn	1.240058	-0.127031	-0.216763
Zn16	Zn	1.740058	0.372969	0.283237
Zn17	Zn	1.240083	-0.127042	-0.425365
Zn18	Zn	1.740083	0.372958	0.074635
O19	O	1.231871	-0.257209	-0.239785
O20	O	1.731871	0.242791	0.260215
C21	C	1.048176	-0.132850	-0.271382
C22	C	1.548176	0.367150	0.228618
C23	C	0.931652	-0.130651	-0.241214
C24	C	1.431652	0.369349	0.258786
C25	C	0.603241	-0.124457	-0.501403
C26	C	1.103241	0.375543	-0.001403
C27	C	0.712722	-0.126519	-0.529750
C28	C	1.212722	0.373481	-0.029750
C29	C	0.767460	-0.127553	-0.457618
C30	C	1.267460	0.372447	0.042382
C31	C	0.712706	-0.126523	-0.357135
C32	C	1.212706	0.373477	0.142865
C33	C	0.603216	-0.124454	-0.328786
C34	C	1.103216	0.375546	0.171214
C35	C	0.767435	-0.127549	-0.285001
C36	C	1.267435	0.372451	0.214999
C37	C	0.712681	-0.126520	-0.184518
C38	C	1.212681	0.373480	0.315482
C39	C	0.603202	-0.124451	-0.156174
C40	C	1.103202	0.375549	0.343826
C41	C	0.548464	-0.123418	-0.228306
C42	C	1.048464	0.376582	0.271694
C43	C	0.876925	-0.129619	-0.313350
C44	C	1.376925	0.370381	0.186650
C45	C	0.876900	-0.129615	-0.140733
C46	C	1.376900	0.370385	0.359267
C47	C	0.767419	-0.127553	-0.112387
C48	C	1.267419	0.372447	0.387613
C49	C	1.247528	0.036468	-0.322991
C50	C	1.747528	0.536468	0.177009
C51	C	1.245332	0.135771	-0.322425
C52	C	1.745332	0.635771	0.177575
C53	C	1.431965	-0.121222	-0.370748
C54	C	1.931965	0.378778	0.129252
C55	C	1.548489	-0.123421	-0.400923
C56	C	2.048489	0.376579	0.099077
N57	N	1.240048	-0.127023	-0.074400
N58	N	1.740048	0.372977	0.425600
C59	C	1.339903	0.192729	-0.346910
C60	C	1.839903	0.692729	0.153090
C61	C	1.337833	0.286035	-0.346386
C62	C	1.837833	0.786035	0.153614
C63	C	1.241193	0.322379	-0.321369
C64	C	1.741193	0.822379	0.178631
C65	C	1.146615	0.265413	-0.296885
C66	C	1.646615	0.765413	0.203115
C67	C	1.148685	0.172110	-0.297417
C68	C	1.648685	0.672110	0.202583
C69	C	1.142307	0.459888	-0.295777
C70	C	1.642307	0.959888	0.204223
C71	C	1.140236	0.553198	-0.295243
C72	C	1.640236	1.053198	0.204757
C73	C	1.331455	0.573813	-0.344745
C74	C	1.831455	1.073813	0.155255
C75	C	1.333525	0.480509	-0.345277
C76	C	1.833525	0.980509	0.154723
C77	C	1.238947	0.423550	-0.320791
C78	C	1.738947	0.923550	0.179209
C79	C	1.232613	0.709460	-0.319143
C80	C	1.732613	1.209460	0.180857
C81	C	1.234806	0.610157	-0.319728
C82	C	1.734806	1.110157	0.180272
N83	N	1.240101	-0.127042	-0.567730
N84	N	1.740101	0.372958	-0.067730
C85	C	1.311352	-0.066506	-0.043041
C86	C	1.811352	0.433494	0.456959
C87	C	1.311359	-0.066506	0.056615
C88	C	1.811359	0.433494	0.556615
C89	C	1.240066	-0.127027	0.124909
C90	C	1.740066	0.372973	0.624909
C91	C	1.168755	-0.187547	0.093544
C92	C	1.668755	0.312453	0.593544
C93	C	1.168744	-0.187542	-0.006108
C94	C	1.668744	0.312458	0.493892
C95	C	1.168786	-0.187553	0.301251
C96	C	1.668786	0.312447	0.801251
C97	C	1.168798	-0.187559	0.400910
C98	C	1.668798	0.312441	0.900910
C99	C	1.311400	-0.066517	0.363975
C100	C	1.811400	0.433483	0.863975
C101	C	1.311389	-0.066512	0.264322
C102	C	1.811389	0.433488	0.764322
C103	C	1.240079	-0.127033	0.232964
C104	C	1.740079	0.372967	0.732964
H105	H	0.757295	-0.127353	-0.611563
H106	H	1.257295	0.372647	-0.111563
H107	H	1.065291	0.413513	-0.275840
H108	H	1.565291	0.913513	0.224160
Br109	Br	1.459811	0.651113	-0.377978
Br110	Br	1.959811	1.151113	0.122022
H111	H	0.558665	-0.123607	-0.560122
H112	H	1.058665	0.376393	-0.060122
Br113	Br	1.408151	0.015616	0.171632
Br114	Br	1.908151	0.515616	0.671632
Br115	Br	0.951179	-0.131006	-0.042834
Br116	Br	1.451179	0.368994	0.457166
H117	H	1.412218	0.450921	-0.365641
H118	H	1.912218	0.950921	0.134359
Br119	Br	0.916043	-0.130353	-0.496090
Br120	Br	1.416043	0.369647	0.003910
Br121	Br	1.071964	-0.269670	-0.048665
Br122	Br	1.571964	0.230330	0.451335
Br123	Br	1.408125	0.015629	0.099178
Br124	Br	1.908125	0.515629	0.599178
H125	H	0.459315	-0.121742	-0.205231
H126	H	0.959315	0.378258	0.294769
H127	H	1.369410	-0.017226	-0.098642
H128	H	1.869410	0.482774	0.401358
Br129	Br	1.072000	-0.269687	0.258699
Br130	Br	1.572000	0.230313	0.758699
Br131	Br	1.408181	0.015614	0.406533
Br132	Br	1.908181	0.515614	0.906533
Br133	Br	1.020335	0.094807	-0.264194
Br134	Br	1.520335	0.594807	0.235806
Br135	Br	0.528896	-0.123047	-0.019805
Br136	Br	1.028896	0.376953	0.480195
Br137	Br	0.693098	-0.126158	0.023979
Br138	Br	1.193098	0.373842	0.523979
H139	H	1.061543	0.582786	-0.274857
H140	H	1.561543	1.082786	0.225143
H141	H	1.110743	-0.236841	0.456512
H142	H	1.610743	0.263159	0.956512
Br143	Br	1.071991	-0.269679	0.186227
Br144	Br	1.571991	0.230321	0.686227
H145	H	1.418599	0.163145	-0.367275
H146	H	1.918599	0.663145	0.132725
Br147	Br	1.466185	0.363333	-0.379617
Br148	Br	1.966185	0.863333	0.120383
H149	H	0.921494	-0.130459	-0.395164
H150	H	1.421494	0.369541	0.104836
H151	H	1.067928	0.295013	-0.276523
H152	H	1.567928	0.795013	0.223477
