data_functionalizedCrystal
_audit_creation_method	'MofGen! by Chris Wilmer'
_symmetry_space_group_name_H-M	'P1'
_symmetry_Int_Tables_number	1
_symmetry_cell_setting	triclinic
loop_
_symmetry_equiv_pos_as_xyz
  x,y,z
_cell_length_a	12.594517
_cell_length_b	12.759394
_cell_length_c	12.759387
_cell_angle_alpha	89.968340
_cell_angle_beta	89.986640
_cell_angle_gamma	90.010724
loop_
_atom_site_label
_atom_site_type_symbol
_atom_site_fract_x
_atom_site_fract_y
_atom_site_fract_z
Zn1	Zn	1.627296	-0.418327	-0.593798
Zn2	Zn	1.627184	-0.594044	-0.418116
Zn3	Zn	1.449294	-0.418366	-0.418157
Zn4	Zn	1.449286	-0.593951	-0.593777
O5	O	1.538265	-0.506172	-0.505962
O6	O	1.776227	-0.441658	-0.570485
O7	O	1.603544	-0.570795	-0.271100
O8	O	1.472956	-0.271340	-0.441482
O9	O	1.776145	-0.570756	-0.441412
O10	O	1.603733	-0.271311	-0.570525
O11	O	1.472848	-0.441726	-0.271130
O12	O	1.300347	-0.441636	-0.441462
O13	O	1.472942	-0.570599	-0.740801
O14	O	1.300341	-0.570638	-0.570489
O15	O	1.603725	-0.441568	-0.740817
O16	O	1.603536	-0.741052	-0.441392
O17	O	1.472834	-0.740985	-0.570449
C18	C	1.538201	-0.779140	-0.505937
C19	C	1.538271	-0.895916	-0.505961
C20	C	1.261724	-0.506132	-0.505978
C21	C	1.143418	-0.506141	-0.506010
C22	C	1.674473	-0.895933	-0.371674
C23	C	1.742601	-0.950803	-0.304543
C24	C	1.742664	-1.060524	-0.304572
C25	C	1.674592	-1.115379	-0.371741
C26	C	1.606464	-1.060510	-0.438872
C27	C	1.606407	-0.950786	-0.438834
C28	C	1.470269	-1.060493	-0.573162
C29	C	1.470200	-0.950771	-0.573130
C30	C	1.402198	-1.115347	-0.640331
C31	C	1.334062	-1.060478	-0.707459
C32	C	1.334002	-0.950750	-0.707427
C33	C	1.402071	-0.895902	-0.640261
C34	C	1.074193	-0.576442	-0.576052
C35	C	1.003383	-0.480649	-0.601894
C36	C	1.003429	-0.602013	-0.480145
C37	C	1.074167	-0.410297	-0.531902
C38	C	1.074219	-0.531725	-0.410108
C39	C	1.003441	-0.435866	-0.435913
C40	C	1.815886	-0.506213	-0.505947
C41	C	1.934191	-0.506230	-0.505940
C42	C	1.538345	-0.506069	-0.779996
C43	C	1.538379	-0.506025	-0.896773
C44	C	1.538358	-0.232139	-0.506011
C45	C	1.538398	-0.115362	-0.506031
C46	C	1.674573	-0.371674	-0.896809
C47	C	1.742685	-0.304483	-0.951687
C48	C	1.742711	-0.304445	-1.061409
C49	C	1.674616	-0.371603	-1.116254
C50	C	1.606504	-0.438794	-1.061376
C51	C	1.606487	-0.438827	-0.951651
C52	C	1.470306	-0.573138	-1.061340
C53	C	1.470284	-0.573183	-0.951618
C54	C	1.402211	-0.640296	-1.116185
C55	C	1.334103	-0.707494	-1.061306
C56	C	1.334080	-0.707530	-0.951578
C57	C	1.402172	-0.640374	-0.896739
C58	C	1.538246	-0.506199	-0.232995
C59	C	1.538418	-0.505947	-0.116218
H60	H	1.674415	-0.806592	-0.371631
C61	C	1.817590	-0.230612	-0.891359
C62	C	1.938589	-0.239212	-0.906453
C63	C	2.013492	-0.165339	-0.846131
C64	C	1.967398	-0.082867	-0.770715
C65	C	1.846393	-0.074264	-0.755617
C66	C	1.771490	-0.148137	-0.815940
H67	H	1.972716	-0.300265	-0.962284
H68	H	2.103068	-0.171708	-0.857308
H69	H	2.022846	-0.028182	-0.726061
H70	H	1.812266	-0.013210	-0.699787
H71	H	1.681914	-0.141768	-0.804763
C72	C	1.259058	-0.890397	-0.781274
C73	C	1.258981	-0.769707	-0.781246
C74	C	1.184036	-0.709359	-0.855095
C75	C	1.109168	-0.769701	-0.928972
C76	C	1.109242	-0.890398	-0.929002
C77	C	1.184187	-0.950746	-0.855153
H78	H	1.314406	-0.725032	-0.726556
H79	H	1.183982	-0.620011	-0.855072
H80	H	1.053689	-0.725028	-0.983639
H81	H	1.053817	-0.935073	-0.983693
H82	H	1.184241	-1.040094	-0.855176
C83	C	1.259192	-1.120816	-0.781339
C84	C	1.267814	-1.105619	-0.900776
C85	C	1.192941	-1.165960	-0.974657
C86	C	1.109445	-1.241498	-0.929101
C87	C	1.100819	-1.256698	-0.809658
C88	C	1.175692	-1.196357	-0.735777
H89	H	1.329626	-1.049698	-0.934505
H90	H	1.199327	-1.154707	-1.063077
H91	H	1.054019	-1.286166	-0.983792
H92	H	1.039007	-1.312619	-0.775929
H93	H	1.169306	-1.207610	-0.647357
H94	H	1.105110	-0.329232	-0.553841
C95	C	0.961713	-0.355515	-0.355863
C96	C	0.989881	-0.238679	-0.367918
C97	C	0.948144	-0.158324	-0.287877
C98	C	0.878238	-0.194806	-0.195782
C99	C	0.850066	-0.311647	-0.183724
C100	C	0.891804	-0.392002	-0.263764
H101	H	1.041633	-0.211668	-0.436096
H102	H	0.968999	-0.071830	-0.296805
H103	H	0.847341	-0.135323	-0.136532
H104	H	0.798315	-0.338658	-0.115546
H105	H	0.870949	-0.478496	-0.254837
H106	H	1.674634	-0.371556	-1.205596
C107	C	1.259204	-0.781360	-1.121635
C108	C	1.259223	-0.781312	-1.242325
C109	C	1.184325	-0.855180	-1.302658
C110	C	1.109406	-0.929096	-1.242302
C111	C	1.109384	-0.929147	-1.121605
C112	C	1.184283	-0.855279	-1.061271
H113	H	1.314685	-0.726592	-1.287011
H114	H	1.184341	-0.855142	-1.392007
H115	H	1.053962	-0.983778	-1.286964
H116	H	1.053923	-0.983866	-1.076919
H117	H	1.184266	-0.855317	-0.971923
C118	C	1.116297	-0.560952	-0.300619
C119	C	1.088453	-0.668074	-0.252214
C120	C	1.130535	-0.697314	-0.142724
C121	C	1.200460	-0.619433	-0.081639
C122	C	1.228308	-0.512304	-0.130044
C123	C	1.186227	-0.483063	-0.239533
H124	H	1.036687	-0.725732	-0.297433
H125	H	1.109919	-0.776619	-0.106893
H126	H	1.231611	-0.641079	-0.000589
H127	H	1.280074	-0.454646	-0.084824
H128	H	1.206842	-0.403759	-0.275365
H129	H	1.798027	-0.906130	-0.249857
H130	H	1.798145	-1.105199	-0.249913
H131	H	1.402022	-0.806561	-0.640222
H132	H	1.674658	-1.204720	-0.371767
H133	H	1.402258	-1.204688	-0.640354
H134	H	1.105261	-0.635779	-0.635361
H135	H	0.972268	-0.459041	-0.682966
H136	H	0.972351	-0.683052	-0.458300
H137	H	1.674569	-0.371708	-0.807467
H138	H	1.798167	-0.249725	-1.106091
H139	H	1.402233	-0.640256	-1.205526
H140	H	1.278604	-0.762235	-0.906902
H141	H	1.402165	-0.640402	-0.807398
