data_functionalizedCrystal
_audit_creation_method	'MofGen! by Chris Wilmer'
_symmetry_space_group_name_H-M	'P1'
_symmetry_Int_Tables_number	1
_symmetry_cell_setting	triclinic
loop_
_symmetry_equiv_pos_as_xyz
  x,y,z
_cell_length_a	17.038272
_cell_length_b	17.038272
_cell_length_c	9.016244
_cell_angle_alpha	89.997742
_cell_angle_beta	89.998173
_cell_angle_gamma	91.111556
loop_
_atom_site_label
_atom_site_type_symbol
_atom_site_fract_x
_atom_site_fract_y
_atom_site_fract_z
O1	O	1.048758	0.170534	-0.123156
O2	O	1.548758	0.670534	0.376844
O3	O	0.820946	0.167826	-0.123200
O4	O	1.320946	0.667826	0.376800
O5	O	0.933498	0.055274	-0.123166
O6	O	1.433498	0.555274	0.376834
O7	O	0.936206	0.283086	-0.123189
O8	O	1.436206	0.783086	0.376811
O9	O	0.933481	0.055276	0.123514
O10	O	1.433481	0.555276	0.623514
O11	O	0.820929	0.167827	0.123481
O12	O	1.320929	0.667827	0.623481
O13	O	1.048741	0.170535	0.123525
O14	O	1.548741	0.670535	0.623525
Cu15	Cu	0.934833	0.169182	0.146027
Cu16	Cu	1.434833	0.669182	0.646027
Cu17	Cu	0.934854	0.169180	-0.145702
Cu18	Cu	1.434854	0.669180	0.354298
O19	O	0.936189	0.283087	0.123491
O20	O	1.436189	0.783087	0.623491
C21	C	0.791645	0.165364	0.000135
C22	C	1.291645	0.665364	0.500135
C23	C	0.704361	0.158016	0.000119
C24	C	1.204361	0.658016	0.500119
C25	C	0.931027	0.025982	0.000173
C26	C	1.431027	0.525982	0.500173
C27	C	0.923679	-0.061301	0.000172
C28	C	1.423679	0.438699	0.500172
C29	C	0.658752	0.225479	0.000113
C30	C	1.158752	0.725479	0.500113
C31	C	0.576740	0.218570	0.000134
C32	C	1.076740	0.718570	0.500134
C33	C	0.540339	0.144197	0.000151
C34	C	1.040339	0.644197	0.500151
C35	C	0.585954	0.076728	0.000161
C36	C	1.085954	0.576728	0.500161
C37	C	0.667965	0.083638	0.000150
C38	C	1.167965	0.583638	0.500150
C39	C	0.292951	0.119787	0.000193
C40	C	0.792951	0.619787	0.500193
C41	C	0.210935	0.112882	0.000199
C42	C	0.710935	0.612882	0.500199
C43	C	0.201726	0.254725	0.000175
C44	C	0.701726	0.754725	0.500175
C45	C	0.283739	0.261628	0.000156
C46	C	0.783739	0.761628	0.500156
C47	C	0.329347	0.194159	0.000174
C48	C	0.829347	0.694159	0.500174
C49	C	0.456510	0.137133	0.000168
C50	C	0.956510	0.637133	0.500168
C51	C	0.413174	0.201224	0.000167
C52	C	0.913174	0.701224	0.500167
C53	C	0.991142	-0.106911	0.000186
C54	C	1.491142	0.393089	0.500186
C55	C	0.984233	-0.188923	0.000171
C56	C	1.484233	0.311077	0.500171
C57	C	0.909860	-0.225324	0.000151
C58	C	1.409860	0.274676	0.500151
C59	C	0.842391	-0.179708	0.000132
C60	C	1.342391	0.320292	0.500132
C61	C	0.849301	-0.097698	0.000137
C62	C	1.349301	0.402302	0.500137
C63	C	0.885449	-0.472712	0.000126
C64	C	1.385449	0.027288	0.500126
C65	C	0.878545	-0.554728	0.000126
C66	C	1.378545	-0.054728	0.500126
C67	C	1.020387	-0.563937	0.000161
C68	C	1.520387	-0.063937	0.500161
C69	C	1.027291	-0.481924	0.000175
C70	C	1.527291	0.018076	0.500175
C71	C	0.959822	-0.436316	0.000148
C72	C	1.459822	0.063684	0.500148
C73	C	0.902796	-0.309153	0.000140
C74	C	1.402796	0.190847	0.500140
C75	C	0.966886	-0.352488	0.000149
C76	C	1.466886	0.147512	0.500149
C77	C	1.078042	0.172997	0.000187
C78	C	1.578042	0.672997	0.500187
C79	C	1.165326	0.180346	0.000193
C80	C	1.665326	0.680346	0.500193
C81	C	0.938660	0.312379	0.000148
C82	C	1.438660	0.812379	0.500148
C83	C	0.946008	0.399663	0.000141
C84	C	1.446008	0.899663	0.500141
N85	N	0.934824	0.169183	0.351213
N86	N	1.434824	0.669183	0.851213
N87	N	0.934868	0.169173	-0.350888
N88	N	1.434868	0.669173	0.149112
C89	C	0.874408	0.229165	0.586228
C90	C	1.374408	0.729165	1.086228
C91	C	0.874564	0.229412	0.414337
C92	C	1.374564	0.729412	0.914337
C93	C	1.017959	0.192532	0.413565
C94	C	1.517959	0.692532	0.913565
C95	C	1.017635	0.192963	0.585510
C96	C	1.517635	0.692963	1.085510
C97	C	0.912909	0.085690	0.585761
C98	C	1.412909	0.585690	1.085761
C99	C	0.911057	0.086116	0.413806
C100	C	1.411057	0.586116	0.913806
H101	H	0.688384	0.286042	0.000099
H102	H	1.188384	0.786042	0.500099
Cl103	Cl	0.519406	0.303386	0.000118
Cl104	Cl	1.019406	0.803386	0.500118
H105	H	0.812607	0.214611	0.627611
H106	H	1.312607	0.714611	1.127611
Cl107	Cl	0.725303	-0.001177	0.000164
Cl108	Cl	1.225303	0.498823	0.500164
H109	H	1.075316	-0.601079	0.000180
H110	H	1.575316	-0.101079	0.500180
Cl111	Cl	0.779416	0.206742	0.349247
Cl112	Cl	1.279416	0.706742	0.849247
Cl113	Cl	0.329494	0.355129	0.000126
Cl114	Cl	0.829494	0.855129	0.500126
Cl115	Cl	0.800630	-0.415386	0.000089
Cl116	Cl	1.300630	0.084614	0.500089
H117	H	0.951809	0.038960	0.370843
H118	H	1.451809	0.538960	0.870843
Cl119	Cl	1.089426	0.127219	0.350442
Cl120	Cl	1.589426	0.627219	0.850442
Cl121	Cl	0.897052	0.324893	0.350793
Cl122	Cl	1.397052	0.824893	0.850793
H123	H	0.330076	0.064848	0.000209
H124	H	0.830076	0.564848	0.500209
H125	H	0.888830	0.290649	0.629417
H126	H	1.388830	0.790649	1.129417
Cl127	Cl	0.816596	0.058950	0.350891
Cl128	Cl	1.316596	0.558950	0.850891
Cl129	Cl	1.047011	0.285769	0.347058
Cl130	Cl	1.547011	0.785769	0.847058
H131	H	0.817978	-0.584363	0.000134
H132	H	1.317978	-0.084363	0.500134
H133	H	0.781835	-0.209353	0.000107
H134	H	1.281835	0.290647	0.500107
Cl135	Cl	1.060381	-0.306726	0.000165
Cl136	Cl	1.560381	0.193274	0.500165
H137	H	1.064320	0.151282	0.627106
H138	H	1.564320	0.651282	1.127106
H139	H	0.442816	0.261778	0.000162
H140	H	0.942816	0.761778	0.500162
H141	H	0.853313	0.064590	0.629199
H142	H	1.353313	0.564590	1.129199
H143	H	0.164583	0.309653	0.000164
H144	H	0.664583	0.809653	0.500164
Cl145	Cl	0.809301	-0.354921	0.000108
Cl146	Cl	1.309301	0.145079	0.500108
H147	H	1.036153	0.254013	0.625596
H148	H	1.536153	0.754013	1.125596
Cl149	Cl	0.980880	0.016662	0.648545
Cl150	Cl	1.480880	0.516662	1.148545
H151	H	1.087853	-0.452293	0.000191
H152	H	1.587853	0.047707	0.500191
Cl153	Cl	0.165175	0.019377	0.000253
Cl154	Cl	0.665175	0.519377	0.500253
H155	H	0.556310	0.016172	0.000195
H156	H	1.056310	0.516172	0.500195
H157	H	0.426863	0.076578	0.000223
H158	H	0.926863	0.576578	0.500223
H159	H	1.051705	-0.077279	0.000211
H160	H	1.551705	0.422721	0.500211
Cl161	Cl	1.069049	-0.246257	0.000193
Cl162	Cl	1.569049	0.253743	0.500193
H163	H	0.794365	-0.060564	0.000125
H164	H	1.294365	0.439436	0.500125
