data_functionalizedCrystal
_audit_creation_method	'MofGen! by Chris Wilmer'
_symmetry_space_group_name_H-M	'P1'
_symmetry_Int_Tables_number	1
_symmetry_cell_setting	triclinic
loop_
_symmetry_equiv_pos_as_xyz
  x,y,z
_cell_length_a	12.759401
_cell_length_b	19.120786
_cell_length_c	12.759393
_cell_angle_alpha	87.524000
_cell_angle_beta	89.980198
_cell_angle_gamma	92.464332
loop_
_atom_site_label
_atom_site_type_symbol
_atom_site_fract_x
_atom_site_fract_y
_atom_site_fract_z
Zn1	Zn	1.588344	-0.279614	-0.576103
Zn2	Zn	1.580705	-0.397089	-0.392908
Zn3	Zn	1.412641	-0.279647	-0.400439
Zn4	Zn	1.405108	-0.397035	-0.568553
O5	O	1.496700	-0.338346	-0.484501
O6	O	1.734351	-0.295207	-0.551810
O7	O	1.558367	-0.381546	-0.246884
O8	O	1.442297	-0.181352	-0.430053
O9	O	1.728739	-0.381515	-0.417218
O10	O	1.571386	-0.181328	-0.559112
O11	O	1.434890	-0.295262	-0.252417
O12	O	1.264621	-0.295210	-0.422732
O13	O	1.429459	-0.381423	-0.716578
O14	O	1.259087	-0.381454	-0.546244
O15	O	1.564082	-0.295154	-0.722125
O16	O	1.551063	-0.495372	-0.409897
O17	O	1.422053	-0.495333	-0.538942
C18	C	1.223733	-0.338330	-0.484486
C19	C	1.106956	-0.338340	-0.484504
C20	C	0.945273	-0.293497	-0.554691
C21	C	1.054998	-0.293483	-0.554685
C22	C	1.049182	-0.383218	-0.414332
C23	C	0.939459	-0.383235	-0.414344
C24	C	1.206610	-0.268463	-0.680237
C25	C	1.264380	-0.223578	-0.750398
C26	C	1.233170	-0.155061	-0.771092
C27	C	1.144192	-0.131414	-0.721612
C28	C	1.086428	-0.176295	-0.651445
C29	C	1.117636	-0.244822	-0.630769
C30	C	0.787846	-0.408248	-0.288790
C31	C	0.730080	-0.453126	-0.218617
C32	C	0.761288	-0.521644	-0.197911
C33	C	0.850269	-0.545288	-0.247373
C34	C	0.908035	-0.500411	-0.317547
C35	C	0.876820	-0.431893	-0.338254
C36	C	1.484940	-0.520838	-0.472806
C37	C	1.480005	-0.598909	-0.467837
C38	C	1.544846	-0.635514	-0.532752
C39	C	1.540206	-0.708870	-0.528086
C40	C	1.470728	-0.745619	-0.458499
C41	C	1.405880	-0.709009	-0.393582
C42	C	1.410516	-0.635655	-0.398254
C43	C	1.453365	-0.967106	-0.441032
C44	C	1.448736	-1.040466	-0.436363
C45	C	1.583060	-1.040321	-0.570869
C46	C	1.587695	-0.966966	-0.575531
C47	C	1.522843	-0.930362	-0.510617
C48	C	1.465985	-0.820601	-0.453725
C49	C	1.527581	-0.855382	-0.515397
C50	C	1.770732	-0.338363	-0.484516
C51	C	1.887508	-0.338370	-0.484522
C52	C	1.496783	-0.338279	-0.758538
C53	C	1.496818	-0.338250	-0.875317
C54	C	1.508534	-0.155142	-0.496264
C55	C	1.513577	-0.077071	-0.501277
C56	C	1.566921	-0.293323	-0.933069
C57	C	1.566941	-0.293293	-1.042796
C58	C	1.426751	-0.383123	-1.037007
C59	C	1.426727	-0.383149	-0.927283
C60	C	1.609865	-0.210423	-1.198074
C61	C	1.679984	-0.165502	-1.255829
C62	C	1.783187	-0.154734	-1.220925
C63	C	1.816291	-0.188898	-1.128265
C64	C	1.746177	-0.233824	-1.070515
C65	C	1.642960	-0.244578	-1.105419
C66	C	1.383814	-0.466020	-0.772003
C67	C	1.313704	-0.510950	-0.714250
C68	C	1.210499	-0.521725	-0.749152
C69	C	1.177398	-0.487574	-0.841814
C70	C	1.247508	-0.442644	-0.899567
C71	C	1.350712	-0.431868	-0.864657
C72	C	1.496681	-0.338363	-0.211532
C73	C	1.496862	-0.338194	-0.094767
H74	H	1.280214	-0.118516	-0.828219
O75	O	1.647928	-0.132393	-1.345935
C76	C	1.673415	-0.114476	-1.532458
C77	C	1.709798	-0.152026	-1.430494
H78	H	1.723433	-0.130324	-1.600846
H79	H	1.587620	-0.129891	-1.547568
H80	H	1.682299	-0.055369	-1.524424
H81	H	1.700982	-0.211139	-1.438451
H82	H	1.795577	-0.136554	-1.415418
H83	H	1.091495	-0.419744	-0.357194
H84	H	1.392154	-1.070385	-0.379696
H85	H	1.409419	-0.850530	-0.397064
H86	H	1.773131	-0.261641	-0.995077
H87	H	0.980490	-0.519667	-0.357819
O88	O	1.350741	-0.246502	-0.798640
C89	C	1.434201	-0.268393	-0.962753
C90	C	1.336347	-0.242404	-0.908257
H91	H	1.422588	-0.265103	-1.051386
H92	H	1.505849	-0.234300	-0.941332
H93	H	1.446584	-0.325069	-0.935869
H94	H	1.323866	-0.185738	-0.935112
H95	H	1.264752	-0.276547	-0.929677
H96	H	0.762425	-0.352454	-0.305647
O97	O	1.612311	-0.599710	-0.600258
C98	C	1.678939	-0.486644	-0.667120
C99	C	1.602508	-0.527101	-0.590600
H100	H	1.671024	-0.427932	-0.659353
H101	H	1.762783	-0.500976	-0.647832
H102	H	1.659541	-0.501080	-0.750888
H103	H	1.621810	-0.512687	-0.506805
H104	H	1.518686	-0.512765	-0.609978
H105	H	1.467850	-0.457245	-0.743571
H106	H	1.118796	-0.075617	-0.738458
O107	O	0.894643	-0.249945	-0.622766
C108	C	0.728186	-0.210232	-0.685039
C109	C	0.785389	-0.259577	-0.607867
H110	H	0.639845	-0.218013	-0.673035
H111	H	0.753307	-0.153561	-0.670361
H112	H	0.749069	-0.222626	-0.768915
H113	H	0.764534	-0.247246	-0.523962
H114	H	0.760264	-0.316233	-0.622636
H115	H	1.013886	-0.157079	-0.611290
O116	O	0.880420	-0.611879	-0.227184
C117	C	0.844729	-0.721848	-0.131781
C118	C	0.810455	-0.646456	-0.154576
H119	H	0.788193	-0.749820	-0.073060
H120	H	0.844113	-0.751177	-0.207709
H121	H	0.927313	-0.720340	-0.097646
H122	H	0.727863	-0.647899	-0.188682
H123	H	0.811147	-0.617157	-0.078621
H124	H	1.635858	-1.070132	-0.623719
O125	O	1.603050	-0.744454	-0.591251
C126	C	1.611916	-0.827217	-0.727808
C127	C	1.540615	-0.786954	-0.656350
H128	H	1.561467	-0.861600	-0.780443
H129	H	1.662350	-0.788377	-0.778409
H130	H	1.664728	-0.861521	-0.677412
H131	H	1.487740	-0.752650	-0.706665
H132	H	1.490252	-0.825833	-0.605743
H133	H	0.714249	-0.558182	-0.140763
H134	H	0.657361	-0.433968	-0.178698
O135	O	1.236949	-0.335039	-0.660333
C136	C	1.270485	-0.446594	-0.731640
C137	C	1.236125	-0.371212	-0.754333
H138	H	1.269809	-0.475866	-0.807619
H139	H	1.353074	-0.445149	-0.697514
H140	H	1.213930	-0.474590	-0.672958
H141	H	1.292606	-0.343172	-0.813036
H142	H	1.153514	-0.372707	-0.788402
H143	H	1.525827	-0.219181	-1.226497
O144	O	1.390343	-0.931664	-0.377859
C145	C	1.256600	-0.939555	-0.243977
C146	C	1.327928	-0.979784	-0.315454
H147	H	1.206103	-0.978443	-0.193520
H148	H	1.306989	-0.905233	-0.191202
H149	H	1.203847	-0.905199	-0.294358
H150	H	1.380693	-1.014178	-0.265155
H151	H	1.277476	-1.014062	-0.368235
O152	O	1.916572	-0.178341	-1.094490
C153	C	2.085013	-0.119531	-1.126964
C154	C	1.971468	-0.131413	-1.165325
H155	H	2.129435	-0.081602	-1.184227
H156	H	2.084380	-0.096600	-1.045972
H157	H	2.125307	-0.171643	-1.122325
H158	H	1.931107	-0.079330	-1.170029
H159	H	1.972175	-0.154377	-1.246292
H160	H	1.644269	-0.937046	-0.632194
H161	H	1.349306	-0.738936	-0.336927
H162	H	1.340667	-0.538764	-0.638806
O163	O	1.347488	-0.600203	-0.335091
C164	C	1.213713	-0.608083	-0.201241
C165	C	1.285060	-0.648318	-0.272691
H166	H	1.163206	-0.646966	-0.150788
H167	H	1.264088	-0.573755	-0.148462
H168	H	1.160971	-0.573732	-0.251643
H169	H	1.337814	-0.682707	-0.222372
H170	H	1.234622	-0.682601	-0.325476
H171	H	1.369687	-0.419679	-1.079331
H172	H	1.220548	-0.414836	-0.975018
O173	O	1.077094	-0.498092	-0.875553
C174	C	0.908698	-0.556981	-0.843153
C175	C	1.022254	-0.545114	-0.804812
H176	H	0.864333	-0.595009	-0.785989
H177	H	0.868282	-0.504912	-0.847721
H178	H	0.909436	-0.579843	-0.924187
H179	H	1.021611	-0.522274	-0.723764
H180	H	1.062623	-0.597200	-0.800320
H181	H	1.153419	-0.558317	-0.702124
H182	H	1.584146	-0.825458	-0.572059
O183	O	1.634892	-0.249604	-0.882645
C184	C	1.693639	-0.130137	-0.856812
C185	C	1.616587	-0.179572	-0.913963
H186	H	1.678881	-0.073507	-0.882128
H187	H	1.681586	-0.137809	-0.768459
H188	H	1.777554	-0.142507	-0.877593
H189	H	1.532642	-0.167233	-0.893268
H190	H	1.628731	-0.171891	-1.002302
H191	H	1.840279	-0.118158	-1.267957
