data_functionalizedCrystal
_audit_creation_method	'MofGen! by Chris Wilmer'
_symmetry_space_group_name_H-M	'P1'
_symmetry_Int_Tables_number	1
_symmetry_cell_setting	triclinic
loop_
_symmetry_equiv_pos_as_xyz
  x,y,z
_cell_length_a	12.827893
_cell_length_b	16.625545
_cell_length_c	12.827885
_cell_angle_alpha	89.967166
_cell_angle_beta	89.980728
_cell_angle_gamma	90.025528
loop_
_atom_site_label
_atom_site_type_symbol
_atom_site_fract_x
_atom_site_fract_y
_atom_site_fract_z
Zn1	Zn	1.597596	-0.320963	-0.590827
Zn2	Zn	2.097596	0.179037	-0.090827
Zn3	Zn	1.597459	-0.455817	-0.416078
Zn4	Zn	2.097459	0.044183	0.083922
Zn5	Zn	1.422837	-0.321002	-0.416100
Zn6	Zn	1.922837	0.178998	0.083900
Zn7	Zn	1.422791	-0.455757	-0.590777
Zn8	Zn	1.922791	0.044243	-0.090777
O9	O	1.510171	-0.388385	-0.503445
O10	O	2.010171	0.111615	-0.003445
O11	O	1.743814	-0.338861	-0.567657
O12	O	2.243814	0.161139	-0.067657
O13	O	1.574257	-0.437976	-0.269844
O14	O	2.074257	0.062024	0.230156
O15	O	1.446096	-0.208165	-0.439308
O16	O	1.946096	0.291835	0.060692
O17	O	1.743713	-0.437937	-0.439269
O18	O	2.243713	0.062063	0.060731
O19	O	1.574490	-0.208136	-0.567679
O20	O	2.074490	0.291864	-0.067679
O21	O	1.445963	-0.338928	-0.269861
O22	O	1.945963	0.161072	0.230139
O23	O	1.276595	-0.338869	-0.439260
O24	O	1.776595	0.161131	0.060740
O25	O	1.446018	-0.437835	-0.737020
O26	O	1.946018	0.062165	-0.237020
O27	O	1.276562	-0.437873	-0.567595
O28	O	1.776562	0.062127	-0.067595
O29	O	1.574446	-0.338802	-0.737056
O30	O	2.074446	0.161198	-0.237056
O31	O	1.574212	-0.568642	-0.439222
O32	O	2.074212	-0.068642	0.060778
O33	O	1.445885	-0.568598	-0.567573
O34	O	1.945885	-0.068598	-0.067573
C35	C	1.238661	-0.388370	-0.503426
C36	C	1.738661	0.111630	-0.003426
C37	C	1.122508	-0.388382	-0.503442
C38	C	1.622508	0.111618	-0.003442
C39	C	1.070734	-0.437449	-0.566848
C40	C	1.570734	0.062551	-0.066848
C41	C	0.950684	-0.437464	-0.566866
C42	C	1.450684	0.062536	-0.066866
C43	C	1.510057	-0.597876	-0.503413
C44	C	2.010057	-0.097876	-0.003413
C45	C	1.510104	-0.687497	-0.503433
C46	C	2.010104	-0.187497	-0.003433
C47	C	1.510145	-0.760280	-0.503454
C48	C	2.010145	-0.260280	-0.003454
C49	C	1.510206	-0.851588	-0.503477
C50	C	2.010206	-0.351588	-0.003477
C51	C	1.510260	-0.924364	-0.503490
C52	C	2.010260	-0.424364	-0.003490
C53	C	1.510320	-1.015679	-0.503512
C54	C	2.010320	-0.515679	-0.003512
C55	C	1.782741	-0.388401	-0.503466
C56	C	2.282741	0.111599	-0.003466
C57	C	1.898894	-0.388408	-0.503475
C58	C	2.398894	0.111592	-0.003475
C59	C	1.510242	-0.388308	-0.776016
C60	C	2.010242	0.111692	-0.276016
C61	C	1.510272	-0.388275	-0.892169
C62	C	2.010272	0.111725	-0.392169
C63	C	1.510313	-0.178076	-0.503501
C64	C	2.010313	0.321924	-0.003501
C65	C	1.510374	-0.088455	-0.503525
C66	C	2.010374	0.411545	-0.003525
C67	C	1.573829	-0.339261	-0.943972
C68	C	2.073829	0.160739	-0.443972
C69	C	1.573862	-0.339225	-1.064022
C70	C	2.073862	0.160775	-0.564022
C71	C	1.510160	-0.388404	-0.231935
C72	C	2.010160	0.111596	0.268065
C73	C	1.510332	-0.388210	-0.115783
C74	C	2.010332	0.111790	0.384217
H75	H	1.115285	-0.479444	-0.621122
H76	H	1.615285	0.020556	-0.121122
H77	H	0.906159	-0.479474	-0.621147
H78	H	1.406159	0.020526	-0.121147
H79	H	1.077956	-0.346382	-0.449175
H80	H	1.577956	0.153618	0.050825
H81	H	0.943412	-0.346401	-0.449184
H82	H	1.443412	0.153599	0.050816
C83	C	1.647377	-0.282532	-1.124195
C84	C	2.147377	0.217468	-0.624195
C85	C	1.638921	-0.190864	-1.109312
C86	C	2.138921	0.309136	-0.609312
C87	C	1.712438	-0.134168	-1.169487
C88	C	2.212438	0.365832	-0.669487
C89	C	1.794411	-0.169142	-1.244545
C90	C	2.294411	0.330858	-0.744545
C91	C	1.802870	-0.260815	-1.259432
C92	C	2.302870	0.239185	-0.759432
C93	C	1.729353	-0.317511	-1.199257
C94	C	2.229353	0.182489	-0.699257
H95	H	1.578237	-0.164970	-1.053746
H96	H	2.078237	0.335030	-0.553746
H97	H	1.706176	-0.066305	-1.158467
H98	H	2.206176	0.433695	-0.658467
H99	H	1.848833	-0.127173	-1.289091
H100	H	2.348833	0.372827	-0.789091
H101	H	1.863554	-0.286709	-1.314998
H102	H	2.363554	0.213291	-0.814998
H103	H	1.735615	-0.385374	-1.210277
H104	H	2.235615	0.114626	-0.710277
C105	C	1.436791	-0.444932	-0.952310
C106	C	1.936791	0.055068	-0.452310
C107	C	1.317979	-0.438361	-0.937399
C108	C	1.817979	0.061639	-0.437399
C109	C	1.244495	-0.495021	-0.997537
C110	C	1.744495	0.004979	-0.497537
C111	C	1.289822	-0.558252	-1.072586
C112	C	1.789822	-0.058252	-0.572586
C113	C	1.408640	-0.564826	-1.087500
C114	C	1.908640	-0.064826	-0.587500
C115	C	1.482124	-0.508166	-1.027362
C116	C	1.982124	-0.008166	-0.527362
H117	H	1.284420	-0.391551	-0.881840
H118	H	1.784420	0.108449	-0.381840
H119	H	1.156538	-0.490154	-0.986496
H120	H	1.656538	0.009846	-0.486496
H121	H	1.235425	-0.600195	-1.117104
H122	H	1.735425	-0.100195	-0.617104
H123	H	1.442200	-0.611636	-1.143059
H124	H	1.942200	-0.111636	-0.643059
H125	H	1.570081	-0.513034	-1.038404
H126	H	2.070081	-0.013034	-0.538404
C127	C	1.647312	-0.282605	-0.883828
C128	C	2.147312	0.217395	-0.383828
C129	C	1.601986	-0.219375	-0.808777
C130	C	2.101986	0.280625	-0.308777
C131	C	1.675472	-0.162718	-0.748636
C132	C	2.175472	0.337282	-0.248636
C133	C	1.794283	-0.169292	-0.763546
C134	C	2.294283	0.330708	-0.263546
C135	C	1.839615	-0.232525	-0.838601
C136	C	2.339615	0.267475	-0.338601
C137	C	1.766130	-0.289181	-0.898742
C138	C	2.266130	0.210819	-0.398742
H139	H	1.514029	-0.214506	-0.797737
H140	H	2.014029	0.285494	-0.297737
H141	H	1.641913	-0.115909	-0.693075
H142	H	2.141913	0.384091	-0.193075
H143	H	1.848681	-0.127351	-0.719026
H144	H	2.348681	0.372649	-0.219026
H145	H	1.927572	-0.237393	-0.849641
H146	H	2.427572	0.262607	-0.349641
H147	H	1.799688	-0.335991	-0.954302
H148	H	2.299688	0.164009	-0.454302
H149	H	1.455920	-0.430178	-1.071241
H150	H	1.955920	0.069822	-0.571241
