data_functionalizedCrystal
_audit_creation_method	'MofGen! by Chris Wilmer'
_symmetry_space_group_name_H-M	'P1'
_symmetry_Int_Tables_number	1
_symmetry_cell_setting	triclinic
loop_
_symmetry_equiv_pos_as_xyz
  x,y,z
_cell_length_a	12.759401
_cell_length_b	19.121063
_cell_length_c	12.759393
_cell_angle_alpha	92.404035
_cell_angle_beta	89.979062
_cell_angle_gamma	92.470439
loop_
_atom_site_label
_atom_site_type_symbol
_atom_site_fract_x
_atom_site_fract_y
_atom_site_fract_z
Zn1	Zn	1.588334	-0.279551	-0.611809
Zn2	Zn	1.580690	-0.397017	-0.443603
Zn3	Zn	1.412630	-0.279588	-0.436146
Zn4	Zn	1.405092	-0.396968	-0.619238
O5	O	1.496686	-0.338281	-0.527699
O6	O	1.734340	-0.295138	-0.589508
O7	O	1.558352	-0.381476	-0.295595
O8	O	1.442291	-0.181299	-0.453218
O9	O	1.728724	-0.381440	-0.465928
O10	O	1.571380	-0.181271	-0.582277
O11	O	1.434879	-0.295201	-0.290117
O12	O	1.264609	-0.295154	-0.460422
O13	O	1.429444	-0.381356	-0.765271
O14	O	1.259071	-0.381393	-0.594938
O15	O	1.564071	-0.295090	-0.759813
O16	O	1.551042	-0.495295	-0.473132
O17	O	1.422032	-0.495259	-0.602169
C18	C	1.223720	-0.338272	-0.527678
C19	C	1.106942	-0.338286	-0.527694
C20	C	1.049220	-0.383259	-0.597636
C21	C	0.939495	-0.383261	-0.597657
C22	C	0.945226	-0.293316	-0.457786
C23	C	1.054948	-0.293311	-0.457771
C24	C	0.787983	-0.408463	-0.723121
C25	C	0.730256	-0.453447	-0.793054
C26	C	0.761457	-0.521989	-0.813363
C27	C	0.850382	-0.545562	-0.763725
C28	C	0.908103	-0.500582	-0.693785
C29	C	0.876904	-0.432029	-0.673495
C30	C	1.206462	-0.268116	-0.332306
C31	C	1.264185	-0.223139	-0.262359
C32	C	1.232987	-0.154595	-0.242039
C33	C	1.144058	-0.131025	-0.291659
C34	C	1.086335	-0.176003	-0.361605
C35	C	1.117541	-0.244545	-0.381927
C36	C	1.484918	-0.520761	-0.539289
C37	C	1.479980	-0.598827	-0.544282
C38	C	1.544881	-0.635498	-0.479500
C39	C	1.540243	-0.708849	-0.484203
C40	C	1.470697	-0.745528	-0.553682
C41	C	1.405794	-0.708852	-0.618471
C42	C	1.410438	-0.635502	-0.613773
C43	C	1.453316	-0.966997	-0.571229
C44	C	1.448675	-1.040352	-0.575920
C45	C	1.583126	-1.040344	-0.441653
C46	C	1.587759	-0.966993	-0.436957
C47	C	1.522860	-0.930323	-0.501749
C48	C	1.465952	-0.820504	-0.558488
C49	C	1.527611	-0.855348	-0.496948
C50	C	1.770719	-0.338290	-0.527721
C51	C	1.887495	-0.338294	-0.527731
C52	C	1.496769	-0.338214	-0.801728
C53	C	1.496805	-0.338185	-0.918503
C54	C	1.508529	-0.155088	-0.516087
C55	C	1.513576	-0.077023	-0.511139
C56	C	1.566910	-0.293259	-0.970524
C57	C	1.566930	-0.293229	-1.080246
C58	C	1.426735	-0.383056	-1.085917
C59	C	1.426711	-0.383083	-0.976196
C60	C	1.609858	-0.210363	-1.224952
C61	C	1.679979	-0.165443	-1.276977
C62	C	1.783183	-0.154673	-1.240700
C63	C	1.816285	-0.188833	-1.152401
C64	C	1.746169	-0.233758	-1.100381
C65	C	1.642952	-0.244515	-1.136656
C66	C	1.383794	-0.465949	-0.831489
C67	C	1.313682	-0.510878	-0.779468
C68	C	1.210476	-0.521656	-0.815743
C69	C	1.177377	-0.487508	-0.904047
C70	C	1.247489	-0.442579	-0.956068
C71	C	1.350694	-0.431800	-0.919786
C72	C	1.496667	-0.338298	-0.254733
C73	C	1.496848	-0.338128	-0.137946
H74	H	1.118643	-0.075216	-0.275097
H75	H	0.875771	-0.601379	-0.780258
H76	H	1.584239	-0.825482	-0.440382
H77	H	1.467831	-0.457173	-0.801940
H78	H	1.091550	-0.419879	-0.654575
H79	H	1.392055	-1.070214	-0.632517
H80	H	1.601508	-0.605639	-0.422919
H81	H	1.279989	-0.117978	-0.185074
H82	H	0.902879	-0.256700	-0.400855
H83	H	1.013930	-0.156804	-0.402015
H84	H	1.336595	-0.242336	-0.221956
H85	H	1.231880	-0.323928	-0.348855
H86	H	1.400470	-0.937146	-0.623984
H87	H	1.593091	-0.738703	-0.431450
H88	H	1.349173	-0.738721	-0.675047
H89	H	1.357590	-0.605645	-0.666526
H90	H	1.644389	-0.937130	-0.380382
H91	H	1.409326	-0.850376	-0.615056
H92	H	0.980503	-0.519774	-0.653370
H93	H	1.635965	-1.070208	-0.388904
H94	H	1.623982	-0.256698	-0.923553
H95	H	1.773122	-0.261573	-1.028493
H96	H	1.525819	-0.219123	-1.254491
H97	H	1.900328	-0.180065	-1.122877
H98	H	1.840276	-0.118098	-1.283067
H99	H	1.653018	-0.137630	-1.348871
H100	H	1.369670	-0.419612	-1.132904
H101	H	0.714448	-0.558615	-0.870305
H102	H	0.657854	-0.434247	-0.833469
H103	H	1.220531	-0.414774	-1.027971
H104	H	1.093339	-0.496285	-0.933586
H105	H	1.153395	-0.558247	-0.773384
H106	H	1.340644	-0.538690	-0.707574
H107	H	0.762578	-0.352648	-0.706601
