data_functionalizedCrystal
_audit_creation_method	'MofGen! by Chris Wilmer'
_symmetry_space_group_name_H-M	'P1'
_symmetry_Int_Tables_number	1
_symmetry_cell_setting	triclinic
loop_
_symmetry_equiv_pos_as_xyz
  x,y,z
_cell_length_a	18.215407
_cell_length_b	10.686203
_cell_length_c	18.215399
_cell_angle_alpha	94.387859
_cell_angle_beta	89.982632
_cell_angle_gamma	94.368033
loop_
_atom_site_label
_atom_site_type_symbol
_atom_site_fract_x
_atom_site_fract_y
_atom_site_fract_z
Zn1	Zn	1.147629	0.502447	-0.393665
Zn2	Zn	1.157011	0.713463	-0.261191
Zn3	Zn	1.024563	0.502477	-0.270617
Zn4	Zn	1.033998	0.713382	-0.384225
O5	O	1.090800	0.607942	-0.327424
O6	O	1.251859	0.530460	-0.376099
O7	O	1.139420	0.685522	-0.159455
O8	O	1.033013	0.325897	-0.294835
O9	O	1.258752	0.685493	-0.278770
O10	O	1.123430	0.325875	-0.385239
O11	O	1.042111	0.530511	-0.166380
O12	O	0.922830	0.530433	-0.285681
O13	O	1.049093	0.685354	-0.488463
O14	O	0.929761	0.685384	-0.369148
O15	O	1.132578	0.530381	-0.495400
O16	O	1.148568	0.890028	-0.269616
O17	O	1.058191	0.889969	-0.360008
C18	C	0.899592	0.607904	-0.327413
C19	C	0.817794	0.607917	-0.327425
C20	C	0.626018	0.527358	-0.378171
C21	C	0.549159	0.527369	-0.378173
C22	C	0.556337	0.688562	-0.276690
C23	C	0.633194	0.688544	-0.276685
C24	C	0.668032	0.607944	-0.327429
C25	C	0.514317	0.607973	-0.327436
C26	C	0.430984	0.607985	-0.327438
C27	C	0.751370	0.607929	-0.327427
C28	C	1.105441	0.935783	-0.312781
C29	C	1.111772	1.076034	-0.306541
C30	C	1.282755	0.607982	-0.327436
C31	C	1.364555	0.607999	-0.327441
C32	C	1.090841	0.607855	-0.519381
C33	C	1.090859	0.607818	-0.601182
C34	C	1.076115	1.278822	-0.342149
C35	C	1.069839	1.138570	-0.348444
C36	C	1.134343	0.527048	-0.792992
C37	C	1.134350	0.527011	-0.869853
C38	C	1.047418	0.688393	-0.862618
C39	C	1.047408	0.688423	-0.785760
C40	C	1.090874	0.607752	-0.750948
C41	C	1.090892	0.607686	-0.904668
C42	C	1.090899	0.607646	-0.988003
C43	C	1.090866	0.607789	-0.667608
C44	C	1.090798	0.607938	-0.136218
C45	C	1.090907	0.607620	-0.054434
H46	H	0.654380	0.461724	-0.419488
H47	H	0.667403	0.754168	-0.235361
C48	C	0.502947	0.438721	-0.433994
N49	N	0.468140	0.371948	-0.476041
C50	C	0.518008	0.777226	-0.220878
N51	N	0.489139	0.844013	-0.178841
C52	C	1.166812	1.148661	-0.251615
N53	N	1.208268	1.203364	-0.210245
H54	H	1.029096	1.084815	-0.389094
C55	C	1.182150	0.438297	-0.754703
N56	N	1.218158	0.371443	-0.725866
H57	H	1.169745	0.461292	-0.904082
C58	C	0.999606	0.777124	-0.900918
N59	N	0.963593	0.843957	-0.929765
C60	C	0.999584	0.777204	-0.739509
N61	N	0.963562	0.844068	-0.704673
