data_functionalizedCrystal
_audit_creation_method	'MofGen! by Chris Wilmer'
_symmetry_space_group_name_H-M	'P1'
_symmetry_Int_Tables_number	1
_symmetry_cell_setting	triclinic
loop_
_symmetry_equiv_pos_as_xyz
  x,y,z
_cell_length_a	15.944545
_cell_length_b	15.944493
_cell_length_c	9.730223
_cell_angle_alpha	90.001475
_cell_angle_beta	89.999494
_cell_angle_gamma	83.485608
loop_
_atom_site_label
_atom_site_type_symbol
_atom_site_fract_x
_atom_site_fract_y
_atom_site_fract_z
O1	O	1.114503	0.108310	-0.114183
O2	O	0.869950	0.121672	-0.114203
O3	O	0.998930	-0.007288	-0.114204
O4	O	0.985523	0.237269	-0.114182
O5	O	0.998922	-0.007291	0.114376
O6	O	0.869942	0.121668	0.114377
O7	O	1.114495	0.108306	0.114397
Zn8	Zn	0.992217	0.114987	0.150679
Zn9	Zn	0.992228	0.114991	-0.150485
O10	O	0.985515	0.237266	0.114398
C11	C	0.838652	0.121116	0.000084
C12	C	0.745406	0.119456	0.000076
C13	C	0.474791	0.034560	0.000083
C14	C	0.525360	0.075488	0.112792
C15	C	0.409764	0.113535	0.000099
C16	C	0.525349	0.075513	-0.112570
C17	C	0.574677	0.116440	0.000085
C18	C	0.459104	0.154442	0.112901
C19	C	0.459090	0.154455	-0.112563
C20	C	0.509626	0.195442	0.000174
C21	C	0.314762	0.111859	0.000108
C22	C	0.669676	0.118122	0.000086
C23	C	0.998378	-0.038584	0.000080
C24	C	0.996735	-0.131833	0.000063
C25	C	1.072656	-0.367594	0.000095
C26	C	1.031719	-0.418160	-0.112609
C27	C	0.993691	-0.302554	0.000079
C28	C	1.031693	-0.418139	0.112752
C29	C	0.990757	-0.467463	0.000101
C30	C	0.952776	-0.351891	-0.112718
C31	C	0.952761	-0.351867	0.112745
C32	C	0.911766	-0.402400	0.000013
C33	C	0.995384	-0.207554	0.000065
C34	C	0.989058	-0.562460	0.000105
C35	C	1.145793	0.108862	0.000107
C36	C	1.239039	0.110522	0.000107
C37	C	0.986067	0.268562	0.000111
C38	C	0.987710	0.361811	0.000120
N39	N	0.992216	0.114983	0.356216
N40	N	0.992236	0.114988	-0.356021
C41	C	1.049348	0.057904	0.428141
C42	C	1.049356	0.057904	0.572024
C43	C	0.935098	0.172070	0.572043
C44	C	0.935087	0.172065	0.428163
H45	H	0.554277	0.042148	-0.207851
F46	F	1.075310	-0.455995	-0.237145
F47	F	0.529855	0.284410	0.000260
H48	H	0.430140	0.187781	-0.207846
F49	F	0.909219	-0.314222	-0.237397
H50	H	0.843695	-0.417864	-0.000054
H51	H	1.140674	-0.351967	-0.000013
H52	H	0.919438	-0.322907	0.208027
H53	H	1.065054	-0.447072	0.208029
F54	F	0.874273	0.232816	0.351608
F55	F	1.110161	-0.002849	0.648568
H56	H	1.095865	0.011423	0.369565
H57	H	0.888586	0.218546	0.630637
H58	H	0.459152	-0.033454	0.000186
H59	H	0.430285	0.187769	0.208289
F60	F	0.563178	0.031894	0.237332
