data_functionalizedCrystal
_audit_creation_method	'MofGen! by Chris Wilmer'
_symmetry_space_group_name_H-M	'P1'
_symmetry_Int_Tables_number	1
_symmetry_cell_setting	triclinic
loop_
_symmetry_equiv_pos_as_xyz
  x,y,z
_cell_length_a	11.792254
_cell_length_b	11.792254
_cell_length_c	11.804365
_cell_angle_alpha	78.069043
_cell_angle_beta	78.082096
_cell_angle_gamma	95.801402
loop_
_atom_site_label
_atom_site_type_symbol
_atom_site_fract_x
_atom_site_fract_y
_atom_site_fract_z
O1	O	-0.132863	1.529692	-0.099015
O2	O	-0.148881	1.199354	-0.099016
O3	O	0.024299	1.372534	-0.099021
O4	O	-0.306042	1.356513	-0.099010
O5	O	-0.021247	1.326942	0.099036
O6	O	-0.194426	1.153763	0.099041
O7	O	-0.178408	1.484101	0.099042
Cu8	Cu	-0.190576	1.314769	0.117126
Cu9	Cu	-0.136713	1.368686	-0.117100
O10	O	-0.351588	1.310921	0.099047
C11	C	-0.170644	1.134268	0.000012
C12	C	-0.167624	1.008255	0.000011
C13	C	-0.165169	0.905919	0.000006
C14	C	-0.162100	0.777533	0.000005
C15	C	-0.371106	1.334726	0.000020
C16	C	-0.497120	1.337745	0.000024
C17	C	-0.599455	1.340201	0.000017
C18	C	-0.727839	1.343272	0.000003
C19	C	0.043818	1.348730	0.000004
C20	C	0.169833	1.345712	-0.000008
C21	C	-0.156644	1.549188	0.000011
C22	C	-0.159663	1.675203	0.000005
N23	N	-0.228459	1.276854	0.281867
N24	N	-0.098821	1.406610	-0.281841
C25	C	-0.007827	1.497656	0.655810
C26	C	0.020836	1.526337	0.531148
C27	C	-0.041485	1.463968	0.468821
C28	C	-0.132475	1.372915	0.531170
C29	C	-0.161148	1.344237	0.655845
C30	C	-0.194805	1.310549	0.468856
C31	C	-0.285795	1.219496	0.531205
C32	C	-0.314462	1.190822	0.655867
C33	C	-0.252141	1.253191	0.718193
C34	C	-0.166133	1.339227	0.344181
C35	C	-0.319453	1.185808	0.344216
C36	C	-0.348116	1.157127	0.468878
H37	H	-0.018143	1.487324	0.367316
H38	H	-0.092049	1.413363	0.293428
H39	H	-0.422203	1.082990	0.519658
H40	H	-0.388560	1.116690	0.706631
H41	H	-0.370203	1.135024	0.293471
H42	H	0.094918	1.600472	0.480388
H43	H	0.042901	1.548434	0.706564
C44	C	-0.269572	1.105032	0.896795
C45	C	-0.283643	1.221666	0.855229
H46	H	-0.289010	1.085578	0.981395
H47	H	-0.319720	1.054870	0.868614
H48	H	-0.190435	1.095557	0.868577
H49	H	-0.362783	1.231140	0.883440
H50	H	-0.233494	1.271843	0.883422
