data_functionalizedCrystal
_audit_creation_method	'MofGen! by Chris Wilmer'
_symmetry_space_group_name_H-M	'P1'
_symmetry_Int_Tables_number	1
_symmetry_cell_setting	triclinic
loop_
_symmetry_equiv_pos_as_xyz
  x,y,z
_cell_length_a	14.971482
_cell_length_b	11.026607
_cell_length_c	14.048226
_cell_angle_alpha	90.000769
_cell_angle_beta	89.992420
_cell_angle_gamma	96.099312
loop_
_atom_site_label
_atom_site_type_symbol
_atom_site_fract_x
_atom_site_fract_y
_atom_site_fract_z
O1	O	1.212292	0.158151	-0.079145
O2	O	1.712292	0.658151	0.420855
O3	O	0.954927	0.177098	-0.079150
O4	O	1.454927	0.677098	0.420850
O5	O	1.062279	-0.009059	-0.079144
O6	O	1.562279	0.490941	0.420856
O7	O	1.104940	0.344308	-0.079151
O8	O	1.604940	0.844308	0.420849
O9	O	1.062258	-0.009055	0.079177
O10	O	1.562258	0.490945	0.579177
O11	O	0.954906	0.177102	0.079172
O12	O	1.454906	0.677102	0.579172
O13	O	1.212271	0.158155	0.079176
O14	O	1.712271	0.658155	0.579176
Zn15	Zn	1.083585	0.167630	0.104311
Zn16	Zn	1.583585	0.667630	0.604311
Zn17	Zn	1.083613	0.167623	-0.104284
Zn18	Zn	1.583613	0.667623	0.395716
O19	O	1.104918	0.344312	0.079171
O20	O	1.604918	0.844312	0.579171
C21	C	0.921456	0.176254	0.000010
C22	C	1.421456	0.676254	0.500010
C23	C	0.821752	0.173717	0.000009
C24	C	1.321752	0.673717	0.500009
C25	C	0.774905	0.172524	0.086311
C26	C	1.274905	0.672524	0.586311
C27	C	0.681221	0.170121	0.086312
C28	C	1.181221	0.670121	0.586312
C29	C	0.634388	0.168919	0.000010
C30	C	1.134388	0.668919	0.500010
C31	C	0.681242	0.170108	-0.086299
C32	C	1.181242	0.670108	0.413701
C33	C	0.774923	0.172502	-0.086299
C34	C	1.274923	0.672502	0.413701
C35	C	0.485981	0.165121	-0.086293
C36	C	0.985981	0.665121	0.413707
C37	C	0.392293	0.162729	-0.086293
C38	C	0.892293	0.662729	0.413707
C39	C	0.392279	0.162740	0.086318
C40	C	0.892279	0.662740	0.586318
C41	C	0.485960	0.165134	0.086318
C42	C	0.985960	0.665134	0.586318
C43	C	0.532808	0.166325	0.000009
C44	C	1.032808	0.666325	0.500009
C45	C	1.054399	-0.054279	0.000015
C46	C	1.554399	0.445721	0.500015
C47	C	1.030938	-0.189027	0.000011
C48	C	1.530938	0.310973	0.500011
C49	C	1.095717	-0.262740	0.000011
C50	C	1.595717	0.237260	0.500011
C51	C	1.071471	-0.402009	0.000007
C52	C	1.571471	0.097991	0.500007
C53	C	1.245742	0.158999	0.000014
C54	C	1.745742	0.658999	0.500014
C55	C	1.345445	0.161536	0.000009
C56	C	1.845445	0.661536	0.500009
C57	C	1.112799	0.389532	0.000009
C58	C	1.612799	0.889532	0.500009
C59	C	1.136260	0.524280	0.000007
C60	C	1.636260	1.024280	0.500007
N61	N	1.083572	0.167633	0.246671
N62	N	1.583572	0.667633	0.746671
N63	N	1.083631	0.167610	-0.246645
N64	N	1.583631	0.667610	0.253355
C65	C	1.131181	0.085214	0.703513
C66	C	1.631181	0.585214	1.203513
C67	C	1.131174	0.085222	0.603856
C68	C	1.631174	0.585222	1.103856
C69	C	1.083612	0.167622	0.554041
C70	C	1.583612	0.667622	1.054041
C71	C	1.036061	0.250028	0.603890
C72	C	1.536061	0.750028	1.103890
C73	C	1.036074	0.250024	0.703546
C74	C	1.536074	0.750024	1.203546
C75	C	1.036037	0.250027	0.396176
C76	C	1.536037	0.750027	0.896176
C77	C	1.036022	0.250030	0.296513
C78	C	1.536022	0.750030	0.796513
C79	C	1.131137	0.085225	0.296485
C80	C	1.631137	0.585225	0.796485
C81	C	1.131149	0.085222	0.396141
C82	C	1.631149	0.585222	0.896141
C83	C	1.083597	0.167626	0.445983
C84	C	1.583597	0.667626	0.945983
H85	H	1.169128	-0.222743	0.000018
H86	H	1.669128	0.277257	0.500018
H87	H	0.643081	0.169130	0.156588
H88	H	1.143081	0.669130	0.656588
H89	H	1.169893	0.018130	0.563275
H90	H	1.669893	0.518130	1.063275
H91	H	0.643102	0.169121	-0.156567
H92	H	1.143102	0.669121	0.343433
N93	N	1.182487	-0.003654	0.757238
N94	N	1.682487	0.496346	1.257238
H95	H	1.139657	-0.057484	0.798596
H96	H	1.639657	0.442516	1.298596
H97	H	1.212609	-0.055762	0.710477
H98	H	1.712609	0.444238	1.210477
H99	H	0.998056	-0.442000	-0.000000
H100	H	1.498056	0.058000	0.500000
N101	N	1.182460	-0.003643	0.449864
N102	N	1.682460	0.496357	0.949864
H103	H	1.139633	-0.057475	0.491224
H104	H	1.639633	0.442525	0.991224
H105	H	1.212581	-0.055751	0.403101
H106	H	1.712581	0.444249	0.903101
N107	N	1.182430	-0.003652	0.242735
N108	N	1.682430	0.496348	0.742735
H109	H	1.175213	0.008856	0.172045
H110	H	1.675213	0.508856	0.672045
H111	H	1.248161	0.010515	0.260142
H112	H	1.748161	0.510515	0.760142
N113	N	0.933694	-0.241990	0.000000
N114	N	1.433694	0.258010	0.500000
H115	H	0.930157	-0.333972	-0.000003
H116	H	1.430157	0.166028	0.499997
H117	H	0.902932	-0.213655	0.058692
H118	H	1.402932	0.286345	0.558692
H119	H	1.209676	-0.435731	-0.000064
H120	H	1.709676	0.064269	0.499936
N121	N	0.984729	0.338905	0.242781
N122	N	1.484729	0.838905	0.742781
H123	H	0.954613	0.391115	0.289476
H124	H	1.454613	0.891115	0.789476
H125	H	1.027621	0.392634	0.201422
H126	H	1.527621	0.892634	0.701422
H127	H	0.997318	0.317134	0.436754
H128	H	1.497318	0.817134	0.936754
H129	H	0.997339	0.317126	0.563326
H130	H	1.497339	0.817126	1.063326
N131	N	0.984787	0.338889	0.757313
N132	N	1.484787	0.838889	1.257313
H133	H	1.008953	0.425062	0.739966
H134	H	1.508953	0.925062	1.239966
H135	H	0.919044	0.324658	0.739970
H136	H	1.419044	0.824658	1.239970
N137	N	0.825416	0.173833	0.179395
N138	N	1.325416	0.673833	0.679395
H139	H	0.781518	0.172712	0.234066
H140	H	1.281518	0.672712	0.734066
H141	H	0.859435	0.099641	0.183158
H142	H	1.359435	0.599641	0.683158
N143	N	0.536515	0.166413	-0.179379
N144	N	1.036515	0.666413	0.320621
H145	H	0.570533	0.092221	-0.183227
H146	H	1.070533	0.592221	0.316773
H147	H	0.492581	0.165338	-0.233999
H148	H	0.992581	0.665338	0.266001
H149	H	0.354131	0.161770	0.156594
H150	H	0.854131	0.661770	0.656594
N151	N	0.536478	0.166449	0.179398
N152	N	1.036478	0.666449	0.679398
H153	H	0.492587	0.165331	0.234075
H154	H	0.992587	0.665331	0.734075
H155	H	0.570498	0.092257	0.183160
H156	H	1.070498	0.592257	0.683160
H157	H	0.813065	0.173476	-0.156575
H158	H	1.313065	0.673476	0.343425
N159	N	0.341777	0.161439	-0.179373
N160	N	0.841777	0.661439	0.320627
H161	H	0.385667	0.162549	-0.234049
H162	H	0.885667	0.662549	0.265951
H163	H	0.298053	0.085261	-0.183124
H164	H	0.798053	0.585261	0.316876
