data_functionalizedCrystal
_audit_creation_method	'MofGen! by Chris Wilmer'
_symmetry_space_group_name_H-M	'P1'
_symmetry_Int_Tables_number	1
_symmetry_cell_setting	triclinic
loop_
_symmetry_equiv_pos_as_xyz
  x,y,z
_cell_length_a	18.101398
_cell_length_b	18.101395
_cell_length_c	18.101398
_cell_angle_alpha	89.998392
_cell_angle_beta	90.012704
_cell_angle_gamma	90.026371
loop_
_atom_site_label
_atom_site_type_symbol
_atom_site_fract_x
_atom_site_fract_y
_atom_site_fract_z
Zn1	Zn	1.132036	-0.295136	0.418847
Zn2	Zn	1.632036	0.204864	0.918847
Zn3	Zn	1.131957	-0.418921	0.295009
Zn4	Zn	1.631957	0.081079	0.795009
Zn5	Zn	1.008220	-0.295088	0.295008
Zn6	Zn	1.508220	0.204912	0.795008
Zn7	Zn	1.008146	-0.418930	0.418797
Zn8	Zn	1.508146	0.081070	0.918797
O9	O	1.070090	-0.357019	0.356915
O10	O	1.570090	0.142981	0.856915
O11	O	1.235658	-0.311573	0.402440
O12	O	1.735658	0.188427	0.902440
O13	O	1.115541	-0.402471	0.191376
O14	O	1.615541	0.097529	0.691376
O15	O	1.024709	-0.191462	0.311456
O16	O	1.524709	0.308538	0.811456
O17	O	1.235600	-0.402518	0.311457
O18	O	1.735600	0.097482	0.811457
O19	O	1.115676	-0.191496	0.402440
O20	O	1.615676	0.308504	0.902440
O21	O	1.024632	-0.311492	0.191375
O22	O	1.524632	0.188508	0.691375
O23	O	0.904577	-0.311499	0.311408
O24	O	1.404577	0.188501	0.811408
O25	O	1.024582	-0.402531	0.522436
O26	O	1.524582	0.097469	1.022436
O27	O	0.904523	-0.402485	0.402355
O28	O	1.404523	0.097515	0.902355
O29	O	1.115604	-0.311581	0.522473
O30	O	1.615604	0.188419	1.022473
O31	O	1.115469	-0.522555	0.311409
O32	O	1.615469	-0.022555	0.811409
O33	O	1.024505	-0.522561	0.402356
O34	O	1.524505	-0.022561	0.902356
C35	C	0.877679	-0.356989	0.356876
C36	C	1.377679	0.143011	0.856876
C37	C	0.795365	-0.356994	0.356877
C38	C	1.295365	0.143006	0.856877
C39	C	1.069991	-0.549429	0.356893
C40	C	1.569991	-0.049429	0.856893
C41	C	1.070016	-0.631743	0.356909
C42	C	1.570016	-0.131743	0.856909
C43	C	0.496274	-0.357040	0.356940
C44	C	0.996274	0.142960	0.856940
C45	C	0.527609	-0.299508	0.299997
C46	C	1.027609	0.200492	0.799997
C47	C	0.613227	-0.299662	0.299754
C48	C	1.113227	0.200338	0.799754
C49	C	0.644657	-0.357016	0.356909
C50	C	1.144657	0.142984	0.856909
C51	C	0.613543	-0.435017	0.335586
C52	C	1.113543	0.064983	0.835586
C53	C	0.527898	-0.434698	0.335190
C54	C	1.027898	0.065302	0.835190
C55	C	0.527873	-0.337249	0.435338
C56	C	1.027873	0.162751	0.935338
C57	C	0.613524	-0.335511	0.434911
C58	C	1.113524	0.164489	0.934911
C59	C	0.728516	-0.357008	0.356893
C60	C	1.228516	0.142992	0.856893
C61	C	0.412415	-0.357054	0.356954
C62	C	0.912415	0.142946	0.856954
C63	C	1.070178	-0.930834	0.356949
C64	C	1.570178	-0.430834	0.856949
C65	C	1.013079	-0.899544	0.414312
C66	C	1.513079	-0.399544	0.914312
C67	C	1.012808	-0.813926	0.414132
C68	C	1.512808	-0.313926	0.914132
C69	C	1.070098	-0.782452	0.356929
C70	C	1.570098	-0.282452	0.856929
C71	C	1.048984	-0.813562	0.278878
C72	C	1.548984	-0.313562	0.778878
C73	C	1.048616	-0.899207	0.279221
C74	C	1.548616	-0.399207	0.779221
C75	C	1.148516	-0.899195	0.376950
C76	C	1.648516	-0.399195	0.876950
C77	C	1.148055	-0.813544	0.378661
C78	C	1.648055	-0.313544	0.878661
C79	C	1.070053	-0.698592	0.356914
C80	C	1.570053	-0.198592	0.856914
C81	C	1.070221	-1.014694	0.356959
C82	C	1.570221	-0.514694	0.856959
C83	C	1.263252	-0.357049	0.356954
C84	C	1.763252	0.142951	0.856954
C85	C	1.345566	-0.357063	0.356971
C86	C	1.845566	0.142937	0.856971
C87	C	1.070093	-0.357062	0.550077
C88	C	1.570093	0.142938	1.050077
C89	C	1.070095	-0.357081	0.632391
C90	C	1.570095	0.142919	1.132391
C91	C	1.070209	-0.163857	0.356953
C92	C	1.570209	0.336143	0.856953
C93	C	1.070260	-0.081543	0.356969
C94	C	1.570260	0.418457	0.856969
C95	C	1.070077	-0.357038	0.931482
C96	C	1.570077	0.142962	1.431482
C97	C	1.012618	-0.414070	0.900134
C98	C	1.512618	0.085930	1.400134
C99	C	1.012791	-0.414307	0.814516
C100	C	1.512791	0.085693	1.314516
C101	C	1.070085	-0.357059	0.783099
C102	C	1.570085	0.142941	1.283099
C103	C	1.148104	-0.378260	0.814206
C104	C	1.648104	0.121740	1.314206
C105	C	1.147767	-0.378662	0.899851
C106	C	1.647767	0.121338	1.399851
C107	C	1.050202	-0.278669	0.899904
C108	C	1.550202	0.221331	1.399904
C109	C	1.048484	-0.279094	0.814253
C110	C	1.548484	0.220906	1.314253
C111	C	1.070095	-0.357070	0.699240
C112	C	1.570095	0.142930	1.199240
C113	C	1.070073	-0.357029	1.015341
C114	C	1.570073	0.142971	1.515341
C115	C	1.070078	-0.357003	1.164504
C116	C	1.570078	0.142997	1.664504
C117	C	1.070068	-0.357017	1.082190
C118	C	1.570068	0.142983	1.582190
H119	H	0.634265	-0.241820	0.313119
H120	H	1.134265	0.258180	0.813119
F121	F	1.173681	-0.927397	0.450075
F122	F	1.673681	-0.427397	0.950075
H123	H	1.191057	-0.919427	0.335170
H124	H	1.691057	-0.419427	0.835170
H125	H	1.192030	-0.338926	0.920590
H126	H	1.692030	0.161074	1.420590
F127	F	1.169790	-0.453541	0.925975
F128	F	1.669790	0.046459	1.425975
H129	H	1.192074	-0.338012	0.793859
H130	H	1.692074	0.161988	1.293859
F131	F	1.170523	-0.452327	0.786183
F132	F	1.670523	0.047673	1.286183
F133	F	0.501754	-0.456639	0.260278
F134	F	1.001754	0.043361	0.760278
H135	H	1.025609	-0.471805	0.921661
H136	H	1.525609	0.028195	1.421661
F137	F	1.168868	-0.786969	0.453742
F138	F	1.668868	-0.286969	0.953742
F139	F	0.977121	-0.253445	0.928115
F140	F	1.477121	0.246555	1.428115
H141	H	0.991068	-0.263107	0.793921
H142	H	1.491068	0.236893	1.293921
H143	H	0.633899	-0.479030	0.375763
H144	H	1.133899	0.020970	0.875763
H145	H	0.507608	-0.379153	0.477766
H146	H	1.007608	0.120847	0.977766
F147	F	0.499674	-0.264200	0.460678
F148	F	0.999674	0.235800	0.960678
H149	H	1.025921	-0.472383	0.794035
H150	H	1.525921	0.027617	1.294035
F151	F	1.101633	-0.786914	0.221488
F152	F	1.601633	-0.286914	0.721488
F153	F	0.936911	-0.787213	0.396818
F154	F	1.436911	-0.287213	0.896818
F155	F	1.104904	-0.223128	0.926403
F156	F	1.604904	0.276872	1.426403
F157	F	1.099211	-0.220585	0.786310
F158	F	1.599211	0.279415	1.286310
F159	F	0.499446	-0.316399	0.224509
F160	F	0.999446	0.183601	0.724509
H161	H	0.992327	-0.792164	0.261632
H162	H	1.492327	-0.292164	0.761632
F163	F	0.936756	-0.396920	0.927033
F164	F	1.436756	0.103080	1.427033
H165	H	0.634969	-0.452098	0.278892
H166	H	1.134969	0.047902	0.778892
F167	F	0.640120	-0.260490	0.455933
F168	F	1.140120	0.239510	0.955933
H169	H	0.634920	-0.374364	0.479610
H170	H	1.134920	0.125636	0.979610
H171	H	0.507036	-0.241489	0.313215
H172	H	1.007036	0.258511	0.813215
F173	F	0.639980	-0.316756	0.223822
F174	F	1.139980	0.183244	0.723822
H175	H	0.954936	-0.401039	0.793483
H176	H	1.454936	0.098961	1.293483
F177	F	1.030069	-0.786431	0.489778
F178	F	1.530069	-0.286431	0.989778
F179	F	0.500800	-0.492622	0.387032
F180	F	1.000800	0.007378	0.887032
F181	F	1.030167	-0.926442	0.490204
F182	F	1.530167	-0.426442	0.990204
H183	H	0.955366	-0.921119	0.401229
H184	H	1.455366	-0.421119	0.901229
H185	H	0.991352	-0.919237	0.262279
H186	H	1.491352	-0.419237	0.762279
F187	F	1.206604	-0.785532	0.328037
F188	F	1.706604	-0.285532	0.828037
F189	F	1.100612	-0.926264	0.221447
F190	F	1.600612	-0.426264	0.721447
