data_functionalizedCrystal
_audit_creation_method	'MofGen! by Chris Wilmer'
_symmetry_space_group_name_H-M	'P1'
_symmetry_Int_Tables_number	1
_symmetry_cell_setting	triclinic
loop_
_symmetry_equiv_pos_as_xyz
  x,y,z
_cell_length_a	16.959455
_cell_length_b	16.959453
_cell_length_c	16.959447
_cell_angle_alpha	89.968853
_cell_angle_beta	89.983056
_cell_angle_gamma	90.016935
loop_
_atom_site_label
_atom_site_type_symbol
_atom_site_fract_x
_atom_site_fract_y
_atom_site_fract_z
Zn1	Zn	1.208405	-0.314730	-0.446905
Zn2	Zn	1.208321	-0.446922	-0.314724
Zn3	Zn	1.076227	-0.314755	-0.314742
Zn4	Zn	1.076198	-0.446863	-0.446863
O5	O	1.142288	-0.380817	-0.380808
O6	O	1.319004	-0.332280	-0.429381
O7	O	1.190776	-0.429425	-0.204116
O8	O	1.093808	-0.204140	-0.332299
O9	O	1.318943	-0.429401	-0.332268
O10	O	1.190918	-0.204122	-0.429398
O11	O	1.093727	-0.332322	-0.204129
O12	O	0.965612	-0.332265	-0.332258
O13	O	1.093758	-0.429300	-0.557479
O14	O	0.965591	-0.429324	-0.429327
O15	O	1.190890	-0.332222	-0.557510
O16	O	1.190748	-0.557525	-0.332228
O17	O	1.093677	-0.557482	-0.429310
C18	C	0.936922	-0.380791	-0.380790
C19	C	0.849065	-0.380799	-0.380801
C20	C	0.477576	-0.330237	-0.330370
C21	C	0.477603	-0.431463	-0.431292
C22	C	0.560148	-0.431451	-0.431287
C23	C	0.601412	-0.380833	-0.380822
C24	C	0.560130	-0.330226	-0.330362
C25	C	0.601437	-0.482063	-0.481740
C26	C	0.683988	-0.482055	-0.481737
C27	C	0.725253	-0.431432	-0.431275
C28	C	0.683966	-0.380822	-0.380814
C29	C	0.725229	-0.330203	-0.330350
C30	C	0.683943	-0.279589	-0.279892
C31	C	0.601395	-0.279603	-0.279901
C32	C	0.807801	-0.431418	-0.431266
C33	C	0.807783	-0.330192	-0.330341
C34	C	1.142222	-0.586184	-0.380780
C35	C	1.142266	-0.674040	-0.380794
C36	C	1.192918	-1.045448	-0.431463
C37	C	1.091878	-1.045584	-0.330271
C38	C	1.091849	-0.963038	-0.330253
C39	C	1.142354	-0.921693	-0.380842
C40	C	1.192888	-0.962894	-0.431449
C41	C	1.041310	-0.921831	-0.279652
C42	C	1.041278	-0.839280	-0.279633
C43	C	1.091788	-0.797934	-0.330218
C44	C	1.142325	-0.839140	-0.380827
C45	C	1.192830	-0.797795	-0.431415
C46	C	1.243371	-0.839000	-0.482021
C47	C	1.243398	-0.921548	-0.482034
C48	C	1.091761	-0.715385	-0.330205
C49	C	1.192800	-0.715241	-0.431401
C50	C	1.348456	-0.380844	-0.380827
C51	C	1.436313	-0.380856	-0.380835
C52	C	1.142330	-0.380752	-0.586977
C53	C	1.142348	-0.380724	-0.674833
C54	C	1.142375	-0.174649	-0.380855
C55	C	1.142413	-0.086793	-0.380875
C56	C	1.091889	-0.330083	-1.046322
C57	C	1.192947	-0.431198	-1.046296
C58	C	1.192933	-0.431216	-0.963750
C59	C	1.142396	-0.380668	-0.922487
C60	C	1.091872	-0.330102	-0.963769
C61	C	1.243450	-0.481787	-0.922462
C62	C	1.243438	-0.481808	-0.839911
C63	C	1.192904	-0.431256	-0.798646
C64	C	1.142379	-0.380687	-0.839933
C65	C	1.091841	-0.330139	-0.798669
C66	C	1.041320	-0.279565	-0.839955
C67	C	1.041338	-0.279549	-0.922504
C68	C	1.192886	-0.431272	-0.716097
C69	C	1.091824	-0.330157	-0.716116
C70	C	1.142291	-0.380826	-0.175442
C71	C	1.142426	-0.380631	-0.087586
H72	H	0.717596	-0.523267	-0.522823
C73	C	0.853166	-0.274507	-0.274825
N74	N	0.887348	-0.232565	-0.233009
C75	C	0.853212	-0.487090	-0.486766
N76	N	0.887415	-0.529023	-0.528574
H77	H	1.233931	-0.681583	-0.472593
H78	H	1.284546	-0.955104	-0.523235
C79	C	1.299038	-0.537414	-0.794504
N80	N	1.340927	-0.579287	-0.760303
C81	C	1.248511	-1.090773	-0.487127
N82	N	1.290383	-1.124913	-0.529053
H83	H	1.234025	-0.472442	-0.682486
H84	H	0.567772	-0.238396	-0.238820
H85	H	0.443957	-0.289026	-0.289291
H86	H	0.567834	-0.523280	-0.522820
H87	H	0.444001	-0.472679	-0.472373
C88	C	1.036388	-1.091066	-0.274565
N89	N	0.994614	-1.125326	-0.232581
H90	H	1.000190	-0.955500	-0.238468
H91	H	0.717550	-0.238379	-0.238800
C92	C	1.298925	-0.793510	-0.537667
N93	N	1.340767	-0.759243	-0.579577
H94	H	1.000126	-0.805736	-0.238427
C95	C	1.036170	-0.670064	-0.274541
N96	N	0.994298	-0.635929	-0.232610
C97	C	1.036228	-0.274549	-0.670732
N98	N	0.994352	-0.232666	-0.636550
C99	C	0.985734	-0.223961	-0.794554
N100	N	0.943870	-0.182079	-0.760355
C101	C	0.985765	-0.223927	-0.967924
N102	N	0.943906	-0.182035	-1.002138
C103	C	1.036318	-0.274455	-1.091737
N104	N	0.994461	-0.232555	-1.125944
C105	C	1.248301	-0.487029	-1.091689
N106	N	1.289914	-0.529166	-1.125881
C107	C	1.298682	-0.537739	-0.967855
N108	N	1.340158	-0.580009	-1.002050
