data_functionalizedCrystal
_audit_creation_method	'MofGen! by Chris Wilmer'
_symmetry_space_group_name_H-M	'P1'
_symmetry_Int_Tables_number	1
_symmetry_cell_setting	triclinic
loop_
_symmetry_equiv_pos_as_xyz
  x,y,z
_cell_length_a	18.101398
_cell_length_b	12.594516
_cell_length_c	18.101389
_cell_angle_alpha	90.014195
_cell_angle_beta	90.024327
_cell_angle_gamma	90.007083
loop_
_atom_site_label
_atom_site_type_symbol
_atom_site_fract_x
_atom_site_fract_y
_atom_site_fract_z
Zn1	Zn	1.132220	-0.423988	0.418861
Zn2	Zn	1.132158	-0.601956	0.295028
Zn3	Zn	1.008379	-0.423977	0.295022
Zn4	Zn	1.008372	-0.601910	0.418817
O5	O	1.070282	-0.512958	0.356932
O6	O	1.235845	-0.447620	0.402455
O7	O	1.115715	-0.578361	0.191394
O8	O	1.024836	-0.275033	0.311465
O9	O	1.235799	-0.578372	0.311476
O10	O	1.115822	-0.275041	0.402449
O11	O	1.024776	-0.447601	0.191390
O12	O	0.904745	-0.447557	0.311422
O13	O	1.024823	-0.578294	0.522455
O14	O	0.904740	-0.578283	0.402374
O15	O	1.115814	-0.447575	0.522488
O16	O	1.115708	-0.750896	0.311433
O17	O	1.024763	-0.750862	0.402380
C18	C	0.877872	-0.512915	0.356893
C19	C	0.795558	-0.512922	0.356894
C20	C	1.070248	-0.789499	0.356919
C21	C	1.070301	-0.907804	0.356938
C22	C	0.496467	-0.512988	0.356956
C23	C	0.527771	-0.430327	0.300011
C24	C	0.613389	-0.430549	0.299768
C25	C	0.644849	-0.512954	0.356925
C26	C	0.613757	-0.625071	0.335607
C27	C	0.528112	-0.624611	0.335211
C28	C	0.528075	-0.484507	0.435354
C29	C	0.613725	-0.482010	0.434926
C30	C	0.728709	-0.512942	0.356909
C31	C	0.412607	-0.513008	0.356971
C32	C	1.119824	-0.977037	0.307525
C33	C	1.137919	-1.047759	0.375121
C34	C	1.052298	-1.047881	0.289385
C35	C	1.088431	-0.976968	0.424569
C36	C	1.002779	-0.977084	0.338788
C37	C	1.020849	-1.047774	0.406431
C38	C	1.263444	-0.513002	0.356971
C39	C	1.345758	-0.513021	0.356988
C40	C	1.070325	-0.512931	0.550094
C41	C	1.070343	-0.512919	0.632408
C42	C	1.070337	-0.235337	0.356961
C43	C	1.070360	-0.117032	0.356973
C44	C	1.070282	-0.512908	0.164521
C45	C	1.070407	-0.512619	0.082208
C46	C	1.070386	-0.512720	0.931499
C47	C	1.012940	-0.594703	0.900153
C48	C	1.013095	-0.595083	0.814535
C49	C	1.070364	-0.512819	0.783116
C50	C	1.148397	-0.543275	0.814224
C51	C	1.148077	-0.543813	0.899869
C52	C	1.050479	-0.400099	0.899917
C53	C	1.048743	-0.400749	0.814267
C54	C	1.070357	-0.512873	0.699257
C55	C	1.070399	-0.512668	1.015359
H56	H	0.634410	-0.347409	0.313131
C57	C	1.030528	-0.706795	0.929228
N58	N	1.043782	-0.791223	0.951123
C59	C	1.176409	-0.935062	0.251128
N60	N	1.219032	-0.903441	0.208655
H61	H	1.195046	-1.078805	0.390492
H62	H	1.103625	-0.945951	0.481762
H63	H	0.994565	-0.372353	0.921502
C64	C	0.971179	-0.369695	0.786767
N65	N	0.912763	-0.346300	0.766040
H66	H	0.633847	-0.449376	0.241676
C67	C	0.964303	-1.089470	0.462967
N68	N	0.921716	-1.120875	0.505552
H69	H	1.087529	-0.336424	0.792879
C70	C	0.501083	-0.657232	0.257782
N71	N	0.480728	-0.681797	0.199459
H72	H	0.945668	-0.946015	0.323397
H73	H	1.037048	-1.079030	0.232242
C74	C	0.642653	-0.557427	0.495317
N75	N	0.664440	-0.614242	0.540802
H76	H	1.026241	-0.678562	0.794057
H77	H	0.955232	-0.576024	0.793502
C78	C	0.934530	-0.569213	0.927956
N79	N	0.875470	-0.550013	0.948902
C80	C	1.107005	-0.317581	0.927302
N81	N	1.149584	-0.255437	0.947931
H82	H	1.165562	-0.624728	0.792786
H83	H	0.634137	-0.688309	0.375785
H84	H	1.164951	-0.626141	0.919856
C85	C	1.207872	-0.466666	0.927886
N86	N	1.252915	-0.408566	0.948985
C87	C	0.499952	-0.317664	0.317860
N88	N	0.478993	-0.232803	0.331305
H89	H	0.506484	-0.404176	0.454738
C90	C	0.500724	-0.565839	0.492676
N91	N	0.480119	-0.627101	0.535845
H92	H	0.506226	-0.448941	0.242257
H93	H	0.507405	-0.688284	0.374879
C94	C	0.642688	-0.658268	0.259012
N95	N	0.664475	-0.683265	0.201319
H96	H	1.192349	-0.485439	0.793875
H97	H	0.634050	-0.399505	0.451002
