data_functionalizedCrystal
_audit_creation_method	'MofGen! by Chris Wilmer'
_symmetry_space_group_name_H-M	'P1'
_symmetry_Int_Tables_number	1
_symmetry_cell_setting	triclinic
loop_
_symmetry_equiv_pos_as_xyz
  x,y,z
_cell_length_a	29.839134
_cell_length_b	29.839131
_cell_length_c	29.839125
_cell_angle_alpha	89.982291
_cell_angle_beta	90.021980
_cell_angle_gamma	89.963719
loop_
_atom_site_label
_atom_site_type_symbol
_atom_site_fract_x
_atom_site_fract_y
_atom_site_fract_z
Zn1	Zn	0.686720	0.178978	0.254125
Zn2	Zn	0.936720	0.428978	0.504125
Zn3	Zn	1.186720	0.678978	0.754125
Zn4	Zn	1.436720	0.928978	1.004125
Zn5	Zn	0.686652	0.254090	0.178995
Zn6	Zn	0.936652	0.504090	0.428995
Zn7	Zn	1.186652	0.754090	0.678995
Zn8	Zn	1.436652	1.004090	0.928995
Zn9	Zn	0.611602	0.178968	0.178995
Zn10	Zn	0.861602	0.428968	0.428995
Zn11	Zn	1.111602	0.678968	0.678995
Zn12	Zn	1.361602	0.928968	0.928995
Zn13	Zn	0.611550	0.254075	0.254083
Zn14	Zn	0.861550	0.504075	0.504083
Zn15	Zn	1.111550	0.754075	0.754083
Zn16	Zn	1.361550	1.004075	1.004083
O17	O	0.649131	0.216528	0.216549
O18	O	0.899131	0.466528	0.466549
O19	O	1.149131	0.716528	0.716549
O20	O	1.399131	0.966528	0.966549
O21	O	0.749578	0.188952	0.244176
O22	O	0.999578	0.438952	0.494176
O23	O	1.249578	0.688952	0.744176
O24	O	1.499578	0.938952	0.994176
O25	O	0.676690	0.244127	0.116128
O26	O	0.926690	0.494127	0.366128
O27	O	1.176690	0.744127	0.616128
O28	O	1.426690	0.994127	0.866128
O29	O	0.621617	0.116102	0.188978
O30	O	0.871617	0.366102	0.438978
O31	O	1.121617	0.616102	0.688978
O32	O	1.371617	0.866102	0.938978
O33	O	0.749528	0.244137	0.188979
O34	O	0.999528	0.494137	0.438979
O35	O	1.249528	0.744137	0.688979
O36	O	1.499528	0.994137	0.938979
O37	O	0.676805	0.116109	0.244176
O38	O	0.926805	0.366109	0.494176
O39	O	1.176805	0.616109	0.744176
O40	O	1.426805	0.866109	0.994176
O41	O	0.621551	0.188935	0.116127
O42	O	0.871551	0.438935	0.366127
O43	O	1.121551	0.688935	0.616127
O44	O	1.371551	0.938935	0.866127
O45	O	0.548728	0.188921	0.188938
O46	O	0.798728	0.438921	0.438938
O47	O	1.048728	0.688921	0.688938
O48	O	1.298728	0.938921	0.938938
O49	O	0.621528	0.244111	0.316956
O50	O	0.871528	0.494111	0.566956
O51	O	1.121528	0.744111	0.816956
O52	O	1.371528	0.994111	1.066956
O53	O	0.548690	0.244101	0.244105
O54	O	0.798690	0.494101	0.494105
O55	O	1.048690	0.744101	0.744105
O56	O	1.298690	0.994101	0.994105
O57	O	0.676755	0.188937	0.316987
O58	O	0.926755	0.438937	0.566987
O59	O	1.176755	0.688937	0.816987
O60	O	1.426755	0.938937	1.066987
O61	O	0.676639	0.316955	0.188938
O62	O	0.926639	0.566955	0.438938
O63	O	1.176639	0.816955	0.688938
O64	O	1.426639	1.066955	0.938938
O65	O	0.621462	0.316944	0.244105
O66	O	0.871462	0.566944	0.494105
O67	O	1.121462	0.816944	0.744105
O68	O	1.371462	1.066944	0.994105
C69	C	0.532408	0.216509	0.216517
C70	C	0.782408	0.466509	0.466517
C71	C	1.032408	0.716509	0.716517
C72	C	1.282408	0.966509	0.966517
C73	C	0.482474	0.216511	0.216514
C74	C	0.732474	0.466511	0.466514
C75	C	0.982474	0.716511	0.716514
C76	C	1.232474	0.966511	0.966514
C77	C	0.649050	0.333250	0.216527
C78	C	0.899050	0.583250	0.466527
C79	C	1.149050	0.833250	0.716527
C80	C	1.399050	1.083250	0.966527
C81	C	0.649056	0.383185	0.216533
C82	C	0.899056	0.633185	0.466533
C83	C	1.149056	0.883185	0.716533
C84	C	1.399056	1.133185	0.966533
C85	C	0.172820	0.245303	0.245240
C86	C	0.422820	0.495303	0.495240
C87	C	0.672820	0.745303	0.745240
C88	C	0.922820	0.995303	0.995240
C89	C	-0.014853	0.245315	0.245260
C90	C	0.235147	0.495315	0.495260
C91	C	0.485147	0.745315	0.745260
C92	C	0.735147	0.995315	0.995260
O93	O	-0.039127	0.269774	0.269665
O94	O	0.210873	0.519774	0.519665
O95	O	0.460873	0.769774	0.769665
O96	O	0.710873	1.019774	1.019665
N97	N	-0.038311	0.216544	0.216583
N98	N	0.211689	0.466544	0.466583
N99	N	0.461689	0.716544	0.716583
N100	N	0.711689	0.966544	0.966583
C101	C	-0.014848	0.187766	0.187902
C102	C	0.235152	0.437766	0.437902
C103	C	0.485152	0.687766	0.687902
C104	C	0.735152	0.937766	0.937902
O105	O	-0.039107	0.163291	0.163514
O106	O	0.210893	0.413291	0.413514
O107	O	0.460893	0.663291	0.663514
O108	O	0.710893	0.913291	0.913514
C109	C	0.172824	0.187751	0.187884
C110	C	0.422824	0.437751	0.437884
C111	C	0.672824	0.687751	0.687884
C112	C	0.922824	0.937751	0.937884
C113	C	0.196280	0.216527	0.216560
C114	C	0.446280	0.466527	0.466560
C115	C	0.696280	0.716527	0.716560
C116	C	0.946280	0.966527	0.966560
C117	C	0.196276	0.274076	0.273913
C118	C	0.446276	0.524076	0.523913
C119	C	0.696276	0.774076	0.773913
C120	C	0.946276	1.024076	1.023913
C121	C	0.243191	0.274075	0.273906
C122	C	0.493191	0.524075	0.523906
C123	C	0.743191	0.774075	0.773906
C124	C	0.993191	1.024075	1.023906
C125	C	0.266651	0.245299	0.245226
C126	C	0.516651	0.495299	0.495226
C127	C	0.766651	0.745299	0.745226
C128	C	1.016651	0.995299	0.995226
C129	C	0.243195	0.216526	0.216553
C130	C	0.493195	0.466526	0.466553
C131	C	0.743195	0.716526	0.716553
C132	C	0.993195	0.966526	0.966553
C133	C	0.196286	0.158971	0.159205
C134	C	0.446286	0.408971	0.409205
C135	C	0.696286	0.658971	0.659205
C136	C	0.946286	0.908971	0.909205
C137	C	0.243207	0.158969	0.159204
C138	C	0.493207	0.408969	0.409204
C139	C	0.743207	0.658969	0.659204
C140	C	0.993207	0.908969	0.909204
C141	C	0.266663	0.187745	0.187880
C142	C	0.516663	0.437745	0.437880
C143	C	0.766663	0.687745	0.687880
C144	C	1.016663	0.937745	0.937880
C145	C	0.313570	0.187749	0.187865
C146	C	0.563570	0.437749	0.437865
C147	C	0.813570	0.687749	0.687865
C148	C	1.063570	0.937749	0.937865
N149	N	0.337029	0.216520	0.216542
N150	N	0.587029	0.466520	0.466542
N151	N	0.837029	0.716520	0.716542
N152	N	1.087029	0.966520	0.966542
C153	C	0.313569	0.245295	0.245222
C154	C	0.563569	0.495295	0.495222
C155	C	0.813569	0.745295	0.745222
C156	C	1.063569	0.995295	0.995222
C157	C	-0.113379	0.187776	0.187912
C158	C	0.136621	0.437776	0.437912
C159	C	0.386621	0.687776	0.687912
C160	C	0.636621	0.937776	0.937912
C161	C	-0.160297	0.187780	0.187916
C162	C	0.089703	0.437780	0.437916
C163	C	0.339703	0.687780	0.687916
C164	C	0.589703	0.937780	0.937916
C165	C	-0.160298	0.245329	0.245275
C166	C	0.089702	0.495329	0.495275
C167	C	0.339702	0.745329	0.745275
C168	C	0.589702	0.995329	0.995275
C169	C	-0.113380	0.245327	0.245269
C170	C	0.136620	0.495327	0.495269
C171	C	0.386620	0.745327	0.745269
C172	C	0.636620	0.995327	0.995269
C173	C	-0.089921	0.216547	0.216589
C174	C	0.160079	0.466547	0.466589
C175	C	0.410079	0.716547	0.716589
C176	C	0.660079	0.966547	0.966589
C177	C	0.412095	0.245290	0.245205
C178	C	0.662095	0.495290	0.495205
C179	C	0.912095	0.745290	0.745205
C180	C	1.162095	0.995290	0.995205
C181	C	0.459014	0.245287	0.245194
C182	C	0.709014	0.495287	0.495194
C183	C	0.959014	0.745287	0.745194
C184	C	1.209014	0.995287	0.995194
C185	C	0.459012	0.187736	0.187837
C186	C	0.709012	0.437736	0.437837
C187	C	0.959012	0.687736	0.687837
C188	C	1.209012	0.937736	0.937837
C189	C	0.412096	0.187740	0.187846
C190	C	0.662096	0.437740	0.437846
C191	C	0.912096	0.687740	0.687846
C192	C	1.162096	0.937740	0.937846
C193	C	0.388639	0.216519	0.216534
C194	C	0.638639	0.466519	0.466534
C195	C	0.888639	0.716519	0.716534
C196	C	1.138639	0.966519	0.966534
O197	O	0.337873	0.163299	0.163477
O198	O	0.587873	0.413299	0.413477
O199	O	0.837873	0.663299	0.663477
O200	O	1.087873	0.913299	0.913477
O201	O	0.337836	0.269759	0.269613
O202	O	0.587836	0.519759	0.519613
O203	O	0.837836	0.769759	0.769613
O204	O	1.087836	1.019759	1.019613
C205	C	0.125905	0.245304	0.245247
C206	C	0.375905	0.495304	0.495247
C207	C	0.625905	0.745304	0.745247
C208	C	0.875905	0.995304	0.995247
C209	C	0.102449	0.216531	0.216574
C210	C	0.352449	0.466531	0.466574
C211	C	0.602449	0.716531	0.716574
C212	C	0.852449	0.966531	0.966574
C213	C	0.125909	0.187755	0.187893
C214	C	0.375909	0.437755	0.437893
C215	C	0.625909	0.687755	0.687893
C216	C	0.875909	0.937755	0.937893
C217	C	0.055531	0.216535	0.216577
C218	C	0.305531	0.466535	0.466577
C219	C	0.555531	0.716535	0.716577
C220	C	0.805531	0.966535	0.966577
C221	C	0.032071	0.245310	0.245258
C222	C	0.282071	0.495310	0.495258
C223	C	0.532071	0.745310	0.745258
C224	C	0.782071	0.995310	0.995258
C225	C	0.055529	0.274082	0.273934
C226	C	0.305529	0.524082	0.523934
C227	C	0.555529	0.774082	0.773934
C228	C	0.805529	1.024082	1.023934
C229	C	0.102445	0.274080	0.273927
C230	C	0.352445	0.524080	0.523927
C231	C	0.602445	0.774080	0.773927
C232	C	0.852445	1.024080	1.023927
C233	C	0.102451	0.158984	0.159217
C234	C	0.352451	0.408984	0.409217
C235	C	0.602451	0.658984	0.659217
C236	C	0.852451	0.908984	0.909217
C237	C	0.055535	0.158989	0.159226
C238	C	0.305535	0.408989	0.409226
C239	C	0.555535	0.658989	0.659226
C240	C	0.805535	0.908989	0.909226
C241	C	0.032075	0.187764	0.187906
C242	C	0.282075	0.437764	0.437906
C243	C	0.532075	0.687764	0.687906
C244	C	0.782075	0.937764	0.937906
C245	C	0.649143	0.216524	0.333728
C246	C	0.899143	0.466524	0.583728
C247	C	1.149143	0.716524	0.833728
C248	C	1.399143	0.966524	1.083728
C249	C	0.649148	0.216522	0.383662
C250	C	0.899148	0.466522	0.633662
C251	C	1.149148	0.716522	0.883662
C252	C	1.399148	0.966522	1.133662
C253	C	0.766309	0.216547	0.216582
C254	C	1.016309	0.466547	0.466582
C255	C	1.266309	0.716547	0.716582
C256	C	1.516309	0.966547	0.966582
C257	C	0.816244	0.216555	0.216596
C258	C	1.066244	0.466555	0.466596
C259	C	1.316244	0.716555	0.716596
C260	C	1.566244	0.966555	0.966596
C261	C	0.649225	0.099349	0.216582
C262	C	0.899225	0.349349	0.466582
C263	C	1.149225	0.599349	0.716582
C264	C	1.399225	0.849349	0.966582
C265	C	0.649265	0.049415	0.216595
C266	C	0.899265	0.299415	0.466595
C267	C	1.149265	0.549415	0.716595
C268	C	1.399265	0.799415	0.966595
C269	C	0.677914	0.692821	0.187866
C270	C	0.927914	0.942821	0.437866
C271	C	1.177914	1.192821	0.687866
C272	C	1.427914	1.442821	0.937866
C273	C	0.677969	0.880494	0.187883
C274	C	0.927969	1.130494	0.437883
C275	C	1.177969	1.380494	0.687883
C276	C	1.427969	1.630494	0.937883
O277	O	0.702441	0.904753	0.163493
O278	O	0.952441	1.154753	0.413493
O279	O	1.202441	1.404753	0.663493
O280	O	1.452441	1.654753	0.913493
N281	N	0.649224	0.903970	0.216583
N282	N	0.899224	1.153970	0.466583
N283	N	1.149224	1.403970	0.716583
N284	N	1.399224	1.653970	0.966583
C285	C	0.620465	0.880524	0.245283
C286	C	0.870465	1.130524	0.495283
C287	C	1.120465	1.380524	0.745283
C288	C	1.370465	1.630524	0.995283
O289	O	0.596020	0.904798	0.269698
O290	O	0.846020	1.154798	0.519698
O291	O	1.096020	1.404798	0.769698
O292	O	1.346020	1.654798	1.019698
C293	C	0.620412	0.692852	0.245268
C294	C	0.870412	0.942852	0.495268
C295	C	1.120412	1.192852	0.745268
C296	C	1.370412	1.442852	0.995268
C297	C	0.649156	0.669379	0.216563
C298	C	0.899156	0.919379	0.466563
C299	C	1.149156	1.169379	0.716563
C300	C	1.399156	1.419379	0.966563
C301	C	0.706656	0.669348	0.159164
C302	C	0.956656	0.919348	0.409164
C303	C	1.206656	1.169348	0.659164
C304	C	1.456656	1.419348	0.909164
C305	C	0.706640	0.622433	0.159158
C306	C	0.956640	0.872433	0.409158
C307	C	1.206640	1.122433	0.659158
C308	C	1.456640	1.372433	0.909158
C309	C	0.677882	0.598990	0.187854
C310	C	0.927882	0.848990	0.437854
C311	C	1.177882	1.098990	0.687854
C312	C	1.427882	1.348990	0.937854
C313	C	0.649140	0.622463	0.216557
C314	C	0.899140	0.872463	0.466557
C315	C	1.149140	1.122463	0.716557
C316	C	1.399140	1.372463	0.966557
C317	C	0.591656	0.669407	0.273969
C318	C	0.841656	0.919407	0.523969
C319	C	1.091656	1.169407	0.773969
C320	C	1.341656	1.419407	1.023969
C321	C	0.591646	0.622486	0.273964
C322	C	0.841646	0.872486	0.523964
C323	C	1.091646	1.122486	0.773964
C324	C	1.341646	1.372486	1.023964
C325	C	0.620390	0.599013	0.245259
C326	C	0.870390	0.849013	0.495259
C327	C	1.120390	1.099013	0.745259
C328	C	1.370390	1.349013	0.995259
C329	C	0.620367	0.552106	0.245248
C330	C	0.870367	0.802106	0.495248
C331	C	1.120367	1.052106	0.745248
C332	C	1.370367	1.302106	0.995248
N333	N	0.649112	0.528630	0.216548
N334	N	0.899112	0.778630	0.466548
N335	N	1.149112	1.028630	0.716548
N336	N	1.399112	1.278630	0.966548
C337	C	0.677869	0.552072	0.187851
C338	C	0.927869	0.802072	0.437851
C339	C	1.177869	1.052072	0.687851
C340	C	1.427869	1.302072	0.937851
C341	C	0.620494	0.979055	0.245289
C342	C	0.870494	1.229055	0.495289
C343	C	1.120494	1.479055	0.745289
C344	C	1.370494	1.729055	0.995289
C345	C	0.620507	1.025973	0.245292
C346	C	0.870507	1.275973	0.495292
C347	C	1.120507	1.525973	0.745292
C348	C	1.370507	1.775973	0.995292
C349	C	0.678012	1.025939	0.187893
C350	C	0.928012	1.275939	0.437893
C351	C	1.178012	1.525939	0.687893
C352	C	1.428012	1.775939	0.937893
C353	C	0.677996	0.979021	0.187887
C354	C	0.927996	1.229021	0.437887
C355	C	1.177996	1.479021	0.687887
C356	C	1.427996	1.729021	0.937887
C357	C	0.649239	0.955579	0.216589
C358	C	0.899239	1.205579	0.466589
C359	C	1.149239	1.455579	0.716589
C360	C	1.399239	1.705579	0.966589
C361	C	0.677834	0.453547	0.187841
C362	C	0.927834	0.703547	0.437841
C363	C	1.177834	0.953547	0.687841
C364	C	1.427834	1.203547	0.937841
C365	C	0.677814	0.406627	0.187836
C366	C	0.927814	0.656627	0.437836
C367	C	1.177814	0.906627	0.687836
C368	C	1.427814	1.156627	0.937836
C369	C	0.620311	0.406664	0.245237
C370	C	0.870311	0.656664	0.495237
C371	C	1.120311	0.906664	0.745237
C372	C	1.370311	1.156664	0.995237
C373	C	0.620329	0.453580	0.245240
C374	C	0.870329	0.703580	0.495240
C375	C	1.120329	0.953580	0.745240
C376	C	1.370329	1.203580	0.995240
C377	C	0.649094	0.477020	0.216540
C378	C	0.899094	0.727020	0.466540
C379	C	1.149094	0.977020	0.716540
C380	C	1.399094	1.227020	0.966540
O381	O	0.595912	0.527818	0.269629
O382	O	0.845912	0.777818	0.519629
O383	O	1.095912	1.027818	0.769629
O384	O	1.345912	1.277818	1.019629
O385	O	0.702318	0.527791	0.163447
O386	O	0.952318	0.777791	0.413447
O387	O	1.202318	1.027791	0.663447
O388	O	1.452318	1.277791	0.913447
C389	C	0.677930	0.739737	0.187872
C390	C	0.927930	0.989737	0.437872
C391	C	1.177930	1.239737	0.687872
C392	C	1.427930	1.489737	0.937872
C393	C	0.649188	0.763210	0.216574
C394	C	0.899188	1.013210	0.466574
C395	C	1.149188	1.263210	0.716574
C396	C	1.399188	1.513210	0.966574
C397	C	0.620430	0.739767	0.245271
C398	C	0.870430	0.989767	0.495271
C399	C	1.120430	1.239767	0.745271
C400	C	1.370430	1.489767	0.995271
C401	C	0.649200	0.810128	0.216578
C402	C	0.899200	1.060128	0.466578
C403	C	1.149200	1.310128	0.716578
C404	C	1.399200	1.560128	0.966578
C405	C	0.677958	0.833570	0.187881
C406	C	0.927958	1.083570	0.437881
C407	C	1.177958	1.333570	0.687881
C408	C	1.427958	1.583570	0.937881
C409	C	0.706703	0.810094	0.159181
C410	C	0.956703	1.060094	0.409181
C411	C	1.206703	1.310094	0.659181
C412	C	1.456703	1.560094	0.909181
C413	C	0.706687	0.763179	0.159175
C414	C	0.956687	1.013179	0.409175
C415	C	1.206687	1.263179	0.659175
C416	C	1.456687	1.513179	0.909175
C417	C	0.591685	0.763243	0.273971
C418	C	0.841685	1.013243	0.523971
C419	C	1.091685	1.263243	0.773971
C420	C	1.341685	1.513243	1.023971
C421	C	0.591703	0.810158	0.273974
C422	C	0.841703	1.060158	0.523974
C423	C	1.091703	1.310158	0.773974
C424	C	1.341703	1.560158	1.023974
C425	C	0.620461	0.833601	0.245277
C426	C	0.870461	1.083601	0.495277
C427	C	1.120461	1.333601	0.745277
C428	C	1.370461	1.583601	0.995277
C429	C	0.649145	0.216499	0.099827
C430	C	0.899145	0.466499	0.349827
C431	C	1.149145	0.716499	0.599827
C432	C	1.399145	0.966499	0.849827
C433	C	0.649227	0.216374	0.049893
C434	C	0.899227	0.466374	0.299893
C435	C	1.149227	0.716374	0.549893
C436	C	1.399227	0.966374	0.799893
C437	C	0.677935	0.187718	0.693325
C438	C	0.927935	0.437718	0.943325
C439	C	1.177935	0.687718	1.193325
C440	C	1.427935	0.937718	1.443325
C441	C	0.677957	0.187680	0.880998
C442	C	0.927957	0.437680	1.130998
C443	C	1.177957	0.687680	1.380998
C444	C	1.427957	0.937680	1.630998
O445	O	0.702399	0.163232	0.905279
O446	O	0.952399	0.413232	1.155279
O447	O	1.202399	0.663232	1.405279
O448	O	1.452399	0.913232	1.655279
N449	N	0.649208	0.216402	0.904448
N450	N	0.899208	0.466402	1.154448
N451	N	1.149208	0.716402	1.404448
N452	N	1.399208	0.966402	1.654448
C453	C	0.620449	0.245133	0.880976
C454	C	0.870449	0.495133	1.130976
C455	C	1.120449	0.745133	1.380976
C456	C	1.370449	0.995133	1.630976
O457	O	0.595993	0.269559	0.905228
O458	O	0.845993	0.519559	1.155228
O459	O	1.095993	0.769559	1.405228
O460	O	1.345993	1.019559	1.655228
C461	C	0.620424	0.245169	0.693304
C462	C	0.870424	0.495169	0.943304
C463	C	1.120424	0.745169	1.193304
C464	C	1.370424	0.995169	1.443304
C465	C	0.649179	0.216448	0.669857
C466	C	0.899179	0.466448	0.919857
C467	C	1.149179	0.716448	1.169857
C468	C	1.399179	0.966448	1.419857
C469	C	0.706687	0.158999	0.669877
C470	C	0.956687	0.408999	0.919877
C471	C	1.206687	0.658999	1.169877
C472	C	1.456687	0.908999	1.419877
C473	C	0.706683	0.159011	0.622962
C474	C	0.956683	0.409011	0.872962
C475	C	1.206683	0.659011	1.122962
C476	C	1.456683	0.909011	1.372962
C477	C	0.677927	0.187741	0.599494
C478	C	0.927927	0.437741	0.849494
C479	C	1.177927	0.687741	1.099494
C480	C	1.427927	0.937741	1.349494
C481	C	0.649175	0.216460	0.622941
C482	C	0.899175	0.466460	0.872941
C483	C	1.149175	0.716460	1.122941
C484	C	1.399175	0.966460	1.372941
C485	C	0.591663	0.273898	0.669833
C486	C	0.841663	0.523898	0.919833
C487	C	1.091663	0.773898	1.169833
C488	C	1.341663	1.023898	1.419833
C489	C	0.591659	0.273903	0.622912
C490	C	0.841659	0.523903	0.872912
C491	C	1.091659	0.773903	1.122912
C492	C	1.341659	1.023903	1.372912
C493	C	0.620414	0.245183	0.599465
C494	C	0.870414	0.495183	0.849465
C495	C	1.120414	0.745183	1.099465
C496	C	1.370414	0.995183	1.349465
C497	C	0.620415	0.245202	0.552558
C498	C	0.870415	0.495202	0.802558
C499	C	1.120415	0.745202	1.052558
C500	C	1.370415	0.995202	1.302558
N501	N	0.649164	0.216480	0.529108
N502	N	0.899164	0.466480	0.779108
N503	N	1.149164	0.716480	1.029108
N504	N	1.399164	0.966480	1.279108
C505	C	0.677920	0.187749	0.552576
C506	C	0.927920	0.437749	0.802576
C507	C	1.177920	0.687749	1.052576
C508	C	1.427920	0.937749	1.302576
C509	C	0.620464	0.245113	0.979507
C510	C	0.870464	0.495113	1.229507
C511	C	1.120464	0.745113	1.479507
C512	C	1.370464	0.995113	1.729507
C513	C	0.620471	0.245105	1.026425
C514	C	0.870471	0.495105	1.276425
C515	C	1.120471	0.745105	1.526425
C516	C	1.370471	0.995105	1.776425
C517	C	0.677979	0.187650	1.026443
C518	C	0.927979	0.437650	1.276443
C519	C	1.177979	0.687650	1.526443
C520	C	1.427979	0.937650	1.776443
C521	C	0.677974	0.187661	0.979524
C522	C	0.927974	0.437661	1.229524
C523	C	1.177974	0.687661	1.479524
C524	C	1.427974	0.937661	1.729524
C525	C	0.649214	0.216391	0.956057
C526	C	0.899214	0.466391	1.206057
C527	C	1.149214	0.716391	1.456057
C528	C	1.399214	0.966391	1.706057
C529	C	0.677910	0.187776	0.454050
C530	C	0.927910	0.437776	0.704050
C531	C	1.177910	0.687776	0.954050
C532	C	1.427910	0.937776	1.204050
C533	C	0.677904	0.187792	0.407130
C534	C	0.927904	0.437792	0.657130
C535	C	1.177904	0.687792	0.907130
C536	C	1.427904	0.937792	1.157130
C537	C	0.620395	0.245244	0.407116
C538	C	0.870395	0.495244	0.657116
C539	C	1.120395	0.745244	0.907116
C540	C	1.370395	0.995244	1.157116
C541	C	0.620401	0.245230	0.454032
C542	C	0.870401	0.495230	0.704032
C543	C	1.120401	0.745230	0.954032
C544	C	1.370401	0.995230	1.204032
C545	C	0.649161	0.216493	0.477497
C546	C	0.899161	0.466493	0.727497
C547	C	1.149161	0.716493	0.977497
C548	C	1.399161	0.966493	1.227497
O549	O	0.595982	0.269633	0.528248
O550	O	0.845982	0.519633	0.778248
O551	O	1.095982	0.769633	1.028248
O552	O	1.345982	1.019633	1.278248
O553	O	0.702366	0.163320	0.528316
O554	O	0.952366	0.413320	0.778316
O555	O	1.202366	0.663320	1.028316
O556	O	1.452366	0.913320	1.278316
C557	C	0.677939	0.187706	0.740240
C558	C	0.927939	0.437706	0.990240
C559	C	1.177939	0.687706	1.240240
C560	C	1.427939	0.937706	1.490240
C561	C	0.649187	0.216425	0.763688
C562	C	0.899187	0.466425	1.013688
C563	C	1.149187	0.716425	1.263688
C564	C	1.399187	0.966425	1.513688
C565	C	0.620431	0.245155	0.740219
C566	C	0.870431	0.495155	0.990219
C567	C	1.120431	0.745155	1.240219
C568	C	1.370431	0.995155	1.490219
C569	C	0.649194	0.216417	0.810605
C570	C	0.899194	0.466417	1.060605
C571	C	1.149194	0.716417	1.310605
C572	C	1.399194	0.966417	1.560605
C573	C	0.677950	0.187686	0.834074
C574	C	0.927950	0.437686	1.084074
C575	C	1.177950	0.687686	1.334074
C576	C	1.427950	0.937686	1.584074
C577	C	0.706699	0.158964	0.810624
C578	C	0.956699	0.408964	1.060624
C579	C	1.206699	0.658964	1.310624
C580	C	1.456699	0.908964	1.560624
C581	C	0.706695	0.158976	0.763708
C582	C	0.956695	0.408976	1.013708
C583	C	1.206695	0.658976	1.263708
C584	C	1.456695	0.908976	1.513708
C585	C	0.591682	0.273877	0.763669
C586	C	0.841682	0.523877	1.013669
C587	C	1.091682	0.773877	1.263669
C588	C	1.341682	1.023877	1.513669
C589	C	0.591689	0.273864	0.810585
C590	C	0.841689	0.523864	1.060585
C591	C	1.091689	0.773864	1.310585
C592	C	1.341689	1.023864	1.560585
C593	C	0.620445	0.245133	0.834053
C594	C	0.870445	0.495133	1.084053
C595	C	1.120445	0.745133	1.334053
C596	C	1.370445	0.995133	1.584053
H597	H	0.478110	0.268721	0.268545
H598	H	0.728110	0.518721	0.518545
H599	H	0.978110	0.768721	0.768545
H600	H	1.228110	1.018721	1.018545
C601	C	0.560046	0.305484	0.737861
C602	C	0.810046	0.555484	0.987861
C603	C	1.060046	0.805484	1.237861
C604	C	1.310046	1.055484	1.487861
N605	N	0.536217	0.329294	0.718424
N606	N	0.786217	0.579294	0.968424
N607	N	1.036217	0.829294	1.218424
N608	N	1.286217	1.079294	1.468424
H609	H	0.730115	0.135573	0.829740
H610	H	0.980115	0.385573	1.079740
H611	H	1.230115	0.635573	1.329740
H612	H	1.480115	0.885573	1.579740
H613	H	0.568292	0.829266	0.297349
H614	H	0.818292	1.079266	0.547349
H615	H	1.068292	1.329266	0.797349
H616	H	1.318292	1.579266	1.047349
C617	C	0.560054	0.305461	0.836371
C618	C	0.810054	0.555461	1.086371
C619	C	1.060054	0.805461	1.336371
C620	C	1.310054	1.055461	1.586371
N621	N	0.536223	0.329255	0.855792
N622	N	0.786223	0.579255	1.105792
N623	N	1.036223	0.829255	1.355792
N624	N	1.286223	1.079255	1.605792
C625	C	0.269009	0.127309	0.127652
C626	C	0.519009	0.377309	0.377652
C627	C	0.769009	0.627309	0.627652
C628	C	1.019009	0.877309	0.877652
N629	N	0.288442	0.103464	0.103886
N630	N	0.538442	0.353464	0.353886
N631	N	0.788442	0.603464	0.603886
N632	N	1.038442	0.853464	0.853886
H633	H	0.701402	0.959912	0.164514
H634	H	0.951402	1.209912	0.414514
H635	H	1.201402	1.459912	0.664514
H636	H	1.451402	1.709912	0.914514
H637	H	0.568248	0.297285	0.688916
H638	H	0.818248	0.547285	0.938916
H639	H	1.068248	0.797285	1.188916
H640	H	1.318248	1.047285	1.438916
H641	H	-0.094283	0.164339	0.164556
H642	H	0.155717	0.414339	0.414556
H643	H	0.405717	0.664339	0.664556
H644	H	0.655717	0.914339	0.914556
H645	H	0.730047	0.603324	0.135785
H646	H	0.980047	0.853324	0.385785
H647	H	1.230047	1.103324	0.635785
H648	H	1.480047	1.353324	0.885785
C649	C	0.170495	0.127309	0.127665
C650	C	0.420495	0.377309	0.377665
C651	C	0.670495	0.627309	0.627665
C652	C	0.920495	0.877309	0.877665
N653	N	0.151071	0.103457	0.103908
N654	N	0.401071	0.353457	0.353908
N655	N	0.651071	0.603457	0.603908
N656	N	0.901071	0.853457	0.853908
C657	C	-0.087583	0.276980	0.276816
C658	C	0.162417	0.526980	0.526816
C659	C	0.412417	0.776980	0.776816
C660	C	0.662417	1.026980	1.026816
N661	N	-0.068155	0.300822	0.300580
N662	N	0.181845	0.550822	0.550580
N663	N	0.431845	0.800822	0.800580
N664	N	0.681845	1.050822	1.050580
H665	H	0.568233	0.297294	0.603808
H666	H	0.818233	0.547294	0.853808
H667	H	1.068233	0.797294	1.103808
H668	H	1.318233	1.047294	1.353808
H669	H	0.730093	0.744071	0.135801
H670	H	0.980093	0.994071	0.385801
H671	H	1.230093	1.244071	0.635801
H672	H	1.480093	1.494071	0.885801
H673	H	0.701388	0.164274	0.960437
H674	H	0.951388	0.414274	1.210437
H675	H	1.201388	0.664274	1.460437
H676	H	1.451388	0.914274	1.710437
H677	H	0.393001	0.268723	0.268566
H678	H	0.643001	0.518723	0.518566
H679	H	0.893001	0.768723	0.768566
H680	H	1.143001	1.018723	1.018566
H681	H	0.262285	0.297506	0.297258
H682	H	0.512285	0.547506	0.547258
H683	H	0.762285	0.797506	0.797258
H684	H	1.012285	1.047506	1.047258
C685	C	0.588681	0.380869	0.276803
C686	C	0.838681	0.630869	0.526803
C687	C	1.088681	0.880869	0.776803
C688	C	1.338681	1.130869	1.026803
N689	N	0.564860	0.361438	0.300582
N690	N	0.814860	0.611438	0.550582
N691	N	1.064860	0.861438	0.800582
N692	N	1.314860	1.111438	1.050582
C693	C	0.484826	0.156079	0.156296
C694	C	0.734826	0.406079	0.406296
C695	C	0.984826	0.656079	0.656296
C696	C	1.234826	0.906079	0.906296
N697	N	0.504272	0.132231	0.132542
N698	N	0.754272	0.382231	0.382542
N699	N	1.004272	0.632231	0.632542
N700	N	1.254272	0.882231	0.882542
H701	H	0.701321	0.164403	0.388042
H702	H	0.951321	0.414403	0.638042
H703	H	1.201321	0.664403	0.888042
H704	H	1.451321	0.914403	1.138042
C705	C	0.170477	0.305739	0.305462
C706	C	0.420477	0.555739	0.555462
C707	C	0.670477	0.805739	0.805462
C708	C	0.920477	1.055739	1.055462
N709	N	0.151049	0.329594	0.329222
N710	N	0.401049	0.579594	0.579222
N711	N	0.651049	0.829594	0.829222
N712	N	0.901049	1.079594	1.079222
H713	H	0.568248	0.688511	0.297342
H714	H	0.818248	0.938511	0.547342
H715	H	1.068248	1.188511	0.797342
H716	H	1.318248	1.438511	1.047342
C717	C	0.588882	1.051788	0.276865
C718	C	0.838882	1.301788	0.526865
C719	C	1.088882	1.551788	0.776865
C720	C	1.338882	1.801788	1.026865
N721	N	0.565063	1.071230	0.300650
N722	N	0.815063	1.321230	0.550650
N723	N	1.065063	1.571230	0.800650
N724	N	1.315063	1.821230	1.050650
C725	C	0.029715	0.305734	0.305483
C726	C	0.279715	0.555734	0.555483
C727	C	0.529715	0.805734	0.805483
C728	C	0.779715	1.055734	1.055483
N729	N	0.010269	0.329571	0.329247
N730	N	0.260269	0.579571	0.579247
N731	N	0.510269	0.829571	0.829247
N732	N	0.760269	1.079571	1.079247
C733	C	-0.186113	0.276980	0.276826
C734	C	0.063887	0.526980	0.526826
C735	C	0.313887	0.776980	0.776826
C736	C	0.563887	1.026980	1.026826
N737	N	-0.205558	0.300815	0.300592
N738	N	0.044442	0.550815	0.550592
N739	N	0.294442	0.800815	0.800592
N740	N	0.544442	1.050815	1.050592
C741	C	0.738336	0.835890	0.127614
C742	C	0.988336	1.085890	0.377614
C743	C	1.238336	1.335890	0.627614
C744	C	1.488336	1.585890	0.877614
N745	N	0.762162	0.855322	0.103841
N746	N	1.012162	1.105322	0.353841
N747	N	1.262162	1.355322	0.603841
N748	N	1.512162	1.605322	0.853841
H749	H	0.730076	0.688430	0.135795
H750	H	0.980076	0.938430	0.385795
H751	H	1.230076	1.188430	0.635795
H752	H	1.480076	1.438430	0.885795
H753	H	0.730110	0.135588	0.744622
H754	H	0.980110	0.385588	0.994622
H755	H	1.230110	0.635588	1.244622
H756	H	1.480110	0.885588	1.494622
H757	H	0.596991	0.268621	0.473123
H758	H	0.846991	0.518621	0.723123
H759	H	1.096991	0.768621	0.973123
H760	H	1.346991	1.018621	1.223123
C761	C	0.709648	1.051735	0.156329
C762	C	0.959648	1.301735	0.406329
C763	C	1.209648	1.551735	0.656329
C764	C	1.459648	1.801735	0.906329
N765	N	0.733477	1.071166	0.132559
N766	N	0.983477	1.321166	0.382559
N767	N	1.233477	1.571166	0.632559
N768	N	1.483477	1.821166	0.882559
H769	H	0.597076	0.959972	0.268661
H770	H	0.847076	1.209972	0.518661
H771	H	1.097076	1.459972	0.768661
H772	H	1.347076	1.709972	1.018661
H773	H	0.597061	0.268497	1.045512
H774	H	0.847061	0.518497	1.295512
H775	H	1.097061	0.768497	1.545512
H776	H	1.347061	1.018497	1.795512
C777	C	-0.186093	0.156127	0.156368
C778	C	0.063907	0.406127	0.406368
C779	C	0.313907	0.656127	0.656368
C780	C	0.563907	0.906127	0.906368
N781	N	-0.205520	0.132281	0.132608
N782	N	0.044480	0.382281	0.382608
N783	N	0.294480	0.632281	0.632608
N784	N	0.544480	0.882281	0.882608
H785	H	0.036441	0.135556	0.135871
H786	H	0.286441	0.385556	0.385871
H787	H	0.536441	0.635556	0.635871
H788	H	0.786441	0.885556	0.885871
C789	C	0.709433	0.380809	0.156255
C790	C	0.959433	0.630809	0.406255
C791	C	1.209433	0.880809	0.656255
C792	C	1.459433	1.130809	0.906255
N793	N	0.733248	0.361365	0.132468
N794	N	0.983248	0.611365	0.382468
N795	N	1.233248	0.861365	0.632468
N796	N	1.483248	1.111365	0.882468
C797	C	0.709549	0.156166	0.479856
C798	C	0.959549	0.406166	0.729856
C799	C	1.209549	0.656166	0.979856
C800	C	1.459549	0.906166	1.229856
N801	N	0.733381	0.132359	0.499292
N802	N	0.983381	0.382359	0.749292
N803	N	1.233381	0.632359	0.999292
N804	N	1.483381	0.882359	1.249292
C805	C	0.560060	0.737463	0.305553
C806	C	0.810060	0.987463	0.555553
C807	C	1.060060	1.237463	0.805553
C808	C	1.310060	1.487463	1.055553
N809	N	0.536240	0.718047	0.329346
N810	N	0.786240	0.968047	0.579346
N811	N	1.036240	1.218047	0.829346
N812	N	1.286240	1.468047	1.079346
C813	C	0.560010	0.596703	0.305538
C814	C	0.810010	0.846703	0.555538
C815	C	1.060010	1.096703	0.805538
C816	C	1.310010	1.346703	1.055538
N817	N	0.536182	0.577285	0.329320
N818	N	0.786182	0.827285	0.579320
N819	N	1.036182	1.077285	0.829320
N820	N	1.286182	1.327285	1.079320
C821	C	0.386294	0.156089	0.156299
C822	C	0.636294	0.406089	0.406299
C823	C	0.886294	0.656089	0.656299
C824	C	1.136294	0.906089	0.906299
N825	N	0.366863	0.132245	0.132539
N826	N	0.616863	0.382245	0.382539
N827	N	0.866863	0.632245	0.632539
N828	N	1.116863	0.882245	0.882539
C829	C	0.588708	0.479401	0.276815
C830	C	0.838708	0.729401	0.526815
C831	C	1.088708	0.979401	0.776815
C832	C	1.338708	1.229401	1.026815
N833	N	0.564894	0.498846	0.300602
N834	N	0.814894	0.748846	0.550602
N835	N	1.064894	0.998846	0.800602
N836	N	1.314894	1.248846	1.050602
H837	H	0.730097	0.135623	0.603875
H838	H	0.980097	0.385623	0.853875
H839	H	1.230097	0.635623	1.103875
H840	H	1.480097	0.885623	1.353875
C841	C	0.738325	0.127392	0.695685
C842	C	0.988325	0.377392	0.945685
C843	C	1.238325	0.627392	1.195685
C844	C	1.488325	0.877392	1.445685
N845	N	0.762160	0.103587	0.715120
N846	N	1.012160	0.353587	0.965120
N847	N	1.262160	0.603587	1.215120
N848	N	1.512160	0.853587	1.465120
C849	C	0.709474	0.479324	0.156267
C850	C	0.959474	0.729324	0.406267
C851	C	1.209474	0.979324	0.656267
C852	C	1.459474	1.229324	0.906267
N853	N	0.733303	0.498739	0.132483
N854	N	0.983303	0.748739	0.382483
N855	N	1.233303	0.998739	0.632483
N856	N	1.483303	1.248739	0.882483
C857	C	0.709608	0.156044	1.052267
C858	C	0.959608	0.406044	1.302267
C859	C	1.209608	0.656044	1.552267
C860	C	1.459608	0.906044	1.802267
N861	N	0.733427	0.132237	1.071719
N862	N	0.983427	0.382237	1.321719
N863	N	1.233427	0.632237	1.571719
N864	N	1.483427	0.882237	1.821719
H865	H	0.121547	0.135551	0.135861
H866	H	0.371547	0.385551	0.385861
H867	H	0.621547	0.635551	0.635861
H868	H	0.871547	0.885551	0.885861
H869	H	0.597044	0.268511	0.960404
H870	H	0.847044	0.518511	1.210404
H871	H	1.097044	0.768511	1.460404
H872	H	1.347044	1.018511	1.710404
H873	H	0.596984	0.268637	0.388000
H874	H	0.846984	0.518637	0.638000
H875	H	1.096984	0.768637	0.888000
H876	H	1.346984	1.018637	1.138000
H877	H	0.121538	0.297512	0.297278
H878	H	0.371538	0.547512	0.547278
H879	H	0.621538	0.797512	0.797278
H880	H	0.871538	1.047512	1.047278
