data_functionalizedCrystal
_audit_creation_method	'MofGen! by Chris Wilmer'
_symmetry_space_group_name_H-M	'P1'
_symmetry_Int_Tables_number	1
_symmetry_cell_setting	triclinic
loop_
_symmetry_equiv_pos_as_xyz
  x,y,z
_cell_length_a	13.032831
_cell_length_b	19.805405
_cell_length_c	19.805399
_cell_angle_alpha	90.030709
_cell_angle_beta	82.812902
_cell_angle_gamma	97.169491
loop_
_atom_site_label
_atom_site_type_symbol
_atom_site_fract_x
_atom_site_fract_y
_atom_site_fract_z
Zn1	Zn	1.597543	0.401078	-0.513858
Zn2	Zn	1.597419	0.514259	-0.400656
Zn3	Zn	1.422799	0.386704	-0.386338
Zn4	Zn	1.422735	0.499829	-0.499463
O5	O	1.510124	0.450467	-0.450079
O6	O	1.743763	0.428146	-0.510859
O7	O	1.574231	0.497361	-0.304038
O8	O	1.446058	0.293900	-0.403286
O9	O	1.743672	0.511300	-0.427690
O10	O	1.574441	0.304461	-0.496974
O11	O	1.445939	0.403647	-0.293518
O12	O	1.276554	0.389655	-0.389327
O13	O	1.445948	0.486706	-0.596091
O14	O	1.276507	0.472768	-0.472440
O15	O	1.574379	0.414154	-0.606667
O16	O	1.574168	0.607055	-0.413731
O17	O	1.445829	0.596453	-0.486324
C18	C	1.238613	0.428087	-0.427768
C19	C	1.122459	0.418529	-0.418239
C20	C	1.510006	0.626314	-0.450036
C21	C	1.510052	0.701549	-0.450049
C22	C	1.510170	0.450424	-0.626625
C23	C	1.510189	0.450406	-0.701859
C24	C	1.070678	0.455456	-0.455052
C25	C	0.950627	0.445578	-0.445204
C26	C	1.782695	0.472936	-0.472477
C27	C	1.898849	0.482510	-0.482022
C28	C	1.510271	0.273937	-0.450139
C29	C	1.510333	0.198710	-0.450164
C30	C	1.576943	0.742397	-0.412300
C31	C	1.576988	0.813089	-0.412319
C32	C	1.510134	0.842932	-0.450083
C33	C	1.443240	0.802079	-0.487835
C34	C	1.443202	0.731389	-0.487820
C35	C	1.443394	1.087165	-0.487898
C36	C	1.443435	1.157861	-0.487909
C37	C	1.577180	1.168865	-0.412397
C38	C	1.577142	1.098175	-0.412382
C39	C	1.510252	1.057329	-0.450137
C40	C	1.510206	0.980677	-0.450118
C41	C	1.510174	0.919582	-0.450099
C42	C	1.443407	0.401606	-0.731726
C43	C	1.443421	0.401594	-0.802416
C44	C	1.510224	0.450379	-0.843238
C45	C	1.577010	0.499184	-0.813365
C46	C	1.576990	0.499198	-0.742677
C47	C	1.577093	0.499127	-1.098446
C48	C	1.577110	0.499108	-1.169139
C49	C	1.443524	0.401523	-1.158185
C50	C	1.443504	0.401538	-1.087496
C51	C	1.510285	0.450344	-1.057630
C52	C	1.510267	0.450357	-0.980980
C53	C	1.510248	0.450364	-0.919887
C54	C	1.510139	0.450466	-0.274224
C55	C	1.510322	0.450311	-0.199007
H56	H	1.115224	0.494381	-0.493861
H57	H	1.388928	1.053914	-0.518639
H58	H	0.943389	0.521437	-0.520836
Cl59	Cl	1.359387	1.195377	-0.535388
H60	H	1.388812	0.826384	-0.518586
H61	H	1.631576	1.073879	-0.381629
Cl62	Cl	1.053693	0.358421	-0.358326
Cl63	Cl	1.359425	0.340270	-0.680415
H64	H	0.906086	0.406645	-0.406397
Cl65	Cl	1.661055	0.560480	-1.060909
Cl66	Cl	1.660986	0.704886	-0.364818
Cl67	Cl	1.661087	0.864437	-0.364864
Cl68	Cl	1.661278	1.220219	-0.364936
H69	H	1.388733	0.698132	-0.518560
Cl70	Cl	1.660986	0.560518	-0.864683
H71	H	1.389036	0.361859	-0.826730
Cl72	Cl	1.359523	0.340204	-1.036182
H73	H	1.389144	0.361785	-1.182510
Cl74	Cl	1.661097	0.560444	-1.220457
Cl75	Cl	1.660944	0.560552	-0.705129
