data_functionalizedCrystal
_audit_creation_method	'MofGen! by Chris Wilmer'
_symmetry_space_group_name_H-M	'P1'
_symmetry_Int_Tables_number	1
_symmetry_cell_setting	triclinic
loop_
_symmetry_equiv_pos_as_xyz
  x,y,z
_cell_length_a	12.759401
_cell_length_b	12.594516
_cell_length_c	12.759393
_cell_angle_alpha	89.971950
_cell_angle_beta	89.979062
_cell_angle_gamma	90.017577
loop_
_atom_site_label
_atom_site_type_symbol
_atom_site_fract_x
_atom_site_fract_y
_atom_site_fract_z
Zn1	Zn	1.606257	-0.423647	-0.594038
Zn2	Zn	2.106257	0.076353	-0.094038
Zn3	Zn	1.606143	-0.601663	-0.418366
Zn4	Zn	2.106143	-0.101663	0.081634
Zn5	Zn	1.430555	-0.423704	-0.418373
Zn6	Zn	1.930555	0.076296	0.081627
Zn7	Zn	1.430543	-0.601589	-0.594003
Zn8	Zn	1.930543	-0.101589	-0.094003
O9	O	1.518375	-0.512651	-0.506195
O10	O	2.018375	-0.012651	-0.006195
O11	O	1.753263	-0.447269	-0.570746
O12	O	2.253263	0.052731	-0.070746
O13	O	1.582809	-0.578111	-0.271345
O14	O	2.082809	-0.078111	0.228655
O15	O	1.453915	-0.274751	-0.441693
O16	O	1.953915	0.225249	0.058307
O17	O	1.753179	-0.578056	-0.441680
O18	O	2.253179	-0.078056	0.058320
O19	O	1.583002	-0.274709	-0.570754
O20	O	2.083002	0.225291	-0.070754
O21	O	1.453805	-0.447365	-0.271351
O22	O	1.953805	0.052635	0.228649
O23	O	1.283533	-0.447293	-0.441659
O24	O	1.783533	0.052707	0.058341
O25	O	1.453894	-0.577930	-0.741029
O26	O	1.953894	-0.077930	-0.241029
O27	O	1.283524	-0.577985	-0.570694
O28	O	1.783524	-0.077985	-0.070694
O29	O	1.582990	-0.447197	-0.741054
O30	O	2.082990	0.052803	-0.241054
O31	O	1.582797	-0.750599	-0.441646
O32	O	2.082797	-0.250599	0.058354
O33	O	1.453784	-0.750545	-0.570686
O34	O	1.953784	-0.250545	-0.070686
C35	C	1.245407	-0.512638	-0.506174
C36	C	1.745407	-0.012638	-0.006174
C37	C	1.128631	-0.512658	-0.506190
C38	C	1.628631	-0.012658	-0.006190
C39	C	1.073791	-0.580812	-0.573272
C40	C	1.573791	-0.080812	-0.073272
C41	C	0.964067	-0.580817	-0.573293
C42	C	1.464067	-0.080817	-0.073293
C43	C	0.964031	-0.444509	-0.439140
C44	C	1.464031	0.055491	0.060860
C45	C	1.073753	-0.444500	-0.439125
C46	C	1.573753	0.055500	0.060875
C47	C	1.518306	-0.789192	-0.506185
C48	C	2.018306	-0.289192	-0.006185
C49	C	1.518372	-0.907497	-0.506215
C50	C	2.018372	-0.407497	-0.006215
C51	C	1.448195	-0.976759	-0.576351
C52	C	1.948195	-0.476759	-0.076351
C53	C	1.422594	-1.047629	-0.480484
C54	C	1.922594	-0.547629	0.019516
C55	C	1.544069	-1.047427	-0.602099
C56	C	2.044069	-0.547427	-0.102099
C57	C	1.492721	-0.976808	-0.410297
C58	C	1.992721	-0.476808	0.089703
C59	C	1.614240	-0.976600	-0.531977
C60	C	2.114240	-0.476600	-0.031977
C61	C	1.588675	-1.047438	-0.436044
C62	C	2.088675	-0.547438	0.063956
C63	C	1.792408	-0.512665	-0.506216
C64	C	2.292408	-0.012665	-0.006216
C65	C	1.909184	-0.512671	-0.506226
C66	C	2.409184	-0.012671	-0.006226
C67	C	1.518453	-0.512549	-0.780228
C68	C	2.018453	-0.012549	-0.280228
C69	C	1.518487	-0.512505	-0.897005
C70	C	2.018487	-0.012505	-0.397005
C71	C	1.518472	-0.235030	-0.506228
C72	C	2.018472	0.264970	-0.006228
C73	C	1.518514	-0.116725	-0.506242
C74	C	2.018514	0.383275	-0.006242
C75	C	1.585712	-0.444422	-0.951882
C76	C	2.085712	0.055578	-0.451882
C77	C	1.585730	-0.444376	-1.061606
C78	C	2.085730	0.055624	-0.561606
C79	C	1.451294	-0.580506	-1.061567
C80	C	1.951294	-0.080506	-0.561567
C81	C	1.451272	-0.580546	-0.951844
C82	C	1.951272	-0.080546	-0.451844
C83	C	1.518357	-0.512676	-0.233228
C84	C	2.018357	-0.012676	0.266772
C85	C	1.518527	-0.512420	-0.116451
C86	C	2.018527	-0.012420	0.383549
H87	H	1.388743	-0.945724	-0.635576
H88	H	1.888743	-0.445724	-0.135576
H89	H	1.640440	-0.389016	-0.907235
H90	H	2.140440	0.110984	-0.407235
O91	O	1.385933	-0.646789	-0.898692
O92	O	1.885933	-0.146789	-0.398692
C93	C	1.326601	-0.706823	-0.970620
C94	C	1.826601	-0.206823	-0.470620
H95	H	1.369646	-0.710488	-1.048842
H96	H	1.869646	-0.210488	-0.548842
H97	H	1.315357	-0.790693	-0.938900
H98	H	1.815357	-0.290693	-0.438900
H99	H	1.246825	-0.667836	-0.982281
H100	H	1.746825	-0.167836	-0.482281
H101	H	0.919422	-0.636313	-0.627920
H102	H	1.419422	-0.136313	-0.127920
H103	H	1.118469	-0.636308	-0.627883
H104	H	1.618469	-0.136308	-0.127883
O105	O	1.127078	-0.378179	-0.374106
O106	O	1.627078	0.121821	0.125894
C107	C	1.190610	-0.309522	-0.434030
C108	C	1.690610	0.190478	0.065970
H109	H	1.157583	-0.303049	-0.516790
H110	H	1.657583	0.196951	-0.016790
H111	H	1.191860	-0.227563	-0.396168
H112	H	1.691860	0.272437	0.103832
H113	H	1.273760	-0.342432	-0.437587
H114	H	1.773760	0.157568	0.062413
H115	H	0.919337	-0.389018	-0.384537
H116	H	1.419337	0.110982	0.115463
O117	O	1.710809	-0.939170	-0.557930
O118	O	2.210809	-0.439170	-0.057930
C119	C	1.709595	-0.827237	-0.556630
C120	C	2.209595	-0.327237	-0.056630
H121	H	1.643174	-0.798479	-0.504047
H122	H	2.143174	-0.298479	-0.004047
H123	H	1.787533	-0.796557	-0.525166
H124	H	2.287533	-0.296557	-0.025166
H125	H	1.697096	-0.796163	-0.639622
H126	H	2.197096	-0.296163	-0.139622
H127	H	1.341587	-1.078851	-0.458716
H128	H	1.841587	-0.578851	0.041284
H129	H	1.470950	-0.945916	-0.329198
H130	H	1.970950	-0.445916	0.170802
H131	H	1.648082	-1.078276	-0.376676
H132	H	2.148082	-0.578276	0.123324
H133	H	1.640470	-0.388934	-1.106282
H134	H	2.140470	0.111066	-0.606282
H135	H	1.565747	-1.078448	-0.683176
H136	H	2.065747	-0.578448	-0.183176
H137	H	1.396572	-0.635905	-1.106230
H138	H	1.896572	-0.135905	-0.606230
