data_functionalizedCrystal
_audit_creation_method	'MofGen! by Chris Wilmer'
_symmetry_space_group_name_H-M	'P1'
_symmetry_Int_Tables_number	1
_symmetry_cell_setting	triclinic
loop_
_symmetry_equiv_pos_as_xyz
  x,y,z
_cell_length_a	10.654583
_cell_length_b	10.654550
_cell_length_c	9.130313
_cell_angle_alpha	90.000110
_cell_angle_beta	90.005937
_cell_angle_gamma	84.491717
loop_
_atom_site_label
_atom_site_type_symbol
_atom_site_fract_x
_atom_site_fract_y
_atom_site_fract_z
O1	O	-1.667810	-0.176592	-0.121989
O2	O	-1.302337	-0.193355	-0.121949
O3	O	-1.493476	-0.002235	-0.121965
O4	O	-1.476670	-0.367712	-0.121974
O5	O	-1.493474	-0.002240	0.121634
O6	O	-1.302334	-0.193360	0.121650
O7	O	-1.667807	-0.176597	0.121610
Cu8	Cu	-1.485071	-0.184979	0.143872
Cu9	Cu	-1.485073	-0.184973	-0.144212
O10	O	-1.476668	-0.367717	0.121625
C11	C	-1.255538	-0.192118	-0.000145
C12	C	-1.116097	-0.188409	-0.000129
C13	C	-1.050565	-0.186682	0.132649
C14	C	-0.919544	-0.183208	0.132632
C15	C	-0.919597	-0.183193	-0.132953
C16	C	-1.050617	-0.186658	-0.132935
C17	C	-1.050533	-0.186696	0.285982
C18	C	-0.919512	-0.183222	0.285966
C19	C	-1.492241	0.044560	-0.000167
C20	C	-1.488549	0.184004	-0.000172
C21	C	-0.714608	-0.177816	-0.000183
C22	C	-0.854056	-0.181469	-0.000164
C23	C	-1.477903	-0.414512	-0.000176
C24	C	-1.481595	-0.553956	-0.000181
N25	N	-1.485078	-0.184983	0.346495
C26	C	-1.601089	0.263476	-0.000179
C27	C	-1.597612	0.394497	-0.000189
C28	C	-1.369046	0.366561	-0.000177
C29	C	-1.372524	0.235543	-0.000178
C30	C	-1.733050	0.279606	-0.000180
C31	C	-1.729573	0.410627	-0.000190
N32	N	-1.485076	-0.184960	-0.346834
C33	C	-1.569736	-0.100384	0.423140
C34	C	-1.569733	-0.100369	0.576477
C35	C	-1.400408	-0.269562	0.576510
C36	C	-1.400407	-0.269570	0.423176
C37	C	-1.667498	-0.002705	0.423122
C38	C	-1.667495	-0.002690	0.576459
H39	H	-1.280883	0.170840	-0.000192
O40	O	-1.788288	-0.043211	0.360104
H41	H	-1.801083	-0.140226	0.397712
O42	O	-1.243911	0.422155	-0.000159
H43	H	-1.236863	0.481187	-0.099439
H44	H	-1.096792	-0.099907	0.344865
O45	O	-1.795325	-0.031226	0.631574
H46	H	-1.784793	-0.118219	0.699113
H47	H	-1.646056	0.093830	0.381507
O48	O	-1.309097	-0.360805	0.659213
H49	H	-1.323324	-0.346593	0.778714
O50	O	-1.782404	0.471104	-0.139504
H51	H	-1.813230	0.397211	-0.213356
O52	O	-1.089716	-0.308024	0.349003
H53	H	-1.194055	-0.305830	0.346409
O54	O	-0.858194	-0.298182	0.363946
H55	H	-0.754330	-0.295341	0.363904
H56	H	-1.636982	0.088536	0.624012
H57	H	-1.103970	-0.188045	-0.241055
H58	H	-1.331460	-0.338446	0.360773
H59	H	-1.784666	0.250244	-0.102124
O60	O	-0.880308	-0.061906	0.349015
H61	H	-0.922430	0.018908	0.282988
O62	O	-1.788730	0.232399	0.139124
H63	H	-1.731040	0.257583	0.234015
O64	O	-0.848983	-0.181304	-0.276196
H65	H	-0.778859	-0.265174	-0.282581
O66	O	-1.795411	0.465949	0.134841
H67	H	-1.830389	0.389125	0.200965
