data_functionalizedCrystal
_audit_creation_method	'MofGen! by Chris Wilmer'
_symmetry_space_group_name_H-M	'P1'
_symmetry_Int_Tables_number	1
_symmetry_cell_setting	triclinic
loop_
_symmetry_equiv_pos_as_xyz
  x,y,z
_cell_length_a	12.645331
_cell_length_b	25.639239
_cell_length_c	12.645323
_cell_angle_alpha	89.968126
_cell_angle_beta	89.977324
_cell_angle_gamma	90.037665
loop_
_atom_site_label
_atom_site_type_symbol
_atom_site_fract_x
_atom_site_fract_y
_atom_site_fract_z
Zn1	Zn	1.620577	-0.208161	-0.599395
Zn2	Zn	1.620393	-0.295600	-0.422113
Zn3	Zn	1.443291	-0.208179	-0.422139
Zn4	Zn	1.443208	-0.295566	-0.599328
O5	O	1.531867	-0.251876	-0.510744
O6	O	1.768900	-0.219767	-0.575895
O7	O	1.596858	-0.284025	-0.273769
O8	O	1.466920	-0.135011	-0.445691
O9	O	1.768765	-0.284008	-0.445647
O10	O	1.597171	-0.134998	-0.575920
O11	O	1.466742	-0.219797	-0.273788
O12	O	1.294933	-0.219764	-0.445627
O13	O	1.466778	-0.283949	-0.747685
O14	O	1.294872	-0.283967	-0.575807
O15	O	1.597090	-0.219734	-0.747733
O16	O	1.596778	-0.368760	-0.445582
O17	O	1.466600	-0.368735	-0.575782
C18	C	1.256438	-0.251864	-0.510713
C19	C	1.138607	-0.251871	-0.510725
C20	C	0.971047	-0.211295	-0.429281
C21	C	1.093606	-0.211400	-0.428922
C22	C	1.094046	-0.306949	-0.480197
C23	C	0.971448	-0.306727	-0.479641
C24	C	0.971468	-0.237893	-0.623013
C25	C	1.094075	-0.236663	-0.622389
C26	C	1.531689	-0.387719	-0.510695
C27	C	1.531710	-0.445833	-0.510710
C28	C	1.599827	-0.806196	-0.443064
C29	C	1.599869	-0.860801	-0.443079
O30	O	1.657600	-0.889038	-0.385511
N31	N	1.532054	-0.888115	-0.510814
C32	C	1.464201	-0.860823	-0.578547
O33	O	1.406523	-0.889070	-0.636163
C34	C	1.464166	-0.806219	-0.578538
C35	C	1.531978	-0.778908	-0.510790
C36	C	1.667635	-0.778884	-0.375323
C37	C	1.667592	-0.724284	-0.375308
C38	C	1.599742	-0.696995	-0.443034
C39	C	1.531935	-0.724307	-0.510775
C40	C	1.396319	-0.778928	-0.646275
C41	C	1.396290	-0.724321	-0.646260
C42	C	1.464102	-0.697009	-0.578513
C43	C	1.464042	-0.642418	-0.578485
N44	N	1.531857	-0.615103	-0.510750
C45	C	1.599707	-0.642392	-0.443024
C46	C	1.464281	-0.975493	-0.578564
C47	C	1.464309	-1.030096	-0.578569
C48	C	1.599979	-1.030070	-0.443101
C49	C	1.599944	-0.975466	-0.443092
C50	C	1.532096	-0.948179	-0.510828
C51	C	1.599611	-0.527727	-0.442997
C52	C	1.599560	-0.473122	-0.442984
C53	C	1.463894	-0.473152	-0.578455
C54	C	1.463942	-0.527753	-0.578464
C55	C	1.531809	-0.555039	-0.510731
O56	O	1.406343	-0.614146	-0.636027
O57	O	1.657385	-0.614138	-0.385428
C58	C	1.808372	-0.251889	-0.510775
C59	C	1.926203	-0.251895	-0.510788
C60	C	1.531945	-0.251836	-0.787249
C61	C	1.531979	-0.251819	-0.905079
C62	C	1.532075	-0.115503	-0.510816
C63	C	1.532164	-0.057389	-0.510846
C64	C	1.449747	-0.292026	-1.072613
C65	C	1.449962	-0.292225	-0.950053
C66	C	1.643667	-0.266773	-0.949595
C67	C	1.643216	-0.267025	-1.072194
C68	C	1.503578	-0.196432	-1.072291
C69	C	1.501086	-0.196764	-0.949684
C70	C	1.531850	-0.251879	-0.235314
C71	C	1.532023	-0.251749	-0.117485
H72	H	1.123209	-0.196132	-0.645409
C73	C	1.728709	-0.228400	-0.910244
C74	C	1.844807	-0.235497	-0.944078
C75	C	1.929847	-0.197124	-0.904724
C76	C	1.898790	-0.151654	-0.831536
C77	C	1.782687	-0.144556	-0.797697
C78	C	1.697647	-0.182929	-0.837051
H79	H	1.867802	-0.269158	-0.998260
H80	H	2.015794	-0.202379	-0.929774
H81	H	1.961742	-0.123248	-0.802403
H82	H	1.759692	-0.110895	-0.743515
H83	H	1.611699	-0.177674	-0.812001
H84	H	1.667331	-0.307463	-1.100794
C85	C	0.932729	-0.322763	-0.368808
C86	C	0.863867	-0.285127	-0.303569
C87	C	0.825155	-0.301161	-0.192732
C88	C	0.855305	-0.354832	-0.147133
C89	C	0.924171	-0.392471	-0.212372
C90	C	0.962883	-0.376437	-0.323209
H91	H	0.841544	-0.245394	-0.337324
H92	H	0.774175	-0.273298	-0.144438
H93	H	0.826648	-0.366702	-0.065085
H94	H	0.946493	-0.432204	-0.178618
H95	H	1.013862	-0.404300	-0.371503
C96	C	1.728857	-0.229129	-1.112306
C97	C	1.797443	-0.198736	-1.032781
C98	C	1.883094	-0.160847	-1.072889
C99	C	1.900159	-0.153353	-1.192521
C100	C	1.831572	-0.183747	-1.272053
C101	C	1.745921	-0.221635	-1.231946
H102	H	1.784811	-0.204283	-0.944216
H103	H	1.933866	-0.138347	-1.014013
H104	H	1.963563	-0.125305	-1.222211
H105	H	1.844203	-0.178200	-1.360619
H106	H	1.695149	-0.244135	-1.290822
H107	H	1.409080	-1.052328	-0.633725
C108	C	0.932288	-0.277839	-0.705058
C109	C	0.866017	-0.259598	-0.800273
C110	C	0.826830	-0.299546	-0.882306
C111	C	0.853914	-0.357736	-0.869123
C112	C	0.920189	-0.375980	-0.773904
C113	C	0.959376	-0.336031	-0.691871
H114	H	0.845964	-0.216520	-0.810035
H115	H	0.777768	-0.286041	-0.952793
H116	H	0.824905	-0.387308	-0.929848
H117	H	0.940242	-0.419058	-0.764141
H118	H	1.008437	-0.349537	-0.621383
H119	H	1.124693	-0.319027	-0.399035
H120	H	1.123737	-0.170558	-0.448058
H121	H	1.655230	-1.052298	-0.387959
H122	H	1.409021	-0.953278	-0.633720
H123	H	1.123193	-0.338007	-0.537699
H124	H	1.668196	-0.306787	-0.918897
H125	H	0.940601	-0.198432	-0.650774
H126	H	1.468736	-0.333234	-0.920729
C127	C	1.584524	-0.155888	-1.111498
C128	C	1.651527	-0.125053	-1.031326
C129	C	1.732475	-0.084514	-1.070540
C130	C	1.746420	-0.074811	-1.189925
C131	C	1.679415	-0.105647	-1.270104
C132	C	1.598467	-0.146186	-1.230891
H133	H	1.641206	-0.132235	-0.942944
H134	H	1.782076	-0.061687	-1.011185
H135	H	1.806342	-0.044802	-1.218953
H136	H	1.689736	-0.098465	-1.358487
H137	H	1.548866	-0.169013	-1.290245
H138	H	0.941613	-0.170330	-0.448212
H139	H	1.122877	-0.220654	-0.345759
C140	C	1.321650	-0.694305	-0.720769
C141	C	1.201147	-0.701878	-0.712010
C142	C	1.126505	-0.671863	-0.786514
C143	C	1.172365	-0.634274	-0.869778
C144	C	1.292874	-0.626698	-0.878541
C145	C	1.367517	-0.656714	-0.804037
H146	H	1.167193	-0.729706	-0.650370
H147	H	1.037296	-0.677471	-0.780027
H148	H	1.117111	-0.612055	-0.924931
H149	H	1.326829	-0.598871	-0.940181
H150	H	1.456725	-0.651106	-0.810524
H151	H	0.940192	-0.220447	-0.346607
C152	C	1.674545	-0.945426	-0.368576
C153	C	1.757732	-0.907836	-0.414579
C154	C	1.832339	-0.877800	-0.340063
C155	C	1.823759	-0.885353	-0.219543
C156	C	1.740568	-0.922945	-0.173534
C157	C	1.665961	-0.952981	-0.248051
H158	H	1.764087	-0.902243	-0.503801
H159	H	1.893923	-0.849972	-0.374123
H160	H	1.878988	-0.863118	-0.164382
H161	H	1.734214	-0.928538	-0.084313
H162	H	1.604378	-0.980809	-0.213991
C163	C	1.742199	-0.694248	-0.300792
C164	C	1.733627	-0.701808	-0.180274
C165	C	1.808243	-0.671777	-0.105756
C166	C	1.891431	-0.634186	-0.151757
C167	C	1.900006	-0.626625	-0.272282
C168	C	1.825390	-0.656656	-0.346799
H169	H	1.672044	-0.729636	-0.146216
H170	H	1.801895	-0.677374	-0.016536
H171	H	1.946666	-0.611956	-0.096595
H172	H	1.961589	-0.598797	-0.306340
H173	H	1.831738	-0.651058	-0.436020
H174	H	1.124713	-0.264076	-0.686368
C175	C	1.321727	-0.808959	-0.720808
C176	C	1.201215	-0.801504	-0.712061
C177	C	1.126619	-0.831533	-0.786602
C178	C	1.172536	-0.869016	-0.869891
C179	C	1.293055	-0.876472	-0.878642
C180	C	1.367651	-0.846444	-0.804101
H181	H	1.167218	-0.773755	-0.650402
H182	H	1.037403	-0.826013	-0.780123
H183	H	1.117316	-0.891245	-0.925071
H184	H	1.327052	-0.904221	-0.940301
H185	H	1.456867	-0.851964	-0.810580
H186	H	1.408727	-0.549991	-0.633633
C187	C	1.389266	-0.443126	-0.652952
C188	C	1.306043	-0.405640	-0.606932
C189	C	1.231422	-0.375612	-0.681436
C190	C	1.240023	-0.383070	-0.801960
C191	C	1.323250	-0.420558	-0.847986
C192	C	1.397871	-0.450586	-0.773483
H193	H	1.299673	-0.400117	-0.517708
H194	H	1.169812	-0.347860	-0.647364
H195	H	1.184784	-0.360841	-0.857112
H196	H	1.329620	-0.426081	-0.937211
H197	H	1.459481	-0.478337	-0.807555
H198	H	1.722892	-0.801097	-0.320173
H199	H	1.556637	-0.165168	-0.919071
C200	C	1.338073	-0.279582	-0.909394
C201	C	1.285561	-0.227349	-0.938575
C202	C	1.173664	-0.214706	-0.897928
C203	C	1.114280	-0.254297	-0.828101
C204	C	1.166792	-0.306533	-0.798917
C205	C	1.278689	-0.319175	-0.839563
H206	H	1.329521	-0.198039	-0.990268
H207	H	1.134792	-0.176038	-0.919533
H208	H	1.031448	-0.244938	-0.798012
H209	H	1.122832	-0.335843	-0.747223
H210	H	1.317561	-0.357844	-0.817958
C211	C	1.337521	-0.279508	-1.112423
C212	C	1.319207	-0.232560	-1.186166
C213	C	1.206978	-0.220041	-1.225985
C214	C	1.113063	-0.254470	-1.192062
C215	C	1.131374	-0.301421	-1.118316
C216	C	1.243603	-0.313940	-1.078496
H217	H	1.388731	-0.207071	-1.211281
H218	H	1.193423	-0.185285	-1.280578
H219	H	1.029985	-0.245203	-1.221539
H220	H	1.061850	-0.326910	-1.093200
H221	H	1.257158	-0.348696	-1.023904
C222	C	1.474854	-0.347082	-1.114228
C223	C	1.569657	-0.355591	-1.188705
C224	C	1.594767	-0.410646	-1.230321
C225	C	1.525074	-0.457193	-1.197461
C226	C	1.430265	-0.448686	-1.122979
C227	C	1.405155	-0.393631	-1.081363
H228	H	1.621253	-0.321132	-1.213034
H229	H	1.664951	-0.416943	-1.285457
H230	H	1.543663	-0.497948	-1.228268
H231	H	1.378669	-0.483144	-1.098650
H232	H	1.334971	-0.387334	-1.026227
C233	C	1.395468	-0.178016	-1.114030
C234	C	1.295340	-0.210274	-1.090820
C235	C	1.187225	-0.191865	-1.132559
C236	C	1.179238	-0.141197	-1.197508
C237	C	1.279370	-0.108936	-1.220722
C238	C	1.387484	-0.127345	-1.178983
H239	H	1.301250	-0.247784	-1.042737
H240	H	1.113101	-0.215747	-1.115374
H241	H	1.099205	-0.127569	-1.228406
H242	H	1.273460	-0.071426	-1.268804
H243	H	1.461608	-0.103463	-1.196167
C244	C	1.390051	-0.181523	-0.910380
C245	C	1.327692	-0.218877	-0.838122
C246	C	1.216656	-0.203639	-0.798811
C247	C	1.167978	-0.151047	-0.831759
C248	C	1.230336	-0.113690	-0.904021
C249	C	1.341373	-0.128928	-0.943331
H250	H	1.363726	-0.257812	-0.813728
H251	H	1.170494	-0.231294	-0.745318
H252	H	1.085782	-0.139767	-0.802659
H253	H	1.194302	-0.074755	-0.928414
H254	H	1.387535	-0.101274	-0.996825
H255	H	0.941780	-0.338001	-0.536418
H256	H	1.654780	-0.450886	-0.387812
H257	H	1.654878	-0.549937	-0.387844
