data_functionalizedCrystal
_audit_creation_method	'MofGen! by Chris Wilmer'
_symmetry_space_group_name_H-M	'P1'
_symmetry_Int_Tables_number	1
_symmetry_cell_setting	triclinic
loop_
_symmetry_equiv_pos_as_xyz
  x,y,z
_cell_length_a	19.188879
_cell_length_b	14.853567
_cell_length_c	17.666332
_cell_angle_alpha	90.006378
_cell_angle_beta	89.983726
_cell_angle_gamma	96.620496
loop_
_atom_site_label
_atom_site_type_symbol
_atom_site_fract_x
_atom_site_fract_y
_atom_site_fract_z
O1	O	-0.091159	1.195843	0.062913
O2	O	0.242174	1.529176	0.396246
O3	O	0.575508	1.862509	0.729580
O4	O	-0.102018	0.933320	0.062928
O5	O	0.231315	1.266654	0.396261
O6	O	0.564649	1.599987	0.729595
O7	O	0.005044	1.072181	0.062896
O8	O	0.338378	1.405514	0.396230
O9	O	0.671711	1.738848	0.729563
O10	O	-0.198221	1.056982	0.062945
O11	O	0.135112	1.390315	0.396278
O12	O	0.468445	1.723648	0.729611
O13	O	0.005050	1.072157	-0.063000
O14	O	0.338383	1.405490	0.270333
O15	O	0.671717	1.738823	0.603666
O16	O	-0.102012	0.933296	-0.062969
O17	O	0.231321	1.266629	0.270365
O18	O	0.564654	1.599963	0.603698
O19	O	-0.091153	1.195818	-0.062984
O20	O	0.242180	1.529152	0.270350
O21	O	0.575513	1.862485	0.603683
Cu22	Cu	-0.096582	1.064555	-0.074472
Cu23	Cu	0.236751	1.397888	0.258862
Cu24	Cu	0.570084	1.731222	0.592195
Cu25	Cu	-0.096589	1.064584	0.074416
Cu26	Cu	0.236744	1.397917	0.407749
Cu27	Cu	0.570078	1.731250	0.741083
O28	O	-0.198215	1.056958	-0.062952
O29	O	0.135118	1.390291	0.270381
O30	O	0.468451	1.723624	0.603715
C31	C	-0.101523	0.899722	-0.000019
C32	C	0.231810	1.233056	0.333315
C33	C	0.565144	1.566389	0.666648
C34	C	-0.100049	0.799647	-0.000014
C35	C	0.233285	1.132980	0.333319
C36	C	0.566618	1.466314	0.666652
C37	C	-0.030219	0.387518	-0.000048
C38	C	0.303115	0.720851	0.333286
C39	C	0.636448	1.054185	0.666619
C40	C	-0.157411	0.365500	-0.000017
C41	C	0.175922	0.698833	0.333317
C42	C	0.509256	1.032167	0.666650
C43	C	-0.158797	0.459526	-0.000014
C44	C	0.174536	0.792859	0.333319
C45	C	0.507869	1.126192	0.666653
C46	C	-0.095893	0.517552	-0.000027
C47	C	0.237440	0.850885	0.333306
C48	C	0.570773	1.184219	0.666640
C49	C	-0.031603	0.481553	-0.000043
C50	C	0.301730	0.814886	0.333291
C51	C	0.635064	1.148219	0.666624
C52	C	-0.223087	0.495532	0.000009
C53	C	0.110247	0.828865	0.333343
C54	C	0.443580	1.162199	0.666676
C55	C	-0.224476	0.589563	0.000013
C56	C	0.108858	0.922896	0.333346
C57	C	0.442191	1.256230	0.666680
C58	C	-0.161571	0.647591	-0.000005
C59	C	0.171763	0.980925	0.333328
C60	C	0.505096	1.314258	0.666661
C61	C	-0.097278	0.611587	-0.000022
C62	C	0.236056	0.944920	0.333311
C63	C	0.569389	1.278253	0.666645
C64	C	-0.034374	0.669613	-0.000035
C65	C	0.298960	1.002946	0.333298
C66	C	0.632293	1.336280	0.666632
C67	C	0.029920	0.633610	-0.000057
C68	C	0.363253	0.966944	0.333276
C69	C	0.696587	1.300277	0.666610
C70	C	0.031302	0.539581	-0.000061
C71	C	0.364635	0.872914	0.333272
C72	C	0.697968	1.206248	0.666605
C73	C	-0.162953	0.741621	-0.000001
C74	C	0.170381	1.074954	0.333332
C75	C	0.503714	1.408287	0.666665
C76	C	-0.035758	0.763648	-0.000030
C77	C	0.297575	1.096981	0.333303
C78	C	0.630908	1.430314	0.666637
C79	C	-0.224232	1.057454	0.000002
C80	C	0.109102	1.390788	0.333336
C81	C	0.442435	1.724121	0.666669
C82	C	-0.301743	1.058909	0.000021
C83	C	0.031590	1.392242	0.333354
C84	C	0.364924	1.725576	0.666687
C85	C	-0.338125	1.059602	-0.068609
C86	C	-0.004791	1.392935	0.264724
C87	C	0.328542	1.726268	0.598057
C88	C	-0.410952	1.060993	-0.068623
C89	C	-0.077619	1.394327	0.264711
C90	C	0.255714	1.727660	0.598044
C91	C	-0.447394	1.061710	-0.000002
C92	C	-0.114060	1.395043	0.333332
C93	C	0.219273	1.728377	0.666665
C94	C	-0.411004	1.061012	0.068637
C95	C	-0.077670	1.394345	0.401971
C96	C	0.255663	1.727679	0.735304
C97	C	-0.338178	1.059611	0.068649
C98	C	-0.004845	1.392945	0.401982
C99	C	0.328488	1.726278	0.735315
N100	N	-0.556594	1.115224	0.051058
N101	N	-0.223261	1.448557	0.384392
N102	N	0.110072	1.781890	0.717725
N103	N	-0.625775	1.116556	0.051043
N104	N	-0.292442	1.449889	0.384376
N105	N	0.040892	1.783223	0.717710
C106	C	-0.666812	1.065928	-0.000032
C107	C	-0.333479	1.399261	0.333302
C108	C	-0.000146	1.732595	0.666635
N109	N	-0.636054	1.013929	-0.051102
N110	N	-0.302721	1.347262	0.282232
N111	N	0.030612	1.680595	0.615565
N112	N	-0.566867	1.012600	-0.051089
N113	N	-0.233533	1.345934	0.282245
N114	N	0.099800	1.679267	0.615578
C115	C	-0.526360	1.063228	-0.000006
C116	C	-0.193027	1.396562	0.333327
C117	C	0.140306	1.729895	0.666660
C118	C	-0.782162	1.068128	-0.068681
C119	C	-0.448829	1.401462	0.264652
C120	C	-0.115496	1.734795	0.597986
C121	C	-0.854992	1.069514	-0.068691
C122	C	-0.521658	1.402848	0.264642
C123	C	-0.188325	1.736181	0.597975
C124	C	-0.855041	1.069542	0.068571
C125	C	-0.521708	1.402876	0.401904
C126	C	-0.188374	1.736209	0.735237
C127	C	-0.782214	1.068147	0.068579
C128	C	-0.448880	1.401481	0.401913
C129	C	-0.115547	1.734814	0.735246
C130	C	-0.745778	1.067445	-0.000049
C131	C	-0.412445	1.400778	0.333285
C132	C	-0.079112	1.734111	0.666618
C133	C	0.031060	1.071684	-0.000056
C134	C	0.364394	1.405018	0.333277
C135	C	0.697727	1.738351	0.666610
C136	C	0.108572	1.070230	-0.000070
C137	C	0.441905	1.403563	0.333264
C138	C	0.775238	1.736896	0.666597
C139	C	-0.091648	1.229416	-0.000035
C140	C	0.241685	1.562750	0.333298
C141	C	0.575019	1.896083	0.666631
C142	C	-0.093123	1.329492	-0.000035
C143	C	0.240211	1.662825	0.333299
C144	C	0.573544	1.996158	0.666632
N145	N	-0.096577	1.064541	-0.179191
N146	N	0.236756	1.397875	0.154142
N147	N	0.570090	1.731208	0.487476
C148	C	-0.049193	1.126049	-0.218815
C149	C	0.284140	1.459382	0.114519
C150	C	0.617474	1.792715	0.447852
C151	C	-0.049190	1.126054	-0.298062
C152	C	0.284144	1.459387	0.035271
C153	C	0.617477	1.792721	0.368604
C154	C	-0.096582	1.064560	-0.337683
C155	C	0.236751	1.397894	-0.004350
C156	C	0.570084	1.731227	0.328983
C157	C	-0.143970	1.003042	-0.298050
C158	C	0.189363	1.336375	0.035283
C159	C	0.522697	1.669708	0.368617
C160	C	-0.143967	1.003032	-0.218804
C161	C	0.189366	1.336365	0.114530
C162	C	0.522699	1.669699	0.447863
N163	N	-0.158352	1.052826	-0.462087
N164	N	0.174981	1.386160	-0.128753
N165	N	0.508315	1.719493	0.204580
N166	N	-0.158352	1.052841	-0.537367
N167	N	0.174981	1.386174	-0.204034
N168	N	0.508314	1.719508	0.129299
C169	C	-0.096592	1.064584	-0.576447
C170	C	0.236741	1.397917	-0.243114
C171	C	0.570075	1.731251	0.090219
N172	N	-0.034830	1.076330	-0.537403
N173	N	0.298504	1.409663	-0.204069
N174	N	0.631837	1.742997	0.129264
N175	N	-0.034830	1.076320	-0.462115
N176	N	0.298503	1.409654	-0.128782
N177	N	0.631837	1.742987	0.204551
C178	C	-0.096590	1.064564	-0.423612
C179	C	0.236743	1.397897	-0.090279
C180	C	0.570077	1.731230	0.243054
C181	C	-0.049201	1.126101	-0.702000
C182	C	0.284133	1.459434	-0.368667
C183	C	0.617466	1.792767	-0.035334
C184	C	-0.049196	1.126100	-0.781249
C185	C	0.284137	1.459433	-0.447916
C186	C	0.617470	1.792766	-0.114583
C187	C	-0.143983	1.003091	-0.781235
C188	C	0.189351	1.336425	-0.447902
C189	C	0.522684	1.669758	-0.114569
C190	C	-0.143981	1.003088	-0.701988
C191	C	0.189353	1.336421	-0.368654
C192	C	0.522686	1.669755	-0.035321
C193	C	-0.096591	1.064598	-0.662375
C194	C	0.236743	1.397931	-0.329042
C195	C	0.570076	1.731264	0.004292
N196	N	-0.096589	1.064604	0.179135
N197	N	0.236745	1.397938	0.512469
N198	N	0.570078	1.731271	0.845802
H199	H	-0.215300	0.770930	0.000015
H200	H	0.118034	1.104264	0.333349
H201	H	0.451367	1.437597	0.666682
H202	H	-0.308463	1.059028	-0.124492
H203	H	0.024870	1.392362	0.208842
H204	H	0.358203	1.725695	0.542175
H205	H	-0.182568	0.953019	-0.813494
H206	H	0.150765	1.286352	-0.480161
H207	H	0.484099	1.619685	-0.146827
Br208	Br	-0.460338	1.061941	-0.161770
Br209	Br	-0.127004	1.395274	0.171563
Br210	Br	0.206329	1.728608	0.504896
Br211	Br	-0.208284	0.919578	-0.351818
Br212	Br	0.125049	1.252912	-0.018484
Br213	Br	0.458382	1.586245	0.314849
Br214	Br	-0.460457	1.061986	0.161767
Br215	Br	-0.127124	1.395320	0.495100
Br216	Br	0.206209	1.728653	0.828433
H217	H	-0.010610	1.176183	-0.669746
H218	H	0.322723	1.509516	-0.336413
H219	H	0.656056	1.842849	-0.003080
Br220	Br	0.015124	1.209534	-0.351847
Br221	Br	0.348457	1.542868	-0.018514
Br222	Br	0.681790	1.876201	0.314819
H223	H	-0.276827	0.618868	0.000031
H224	H	0.056506	0.952201	0.333364
H225	H	0.389839	1.285535	0.666698
H226	H	-0.308557	1.059046	0.124538
H227	H	0.024776	1.392379	0.457871
H228	H	0.358110	1.725713	0.791204
H229	H	-0.182568	0.953007	-0.669724
H230	H	0.150765	1.286340	-0.336391
H231	H	0.484099	1.619673	-0.003057
Br232	Br	0.049616	0.842392	-0.000057
Br233	Br	0.382950	1.175725	0.333277
Br234	Br	0.716283	1.509058	0.666610
H235	H	-0.010607	1.176184	-0.813512
H236	H	0.322726	1.509517	-0.480178
H237	H	0.656060	1.842850	-0.146845
Br238	Br	-0.732834	1.067213	0.161726
Br239	Br	-0.399501	1.400546	0.495059
Br240	Br	-0.066168	1.733879	0.828392
H241	H	0.081136	0.680868	-0.000062
H242	H	0.414469	1.014201	0.333271
H243	H	0.747803	1.347534	0.666604
H244	H	-0.752496	1.067549	-0.124562
H245	H	-0.419162	1.400882	0.208771
H246	H	-0.085829	1.734215	0.542105
Br247	Br	-0.208278	0.919551	-0.165024
Br248	Br	0.125055	1.252884	0.168310
Br249	Br	0.458389	1.586217	0.501643
H250	H	0.083646	0.510258	-0.000097
H251	H	0.416980	0.843592	0.333236
H252	H	0.750313	1.176925	0.666570
Br253	Br	-0.242777	0.286751	0.000015
Br254	Br	0.090557	0.620084	0.333348
Br255	Br	0.423890	0.953417	0.666681
Br256	Br	0.057033	0.338661	-0.000084
Br257	Br	0.390367	0.671994	0.333249
Br258	Br	0.723700	1.005328	0.666582
Br259	Br	-0.904493	1.070472	0.161701
Br260	Br	-0.571160	1.403805	0.495035
Br261	Br	-0.237827	1.737138	0.828368
Br262	Br	-0.308451	0.416780	0.000043
Br263	Br	0.024882	0.750114	0.333377
Br264	Br	0.358216	1.083447	0.666710
H265	H	-0.884613	1.070076	-0.124581
H266	H	-0.551279	1.403410	0.208753
H267	H	-0.217946	1.736743	0.542086
Br268	Br	0.015122	1.209520	-0.165054
Br269	Br	0.348456	1.542853	0.168279
Br270	Br	0.681789	1.876187	0.501613
