data_functionalizedCrystal
_audit_creation_method	'MofGen! by Chris Wilmer'
_symmetry_space_group_name_H-M	'P1'
_symmetry_Int_Tables_number	1
_symmetry_cell_setting	triclinic
loop_
_symmetry_equiv_pos_as_xyz
  x,y,z
_cell_length_a	16.109318
_cell_length_b	10.489741
_cell_length_c	15.186229
_cell_angle_alpha	89.996534
_cell_angle_beta	90.000224
_cell_angle_gamma	84.003869
loop_
_atom_site_label
_atom_site_type_symbol
_atom_site_fract_x
_atom_site_fract_y
_atom_site_fract_z
O1	O	1.104133	0.164052	-0.073155
O2	O	1.604133	0.664052	0.426845
O3	O	0.862198	0.184432	-0.073173
O4	O	1.362198	0.684432	0.426827
O5	O	0.988671	-0.011435	-0.073158
O6	O	1.488671	0.488565	0.426842
O7	O	0.977661	0.359919	-0.073169
O8	O	1.477661	0.859919	0.426831
O9	O	0.988662	-0.011438	0.073299
O10	O	1.488662	0.488562	0.573299
O11	O	0.862190	0.184429	0.073285
O12	O	1.362190	0.684429	0.573285
O13	O	1.104124	0.164049	0.073303
O14	O	1.604124	0.664049	0.573303
Zn15	Zn	0.983156	0.174239	0.096547
Zn16	Zn	1.483156	0.674239	0.596547
Zn17	Zn	0.983167	0.174243	-0.096417
Zn18	Zn	1.483167	0.674243	0.403583
O19	O	0.977652	0.359917	0.073288
O20	O	1.477652	0.859917	0.573288
C21	C	0.831214	0.183601	0.000054
C22	C	1.331214	0.683601	0.500054
C23	C	0.738905	0.181115	0.000047
C24	C	1.238905	0.681115	0.500047
C25	C	0.439786	0.173085	-0.079771
C26	C	0.939786	0.673085	0.420229
C27	C	0.526522	0.175413	-0.079776
C28	C	1.026522	0.675413	0.420224
C29	C	0.526531	0.175392	0.079899
C30	C	1.026531	0.675392	0.579899
C31	C	0.439798	0.173055	0.079904
C32	C	0.939798	0.673055	0.579904
C33	C	0.396427	0.171908	0.000066
C34	C	0.896427	0.671908	0.500066
C35	C	0.569896	0.176573	0.000056
C36	C	1.069896	0.676573	0.500056
C37	C	0.663938	0.179097	0.000051
C38	C	1.163938	0.679097	0.500051
C39	C	0.302378	0.169382	0.000071
C40	C	0.802378	0.669382	0.500071
C41	C	0.987835	-0.058956	0.000070
C42	C	1.487835	0.441044	0.500070
C43	C	0.985347	-0.200550	0.000068
C44	C	1.485347	0.299450	0.500068
C45	C	0.904876	-0.267530	0.000056
C46	C	1.404876	0.232470	0.500056
C47	C	0.942886	-0.360202	0.072270
C48	C	1.442886	0.139798	0.572270
C49	C	0.942913	-0.360174	-0.072126
C50	C	1.442913	0.139826	0.427874
C51	C	1.023389	-0.291357	0.072342
C52	C	1.523389	0.208643	0.572342
C53	C	1.023406	-0.291319	-0.072119
C54	C	1.523406	0.208681	0.427881
C55	C	1.061474	-0.383964	0.000113
C56	C	1.561474	0.116036	0.500113
C57	C	1.135108	0.164880	0.000074
C58	C	1.635108	0.664880	0.500074
C59	C	1.227418	0.167367	0.000075
C60	C	1.727418	0.667367	0.500075
C61	C	0.978488	0.407438	0.000058
C62	C	1.478488	0.907438	0.500058
C63	C	0.980976	0.549031	0.000054
C64	C	1.480976	1.049031	0.500054
N65	N	0.983154	0.174236	0.228240
N66	N	1.483154	0.674236	0.728240
N67	N	0.983175	0.174236	-0.228110
N68	N	1.483175	0.674236	0.271890
C69	C	1.039175	0.087535	0.453969
C70	C	1.539175	0.587535	0.953969
C71	C	1.039178	0.087532	0.546159
C72	C	1.539178	0.587532	1.046159
C73	C	0.927148	0.260941	0.546155
C74	C	1.427148	0.760941	1.046155
C75	C	0.927142	0.260937	0.453967
C76	C	1.427142	0.760937	0.953967
C77	C	0.983160	0.174235	0.407876
C78	C	1.483160	0.674235	0.907876
C79	C	0.983169	0.174236	0.592254
C80	C	1.483169	0.674236	1.092254
C81	C	0.983171	0.174234	0.692210
C82	C	1.483171	0.674234	1.192210
C83	C	0.983157	0.174236	0.307914
C84	C	1.483157	0.674236	0.807914
H85	H	0.404476	0.172149	-0.144780
H86	H	0.904476	0.672149	0.355220
O87	O	0.866742	0.354471	0.595865
O88	O	1.366742	0.854471	1.095865
H89	H	0.826019	0.300772	0.637883
H90	H	1.326019	0.800772	1.137883
H91	H	0.561854	0.176329	0.144900
H92	H	1.061854	0.676329	0.644900
H93	H	1.084790	0.016931	0.583685
H94	H	1.584790	0.516931	1.083685
H95	H	0.881524	0.331539	0.416436
H96	H	1.381524	0.831539	0.916436
O97	O	1.068455	-0.251186	0.153301
O98	O	1.568455	0.248814	0.653301
H99	H	1.035241	-0.279425	0.213107
H100	H	1.535241	0.220575	0.713107
H101	H	0.908858	-0.390646	-0.133183
H102	H	1.408858	0.109354	0.366817
O103	O	0.393091	0.172052	0.166072
O104	O	0.893091	0.672052	0.666072
H105	H	0.346755	0.257962	0.169813
H106	H	0.846755	0.757962	0.669813
H107	H	0.561821	0.176369	-0.144788
H108	H	1.061821	0.676369	0.355212
H109	H	0.838714	-0.216925	0.000124
H110	H	1.338714	0.283075	0.500124
O111	O	1.068509	-0.250924	-0.152986
O112	O	1.568509	0.249076	0.347014
H113	H	1.124081	-0.203920	-0.132668
H114	H	1.624081	0.296080	0.367332
O115	O	0.897787	-0.400628	0.153139
O116	O	1.397787	0.099372	0.653139
H117	H	0.842915	-0.449319	0.132799
H118	H	1.342915	0.050681	0.632799
O119	O	1.149186	-0.450718	0.000167
O120	O	1.649186	0.049282	0.500167
H121	H	1.182374	-0.423166	0.060169
H122	H	1.682374	0.076834	0.560169
H123	H	1.084788	0.016936	0.416444
H124	H	1.584788	0.516936	0.916444
