data_functionalizedCrystal
_audit_creation_method	'MofGen! by Chris Wilmer'
_symmetry_space_group_name_H-M	'P1'
_symmetry_Int_Tables_number	1
_symmetry_cell_setting	triclinic
loop_
_symmetry_equiv_pos_as_xyz
  x,y,z
_cell_length_a	14.853566
_cell_length_b	15.944545
_cell_length_c	13.930277
_cell_angle_alpha	89.993343
_cell_angle_beta	89.995631
_cell_angle_gamma	83.565293
loop_
_atom_site_label
_atom_site_type_symbol
_atom_site_fract_x
_atom_site_fract_y
_atom_site_fract_z
O1	O	1.196226	0.109660	-0.079772
O2	O	0.933749	0.122725	-0.079788
O3	O	1.072158	-0.006075	-0.079768
O4	O	1.057817	0.238459	-0.079792
O5	O	1.072139	-0.006078	0.079893
O6	O	0.933730	0.122722	0.079873
O7	O	1.196206	0.109657	0.079890
Zn8	Zn	1.064965	0.116189	0.105231
Zn9	Zn	1.064990	0.116193	-0.105130
O10	O	1.057797	0.238457	0.079870
C11	C	0.900151	0.122131	0.000041
C12	C	0.800070	0.120358	0.000035
C13	C	0.376905	0.112859	-0.086979
C14	C	0.376906	0.112856	0.087090
C15	C	0.470938	0.114522	0.087087
C16	C	0.517958	0.115357	0.000049
C17	C	0.470946	0.114527	-0.086985
C18	C	0.517955	0.115360	0.174120
C19	C	0.611993	0.117027	0.174120
C20	C	0.659015	0.117856	0.087082
C21	C	0.611998	0.117025	0.000044
C22	C	0.659018	0.117860	-0.086994
C23	C	0.612003	0.117023	-0.174033
C24	C	0.517968	0.115356	-0.174024
C25	C	0.753050	0.119523	0.087072
C26	C	0.753058	0.119528	-0.087000
C27	C	1.071554	-0.037371	0.000063
C28	C	1.069772	-0.130619	0.000066
C29	C	0.978655	-0.401353	0.000041
C30	C	1.022594	-0.350718	-0.078678
C31	C	1.063417	-0.466270	0.000038
C32	C	1.022598	-0.350748	0.078736
C33	C	1.066535	-0.301353	0.000054
C34	C	1.107333	-0.416863	-0.078746
C35	C	1.107325	-0.416896	0.078739
C36	C	1.151326	-0.366293	0.000000
C37	C	1.061619	-0.561274	0.000029
C38	C	1.068340	-0.206352	0.000056
C39	C	1.229804	0.110250	0.000059
C40	C	1.329885	0.112023	0.000058
C41	C	1.058401	0.269753	0.000036
C42	C	1.060183	0.363001	0.000027
N43	N	1.064954	0.116186	0.248797
N44	N	1.065008	0.116189	-0.248696
C45	C	1.003700	0.173203	0.701058
C46	C	1.126305	0.059176	0.701045
C47	C	1.126294	0.059173	0.600549
C48	C	1.064987	0.116187	0.550303
C49	C	1.003690	0.173203	0.600553
C50	C	1.187596	0.002164	0.550292
C51	C	1.187589	0.002159	0.449790
C52	C	1.126276	0.059170	0.399542
C53	C	1.064976	0.116188	0.449798
C54	C	1.003668	0.173202	0.399552
C55	C	0.942363	0.230216	0.449806
C56	C	0.942377	0.230214	0.550305
C57	C	1.126262	0.059172	0.299044
C58	C	1.003657	0.173202	0.299047
H59	H	0.338622	0.112174	-0.157844
H60	H	0.892465	0.276634	0.591228
H61	H	0.892450	0.276641	0.408884
N62	N	1.192418	-0.002313	0.755245
H63	H	1.182030	-0.061947	0.737770
H64	H	1.256372	0.007536	0.737725
H65	H	0.479664	0.114686	0.244981
H66	H	0.953784	0.219621	0.741977
H67	H	1.237505	-0.044265	0.408880
H68	H	0.479680	0.114673	-0.244886
N69	N	0.975159	-0.312498	0.166888
H70	H	0.909975	-0.324966	0.166810
H71	H	1.006564	-0.337524	0.226299
N72	N	0.326197	0.111965	0.180963
H73	H	0.259340	0.111932	0.167767
H74	H	0.349095	0.059644	0.218406
N75	N	0.881970	-0.422215	-0.000064
H76	H	0.881467	-0.485503	0.000545
H77	H	0.849667	-0.397058	0.058784
H78	H	0.650265	0.117706	0.244993
N79	N	0.803759	0.120435	0.180937
H80	H	0.759702	0.119658	0.236075
H81	H	0.850081	0.069096	0.184738
H82	H	1.143112	-0.445628	-0.145371
N83	N	0.975197	-0.312441	-0.166843
H84	H	0.910011	-0.324903	-0.166791
H85	H	0.977330	-0.249354	-0.166456
N86	N	1.192381	-0.002308	0.244840
H87	H	1.231224	-0.038422	0.291921
H88	H	1.157869	-0.039505	0.203155
H89	H	1.224380	-0.350721	-0.000040
N90	N	1.154697	-0.455196	0.166898
H91	H	1.122601	-0.431030	0.226333
H92	H	1.153651	-0.518415	0.165815
N93	N	0.937524	0.234690	0.244855
H94	H	0.898692	0.270803	0.291943
H95	H	0.972027	0.271888	0.203146
N96	N	1.253725	-0.059319	0.604482
H97	H	1.244425	-0.050669	0.675773
H98	H	1.243316	-0.118927	0.586926
H99	H	0.650298	0.117709	-0.244899
N100	N	0.803772	0.120419	-0.180878
H101	H	0.759717	0.119634	-0.236010
H102	H	0.835479	0.173141	-0.184683
