data_functionalizedCrystal
_audit_creation_method	'MofGen! by Chris Wilmer'
_symmetry_space_group_name_H-M	'P1'
_symmetry_Int_Tables_number	1
_symmetry_cell_setting	triclinic
loop_
_symmetry_equiv_pos_as_xyz
  x,y,z
_cell_length_a	6.817900
_cell_length_b	11.102289
_cell_length_c	9.514088
_cell_angle_alpha	88.634869
_cell_angle_beta	118.843545
_cell_angle_gamma	108.605707
loop_
_atom_site_label
_atom_site_type_symbol
_atom_site_fract_x
_atom_site_fract_y
_atom_site_fract_z
V1	V	-4.243923	-0.178092	-0.500743
O2	O	-4.200435	0.006240	-0.491211
O3	O	-4.219794	-0.350897	-0.497318
O4	O	-4.278445	-0.176370	-0.719134
O5	O	-4.141379	-0.169496	-0.267859
V6	V	-4.713661	-0.155924	-0.472888
O7	O	-4.535420	-0.226720	-0.561844
O8	O	-4.872362	-0.107296	-0.411786
O9	O	-4.514583	0.016881	-0.476313
O10	O	-4.874545	-0.340255	-0.482420
O11	O	-4.933602	-0.164520	-0.705772
O12	O	-4.455932	-0.157646	-0.254497
C13	C	-4.068017	-0.392991	-0.489418
C14	C	-4.130128	-0.534268	-0.488074
C15	C	-4.345434	-0.607149	-0.495454
C16	C	-4.403792	-0.739895	-0.494204
C17	C	-4.031512	-0.726865	-0.478188
C18	C	-3.973165	-0.594123	-0.479449
C19	C	-4.560363	-0.614672	-0.504693
C20	C	-4.618720	-0.747418	-0.503444
C21	C	-4.142830	-0.170363	-0.772365
C22	C	-4.252499	-0.170099	-0.950901
C23	C	-4.329702	0.058969	-0.484208
C24	C	-4.246833	0.200244	-0.485563
C25	C	-4.254888	-0.163657	-0.201257
C26	C	-4.124455	-0.163915	-0.022720
H27	H	-3.797860	-0.534790	-0.473458
H28	H	-3.930937	-0.158835	-0.947624
H29	H	-4.530492	-0.560936	-0.391457
H30	H	-4.446040	-0.175193	-1.026008
H31	H	-4.703110	-0.595977	-0.621495
C32	C	-4.924365	-0.742669	-0.770811
C33	C	-4.839128	-0.826272	-0.664053
H34	H	-5.060436	-0.791353	-0.869957
H35	H	-4.802892	-0.691148	-0.791562
H36	H	-4.967611	-0.688820	-0.723320
H37	H	-4.795864	-0.880114	-0.711539
H38	H	-4.960626	-0.877815	-0.643304
C39	C	-4.608682	-0.667746	-0.266764
C40	C	-4.648814	-0.780472	-0.355344
H41	H	-4.627244	-0.688154	-0.175332
H42	H	-4.720591	-0.628944	-0.333906
H43	H	-4.450972	-0.609699	-0.230957
H44	H	-4.806531	-0.838516	-0.391162
H45	H	-4.536901	-0.819293	-0.288190
H46	H	-3.903728	-0.775616	-0.471167
