data_functionalizedCrystal
_audit_creation_method	'MofGen! by Chris Wilmer'
_symmetry_space_group_name_H-M	'P1'
_symmetry_Int_Tables_number	1
_symmetry_cell_setting	triclinic
loop_
_symmetry_equiv_pos_as_xyz
  x,y,z
_cell_length_a	13.635800
_cell_length_b	17.110477
_cell_length_c	19.551833
_cell_angle_alpha	83.301030
_cell_angle_beta	78.336523
_cell_angle_gamma	99.060298
loop_
_atom_site_label
_atom_site_type_symbol
_atom_site_fract_x
_atom_site_fract_y
_atom_site_fract_z
V1	V	-1.992072	-0.110312	0.217767
O2	O	-1.997569	0.004447	0.213714
O3	O	-1.957074	-0.217909	0.216189
O4	O	-1.963551	-0.108990	0.312784
O5	O	-1.991047	-0.105226	0.116451
V6	V	-2.235844	-0.096541	0.205660
O7	O	-2.118289	-0.140519	0.244326
O8	O	-2.334726	-0.066334	0.179101
O9	O	-2.159239	0.011056	0.207238
O10	O	-2.289045	-0.211300	0.209712
O11	O	-2.295568	-0.101627	0.306976
O12	O	-2.152761	-0.097863	0.110643
V13	V	-1.492072	-0.110312	0.217767
O14	O	-1.497569	0.004447	0.213714
O15	O	-1.457074	-0.217909	0.216189
O16	O	-1.463551	-0.108990	0.312784
O17	O	-1.491047	-0.105226	0.116451
V18	V	-1.735844	-0.096541	0.205660
O19	O	-1.618289	-0.140519	0.244326
O20	O	-1.834726	-0.066334	0.179101
O21	O	-1.659239	0.011056	0.207238
O22	O	-1.789045	-0.211300	0.209712
O23	O	-1.795568	-0.101627	0.306976
O24	O	-1.652761	-0.097863	0.110643
C25	C	-1.877087	-0.244127	0.212730
C26	C	-1.889087	-0.332091	0.212073
C27	C	-1.985208	-0.377461	0.215246
C28	C	-1.996478	-0.460113	0.214633
C29	C	-1.911624	-0.497394	0.210841
C30	C	-1.815496	-0.452019	0.207670
C31	C	-1.804229	-0.369369	0.208288
C32	C	-1.941120	-0.746741	0.208804
C33	C	-1.952395	-0.829397	0.208183
C34	C	-2.133376	-0.837486	0.215148
C35	C	-2.122099	-0.754834	0.215762
C36	C	-2.025973	-0.709466	0.212594
C37	C	-1.923142	-0.581877	0.210212
C38	C	-2.014458	-0.624985	0.213229
C39	C	-1.885350	-0.105189	0.335946
C40	C	-1.902602	-0.104819	0.413622
C41	C	-2.070896	0.037270	0.210695
C42	C	-2.048516	0.125233	0.211357
C43	C	-2.062634	-0.101667	0.087477
C44	C	-2.035002	-0.102032	0.009801
C45	C	-1.377087	-0.244127	0.212730
C46	C	-1.389087	-0.332091	0.212073
C47	C	-1.385350	-0.105189	0.335946
C48	C	-1.402602	-0.104819	0.413622
C49	C	-2.001195	-0.108618	0.453666
C50	C	-2.017405	-0.108271	0.526651
C51	C	-1.935019	-0.104142	0.559591
C52	C	-1.836411	-0.100338	0.519536
C53	C	-1.820202	-0.100677	0.446552
C54	C	-1.899300	-0.147167	0.678867
C55	C	-1.915513	-0.146833	0.751851
C56	C	-1.985008	-0.103093	0.784698
C57	C	-2.038306	-0.059697	0.744555
C58	C	-2.022097	-0.060036	0.671570
C59	C	-1.952585	-0.103773	0.638729
C60	C	-2.101184	-0.106515	0.903881
C61	C	-2.117390	-0.106163	0.976866
C62	C	-1.936395	-0.098238	0.969752
C63	C	-1.920190	-0.098582	0.896767
C64	C	-2.002589	-0.102724	0.863836
C65	C	-1.570896	0.037270	0.210695
C66	C	-1.548516	0.125233	0.211357
C67	C	-1.562634	-0.101667	0.087477
C68	C	-1.535002	-0.102032	0.009801
C69	C	-1.485217	-0.377448	0.215252
C70	C	-1.496509	-0.460103	0.214645
C71	C	-1.411668	-0.497398	0.210854
C72	C	-1.315530	-0.452035	0.207677
C73	C	-1.304241	-0.369383	0.208289
C74	C	-1.501202	-0.108605	0.453657
C75	C	-1.517424	-0.108248	0.526641
C76	C	-1.435046	-0.104111	0.559589
C77	C	-1.336437	-0.100323	0.519547
C78	C	-1.320215	-0.100674	0.446564
C79	C	-1.624879	0.170590	0.208179
C80	C	-1.603859	0.253244	0.208790
C81	C	-1.506477	0.290538	0.212582
C82	C	-1.430108	0.245176	0.215758
C83	C	-1.451126	0.162525	0.215142
C84	C	-1.435150	-0.106160	-0.023129
C85	C	-1.409170	-0.106494	-0.096115
C86	C	-1.483045	-0.102705	-0.136169
C87	C	-1.582904	-0.098574	-0.103235
C88	C	-1.608881	-0.098235	-0.030251
H89	H	-2.054305	-0.347112	0.218327
F90	F	-2.222331	-0.110204	1.019484
F91	F	-1.832838	-0.621561	0.206174
H92	H	-1.872119	-0.182174	0.784531
F93	F	-2.088892	-0.113023	0.418623
H94	H	-1.246457	-0.482413	0.204590
F95	F	-1.715163	-0.093851	0.004788
F96	F	-2.212408	-0.715159	0.219776
F97	F	-1.598833	-0.508366	0.218024
F98	F	-1.715262	-0.096636	0.403933
F99	F	-1.575528	-0.337773	0.219291
H100	H	-1.388940	0.125600	0.217736
F101	F	-1.423698	-0.585365	0.210203
H102	H	-1.704178	0.140236	0.205092
H103	H	-2.097695	-0.111369	0.559262
F104	F	-1.862079	-0.869073	0.204156
F105	F	-1.326468	0.284880	0.219790
H106	H	-1.666055	0.290166	0.206205
H107	H	-1.269370	-0.096955	0.546384
H108	H	-2.083546	-0.594629	0.216319
F109	F	-1.588891	-0.113008	0.418606
H110	H	-2.074748	-0.497050	0.217218
F111	F	-1.201920	-0.321118	0.204900
F112	F	-1.622379	-0.112285	0.569244
H113	H	-1.769332	-0.096973	0.546360
F114	F	-1.452327	-0.103739	0.637266
H115	H	-1.239923	-0.097593	0.413972
H116	H	-1.842699	-0.182781	0.652128
H117	H	-2.065494	-0.024700	0.638888
H118	H	-1.374984	-0.109245	0.009475
F119	F	-2.235675	-0.885775	0.218519
H120	H	-1.489375	0.357839	0.213082
F121	F	-1.302889	-0.110895	-0.131151
H122	H	-1.643046	-0.095487	-0.135859
F123	F	-1.838814	-0.698468	0.205428
F124	F	-1.725190	-0.491698	0.203639
F125	F	-1.455383	-0.103069	-0.213846
H126	H	-2.094897	-0.024082	0.771297
H127	H	-1.725958	-0.332430	0.205707
H128	H	-1.869313	-0.094868	0.996569
F129	F	-2.188878	-0.110918	0.868831
H130	H	-1.839907	-0.095497	0.864163
