data_functionalizedCrystal
_audit_creation_method	'MofGen! by Chris Wilmer'
_symmetry_space_group_name_H-M	'P1'
_symmetry_Int_Tables_number	1
_symmetry_cell_setting	triclinic
loop_
_symmetry_equiv_pos_as_xyz
  x,y,z
_cell_length_a	16.992694
_cell_length_b	15.944551
_cell_length_c	16.053802
_cell_angle_alpha	92.564789
_cell_angle_beta	87.249047
_cell_angle_gamma	87.083481
loop_
_atom_site_label
_atom_site_type_symbol
_atom_site_fract_x
_atom_site_fract_y
_atom_site_fract_z
O1	O	1.043704	0.174798	-0.069327
O2	O	0.815419	0.172843	-0.069352
O3	O	0.935795	0.051964	-0.069332
O4	O	0.923328	0.295677	-0.069348
O5	O	0.929169	0.058588	0.069526
O6	O	0.808793	0.179467	0.069506
O7	O	1.037078	0.181422	0.069530
Zn8	Zn	0.921884	0.181497	0.091565
Zn9	Zn	0.930613	0.172769	-0.091386
O10	O	0.916702	0.302301	0.069510
C11	C	0.782894	0.173641	0.000074
C12	C	0.695850	0.166141	0.000065
C13	C	0.645613	0.238506	0.000061
C14	C	0.563826	0.231454	0.000073
C15	C	0.532276	0.152037	0.000083
C16	C	0.582519	0.079667	0.000089
C17	C	0.664305	0.086719	0.000083
C18	C	0.288676	0.122807	0.000107
C19	C	0.206884	0.115759	0.000111
C20	C	0.188196	0.267548	0.000095
C21	C	0.269984	0.274593	0.000084
C22	C	0.320220	0.202223	0.000095
N23	N	0.448677	0.144827	0.000092
N24	N	0.403818	0.209434	0.000092
C25	C	0.931964	0.023948	0.000097
C26	C	0.930413	-0.069402	0.000098
C27	C	0.852090	-0.289513	0.000078
C28	C	0.885194	-0.344825	0.068547
C29	C	0.927606	-0.240317	0.000091
C30	C	0.891744	-0.351338	-0.068356
C31	C	0.924889	-0.405412	0.000081
C32	C	0.960728	-0.294396	0.068617
C33	C	0.967271	-0.300907	-0.068348
C34	C	1.000429	-0.356196	0.000138
C35	C	0.929169	-0.145209	0.000098
C36	C	0.923332	-0.500518	0.000080
C37	C	1.069603	0.180624	0.000103
C38	C	1.156648	0.188124	0.000106
C39	C	0.920533	0.330318	0.000079
C40	C	0.922085	0.423667	0.000073
N41	N	0.915931	0.187453	0.216424
N42	N	0.936572	0.166806	-0.216246
C43	C	0.967170	0.136040	0.260127
C44	C	0.963014	0.140215	0.347533
C45	C	0.907622	0.195808	0.391235
C46	C	0.856378	0.247223	0.347526
C47	C	0.860531	0.243043	0.260121
C48	C	0.889481	0.214042	0.652641
C49	C	0.885333	0.218220	0.740052
C50	C	0.991968	0.111209	0.740053
C51	C	0.996120	0.107038	0.652646
C52	C	0.944873	0.158450	0.608945
N53	N	0.903374	0.200078	0.480578
N54	N	0.949118	0.154175	0.519604
H55	H	0.147286	0.326467	0.000088
H56	H	1.001946	-0.281397	-0.126229
C57	C	0.838317	-0.371159	0.146733
H58	H	0.785625	-0.348197	0.146646
H59	H	0.862316	-0.350792	0.195353
H60	H	0.838076	-0.430740	0.146423
H61	H	1.063164	-0.385145	0.000184
C62	C	1.057046	0.045880	0.604580
H63	H	1.086963	0.015852	0.643127
H64	H	1.091305	0.076675	0.570472
H65	H	1.030454	0.007371	0.570497
C66	C	1.048327	0.054653	0.788125
H67	H	1.037918	0.065097	0.846439
H68	H	1.101337	0.066631	0.773792
H69	H	1.040483	-0.002670	0.773810
C70	C	1.000098	-0.260771	0.146905
H71	H	1.000814	-0.201253	0.146446
H72	H	1.052625	-0.284167	0.147113
H73	H	0.971127	-0.276137	0.195459
C74	C	0.767409	-0.250196	0.000147
H75	H	0.761616	-0.219136	-0.048525
H76	H	0.757366	-0.213730	0.048325
H77	H	0.731001	-0.293476	0.000670
C78	C	0.824358	0.279327	0.788123
H79	H	0.794415	0.309329	0.749578
H80	H	0.850901	0.317851	0.822230
H81	H	0.790119	0.248478	0.822207
H82	H	0.862556	-0.376319	-0.126245
C83	C	0.508569	0.311055	0.000065
H84	H	0.539073	0.359362	0.000048
H85	H	0.473973	0.313775	0.048491
H86	H	0.478579	0.309145	-0.048361
C87	C	1.028101	0.074885	0.212062
H88	H	1.058015	0.044858	0.250612
H89	H	1.062361	0.105678	0.177954
H90	H	1.001509	0.036375	0.177979
C91	C	1.019384	0.083668	0.395602
H92	H	1.052976	0.049970	0.357057
H93	H	0.989567	0.048417	0.429711
H94	H	1.050401	0.117738	0.429686
C95	C	0.343925	0.043203	0.000113
H96	H	0.313419	-0.005103	0.000112
H97	H	0.373914	0.045106	0.048535
H98	H	0.378522	0.040485	-0.048317
H99	H	0.847755	0.255905	0.617067
H100	H	0.818806	0.284908	0.224539
C101	C	0.680310	0.325865	0.000049
H102	H	0.638674	0.367952	0.000056
H103	H	0.714130	0.329463	-0.048376
H104	H	0.709521	0.334082	0.048476
C105	C	0.304682	0.361952	0.000085
H106	H	0.263048	0.404042	0.000093
H107	H	0.338504	0.365553	-0.048337
H108	H	0.333892	0.370163	0.048514
C109	C	0.795423	0.308349	0.395592
H110	H	0.765491	0.338357	0.357043
H111	H	0.821983	0.346866	0.429691
H112	H	0.761173	0.277522	0.429684
C113	C	0.172181	0.028397	0.000124
H114	H	0.213812	-0.013694	0.000136
H115	H	0.142971	0.020180	-0.048298
H116	H	0.138359	0.024807	0.048553
C117	C	0.719565	0.007118	0.000080
H118	H	0.689064	-0.041191	0.000078
H119	H	0.749558	0.009022	0.048499
H120	H	0.754159	0.004406	-0.048353
H121	H	0.556825	0.015004	0.000110
