data_functionalizedCrystal
_audit_creation_method	'MofGen! by Chris Wilmer'
_symmetry_space_group_name_H-M	'P1'
_symmetry_Int_Tables_number	1
_symmetry_cell_setting	triclinic
loop_
_symmetry_equiv_pos_as_xyz
  x,y,z
_cell_length_a	15.944499
_cell_length_b	10.654550
_cell_length_c	9.130313
_cell_angle_alpha	90.001310
_cell_angle_beta	89.994388
_cell_angle_gamma	83.981256
loop_
_atom_site_label
_atom_site_type_symbol
_atom_site_fract_x
_atom_site_fract_y
_atom_site_fract_z
O1	O	-1.115486	-0.161648	0.121883
O2	O	-0.871046	-0.181685	0.121867
O3	O	-0.998886	0.011147	0.121870
O4	O	-0.987646	-0.354480	0.121880
O5	O	-0.998877	0.011136	-0.121729
O6	O	-0.871037	-0.181696	-0.121732
O7	O	-1.115477	-0.161660	-0.121715
Cu8	Cu	-0.993256	-0.171679	-0.143966
Cu9	Cu	-0.993267	-0.171665	0.144118
O10	O	-0.987637	-0.354491	-0.121719
C11	C	-0.998056	0.057929	0.000072
C12	C	-0.995587	0.197339	0.000077
C13	C	-0.839742	-0.180870	0.000065
C14	C	-0.746480	-0.178411	0.000059
C15	C	-1.146781	-0.162474	0.000089
C16	C	-1.240043	-0.164933	0.000105
C17	C	-0.455592	-0.290441	0.000084
C18	C	-0.516289	-0.232199	0.120192
C19	C	-0.410791	-0.169476	0.000092
C20	C	-0.516266	-0.232178	-0.119978
C21	C	-0.575726	-0.173872	0.000073
C22	C	-0.470260	-0.111200	0.120300
C23	C	-0.470230	-0.111196	-0.119978
C24	C	-0.530909	-0.052866	0.000160
C25	C	-0.315777	-0.166947	0.000105
C26	C	-0.670739	-0.176392	0.000072
C27	C	-0.988467	-0.401273	0.000082
C28	C	-0.990936	-0.540683	0.000087
N29	N	-0.993255	-0.171688	-0.346589
C30	C	-1.070857	0.277820	0.000078
C31	C	-1.068532	0.408810	0.000088
C32	C	-0.915660	0.378826	0.000091
C33	C	-0.917986	0.247838	0.000091
C34	C	-1.159117	0.295132	0.000070
C35	C	-1.156792	0.426122	0.000080
C36	C	-1.044640	-0.247883	-0.423249
C37	C	-1.044652	-0.247860	-0.576586
C38	C	-0.941887	-0.095442	-0.576589
C39	C	-0.941880	-0.095460	-0.423255
C40	C	-1.103968	-0.335885	-0.423248
C41	C	-1.103980	-0.335861	-0.576585
N42	N	-0.993274	-0.171647	0.346740
H43	H	-0.422843	-0.390830	0.000203
H44	H	-1.170216	-0.304152	-0.381613
Cl45	Cl	-1.208124	0.491276	-0.157305
Cl46	Cl	-0.877304	0.000380	-0.672979
Cl47	Cl	-1.201658	-0.273649	-0.649981
Cl48	Cl	-1.072041	-0.489178	-0.640885
H49	H	-0.449989	-0.060080	0.221955
Cl50	Cl	-0.581245	0.102259	0.000255
H51	H	-0.856694	0.182315	0.000111
Cl52	Cl	-1.063078	-0.482393	-0.349845
Cl53	Cl	-0.877274	0.000325	-0.326887
Cl54	Cl	-0.547772	-0.311181	0.276972
H55	H	-0.449814	-0.060080	-0.221526
H56	H	-1.183469	0.472122	0.105261
Cl57	Cl	-0.547716	-0.311207	-0.276742
Cl58	Cl	-1.212419	0.250506	0.157455
Cl59	Cl	-1.202488	0.240679	-0.162326
Cl60	Cl	-0.818110	0.442321	0.000111
