data_functionalizedCrystal
_audit_creation_method	'MofGen! by Chris Wilmer'
_symmetry_space_group_name_H-M	'P1'
_symmetry_Int_Tables_number	1
_symmetry_cell_setting	triclinic
loop_
_symmetry_equiv_pos_as_xyz
  x,y,z
_cell_length_a	19.188925
_cell_length_b	19.188925
_cell_length_c	10.066281
_cell_angle_alpha	80.162958
_cell_angle_beta	80.120939
_cell_angle_gamma	83.142549
loop_
_atom_site_label
_atom_site_type_symbol
_atom_site_fract_x
_atom_site_fract_y
_atom_site_fract_z
O1	O	0.917008	0.078063	0.113514
O2	O	1.250342	0.411396	0.446848
O3	O	1.583675	0.744729	0.780181
O4	O	0.713697	0.089801	0.113511
O5	O	1.047030	0.423134	0.446844
O6	O	1.380363	0.756468	0.780177
O7	O	0.821222	-0.017724	0.113505
O8	O	1.154556	0.315610	0.446838
O9	O	1.487889	0.648943	0.780172
O10	O	0.809483	0.185587	0.113520
O11	O	1.142816	0.518921	0.446853
O12	O	1.476149	0.852254	0.780187
O13	O	0.839483	0.000443	-0.113467
O14	O	1.172816	0.333776	0.219866
O15	O	1.506149	0.667109	0.553199
O16	O	0.731957	0.107968	-0.113462
O17	O	1.065290	0.441301	0.219872
O18	O	1.398624	0.774634	0.553205
O19	O	0.935269	0.096229	-0.113458
O20	O	1.268602	0.429562	0.219875
O21	O	1.601936	0.762896	0.553209
Zn22	Zn	0.836512	0.104983	-0.149497
Zn23	Zn	1.169846	0.438316	0.183837
Zn24	Zn	1.503179	0.771649	0.517170
Zn25	Zn	0.812453	0.081048	0.149549
Zn26	Zn	1.145787	0.414381	0.482883
Zn27	Zn	1.479120	0.747714	0.816216
O28	O	0.827743	0.203754	-0.113452
O29	O	1.161077	0.537087	0.219881
O30	O	1.494410	0.870420	0.553214
C31	C	0.696816	0.098505	0.000024
C32	C	1.030149	0.431838	0.333357
C33	C	1.363482	0.765172	0.666691
C34	C	0.619311	0.097366	0.000022
C35	C	0.952645	0.430699	0.333356
C36	C	1.285978	0.764033	0.666689
C37	C	0.057539	0.152829	0.000030
C38	C	0.390873	0.486163	0.333363
C39	C	0.724206	0.819496	0.666696
C40	C	0.130362	0.153905	0.000037
C41	C	0.463695	0.487239	0.333370
C42	C	0.797029	0.820572	0.666704
C43	C	0.175298	0.090814	0.000030
C44	C	0.508632	0.424147	0.333363
C45	C	0.841965	0.757480	0.666697
C46	C	0.147404	0.026638	0.000050
C47	C	0.480737	0.359972	0.333384
C48	C	0.814070	0.693305	0.666717
C49	C	0.074581	0.025563	0.000057
C50	C	0.407915	0.358897	0.333390
C51	C	0.741248	0.692230	0.666723
N52	N	0.302193	0.051322	-0.077236
N53	N	0.635526	0.384655	0.256097
N54	N	0.968859	0.717988	0.589430
N55	N	0.371371	0.052347	-0.077245
N56	N	0.704704	0.385681	0.256088
N57	N	1.038037	0.719014	0.589421
C58	C	0.394709	0.094049	0.000014
C59	C	0.728042	0.427382	0.333347
C60	C	1.061375	0.760716	0.666681
N61	N	0.346255	0.134698	0.077265
N62	N	0.679589	0.468031	0.410599
N63	N	1.012922	0.801364	0.743932
N64	N	0.277071	0.133674	0.077268
N65	N	0.610404	0.467008	0.410602
N66	N	0.943738	0.800341	0.743935
C67	C	0.254263	0.091972	0.000024
C68	C	0.587596	0.425306	0.333357
C69	C	0.920930	0.758639	0.666691
C70	C	0.501557	0.159386	0.000011
C71	C	0.834890	0.492719	0.333345
C72	C	1.168223	0.826052	0.666678
C73	C	0.574380	0.160458	0.000027
C74	C	0.907713	0.493792	0.333361
C75	C	1.241047	0.827125	0.666694
C76	C	0.591422	0.033191	0.000027
C77	C	0.924755	0.366524	0.333360
C78	C	1.258089	0.699857	0.666693
C79	C	0.518598	0.032119	0.000025
C80	C	0.851932	0.365452	0.333358
C81	C	1.185265	0.698786	0.666691
C82	C	0.473670	0.095219	0.000010
C83	C	0.807004	0.428552	0.333344
C84	C	1.140337	0.761886	0.666677
C85	C	0.829973	-0.034652	0.000020
C86	C	1.163306	0.298682	0.333353
C87	C	1.496640	0.632015	0.666686
C88	C	0.828834	-0.112156	0.000022
C89	C	1.162167	0.221177	0.333356
C90	C	1.495500	0.554510	0.666689
C91	C	0.884295	-0.673931	0.000058
C92	C	1.217628	-0.340597	0.333391
C93	C	1.550961	-0.007264	0.666725
C94	C	0.885372	-0.601106	0.000046
C95	C	1.218706	-0.267773	0.333379
C96	C	1.552039	0.065560	0.666712
C97	C	0.822280	-0.556171	0.000045
C98	C	1.155613	-0.222837	0.333378
C99	C	1.488947	0.110496	0.666712
C100	C	0.758108	-0.584062	0.000021
C101	C	1.091442	-0.250728	0.333355
C102	C	1.424775	0.082605	0.666688
C103	C	0.757034	-0.656883	0.000020
C104	C	1.090367	-0.323550	0.333353
C105	C	1.423700	0.009783	0.666687
N106	N	0.770388	-0.441673	0.077299
N107	N	1.103722	-0.108339	0.410633
N108	N	1.437055	0.224994	0.743966
N109	N	0.771413	-0.372496	0.077304
N110	N	1.104747	-0.039162	0.410637
N111	N	1.438080	0.294171	0.743970
C112	C	0.825514	-0.336762	0.000046
C113	C	1.158847	-0.003428	0.333379
C114	C	1.492181	0.329905	0.666713
N115	N	0.878560	-0.372821	-0.077199
N116	N	1.211894	-0.039487	0.256134
N117	N	1.545227	0.293846	0.589468
N118	N	0.877537	-0.442005	-0.077197
N119	N	1.210870	-0.108671	0.256136
N120	N	1.544204	0.224662	0.589470
C121	C	0.823438	-0.477207	0.000045
C122	C	1.156772	-0.143873	0.333379
C123	C	1.490105	0.189460	0.666712
C124	C	0.890851	-0.229914	0.000046
C125	C	1.224184	0.103419	0.333380
C126	C	1.557517	0.436753	0.666713
C127	C	0.891926	-0.157087	0.000025
C128	C	1.225260	0.176246	0.333359
C129	C	1.558593	0.509579	0.666692
C130	C	0.764659	-0.140045	0.000015
C131	C	1.097993	0.193288	0.333348
C132	C	1.431326	0.526622	0.666682
C133	C	0.763587	-0.212869	0.000022
C134	C	1.096920	0.120464	0.333355
C135	C	1.430253	0.453798	0.666689
C136	C	0.826684	-0.257800	0.000044
C137	C	1.160017	0.075533	0.333378
C138	C	1.493351	0.408867	0.666711
C139	C	0.952149	0.087525	0.000032
C140	C	1.285483	0.420858	0.333365
C141	C	1.618816	0.754192	0.666698
C142	C	1.029653	0.088663	0.000042
C143	C	1.362987	0.421997	0.333376
C144	C	1.696320	0.755330	0.666709
C145	C	0.818992	0.220681	0.000036
C146	C	1.152326	0.554015	0.333369
C147	C	1.485659	0.887348	0.666703
C148	C	0.820131	0.298186	0.000042
C149	C	1.153464	0.631519	0.333376
C150	C	1.486798	0.964852	0.666709
N151	N	0.852937	0.121317	-0.353587
N152	N	1.186270	0.454650	-0.020254
N153	N	1.519604	0.787984	0.313079
C154	C	0.818159	0.086727	-0.421398
C155	C	1.151492	0.420060	-0.088064
C156	C	1.484826	0.753393	0.245269
C157	C	0.830817	0.099303	-0.578553
C158	C	1.164151	0.432636	-0.245220
C159	C	1.497484	0.765970	0.088113
N160	N	0.796034	0.064707	0.353640
N161	N	1.129367	0.398041	0.686973
N162	N	1.462701	0.731374	1.020307
H163	H	0.628008	-0.018181	0.000031
H164	H	0.961341	0.315153	0.333365
H165	H	1.294674	0.648486	0.666698
O166	O	0.687825	-0.686962	-0.000001
O167	O	1.021158	-0.353629	0.333333
O168	O	1.354492	-0.020295	0.666666
H169	H	0.676847	-0.727138	0.092504
H170	H	1.010180	-0.393804	0.425838
H171	H	1.343514	-0.060471	0.759171
H172	H	0.937624	-0.578399	0.000058
H173	H	1.270957	-0.245065	0.333391
H174	H	1.604290	0.088268	0.666725
O175	O	0.488521	-0.037091	0.000023
O176	O	0.821854	0.296242	0.333356
O177	O	1.155188	0.629576	0.666689
H178	H	0.430334	-0.027241	0.000038
H179	H	0.763667	0.306093	0.333372
H180	H	1.097000	0.639426	0.666705
O181	O	0.904799	0.172872	-0.430792
O182	O	1.238132	0.506205	-0.097459
O183	O	1.571465	0.839538	0.235875
H184	H	0.876525	0.215742	-0.495913
H185	H	1.209859	0.549075	-0.162580
H186	H	1.543192	0.882408	0.170754
H187	H	0.942228	-0.266499	0.000063
H188	H	1.275562	0.066835	0.333397
H189	H	1.608895	0.400168	0.666730
H190	H	0.779010	0.047805	-0.363105
H191	H	1.112343	0.381138	-0.029772
H192	H	1.445677	0.714472	0.303561
H193	H	0.935674	-0.710509	0.000068
H194	H	1.269008	-0.377176	0.333402
H195	H	1.602341	-0.043842	0.666735
H196	H	0.944179	-0.134386	0.000030
H197	H	1.277512	0.198947	0.333363
H198	H	1.610846	0.532280	0.666696
H199	H	0.713289	-0.103458	0.000002
H200	H	1.046623	0.229876	0.333336
H201	H	1.379956	0.563209	0.666669
O202	O	0.694380	-0.242953	0.000019
O203	O	1.027713	0.090381	0.333353
O204	O	1.361047	0.423714	0.666686
H205	H	0.650687	-0.199474	0.000026
H206	H	0.984020	0.133859	0.333359
H207	H	1.317353	0.467192	0.666693
O208	O	0.690056	-0.535602	0.000022
O209	O	1.023389	-0.202268	0.333356
O210	O	1.356723	0.131065	0.666689
H211	H	0.701581	-0.480280	0.000040
H212	H	1.034914	-0.146946	0.333373
H213	H	1.368248	0.186387	0.666707
O214	O	0.744174	0.013142	-0.569181
O215	O	1.077507	0.346475	-0.235848
O216	O	1.410840	0.679808	0.097485
H217	H	0.761581	-0.040546	-0.596544
H218	H	1.094914	0.292788	-0.263210
H219	H	1.428247	0.626121	0.070123
O220	O	0.195872	-0.041408	0.000031
O221	O	0.529205	0.291925	0.333364
O222	O	0.862538	0.625258	0.666697
H223	H	0.178549	-0.079529	0.092549
H224	H	0.511882	0.253805	0.425882
H225	H	0.845215	0.587138	0.759215
O226	O	0.009081	0.220884	0.000020
O227	O	0.342414	0.554217	0.333353
O228	O	0.675747	0.887551	0.666686
H229	H	0.011528	0.244200	0.092531
H230	H	0.344861	0.577533	0.425864
H231	H	0.678194	0.910867	0.759197
O232	O	0.160455	0.223117	0.000003
O233	O	0.493788	0.556450	0.333337
O234	O	0.827121	0.889783	0.666670
H235	H	0.116980	0.266813	-0.000017
H236	H	0.450313	0.600147	0.333316
H237	H	0.783646	0.933480	0.666650
O238	O	0.882682	0.150861	-0.655742
O239	O	1.216016	0.484195	-0.322409
O240	O	1.549349	0.817528	0.010924
H241	H	0.884493	0.152642	-0.767065
H242	H	1.217826	0.485975	-0.433732
H243	H	1.551160	0.819309	-0.100398
H244	H	0.464974	0.210765	0.000002
H245	H	0.798307	0.544099	0.333336
H246	H	1.131641	0.877432	0.666669
O247	O	0.044499	-0.043645	0.000047
O248	O	0.377832	0.289688	0.333381
O249	O	0.711166	0.623022	0.666714
H250	H	0.087978	-0.087338	0.000034
H251	H	0.421311	0.245996	0.333368
H252	H	0.754645	0.579329	0.666701
H253	H	0.597082	0.212711	0.000028
H254	H	0.930415	0.546045	0.333361
H255	H	1.263748	0.879378	0.666695
