data_functionalizedCrystal
_audit_creation_method	'MofGen! by Chris Wilmer'
_symmetry_space_group_name_H-M	'P1'
_symmetry_Int_Tables_number	1
_symmetry_cell_setting	triclinic
loop_
_symmetry_equiv_pos_as_xyz
  x,y,z
_cell_length_a	6.817900
_cell_length_b	13.167930
_cell_length_c	16.015572
_cell_angle_alpha	82.528611
_cell_angle_beta	104.485554
_cell_angle_gamma	105.754568
loop_
_atom_site_label
_atom_site_type_symbol
_atom_site_fract_x
_atom_site_fract_y
_atom_site_fract_z
V1	V	-3.996640	-0.042085	-0.272767
O2	O	-3.966969	0.107267	-0.255665
O3	O	-3.965442	-0.184668	-0.282356
O4	O	-3.927310	0.004742	-0.386504
O5	O	-4.005364	-0.083454	-0.150796
V6	V	-4.480751	-0.029677	-0.256787
O7	O	-4.256608	-0.069302	-0.307821
O8	O	-4.670979	-0.002460	-0.221733
O9	O	-4.288742	0.112906	-0.247198
O10	O	-4.627819	-0.179029	-0.273889
O11	O	-4.589423	0.011692	-0.378758
O12	O	-4.326874	-0.076504	-0.143050
C13	C	-3.815304	-0.220870	-0.281009
C14	C	-3.870944	-0.337136	-0.289607
C15	C	-3.919304	-0.585899	-0.149927
C16	C	-3.971581	-0.695142	-0.158002
C17	C	-4.027789	-0.664868	-0.313831
C18	C	-3.975512	-0.555625	-0.305756
C19	C	-3.921267	-0.516145	-0.223801
C20	C	-3.868976	-0.406899	-0.215727
C21	C	-3.925198	-0.376627	-0.371556
C22	C	-3.977475	-0.485871	-0.379630
C23	C	-3.766663	0.020743	-0.413859
C24	C	-3.791376	0.058086	-0.506915
C25	C	-4.119998	-0.273369	-0.911122
C26	C	-4.143220	-0.238246	-0.998555
C27	C	-4.044309	-0.056530	-0.959280
C28	C	-4.021068	-0.091638	-0.871841
C29	C	-4.058919	-0.200059	-0.847770
C30	C	-3.959989	-0.018328	-0.808489
C31	C	-3.936761	-0.053434	-0.721058
C32	C	-3.974613	-0.161850	-0.696979
C33	C	-4.035691	-0.235165	-0.760339
C34	C	-3.922153	0.090092	-0.832562
C35	C	-3.861074	0.163403	-0.769210
C36	C	-3.837831	0.128297	-0.681777
C37	C	-3.875683	0.019881	-0.657698
C38	C	-3.776753	0.201612	-0.618417
C39	C	-3.753525	0.166507	-0.530986
C40	C	-3.852455	-0.015224	-0.570267
C41	C	-4.102223	0.149101	-0.248543
C42	C	-4.025821	0.265369	-0.239951
C43	C	-4.150864	-0.092510	-0.115691
C44	C	-4.105390	-0.129848	-0.022633
H45	H	-3.969980	-0.751934	-0.097845
H46	H	-3.926787	-0.319820	-0.431709
H47	H	-4.071992	-0.697034	-0.380555
Br48	Br	-3.903765	-0.162368	-0.537589
Br49	Br	-4.087001	-0.382308	-0.727661
Br50	Br	-4.051108	-0.539462	-0.490849
Br51	Br	-4.171308	-0.420513	-0.878444
H52	H	-3.875109	-0.553753	-0.083196
H53	H	-3.830269	0.251679	-0.788821
Br54	Br	-3.795345	-0.353318	-0.104505
Br55	Br	-4.226134	-0.337751	-1.084535
Br56	Br	-3.992951	0.090607	-0.991956
Br57	Br	-3.725424	0.348749	-0.651098
H58	H	-3.703789	0.226203	-0.479402
H59	H	-3.941038	0.118672	-0.903754
H60	H	-3.955703	-0.190431	-0.625787
