data_functionalizedCrystal
_audit_creation_method	'MofGen! by Chris Wilmer'
_symmetry_space_group_name_H-M	'P1'
_symmetry_Int_Tables_number	1
_symmetry_cell_setting	triclinic
loop_
_symmetry_equiv_pos_as_xyz
  x,y,z
_cell_length_a	17.699077
_cell_length_b	17.699083
_cell_length_c	7.540329
_cell_angle_alpha	89.995522
_cell_angle_beta	89.997601
_cell_angle_gamma	83.281795
loop_
_atom_site_label
_atom_site_type_symbol
_atom_site_fract_x
_atom_site_fract_y
_atom_site_fract_z
O1	O	1.004077	0.095689	-0.147462
O2	O	0.783698	0.108146	-0.147472
O3	O	0.900114	-0.008272	-0.147451
O4	O	0.887661	0.212107	-0.147483
O5	O	0.900107	-0.008274	0.147514
O6	O	0.783691	0.108144	0.147494
O7	O	1.004070	0.095687	0.147503
Cu8	Cu	0.893880	0.101916	0.174431
Cu9	Cu	0.893888	0.101917	-0.174400
O10	O	0.887654	0.212105	0.147482
C11	C	0.755498	0.107700	0.000010
C12	C	0.671479	0.106363	0.000007
C13	C	0.632008	0.105732	0.160794
C14	C	0.553066	0.104464	0.160796
C15	C	0.513595	0.103832	0.000009
C16	C	0.553072	0.104460	-0.160791
C17	C	0.632014	0.105723	-0.160791
C18	C	0.234709	0.099367	-0.160793
C19	C	0.155761	0.098106	-0.160781
C20	C	0.155760	0.098108	0.160794
C21	C	0.234702	0.099371	0.160794
C22	C	0.274173	0.099995	-0.000005
C23	C	0.359772	0.101369	-0.000005
C24	C	0.427997	0.102464	0.000008
C25	C	0.899664	-0.036470	0.000032
C26	C	0.898326	-0.120488	0.000032
C27	C	0.966659	-0.169110	0.000038
C28	C	0.965397	-0.248054	0.000022
C29	C	0.895800	-0.278373	0.000014
C30	C	0.827461	-0.229744	0.000003
C31	C	0.828724	-0.150803	0.000006
C32	C	0.822366	-0.548107	-0.000012
C33	C	0.821108	-0.627055	-0.000009
C34	C	0.959039	-0.645358	0.000004
C35	C	0.960302	-0.566417	0.000007
C36	C	0.891963	-0.517795	-0.000013
C37	C	0.893333	-0.432196	0.000001
C38	C	0.894430	-0.363971	0.000013
C39	C	1.032271	0.096133	0.000017
C40	C	1.116289	0.097470	0.000009
C41	C	0.888104	0.240303	-0.000004
C42	C	0.889443	0.324321	-0.000017
N43	N	0.893880	0.101914	0.419779
N44	N	0.893894	0.101913	-0.419748
H45	H	0.266835	0.099889	0.291723
C46	C	0.705183	-0.508215	-0.151632
C47	C	0.747246	-0.494674	-0.000009
H48	H	0.658803	-0.475228	-0.151617
H49	H	0.733724	-0.499025	-0.254476
H50	H	0.694485	-0.559573	-0.151613
H51	H	0.757949	-0.443316	-0.000035
H52	H	0.718700	-0.503857	0.102861
C53	C	0.034749	0.096159	0.303613
C54	C	0.112374	0.097408	0.337553
H55	H	0.007968	0.095724	0.412735
H56	H	0.015958	0.140068	0.237555
H57	H	0.027679	0.051830	0.237554
H58	H	0.119445	0.141741	0.403601
H59	H	0.131171	0.053495	0.403639
H60	H	0.520929	0.103940	-0.291706
C61	C	0.664944	0.041078	0.434896
C62	C	0.675393	0.106424	0.337537
H63	H	0.691732	0.041502	0.544007
H64	H	0.612286	0.040241	0.457903
H65	H	0.683742	-0.002828	0.368812
H66	H	0.656590	0.150329	0.403616
H67	H	0.728062	0.107267	0.314535
C68	C	1.044010	-0.347431	-0.151622
C69	C	1.040514	-0.301495	0.000022
H70	H	1.090390	-0.380419	-0.151628
H71	H	1.002389	-0.376787	-0.151618
H72	H	1.041635	-0.316239	-0.254463
H73	H	1.042884	-0.332688	0.102863
H74	H	1.082147	-0.272137	0.000035
H75	H	0.773080	-0.111214	0.000001
H76	H	0.123626	0.097591	-0.291721
C77	C	1.076232	-0.685253	-0.151615
C78	C	1.034161	-0.698804	0.000003
H79	H	1.122610	-0.718244	-0.151602
H80	H	1.047694	-0.694430	-0.254462
H81	H	1.086935	-0.633897	-0.151586
H82	H	1.023453	-0.750160	-0.000032
H83	H	1.062706	-0.689633	0.102877
H84	H	0.266836	0.099873	-0.291726
C85	C	0.739683	-0.705217	-0.151663
C86	C	0.744603	-0.660386	-0.000036
H87	H	0.692456	-0.725797	-0.151669
H88	H	0.743044	-0.674798	-0.254504
H89	H	0.780207	-0.745468	-0.151627
H90	H	0.704082	-0.620131	-0.000078
H91	H	0.741235	-0.690807	0.102832
C92	C	1.041739	-0.488251	-0.151616
C93	C	1.036803	-0.533089	0.000011
H94	H	1.088967	-0.467674	-0.151610
H95	H	1.038384	-0.518665	-0.254457
H96	H	1.001218	-0.447998	-0.151595
H97	H	1.077322	-0.573346	-0.000017
H98	H	1.040165	-0.502673	0.102878
C99	C	0.712168	0.172180	-0.347353
C100	C	0.675407	0.106419	-0.337528
H101	H	0.738961	0.172603	-0.456462
H102	H	0.675517	0.215799	-0.340689
H103	H	0.746968	0.172728	-0.251580
H104	H	0.640603	0.105874	-0.433294
H105	H	0.712062	0.062789	-0.344209
H106	H	1.023333	-0.144431	0.000055
C107	C	0.746029	-0.307902	-0.151631
C108	C	0.750960	-0.263072	-0.000006
H109	H	0.698800	-0.328480	-0.151623
H110	H	0.749386	-0.277483	-0.254473
H111	H	0.786550	-0.348156	-0.151607
H112	H	0.710441	-0.222815	-0.000036
H113	H	0.747595	-0.293493	0.102863
C114	C	0.472942	0.037991	0.347385
C115	C	0.509687	0.103762	0.337549
H116	H	0.446169	0.037553	0.456519
H117	H	0.438135	0.037440	0.251652
H118	H	0.509607	-0.005625	0.340685
H119	H	0.473022	0.147379	0.344236
H120	H	0.544498	0.104321	0.433309
