data_functionalizedCrystal
_audit_creation_method	'MofGen! by Chris Wilmer'
_symmetry_space_group_name_H-M	'P1'
_symmetry_Int_Tables_number	1
_symmetry_cell_setting	triclinic
loop_
_symmetry_equiv_pos_as_xyz
  x,y,z
_cell_length_a	23.532407
_cell_length_b	23.532407
_cell_length_c	12.503572
_cell_angle_alpha	93.496478
_cell_angle_beta	86.509276
_cell_angle_gamma	82.848678
loop_
_atom_site_label
_atom_site_type_symbol
_atom_site_fract_x
_atom_site_fract_y
_atom_site_fract_z
O1	O	0.758558	0.065826	-0.089196
O2	O	1.258558	0.565826	0.410804
O3	O	0.592696	0.075828	-0.089229
O4	O	1.092696	0.575828	0.410771
O5	O	0.680627	-0.012104	-0.089192
O6	O	1.180627	0.487896	0.410808
O7	O	0.670626	0.153758	-0.089233
O8	O	1.170626	0.653758	0.410767
O9	O	0.674014	-0.005480	0.089447
O10	O	1.174014	0.494520	0.589447
O11	O	0.586082	0.082452	0.089410
O12	O	1.086082	0.582452	0.589410
O13	O	0.751945	0.072450	0.089443
O14	O	1.251945	0.572450	0.589443
Cu15	Cu	0.668410	0.078056	0.105738
Cu16	Cu	1.168410	0.578056	0.605738
Cu17	Cu	0.676230	0.070222	-0.105524
Cu18	Cu	1.176230	0.570222	0.394476
O19	O	0.664013	0.160382	0.089406
O20	O	1.164013	0.660382	0.589406
C21	C	0.568173	0.078885	0.000086
C22	C	1.068173	0.578885	0.500086
C23	C	0.504957	0.078119	0.000075
C24	C	1.004957	0.578119	0.500075
C25	C	0.105852	0.125354	0.000111
C26	C	0.605852	0.625354	0.500111
C27	C	0.046452	0.124642	0.000118
C28	C	0.546452	0.624642	0.500118
O29	O	0.009706	0.168429	0.000146
O30	O	0.509706	0.668429	0.500146
N31	N	0.023825	0.072367	0.000129
N32	N	0.523825	0.572367	0.500129
C33	C	0.060602	0.020799	0.000145
C34	C	0.560602	0.520799	0.500145
O35	O	0.035902	-0.023731	0.000156
O36	O	0.535902	0.476269	0.500156
C37	C	0.120001	0.021511	0.000146
C38	C	0.620001	0.521511	0.500146
C39	C	0.142625	0.073790	0.000124
C40	C	0.642625	0.573790	0.500124
C41	C	0.128476	0.177628	0.000090
C42	C	0.628476	0.677628	0.500090
C43	C	0.187873	0.178339	0.000082
C44	C	0.687873	0.678339	0.500082
C45	C	0.224645	0.126775	0.000094
C46	C	0.724645	0.626775	0.500094
C47	C	0.202021	0.074501	0.000115
C48	C	0.702021	0.574501	0.500115
C49	C	0.156777	-0.030056	0.000169
C50	C	0.656777	0.469944	0.500169
C51	C	0.216179	-0.029339	0.000171
C52	C	0.716179	0.470661	0.500171
C53	C	0.238803	0.022940	0.000148
C54	C	0.738803	0.522940	0.500148
C55	C	0.298190	0.023648	0.000118
C56	C	0.798190	0.523648	0.500118
N57	N	0.320817	0.075924	0.000107
N58	N	0.820817	0.575924	0.500107
C59	C	0.284044	0.127488	0.000095
C60	C	0.784044	0.627488	0.500095
C61	C	-0.064140	0.019307	0.000145
C62	C	0.435860	0.519307	0.500145
C63	C	-0.123538	0.018595	0.000136
C64	C	0.376462	0.518595	0.500136
C65	C	-0.137685	0.122438	0.000111
C66	C	0.362315	0.622438	0.500111
C67	C	-0.078286	0.123151	0.000112
C68	C	0.421714	0.623151	0.500112
C69	C	-0.041514	0.071583	0.000133
C70	C	0.458486	0.571583	0.500133
C71	C	0.408782	0.128976	0.000076
C72	C	0.908782	0.628976	0.500076
C73	C	0.468184	0.129683	0.000062
C74	C	0.968184	0.629683	0.500062
C75	C	0.482325	0.025839	0.000093
C76	C	0.982325	0.525839	0.500093
C77	C	0.422928	0.025133	0.000100
C78	C	0.922928	0.525133	0.500100
C79	C	0.386157	0.076706	0.000095
C80	C	0.886157	0.576706	0.500095
O81	O	0.334970	-0.020116	0.000095
O82	O	0.834970	0.479884	0.500095
O83	O	0.308752	0.172011	0.000098
O84	O	0.808752	0.672011	0.500098
C85	C	0.677066	-0.030008	0.000130
C86	C	1.177066	0.469992	0.500130
C87	C	0.676300	-0.093225	0.000138
C88	C	1.176300	0.406775	0.500138
C89	C	0.723535	-0.492329	0.000089
C90	C	1.223535	0.007671	0.500089
C91	C	0.722824	-0.551730	0.000080
C92	C	1.222824	-0.051730	0.500080
O93	O	0.766611	-0.588476	0.000050
O94	O	1.266611	-0.088476	0.500050
N95	N	0.670548	-0.574357	0.000071
N96	N	1.170548	-0.074357	0.500071
C97	C	0.618980	-0.537579	0.000059
C98	C	1.118980	-0.037579	0.500059
O99	O	0.574450	-0.562279	0.000049
O100	O	1.074450	-0.062279	0.500049
C101	C	0.619692	-0.478180	0.000059
C102	C	1.119692	0.021820	0.500059
C103	C	0.671971	-0.455557	0.000080
C104	C	1.171971	0.044443	0.500080
C105	C	0.775810	-0.469706	0.000108
C106	C	1.275810	0.030294	0.500108
C107	C	0.776521	-0.410309	0.000118
C108	C	1.276521	0.089691	0.500118
C109	C	0.724957	-0.373536	0.000109
C110	C	1.224957	0.126464	0.500109
C111	C	0.672682	-0.396160	0.000090
C112	C	1.172682	0.103840	0.500090
C113	C	0.568126	-0.441405	0.000039
C114	C	1.068126	0.058595	0.500039
C115	C	0.568842	-0.382002	0.000039
C116	C	1.068842	0.117998	0.500039
C117	C	0.621121	-0.359379	0.000060
C118	C	1.121121	0.140621	0.500060
C119	C	0.621829	-0.299991	0.000091
C120	C	1.121829	0.200009	0.500091
N121	N	0.674105	-0.277365	0.000101
N122	N	1.174105	0.222635	0.500101
C123	C	0.725669	-0.314137	0.000110
C124	C	1.225669	0.185863	0.500110
C125	C	0.617489	-0.662322	0.000055
C126	C	1.117489	-0.162322	0.500055
C127	C	0.616776	-0.721720	0.000062
C128	C	1.116776	-0.221720	0.500062
C129	C	0.720620	-0.735866	0.000082
C130	C	1.220620	-0.235866	0.500082
C131	C	0.721332	-0.676467	0.000083
C132	C	1.221332	-0.176467	0.500083
C133	C	0.669765	-0.639696	0.000065
C134	C	1.169765	-0.139696	0.500065
C135	C	0.727158	-0.189400	0.000133
C136	C	1.227158	0.310600	0.500133
C137	C	0.727864	-0.129997	0.000147
C138	C	1.227864	0.370003	0.500147
C139	C	0.624020	-0.115856	0.000122
C140	C	1.124020	0.384144	0.500122
C141	C	0.623314	-0.175253	0.000113
C142	C	1.123314	0.324747	0.500113
C143	C	0.674887	-0.212024	0.000114
C144	C	1.174887	0.287976	0.500114
O145	O	0.578065	-0.263211	0.000118
O146	O	1.078065	0.236789	0.500118
O147	O	0.770192	-0.289430	0.000106
O148	O	1.270192	0.210570	0.500106
C149	C	0.776467	0.069393	0.000125
C150	C	1.276467	0.569393	0.500125
C151	C	0.839684	0.070159	0.000130
C152	C	1.339684	0.570159	0.500130
C153	C	0.667574	0.178286	0.000081
C154	C	1.167574	0.678286	0.500081
C155	C	0.668341	0.241502	0.000066
C156	C	1.168341	0.741502	0.500066
N157	N	0.662913	0.083565	0.254327
N158	N	1.162913	0.583565	0.754327
N159	N	0.681732	0.064708	-0.254114
N160	N	1.181732	0.564708	0.245886
C161	C	0.654828	0.091674	0.473439
C162	C	1.154828	0.591674	0.973439
C163	C	0.689815	0.056601	0.526781
C164	C	1.189815	0.556601	1.026781
C165	C	0.685316	0.061113	0.648702
C166	C	1.185316	0.561113	1.148702
C167	C	0.659326	0.087163	0.351507
C168	C	1.159326	0.587163	0.851507
H169	H	0.098541	0.219620	0.000084
H170	H	0.598541	0.719620	0.500084
H171	H	0.512276	-0.016143	0.000099
H172	H	1.012276	0.483857	0.500099
C173	C	0.778057	-0.651835	-0.000073
C174	C	1.278057	-0.151835	0.499927
C175	C	0.784898	-0.621540	-0.091967
C176	C	1.284898	-0.121540	0.408033
C177	C	0.837145	-0.598838	-0.092144
C178	C	1.337145	-0.098838	0.407856
H179	H	0.808713	-0.682190	-0.000121
H180	H	1.308713	-0.182190	0.499879
H181	H	0.778197	-0.626620	0.062189
H182	H	1.278197	-0.126620	0.562189
H183	H	0.784764	-0.646753	-0.154213
H184	H	1.284764	-0.146753	0.345787
H185	H	0.754255	-0.591177	-0.091939
H186	H	1.254255	-0.091177	0.408061
H187	H	0.837284	-0.573623	-0.029882
H188	H	1.337284	-0.073623	0.470118
H189	H	0.867796	-0.629197	-0.092189
H190	H	1.367796	-0.129197	0.407811
H191	H	0.841791	-0.578276	-0.154487
H192	H	1.341791	-0.078276	0.345513
C193	C	0.734112	0.011897	0.465584
C194	C	1.234112	0.511897	0.965584
C195	C	0.706160	-0.025082	0.401163
C196	C	1.206160	0.474918	0.901163
C197	C	0.746917	-0.066316	0.344818
C198	C	1.246917	0.433684	0.844818
H199	H	0.755426	-0.009562	0.515072
H200	H	1.255426	0.490438	1.015072
H201	H	0.759404	0.030473	0.421556
H202	H	1.259404	0.530473	0.921556
H203	H	0.680878	-0.043657	0.445187
H204	H	1.180878	0.456343	0.945187
H205	H	0.684849	-0.003640	0.351655
H206	H	1.184849	0.496360	0.851655
H207	H	0.772209	-0.047740	0.300790
H208	H	1.272209	0.452260	0.800790
H209	H	0.768228	-0.087770	0.394313
H210	H	1.268228	0.412230	0.894313
H211	H	0.727958	-0.091408	0.301094
H212	H	1.227958	0.408592	0.801094
C213	C	0.492670	0.186483	-0.000128
C214	C	0.992670	0.686483	0.499872
C215	C	0.477330	0.214230	-0.092026
C216	C	0.977330	0.714230	0.407974
C217	C	0.499866	0.266557	-0.092230
C218	C	0.999866	0.766557	0.407770
H219	H	0.533313	0.179607	-0.000189
H220	H	1.033313	0.679607	0.499811
H221	H	0.477710	0.210038	0.062131
H222	H	0.977710	0.710038	0.562131
H223	H	0.492292	0.190680	-0.154269
H224	H	0.992292	0.690680	0.345731
H225	H	0.436691	0.221120	-0.091985
H226	H	0.936691	0.721120	0.408015
H227	H	0.484906	0.290113	-0.029971
H228	H	0.984906	0.790113	0.470029
H229	H	0.540508	0.259676	-0.092288
H230	H	1.040508	0.759676	0.407712
H231	H	0.489456	0.285393	-0.154576
H232	H	0.989456	0.785393	0.345424
H233	H	0.525555	-0.459814	0.000016
H234	H	1.025555	0.040186	0.500016
H235	H	0.770437	-0.111581	0.000167
H236	H	1.270437	0.388419	0.500167
C237	C	-0.024311	-0.036748	0.000094
C238	C	0.475689	0.463252	0.500094
C239	C	-0.056845	-0.082677	0.000073
C240	C	0.443155	0.417323	0.500073
C241	C	-0.020176	-0.134324	0.000012
C242	C	0.479824	0.365676	0.500012
H243	H	-0.003132	-0.036407	0.062370
H244	H	0.496868	0.463593	0.562370
H245	H	0.001449	-0.040972	-0.062229
H246	H	0.501449	0.459028	0.437771
H247	H	-0.082595	-0.078455	0.062389
H248	H	0.417405	0.421545	0.562389
H249	H	-0.078022	-0.083037	-0.062199
H250	H	0.421978	0.416963	0.437801
H251	H	0.005584	-0.138547	-0.062310
H252	H	0.505584	0.361453	0.437690
H253	H	0.001000	-0.133977	0.062290
H254	H	0.501000	0.366023	0.562290
H255	H	-0.042245	-0.165493	-0.000012
H256	H	0.457755	0.334507	0.499988
C257	C	0.368804	0.184920	-0.000106
C258	C	0.868804	0.684920	0.499894
C259	C	0.337675	0.184133	-0.091998
C260	C	0.837675	0.684133	0.408002
C261	C	0.300838	0.235653	-0.092203
C262	C	0.800838	0.735653	0.407797
H263	H	0.390722	0.216196	-0.000178
H264	H	0.890722	0.716196	0.499822
H265	H	0.343003	0.189122	0.062157
H266	H	0.843003	0.689122	0.562157
H267	H	0.363473	0.179937	-0.154245
H268	H	0.863473	0.679937	0.345755
H269	H	0.315745	0.152868	-0.091946
H270	H	0.815745	0.652868	0.408054
H271	H	0.275037	0.239855	-0.029939
H272	H	0.775037	0.739855	0.470061
H273	H	0.322761	0.266926	-0.092272
H274	H	0.822761	0.766926	0.407728
H275	H	0.279709	0.235124	-0.154545
H276	H	0.779709	0.735124	0.345455
H277	H	-0.141952	-0.023977	0.000137
H278	H	0.358048	0.476023	0.500137
H279	H	0.575494	-0.632385	0.000050
H280	H	1.075494	-0.132385	0.500050
C281	C	0.610297	0.136163	0.534577
C282	C	1.110297	0.636163	1.034577
C283	C	0.555347	0.126313	0.507350
C284	C	1.055347	0.626313	1.007350
C285	C	0.514313	0.167279	0.563673
C286	C	1.014313	0.667279	1.063673
H287	H	0.616922	0.173482	0.516253
H288	H	1.116922	0.673482	1.016253
H289	H	0.613106	0.133308	0.609585
H290	H	1.113106	0.633308	1.109585
H291	H	0.552540	0.129173	0.432358
H292	H	1.052540	0.629173	0.932358
H293	H	0.548704	0.089002	0.525676
H294	H	1.048704	0.589002	1.025676
H295	H	0.517122	0.164424	0.638681
H296	H	1.017122	0.664424	1.138681
H297	H	0.520944	0.204595	0.545346
H298	H	1.020944	0.704595	1.045346
H299	H	0.477025	0.160598	0.545215
H300	H	0.977025	0.660598	1.045215
C301	C	0.212317	0.235162	0.000128
C302	C	0.712317	0.735162	0.500128
C303	C	0.167389	0.280161	0.000151
C304	C	0.667389	0.780161	0.500151
C305	C	0.189879	0.332518	0.000213
C306	C	0.689879	0.832518	0.500213
H307	H	0.237487	0.235378	-0.062149
H308	H	0.737487	0.735378	0.437851
H309	H	0.232872	0.239940	0.062450
H310	H	0.732872	0.739940	0.562450
H311	H	0.146843	0.275384	-0.062165
H312	H	0.646843	0.775384	0.437835
H313	H	0.142215	0.279964	0.062423
H314	H	0.642215	0.779964	0.562423
H315	H	0.210435	0.337296	0.062535
H316	H	0.710435	0.837296	0.562535
H317	H	0.215050	0.332728	-0.062065
H318	H	0.715050	0.832728	0.437935
H319	H	0.159399	0.363057	0.000239
H320	H	0.659399	0.863057	0.500239
H321	H	0.138368	-0.072627	0.000188
H322	H	0.638368	0.427373	0.500188
H323	H	-0.059870	0.165721	0.000100
H324	H	0.440130	0.665721	0.500100
H325	H	0.246116	-0.071332	0.000189
H326	H	0.746116	0.428668	0.500189
H327	H	0.526849	-0.352065	0.000023
H328	H	1.026849	0.147935	0.500023
C329	C	0.398336	-0.031617	-0.000105
C330	C	0.898336	0.468383	0.499895
C331	C	0.368050	-0.038475	-0.092012
C332	C	0.868050	0.461525	0.407988
C333	C	0.345398	-0.090748	-0.092232
C334	C	0.845398	0.409252	0.407768
H335	H	0.373124	-0.031800	0.062126
H336	H	0.873124	0.468200	0.562126
H337	H	0.428731	-0.062244	-0.000160
H338	H	0.928731	0.437756	0.499840
H339	H	0.337658	-0.007855	-0.091946
H340	H	0.837658	0.492145	0.408054
H341	H	0.393249	-0.038302	-0.154257
H342	H	0.893249	0.461698	0.345743
H343	H	0.375793	-0.121376	-0.092288
H344	H	0.875793	0.378624	0.407712
H345	H	0.320188	-0.090927	-0.029998
H346	H	0.820188	0.409073	0.470002
H347	H	0.324850	-0.095411	-0.154595
H348	H	0.824850	0.404589	0.345405
C349	C	0.783210	-0.229220	0.000195
C350	C	1.283210	0.270780	0.500195
C351	C	0.829135	-0.196682	0.000243
C352	C	1.329135	0.303318	0.500243
C353	C	0.880778	-0.233343	0.000322
C354	C	1.380778	0.266657	0.500322
H355	H	0.787485	-0.255003	-0.062085
H356	H	1.287485	0.244997	0.437915
H357	H	0.782817	-0.250373	0.062514
H358	H	1.282817	0.249627	0.562514
H359	H	0.829529	-0.175539	-0.062070
H360	H	1.329529	0.324461	0.437930
H361	H	0.824880	-0.170900	0.062518
H362	H	1.324880	0.329100	0.562518
H363	H	0.880384	-0.254496	0.062641
H364	H	1.380384	0.245504	0.562641
H365	H	0.885046	-0.259125	-0.061959
H366	H	1.385046	0.240875	0.438041
H367	H	0.911944	-0.211271	0.000365
H368	H	1.411944	0.288729	0.500365
H369	H	-0.167636	0.164425	0.000107
H370	H	0.332364	0.664425	0.500107
H371	H	0.819092	-0.391895	0.000131
H372	H	1.319092	0.108105	0.500131
C373	C	0.776657	-0.775737	-0.000086
C374	C	1.276657	-0.275737	0.499914
C375	C	0.811560	-0.768947	-0.091974
C376	C	1.311560	-0.268947	0.408026
C377	C	0.863185	-0.805661	-0.092158
C378	C	1.363185	-0.305661	0.407842
H379	H	0.768826	-0.814374	-0.000149
H380	H	1.268826	-0.314374	0.499851
H381	H	0.795837	-0.766602	0.062180
H382	H	1.295837	-0.266602	0.562180
H383	H	0.792384	-0.778086	-0.154224
H384	H	1.292384	-0.278086	0.345776
H385	H	0.819407	-0.730318	-0.091931
H386	H	1.319407	-0.230318	0.408069
H387	H	0.882365	-0.796526	-0.029892
H388	H	1.382365	-0.296526	0.470108
H389	H	0.855348	-0.844296	-0.092218
H390	H	1.355348	-0.344296	0.407782
H391	H	0.886875	-0.801055	-0.154497
H392	H	1.386875	-0.301055	0.345503
H393	H	0.580743	-0.193673	0.000126
H394	H	1.080743	0.306327	0.500126
H395	H	0.817802	-0.499641	0.000112
H396	H	1.317802	0.000359	0.500112
H397	H	0.574205	-0.740133	0.000064
H398	H	1.074205	-0.240133	0.500064
H399	H	0.582038	-0.085905	0.000118
H400	H	1.082038	0.414095	0.500118
