data_functionalizedCrystal
_audit_creation_method	'MofGen! by Chris Wilmer'
_symmetry_space_group_name_H-M	'P1'
_symmetry_Int_Tables_number	1
_symmetry_cell_setting	triclinic
loop_
_symmetry_equiv_pos_as_xyz
  x,y,z
_cell_length_a	17.640112
_cell_length_b	29.839131
_cell_length_c	17.639477
_cell_angle_alpha	78.750105
_cell_angle_beta	114.276174
_cell_angle_gamma	101.266684
loop_
_atom_site_label
_atom_site_type_symbol
_atom_site_fract_x
_atom_site_fract_y
_atom_site_fract_z
Zn1	Zn	1.165534	-0.020459	-0.211674
Zn2	Zn	1.193241	-0.108238	-0.073890
Zn3	Zn	1.055575	-0.045762	-0.101699
Zn4	Zn	1.027663	-0.108229	-0.239451
O5	O	1.110503	-0.070672	-0.156678
O6	O	1.284522	-0.021517	-0.170134
O7	O	1.198256	-0.110543	0.037734
O8	O	1.070247	0.020473	-0.116300
O9	O	1.304878	-0.086008	-0.068905
O10	O	1.151033	0.039063	-0.197098
O11	O	1.097114	-0.064642	0.017303
O12	O	0.936560	-0.064634	-0.143235
O13	O	1.022676	-0.085993	-0.351079
O14	O	0.916053	-0.110528	-0.244441
O15	O	1.123968	-0.021509	-0.330671
O16	O	1.171191	-0.171115	-0.095839
O17	O	1.049542	-0.171109	-0.217476
C18	C	0.896407	-0.090326	-0.199870
C19	C	0.804812	-0.098743	-0.218367
C20	C	1.110363	-0.187412	-0.156668
C21	C	1.110373	-0.237344	-0.156675
C22	C	0.556755	-0.006719	-0.016165
C23	C	0.470685	-0.014636	-0.033557
C24	C	0.449423	-0.062522	-0.138761
C25	C	0.535492	-0.054607	-0.121381
C26	C	0.589152	-0.026706	-0.060082
C27	C	0.567888	-0.074593	-0.165298
C28	C	0.653951	-0.066681	-0.147915
C29	C	0.707616	-0.038782	-0.086617
C30	C	0.675214	-0.018793	-0.042699
C31	C	0.514228	-0.102497	-0.226593
C32	C	0.546624	-0.122484	-0.270509
C33	C	0.632687	-0.114569	-0.253131
C34	C	0.686353	-0.086670	-0.191833
C35	C	0.665090	-0.134557	-0.297049
C36	C	0.751152	-0.126645	-0.279666
C37	C	0.772415	-0.078757	-0.174451
C38	C	1.173926	-0.546947	-0.093400
C39	C	1.174021	-0.734608	-0.093411
O40	O	1.227945	-0.758852	-0.039604
N41	N	1.110662	-0.758093	-0.156706
C42	C	1.047277	-0.734659	-0.220006
O43	O	0.993392	-0.758939	-0.273847
C44	C	1.047185	-0.546998	-0.219997
C45	C	1.110545	-0.523517	-0.156693
C46	C	1.237281	-0.523466	-0.030102
C47	C	1.237254	-0.476554	-0.030097
C48	C	1.173872	-0.453124	-0.093390
C49	C	1.110518	-0.476605	-0.156688
C50	C	0.983804	-0.523564	-0.283299
C51	C	0.983788	-0.476645	-0.283292
C52	C	1.047148	-0.453164	-0.219989
C53	C	1.047109	-0.406263	-0.219977
N54	N	1.110469	-0.382778	-0.156682
C55	C	1.173850	-0.406208	-0.093389
C56	C	1.047328	-0.833183	-0.220005
C57	C	1.047350	-0.880098	-0.220006
C58	C	1.174096	-0.880044	-0.093413
C59	C	1.174070	-0.833129	-0.093409
C60	C	1.110688	-0.809699	-0.156710
C61	C	1.173789	-0.307690	-0.093383
C62	C	1.173754	-0.260775	-0.093382
C63	C	1.047011	-0.260832	-0.219978
C64	C	1.047043	-0.307744	-0.219977
C65	C	1.110439	-0.331172	-0.156675
O66	O	0.993219	-0.381989	-0.273761
O67	O	1.227737	-0.381918	-0.039566
C68	C	1.173953	-0.593859	-0.093405
C69	C	1.110599	-0.617340	-0.156703
C70	C	1.047217	-0.593910	-0.219996
C71	C	1.110620	-0.664255	-0.156704
C72	C	1.174002	-0.687686	-0.093411
C73	C	1.237362	-0.664201	-0.030116
C74	C	1.237335	-0.617289	-0.030111
C75	C	0.983857	-0.617395	-0.283291
C76	C	0.983889	-0.664306	-0.283290
C77	C	1.047270	-0.687737	-0.219996
C78	C	1.325435	-0.050941	-0.113319
C79	C	1.417027	-0.042533	-0.094842
C80	C	1.067118	-0.050928	-0.371611
C81	C	1.048630	-0.042514	-0.463202
C82	C	1.110663	0.046528	-0.156703
C83	C	1.110731	0.096471	-0.156713
C84	C	1.251133	-0.134333	-0.711222
C85	C	1.233749	-0.126422	-0.797288
C86	C	1.128437	-0.078629	-0.818560
C87	C	1.145808	-0.086537	-0.732495
C88	C	1.207158	-0.114389	-0.678832
C89	C	1.101834	-0.066593	-0.700105
C90	C	1.119207	-0.074499	-0.614046
C91	C	1.180555	-0.102348	-0.560378
C92	C	1.224531	-0.122294	-0.592773
C93	C	1.040489	-0.038739	-0.753768
C94	C	0.996514	-0.018795	-0.721378
C95	C	1.013883	-0.026703	-0.635319
C96	C	1.075231	-0.054552	-0.581651
C97	C	0.969907	-0.006757	-0.602924
C98	C	0.987280	-0.014662	-0.516865
C99	C	1.092604	-0.062458	-0.495592
C100	C	1.153768	-0.090303	0.057427
C101	C	1.172416	-0.098575	0.149050
H102	H	0.816107	-0.056029	-0.124547
C103	C	1.318596	-0.164981	-0.652178
C104	C	1.395258	-0.145018	-0.579952
C105	C	1.462710	-0.175669	-0.520905
C106	C	1.453500	-0.226283	-0.534083
C107	C	1.376836	-0.246248	-0.606313
C108	C	1.309384	-0.215597	-0.665360
H109	H	1.402078	-0.107549	-0.570193
H110	H	1.519462	-0.160890	-0.467436
H111	H	1.503432	-0.248972	-0.490373
H112	H	1.370016	-0.283718	-0.616072
H113	H	1.252632	-0.230377	-0.718829
C114	C	0.802287	-0.030075	-0.067496
C115	C	0.845348	0.019397	-0.079288
C116	C	0.940018	0.028104	-0.060168
C117	C	0.991625	-0.012660	-0.029257
C118	C	0.948563	-0.062136	-0.017464
C119	C	0.853894	-0.070843	-0.036583
H120	H	0.807145	0.049576	-0.102172
H121	H	0.971894	0.064729	-0.068899
H122	H	1.061705	-0.006215	-0.015104
H123	H	0.986766	-0.092315	0.005420
H124	H	0.822017	-0.107468	-0.027853
C125	C	0.929029	0.011839	-0.780413
C126	C	0.837737	-0.001520	-0.787476
C127	C	0.770248	0.029112	-0.846510
C128	C	0.794051	0.073103	-0.898481
C129	C	0.885348	0.086464	-0.891420
C130	C	0.952837	0.055831	-0.832386
H131	H	0.820112	-0.034086	-0.749003
H132	H	0.702664	0.019222	-0.851737
H133	H	0.744092	0.095779	-0.942182
H134	H	0.902972	0.119030	-0.929893
H135	H	1.020421	0.065722	-0.827159
H136	H	1.225413	-0.326759	-0.041838
C137	C	1.307084	-0.689980	0.039507
C138	C	1.284509	-0.731490	0.097027
C139	C	1.354230	-0.757271	0.166642
C140	C	1.446525	-0.741543	0.178737
C141	C	1.469104	-0.700031	0.121214
C142	C	1.399384	-0.674250	0.051599
H143	H	1.216182	-0.743135	0.088076
H144	H	1.337515	-0.788001	0.209224
H145	H	1.498137	-0.760627	0.230270
H146	H	1.537431	-0.688386	0.130165
H147	H	1.416099	-0.643520	0.009017
C148	C	1.307034	-0.591463	0.039521
C149	C	1.364472	-0.549944	0.016817
C150	C	1.434175	-0.524121	0.086453
C151	C	1.446442	-0.539816	0.178793
C152	C	1.389002	-0.581337	0.201501
C153	C	1.319299	-0.607160	0.131865
H154	H	1.355393	-0.538323	-0.051542
H155	H	1.476695	-0.493384	0.069642
H156	H	1.498040	-0.520700	0.230341
H157	H	1.398081	-0.592957	0.269861
H158	H	1.276779	-0.637897	0.148676
C159	C	1.243821	-0.905823	-0.023792
C160	C	1.243840	-0.957427	-0.023805
C161	C	1.313564	-0.983206	0.045808
C162	C	1.383270	-0.957382	0.115434
C163	C	1.383253	-0.905775	0.115450
C164	C	1.313529	-0.879995	0.045837
H165	H	1.192237	-0.976546	-0.075349
H166	H	1.313576	-1.021409	0.045795
H167	H	1.434884	-0.976465	0.166965
H168	H	1.434856	-0.886656	0.166994
H169	H	1.313517	-0.841792	0.045849
H170	H	0.777529	-0.142919	-0.315428
C171	C	0.914187	-0.690132	-0.352931
C172	C	0.821882	-0.692960	-0.365036
C173	C	0.752187	-0.718782	-0.434680
C174	C	0.774797	-0.741776	-0.492218
C175	C	0.867106	-0.738948	-0.480114
C176	C	0.936801	-0.713126	-0.410470
H177	H	0.805142	-0.675939	-0.322442
H178	H	0.683854	-0.720876	-0.443640
H179	H	0.723204	-0.760891	-0.543772
H180	H	0.883846	-0.755970	-0.522708
H181	H	1.005134	-0.711033	-0.401510
H182	H	1.225349	-0.241658	-0.041830
C183	C	0.914130	-0.591625	-0.352914
C184	C	0.936687	-0.550119	-0.410452
C185	C	0.866952	-0.524351	-0.480077
C186	C	0.774661	-0.540090	-0.492164
C187	C	0.752100	-0.581598	-0.434624
C188	C	0.821835	-0.607366	-0.364999
H189	H	1.005011	-0.538466	-0.401507
H190	H	0.883654	-0.493624	-0.522672
H191	H	0.723039	-0.521015	-0.543705
H192	H	0.683777	-0.593251	-0.443570
H193	H	0.805133	-0.638093	-0.322405
H194	H	1.142569	-0.085133	-0.451894
H195	H	1.194701	-0.108783	-0.490303
C196	C	0.977350	-0.333579	-0.289608
C197	C	0.919921	-0.375104	-0.266908
C198	C	0.850235	-0.400934	-0.336545
C199	C	0.837978	-0.385239	-0.428883
C200	C	0.895409	-0.343711	-0.451587
C201	C	0.965095	-0.317881	-0.381949
H202	H	0.928993	-0.386724	-0.198550
H203	H	0.807721	-0.431675	-0.319738
H204	H	0.786393	-0.404360	-0.480433
H205	H	0.886337	-0.332091	-0.519945
H206	H	1.007609	-0.287140	-0.398757
H207	H	1.274495	-0.144969	-0.549076
H208	H	1.288848	-0.457438	0.021448
H209	H	0.951474	0.001580	-0.490492
C210	C	0.977297	-0.235051	-0.289599
C211	C	0.919838	-0.212061	-0.266882
C212	C	0.850128	-0.186278	-0.336507
C213	C	0.837876	-0.183483	-0.428848
C214	C	0.895336	-0.206474	-0.451569
C215	C	0.965047	-0.232258	-0.381944
H216	H	0.928906	-0.214129	-0.198522
H217	H	0.807592	-0.169258	-0.319687
H218	H	0.786273	-0.164397	-0.480388
H219	H	0.886268	-0.204407	-0.519929
H220	H	1.007582	-0.249277	-0.398764
H221	H	0.919962	0.015924	-0.646627
C222	C	0.390391	-0.093211	-0.206192
C223	C	0.338414	-0.137186	-0.182332
C224	C	0.279383	-0.167874	-0.249765
C225	C	0.272330	-0.154585	-0.341059
C226	C	0.324309	-0.110607	-0.364923
C227	C	0.383340	-0.079920	-0.297490
H228	H	0.343633	-0.147025	-0.114747
H229	H	0.240904	-0.200429	-0.232099
H230	H	0.228632	-0.177302	-0.390978
H231	H	0.319089	-0.100768	-0.432508
H232	H	0.421818	-0.047364	-0.315156
H233	H	1.269565	-0.142664	-0.823655
C234	C	0.977648	-0.905926	-0.289637
C235	C	0.907937	-0.880146	-0.359257
C236	C	0.838236	-0.905970	-0.428893
C237	C	0.838247	-0.957575	-0.428908
C238	C	0.907962	-0.983358	-0.359285
C239	C	0.977662	-0.957533	-0.289649
H240	H	0.907926	-0.841942	-0.359248
H241	H	0.786629	-0.886884	-0.480432
H242	H	0.786650	-0.976692	-0.480457
H243	H	0.907972	-1.021562	-0.359294
H244	H	1.029270	-0.976620	-0.238110
H245	H	0.718905	0.003935	0.007205
H246	H	0.600446	0.016009	0.033739
H247	H	1.078489	-0.055951	-0.862264
H248	H	0.444312	0.001645	0.002204
H249	H	0.444151	-0.108939	-0.240743
H250	H	0.502924	-0.145203	-0.320417
H251	H	0.621388	-0.157278	-0.346953
H252	H	1.026349	-0.032301	-0.823841
H253	H	0.995712	-0.814109	-0.271554
H254	H	1.288898	-0.542538	0.021440
H255	H	0.932207	-0.542675	-0.334845
H256	H	1.225663	-0.814013	-0.041862
H257	H	0.932175	-0.457570	-0.334842
