data_functionalizedCrystal
_audit_creation_method	'MofGen! by Chris Wilmer'
_symmetry_space_group_name_H-M	'P1'
_symmetry_Int_Tables_number	1
_symmetry_cell_setting	triclinic
loop_
_symmetry_equiv_pos_as_xyz
  x,y,z
_cell_length_a	11.792241
_cell_length_b	11.026607
_cell_length_c	10.268362
_cell_angle_alpha	89.999104
_cell_angle_beta	90.000426
_cell_angle_gamma	96.389716
loop_
_atom_site_label
_atom_site_type_symbol
_atom_site_fract_x
_atom_site_fract_y
_atom_site_fract_z
O1	O	1.539979	0.166545	0.108167
O2	O	2.039979	0.666545	0.608167
O3	O	1.213047	0.183709	0.108197
O4	O	1.713047	0.683709	0.608197
O5	O	1.349417	-0.001704	0.108180
O6	O	1.849417	0.498296	0.608180
O7	O	1.403609	0.351958	0.108184
O8	O	1.903609	0.851958	0.608184
O9	O	1.349402	-0.001698	-0.108421
O10	O	1.849402	0.498302	0.391579
O11	O	1.213031	0.183716	-0.108404
O12	O	1.713031	0.683716	0.391596
O13	O	1.539964	0.166551	-0.108433
O14	O	2.039964	0.666551	0.391567
Cu15	Cu	1.376496	0.175134	-0.128196
Cu16	Cu	1.876496	0.675134	0.371804
Cu17	Cu	1.376514	0.175126	0.127959
Cu18	Cu	1.876514	0.675126	0.627959
O19	O	1.403593	0.351965	-0.108416
O20	O	1.903593	0.851965	0.391584
C21	C	1.170534	0.182634	-0.000100
C22	C	1.670534	0.682634	0.499900
C23	C	1.043879	0.179407	-0.000088
C24	C	1.543879	0.679407	0.499912
C25	C	1.339412	-0.046978	-0.000118
C26	C	1.839412	0.453022	0.499882
C27	C	1.309609	-0.181888	-0.000111
C28	C	1.809609	0.318112	0.499889
C29	C	1.391899	-0.255152	-0.000116
C30	C	1.891899	0.244848	0.499884
C31	C	1.361099	-0.394589	-0.000109
C32	C	1.861099	0.105411	0.499891
C33	C	0.811989	0.173473	-0.000126
C34	C	1.311989	0.673473	0.499874
C35	C	0.941029	0.176770	-0.000105
C36	C	1.441029	0.676770	0.499895
C37	C	1.582477	0.167626	-0.000134
C38	C	2.082477	0.667626	0.499866
C39	C	1.709131	0.170853	-0.000137
C40	C	2.209131	0.670853	0.499863
C41	C	1.413598	0.397238	-0.000116
C42	C	1.913598	0.897238	0.499884
C43	C	1.443401	0.532148	-0.000114
C44	C	1.943401	1.032148	0.499886
N45	N	1.376491	0.175138	-0.308362
N46	N	1.876491	0.675138	0.191638
C47	C	1.376500	0.175139	-0.426204
C48	C	1.876500	0.675139	0.073796
C49	C	1.376512	0.175128	-0.574042
C50	C	1.876512	0.675128	-0.074042
N51	N	1.376526	0.175112	0.308125
N52	N	1.876526	0.675112	0.808125
H53	H	1.267839	-0.435088	-0.000092
H54	H	1.767839	0.064912	0.499908
N55	N	1.560392	-0.417040	-0.000118
N56	N	2.060392	0.082960	0.499882
N57	N	1.585250	-0.303843	-0.000121
N58	N	2.085250	0.196157	0.499879
H59	H	1.667874	-0.267955	-0.000123
H60	H	2.167874	0.232045	0.499877
N61	N	1.508883	-0.204329	-0.000142
N62	N	2.008883	0.295671	0.499858
N63	N	1.546858	-0.136630	-0.091450
N64	N	2.046858	0.363370	0.408550
H65	H	1.629480	-0.100735	-0.091470
H66	H	2.129480	0.399265	0.408530
N67	N	1.192626	-0.232710	-0.000112
N68	N	1.692626	0.267290	0.499888
N69	N	1.154635	-0.300413	-0.091409
N70	N	1.654635	0.199587	0.408591
H71	H	1.072013	-0.336306	-0.091412
H72	H	1.572013	0.163694	0.408588
