data_functionalizedCrystal
_audit_creation_method	'MofGen! by Chris Wilmer'
_symmetry_space_group_name_H-M	'P1'
_symmetry_Int_Tables_number	1
_symmetry_cell_setting	triclinic
loop_
_symmetry_equiv_pos_as_xyz
  x,y,z
_cell_length_a	16.120566
_cell_length_b	16.120484
_cell_length_c	16.120297
_cell_angle_alpha	95.614431
_cell_angle_beta	90.125018
_cell_angle_gamma	90.168070
loop_
_atom_site_label
_atom_site_type_symbol
_atom_site_fract_x
_atom_site_fract_y
_atom_site_fract_z
Zn1	Zn	-1.224984	0.422255	0.554879
Zn2	Zn	-0.891651	0.755588	0.888212
Zn3	Zn	-0.558318	1.088922	1.221546
Zn4	Zn	-1.224880	0.554939	0.422184
Zn5	Zn	-0.891546	0.888272	0.755517
Zn6	Zn	-0.558213	1.221606	1.088851
Zn7	Zn	-1.093724	0.408172	0.408115
Zn8	Zn	-0.760391	0.741505	0.741448
Zn9	Zn	-0.427057	1.074838	1.074781
Zn10	Zn	-1.078877	0.554173	0.554109
Zn11	Zn	-0.745544	0.887506	0.887442
Zn12	Zn	-0.412211	1.220839	1.220775
O13	O	-1.155616	0.484885	0.484822
O14	O	-0.822283	0.818218	0.818155
O15	O	-0.488950	1.151551	1.151488
O16	O	-1.341006	0.446070	0.543487
O17	O	-1.007673	0.779404	0.876821
O18	O	-0.674339	1.112737	1.210154
O19	O	-1.213651	0.529897	0.303685
O20	O	-0.880318	0.863230	0.637019
O21	O	-0.546985	1.196563	0.970352
O22	O	-1.117393	0.293409	0.422018
O23	O	-0.784060	0.626742	0.755351
O24	O	-0.450726	0.960076	1.088684
O25	O	-1.340929	0.543553	0.445997
O26	O	-1.007596	0.876886	0.779330
O27	O	-0.674263	1.210219	1.112663
O28	O	-1.213829	0.303756	0.529845
O29	O	-0.880496	0.637089	0.863178
O30	O	-0.547163	0.970423	1.196512
O31	O	-1.117292	0.422067	0.293349
O32	O	-0.783958	0.755401	0.626682
O33	O	-0.450625	1.088734	0.960015
O34	O	-0.975719	0.421324	0.421271
O35	O	-0.642386	0.754658	0.754604
O36	O	-0.309052	1.087991	1.087937
O37	O	-1.092089	0.542247	0.670843
O38	O	-0.758756	0.875580	1.004177
O39	O	-0.425423	1.208913	1.337510
O40	O	-0.964811	0.528591	0.528532
O41	O	-0.631478	0.861924	0.861865
O42	O	-0.298145	1.195257	1.195198
O43	O	-1.199433	0.445327	0.671409
O44	O	-0.866100	0.778661	1.004743
O45	O	-0.532767	1.111994	1.338076
O46	O	-1.199255	0.671468	0.445250
O47	O	-0.865922	1.004801	0.778583
O48	O	-0.532589	1.338135	1.111916
O49	O	-1.091988	0.670905	0.542174
O50	O	-0.758655	1.004238	0.875508
O51	O	-0.425321	1.337572	1.208841
C52	C	-0.940178	0.473347	0.473291
C53	C	-0.606845	0.806680	0.806625
C54	C	-0.273512	1.140013	1.139958
C55	C	-0.848011	0.468432	0.468379
C56	C	-0.514678	0.801765	0.801713
C57	C	-0.181344	1.135098	1.135046
C58	C	-1.144021	0.701429	0.495174
C59	C	-0.810687	1.034763	0.828508
C60	C	-0.477354	1.368096	1.161841
C61	C	-1.139134	0.794074	0.499635
C62	C	-0.805801	1.127407	0.832969
C63	C	-0.472468	1.460740	1.166302
C64	C	-0.679260	0.459439	0.459418
C65	C	-0.345927	0.792773	0.792751
C66	C	-0.012593	1.126106	1.126084
C67	C	-0.632809	0.510402	0.510236
C68	C	-0.299476	0.843735	0.843569
C69	C	0.033858	1.177068	1.176902
C70	C	-0.538910	0.505398	0.505249
C71	C	-0.205577	0.838732	0.838583
C72	C	0.127756	1.172065	1.171916
C73	C	-0.773167	0.464442	0.464403
C74	C	-0.439834	0.797775	0.797736
C75	C	-0.106501	1.131108	1.131070
C76	C	-0.371896	0.496470	0.496384
C77	C	-0.038563	0.829803	0.829717
C78	C	0.294771	1.163137	1.163051
C79	C	-0.464063	0.501412	0.501277
C80	C	-0.130730	0.834745	0.834610
C81	C	0.202604	1.168079	1.167943
C82	C	-1.167279	0.267496	0.474448
C83	C	-0.833946	0.600829	0.807781
C84	C	-0.500612	0.934163	1.141114
C85	C	-1.172249	0.174858	0.470027
C86	C	-0.838915	0.508191	0.803360
C87	C	-0.505582	0.841525	1.136694
C88	C	-1.144117	0.495272	0.702213
C89	C	-0.810784	0.828606	1.035547
C90	C	-0.477450	1.161939	1.368880
C91	C	-1.139216	0.499699	0.794853
C92	C	-0.805883	0.833032	1.128186
C93	C	-0.472550	1.166366	1.461519
C94	C	-1.130217	0.963697	0.507797
C95	C	-0.796884	1.297030	0.841131
C96	C	-0.463551	1.630364	1.174464
C97	C	-1.181163	1.005240	0.461868
C98	C	-0.847830	1.338573	0.795201
C99	C	-0.514497	1.671907	1.128534
C100	C	-1.176202	1.099624	0.466409
C101	C	-0.842868	1.432958	0.799742
C102	C	-0.509535	1.766291	1.133076
C103	C	-1.135178	0.869304	0.503257
C104	C	-0.801844	1.202638	0.836590
C105	C	-0.468511	1.535971	1.169924
C106	C	-1.167122	0.474480	0.268275
C107	C	-0.833789	0.807813	0.601609
C108	C	-0.500455	1.141146	0.934942
C109	C	-1.172196	0.469827	0.175634
C110	C	-0.838862	0.803160	0.508967
C111	C	-0.505529	1.136493	0.842300
C112	C	-1.130240	0.507761	0.964463
C113	C	-0.796907	0.841094	1.297797
C114	C	-0.463573	1.174427	1.631130
C115	C	-1.181169	0.461767	1.006028
C116	C	-0.847836	0.795101	1.339362
C117	C	-0.514503	1.128434	1.672695
C118	C	-1.176175	0.466253	1.100406
C119	C	-0.842841	0.799586	1.433739
C120	C	-0.509508	1.132920	1.767072
C121	C	-1.135233	0.503276	0.870078
C122	C	-0.801900	0.836610	1.203411
C123	C	-0.468567	1.169943	1.536744
H124	H	-0.663561	0.557789	0.557488
H125	H	-0.330228	0.891122	0.890822
H126	H	0.003105	1.224456	1.224155
H127	H	-0.648509	0.412055	0.412169
H128	H	-0.315176	0.745389	0.745503
H129	H	0.018157	1.078722	1.078836
H130	H	-1.228521	0.419021	0.970734
H131	H	-0.895188	0.752355	1.304067
H132	H	-0.561855	1.085688	1.637400
F133	F	-1.068353	0.563631	1.010593
F134	F	-0.735019	0.896964	1.343927
F135	F	-0.401686	1.230297	1.677260
H136	H	-1.228505	0.969921	0.419135
H137	H	-0.895172	1.303255	0.752468
H138	H	-0.561838	1.636588	1.085802
H139	H	-1.082878	0.999013	0.550525
H140	H	-0.749545	1.332346	0.883859
H141	H	-0.416211	1.665680	1.217192
