data_functionalizedCrystal
_audit_creation_method	'MofGen! by Chris Wilmer'
_symmetry_space_group_name_H-M	'P1'
_symmetry_Int_Tables_number	1
_symmetry_cell_setting	triclinic
loop_
_symmetry_equiv_pos_as_xyz
  x,y,z
_cell_length_a	14.519709
_cell_length_b	23.532407
_cell_length_c	12.996460
_cell_angle_alpha	89.989202
_cell_angle_beta	90.000034
_cell_angle_gamma	83.264412
loop_
_atom_site_label
_atom_site_type_symbol
_atom_site_fract_x
_atom_site_fract_y
_atom_site_fract_z
O1	O	1.222985	0.074654	-0.085444
O2	O	1.722985	0.574654	0.414556
O3	O	0.954405	0.083445	-0.085477
O4	O	1.454405	0.583445	0.414523
O5	O	1.096794	-0.003845	-0.085440
O6	O	1.596794	0.496155	0.414560
O7	O	1.080596	0.161945	-0.085480
O8	O	1.580596	0.661945	0.414520
O9	O	1.096779	-0.003850	0.085693
O10	O	1.596779	0.496150	0.585693
O11	O	0.954390	0.083441	0.085657
O12	O	1.454390	0.583441	0.585657
O13	O	1.222971	0.074649	0.085690
O14	O	1.722971	0.574649	0.585690
Cu15	Cu	1.088679	0.079044	0.101299
Cu16	Cu	1.588679	0.579044	0.601299
Cu17	Cu	1.088696	0.079050	-0.101086
Cu18	Cu	1.588696	0.579050	0.398914
O19	O	1.080581	0.161940	0.085654
O20	O	1.580581	0.661940	0.585654
C21	C	0.920042	0.083033	0.000086
C22	C	1.420042	0.583033	0.500086
C23	C	0.817676	0.081805	0.000075
C24	C	1.317676	0.581805	0.500075
C25	C	0.442833	0.077286	0.000123
C26	C	0.942833	0.577286	0.500123
C27	C	0.547126	0.078541	0.000109
C28	C	1.047126	0.578541	0.500109
C29	C	0.630251	0.079545	0.000098
C30	C	1.130251	0.579545	0.500098
C31	C	0.734551	0.080801	0.000086
C32	C	1.234551	0.580801	0.500086
C33	C	1.096374	-0.025066	0.000129
C34	C	1.596374	0.474934	0.500129
C35	C	1.095134	-0.088288	0.000137
C36	C	1.595134	0.411712	0.500137
C37	C	1.171619	-0.487046	0.000090
C38	C	1.671619	0.012954	0.500090
C39	C	1.170467	-0.546452	0.000082
C40	C	1.670467	-0.046452	0.500082
O41	O	1.241369	-0.582876	0.000052
O42	O	1.741369	-0.082876	0.500052
N43	N	1.085816	-0.569460	0.000072
N44	N	1.585816	-0.069460	0.500072
C45	C	1.002312	-0.533059	0.000060
C46	C	1.502312	-0.033059	0.500060
O47	O	0.930205	-0.558084	0.000050
O48	O	1.430205	-0.058084	0.500050
C49	C	1.003465	-0.473655	0.000061
C50	C	1.503465	0.026345	0.500061
C51	C	1.088121	-0.450650	0.000081
C52	C	1.588121	0.049350	0.500081
C53	C	1.256268	-0.464041	0.000109
C54	C	1.756268	0.035959	0.500109
C55	C	1.257420	-0.404640	0.000119
C56	C	1.757420	0.095360	0.500119
C57	C	1.173922	-0.368244	0.000110
C58	C	1.673922	0.131756	0.500110
C59	C	1.089273	-0.391249	0.000091
C60	C	1.589273	0.108751	0.500091
C61	C	0.919962	-0.437255	0.000041
C62	C	1.419962	0.062745	0.500041
C63	C	0.921123	-0.377847	0.000041
C64	C	1.421123	0.122153	0.500041
C65	C	1.005779	-0.354843	0.000061
C66	C	1.505779	0.145157	0.500061
C67	C	1.006927	-0.295451	0.000091
C68	C	1.506927	0.204549	0.500091
N69	N	1.091578	-0.272443	0.000101
N70	N	1.591578	0.227557	0.500101
C71	C	1.175075	-0.308839	0.000110
C72	C	1.675075	0.191161	0.500110
C73	C	0.999897	-0.657813	0.000057
C74	C	1.499897	-0.157813	0.500057
C75	C	0.998743	-0.717216	0.000064
C76	C	1.498743	-0.217216	0.500064
C77	C	1.166898	-0.730604	0.000084
C78	C	1.666898	-0.230604	0.500084
C79	C	1.168051	-0.671200	0.000084
C80	C	1.668051	-0.171200	0.500084
C81	C	1.084548	-0.634804	0.000067
C82	C	1.584548	-0.134804	0.500067
C83	C	1.177487	-0.184092	0.000132
C84	C	1.677487	0.315908	0.500132
C85	C	1.178632	-0.124685	0.000146
C86	C	1.678632	0.375315	0.500146
C87	C	1.010477	-0.111301	0.000121
C88	C	1.510477	0.388699	0.500121
C89	C	1.009332	-0.170703	0.000112
C90	C	1.509332	0.329297	0.500112
C91	C	1.092845	-0.207098	0.000114
C92	C	1.592845	0.292902	0.500114
O93	O	0.936062	-0.258992	0.000117
O94	O	1.436062	0.241008	0.500117
O95	O	1.247171	-0.283806	0.000106
O96	O	1.747171	0.216194	0.500106
C97	C	1.257333	0.075061	0.000125
C98	C	1.757333	0.575061	0.500125
C99	C	1.359700	0.076289	0.000130
C100	C	1.859700	0.576289	0.500130
C101	C	1.081001	0.183160	0.000082
C102	C	1.581001	0.683160	0.500082
C103	C	1.082241	0.246383	0.000067
C104	C	1.582241	0.746383	0.500067
N105	N	1.088673	0.079040	0.243647
N106	N	1.588673	0.579040	0.743647
N107	N	1.088709	0.079050	-0.243433
N108	N	1.588709	0.579050	0.256567
C109	C	1.088695	0.079051	0.663461
C110	C	1.588695	0.579051	1.163461
C111	C	1.088686	0.079050	0.546656
C112	C	1.588686	0.579050	1.046656
C113	C	1.088685	0.079046	0.453557
C114	C	1.588685	0.579046	0.953557
C115	C	1.088675	0.079044	0.336745
C116	C	1.588675	0.579044	0.836745
H117	H	1.245491	-0.213718	0.000129
H118	H	1.745491	0.286282	0.500129
N119	N	0.922858	-0.194202	0.000080
N120	N	1.422858	0.305798	0.500080
N121	N	0.903457	-0.225839	-0.072073
N122	N	1.403457	0.274161	0.427927
H123	H	0.842381	-0.242431	-0.072105
H124	H	1.342381	0.257569	0.427895
N125	N	0.914603	-0.620629	0.000045
N126	N	1.414603	-0.120629	0.500045
N127	N	0.896485	-0.585978	-0.072092
N128	N	1.396485	-0.085978	0.427908
H129	H	0.836247	-0.559719	-0.072103
H130	H	1.336247	-0.059719	0.427897
H131	H	0.851027	-0.455975	0.000019
H132	H	1.351027	0.044025	0.500019
N133	N	0.925199	-0.074109	0.000120
N134	N	1.425199	0.425891	0.500120
N135	N	0.926250	-0.021072	0.000126
N136	N	1.426250	0.478928	0.500126
H137	H	0.866022	0.005197	0.000120
H138	H	1.366022	0.505197	0.500120
N139	N	0.835815	-0.340679	0.000011
N140	N	1.335815	0.159321	0.500011
N141	N	0.760243	-0.361232	-0.000013
N142	N	1.260243	0.138768	0.499987
H143	H	0.699993	-0.334983	-0.000035
H144	H	1.199993	0.165017	0.499965
N145	N	0.912270	-0.740711	0.000078
N146	N	1.412270	-0.240711	0.500078
N147	N	0.856103	-0.729600	0.072213
N148	N	1.356103	-0.229600	0.572213
H149	H	0.795027	-0.746192	0.072220
H150	H	1.295027	-0.246192	0.572220
N151	N	1.265118	-0.101197	0.000174
N152	N	1.765118	0.398803	0.500174
N153	N	1.339661	-0.133704	0.000182
N154	N	1.839661	0.366296	0.500182
H155	H	1.400741	-0.117118	0.000202
H156	H	1.900741	0.382882	0.500202
H157	H	1.324266	-0.493670	0.000112
H158	H	1.824266	0.006330	0.500112
N159	N	1.343895	-0.381147	0.000147
N160	N	1.843895	0.118853	0.500147
N161	N	1.400056	-0.392279	0.072289
N162	N	1.900056	0.107721	0.572289
H163	H	1.461135	-0.375691	0.072307
H164	H	1.961135	0.124309	0.572307
N165	N	1.254532	-0.647714	0.000109
N166	N	1.754532	-0.147714	0.500109
N167	N	1.329073	-0.680224	0.000125
N168	N	1.829073	-0.180224	0.500125
H169	H	1.390155	-0.663640	0.000143
H170	H	1.890155	-0.163640	0.500143
H171	H	1.234886	-0.760249	0.000087
H172	H	1.734886	-0.260249	0.500087
