data_functionalizedCrystal
_audit_creation_method	'MofGen! by Chris Wilmer'
_symmetry_space_group_name_H-M	'P1'
_symmetry_Int_Tables_number	1
_symmetry_cell_setting	triclinic
loop_
_symmetry_equiv_pos_as_xyz
  x,y,z
_cell_length_a	8.559649
_cell_length_b	19.188930
_cell_length_c	7.681481
_cell_angle_alpha	84.272277
_cell_angle_beta	94.913240
_cell_angle_gamma	76.461723
loop_
_atom_site_label
_atom_site_type_symbol
_atom_site_fract_x
_atom_site_fract_y
_atom_site_fract_z
O1	O	2.105137	-0.016273	-0.146396
O2	O	1.639679	0.019799	-0.146415
O3	O	1.885844	-0.100597	-0.146371
O4	O	1.858973	0.104122	-0.146440
O5	O	1.916143	-0.115446	0.146493
O6	O	1.669978	0.004950	0.146449
O7	O	2.135436	-0.031122	0.146467
Zn8	Zn	1.907518	-0.015443	0.192956
Zn9	Zn	1.867598	0.004120	-0.192904
O10	O	1.889272	0.089274	0.146423
C11	C	1.595280	0.015108	0.000015
C12	C	1.417842	0.023245	0.000010
C13	C	1.900124	-0.133987	0.000066
C14	C	1.897514	-0.211356	0.000081
C15	C	2.041954	-0.263833	0.000095
C16	C	2.039498	-0.336527	0.000067
C17	C	1.892597	-0.356742	0.000060
C18	C	1.748137	-0.304254	0.000036
C19	C	1.750595	-0.231561	0.000047
N20	N	1.790620	-0.463929	0.099722
N21	N	1.788294	-0.532986	0.099716
C22	C	1.885180	-0.575761	0.000024
N23	N	1.984505	-0.546875	-0.099639
N24	N	1.986836	-0.477813	-0.099625
C25	C	1.889914	-0.435564	0.000047
C26	C	2.026966	-0.707062	0.000005
C27	C	2.024502	-0.779757	-0.000034
C28	C	1.733139	-0.747483	-0.000048
C29	C	1.735605	-0.674790	-0.000026
C30	C	1.882524	-0.654585	0.000008
C31	C	2.179835	-0.026431	0.000033
C32	C	2.357272	-0.034568	0.000027
C33	C	1.874991	0.122664	-0.000018
C34	C	1.877600	0.200033	-0.000044
N35	N	1.934774	-0.028796	0.456295
N36	N	1.840354	0.017467	-0.456243
H37	H	2.161586	-0.247387	0.000117
N38	N	2.195291	-0.393139	0.000078
H39	H	2.288734	-0.369308	0.000099
H40	H	2.211833	-0.429513	0.108645
H41	H	2.146595	-0.690610	0.000025
N42	N	1.712660	0.080010	0.444136
H43	H	1.652537	0.109468	0.530370
H44	H	1.765872	0.111425	0.367617
N45	N	2.062470	-0.091346	0.555921
H46	H	2.172603	-0.087813	0.523900
H47	H	2.059241	-0.089789	0.686624
H48	H	1.333944	0.078971	-0.000019
H49	H	1.628528	-0.320718	0.000026
N50	N	1.468376	-0.108380	0.000043
H51	H	1.583634	-0.103927	0.000045
H52	H	1.459067	-0.140801	0.108621
N53	N	1.594800	-0.174955	0.000030
H54	H	1.501361	-0.198788	0.000015
H55	H	1.600706	-0.149606	0.108606
H56	H	2.142127	-0.822484	-0.000033
H57	H	1.613528	-0.763941	-0.000062
N58	N	1.579816	-0.618184	-0.000031
H59	H	1.486379	-0.642019	-0.000039
H60	H	1.585723	-0.592834	0.108542
