data_functionalizedCrystal
_audit_creation_method	'MofGen! by Chris Wilmer'
_symmetry_space_group_name_H-M	'P1'
_symmetry_Int_Tables_number	1
_symmetry_cell_setting	triclinic
loop_
_symmetry_equiv_pos_as_xyz
  x,y,z
_cell_length_a	23.532407
_cell_length_b	23.532407
_cell_length_c	22.610064
_cell_angle_alpha	90.000603
_cell_angle_beta	90.005499
_cell_angle_gamma	82.848712
loop_
_atom_site_label
_atom_site_type_symbol
_atom_site_fract_x
_atom_site_fract_y
_atom_site_fract_z
O1	O	0.755263	0.069127	0.049153
O2	O	1.088597	0.402461	0.382487
O3	O	1.421930	0.735794	0.715820
O4	O	0.589400	0.079131	0.049163
O5	O	0.922733	0.412464	0.382497
O6	O	1.256067	0.745797	0.715830
O7	O	0.677333	-0.008803	0.049147
O8	O	1.010667	0.324531	0.382480
O9	O	1.344000	0.657864	0.715814
O10	O	0.667330	0.157061	0.049169
O11	O	1.000663	0.490394	0.382503
O12	O	1.333997	0.823727	0.715836
O13	O	0.677318	-0.008790	-0.049222
O14	O	1.010651	0.324544	0.284111
O15	O	1.343984	0.657877	0.617445
O16	O	0.589385	0.079143	-0.049206
O17	O	0.922718	0.412477	0.284128
O18	O	1.256051	0.745810	0.617461
O19	O	0.755248	0.069140	-0.049216
O20	O	1.088581	0.402474	0.284117
O21	O	1.421915	0.735807	0.617451
Zn22	Zn	0.672314	0.074144	-0.064829
Zn23	Zn	1.005647	0.407477	0.268504
Zn24	Zn	1.338980	0.740811	0.601838
Zn25	Zn	0.672334	0.074127	0.064777
Zn26	Zn	1.005668	0.407460	0.398110
Zn27	Zn	1.339001	0.740794	0.731443
O28	O	0.667315	0.157074	-0.049200
O29	O	1.000648	0.490407	0.284134
O30	O	1.333981	0.823740	0.617467
C31	C	0.568176	0.078882	-0.000020
C32	C	0.901510	0.412216	0.333313
C33	C	1.234843	0.745549	0.666647
C34	C	0.504959	0.078116	-0.000017
C35	C	0.838293	0.411450	0.333317
C36	C	1.171626	0.744783	0.666650
C37	C	0.677071	-0.030012	-0.000039
C38	C	1.010404	0.303321	0.333294
C39	C	1.343738	0.636654	0.666628
C40	C	0.676305	-0.093229	-0.000043
C41	C	1.009638	0.240104	0.333290
C42	C	1.342972	0.573437	0.666623
C43	C	0.238792	0.022921	-0.000040
C44	C	0.572125	0.356254	0.333293
C45	C	0.905458	0.689588	0.666627
C46	C	0.298192	0.023632	-0.000040
C47	C	0.631525	0.356966	0.333293
C48	C	0.964859	0.690299	0.666627
O49	O	0.334937	-0.020153	-0.000066
O50	O	0.668270	0.313180	0.333267
O51	O	1.001603	0.646513	0.666600
N52	N	0.320818	0.075909	-0.000029
N53	N	0.654152	0.409242	0.333304
N54	N	0.987485	0.742575	0.666638
C55	C	0.284041	0.127477	-0.000024
C56	C	0.617374	0.460810	0.333309
C57	C	0.950707	0.794144	0.666643
O58	O	0.308740	0.172007	-0.000015
O59	O	0.642074	0.505341	0.333318
O60	O	0.975407	0.838674	0.666651
C61	C	0.224642	0.126765	-0.000029
C62	C	0.557975	0.460098	0.333305
C63	C	0.891308	0.793432	0.666638
C64	C	0.202019	0.074485	-0.000034
C65	C	0.535352	0.407819	0.333300
C66	C	0.868686	0.741152	0.666633
C67	C	0.216168	-0.029354	-0.000046
C68	C	0.549502	0.303979	0.333287
C69	C	0.882835	0.637312	0.666621
C70	C	0.156772	-0.030066	-0.000045
C71	C	0.490106	0.303268	0.333288
C72	C	0.823439	0.636601	0.666622
C73	C	0.119999	0.021499	-0.000038
C74	C	0.453333	0.354832	0.333295
C75	C	0.786666	0.688165	0.666628
C76	C	0.142623	0.073774	-0.000033
C77	C	0.475956	0.407107	0.333301
C78	C	0.809289	0.740441	0.666634
C79	C	0.187865	0.178333	-0.000028
C80	C	0.521199	0.511666	0.333305
C81	C	0.854532	0.844999	0.666639
C82	C	0.128463	0.177616	-0.000033
C83	C	0.461796	0.510949	0.333300
C84	C	0.795129	0.844283	0.666634
C85	C	0.105840	0.125336	-0.000038
C86	C	0.439173	0.458670	0.333295
C87	C	0.772507	0.792003	0.666629
C88	C	0.046454	0.124627	-0.000025
C89	C	0.379787	0.457960	0.333308
C90	C	0.713120	0.791294	0.666641
N91	N	0.023828	0.072351	-0.000036
N92	N	0.357161	0.405684	0.333297
N93	N	0.690494	0.739017	0.666630
C94	C	0.060600	0.020787	-0.000043
C95	C	0.393934	0.354120	0.333290
C96	C	0.727267	0.687453	0.666624
C97	C	0.408783	0.128968	-0.000016
C98	C	0.742117	0.462302	0.333318
C99	C	1.075450	0.795635	0.666651
C100	C	0.468181	0.129681	-0.000007
C101	C	0.801514	0.463014	0.333326
C102	C	1.134848	0.796348	0.666660
C103	C	0.482328	0.025836	-0.000024
C104	C	0.815662	0.359170	0.333309
C105	C	1.148995	0.692503	0.666643
C106	C	0.422929	0.025124	-0.000028
C107	C	0.756263	0.358457	0.333305
C108	C	1.089596	0.691791	0.666638
C109	C	0.386157	0.076692	-0.000027
C110	C	0.719490	0.410025	0.333307
C111	C	1.052824	0.743359	0.666640
C112	C	-0.064136	0.019297	-0.000041
C113	C	0.269197	0.352630	0.333293
C114	C	0.602530	0.685964	0.666626
C115	C	-0.123538	0.018590	-0.000037
C116	C	0.209795	0.351924	0.333296
C117	C	0.543128	0.685257	0.666629
C118	C	-0.137680	0.122435	-0.000024
C119	C	0.195653	0.455768	0.333310
C120	C	0.528986	0.789101	0.666643
C121	C	-0.078284	0.123142	-0.000024
C122	C	0.255050	0.456475	0.333310
C123	C	0.588383	0.789808	0.666643
C124	C	-0.041512	0.071568	-0.000034
C125	C	0.291821	0.404901	0.333299
C126	C	0.625154	0.738235	0.666632
O127	O	0.009675	0.168390	-0.000001
O128	O	0.343008	0.501723	0.333332
O129	O	0.676341	0.835057	0.666665
O130	O	0.035892	-0.023737	-0.000060
O131	O	0.369226	0.309597	0.333274
O132	O	0.702559	0.642930	0.666607
C133	C	0.723538	-0.492332	-0.000014
C134	C	1.056872	-0.158999	0.333319
C135	C	1.390205	0.174334	0.666653
C136	C	0.722827	-0.551733	-0.000009
C137	C	1.056160	-0.218399	0.333324
C138	C	1.389494	0.114934	0.666657
O139	O	0.766613	-0.588477	0.000010
O140	O	1.099946	-0.255144	0.333343
O141	O	1.433280	0.078190	0.666676
N142	N	0.670551	-0.574359	-0.000007
N143	N	1.003884	-0.241025	0.333327
N144	N	1.337217	0.092308	0.666660
C145	C	0.618982	-0.537581	-0.000002
C146	C	0.952316	-0.204248	0.333331
C147	C	1.285649	0.129085	0.666664
O148	O	0.574452	-0.562281	0.000001
O149	O	0.907785	-0.228948	0.333334
O150	O	1.241119	0.104386	0.666668
C151	C	0.619695	-0.478182	-0.000003
C152	C	0.953028	-0.144849	0.333331
C153	C	1.286361	0.188485	0.666664
C154	C	0.671974	-0.455559	-0.000011
C155	C	1.005308	-0.122226	0.333322
C156	C	1.338641	0.211107	0.666655
C157	C	0.775814	-0.469709	-0.000022
C158	C	1.109147	-0.136376	0.333311
C159	C	1.442481	0.196958	0.666645
C160	C	0.776525	-0.410313	-0.000028
C161	C	1.109858	-0.076980	0.333306
C162	C	1.443192	0.256354	0.666639
C163	C	0.724961	-0.373540	-0.000025
C164	C	1.058294	-0.040207	0.333308
C165	C	1.391628	0.293127	0.666641
C166	C	0.672685	-0.396163	-0.000017
C167	C	1.006019	-0.062830	0.333316
C168	C	1.339352	0.270503	0.666650
C169	C	0.568127	-0.441406	0.000006
C170	C	0.901460	-0.108072	0.333339
C171	C	1.234794	0.225261	0.666673
C172	C	0.568843	-0.382003	0.000006
C173	C	0.902177	-0.048670	0.333339
C174	C	1.235510	0.284663	0.666673
C175	C	0.621123	-0.359381	-0.000003
C176	C	0.954457	-0.026047	0.333331
C177	C	1.287790	0.307286	0.666664
C178	C	0.621832	-0.299994	-0.000020
C179	C	0.955166	0.033339	0.333313
C180	C	1.288499	0.366672	0.666646
N181	N	0.674109	-0.277368	-0.000023
N182	N	1.007442	0.055965	0.333310
N183	N	1.340775	0.389299	0.666644
C184	C	0.725673	-0.314141	-0.000025
C185	C	1.059006	0.019192	0.333308
C186	C	1.392340	0.352526	0.666641
C187	C	0.617491	-0.662324	-0.000001
C188	C	0.950824	-0.328990	0.333333
C189	C	1.284158	0.004343	0.666666
C190	C	0.616778	-0.721722	-0.000005
C191	C	0.950112	-0.388388	0.333329
C192	C	1.283445	-0.055055	0.666662
C193	C	0.720623	-0.735869	-0.000011
C194	C	1.053957	-0.402536	0.333323
C195	C	1.387290	-0.069202	0.666656
C196	C	0.721335	-0.676470	-0.000011
C197	C	1.054669	-0.343137	0.333322
C198	C	1.388002	-0.009803	0.666656
C199	C	0.669767	-0.639698	-0.000003
C200	C	1.003101	-0.306364	0.333330
C201	C	1.336434	0.026969	0.666663
C202	C	0.727163	-0.189404	-0.000038
C203	C	1.060496	0.143929	0.333295
C204	C	1.393829	0.477262	0.666629
C205	C	0.727869	-0.130002	-0.000046
C206	C	1.061203	0.203331	0.333287
C207	C	1.394536	0.536665	0.666621
C208	C	0.624025	-0.115860	-0.000037
C209	C	0.957358	0.217473	0.333296
C210	C	1.290691	0.550807	0.666630
C211	C	0.623318	-0.175257	-0.000032
C212	C	0.956651	0.158076	0.333301
C213	C	1.289984	0.491410	0.666635
C214	C	0.674891	-0.212028	-0.000030
C215	C	1.008225	0.121305	0.333303
C216	C	1.341558	0.454639	0.666636
O217	O	0.578069	-0.263215	-0.000037
O218	O	0.911403	0.070118	0.333296
O219	O	1.244736	0.403452	0.666630
O220	O	0.770196	-0.289433	-0.000021
O221	O	1.103529	0.043900	0.333312
O222	O	1.436863	0.377234	0.666646
C223	C	0.776472	0.069389	-0.000031
C224	C	1.109805	0.402722	0.333302
C225	C	1.443138	0.736055	0.666635
C226	C	0.839689	0.070155	-0.000031
C227	C	1.173022	0.403488	0.333303
C228	C	1.506355	0.736821	0.666636
C229	C	0.667577	0.178283	-0.000012
C230	C	1.000910	0.511617	0.333321
C231	C	1.334244	0.844950	0.666654
C232	C	0.668343	0.241500	-0.000004
C233	C	1.001676	0.574834	0.333329
C234	C	1.335010	0.908167	0.666663
N235	N	0.672304	0.074155	-0.153282
N236	N	1.005637	0.407488	0.180052
N237	N	1.338971	0.740822	0.513385
C238	C	0.711273	0.035196	-0.561930
C239	C	1.044606	0.368529	-0.228597
C240	C	1.377939	0.701863	0.104736
C241	C	0.711276	0.035192	-0.623850
C242	C	1.044609	0.368525	-0.290517
C243	C	1.377942	0.701859	0.042817
O244	O	0.744384	0.002076	-0.655875
O245	O	1.077717	0.335410	-0.322542
O246	O	1.411051	0.668743	0.010792
N247	N	0.672334	0.074115	-0.654819
N248	N	1.005667	0.407449	-0.321485
N249	N	1.339000	0.740782	0.011848
C250	C	0.633383	0.113041	-0.623864
C251	C	0.966716	0.446375	-0.290531
C252	C	1.300049	0.779708	0.042802
O253	O	0.600259	0.146148	-0.655891
O254	O	0.933593	0.479481	-0.322558
O255	O	1.266926	0.812814	0.010775
C256	C	0.633377	0.113042	-0.561945
C257	C	0.966711	0.446376	-0.228612
C258	C	1.300044	0.779709	0.104721
C259	C	0.672326	0.074120	-0.530980
C260	C	1.005659	0.407454	-0.197647
C261	C	1.338992	0.740787	0.135687
C262	C	0.750217	-0.003723	-0.530965
C263	C	1.083551	0.329610	-0.197631
C264	C	1.416884	0.662944	0.135702
C265	C	0.750215	-0.003718	-0.469049
C266	C	1.083548	0.329615	-0.135716
C267	C	1.416882	0.662949	0.197618
C268	C	0.711268	0.035206	-0.438099
C269	C	1.044601	0.368539	-0.104766
C270	C	1.377935	0.701873	0.228568
C271	C	0.672323	0.074125	-0.469064
C272	C	1.005657	0.407459	-0.135731
C273	C	1.338990	0.740792	0.197602
C274	C	0.594424	0.151965	-0.530992
C275	C	0.927757	0.485298	-0.197659
C276	C	1.261091	0.818632	0.135675
C277	C	0.594422	0.151963	-0.469069
C278	C	0.927755	0.485296	-0.135736
C279	C	1.261089	0.818629	0.197598
C280	C	0.633370	0.113041	-0.438104
C281	C	0.966703	0.446374	-0.104770
C282	C	1.300037	0.779707	0.228563
C283	C	0.633374	0.113055	-0.376199
C284	C	0.966707	0.446388	-0.042865
C285	C	1.300041	0.779721	0.290468
N286	N	0.672316	0.074131	-0.345230
N287	N	1.005649	0.407465	-0.011897
N288	N	1.338982	0.740798	0.321437
C289	C	0.711263	0.035207	-0.376180
C290	C	1.044596	0.368540	-0.042847
C291	C	1.377930	0.701874	0.290487
C292	C	0.633396	0.113036	-0.753898
C293	C	0.966729	0.446369	-0.420565
C294	C	1.300062	0.779702	-0.087231
C295	C	0.633403	0.113038	-0.815816
C296	C	0.966737	0.446371	-0.482482
C297	C	1.300070	0.779704	-0.149149
C298	C	0.711296	0.035188	-0.815797
C299	C	1.044629	0.368521	-0.482464
C300	C	1.377962	0.701854	-0.149130
C301	C	0.711291	0.035189	-0.753878
C302	C	1.044624	0.368522	-0.420545
C303	C	1.377957	0.701855	-0.087212
C304	C	0.672338	0.074112	-0.722929
C305	C	1.005671	0.407446	-0.389596
C306	C	1.339004	0.740779	-0.056263
C307	C	0.711255	0.035221	-0.246153
C308	C	1.044589	0.368554	0.087181
C309	C	1.377922	0.701888	0.420514
C310	C	0.711251	0.035231	-0.184232
C311	C	1.044584	0.368564	0.149102
C312	C	1.377918	0.701898	0.482435
C313	C	0.633357	0.113079	-0.184256
C314	C	0.966690	0.446412	0.149078
C315	C	1.300023	0.779745	0.482411
C316	C	0.633363	0.113071	-0.246171
C317	C	0.966696	0.446404	0.087162
C318	C	1.300029	0.779738	0.420495
C319	C	0.672314	0.074137	-0.277118
C320	C	1.005648	0.407471	0.056215
C321	C	1.338981	0.740804	0.389548
O322	O	0.600281	0.146152	-0.344134
O323	O	0.933614	0.479485	-0.010801
O324	O	1.266948	0.812819	0.322532
O325	O	0.744376	0.002101	-0.344146
O326	O	1.077709	0.335434	-0.010812
O327	O	1.411042	0.668768	0.322521
N328	N	0.672349	0.074111	0.153229
N329	N	1.005682	0.407445	0.486562
N330	N	1.339015	0.740778	0.819896
H331	H	-0.034204	-0.022699	-0.000049
H332	H	0.299130	0.310634	0.333284
H333	H	0.632463	0.643967	0.666618
N334	N	-0.147938	-0.037799	-0.000041
N335	N	0.185395	0.295534	0.333292
N336	N	0.518728	0.628868	0.666625
H337	H	-0.115626	-0.070355	-0.000048
H338	H	0.217707	0.262978	0.333286
H339	H	0.551041	0.596311	0.666619
H340	H	-0.172279	-0.040352	-0.036508
H341	H	0.161054	0.292981	0.296825
H342	H	0.494387	0.626315	0.630159
N343	N	0.753298	-0.006791	-0.720482
N344	N	1.086632	0.326543	-0.387149
N345	N	1.419965	0.659876	-0.053815
H346	H	0.777971	-0.031446	-0.749490
H347	H	1.111304	0.301887	-0.416157
H348	H	1.444637	0.635221	-0.082823
H349	H	0.731640	-0.031861	-0.694797
H350	H	1.064973	0.301472	-0.361464
H351	H	1.398307	0.634805	-0.028130
H352	H	0.525555	-0.459814	0.000017
H353	H	0.858889	-0.126481	0.333350
H354	H	1.192222	0.206853	0.666683
N355	N	0.566933	-0.199662	-0.000031
N356	N	0.900266	0.133672	0.333303
N357	N	1.233599	0.467005	0.666636
H358	H	0.534375	-0.167350	-0.000032
H359	H	0.867709	0.165983	0.333301
H360	H	1.201042	0.499316	0.666635
H361	H	0.564382	-0.223992	0.036441
H362	H	0.897715	0.109341	0.369774
H363	H	1.231048	0.442674	0.703108
N364	N	0.132376	-0.086453	-0.000056
N365	N	0.465710	0.246880	0.333277
N366	N	0.799043	0.580214	0.666611
H367	H	0.164692	-0.119006	-0.000063
H368	H	0.498025	0.214327	0.333271
H369	H	0.831358	0.547660	0.666604
H370	H	0.108039	-0.089005	-0.036526
H371	H	0.441373	0.244328	0.296808
H372	H	0.774706	0.577661	0.630141
H373	H	0.742972	0.003517	-0.271343
H374	H	1.076306	0.336850	0.061990
H375	H	1.409639	0.670183	0.395324
H376	H	-0.059864	0.165712	-0.000019
H377	H	0.273470	0.499045	0.333314
H378	H	0.606803	0.832379	0.666648
N379	N	0.784259	-0.105602	-0.000059
N380	N	1.117592	0.227731	0.333275
N381	N	1.450925	0.561064	0.666608
H382	H	0.816815	-0.137915	-0.000058
H383	H	1.150148	0.195419	0.333275
H384	H	1.483482	0.528752	0.666609
H385	H	0.786824	-0.081262	0.036405
H386	H	1.120157	0.252071	0.369738
H387	H	1.453491	0.585404	0.703072
H388	H	0.574207	-0.740135	-0.000008
H389	H	0.907540	-0.406802	0.333326
H390	H	1.240874	-0.073469	0.666659
N391	N	0.552407	0.193949	-0.435694
N392	N	0.885740	0.527283	-0.102361
N393	N	1.219073	0.860616	0.230973
H394	H	0.574020	0.219061	-0.410002
H395	H	0.907353	0.552394	-0.076669
H396	H	1.240687	0.885727	0.256665
H397	H	0.527324	0.172275	-0.410041
H398	H	0.860657	0.505608	-0.076708
H399	H	1.193990	0.838941	0.256626
H400	H	0.526850	-0.352065	0.000013
H401	H	0.860183	-0.018732	0.333346
H402	H	1.193516	0.314601	0.666680
H403	H	0.486595	0.172252	0.000005
H404	H	0.819928	0.505586	0.333339
H405	H	1.153261	0.838919	0.666672
H406	H	0.575496	-0.632386	0.000000
H407	H	0.908829	-0.299053	0.333334
H408	H	1.242162	0.034281	0.666667
N409	N	0.753305	-0.006797	-0.849185
N410	N	1.086638	0.326537	-0.515852
N411	N	1.419971	0.659870	-0.182518
H412	H	0.747393	-0.000889	-0.893108
H413	H	1.080727	0.332444	-0.559775
H414	H	1.414060	0.665777	-0.226441
H415	H	0.746956	-0.047166	-0.838364
H416	H	1.080289	0.286167	-0.505031
H417	H	1.413622	0.619500	-0.171698
N418	N	0.369123	0.184591	-0.000033
N419	N	0.702456	0.517925	0.333300
N420	N	1.035790	0.851258	0.666633
H421	H	0.392474	0.217812	-0.000033
H422	H	0.725808	0.551146	0.333300
H423	H	1.059141	0.884479	0.666634
H424	H	0.344160	0.186572	0.036424
H425	H	0.677493	0.519905	0.369758
H426	H	1.010827	0.853238	0.703091
N427	N	0.792221	-0.045701	-0.435655
N428	N	1.125555	0.287633	-0.102322
N429	N	1.458888	0.620966	0.231012
H430	H	0.816890	-0.070357	-0.464665
H431	H	1.150223	0.262976	-0.131332
H432	H	1.483557	0.596309	0.202002
H433	H	0.770562	-0.070769	-0.409969
H434	H	1.103895	0.262564	-0.076636
H435	H	1.437228	0.595897	0.256698
H436	H	0.601694	0.144738	-0.841023
H437	H	0.935027	0.478071	-0.507690
H438	H	1.268361	0.811404	-0.174357
N439	N	0.568412	-0.076191	-0.000026
N440	N	0.901746	0.257143	0.333307
N441	N	1.235079	0.590476	0.666641
H442	H	0.535183	-0.099532	-0.000019
H443	H	0.868517	0.233802	0.333314
H444	H	1.201850	0.567135	0.666648
H445	H	0.566438	-0.051236	-0.036492
H446	H	0.899771	0.282097	0.296841
H447	H	1.233105	0.615431	0.630175
N448	N	0.552406	0.193939	-0.564378
N449	N	0.885739	0.527272	-0.231044
N450	N	1.219072	0.860606	0.102289
H451	H	0.574011	0.219055	-0.590068
H452	H	0.907344	0.552389	-0.256734
H453	H	1.240677	0.885722	0.076599
H454	H	0.527745	0.218549	-0.535326
H455	H	0.861078	0.551882	-0.201993
H456	H	1.194411	0.885215	0.131340
H457	H	0.781933	-0.035422	-0.556159
H458	H	1.115266	0.297911	-0.222825
H459	H	1.448600	0.631244	0.110508
N460	N	-0.177348	0.178048	-0.000014
N461	N	0.155985	0.511382	0.333319
N462	N	0.489319	0.844715	0.666653
H463	H	-0.218408	0.169660	-0.000017
H464	H	0.114925	0.502994	0.333316
H465	H	0.448258	0.836327	0.666650
H466	H	-0.170060	0.200849	-0.036479
H467	H	0.163273	0.534183	0.296854
H468	H	0.496607	0.867516	0.630188
N469	N	0.753263	-0.006749	-0.150833
N470	N	1.086596	0.326584	0.182500
N471	N	1.419929	0.659918	0.515833
H472	H	0.777933	-0.031408	-0.179839
H473	H	1.111267	0.301925	0.153494
H474	H	1.444600	0.635258	0.486827
H475	H	0.731605	-0.031816	-0.125144
H476	H	1.064938	0.301517	0.208190
H477	H	1.398271	0.634851	0.541523
H478	H	0.601648	0.144772	-0.159046
H479	H	0.934981	0.478106	0.174287
H480	H	1.268315	0.811439	0.507620
N481	N	0.212256	0.234720	-0.000016
N482	N	0.545589	0.568054	0.333317
N483	N	0.878922	0.901387	0.666650
H484	H	0.179939	0.267273	-0.000014
H485	H	0.513273	0.600606	0.333319
H486	H	0.846606	0.933939	0.666652
H487	H	0.236590	0.237288	-0.036481
H488	H	0.569923	0.570621	0.296852
H489	H	0.903256	0.903954	0.630186
N490	N	0.591384	0.155030	-0.720525
N491	N	0.924717	0.488363	-0.387192
N492	N	1.258051	0.821696	-0.053858
H493	H	0.612998	0.180139	-0.694832
H494	H	0.946332	0.513472	-0.361499
H495	H	1.279665	0.846806	-0.028165
H496	H	0.566296	0.133359	-0.694874
H497	H	0.899629	0.466693	-0.361540
H498	H	1.232962	0.800026	-0.028207
N499	N	0.255826	-0.084975	-0.000057
N500	N	0.589159	0.248358	0.333276
N501	N	0.922492	0.581692	0.666609
H502	H	0.232471	-0.118194	-0.000063
H503	H	0.565805	0.215140	0.333270
H504	H	0.899138	0.548473	0.666604
H505	H	0.280780	-0.086951	0.036411
H506	H	0.614114	0.246382	0.369744
H507	H	0.947447	0.579716	0.703078
N508	N	0.398531	-0.031262	-0.000035
N509	N	0.731864	0.302071	0.333299
N510	N	1.065198	0.635405	0.666632
H511	H	0.430845	-0.063817	-0.000037
H512	H	0.764178	0.269517	0.333297
H513	H	1.097512	0.602850	0.666630
H514	H	0.374195	-0.033818	-0.036504
H515	H	0.707528	0.299516	0.296829
H516	H	1.040861	0.632849	0.630162
H517	H	0.769159	-0.219337	-0.000034
H518	H	1.102492	0.113996	0.333299
H519	H	1.435825	0.447330	0.666632
H520	H	0.817806	-0.499644	-0.000022
H521	H	1.151140	-0.166311	0.333311
H522	H	1.484473	0.167022	0.666645
N523	N	0.521997	-0.029782	-0.000032
N524	N	0.855330	0.303552	0.333302
N525	N	1.188663	0.636885	0.666635
H526	H	0.563057	-0.021394	-0.000030
H527	H	0.896390	0.311940	0.333303
H528	H	1.229724	0.645273	0.666637
H529	H	0.514703	-0.052574	-0.036503
H530	H	0.848036	0.280759	0.296831
H531	H	1.181370	0.614093	0.630164
H532	H	0.819097	-0.391900	-0.000032
H533	H	1.152430	-0.058566	0.333301
H534	H	1.485763	0.274767	0.666634
H535	H	0.601653	0.144770	-0.271384
H536	H	0.934986	0.478104	0.061950
H537	H	1.268320	0.811437	0.395283
H538	H	0.098525	0.219610	-0.000034
H539	H	0.431858	0.552943	0.333299
H540	H	0.765191	0.886277	0.666632
H541	H	0.762610	-0.765821	-0.000010
H542	H	1.095943	-0.432487	0.333323
H543	H	1.429276	-0.099154	0.666656
N544	N	0.777722	-0.652072	-0.000021
N545	N	1.111055	-0.318738	0.333313
N546	N	1.444388	0.014595	0.666646
H547	H	0.810276	-0.684385	-0.000024
H548	H	1.143610	-0.351052	0.333309
H549	H	1.476943	-0.017719	0.666643
H550	H	0.780289	-0.627737	0.036446
H551	H	1.113622	-0.294403	0.369780
H552	H	1.446955	0.038930	0.703113
