data_functionalizedCrystal
_audit_creation_method	'MofGen! by Chris Wilmer'
_symmetry_space_group_name_H-M	'P1'
_symmetry_Int_Tables_number	1
_symmetry_cell_setting	triclinic
loop_
_symmetry_equiv_pos_as_xyz
  x,y,z
_cell_length_a	8.497367
_cell_length_b	8.497374
_cell_length_c	14.908571
_cell_angle_alpha	93.295221
_cell_angle_beta	93.334406
_cell_angle_gamma	90.038609
loop_
_atom_site_label
_atom_site_type_symbol
_atom_site_fract_x
_atom_site_fract_y
_atom_site_fract_z
Zn1	Zn	0.767786	1.031612	1.379466
Zn2	Zn	1.031540	0.768040	1.379550
Zn3	Zn	0.752511	0.752626	1.228638
Zn4	Zn	1.016277	1.016557	1.228708
O5	O	0.892029	0.892209	1.304090
O6	O	0.815553	1.009400	1.505727
O7	O	0.994522	0.545233	1.359537
O8	O	0.533769	0.789484	1.248582
O9	O	1.009333	0.815755	1.505789
O10	O	0.544990	0.994454	1.359394
O11	O	0.789520	0.533909	1.248663
O12	O	0.774721	0.774886	1.102397
O13	O	0.983319	1.239315	1.248700
O14	O	0.968508	0.968794	1.102448
O15	O	0.800753	1.250377	1.359462
O16	O	1.250285	0.801156	1.359604
O17	O	1.239071	0.983740	1.248781
C18	C	0.868302	0.868534	1.069688
C19	C	0.858189	0.858444	0.969409
C20	C	1.480542	0.892057	1.304028
C21	C	1.301910	0.892356	1.304141
C22	C	0.892030	1.303688	1.304084
C23	C	0.892047	1.482333	1.304086
C24	C	1.041291	1.041129	0.781077
C25	C	1.031794	1.031654	0.686856
C26	C	0.829692	0.830027	0.686745
C27	C	0.839189	0.839502	0.780966
C28	C	0.944994	0.945055	0.828128
C29	C	0.954497	0.954522	0.922351
C30	C	0.752388	0.752904	0.922238
C31	C	0.742892	0.743428	0.828018
C32	C	0.915849	0.915976	1.539409
C33	C	0.926000	0.926105	1.639687
H34	H	1.040651	1.040466	0.960749
C35	C	1.157676	1.157222	0.832963
C36	C	1.335700	1.142890	0.820086
C37	C	1.452088	1.258983	0.871972
C38	C	1.390453	1.389408	0.936734
C39	C	1.212420	1.403746	0.949614
C40	C	1.096032	1.287653	0.897728
H41	H	1.381334	1.046336	0.772143
H42	H	1.583880	1.248368	0.862437
H43	H	1.476610	1.475348	0.975143
H44	H	1.166786	1.500300	0.997558
H45	H	0.964240	1.298268	0.907263
C46	C	1.137728	1.137331	0.635098
C47	C	1.254955	1.062359	0.570369
C48	C	1.360892	1.168043	0.518611
C49	C	1.349601	1.348700	0.531582
C50	C	1.232368	1.423682	0.596314
C51	C	1.126431	1.317998	0.648072
H52	H	1.263318	0.928617	0.560764
H53	H	1.447675	1.112535	0.470692
H54	H	1.428021	1.426934	0.493268
H55	H	1.224005	1.557424	0.605919
H56	H	1.039648	1.373505	0.695991
C57	C	0.626509	0.627333	0.776131
C58	C	0.448485	0.641657	0.789009
C59	C	0.332101	0.525560	0.737123
C60	C	0.393741	0.395140	0.672359
C61	C	0.571773	0.380811	0.659477
C62	C	0.688158	0.496908	0.711363
H63	H	0.402848	0.738206	0.836955
H64	H	0.200309	0.536168	0.746659
H65	H	0.307586	0.309198	0.633949
H66	H	0.617411	0.284262	0.611532
H67	H	0.819950	0.486300	0.701828
C68	C	0.646451	0.647204	0.973991
C69	C	0.529214	0.722152	1.038722
C70	C	0.423286	0.616446	1.090472
C71	C	0.434596	0.435792	1.077490
C72	C	0.551838	0.360834	1.012756
C73	C	0.657765	0.466541	0.961006
H74	H	0.520838	0.855892	1.048335
H75	H	0.336496	0.671935	1.138393
H76	H	0.356181	0.357542	1.115799
H77	H	0.560214	0.227095	1.003143
H78	H	0.744556	0.411051	0.913085
H79	H	0.743542	0.744101	0.648330
