data_functionalizedCrystal
_audit_creation_method	'MofGen! by Chris Wilmer'
_symmetry_space_group_name_H-M	'P1'
_symmetry_Int_Tables_number	1
_symmetry_cell_setting	triclinic
loop_
_symmetry_equiv_pos_as_xyz
  x,y,z
_cell_length_a	10.489741
_cell_length_b	9.065218
_cell_length_c	7.540329
_cell_angle_alpha	90.003038
_cell_angle_beta	89.996684
_cell_angle_gamma	95.222470
loop_
_atom_site_label
_atom_site_type_symbol
_atom_site_fract_x
_atom_site_fract_y
_atom_site_fract_z
O1	O	0.187043	-1.959495	-0.147486
O2	O	0.202385	-1.530136	-0.147489
O3	O	0.009151	-1.754585	-0.147477
O4	O	0.380277	-1.735045	-0.147498
O5	O	0.009149	-1.754572	0.147488
O6	O	0.202382	-1.530122	0.147477
O7	O	0.187040	-1.959481	0.147479
Cu8	Cu	0.194711	-1.744800	0.174410
Cu9	Cu	0.194714	-1.744816	-0.174420
O10	O	0.380274	-1.735032	0.147467
C11	C	0.200909	-1.475149	-0.000006
C12	C	0.196501	-1.311328	-0.000007
C13	C	-0.038387	-1.753102	0.000005
C14	C	-0.180032	-1.748687	0.000002
C15	C	0.188516	-2.014467	-0.000007
C16	C	0.192925	-2.178289	-0.000018
C17	C	-0.248688	-1.605877	-0.000012
C18	C	-0.340568	-1.673332	0.145421
C19	C	-0.340540	-1.673379	-0.145391
C20	C	-0.270047	-1.816202	0.145555
C21	C	-0.270009	-1.816229	-0.145388
C22	C	-0.361862	-1.883788	0.000081
C23	C	0.427812	-1.736514	-0.000018
C24	C	0.569458	-1.740930	-0.000027
N25	N	0.194708	-1.744800	0.419759
N26	N	0.194707	-1.744828	-0.419768
H27	H	-0.199461	-1.488459	0.000134
H28	H	-0.238746	-1.876610	-0.268347
H29	H	-0.410861	-2.001312	0.000162
H30	H	-0.371799	-1.612900	0.268374
C31	C	-0.324981	-1.446283	-0.311080
C32	C	-0.382650	-1.591794	-0.311381
H33	H	-0.350969	-1.395915	-0.413556
H34	H	-0.350313	-1.396512	-0.207823
H35	H	-0.234546	-1.447744	-0.311686
H36	H	-0.473086	-1.590333	-0.310761
H37	H	-0.357325	-1.641578	-0.414665
C38	C	-0.094954	-1.901029	0.310280
C39	C	-0.228143	-1.897690	0.311733
H40	H	-0.069085	-1.951324	0.412878
H41	H	-0.070246	-1.951428	0.207148
H42	H	-0.055206	-1.802593	0.309860
H43	H	-0.267892	-1.996126	0.312140
H44	H	-0.252864	-1.847293	0.414893
