data_functionalizedCrystal
_audit_creation_method	'MofGen! by Chris Wilmer'
_symmetry_space_group_name_H-M	'P1'
_symmetry_Int_Tables_number	1
_symmetry_cell_setting	triclinic
loop_
_symmetry_equiv_pos_as_xyz
  x,y,z
_cell_length_a	10.686220
_cell_length_b	16.625546
_cell_length_c	10.686551
_cell_angle_alpha	85.590142
_cell_angle_beta	90.308082
_cell_angle_gamma	94.404440
loop_
_atom_site_label
_atom_site_type_symbol
_atom_site_fract_x
_atom_site_fract_y
_atom_site_fract_z
Zn1	Zn	1.972246	-0.196578	-0.562364
Zn2	Zn	2.472246	0.303422	-0.062364
Zn3	Zn	1.955985	-0.342520	-0.352588
Zn4	Zn	2.455985	0.157480	0.147412
Zn5	Zn	1.746360	-0.217205	-0.368679
Zn6	Zn	2.246360	0.282795	0.131321
Zn7	Zn	1.762416	-0.340886	-0.578366
Zn8	Zn	2.262416	0.159114	-0.078366
O9	O	1.859251	-0.274297	-0.465499
O10	O	2.359251	0.225703	0.034501
O11	O	2.145632	-0.207989	-0.521106
O12	O	2.645632	0.292011	-0.021106
O13	O	1.914653	-0.335213	-0.179176
O14	O	2.414653	0.164787	0.320824
O15	O	1.776409	-0.101630	-0.394408
O16	O	2.276409	0.398370	0.105592
O17	O	2.133686	-0.315212	-0.366985
O18	O	2.633686	0.184788	0.133015
O19	O	1.942367	-0.086476	-0.536708
O20	O	2.442367	0.413524	-0.036708
O21	O	1.760642	-0.243144	-0.190998
O22	O	2.260642	0.256856	0.309002
O23	O	1.572946	-0.241560	-0.409925
O24	O	2.072946	0.258440	0.090075
O25	O	1.803775	-0.312427	-0.751790
O26	O	2.303775	0.187573	-0.251790
O27	O	1.584742	-0.332428	-0.563982
O28	O	2.084742	0.167572	-0.063982
O29	O	1.957936	-0.206405	-0.740033
O30	O	2.457936	0.293595	-0.240033
O31	O	1.930222	-0.455142	-0.382502
O32	O	2.430222	0.044858	0.117498
O33	O	1.788007	-0.453942	-0.548380
O34	O	2.288007	0.046058	-0.048380
C35	C	1.533328	-0.289055	-0.490437
C36	C	2.033328	0.210945	0.009563
C37	C	1.393898	-0.295387	-0.501135
C38	C	1.893898	0.204613	-0.001135
C39	C	1.859129	-0.483797	-0.465456
C40	C	2.359129	0.016203	0.034544
C41	C	1.859194	-0.573414	-0.465470
C42	C	2.359194	-0.073414	0.034530
C43	C	1.859423	-0.901572	-0.465584
C44	C	2.359423	-0.401572	0.034416
C45	C	1.859356	-0.810269	-0.465556
C46	C	2.359356	-0.310269	0.034444
C47	C	1.859308	-0.737496	-0.465527
C48	C	2.359308	-0.237496	0.034473
C49	C	1.859242	-0.646186	-0.465500
C50	C	2.359242	-0.146186	0.034500
C51	C	2.186448	-0.259482	-0.440465
C52	C	2.686448	0.240518	0.059535
C53	C	2.325880	-0.253169	-0.429797
C54	C	2.825880	0.246831	0.070203
C55	C	1.884460	-0.256933	-0.792702
C56	C	2.384460	0.243067	-0.292702
C57	C	1.895202	-0.249534	-0.932136
C58	C	2.395202	0.250466	-0.432136
C59	C	1.859411	-0.063977	-0.465568
C60	C	2.359411	0.436023	0.034432
C61	C	1.859479	0.025649	-0.465597
C62	C	2.359479	0.525649	0.034403
C63	C	1.834213	-0.291533	-0.139565
C64	C	2.334213	0.208467	0.360435
C65	C	1.823714	-0.298694	-0.000113
C66	C	2.323714	0.201306	0.499887
H67	H	1.964635	-0.201784	-0.980614
H68	H	2.464635	0.298216	-0.480614
O69	O	1.390022	-0.198867	-0.338056
O70	O	1.890022	0.301133	0.161944
H71	H	1.493143	-0.202240	-0.343777
H72	H	1.993143	0.297760	0.156223
O73	O	1.329752	-0.349687	-0.592889
O74	O	1.829752	0.150313	-0.092889
H75	H	1.226631	-0.346305	-0.587184
H76	H	1.726631	0.153695	-0.087184
O77	O	1.731743	-0.361945	-0.935920
O78	O	2.231743	0.138055	-0.435920
H79	H	1.737445	-0.358021	-0.832805
H80	H	2.237445	0.141979	-0.332805
