data_functionalizedCrystal
_audit_creation_method	'MofGen! by Chris Wilmer'
_symmetry_space_group_name_H-M	'P1'
_symmetry_Int_Tables_number	1
_symmetry_cell_setting	triclinic
loop_
_symmetry_equiv_pos_as_xyz
  x,y,z
_cell_length_a	16.109301
_cell_length_b	10.540510
_cell_length_c	15.186229
_cell_angle_alpha	89.998730
_cell_angle_beta	89.999006
_cell_angle_gamma	83.987447
loop_
_atom_site_label
_atom_site_type_symbol
_atom_site_fract_x
_atom_site_fract_y
_atom_site_fract_z
O1	O	1.104117	0.163163	-0.073175
O2	O	0.862178	0.183467	-0.073187
O3	O	0.988680	-0.011473	-0.073181
O4	O	0.977615	0.358103	-0.073182
O5	O	0.988671	-0.011476	0.073277
O6	O	0.862169	0.183465	0.073270
O7	O	1.104108	0.163160	0.073282
Zn8	Zn	0.983137	0.173312	0.096529
Zn9	Zn	0.983149	0.173315	-0.096434
O10	O	0.977606	0.358100	0.073275
C11	C	0.831194	0.182643	0.000040
C12	C	0.738883	0.180177	0.000035
C13	C	0.430536	0.287790	0.000050
C14	C	0.517270	0.290119	0.000045
C15	C	0.535745	0.058828	0.000034
C16	C	0.449012	0.056501	0.000033
C17	C	0.396409	0.170985	0.000046
C18	C	0.569877	0.175642	0.000042
C19	C	0.663918	0.178166	0.000036
C20	C	0.302362	0.168461	0.000049
C21	C	0.987851	-0.058766	0.000046
C22	C	0.985384	-0.199681	0.000041
C23	C	1.073265	-0.418389	0.000380
C24	C	1.075896	-0.271831	0.000046
C25	C	0.939055	-0.243777	-0.083594
C26	C	0.937065	-0.390510	-0.083660
C27	C	0.935170	-0.390295	0.082890
C28	C	0.939463	-0.244015	0.083991
C29	C	1.135092	0.163984	0.000053
C30	C	1.227403	0.166450	0.000052
C31	C	0.978435	0.405393	0.000047
C32	C	0.980902	0.546308	0.000046
N33	N	0.983136	0.173309	0.228222
N34	N	0.983157	0.173309	-0.228127
C35	C	1.039170	0.087018	0.453948
C36	C	1.039173	0.087015	0.546137
C37	C	0.927116	0.259603	0.546141
C38	C	0.927110	0.259599	0.453953
C39	C	0.983142	0.173308	0.407859
C40	C	0.983151	0.173309	0.592236
C41	C	0.983153	0.173307	0.692192
C42	C	0.983139	0.173309	0.307896
H43	H	0.545051	0.385232	0.000048
C44	C	0.593606	-0.067097	0.000022
H45	H	0.560857	-0.136995	0.000009
H46	H	0.627826	-0.071010	0.051094
H47	H	0.627822	-0.070984	-0.051058
H48	H	0.867213	-0.411476	0.083450
C49	C	1.100807	-0.007899	0.596832
H50	H	1.134178	-0.059281	0.556174
H51	H	1.070597	-0.060756	0.632799
H52	H	1.135686	0.037791	0.632789
H53	H	1.108524	-0.460848	0.060359
C54	C	1.125150	-0.234146	-0.081084
H55	H	1.143619	-0.308451	-0.113971
H56	H	1.172047	-0.193494	-0.062438
H57	H	1.090157	-0.177258	-0.116910
H58	H	1.108327	-0.462393	-0.059256
H59	H	0.881497	0.329861	0.583680
H60	H	0.421227	-0.038621	0.000026
C61	C	0.979804	-0.445445	-0.168132
H62	H	0.998226	-0.378054	-0.202080
H63	H	0.941217	-0.487896	-0.201544
H64	H	1.026340	-0.504258	-0.152889
C65	C	1.100795	-0.007909	0.403247
H66	H	1.134157	-0.059308	0.443903
H67	H	1.135669	0.037761	0.367278
H68	H	1.070569	-0.060767	0.367292
C69	C	0.372676	0.413716	0.000049
H70	H	0.405425	0.483613	0.000042
H71	H	0.338453	0.417620	0.051120
H72	H	0.338462	0.417614	-0.051033
C73	C	0.865478	0.354526	0.403251
H74	H	0.832117	0.405931	0.443905
H75	H	0.830602	0.308846	0.367293
H76	H	0.895699	0.407380	0.367285
C77	C	1.124875	-0.232884	0.081026
H78	H	1.143343	-0.306697	0.114423
H79	H	1.089742	-0.175574	0.116411
H80	H	1.171777	-0.192375	0.062197
H81	H	0.869367	-0.412540	-0.087452
H82	H	0.872422	-0.195439	-0.086707
H83	H	0.971236	-0.213378	-0.145832
H84	H	0.963930	-0.432888	0.146285
H85	H	0.973174	-0.215885	0.145863
H86	H	0.873382	-0.194006	0.089038
