data_functionalizedCrystal
_audit_creation_method	'MofGen! by Chris Wilmer'
_symmetry_space_group_name_H-M	'P1'
_symmetry_Int_Tables_number	1
_symmetry_cell_setting	triclinic
loop_
_symmetry_equiv_pos_as_xyz
  x,y,z
_cell_length_a	10.686220
_cell_length_b	18.101395
_cell_length_c	10.685880
_cell_angle_alpha	94.338576
_cell_angle_beta	89.641569
_cell_angle_gamma	94.412841
loop_
_atom_site_label
_atom_site_type_symbol
_atom_site_fract_x
_atom_site_fract_y
_atom_site_fract_z
Zn1	Zn	1.972144	-0.231178	-0.562366
Zn2	Zn	2.472144	0.268822	-0.062366
Zn3	Zn	1.955871	-0.346339	-0.352610
Zn4	Zn	2.455871	0.153661	0.147390
Zn5	Zn	1.746273	-0.232688	-0.368689
Zn6	Zn	2.246273	0.267312	0.131311
Zn7	Zn	1.762280	-0.365163	-0.578382
Zn8	Zn	2.262280	0.134837	-0.078382
O9	O	1.859142	-0.293842	-0.465512
O10	O	2.359142	0.206158	0.034488
O11	O	2.145532	-0.237945	-0.521110
O12	O	2.645532	0.262055	-0.021110
O13	O	1.914559	-0.324017	-0.179202
O14	O	2.414559	0.175983	0.320798
O15	O	1.776347	-0.128851	-0.394407
O16	O	2.276347	0.371149	0.105593
O17	O	2.133577	-0.322553	-0.367004
O18	O	2.633577	0.177447	0.132996
O19	O	1.942293	-0.127742	-0.536701
O20	O	2.442293	0.372258	-0.036701
O21	O	1.760568	-0.240518	-0.191015
O22	O	2.260568	0.259482	0.308985
O23	O	1.572850	-0.258770	-0.409936
O24	O	2.072850	0.241230	0.090064
O25	O	1.803628	-0.354636	-0.751798
O26	O	2.303628	0.145364	-0.251798
O27	O	1.584610	-0.356100	-0.563997
O28	O	2.084610	0.143900	-0.063997
O29	O	1.957814	-0.256198	-0.740032
O30	O	2.457814	0.243802	-0.240032
O31	O	1.930080	-0.452473	-0.382533
O32	O	2.430080	0.047527	0.117467
O33	O	1.787849	-0.466303	-0.548406
O34	O	2.287849	0.033697	-0.048406
C35	C	1.533212	-0.309642	-0.490450
C36	C	2.033212	0.190358	0.009550
C37	C	1.393780	-0.316420	-0.501148
C38	C	1.893780	0.183580	-0.001148
C39	C	1.858971	-0.486259	-0.465488
C40	C	2.358971	0.013741	0.034512
C41	C	1.859016	-0.568572	-0.465511
C42	C	2.359016	-0.068572	0.034489
C43	C	1.859297	-0.867653	-0.465557
C44	C	2.359297	-0.367653	0.034443
C45	C	1.770052	-0.845059	-0.570143
C46	C	2.270052	-0.345059	-0.070143
C47	C	1.769569	-0.759451	-0.569875
C48	C	2.269569	-0.259451	-0.069875
C49	C	1.859158	-0.719276	-0.465535
C50	C	2.359158	-0.219276	0.034465
C51	C	1.813222	-0.746683	-0.336069
C52	C	2.313222	-0.246683	0.163931
C53	C	1.812643	-0.832383	-0.336699
C54	C	2.312643	-0.332383	0.163301
C55	C	1.994600	-0.830961	-0.489256
C56	C	2.494600	-0.330961	0.010744
C57	C	1.994042	-0.745468	-0.492216
C58	C	2.494042	-0.245468	0.007784
C59	C	1.859081	-0.635419	-0.465514
C60	C	2.359081	-0.135419	0.034486
C61	C	1.859370	-0.951509	-0.465569
C62	C	2.359370	-0.451509	0.034431
C63	C	2.186345	-0.277981	-0.440477
C64	C	2.686345	0.222019	0.059523
C65	C	2.325779	-0.271222	-0.429809
C66	C	2.825779	0.228778	0.070191
C67	C	1.884322	-0.307348	-0.792703
C68	C	2.384322	0.192652	-0.292703
C69	C	1.895052	-0.313104	-0.932133
C70	C	2.395052	0.186896	-0.432133
C71	C	1.859350	-0.100673	-0.465561
C72	C	2.359350	0.399327	0.034439
C73	C	1.859438	-0.018356	-0.465582
C74	C	2.359438	0.481644	0.034418
C75	C	1.834133	-0.280331	-0.139588
C76	C	2.334133	0.219669	0.360412
C77	C	1.823646	-0.274355	-0.000140
C78	C	2.323646	0.225645	0.499860
H79	H	1.374229	-0.227341	-0.360546
H80	H	1.874229	0.272659	0.139454
H81	H	1.345323	-0.360309	-0.570408
H82	H	1.845323	0.139691	-0.070408
H83	H	1.964404	-0.350685	-0.980582
H84	H	2.464404	0.149315	-0.480582
H85	H	1.754293	-0.236780	-0.951697
H86	H	2.254293	0.263220	-0.451697
H87	H	1.669484	-0.742871	-0.554978
H88	H	2.169484	-0.242871	-0.054978
H89	H	2.061215	-0.844781	-0.412958
H90	H	2.561215	-0.344781	0.087042
H91	H	2.064866	-0.717654	-0.420783
H92	H	2.564866	-0.217654	0.079217
H93	H	1.874276	-0.846727	-0.256663
H94	H	2.374276	-0.346727	0.243337
H95	H	1.799484	-0.741364	-0.666190
H96	H	2.299484	-0.241364	-0.166190
H97	H	1.670587	-0.870471	-0.555483
H98	H	2.170587	-0.370471	-0.055483
H99	H	1.799769	-0.868608	-0.666793
H100	H	2.299769	-0.368608	-0.166793
H101	H	1.713436	-0.855943	-0.315443
H102	H	2.213436	-0.355943	0.184557
H103	H	1.875732	-0.719919	-0.256464
H104	H	2.375732	-0.219919	0.243536
H105	H	2.034503	-0.854854	-0.581519
H106	H	2.534503	-0.354854	-0.081519
H107	H	1.715002	-0.728745	-0.314220
H108	H	2.215002	-0.228745	0.185780
H109	H	2.028498	-0.727829	-0.587445
H110	H	2.528498	-0.227829	-0.087445
