data_functionalizedCrystal
_audit_creation_method	'MofGen! by Chris Wilmer'
_symmetry_space_group_name_H-M	'P1'
_symmetry_Int_Tables_number	1
_symmetry_cell_setting	triclinic
loop_
_symmetry_equiv_pos_as_xyz
  x,y,z
_cell_length_a	29.839131
_cell_length_b	25.639242
_cell_length_c	29.839135
_cell_angle_alpha	89.983173
_cell_angle_beta	90.000668
_cell_angle_gamma	89.963053
loop_
_atom_site_label
_atom_site_type_symbol
_atom_site_fract_x
_atom_site_fract_y
_atom_site_fract_z
Zn1	Zn	-0.179046	-0.799187	0.254113
Zn2	Zn	0.070954	-0.549187	0.504113
Zn3	Zn	0.320954	-0.299187	0.754113
Zn4	Zn	0.570954	-0.049187	1.004113
Zn5	Zn	-0.254135	-0.799115	0.178983
Zn6	Zn	-0.004135	-0.549115	0.428983
Zn7	Zn	0.245865	-0.299115	0.678983
Zn8	Zn	0.495865	-0.049115	0.928983
Zn9	Zn	-0.179014	-0.711772	0.178984
Zn10	Zn	0.070986	-0.461772	0.428984
Zn11	Zn	0.320986	-0.211772	0.678984
Zn12	Zn	0.570986	0.038228	0.928984
Zn13	Zn	-0.254143	-0.711705	0.254073
Zn14	Zn	-0.004143	-0.461705	0.504073
Zn15	Zn	0.245857	-0.211705	0.754073
Zn16	Zn	0.495857	0.038295	1.004073
O17	O	-0.216585	-0.755445	0.216539
O18	O	0.033415	-0.505445	0.466539
O19	O	0.283415	-0.255445	0.716539
O20	O	0.533415	-0.005445	0.966539
O21	O	-0.189016	-0.872343	0.244164
O22	O	0.060984	-0.622343	0.494164
O23	O	0.310984	-0.372343	0.744164
O24	O	0.560984	-0.122343	0.994164
O25	O	-0.244154	-0.787527	0.116116
O26	O	0.005846	-0.537527	0.366116
O27	O	0.255846	-0.287527	0.616116
O28	O	0.505846	-0.037527	0.866116
O29	O	-0.116151	-0.723426	0.188968
O30	O	0.133849	-0.473426	0.438968
O31	O	0.383849	-0.223426	0.688968
O32	O	0.633849	0.026574	0.938968
O33	O	-0.244184	-0.872290	0.188966
O34	O	0.005816	-0.622290	0.438966
O35	O	0.255816	-0.372290	0.688966
O36	O	0.505816	-0.122290	0.938966
O37	O	-0.116174	-0.787650	0.244165
O38	O	0.133826	-0.537650	0.494165
O39	O	0.383826	-0.287650	0.744165
O40	O	0.633826	-0.037650	0.994165
O41	O	-0.188963	-0.723356	0.116117
O42	O	0.061037	-0.473356	0.366117
O43	O	0.311037	-0.223356	0.616117
O44	O	0.561037	0.026644	0.866117
O45	O	-0.188970	-0.638598	0.188928
O46	O	0.061030	-0.388598	0.438928
O47	O	0.311030	-0.138598	0.688928
O48	O	0.561030	0.111402	0.938928
O49	O	-0.244198	-0.723312	0.316945
O50	O	0.005802	-0.473312	0.566945
O51	O	0.255802	-0.223312	0.816945
O52	O	0.505802	0.026688	1.066945
O53	O	-0.244168	-0.638548	0.244096
O54	O	0.005832	-0.388548	0.494096
O55	O	0.255832	-0.138548	0.744096
O56	O	0.505832	0.111452	0.994096
O57	O	-0.189024	-0.787585	0.316975
O58	O	0.060976	-0.537585	0.566975
O59	O	0.310976	-0.287585	0.816975
O60	O	0.560976	-0.037585	1.066975
O61	O	-0.317003	-0.787461	0.188927
O62	O	-0.067003	-0.537461	0.438927
O63	O	0.182997	-0.287461	0.688927
O64	O	0.432997	-0.037461	0.938927
O65	O	-0.317009	-0.723241	0.244095
O66	O	-0.067009	-0.473241	0.494095
O67	O	0.182991	-0.223241	0.744095
O68	O	0.432991	0.026759	0.994095
C69	C	-0.216567	-0.619602	0.216508
C70	C	0.033433	-0.369602	0.466508
C71	C	0.283433	-0.119602	0.716508
C72	C	0.533433	0.130398	0.966508
C73	C	-0.216570	-0.561488	0.216506
C74	C	0.033430	-0.311488	0.466506
C75	C	0.283430	-0.061488	0.716506
C76	C	0.533430	0.188512	0.966506
C77	C	-0.333307	-0.755350	0.216516
C78	C	-0.083307	-0.505350	0.466516
C79	C	0.166693	-0.255350	0.716516
C80	C	0.416693	-0.005350	0.966516
C81	C	-0.383242	-0.755358	0.216522
C82	C	-0.133242	-0.505358	0.466522
C83	C	0.116758	-0.255358	0.716522
C84	C	0.366758	-0.005358	0.966522
C85	C	-0.216615	-0.755449	0.333717
C86	C	0.033385	-0.505449	0.583717
C87	C	0.283385	-0.255449	0.833717
C88	C	0.533385	-0.005449	1.083717
C89	C	-0.216628	-0.755451	0.383651
C90	C	0.033372	-0.505451	0.633651
C91	C	0.283372	-0.255451	0.883651
C92	C	0.533372	-0.005451	1.133651
C93	C	-0.692869	-0.788945	0.187855
C94	C	-0.442869	-0.538945	0.437855
C95	C	-0.192869	-0.288945	0.687855
C96	C	0.057131	-0.038945	0.937855
C97	C	-0.880542	-0.789009	0.187872
C98	C	-0.630542	-0.539009	0.437872
C99	C	-0.380542	-0.289009	0.687872
C100	C	-0.130542	-0.039009	0.937872
O101	O	-0.904794	-0.817491	0.163481
O102	O	-0.654794	-0.567491	0.413481
O103	O	-0.404794	-0.317491	0.663481
O104	O	-0.154794	-0.067491	0.913481
N105	N	-0.904027	-0.755553	0.216572
N106	N	-0.654027	-0.505553	0.466572
N107	N	-0.404027	-0.255553	0.716572
N108	N	-0.154027	-0.005553	0.966572
C109	C	-0.880590	-0.722081	0.245273
C110	C	-0.630590	-0.472081	0.495273
C111	C	-0.380590	-0.222081	0.745273
C112	C	-0.130590	0.027919	0.995273
O113	O	-0.904871	-0.693630	0.269688
O114	O	-0.654871	-0.443630	0.519688
O115	O	-0.404871	-0.193630	0.769688
O116	O	-0.154871	0.056370	1.019688
C117	C	-0.692918	-0.722019	0.245257
C118	C	-0.442918	-0.472019	0.495257
C119	C	-0.192918	-0.222019	0.745257
C120	C	0.057082	0.027981	0.995257
C121	C	-0.669436	-0.755474	0.216552
C122	C	-0.419436	-0.505474	0.466552
C123	C	-0.169436	-0.255474	0.716552
C124	C	0.080564	-0.005474	0.966552
C125	C	-0.669387	-0.822397	0.159152
C126	C	-0.419387	-0.572397	0.409152
C127	C	-0.169387	-0.322397	0.659152
C128	C	0.080613	-0.072397	0.909152
C129	C	-0.622472	-0.822379	0.159146
C130	C	-0.372472	-0.572379	0.409146
C131	C	-0.122472	-0.322379	0.659146
C132	C	0.127528	-0.072379	0.909146
C133	C	-0.599038	-0.788908	0.187843
C134	C	-0.349038	-0.538908	0.437843
C135	C	-0.099038	-0.288908	0.687843
C136	C	0.150962	-0.038908	0.937843
C137	C	-0.622520	-0.755456	0.216546
C138	C	-0.372520	-0.505456	0.466546
C139	C	-0.122520	-0.255456	0.716546
C140	C	0.127480	-0.005456	0.966546
C141	C	-0.669482	-0.688550	0.273959
C142	C	-0.419482	-0.438550	0.523959
C143	C	-0.169482	-0.188550	0.773959
C144	C	0.080518	0.061450	1.023959
C145	C	-0.622561	-0.688539	0.273954
C146	C	-0.372561	-0.438539	0.523954
C147	C	-0.122561	-0.188539	0.773954
C148	C	0.127439	0.061461	1.023954
C149	C	-0.599079	-0.721993	0.245248
C150	C	-0.349079	-0.471993	0.495248
C151	C	-0.099079	-0.221993	0.745248
C152	C	0.150921	0.028007	0.995248
C153	C	-0.552171	-0.721966	0.245237
C154	C	-0.302171	-0.471966	0.495237
C155	C	-0.052171	-0.221966	0.745237
C156	C	0.197829	0.028034	0.995237
N157	N	-0.528687	-0.755422	0.216537
N158	N	-0.278687	-0.505422	0.466537
N159	N	-0.028687	-0.255422	0.716537
N160	N	0.221313	-0.005422	0.966537
C161	C	-0.552120	-0.788893	0.187840
C162	C	-0.302120	-0.538893	0.437840
C163	C	-0.052120	-0.288893	0.687840
C164	C	0.197880	-0.038893	0.937840
C165	C	-0.979120	-0.722115	0.245278
C166	C	-0.729120	-0.472115	0.495278
C167	C	-0.479120	-0.222115	0.745278
C168	C	-0.229120	0.027885	0.995278
C169	C	-1.026038	-0.722129	0.245282
C170	C	-0.776038	-0.472129	0.495282
C171	C	-0.526038	-0.222129	0.745282
C172	C	-0.276038	0.027871	0.995282
C173	C	-1.025987	-0.789059	0.187881
C174	C	-0.775987	-0.539059	0.437881
C175	C	-0.525987	-0.289059	0.687881
C176	C	-0.275987	-0.039059	0.937881
C177	C	-0.979069	-0.789041	0.187876
C178	C	-0.729069	-0.539041	0.437876
C179	C	-0.479069	-0.289041	0.687876
C180	C	-0.229069	-0.039041	0.937876
C181	C	-0.955636	-0.755571	0.216578
C182	C	-0.705636	-0.505571	0.466578
C183	C	-0.455636	-0.255571	0.716578
C184	C	-0.205636	-0.005571	0.966578
C185	C	-0.453595	-0.788852	0.187829
C186	C	-0.203595	-0.538852	0.437829
C187	C	0.046405	-0.288852	0.687829
C188	C	0.296405	-0.038852	0.937829
C189	C	-0.406675	-0.788829	0.187825
C190	C	-0.156675	-0.538829	0.437825
C191	C	0.093325	-0.288829	0.687825
C192	C	0.343325	-0.038829	0.937825
C193	C	-0.406730	-0.721901	0.245226
C194	C	-0.156730	-0.471901	0.495226
C195	C	0.093270	-0.221901	0.745226
C196	C	0.343270	0.028099	0.995226
C197	C	-0.453645	-0.721922	0.245229
C198	C	-0.203645	-0.471922	0.495229
C199	C	0.046355	-0.221922	0.745229
C200	C	0.296355	0.028078	0.995229
C201	C	-0.477077	-0.755402	0.216529
C202	C	-0.227077	-0.505402	0.466529
C203	C	0.022923	-0.255402	0.716529
C204	C	0.272923	-0.005402	0.966529
O205	O	-0.527891	-0.693503	0.269619
O206	O	-0.277891	-0.443503	0.519619
O207	O	-0.027891	-0.193503	0.769619
O208	O	0.222109	0.056497	1.019619
O209	O	-0.527831	-0.817349	0.163435
O210	O	-0.277831	-0.567349	0.413435
O211	O	-0.027831	-0.317349	0.663435
O212	O	0.222169	-0.067349	0.913435
C213	C	-0.739785	-0.788963	0.187860
C214	C	-0.489785	-0.538963	0.437860
C215	C	-0.239785	-0.288963	0.687860
C216	C	0.010215	-0.038963	0.937860
C217	C	-0.763267	-0.755511	0.216563
C218	C	-0.513267	-0.505511	0.466563
C219	C	-0.263267	-0.255511	0.716563
C220	C	-0.013267	-0.005511	0.966563
C221	C	-0.739833	-0.722040	0.245260
C222	C	-0.489833	-0.472040	0.495260
C223	C	-0.239833	-0.222040	0.745260
C224	C	0.010167	0.027960	0.995260
C225	C	-0.810184	-0.755526	0.216567
C226	C	-0.560184	-0.505526	0.466567
C227	C	-0.310184	-0.255526	0.716567
C228	C	-0.060184	-0.005526	0.966567
C229	C	-0.833618	-0.788996	0.187870
C230	C	-0.583618	-0.538996	0.437870
C231	C	-0.333618	-0.288996	0.687870
C232	C	-0.083618	-0.038996	0.937870
C233	C	-0.810134	-0.822453	0.159169
C234	C	-0.560134	-0.572453	0.409169
C235	C	-0.310134	-0.322453	0.659169
C236	C	-0.060134	-0.072453	0.909169
C237	C	-0.763218	-0.822434	0.159163
C238	C	-0.513218	-0.572434	0.409163
C239	C	-0.263218	-0.322434	0.659163
C240	C	-0.013218	-0.072434	0.909163
C241	C	-0.763318	-0.688584	0.273961
C242	C	-0.513318	-0.438584	0.523961
C243	C	-0.263318	-0.188584	0.773961
C244	C	-0.013318	0.061416	1.023961
C245	C	-0.810233	-0.688605	0.273964
C246	C	-0.560233	-0.438605	0.523964
C247	C	-0.310233	-0.188605	0.773964
C248	C	-0.060233	0.061395	1.023964
C249	C	-0.833666	-0.722076	0.245267
C250	C	-0.583666	-0.472076	0.495267
C251	C	-0.333666	-0.222076	0.745267
C252	C	-0.083666	0.027924	0.995267
C253	C	-0.099406	-0.755554	0.216571
C254	C	0.150594	-0.505554	0.466571
C255	C	0.400594	-0.255554	0.716571
C256	C	0.650594	-0.005554	0.966571
C257	C	-0.049472	-0.755600	0.216584
C258	C	0.200528	-0.505600	0.466584
C259	C	0.450528	-0.255600	0.716584
C260	C	0.700528	-0.005600	0.966584
C261	C	-0.216603	-0.891818	0.216569
C262	C	0.033397	-0.641818	0.466569
C263	C	0.283397	-0.391818	0.716569
C264	C	0.533397	-0.141818	0.966569
C265	C	-0.216610	-0.949932	0.216582
C266	C	0.033390	-0.699932	0.466582
C267	C	0.283390	-0.449932	0.716582
C268	C	0.533390	-0.199932	0.966582
C269	C	-0.245374	-0.201108	0.245237
C270	C	0.004626	0.048892	0.495237
C271	C	0.254626	0.298892	0.745237
C272	C	0.504626	0.548892	0.995237
C273	C	-0.245376	-0.146504	0.245244
C274	C	0.004624	0.103496	0.495244
C275	C	0.254624	0.353496	0.745244
C276	C	0.504624	0.603496	0.995244
O277	O	-0.269844	-0.118253	0.269647
O278	O	-0.019844	0.131747	0.519647
O279	O	0.230156	0.381747	0.769647
O280	O	0.480156	0.631747	1.019647
N281	N	-0.216597	-0.119206	0.216568
N282	N	0.033403	0.130794	0.466568
N283	N	0.283403	0.380794	0.716568
N284	N	0.533403	0.630794	0.966568
C285	C	-0.187810	-0.146515	0.187886
C286	C	0.062190	0.103485	0.437886
C287	C	0.312190	0.353485	0.687886
C288	C	0.562190	0.603485	0.937886
O289	O	-0.163330	-0.118281	0.163495
O290	O	0.086670	0.131719	0.413495
O291	O	0.336670	0.381719	0.663495
O292	O	0.586670	0.631719	0.913495
C293	C	-0.187805	-0.201118	0.187881
C294	C	0.062195	0.048882	0.437881
C295	C	0.312195	0.298882	0.687881
C296	C	0.562195	0.548882	0.937881
C297	C	-0.216590	-0.228413	0.216556
C298	C	0.033410	0.021587	0.466556
C299	C	0.283410	0.271587	0.716556
C300	C	0.533410	0.521587	0.966556
C301	C	-0.274156	-0.228404	0.273910
C302	C	-0.024156	0.021596	0.523910
C303	C	0.225844	0.271596	0.773910
C304	C	0.475844	0.521596	1.023910
C305	C	-0.274153	-0.283004	0.273902
C306	C	-0.024153	-0.033004	0.523902
C307	C	0.225847	0.216996	0.773902
C308	C	0.475847	0.466996	1.023902
C309	C	-0.245369	-0.310309	0.245221
C310	C	0.004631	-0.060309	0.495221
C311	C	0.254631	0.189691	0.745221
C312	C	0.504631	0.439691	0.995221
C313	C	-0.216587	-0.283014	0.216548
C314	C	0.033413	-0.033014	0.466548
C315	C	0.283413	0.216986	0.716548
C316	C	0.533413	0.466986	0.966548
C317	C	-0.159016	-0.228426	0.159202
C318	C	0.090984	0.021574	0.409202
C319	C	0.340984	0.271574	0.659202
C320	C	0.590984	0.521574	0.909202
C321	C	-0.159013	-0.283033	0.159200
C322	C	0.090987	-0.033033	0.409200
C323	C	0.340987	0.216967	0.659200
C324	C	0.590987	0.466967	0.909200
C325	C	-0.187798	-0.310328	0.187875
C326	C	0.062202	-0.060328	0.437875
C327	C	0.312202	0.189672	0.687875
C328	C	0.562202	0.439672	0.937875
C329	C	-0.187801	-0.364919	0.187860
C330	C	0.062199	-0.114919	0.437860
C331	C	0.312199	0.135081	0.687860
C332	C	0.562199	0.385081	0.937860
N333	N	-0.216580	-0.392218	0.216536
N334	N	0.033420	-0.142218	0.466536
N335	N	0.283420	0.107782	0.716536
N336	N	0.533420	0.357782	0.966536
C337	C	-0.245364	-0.364913	0.245217
C338	C	0.004636	-0.114913	0.495217
C339	C	0.254636	0.135087	0.745217
C340	C	0.504636	0.385087	0.995217
C341	C	-0.187821	-0.031844	0.187898
C342	C	0.062179	0.218156	0.437898
C343	C	0.312179	0.468156	0.687898
C344	C	0.562179	0.718156	0.937898
C345	C	-0.187828	0.022758	0.187900
C346	C	0.062172	0.272758	0.437900
C347	C	0.312172	0.522758	0.687900
C348	C	0.562172	0.772758	0.937900
C349	C	-0.245394	0.022765	0.245259
C350	C	0.004606	0.272765	0.495259
C351	C	0.254606	0.522765	0.745259
C352	C	0.504606	0.772765	0.995259
C353	C	-0.245389	-0.031838	0.245254
C354	C	0.004611	0.218162	0.495254
C355	C	0.254611	0.468162	0.745254
C356	C	0.504611	0.718162	0.995254
C357	C	-0.216601	-0.059142	0.216574
C358	C	0.033399	0.190858	0.466574
C359	C	0.283399	0.440858	0.716574
C360	C	0.533399	0.690858	0.966574
C361	C	-0.245358	-0.479578	0.245198
C362	C	0.004642	-0.229578	0.495198
C363	C	0.254642	0.020422	0.745198
C364	C	0.504642	0.270422	0.995198
C365	C	-0.245354	-0.534183	0.245186
C366	C	0.004646	-0.284183	0.495186
C367	C	0.254646	-0.034183	0.745186
C368	C	0.504646	0.215817	0.995186
C369	C	-0.187786	-0.534185	0.187829
C370	C	0.062214	-0.284185	0.437829
C371	C	0.312214	-0.034185	0.687829
C372	C	0.562214	0.215815	0.937829
C373	C	-0.187791	-0.479585	0.187839
C374	C	0.062209	-0.229585	0.437839
C375	C	0.312209	0.020415	0.687839
C376	C	0.562209	0.270415	0.937839
C377	C	-0.216579	-0.452282	0.216527
C378	C	0.033421	-0.202282	0.466527
C379	C	0.283421	0.047718	0.716527
C380	C	0.533421	0.297718	0.966527
O381	O	-0.163344	-0.393205	0.163471
O382	O	0.086656	-0.143205	0.413471
O383	O	0.336656	0.106795	0.663471
O384	O	0.586656	0.356795	0.913471
O385	O	-0.269835	-0.393153	0.269607
O386	O	-0.019835	-0.143153	0.519607
O387	O	0.230165	0.106847	0.769607
O388	O	0.480165	0.356847	1.019607
C389	C	-0.245323	-0.721978	0.740223
C390	C	0.004677	-0.471978	0.990223
C391	C	0.254677	-0.221978	1.240223
C392	C	0.504677	0.028022	1.490223
C393	C	-0.245339	-0.721981	0.552550
C394	C	0.004661	-0.471981	0.802550
C395	C	0.254661	-0.221981	1.052550
C396	C	0.504661	0.028019	1.302550
O397	O	-0.269757	-0.693508	0.528272
O398	O	-0.019757	-0.443508	0.778272
O399	O	0.230243	-0.193508	1.028272
O400	O	0.480243	0.056492	1.278272
N401	N	-0.216615	-0.755445	0.529096
N402	N	0.033385	-0.505445	0.779096
N403	N	0.283385	-0.255445	1.029096
N404	N	0.533385	-0.005445	1.279096
C405	C	-0.187883	-0.788908	0.552564
C406	C	0.062117	-0.538908	0.802564
C407	C	0.312117	-0.288908	1.052564
C408	C	0.562117	-0.038908	1.302564
O409	O	-0.163448	-0.817367	0.528309
O410	O	0.086552	-0.567367	0.778309
O411	O	0.336552	-0.317367	1.028309
O412	O	0.586552	-0.067367	1.278309
C413	C	-0.187865	-0.788901	0.740236
C414	C	0.062135	-0.538901	0.990236
C415	C	0.312135	-0.288901	1.240236
C416	C	0.562135	-0.038901	1.490236
C417	C	-0.216594	-0.755439	0.763687
C418	C	0.033406	-0.505439	1.013687
C419	C	0.283406	-0.255439	1.263687
C420	C	0.533406	-0.005439	1.513687
C421	C	-0.274049	-0.688517	0.763674
C422	C	-0.024049	-0.438517	1.013674
C423	C	0.225951	-0.188517	1.263674
C424	C	0.475951	0.061483	1.513674
C425	C	-0.274046	-0.688519	0.810590
C426	C	-0.024046	-0.438519	1.060590
C427	C	0.225954	-0.188519	1.310590
C428	C	0.475954	0.061481	1.560590
C429	C	-0.245318	-0.721980	0.834054
C430	C	0.004682	-0.471980	1.084054
C431	C	0.254682	-0.221980	1.334054
C432	C	0.504682	0.028020	1.584054
C433	C	-0.216591	-0.755441	0.810603
C434	C	0.033409	-0.505441	1.060603
C435	C	0.283409	-0.255441	1.310603
C436	C	0.533409	-0.005441	1.560603
C437	C	-0.159131	-0.822361	0.763703
C438	C	0.090869	-0.572361	1.013703
C439	C	0.340869	-0.322361	1.263703
C440	C	0.590869	-0.072361	1.513703
C441	C	-0.159128	-0.822356	0.810624
C442	C	0.090872	-0.572356	1.060624
C443	C	0.340872	-0.322356	1.310624
C444	C	0.590872	-0.072356	1.560624
C445	C	-0.187857	-0.788894	0.834075
C446	C	0.062143	-0.538894	1.084075
C447	C	0.312143	-0.288894	1.334075
C448	C	0.562143	-0.038894	1.584075
C449	C	-0.187860	-0.788904	0.880983
C450	C	0.062140	-0.538904	1.130983
C451	C	0.312140	-0.288904	1.380983
C452	C	0.562140	-0.038904	1.630983
N453	N	-0.216584	-0.755440	0.904436
N454	N	0.033416	-0.505440	1.154436
N455	N	0.283416	-0.255440	1.404436
N456	N	0.533416	-0.005440	1.654436
C457	C	-0.245313	-0.721978	0.880972
C458	C	0.004687	-0.471978	1.130972
C459	C	0.254687	-0.221978	1.380972
C460	C	0.504687	0.028022	1.630972
C461	C	-0.187895	-0.788910	0.454033
C462	C	0.062105	-0.538910	0.704033
C463	C	0.312105	-0.288910	0.954033
C464	C	0.562105	-0.038910	1.204033
C465	C	-0.187900	-0.788912	0.407116
C466	C	0.062100	-0.538912	0.657116
C467	C	0.312100	-0.288912	0.907116
C468	C	0.562100	-0.038912	1.157116
C469	C	-0.245355	-0.721984	0.407105
C470	C	0.004645	-0.471984	0.657105
C471	C	0.254645	-0.221984	0.907105
C472	C	0.504645	0.028016	1.157105
C473	C	-0.245352	-0.721985	0.454023
C474	C	0.004648	-0.471985	0.704023
C475	C	0.254648	-0.221985	0.954023
C476	C	0.504648	0.028015	1.204023
C477	C	-0.216619	-0.755446	0.477487
C478	C	0.033381	-0.505446	0.727487
C479	C	0.283381	-0.255446	0.977487
C480	C	0.533381	-0.005446	1.227487
C481	C	-0.245305	-0.721984	0.979498
C482	C	0.004695	-0.471984	1.229498
C483	C	0.254695	-0.221984	1.479498
C484	C	0.504695	0.028016	1.729498
C485	C	-0.245302	-0.721990	1.026417
C486	C	0.004698	-0.471990	1.276417
C487	C	0.254698	-0.221990	1.526417
C488	C	0.504698	0.028010	1.776417
C489	C	-0.187845	-0.788916	1.026424
C490	C	0.062155	-0.538916	1.276424
C491	C	0.312155	-0.288916	1.526424
C492	C	0.562155	-0.038916	1.776424
C493	C	-0.187850	-0.788912	0.979508
C494	C	0.062150	-0.538912	1.229508
C495	C	0.312150	-0.288912	1.479508
C496	C	0.562150	-0.038912	1.729508
C497	C	-0.216582	-0.755442	0.956046
C498	C	0.033418	-0.505442	1.206046
C499	C	0.283418	-0.255442	1.456046
C500	C	0.533418	-0.005442	1.706046
O501	O	-0.163450	-0.817357	0.905289
O502	O	0.086550	-0.567357	1.155289
O503	O	0.336550	-0.317357	1.405289
O504	O	0.586550	-0.067357	1.655289
O505	O	-0.269736	-0.693515	0.905235
O506	O	-0.019736	-0.443515	1.155235
O507	O	0.230264	-0.193515	1.405235
O508	O	0.480264	0.056485	1.655235
C509	C	-0.245325	-0.721976	0.693308
C510	C	0.004675	-0.471976	0.943308
C511	C	0.254675	-0.221976	1.193308
C512	C	0.504675	0.028024	1.443308
C513	C	-0.216599	-0.755436	0.669856
C514	C	0.033401	-0.505436	0.919856
C515	C	0.283401	-0.255436	1.169856
C516	C	0.533401	-0.005436	1.419856
C517	C	-0.187870	-0.788898	0.693321
C518	C	0.062130	-0.538898	0.943321
C519	C	0.312130	-0.288898	1.193321
C520	C	0.562130	-0.038898	1.443321
C521	C	-0.216604	-0.755439	0.622939
C522	C	0.033396	-0.505439	0.872939
C523	C	0.283396	-0.255439	1.122939
C524	C	0.533396	-0.005439	1.372939
C525	C	-0.245333	-0.721977	0.599474
C526	C	0.004667	-0.471977	0.849474
C527	C	0.254667	-0.221977	1.099474
C528	C	0.504667	0.028023	1.349474
C529	C	-0.274057	-0.688513	0.622928
C530	C	-0.024057	-0.438513	0.872928
C531	C	0.225943	-0.188513	1.122928
C532	C	0.475943	0.061487	1.372928
C533	C	-0.274054	-0.688514	0.669843
C534	C	-0.024054	-0.438514	0.919843
C535	C	0.225946	-0.188514	1.169843
C536	C	0.475946	0.061486	1.419843
C537	C	-0.159146	-0.822362	0.669867
C538	C	0.090854	-0.572362	0.919867
C539	C	0.340854	-0.322362	1.169867
C540	C	0.590854	-0.072362	1.419867
C541	C	-0.159151	-0.822358	0.622952
C542	C	0.090849	-0.572358	0.872952
C543	C	0.340849	-0.322358	1.122952
C544	C	0.590849	-0.072358	1.372952
C545	C	-0.187880	-0.788896	0.599487
C546	C	0.062120	-0.538896	0.849487
C547	C	0.312120	-0.288896	1.099487
C548	C	0.562120	-0.038896	1.349487
C549	C	-0.216569	-0.755441	1.099816
C550	C	0.033431	-0.505441	1.349816
C551	C	0.283431	-0.255441	1.599816
C552	C	0.533431	-0.005441	1.849816
C553	C	-0.216573	-0.755451	1.049882
C554	C	0.033427	-0.505451	1.299882
C555	C	0.283427	-0.255451	1.549882
C556	C	0.533427	-0.005451	1.799882
H557	H	-0.472667	-0.816115	0.164460
H558	H	-0.222667	-0.566115	0.414460
H559	H	0.027333	-0.316115	0.664460
H560	H	0.277333	-0.066115	0.914460
H561	H	-0.959952	-0.816283	0.164502
H562	H	-0.709952	-0.566283	0.414502
H563	H	-0.459952	-0.316283	0.664502
H564	H	-0.209952	-0.066283	0.914502
N565	N	-1.050015	-0.687945	0.274599
N566	N	-0.800015	-0.437945	0.524599
N567	N	-0.550015	-0.187945	0.774599
N568	N	-0.300015	0.062055	1.024599
N569	N	-1.029081	-0.658064	0.300218
N570	N	-0.779081	-0.408064	0.550218
N571	N	-0.529081	-0.158064	0.800218
N572	N	-0.279081	0.091936	1.050218
H573	H	-1.046012	-0.633920	0.320926
H574	H	-0.796012	-0.383920	0.570926
H575	H	-0.546012	-0.133920	0.820926
H576	H	-0.296012	0.116080	1.070926
H577	H	-0.603484	-0.661284	0.297328
H578	H	-0.353484	-0.411284	0.547328
H579	H	-0.103484	-0.161284	0.797328
H580	H	0.146516	0.088716	1.047328
H581	H	-0.164354	-0.457360	0.164489
H582	H	0.085646	-0.207360	0.414489
H583	H	0.335646	0.042640	0.664489
H584	H	0.585646	0.292640	0.914489
N585	N	-0.303395	-0.654324	0.598955
N586	N	-0.053395	-0.404324	0.848955
N587	N	0.196605	-0.154324	1.098955
N588	N	0.446605	0.095676	1.348955
N589	N	-0.300406	-0.606081	0.604179
N590	N	-0.050406	-0.356081	0.854179
N591	N	0.199594	-0.106081	1.104179
N592	N	0.449594	0.143919	1.354179
H593	H	-0.321123	-0.581933	0.587246
H594	H	-0.071123	-0.331933	0.837246
H595	H	0.178877	-0.081933	1.087246
H596	H	0.428877	0.168067	1.337246
N597	N	-0.955186	-0.687917	0.274591
N598	N	-0.705186	-0.437917	0.524591
N599	N	-0.455186	-0.187917	0.774591
N600	N	-0.205186	0.062083	1.024591
N601	N	-0.929034	-0.654603	0.258754
N602	N	-0.679034	-0.404603	0.508754
N603	N	-0.429034	-0.154603	0.758754
N604	N	-0.179034	0.095397	1.008754
H605	H	-0.912131	-0.630450	0.279456
H606	H	-0.662131	-0.380450	0.529456
H607	H	-0.412131	-0.130450	0.779456
H608	H	-0.162131	0.119550	1.029456
H609	H	-0.135757	-0.849612	0.603862
H610	H	0.114243	-0.599612	0.853862
H611	H	0.364243	-0.349612	1.103862
H612	H	0.614243	-0.099612	1.353862
H613	H	-0.268748	-0.694739	0.387992
H614	H	-0.018748	-0.444739	0.637992
H615	H	0.231252	-0.194739	0.887992
H616	H	0.481252	0.055261	1.137992
N617	N	-0.129611	-0.200561	0.129906
N618	N	0.120389	0.049439	0.379906
N619	N	0.370389	0.299439	0.629906
N620	N	0.620389	0.549439	0.879906
N621	N	-0.103914	-0.224958	0.104305
N622	N	0.146086	0.025042	0.354305
N623	N	0.396086	0.275042	0.604305
N624	N	0.646086	0.525042	0.854305
H625	H	-0.083145	-0.205280	0.083613
H626	H	0.166855	0.044720	0.333613
H627	H	0.416855	0.294720	0.583613
H628	H	0.666855	0.544720	0.833613
N629	N	-0.739383	-0.654386	0.303269
N630	N	-0.489383	-0.404386	0.553269
N631	N	-0.239383	-0.154386	0.803269
N632	N	0.010617	0.095614	1.053269
N633	N	-0.713234	-0.621071	0.287430
N634	N	-0.463234	-0.371071	0.537430
N635	N	-0.213234	-0.121071	0.787430
N636	N	0.036766	0.128929	1.037430
H637	H	-0.696331	-0.596916	0.308130
H638	H	-0.446331	-0.346916	0.558130
H639	H	-0.196331	-0.096916	0.808130
H640	H	0.053669	0.153084	1.058130
N641	N	-0.382696	-0.823004	0.158496
N642	N	-0.132696	-0.573004	0.408496
N643	N	0.117304	-0.323004	0.658496
N644	N	0.367304	-0.073004	0.908496
N645	N	-0.403628	-0.852886	0.132877
N646	N	-0.153628	-0.602886	0.382877
N647	N	0.096372	-0.352886	0.632877
N648	N	0.346372	-0.102886	0.882877
H649	H	-0.386695	-0.877022	0.112164
H650	H	-0.136695	-0.627022	0.362164
H651	H	0.113305	-0.377022	0.612164
H652	H	0.363305	-0.127022	0.862164
H653	H	-0.829221	-0.849704	0.135802
H654	H	-0.579221	-0.599704	0.385802
H655	H	-0.329221	-0.349704	0.635802
H656	H	-0.079221	-0.099704	0.885802
H657	H	-0.135751	-0.849610	0.688967
H658	H	0.114249	-0.599610	0.938967
H659	H	0.364249	-0.349610	1.188967
H660	H	0.614249	-0.099610	1.438967
N661	N	-0.274697	-0.687797	0.477969
N662	N	-0.024697	-0.437797	0.727969
N663	N	0.225303	-0.187797	0.977969
N664	N	0.475303	0.062203	1.227969
N665	N	-0.300343	-0.657924	0.457008
N666	N	-0.050343	-0.407924	0.707008
N667	N	0.199657	-0.157924	0.957008
N668	N	0.449657	0.092076	1.207008
H669	H	-0.321068	-0.633774	0.473917
H670	H	-0.071068	-0.383774	0.723917
H671	H	0.178932	-0.133774	0.973917
H672	H	0.428932	0.116226	1.223917
H673	H	-0.688462	-0.849656	0.135783
H674	H	-0.438462	-0.599656	0.385783
H675	H	-0.188462	-0.349656	0.635783
H676	H	0.061538	-0.099656	0.885783
N677	N	-0.598496	-0.856556	0.129821
N678	N	-0.348496	-0.606556	0.379821
N679	N	-0.098496	-0.356556	0.629821
N680	N	0.151504	-0.106556	0.879821
N681	N	-0.619432	-0.886437	0.104204
N682	N	-0.369432	-0.636437	0.354204
N683	N	-0.119432	-0.386437	0.604204
N684	N	0.130568	-0.136437	0.854204
H685	H	-0.602502	-0.910578	0.083493
H686	H	-0.352502	-0.660578	0.333493
H687	H	-0.102502	-0.410578	0.583493
H688	H	0.147498	-0.160578	0.833493
H689	H	-0.297595	-0.206178	0.297268
H690	H	-0.047595	0.043822	0.547268
H691	H	0.202405	0.293822	0.797268
H692	H	0.452405	0.543822	1.047268
N693	N	-0.274771	-0.451703	0.274499
N694	N	-0.024771	-0.201703	0.524499
N695	N	0.225229	0.048297	0.774499
N696	N	0.475229	0.298297	1.024499
N697	N	-0.316219	-0.457780	0.271438
N698	N	-0.066219	-0.207780	0.521438
N699	N	0.183781	0.042220	0.771438
N700	N	0.433781	0.292220	1.021438
H701	H	-0.336994	-0.438094	0.292130
H702	H	-0.086994	-0.188094	0.542130
H703	H	0.163006	0.061906	0.792130
H704	H	0.413006	0.311906	1.042130
N705	N	-0.693461	-0.654386	0.303289
N706	N	-0.443461	-0.404386	0.553289
N707	N	-0.193461	-0.154386	0.803289
N708	N	0.056539	0.095614	1.053289
N709	N	-0.719620	-0.672767	0.331939
N710	N	-0.469620	-0.422767	0.581939
N711	N	-0.219620	-0.172767	0.831939
N712	N	0.030380	0.077233	1.081939
H713	H	-0.736556	-0.648638	0.352656
H714	H	-0.486556	-0.398638	0.602656
H715	H	-0.236556	-0.148638	0.852656
H716	H	0.013444	0.101362	1.102656
N717	N	-0.158563	-0.823097	0.383156
N718	N	0.091437	-0.573097	0.633156
N719	N	0.341437	-0.323097	0.883156
N720	N	0.591437	-0.073097	1.133156
N721	N	-0.174372	-0.856402	0.356986
N722	N	0.075628	-0.606402	0.606986
N723	N	0.325628	-0.356402	0.856986
N724	N	0.575628	-0.106402	1.106986
H725	H	-0.153651	-0.880545	0.340065
H726	H	0.096349	-0.630545	0.590065
H727	H	0.346349	-0.380545	0.840065
H728	H	0.596349	-0.130545	1.090065
H729	H	-0.268698	-0.694725	0.960400
H730	H	-0.018698	-0.444725	1.210400
H731	H	0.231302	-0.194725	1.460400
H732	H	0.481302	0.055275	1.710400
N733	N	-1.049936	-0.823244	0.158568
N734	N	-0.799936	-0.573244	0.408568
N735	N	-0.549936	-0.323244	0.658568
N736	N	-0.299936	-0.073244	0.908568
N737	N	-1.091826	-0.823248	0.158580
N738	N	-0.841826	-0.573248	0.408580
N739	N	-0.591826	-0.323248	0.658580
N740	N	-0.341826	-0.073248	0.908580
H741	H	-1.108742	-0.847391	0.137880
H742	H	-0.858742	-0.597391	0.387880
H743	H	-0.608742	-0.347391	0.637880
H744	H	-0.358742	-0.097391	0.887880
H745	H	-0.297592	-0.305223	0.297253
H746	H	-0.047592	-0.055223	0.547253
H747	H	0.202408	0.194777	0.797253
H748	H	0.452408	0.444777	1.047253
H749	H	-0.387643	-0.694648	0.268590
H750	H	-0.137643	-0.444648	0.518590
H751	H	0.112357	-0.194648	0.768590
H752	H	0.362357	0.055352	1.018590
N753	N	-0.477627	-0.687738	0.274546
N754	N	-0.227627	-0.437738	0.524546
N755	N	0.022373	-0.187738	0.774546
N756	N	0.272373	0.062262	1.024546
N757	N	-0.456697	-0.657852	0.300162
N758	N	-0.206697	-0.407852	0.550162
N759	N	0.043303	-0.157852	0.800162
N760	N	0.293303	0.092148	1.050162
H761	H	-0.473631	-0.633710	0.320870
H762	H	-0.223631	-0.383710	0.570870
H763	H	0.026369	-0.133710	0.820870
H764	H	0.276369	0.116290	1.070870
H765	H	-0.268828	-0.054058	0.268605
H766	H	-0.018828	0.195942	0.518605
H767	H	0.231172	0.445942	0.768605
H768	H	0.481172	0.695942	1.018605
N769	N	-0.274788	0.050664	0.274565
N770	N	-0.024788	0.300664	0.524565
N771	N	0.225212	0.550664	0.774565
N772	N	0.475212	0.800664	1.024565
N773	N	-0.271879	0.044549	0.316025
N774	N	-0.021879	0.294549	0.566025
N775	N	0.228121	0.544549	0.816025
N776	N	0.478121	0.794549	1.066025
H777	H	-0.292636	0.064254	0.336721
H778	H	-0.042636	0.314254	0.586721
H779	H	0.207364	0.564254	0.836721
H780	H	0.457364	0.814254	1.086721
H781	H	-0.744102	-0.849676	0.135789
H782	H	-0.494102	-0.599676	0.385789
H783	H	-0.244102	-0.349676	0.635789
H784	H	0.005898	-0.099676	0.885789
N785	N	-0.303398	-0.654328	0.739718
N786	N	-0.053398	-0.404328	0.989718
N787	N	0.196602	-0.154328	1.239718
N788	N	0.446602	0.095672	1.489718
N789	N	-0.329041	-0.624458	0.760671
N790	N	-0.079041	-0.374458	1.010671
N791	N	0.170959	-0.124458	1.260671
N792	N	0.420959	0.125542	1.510671
H793	H	-0.349773	-0.600311	0.743755
H794	H	-0.099773	-0.350311	0.993755
H795	H	0.150227	-0.100311	1.243755
H796	H	0.400227	0.149689	1.493755
N797	N	-0.158382	-0.562072	0.158531
N798	N	0.091618	-0.312072	0.408531
N799	N	0.341618	-0.062072	0.658531
N800	N	0.591618	0.187928	0.908531
N801	N	-0.161278	-0.555955	0.117070
N802	N	0.088722	-0.305955	0.367070
N803	N	0.338722	-0.055955	0.617070
N804	N	0.588722	0.194045	0.867070
H805	H	-0.140508	-0.575650	0.096380
H806	H	0.109492	-0.325650	0.346380
H807	H	0.359492	-0.075650	0.596380
H808	H	0.609492	0.174350	0.846380
N809	N	-0.834209	-0.654421	0.303287
N810	N	-0.584209	-0.404421	0.553287
N811	N	-0.334209	-0.154421	0.803287
N812	N	-0.084209	0.095579	1.053287
N813	N	-0.813275	-0.624541	0.328906
N814	N	-0.563275	-0.374541	0.578906
N815	N	-0.313275	-0.124541	0.828906
N816	N	-0.063275	0.125459	1.078906
H817	H	-0.830207	-0.600401	0.349618
H818	H	-0.580207	-0.350401	0.599618
H819	H	-0.330207	-0.100401	0.849618
H820	H	-0.080207	0.149599	1.099618
N821	N	-0.274764	-0.562056	0.274479
N822	N	-0.024764	-0.312056	0.524479
N823	N	0.225236	-0.062056	0.774479
N824	N	0.475236	0.187944	1.024479
N825	N	-0.300461	-0.537666	0.300084
N826	N	-0.050461	-0.287666	0.550084
N827	N	0.199539	-0.037666	0.800084
N828	N	0.449539	0.212334	1.050084
H829	H	-0.321231	-0.557349	0.320772
H830	H	-0.071231	-0.307349	0.570772
H831	H	0.178769	-0.057349	0.820772
H832	H	0.428769	0.192651	1.070772
N833	N	-0.274653	-0.687805	1.050364
N834	N	-0.024653	-0.437805	1.300364
N835	N	0.225347	-0.187805	1.550364
N836	N	0.475347	0.062195	1.800364
N837	N	-0.300300	-0.657931	1.029405
N838	N	-0.050300	-0.407931	1.279405
N839	N	0.199700	-0.157931	1.529405
N840	N	0.449700	0.092069	1.779405
H841	H	-0.321029	-0.633788	1.046316
H842	H	-0.071029	-0.383788	1.296316
H843	H	0.178971	-0.133788	1.546316
H844	H	0.428971	0.116212	1.796316
N845	N	-0.303401	-0.654341	0.834534
N846	N	-0.053401	-0.404341	1.084534
N847	N	0.196599	-0.154341	1.334534
N848	N	0.446599	0.095659	1.584534
N849	N	-0.329051	-0.624473	0.813570
N850	N	-0.079051	-0.374473	1.063570
N851	N	0.170949	-0.124473	1.313570
N852	N	0.420949	0.125527	1.563570
H853	H	-0.349786	-0.600335	0.830478
H854	H	-0.099786	-0.350335	1.080478
H855	H	0.150214	-0.100335	1.330478
H856	H	0.400214	0.149665	1.580478
N857	N	-0.158429	0.050628	0.158599
N858	N	0.091571	0.300628	0.408599
N859	N	0.341571	0.550628	0.658599
N860	N	0.591571	0.800628	0.908599
N861	N	-0.132734	0.026236	0.132993
N862	N	0.117266	0.276236	0.382993
N863	N	0.367266	0.526236	0.632993
N864	N	0.617266	0.776236	0.882993
H865	H	-0.111969	0.045917	0.112300
H866	H	0.138031	0.295917	0.362300
H867	H	0.388031	0.545917	0.612300
H868	H	0.638031	0.795917	0.862300
H869	H	-0.164378	-0.054072	0.164540
H870	H	0.085622	0.195928	0.414540
H871	H	0.335622	0.445928	0.664540
H872	H	0.585622	0.695928	0.914540
H873	H	-0.135567	-0.305261	0.135848
H874	H	0.114433	-0.055261	0.385848
H875	H	0.364433	0.194739	0.635848
H876	H	0.614433	0.444739	0.885848
H877	H	-0.164496	-0.816160	0.473133
H878	H	0.085504	-0.566160	0.723133
H879	H	0.335504	-0.316160	0.973133
H880	H	0.585504	-0.066160	1.223133
N881	N	-0.129783	-0.856549	0.739763
N882	N	0.120217	-0.606549	0.989763
N883	N	0.370217	-0.356549	1.239763
N884	N	0.620217	-0.106549	1.489763
N885	N	-0.104136	-0.886418	0.760728
N886	N	0.145864	-0.636418	1.010728
N887	N	0.395864	-0.386418	1.260728
N888	N	0.645864	-0.136418	1.510728
H889	H	-0.083407	-0.910565	0.743821
H890	H	0.166593	-0.660565	0.993821
H891	H	0.416593	-0.410565	1.243821
H892	H	0.666593	-0.160565	1.493821
N893	N	-0.129770	-0.856536	0.834584
N894	N	0.120230	-0.606536	1.084584
N895	N	0.370230	-0.356536	1.334584
N896	N	0.620230	-0.106536	1.584584
N897	N	-0.104122	-0.886405	0.813636
N898	N	0.145878	-0.636405	1.063636
N899	N	0.395878	-0.386405	1.313636
N900	N	0.645878	-0.136405	1.563636
H901	H	-0.083388	-0.910545	0.830556
H902	H	0.166612	-0.660545	1.080556
H903	H	0.416612	-0.410545	1.330556
H904	H	0.666612	-0.160545	1.580556
H905	H	-0.164460	-0.816163	0.960414
H906	H	0.085540	-0.566163	1.210414
H907	H	0.335540	-0.316163	1.460414
H908	H	0.585540	-0.066163	1.710414
N909	N	-0.158506	-0.823094	1.050404
N910	N	0.091494	-0.573094	1.300404
N911	N	0.341494	-0.323094	1.550404
N912	N	0.591494	-0.073094	1.800404
N913	N	-0.158510	-0.823085	1.092295
N914	N	0.091490	-0.573085	1.342295
N915	N	0.341490	-0.323085	1.592295
N916	N	0.591490	-0.073085	1.842295
H917	H	-0.137788	-0.847222	1.109232
H918	H	0.112212	-0.597222	1.359232
H919	H	0.362212	-0.347222	1.609232
H920	H	0.612212	-0.097222	1.859232
H921	H	-0.297448	-0.661266	0.688933
H922	H	-0.047448	-0.411266	0.938933
H923	H	0.202552	-0.161266	1.188933
H924	H	0.452552	0.088734	1.438933
