data_functionalizedCrystal
_audit_creation_method	'MofGen! by Chris Wilmer'
_symmetry_space_group_name_H-M	'P1'
_symmetry_Int_Tables_number	1
_symmetry_cell_setting	triclinic
loop_
_symmetry_equiv_pos_as_xyz
  x,y,z
_cell_length_a	10.968094
_cell_length_b	10.489741
_cell_length_c	9.482900
_cell_angle_alpha	99.430409
_cell_angle_beta	92.548310
_cell_angle_gamma	84.625935
loop_
_atom_site_label
_atom_site_type_symbol
_atom_site_fract_x
_atom_site_fract_y
_atom_site_fract_z
O1	O	1.612130	0.225211	0.282944
O2	O	1.262946	0.228018	0.195471
O3	O	1.445482	0.041339	0.241206
O4	O	1.429593	0.411890	0.237209
O5	O	1.408406	0.079417	0.473709
O6	O	1.225870	0.266096	0.427974
O7	O	1.575054	0.263290	0.515447
Cu8	Cu	1.397076	0.268170	0.492940
Cu9	Cu	1.440923	0.223138	0.217978
O10	O	1.392518	0.449969	0.469712
C11	C	1.199695	0.243977	0.300521
C12	C	1.066464	0.234785	0.267146
C13	C	1.425744	0.012798	0.357156
C14	C	1.422153	-0.128977	0.356254
C15	C	0.850152	0.240898	0.338206
C16	C	0.987850	0.250410	0.372715
C17	C	1.306012	-0.201804	0.327149
C18	C	1.342596	-0.272939	0.455529
C19	C	1.379178	-0.310455	0.226306
C20	C	1.458771	-0.198229	0.484741
C21	C	1.495353	-0.235753	0.255411
C22	C	1.532017	-0.306852	0.383840
C23	C	1.638305	0.247330	0.410394
C24	C	1.771538	0.256520	0.443760
C25	C	1.412256	0.478509	0.353759
C26	C	1.415848	0.620283	0.354651
N27	N	1.366246	0.299843	0.686335
N28	N	1.471763	0.191455	0.024585
C29	C	1.431821	0.232473	0.774965
C30	C	1.406178	0.258835	0.935957
H31	H	1.022482	0.270821	0.488639
H32	H	1.031834	0.214369	0.151221
C33	C	0.818317	0.284103	0.600355
H34	H	0.904728	0.286887	0.603005
H35	H	0.798056	0.217322	0.649474
H36	H	0.781034	0.365141	0.645192
C37	C	1.176994	-0.139898	0.294987
H38	H	1.122919	-0.152016	0.366254
H39	H	1.148170	-0.179743	0.203936
H40	H	1.180299	-0.049726	0.294962
C41	C	1.255337	-0.296078	0.569821
H42	H	1.175060	-0.259878	0.549569
H43	H	1.282845	-0.255994	0.661370
H44	H	1.254252	-0.386648	0.569007
C45	C	1.504188	-0.132444	0.632433
H46	H	1.506149	-0.042136	0.632128
H47	H	1.584183	-0.169274	0.652823
H48	H	1.450226	-0.145316	0.703466
C49	C	1.661113	-0.368411	0.416268
H50	H	1.689171	-0.329453	0.508059
H51	H	1.715544	-0.354906	0.346021
H52	H	1.658256	-0.458863	0.414759
H53	H	1.331044	0.336031	0.979256
H54	H	1.559909	-0.218601	0.170790
H55	H	1.546889	0.114250	0.981284
H56	H	1.345476	-0.359276	0.117067
H57	H	1.291116	0.377033	0.729641
H58	H	0.815516	0.220474	0.222290
H59	H	1.506942	0.155272	0.731659
