data_functionalizedCrystal
_audit_creation_method	'MofGen! by Chris Wilmer'
_symmetry_space_group_name_H-M	'P1'
_symmetry_Int_Tables_number	1
_symmetry_cell_setting	triclinic
loop_
_symmetry_equiv_pos_as_xyz
  x,y,z
_cell_length_a	34.571875
_cell_length_b	34.571051
_cell_length_c	34.567439
_cell_angle_alpha	60.004367
_cell_angle_beta	60.008842
_cell_angle_gamma	59.994195
loop_
_atom_site_label
_atom_site_type_symbol
_atom_site_fract_x
_atom_site_fract_y
_atom_site_fract_z
O1	O	0.053721	-0.565181	0.472559
O2	O	0.553721	-0.065181	0.972559
O3	O	0.020283	-0.440038	0.380761
O4	O	0.520283	0.059962	0.880761
O5	O	0.099534	-0.519209	0.380676
O6	O	0.599534	-0.019209	0.880676
O7	O	-0.025530	-0.486010	0.472643
O8	O	0.474470	0.013990	0.972643
O9	O	0.125831	-0.492917	0.406885
O10	O	0.625831	0.007083	0.906885
O11	O	0.046580	-0.413746	0.406969
O12	O	0.546580	0.086254	0.906969
O13	O	0.080018	-0.538889	0.498767
O14	O	0.580018	-0.038889	0.998767
Zn15	Zn	0.067475	-0.472143	0.457030
Zn16	Zn	0.567475	0.027857	0.957030
Zn17	Zn	0.032827	-0.506784	0.422498
Zn18	Zn	0.532827	-0.006784	0.922498
O19	O	0.000767	-0.459718	0.498852
O20	O	0.500767	0.040282	0.998852
N21	N	0.091122	-0.448505	0.480598
N22	N	0.591122	0.051495	0.980598
N23	N	0.009184	-0.530426	0.398930
N24	N	0.509184	-0.030426	0.898930
C25	C	0.124402	-0.415465	0.717633
C26	C	0.624402	0.084535	1.217633
C27	C	0.328327	-0.415388	0.513477
C28	C	0.828327	0.084612	1.013477
C29	C	0.124221	-0.415437	0.513630
C30	C	0.624221	0.084563	1.013630
C31	C	0.124201	-0.211364	0.513624
C32	C	0.624201	0.288636	1.013624
C33	C	0.157075	-0.309853	0.546423
C34	C	0.657075	0.190147	1.046423
C35	C	0.157084	-0.382601	0.546423
C36	C	0.657084	0.117399	1.046423
C37	C	0.175289	-0.364414	0.564591
C38	C	0.675289	0.135586	1.064591
C39	C	0.254624	-0.350722	0.522790
C40	C	0.754624	0.149278	1.022790
C41	C	0.304220	-0.367243	0.506229
C42	C	0.804220	0.132757	1.006229
C43	C	0.304249	-0.447494	0.536832
C44	C	0.804249	0.052506	1.036832
C45	C	0.254655	-0.430972	0.553394
C46	C	0.754655	0.069028	1.053394
C47	C	0.169014	-0.285043	0.497667
C48	C	0.669014	0.214957	0.997667
C49	C	0.152454	-0.235444	0.481153
C50	C	0.652454	0.264556	0.981153
C51	C	0.112020	-0.235469	0.562154
C52	C	0.612020	0.264531	1.062154
C53	C	0.128580	-0.285068	0.578668
C54	C	0.628580	0.214932	1.078668
C55	C	0.108321	-0.370634	0.558439
C56	C	0.608321	0.129366	1.058439
C57	C	0.091776	-0.387168	0.541918
C58	C	0.591776	0.112832	1.041918
C59	C	0.172754	-0.427637	0.501375
C60	C	0.672754	0.072363	1.001375
C61	C	0.189301	-0.411103	0.517891
C62	C	0.689301	0.088897	1.017891
C63	C	0.108399	-0.370649	0.643978
C64	C	0.608399	0.129351	1.143978
C65	C	0.091911	-0.387197	0.693575
C66	C	0.591911	0.112803	1.193575
C67	C	0.172928	-0.427676	0.693511
C68	C	0.672928	0.072324	1.193511
C69	C	0.189415	-0.411128	0.643912
C70	C	0.689415	0.088872	1.143912
C71	C	0.157149	-0.382613	0.619147
C72	C	0.657149	0.117387	1.119147
C73	C	0.229844	-0.382585	0.546371
C74	C	0.729844	0.117415	1.046371
C75	C	0.105624	-0.433333	0.772186
C76	C	0.605624	0.066667	1.272186
C77	C	0.382878	-0.432925	0.495007
C78	C	0.882878	0.067075	0.995007
C79	C	0.105380	-0.433313	0.495792
C80	C	0.605380	0.066687	0.995792
C81	C	0.105683	-0.156808	0.496094
C82	C	0.605683	0.343192	0.996094
C83	C	-0.023527	-0.563458	0.161535
C84	C	0.476473	-0.063458	0.661535
C85	C	-0.023851	-0.767445	0.365663
C86	C	0.476149	-0.267445	0.865663
C87	C	-0.023821	-0.563448	0.365756
C88	C	0.476179	-0.063448	0.865756
C89	C	-0.227785	-0.563229	0.365355
C90	C	0.272215	-0.063229	0.865355
C91	C	-0.129302	-0.596153	0.332678
C92	C	0.370698	-0.096153	0.832678
C93	C	-0.056593	-0.596234	0.332823
C94	C	0.443407	-0.096234	0.832823
C95	C	-0.074746	-0.614396	0.314578
C96	C	0.425254	-0.114396	0.814578
C97	C	-0.088477	-0.693710	0.356299
C98	C	0.411523	-0.193710	0.856299
C99	C	-0.071982	-0.743310	0.372851
C100	C	0.428018	-0.243310	0.872851
C101	C	0.008266	-0.743392	0.342376
C102	C	0.508266	-0.243392	0.842376
C103	C	-0.008230	-0.693794	0.325823
C104	C	0.491770	-0.193794	0.825823
C105	C	-0.154162	-0.608103	0.381422
C106	C	0.345838	-0.108103	0.881422
C107	C	-0.203757	-0.591517	0.397874
C108	C	0.296243	-0.091517	0.897874
C109	C	-0.203630	-0.551037	0.316836
C110	C	0.296370	-0.051037	0.816836
C111	C	-0.154034	-0.567623	0.300384
C112	C	0.345966	-0.067623	0.800384
C113	C	-0.068543	-0.547475	0.320829
C114	C	0.431457	-0.047475	0.820829
C115	C	-0.052041	-0.530969	0.337421
C116	C	0.447959	-0.030969	0.837421
C117	C	-0.011639	-0.611977	0.377990
C118	C	0.488361	-0.111977	0.877990
C119	C	-0.028141	-0.628485	0.361404
C120	C	0.471859	-0.128485	0.861404
C121	C	-0.068417	-0.547482	0.235199
C122	C	0.431583	-0.047482	0.735199
C123	C	-0.051814	-0.530977	0.185602
C124	C	0.448186	-0.030977	0.685602
C125	C	-0.011349	-0.611990	0.185649
C126	C	0.488651	-0.111990	0.685649
C127	C	-0.027951	-0.628493	0.235248
C128	C	0.472049	-0.128493	0.735248
C129	C	-0.056486	-0.596238	0.260022
C130	C	0.443514	-0.096238	0.760022
C131	C	-0.056602	-0.668955	0.332787
C132	C	0.443398	-0.168955	0.832787
C133	C	-0.005599	-0.544662	0.106983
C134	C	0.494401	-0.044662	0.606983
C135	C	-0.006342	-0.821999	0.384121
C136	C	0.493658	-0.321999	0.884121
C137	C	-0.005979	-0.544649	0.383673
C138	C	0.494021	-0.044649	0.883673
C139	C	-0.282336	-0.544682	0.382817
C140	C	0.217664	-0.044682	0.882817
N141	N	0.427518	-0.448428	0.480350
N142	N	0.927518	0.051572	0.980350
O143	O	0.589573	-0.456297	0.363634
O144	O	1.089573	0.043703	0.863634
O145	O	0.589761	-0.548399	0.488643
O146	O	1.089761	-0.048399	0.988643
O147	O	0.589681	-0.548188	0.409364
O148	O	1.089681	-0.048188	0.909364
O149	O	0.589654	-0.456508	0.442913
O150	O	1.089654	0.043492	0.942913
O151	O	0.510890	-0.521988	0.435708
O152	O	1.010890	-0.021988	0.935708
O153	O	0.510970	-0.522199	0.514987
O154	O	1.010970	-0.022199	1.014987
O155	O	0.510782	-0.430098	0.389978
O156	O	1.010782	0.069902	0.889978
Zn157	Zn	0.498366	-0.471989	0.456665
Zn158	Zn	0.998366	0.028011	0.956665
Zn159	Zn	0.602177	-0.506508	0.421956
Zn160	Zn	1.102177	-0.006508	0.921956
O161	O	0.510862	-0.430308	0.469257
O162	O	1.010862	0.069692	0.969257
N163	N	0.673025	-0.530068	0.398267
N164	N	1.173025	-0.030068	0.898267
N165	N	0.091092	-0.112167	0.480590
N166	N	0.591092	0.387833	0.980590
O167	O	-0.025539	0.049976	0.472612
O168	O	0.474461	0.549976	0.972612
O169	O	0.099472	0.050011	0.380491
O170	O	0.599472	0.550011	0.880491
O171	O	0.020155	0.049979	0.380751
O172	O	0.520155	0.549979	0.880751
O173	O	0.053778	0.050009	0.472352
O174	O	0.553778	0.550009	0.972352
O175	O	0.046458	-0.028818	0.407008
O176	O	0.546458	0.471182	0.907008
O177	O	0.125775	-0.028785	0.406748
O178	O	0.625775	0.471215	0.906748
O179	O	0.000764	-0.028821	0.498869
O180	O	0.500764	0.471179	0.998869
Zn181	Zn	0.067445	-0.041314	0.456977
Zn182	Zn	0.567445	0.458686	0.956977
Zn183	Zn	0.032791	0.062504	0.422382
Zn184	Zn	0.532791	0.562504	0.922382
O185	O	0.080081	-0.028788	0.498609
O186	O	0.580081	0.471212	0.998609
N187	N	0.009138	0.133358	0.398771
N188	N	0.509138	0.633358	0.898771
N189	N	0.091421	-0.448552	0.816827
N190	N	0.591421	0.051448	1.316827
O191	O	0.083469	-0.565164	0.978960
O192	O	0.583469	-0.065164	1.478960
O193	O	-0.008614	-0.440110	0.979002
O194	O	0.491386	0.059890	1.479002
O195	O	-0.008399	-0.519410	0.978978
O196	O	0.491601	-0.019410	1.478978
O197	O	0.083253	-0.485863	0.978984
O198	O	0.583253	0.014137	1.478984
O199	O	0.017837	-0.493128	0.900185
O200	O	0.517837	0.006872	1.400185
O201	O	0.017621	-0.413827	0.900208
O202	O	0.517621	0.086173	1.400208
O203	O	0.109704	-0.538881	0.900167
O204	O	0.609704	-0.038881	1.400167
Zn205	Zn	0.067828	-0.472181	0.887677
Zn206	Zn	0.567828	0.027819	1.387677
Zn207	Zn	0.033262	-0.506810	0.991491
Zn208	Zn	0.533262	-0.006810	1.491491
O209	O	0.109489	-0.459581	0.900191
O210	O	0.609489	0.040419	1.400191
N211	N	0.009668	-0.530444	1.062341
N212	N	0.509668	-0.030444	1.562341
C213	C	0.030297	-0.411123	0.381218
C214	C	0.530297	0.088877	0.881218
C215	C	0.128439	-0.509167	0.381113
C216	C	0.628439	-0.009167	0.881113
C217	C	0.070004	-0.567805	0.498310
C218	C	0.570004	-0.067805	0.998310
C219	C	-0.028138	-0.469761	0.498415
C220	C	0.471862	0.030239	0.998415
C221	C	0.550388	-0.547982	0.517564
C222	C	1.050388	-0.047982	1.017564
C223	C	0.550290	-0.547721	0.419387
C224	C	1.050290	-0.047721	0.919387
C225	C	0.550153	-0.430514	0.361058
C226	C	1.050153	0.069486	0.861058
C227	C	0.550253	-0.430775	0.459234
C228	C	1.050253	0.069225	0.959234
C229	C	0.128339	0.010714	0.380902
C230	C	0.628339	0.510714	0.880902
C231	C	0.030148	0.010577	0.381256
C232	C	0.530148	0.510577	0.881256
C233	C	-0.028136	0.010574	0.498426
C234	C	0.471864	0.510574	0.998426
C235	C	0.070089	0.010613	0.498104
C236	C	0.570089	0.510613	0.998104
C237	C	-0.008178	-0.411214	0.939610
C238	C	0.491822	0.088786	1.439610
C239	C	-0.007906	-0.509413	0.939566
C240	C	0.492094	-0.009413	1.439566
C241	C	0.109268	-0.567777	0.939558
C242	C	0.609268	-0.067777	1.439558
C243	C	0.109002	-0.469572	0.939586
C244	C	0.609002	0.030428	1.439586
H245	H	0.052212	-0.377448	0.713786
H246	H	0.552212	0.122552	1.213786
O247	O	-0.042727	-0.368408	0.939687
O248	O	0.457273	0.131592	1.439687
C249	C	-0.121724	-0.326100	0.980539
C250	C	0.378276	0.173900	1.480539
C251	C	-0.082643	-0.374609	0.980507
C252	C	0.417357	0.125391	1.480507
H253	H	-0.154002	-0.331096	1.013544
H254	H	0.345998	0.168904	1.513544
H255	H	-0.132106	-0.309077	0.947589
H256	H	0.367894	0.190923	1.447589
H257	H	-0.107980	-0.302210	0.980522
H258	H	0.392020	0.197790	1.480522
H259	H	-0.096353	-0.398536	0.980541
H260	H	0.403647	0.101464	1.480541
H261	H	-0.072266	-0.391594	1.013454
H262	H	0.427734	0.108406	1.513454
O263	O	0.171288	-0.517680	0.346674
O264	O	0.671288	-0.017680	0.846674
C265	C	0.228308	-0.565575	0.296665
C266	C	0.728308	-0.065575	0.796665
C267	C	0.179779	-0.555993	0.335676
C268	C	0.679779	-0.055993	0.835676
H269	H	0.235185	-0.596545	0.287754
H270	H	0.735185	-0.096545	0.787754
H271	H	0.257258	-0.574599	0.309693
H272	H	0.757258	-0.074599	0.809693
H273	H	0.228393	-0.532648	0.263641
H274	H	0.728393	-0.032648	0.763641
H275	H	0.179648	-0.588903	0.368713
H276	H	0.679648	-0.088903	0.868713
H277	H	0.150851	-0.546949	0.322609
H278	H	0.650851	-0.046949	0.822609
O279	O	0.078726	0.010531	0.532456
O280	O	0.578726	0.510531	1.032456
C281	C	0.126868	-0.030272	0.582216
C282	C	0.626868	0.469728	1.082216
C283	C	0.117132	-0.030240	0.543317
C284	C	0.617132	0.469760	1.043317
H285	H	0.157926	-0.063226	0.591002
H286	H	0.657926	0.436774	1.091002
H287	H	0.094047	-0.030313	0.615339
H288	H	0.594047	0.469687	1.115339
H289	H	0.135860	0.002725	0.569076
H290	H	0.635860	0.502725	1.069076
H291	H	0.108152	-0.063231	0.556412
H292	H	0.608152	0.436769	1.056412
H293	H	0.149961	-0.030174	0.510201
H294	H	0.649961	0.469826	1.010201
O295	O	0.171121	0.010925	0.346372
O296	O	0.671121	0.510925	0.846372
C297	C	0.255469	-0.029504	0.323168
C298	C	0.755469	0.470496	0.823168
C299	C	0.207050	-0.029794	0.362314
C300	C	0.707050	0.470206	0.862314
H301	H	0.284530	-0.062427	0.336039
H302	H	0.784530	0.437573	0.836039
H303	H	0.262253	0.003529	0.314320
H304	H	0.762253	0.503529	0.814320
H305	H	0.255463	-0.029414	0.290146
H306	H	0.755463	0.470586	0.790146
H307	H	0.207021	-0.029902	0.395360
H308	H	0.707021	0.470098	0.895360
H309	H	0.200285	-0.062825	0.371121
H310	H	0.700285	0.437175	0.871121
O311	O	0.143343	-0.461062	0.939664
O312	O	0.643343	0.038938	1.439664
C313	C	0.195069	-0.483869	0.980452
C314	C	0.695069	0.016131	1.480452
C315	C	0.156172	-0.493552	0.980429
C316	C	0.656172	0.006448	1.480429
H317	H	0.205460	-0.510138	1.013403
H318	H	0.705460	-0.010138	1.513403
H319	H	0.181191	-0.446236	0.980493
H320	H	0.681191	0.053764	1.480493
H321	H	0.227379	-0.488086	0.947454
H322	H	0.727379	0.011914	1.447454
H323	H	0.123849	-0.489362	1.013421
H324	H	0.623849	0.010638	1.513421
H325	H	0.170088	-0.531181	0.980364
H326	H	0.670088	-0.031181	1.480364
O327	O	0.021494	0.010534	0.346985
O328	O	0.521494	0.510534	0.846985
C329	C	-0.034819	0.010505	0.325360
C330	C	0.465181	0.510505	0.825360
C331	C	-0.025081	0.010553	0.364214
C332	C	0.474919	0.510553	0.864214
H333	H	-0.072477	0.010530	0.339272
H334	H	0.427523	0.510530	0.839272
H335	H	-0.008615	-0.022483	0.315016
H336	H	0.491385	0.477517	0.815016
H337	H	-0.030579	0.043470	0.293012
H338	H	0.469421	0.543470	0.793012
H339	H	-0.029327	-0.022390	0.396587
H340	H	0.470673	0.477610	0.896587
H341	H	-0.051283	0.043562	0.374518
H342	H	0.448717	0.543562	0.874518
H343	H	-0.036687	-0.516580	0.939532
H344	H	0.463313	-0.016580	1.439532
H345	H	0.138179	-0.603691	0.939539
H346	H	0.638179	-0.103691	1.439539
H347	H	0.077150	-0.603753	0.527142
H348	H	0.577150	-0.103753	1.027142
O349	O	0.077036	-0.343019	0.619941
O350	O	0.577036	0.156981	1.119941
C351	C	0.012819	-0.336677	0.604841
C352	C	0.512819	0.163323	1.104841
C353	C	0.048315	-0.368019	0.632084
C354	C	0.548315	0.131981	1.132084
H355	H	-0.010417	-0.356873	0.614657
H356	H	0.489583	0.143127	1.114657
H357	H	0.032954	-0.326916	0.565123
H358	H	0.532954	0.173084	1.065123
H359	H	-0.010378	-0.303018	0.614602
H360	H	0.489622	0.196982	1.114602
H361	H	0.071522	-0.401697	0.622364
H362	H	0.571522	0.098303	1.122364
H363	H	0.028152	-0.377741	0.671796
H364	H	0.528152	0.122259	1.171796
H365	H	-0.064060	-0.462687	0.527292
H366	H	0.435940	0.037313	1.027292
H367	H	0.023152	-0.375173	0.352387
H368	H	0.523152	0.124827	0.852387
O369	O	0.550470	-0.582433	0.560414
O370	O	1.050470	-0.082433	1.060414
C371	C	0.550527	-0.604452	0.638450
C372	C	1.050527	-0.104452	1.138450
C373	C	0.550445	-0.565398	0.589940
C374	C	1.050445	-0.065398	1.089940
H375	H	0.550496	-0.590691	0.662338
H376	H	1.050496	-0.090691	1.162338
H377	H	0.583528	-0.636749	0.633471
H378	H	1.083528	-0.136749	1.133471
H379	H	0.517580	-0.614821	0.655464
H380	H	1.017580	-0.114821	1.155464
H381	H	0.583369	-0.554989	0.572900
H382	H	1.083369	-0.054989	1.072900
H383	H	0.517422	-0.533127	0.594950
H384	H	1.017422	-0.033127	1.094950
H385	H	0.199204	-0.450885	0.713670
H386	H	0.699204	0.049115	1.213670
O387	O	0.550219	-0.582039	0.410832
O388	O	1.050219	-0.082039	0.910832
C389	C	0.509401	-0.604671	0.389993
C390	C	1.009401	-0.104671	0.889993
C391	C	0.509418	-0.565770	0.399679
C392	C	1.009418	-0.065770	0.899679
H393	H	0.476422	-0.591528	0.380964
H394	H	0.976422	-0.091528	0.880964
H395	H	0.509425	-0.637775	0.422840
H396	H	1.009425	-0.137775	0.922840
H397	H	0.542369	-0.613499	0.358968
H398	H	1.042369	-0.113499	0.858968
H399	H	0.476456	-0.556901	0.430688
H400	H	0.976456	-0.056901	0.930688
H401	H	0.509419	-0.532690	0.366809
H402	H	1.009419	-0.032690	0.866809
O403	O	0.236785	-0.422836	0.619845
O404	O	0.736785	0.077164	1.119845
C405	C	0.311072	-0.485701	0.604595
C406	C	0.811072	0.014299	1.104595
C407	C	0.257436	-0.472509	0.631888
C408	C	0.757436	0.027491	1.131888
H409	H	0.327783	-0.525861	0.614314
H410	H	0.827783	-0.025861	1.114314
H411	H	0.327831	-0.472046	0.614340
H412	H	0.827831	0.027954	1.114340
H413	H	0.317304	-0.468955	0.564895
H414	H	0.817304	0.031045	1.064895
H415	H	0.251161	-0.489250	0.671594
H416	H	0.751161	0.010750	1.171594
H417	H	0.240703	-0.486155	0.622103
H418	H	0.740703	0.013845	1.122103
O419	O	0.077070	-0.342889	0.586101
O420	O	0.577070	0.157111	1.086101
C421	C	0.048701	-0.267382	0.594941
C422	C	0.548701	0.232618	1.094941
C423	C	0.084127	-0.298758	0.563572
C424	C	0.584127	0.201242	1.063572
H425	H	0.054388	-0.231692	0.576734
H426	H	0.554388	0.268308	1.076734
H427	H	0.054450	-0.285526	0.630603
H428	H	0.554450	0.214474	1.130603
H429	H	0.011012	-0.261693	0.600697
H430	H	0.511012	0.238307	1.100697
H431	H	0.121830	-0.304457	0.557778
H432	H	0.621830	0.195543	1.057778
H433	H	0.078337	-0.280600	0.527930
H434	H	0.578337	0.219400	1.027930
H435	H	-0.134026	-0.631339	0.407719
H436	H	0.365974	-0.131339	0.907719
O437	O	0.550020	-0.396030	0.318232
O438	O	1.050020	0.103970	0.818232
C439	C	0.509083	-0.345937	0.261252
C440	C	1.009083	0.154063	0.761252
C441	C	0.509181	-0.384999	0.309755
C442	C	1.009181	0.115001	0.809755
H443	H	0.476064	-0.336999	0.254387
H444	H	0.976064	0.163001	0.754387
H445	H	0.542016	-0.358930	0.232273
H446	H	1.042016	0.141070	0.732273
H447	H	0.509083	-0.312936	0.261204
H448	H	1.009083	0.187064	0.761204
H449	H	0.509165	-0.418012	0.309849
H450	H	1.009165	0.081988	0.809849
H451	H	0.476251	-0.371967	0.338712
H452	H	0.976251	0.128033	0.838712
O453	O	0.044403	-0.375605	0.553671
O454	O	0.544403	0.124395	1.053671
C455	C	-0.029840	-0.379403	0.616594
C456	C	0.470160	0.120597	1.116594
C457	C	0.023803	-0.392536	0.603350
C458	C	0.523803	0.107464	1.103350
H459	H	-0.046513	-0.393077	0.656760
H460	H	0.453487	0.106923	1.156760
H461	H	-0.036156	-0.396132	0.599921
H462	H	0.463844	0.103868	1.099921
H463	H	-0.046571	-0.339242	0.602902
H464	H	0.453429	0.160758	1.102902
H465	H	0.040569	-0.432689	0.617039
H466	H	0.540569	0.067311	1.117039
H467	H	0.030085	-0.375773	0.620016
H468	H	0.530085	0.124227	1.120016
H469	H	0.550247	-0.401977	0.466412
H470	H	1.050247	0.098023	0.966412
O471	O	-0.071000	0.010592	0.532867
O472	O	0.429000	0.510592	1.032867
C473	C	-0.149043	0.010553	0.554936
C474	C	0.350957	0.510553	1.054936
C475	C	-0.100524	0.010539	0.515888
C476	C	0.399476	0.510539	1.015888
H477	H	-0.172923	0.010501	0.541227
H478	H	0.327077	0.510501	1.041227
H479	H	-0.166082	0.043543	0.565255
H480	H	0.333918	0.543543	1.065255
H481	H	-0.144032	-0.022410	0.587251
H482	H	0.355968	0.477590	1.087251
H483	H	-0.105494	0.043480	0.483548
H484	H	0.394506	0.543480	0.983548
H485	H	-0.083502	-0.022472	0.505609
H486	H	0.416498	0.477528	1.005609
H487	H	0.229008	-0.420842	0.508101
H488	H	0.729008	0.079158	1.008101
O489	O	0.204076	-0.455251	0.473592
O490	O	0.704076	0.044749	0.973592
C491	C	0.268223	-0.461556	0.400579
C492	C	0.768223	0.038444	0.900579
C493	C	0.232765	-0.430233	0.431996
C494	C	0.732765	0.069767	0.931996
H495	H	0.291434	-0.441345	0.366946
H496	H	0.791434	0.058655	0.866946
H497	H	0.248058	-0.471314	0.390787
H498	H	0.748058	0.028686	0.890787
H499	H	0.291451	-0.495216	0.420768
H500	H	0.791451	0.004784	0.920768
H501	H	0.209528	-0.396553	0.411836
H502	H	0.709528	0.103447	0.911836
H503	H	0.252959	-0.420513	0.441790
H504	H	0.752959	0.079487	0.941790
O505	O	0.230655	-0.461987	0.576272
O506	O	0.730655	0.038013	1.076272
C507	C	0.235920	-0.543333	0.604899
C508	C	0.735920	-0.043333	1.104899
C509	C	0.263158	-0.508259	0.578972
C510	C	0.763158	-0.008259	1.078972
H511	H	0.262187	-0.580753	0.607099
H512	H	0.762187	-0.080753	1.107099
H513	H	0.212689	-0.533415	0.584642
H514	H	0.712689	-0.033415	1.084642
H515	H	0.212715	-0.541798	0.642184
H516	H	0.712715	-0.041798	1.142184
H517	H	0.286389	-0.509776	0.541687
H518	H	0.786389	-0.009776	1.041687
H519	H	0.286360	-0.518189	0.599265
H520	H	0.786360	-0.018189	1.099265
H521	H	0.324395	-0.341295	0.487026
H522	H	0.824395	0.158705	0.987026
O523	O	0.328377	-0.494482	0.543564
O524	O	0.828377	0.005518	1.043564
C525	C	0.384385	-0.554478	0.506999
C526	C	0.884385	-0.054478	1.006999
C527	C	0.357082	-0.501254	0.499306
C528	C	0.857082	-0.001254	0.999306
H529	H	0.407607	-0.559969	0.471223
H530	H	0.907607	-0.059969	0.971223
H531	H	0.358177	-0.574438	0.526671
H532	H	0.858177	-0.074438	1.026671
H533	H	0.407609	-0.568428	0.528804
H534	H	0.907609	-0.068428	1.028804
H535	H	0.333857	-0.487261	0.477490
H536	H	0.833857	0.012739	0.977490
H537	H	0.383315	-0.481326	0.479655
H538	H	0.883315	0.018674	0.979655
H539	H	0.192214	-0.305222	0.471410
H540	H	0.692214	0.194778	0.971410
O541	O	0.230577	-0.303701	0.515886
O542	O	0.730577	0.196299	1.015886
C543	C	0.215325	-0.224832	0.459171
C544	C	0.715325	0.275168	0.959171
C545	C	0.242598	-0.278069	0.466924
C546	C	0.742598	0.221931	0.966924
H547	H	0.225027	-0.204095	0.419587
H548	H	0.725027	0.295905	0.919587
H549	H	0.225104	-0.212484	0.477111
H550	H	0.725104	0.287516	0.977111
H551	H	0.175623	-0.218509	0.475082
H552	H	0.675623	0.281491	0.975082
H553	H	0.282306	-0.284432	0.451012
H554	H	0.782306	0.215568	0.951012
H555	H	0.232780	-0.290391	0.448995
H556	H	0.732780	0.209609	0.948995
O557	O	0.164110	-0.211413	0.433773
O558	O	0.664110	0.288587	0.933773
C559	C	0.205935	-0.216619	0.355172
C560	C	0.705935	0.283381	0.855172
C561	C	0.192780	-0.243892	0.408815
C562	C	0.692780	0.256108	0.908815
H563	H	0.229109	-0.242866	0.334977
H564	H	0.729109	0.257134	0.834977
H565	H	0.226150	-0.193403	0.345368
H566	H	0.726150	0.306597	0.845368
H567	H	0.172253	-0.193392	0.345456
H568	H	0.672253	0.306608	0.845456
H569	H	0.226437	-0.267145	0.418569
H570	H	0.726437	0.232855	0.918569
H571	H	0.172547	-0.267078	0.418589
H572	H	0.672547	0.232922	0.918589
H573	H	-0.061536	-0.491273	0.165398
H574	H	0.438464	0.008727	0.665398
O575	O	0.084332	-0.211463	0.593539
O576	O	0.584332	0.288537	1.093539
C577	C	0.046012	-0.216721	0.675624
C578	C	0.546012	0.283279	1.175624
C579	C	0.077363	-0.243965	0.640133
C580	C	0.577363	0.256035	1.140133
H581	H	0.040376	-0.242987	0.713304
H582	H	0.540376	0.257013	1.213304
H583	H	0.010299	-0.193524	0.669979
H584	H	0.510299	0.306476	1.169979
H585	H	0.064182	-0.193477	0.669861
H586	H	0.564182	0.306523	1.169861
H587	H	0.059235	-0.267234	0.645875
H588	H	0.559235	0.232766	1.145875
H589	H	0.113074	-0.267132	0.645788
H590	H	0.613074	0.232868	1.145788
H591	H	-0.091654	-0.521212	0.255368
H592	H	0.408346	-0.021212	0.755368
O593	O	0.016307	-0.643370	0.161640
O594	O	0.516307	-0.143370	0.661640
C595	C	0.022634	-0.707507	0.146425
C596	C	0.522634	-0.207507	0.646425
C597	C	-0.008733	-0.672000	0.173652
C598	C	0.491267	-0.172000	0.673652
H599	H	0.002399	-0.730656	0.156120
H600	H	0.502399	-0.230656	0.656120
H601	H	0.056251	-0.730793	0.156253
H602	H	0.556251	-0.230793	0.656253
H603	H	0.032465	-0.687330	0.106715
H604	H	0.532465	-0.187330	0.606715
H605	H	-0.018600	-0.692138	0.213369
H606	H	0.481400	-0.192138	0.713369
H607	H	-0.042327	-0.648715	0.163785
H608	H	0.457673	-0.148715	0.663785
O609	O	-0.096195	-0.516082	0.293091
O610	O	0.403805	-0.016082	0.793091
C611	C	-0.134507	-0.433988	0.254581
C612	C	0.365493	0.066012	0.754581
C613	C	-0.103197	-0.469489	0.286009
C614	C	0.396803	0.030511	0.786009
H615	H	-0.140170	-0.396310	0.248837
H616	H	0.359830	0.103690	0.748837
H617	H	-0.170211	-0.439627	0.272686
H618	H	0.329789	0.060373	0.772686
H619	H	-0.116290	-0.439749	0.218922
H620	H	0.383710	0.060251	0.718922
H621	H	-0.121373	-0.463749	0.321673
H622	H	0.378627	0.036251	0.821673
H623	H	-0.067495	-0.463841	0.267866
H624	H	0.432505	0.036159	0.767866
H625	H	-0.018232	-0.668197	0.255455
H626	H	0.481768	-0.168197	0.755455
O627	O	-0.063619	-0.483620	0.325834
O628	O	0.436381	0.016380	0.825834
C629	C	-0.056075	-0.422289	0.333388
C630	C	0.443925	0.077711	0.833388
C631	C	-0.042936	-0.475923	0.346555
C632	C	0.457064	0.024077	0.846555
H633	H	-0.039350	-0.416049	0.350127
H634	H	0.460650	0.083951	0.850127
H635	H	-0.096230	-0.405509	0.347028
H636	H	0.403770	0.094491	0.847028
H637	H	-0.042343	-0.405602	0.293228
H638	H	0.457657	0.094398	0.793228
H639	H	-0.056636	-0.492651	0.386710
H640	H	0.443364	0.007349	0.886710
H641	H	-0.002779	-0.492668	0.332881
H642	H	0.497221	0.007332	0.832881
O643	O	0.015980	-0.643371	0.405762
O644	O	0.515980	-0.143371	0.905762
C645	C	0.054337	-0.725467	0.444223
C646	C	0.554337	-0.225467	0.944223
C647	C	0.023047	-0.689963	0.412776
C648	C	0.523047	-0.189963	0.912776
H649	H	0.060069	-0.763144	0.449895
H650	H	0.560069	-0.263144	0.949895
H651	H	0.036127	-0.719770	0.479914
H652	H	0.536127	-0.219770	0.979914
H653	H	0.090010	-0.719765	0.426111
H654	H	0.590010	-0.219765	0.926111
H655	H	-0.012631	-0.695644	0.430846
H656	H	0.487369	-0.195644	0.930846
H657	H	0.041294	-0.695668	0.377086
H658	H	0.541294	-0.195668	0.877086
H659	H	-0.018411	-0.668189	0.371171
H660	H	0.481589	-0.168189	0.871171
O661	O	0.022788	-0.669796	0.302935
O662	O	0.522788	-0.169796	0.802935
C663	C	0.091583	-0.654677	0.236158
C664	C	0.591583	-0.154677	0.736158
C665	C	0.056495	-0.681891	0.262038
C666	C	0.556495	-0.181891	0.762038
H667	H	0.118837	-0.664438	0.203082
H668	H	0.618837	-0.164438	0.703082
H669	H	0.110391	-0.664452	0.260670
H670	H	0.610391	-0.164452	0.760670
H671	H	0.071471	-0.614963	0.225546
H672	H	0.571471	-0.114963	0.725546
H673	H	0.076570	-0.721611	0.272653
H674	H	0.576570	-0.221611	0.772653
H675	H	0.037686	-0.672076	0.237510
H676	H	0.537686	-0.172076	0.737510
O677	O	0.055253	-0.767577	0.335589
O678	O	0.555253	-0.267577	0.835589
C679	C	0.125724	-0.823612	0.300918
C680	C	0.625724	-0.323612	0.800918
C681	C	0.072513	-0.796260	0.308579
C682	C	0.572513	-0.296260	0.808579
H683	H	0.139697	-0.846801	0.279072
H684	H	0.639697	-0.346801	0.779072
H685	H	0.131215	-0.846862	0.336694
H686	H	0.631215	-0.346862	0.836694
H687	H	0.145662	-0.797390	0.281289
H688	H	0.645662	-0.297390	0.781289
H689	H	0.052541	-0.822448	0.328192
H690	H	0.552541	-0.322448	0.828192
H691	H	0.067058	-0.773003	0.272788
H692	H	0.567058	-0.273003	0.772788
H693	H	-0.097938	-0.763465	0.391989
H694	H	0.402062	-0.263465	0.891989
O695	O	-0.135476	-0.669657	0.363069
O696	O	0.364524	-0.169657	0.863069
C697	C	-0.213328	-0.674814	0.395036
C698	C	0.286672	-0.174814	0.895036
C699	C	-0.160114	-0.702114	0.387401
C700	C	0.339886	-0.202114	0.887401
H701	H	-0.233264	-0.701043	0.414718
H702	H	0.266736	-0.201043	0.914718
H703	H	-0.218808	-0.651618	0.359250
H704	H	0.281192	-0.151618	0.859250
H705	H	-0.227310	-0.651563	0.416823
H706	H	0.272690	-0.151563	0.916823
H707	H	-0.146096	-0.725390	0.365631
H708	H	0.353904	-0.225390	0.865631
H709	H	-0.154665	-0.725279	0.423203
H710	H	0.345335	-0.225279	0.923203
H711	H	-0.223999	-0.601245	0.437568
H712	H	0.276001	-0.101245	0.937568
O713	O	-0.227608	-0.523381	0.285424
O714	O	0.272392	-0.023381	0.785424
C715	C	-0.242715	-0.517046	0.221209
C716	C	0.257285	-0.017046	0.721209
C717	C	-0.215522	-0.548414	0.256749
C718	C	0.284478	-0.048414	0.756749
H719	H	-0.232961	-0.537277	0.198023
H720	H	0.267039	-0.037277	0.698023
H721	H	-0.232917	-0.483418	0.197965
H722	H	0.267083	0.016582	0.697965
H723	H	-0.282430	-0.507231	0.241356
H724	H	0.217570	-0.007231	0.741356
H725	H	-0.175802	-0.558265	0.236641
H726	H	0.324198	-0.058265	0.736641
H727	H	-0.225360	-0.582020	0.279992
H728	H	0.274640	-0.082020	0.779992
H729	H	0.118851	-0.305270	0.618371
H730	H	0.618851	0.194730	1.118371
H731	H	-0.133793	-0.557888	0.260690
H732	H	0.366207	-0.057888	0.760690
