data_functionalizedCrystal
_audit_creation_method	'MofGen! by Chris Wilmer'
_symmetry_space_group_name_H-M	'P1'
_symmetry_Int_Tables_number	1
_symmetry_cell_setting	triclinic
loop_
_symmetry_equiv_pos_as_xyz
  x,y,z
_cell_length_a	12.837942
_cell_length_b	17.699083
_cell_length_c	11.892283
_cell_angle_alpha	93.888411
_cell_angle_beta	94.307221
_cell_angle_gamma	90.944022
loop_
_atom_site_label
_atom_site_type_symbol
_atom_site_fract_x
_atom_site_fract_y
_atom_site_fract_z
O1	O	0.137686	-1.009351	0.093842
O2	O	0.154741	-0.790224	0.093878
O3	O	-0.004677	-0.894929	0.093854
O4	O	0.297104	-0.904646	0.093866
O5	O	-0.017948	-0.903640	-0.094150
O6	O	0.141470	-0.798935	-0.094126
O7	O	0.124416	-1.018062	-0.094163
Zn8	Zn	0.130836	-0.909882	-0.123994
Zn9	Zn	0.148320	-0.898404	0.123710
O10	O	0.283834	-0.913357	-0.094138
C11	C	0.147495	-0.766337	-0.000119
C12	C	0.145663	-0.682184	-0.000105
C13	C	-0.049925	-0.896002	-0.000147
C14	C	-0.164977	-0.886211	-0.000144
N15	N	0.118903	-0.917720	-0.293045
C16	C	-0.406232	-1.003915	-0.000140
C17	C	-0.514334	-0.994718	-0.000136
C18	C	-0.489286	-0.858623	-0.000125
C19	C	-0.381183	-0.867819	-0.000129
C20	C	-0.339661	-0.940467	-0.000138
C21	C	-0.231557	-0.949663	-0.000149
C22	C	-0.206510	-0.813567	-0.000130
C23	C	-0.314613	-0.804371	-0.000127
C24	C	0.329082	-0.912284	-0.000135
C25	C	0.444134	-0.922075	-0.000131
C26	C	0.131662	-1.041949	-0.000163
C27	C	0.133494	-1.126102	-0.000169
C28	C	0.239237	-0.640437	-0.000102
C29	C	0.237508	-0.561367	-0.000116
C30	C	0.142203	-0.524046	-0.000126
C31	C	0.048621	-0.565798	-0.000133
C32	C	0.050352	-0.644867	-0.000127
C33	C	0.041642	-0.246924	-0.000161
C34	C	0.039919	-0.167850	-0.000165
C35	C	0.228798	-0.163425	-0.000151
C36	C	0.230528	-0.242493	-0.000145
C37	C	0.136947	-0.284239	-0.000157
C38	C	0.138823	-0.369975	-0.000144
C39	C	0.140326	-0.438310	-0.000132
C40	C	0.035814	-0.972340	-0.470562
C41	C	0.044164	-0.966845	-0.352222
C42	C	0.185299	-0.874089	-0.352217
C43	C	0.176949	-0.879585	-0.470557
C44	C	0.102203	-0.928711	-0.529725
C45	C	0.093849	-0.934202	-0.648067
C46	C	0.234989	-0.841451	-0.648060
C47	C	0.243339	-0.835956	-0.529720
N48	N	0.160245	-0.890571	0.292761
H49	H	-0.197752	-1.008817	-0.000161
F50	F	0.340676	-0.680150	-0.000083
H51	H	0.304198	-0.795960	-0.481531
H52	H	0.304997	-0.129426	-0.000147
F53	F	-0.585181	-1.062248	-0.000135
F54	F	-0.533494	-0.781310	-0.000088
F55	F	-0.026495	-1.013283	-0.289260
H56	H	-0.028978	-0.535405	-0.000158
F57	F	-0.049244	-0.689297	-0.000134
H58	H	-0.034558	-0.280904	-0.000173
F59	F	0.014296	-0.986483	-0.711037
F60	F	-0.362039	-1.081232	-0.000173
H61	H	0.289045	-0.805923	-0.696244
F62	F	-0.043745	-1.024616	-0.533534
F63	F	-0.061522	-0.128131	-0.000176
H64	H	-0.348435	-0.745223	-0.000115
F65	F	0.337103	-0.516941	-0.000108
F66	F	-0.135653	-0.746038	-0.000139
F67	F	0.331965	-0.282209	-0.000127
H68	H	0.246162	-0.834098	-0.304027
