data_functionalizedCrystal
_audit_creation_method	'MofGen! by Chris Wilmer'
_symmetry_space_group_name_H-M	'P1'
_symmetry_Int_Tables_number	1
_symmetry_cell_setting	triclinic
loop_
_symmetry_equiv_pos_as_xyz
  x,y,z
_cell_length_a	21.395362
_cell_length_b	16.959453
_cell_length_c	21.395355
_cell_angle_alpha	89.982675
_cell_angle_beta	89.956060
_cell_angle_gamma	90.035866
loop_
_atom_site_label
_atom_site_type_symbol
_atom_site_fract_x
_atom_site_fract_y
_atom_site_fract_z
Zn1	Zn	0.957906	-0.314438	-0.354591
Zn2	Zn	1.291239	0.018895	-0.021257
Zn3	Zn	1.624573	0.352229	0.312076
Zn4	Zn	0.957828	-0.446599	-0.249816
Zn5	Zn	1.291162	-0.113266	0.083518
Zn6	Zn	1.624495	0.220068	0.416851
Zn7	Zn	0.853121	-0.314475	-0.249792
Zn8	Zn	1.186454	0.018858	0.083541
Zn9	Zn	1.519788	0.352192	0.416875
Zn10	Zn	0.853110	-0.446615	-0.354520
Zn11	Zn	1.186443	-0.113282	-0.021187
Zn12	Zn	1.519777	0.220052	0.312146
O13	O	0.905491	-0.380532	-0.302180
O14	O	1.238825	-0.047198	0.031154
O15	O	1.572158	0.286135	0.364487
O16	O	1.045574	-0.331947	-0.340731
O17	O	1.378907	0.001386	-0.007398
O18	O	1.712240	0.334719	0.325935
O19	O	0.943911	-0.429081	-0.162134
O20	O	1.277244	-0.095748	0.171199
O21	O	1.610577	0.237586	0.504532
O22	O	0.867058	-0.203859	-0.263714
O23	O	1.200392	0.129474	0.069620
O24	O	1.533725	0.462808	0.402953
O25	O	1.045516	-0.429045	-0.263754
O26	O	1.378850	-0.095712	0.069580
O27	O	1.712183	0.237621	0.402913
O28	O	0.944043	-0.203832	-0.340709
O29	O	1.277377	0.129501	-0.007375
O30	O	1.610710	0.462835	0.325958
O31	O	0.866983	-0.332010	-0.162117
O32	O	1.200316	0.001323	0.171216
O33	O	1.533649	0.334657	0.504549
O34	O	0.765442	-0.332026	-0.263645
O35	O	1.098775	0.001308	0.069688
O36	O	1.432108	0.334641	0.403022
O37	O	0.867039	-0.429073	-0.442208
O38	O	1.200373	-0.095740	-0.108874
O39	O	1.533706	0.237594	0.224459
O40	O	0.765433	-0.429109	-0.340588
O41	O	1.098767	-0.095775	-0.007255
O42	O	1.432100	0.237558	0.326078
O43	O	0.944033	-0.331963	-0.442259
O44	O	1.277366	0.001370	-0.108926
O45	O	1.610699	0.334704	0.224407
O46	O	0.943900	-0.557212	-0.263685
O47	O	1.277233	-0.223879	0.069648
O48	O	1.610566	0.109455	0.402982
O49	O	0.866964	-0.557224	-0.340611
O50	O	1.200297	-0.223891	-0.007278
O51	O	1.533630	0.109443	0.326055
C52	C	0.742704	-0.380574	-0.302107
C53	C	1.076037	-0.047240	0.031226
C54	C	1.409370	0.286093	0.364560
C55	C	0.673062	-0.380610	-0.302091
C56	C	1.006396	-0.047277	0.031243
C57	C	1.339729	0.286056	0.364576
C58	C	0.640361	-0.431228	-0.342095
C59	C	0.973695	-0.097895	-0.008762
C60	C	1.307028	0.235438	0.324572
C61	C	0.574926	-0.431209	-0.342123
C62	C	0.908259	-0.097876	-0.008790
C63	C	1.241593	0.235458	0.324544
C64	C	0.542194	-0.380580	-0.302135
C65	C	0.875527	-0.047247	0.031198
C66	C	1.208861	0.286087	0.364531
C67	C	0.574903	-0.329952	-0.262128
C68	C	0.908236	0.003381	0.071205
C69	C	1.241570	0.336715	0.404538
C70	C	0.640337	-0.329967	-0.262106
C71	C	0.973670	0.003366	0.071227
C72	C	1.307004	0.336699	0.404561
C73	C	0.438468	-0.374212	-0.245730
C74	C	0.771802	-0.040879	0.087603
C75	C	1.105135	0.292454	0.420937
C76	C	0.373035	-0.374203	-0.245751
C77	C	0.706369	-0.040869	0.087582
C78	C	1.039702	0.292464	0.420915
C79	C	0.340373	-0.380528	-0.302205
C80	C	0.673707	-0.047195	0.031129
C81	C	1.007040	0.286138	0.364462
C82	C	0.373152	-0.386881	-0.358638
C83	C	0.706486	-0.053547	-0.025305
C84	C	1.039819	0.279786	0.308028
C85	C	0.438586	-0.386896	-0.358616
C86	C	0.771920	-0.053562	-0.025283
C87	C	1.105253	0.279771	0.308051
C88	C	0.471242	-0.380558	-0.302155
C89	C	0.804575	-0.047224	0.031178
C90	C	1.137908	0.286109	0.364511
C91	C	0.236720	-0.431128	-0.342243
C92	C	0.570053	-0.097795	-0.008909
C93	C	0.903387	0.235538	0.324424
C94	C	0.171283	-0.431103	-0.342272
C95	C	0.504617	-0.097770	-0.008938
C96	C	0.837950	0.235563	0.324395
C97	C	0.171262	-0.329850	-0.262271
C98	C	0.504595	0.003483	0.071062
C99	C	0.837928	0.336816	0.404396
C100	C	0.236697	-0.329871	-0.262248
C101	C	0.570030	0.003462	0.071086
C102	C	0.903364	0.336795	0.404419
C103	C	0.269422	-0.380514	-0.302233
C104	C	0.602755	-0.047181	0.031101
C105	C	0.936089	0.286152	0.364434
C106	C	0.905439	-0.585898	-0.302157
C107	C	1.238772	-0.252565	0.031177
C108	C	1.572106	0.080769	0.364510
C109	C	0.905474	-0.673755	-0.302168
C110	C	1.238807	-0.340421	0.031166
C111	C	1.572141	-0.007088	0.364499
C112	C	0.945629	-1.045158	-0.342347
C113	C	1.278962	-0.711824	-0.009013
C114	C	1.612295	-0.378491	0.324320
C115	C	0.865529	-1.045303	-0.262106
C116	C	1.198862	-0.711969	0.071228
C117	C	1.532196	-0.378636	0.404561
C118	C	0.865506	-0.962757	-0.262091
C119	C	1.198839	-0.629423	0.071242
C120	C	1.532172	-0.296090	0.404575
C121	C	0.905544	-0.921408	-0.302206
C122	C	1.238877	-0.588074	0.031127
C123	C	1.572211	-0.254741	0.364461
C124	C	0.945605	-0.962604	-0.342335
C125	C	1.278939	-0.629271	-0.009002
C126	C	1.612272	-0.295937	0.324332
C127	C	0.825440	-0.921554	-0.221968
C128	C	1.158774	-0.588221	0.111366
C129	C	1.492107	-0.254887	0.444699
C130	C	0.825415	-0.839003	-0.221952
C131	C	1.158748	-0.505670	0.111381
C132	C	1.492082	-0.172336	0.444715
C133	C	0.865457	-0.797652	-0.262064
C134	C	1.198790	-0.464319	0.071269
C135	C	1.532124	-0.130986	0.404603
C136	C	0.905521	-0.838854	-0.302194
C137	C	1.238854	-0.505521	0.031139
C138	C	1.572187	-0.172187	0.364473
C139	C	0.945559	-0.797505	-0.342309
C140	C	1.278892	-0.464171	-0.008975
C141	C	1.612226	-0.130838	0.324358
C142	C	0.985626	-0.838705	-0.382436
C143	C	1.318960	-0.505371	-0.049103
C144	C	1.652293	-0.172038	0.284231
C145	C	0.985647	-0.921253	-0.382447
C146	C	1.318981	-0.587920	-0.049113
C147	C	1.652314	-0.254587	0.284220
C148	C	0.865436	-0.715104	-0.262053
C149	C	1.198769	-0.381771	0.071280
C150	C	1.532102	-0.048437	0.404613
C151	C	0.945536	-0.714951	-0.342297
C152	C	1.278869	-0.381618	-0.008963
C153	C	1.612202	-0.048284	0.324370
C154	C	1.068915	-0.380490	-0.302253
C155	C	1.402248	-0.047157	0.031080
C156	C	1.735581	0.286176	0.364414
C157	C	1.138556	-0.380473	-0.302284
C158	C	1.471889	-0.047139	0.031049
C159	C	1.805223	0.286194	0.364382
C160	C	0.905543	-0.380516	-0.465603
C161	C	1.238877	-0.047182	-0.132270
C162	C	1.572210	0.286151	0.201064
C163	C	0.905566	-0.380509	-0.535244
C164	C	1.238899	-0.047176	-0.201911
C165	C	1.572232	0.286158	0.131422
C166	C	0.905561	-0.174363	-0.302216
C167	C	1.238894	0.158970	0.031117
C168	C	1.572228	0.492303	0.364450
C169	C	0.905590	-0.086507	-0.302232
C170	C	1.238924	0.246826	0.031101
C171	C	1.572257	0.580160	0.364435
C172	C	0.945654	-0.329942	-0.567985
C173	C	1.278988	0.003392	-0.234652
C174	C	1.612321	0.336725	0.098681
C175	C	0.945653	-0.329908	-0.633421
C176	C	1.278987	0.003426	-0.300088
C177	C	1.612320	0.336759	0.033246
C178	C	0.905570	-0.380455	-0.666113
C179	C	1.238904	-0.047122	-0.332779
C180	C	1.572237	0.286212	0.000554
C181	C	0.865474	-0.431026	-0.633364
C182	C	1.198807	-0.097693	-0.300030
C183	C	1.532141	0.235641	0.033303
C184	C	0.865471	-0.431053	-0.567929
C185	C	1.198805	-0.097719	-0.234596
C186	C	1.532138	0.235614	0.098737
C187	C	0.900605	-0.451628	-0.769778
C188	C	1.233938	-0.118295	-0.436444
C189	C	1.567272	0.215039	-0.103111
C190	C	0.900612	-0.451602	-0.835211
C191	C	1.233945	-0.118269	-0.501877
C192	C	1.567278	0.215064	-0.168544
C193	C	0.905574	-0.380372	-0.867934
C194	C	1.238908	-0.047038	-0.534600
C195	C	1.572241	0.286295	-0.201267
C196	C	0.910543	-0.309164	-0.835215
C197	C	1.243876	0.024169	-0.501882
C198	C	1.577210	0.357503	-0.168549
C199	C	0.910541	-0.309191	-0.769781
C200	C	1.243874	0.024142	-0.436448
C201	C	1.577207	0.357476	-0.103114
C202	C	0.905568	-0.380431	-0.737065
C203	C	1.238902	-0.047098	-0.403732
C204	C	1.572235	0.286236	-0.070398
C205	C	0.945664	-0.329763	-0.971627
C206	C	1.278998	0.003570	-0.638294
C207	C	1.612331	0.336904	-0.304961
C208	C	0.945659	-0.329728	-1.037064
C209	C	1.278992	0.003606	-0.703731
C210	C	1.612326	0.336939	-0.370397
C211	C	0.865483	-0.430853	-1.037005
C212	C	1.198816	-0.097520	-0.703672
C213	C	1.532149	0.235814	-0.370339
C214	C	0.865485	-0.430881	-0.971570
C215	C	1.198818	-0.097548	-0.638237
C216	C	1.532151	0.235785	-0.304903
C217	C	0.905579	-0.380337	-0.938885
C218	C	1.238912	-0.047004	-0.605552
C219	C	1.572245	0.286329	-0.272218
C220	C	0.905476	-0.380491	-0.139392
C221	C	1.238809	-0.047157	0.193941
C222	C	1.572142	0.286176	0.527275
C223	C	0.905575	-0.380275	-0.069751
C224	C	1.238908	-0.046941	0.263582
C225	C	1.572241	0.286392	0.596915
H226	H	0.263366	-0.472361	-0.374804
H227	H	0.596700	-0.139027	-0.041471
H228	H	0.930033	0.194306	0.291863
Br229	Br	0.771037	-0.783096	-0.167498
Br230	Br	1.104370	-0.449762	0.165836
Br231	Br	1.437703	-0.116429	0.499169
H232	H	0.978142	-0.681290	-0.374961
H233	H	1.311476	-0.347956	-0.041627
H234	H	1.644809	-0.014623	0.291706
H235	H	0.832844	-0.472063	-0.944912
H236	H	1.166177	-0.138730	-0.611579
H237	H	1.499510	0.194603	-0.278245
H238	H	0.914585	-0.251161	-0.861857
H239	H	1.247918	0.082172	-0.528523
H240	H	1.581252	0.415506	-0.195190
Br241	Br	0.126902	-0.499799	-0.396574
Br242	Br	0.460235	-0.166465	-0.063240
Br243	Br	0.793568	0.166868	0.270093
Br244	Br	0.811061	-0.659192	-0.207602
Br245	Br	1.144394	-0.325859	0.125731
Br246	Br	1.477728	0.007474	0.459064
H247	H	0.144612	-0.288624	-0.229715
H248	H	0.477945	0.044710	0.103618
H249	H	0.811279	0.378043	0.436951
Br250	Br	0.811183	-1.101420	-0.207678
Br251	Br	1.144516	-0.768086	0.125655
Br252	Br	1.477849	-0.434753	0.458988
Br253	Br	0.893877	-0.548240	-0.879607
Br254	Br	1.227211	-0.214907	-0.546274
Br255	Br	1.560544	0.118427	-0.212941
Br256	Br	1.039954	-0.782578	-0.436883
Br257	Br	1.373287	-0.449245	-0.103550
Br258	Br	1.706621	-0.115912	0.229784
Br259	Br	1.000080	-0.261106	-1.081500
Br260	Br	1.333413	0.072227	-0.748167
Br261	Br	1.666746	0.405560	-0.414833
Br262	Br	1.000074	-0.261167	-0.927265
Br263	Br	1.333407	0.072166	-0.593932
Br264	Br	1.666741	0.405499	-0.260598
H265	H	1.018268	-0.954806	-0.415117
H266	H	1.351601	-0.621472	-0.081783
H267	H	1.684934	-0.288139	0.251550
Br268	Br	1.000065	-0.261344	-0.523630
Br269	Br	1.333398	0.071990	-0.190296
Br270	Br	1.666731	0.405323	0.143037
Br271	Br	0.811071	-0.499621	-0.677729
Br272	Br	1.144404	-0.166288	-0.344396
Br273	Br	1.477737	0.167046	-0.011063
Br274	Br	0.811075	-0.499445	-1.081366
Br275	Br	1.144409	-0.166111	-0.748032
Br276	Br	1.477742	0.167222	-0.414699
Br277	Br	0.684720	-0.261264	-0.207811
Br278	Br	1.018054	0.072069	0.125522
Br279	Br	1.351387	0.405402	0.458855
H280	H	0.548296	-0.472428	-0.374702
H281	H	0.881629	-0.139095	-0.041368
H282	H	1.214962	0.194239	0.291965
Br283	Br	1.000048	-0.261256	-0.677865
Br284	Br	1.333381	0.072077	-0.344532
Br285	Br	1.666714	0.405410	-0.011199
H286	H	0.792842	-0.955227	-0.189310
H287	H	1.126175	-0.621893	0.144023
H288	H	1.459508	-0.288560	0.477356
Br289	Br	0.811060	-0.499684	-0.523492
Br290	Br	1.144393	-0.166351	-0.190158
Br291	Br	1.477727	0.166983	0.143175
H292	H	0.896396	-0.509618	-0.743140
H293	H	1.229730	-0.176285	-0.409807
H294	H	1.563063	0.157049	-0.076474
H295	H	0.914585	-0.251211	-0.743145
H296	H	1.247918	0.082122	-0.409811
H297	H	1.581251	0.415455	-0.076478
H298	H	0.667002	-0.472465	-0.374655
H299	H	1.000336	-0.139132	-0.041322
H300	H	1.333669	0.194202	0.292012
Br301	Br	0.328834	-0.395464	-0.435260
Br302	Br	0.662167	-0.062130	-0.101926
Br303	Br	0.995501	0.271203	0.231407
Br304	Br	1.000007	-1.101068	-0.396799
Br305	Br	1.333340	-0.767735	-0.063466
Br306	Br	1.666674	-0.434401	0.269868
Br307	Br	0.281080	-0.261172	-0.207953
Br308	Br	0.614414	0.072162	0.125381
Br309	Br	0.947747	0.405495	0.458714
Br310	Br	0.483071	-0.395513	-0.435200
Br311	Br	0.816404	-0.062180	-0.101867
Br312	Br	1.149737	0.271154	0.231466
H313	H	0.346352	-0.369035	-0.199799
H314	H	0.679685	-0.035702	0.133534
H315	H	1.013019	0.297631	0.466867
H316	H	0.548249	-0.288728	-0.229571
H317	H	0.881582	0.044605	0.103762
H318	H	1.214915	0.377939	0.437096
Br319	Br	0.482789	-0.365627	-0.169108
Br320	Br	0.816122	-0.032294	0.164226
Br321	Br	1.149455	0.301039	0.497559
