data_functionalizedCrystal
_audit_creation_method	'MofGen! by Chris Wilmer'
_symmetry_space_group_name_H-M	'P1'
_symmetry_Int_Tables_number	1
_symmetry_cell_setting	triclinic
loop_
_symmetry_equiv_pos_as_xyz
  x,y,z
_cell_length_a	25.639243
_cell_length_b	25.639240
_cell_length_c	25.639233
_cell_angle_alpha	89.986272
_cell_angle_beta	89.984038
_cell_angle_gamma	90.034783
loop_
_atom_site_label
_atom_site_type_symbol
_atom_site_fract_x
_atom_site_fract_y
_atom_site_fract_z
Zn1	Zn	0.799249	-0.208176	-0.295674
Zn2	Zn	0.799183	-0.295595	-0.208246
Zn3	Zn	0.711825	-0.208180	-0.208248
Zn4	Zn	0.711781	-0.295587	-0.295645
O5	O	0.755510	-0.251885	-0.251953
O6	O	0.872406	-0.219775	-0.284088
O7	O	0.787586	-0.284004	-0.135081
O8	O	0.723469	-0.135014	-0.219857
O9	O	0.872357	-0.284001	-0.219855
O10	O	0.787699	-0.135012	-0.284089
O11	O	0.723405	-0.219780	-0.135082
O12	O	0.638654	-0.219772	-0.219830
O13	O	0.723393	-0.283987	-0.368814
O14	O	0.638621	-0.283990	-0.284040
O15	O	0.787655	-0.219767	-0.368835
O16	O	0.787542	-0.368759	-0.219827
O17	O	0.723328	-0.368753	-0.284039
C18	C	0.619667	-0.251881	-0.251932
C19	C	0.561553	-0.251892	-0.251936
C20	C	0.201210	-0.218494	-0.285455
C21	C	0.146605	-0.218494	-0.285458
O22	O	0.118385	-0.190088	-0.313932
N23	N	0.119270	-0.251883	-0.251968
C24	C	0.146543	-0.285271	-0.218468
O25	O	0.118278	-0.313670	-0.189981
C26	C	0.201146	-0.285268	-0.218462
C27	C	0.228478	-0.251881	-0.251959
C28	C	0.228542	-0.185109	-0.318949
C29	C	0.283142	-0.185111	-0.318946
C30	C	0.310411	-0.218497	-0.285450
C31	C	0.283079	-0.251882	-0.251956
C32	C	0.228417	-0.318653	-0.184960
C33	C	0.283024	-0.318647	-0.184957
C34	C	0.310356	-0.285260	-0.218454
C35	C	0.364948	-0.285270	-0.218457
N36	N	0.392282	-0.251881	-0.251948
C37	C	0.365014	-0.218494	-0.285444
C38	C	0.031872	-0.285273	-0.218481
C39	C	-0.022730	-0.285279	-0.218489
C40	C	-0.022664	-0.218501	-0.285479
C41	C	0.031939	-0.218498	-0.285473
C42	C	0.059207	-0.251884	-0.251972
C43	C	0.479679	-0.218500	-0.285436
C44	C	0.534285	-0.218506	-0.285432
C45	C	0.534213	-0.285281	-0.218440
C46	C	0.479613	-0.285278	-0.218446
C47	C	0.452347	-0.251883	-0.251946
O48	O	0.393202	-0.313659	-0.189997
O49	O	0.393285	-0.190095	-0.313921
C50	C	0.755437	-0.387727	-0.251941
C51	C	0.755454	-0.445841	-0.251953
C52	C	0.788951	-0.696982	-0.285433
C53	C	0.788935	-0.642378	-0.285429
O54	O	0.817355	-0.614096	-0.313877
N55	N	0.755511	-0.615115	-0.251960
C56	C	0.722105	-0.642459	-0.218489
O57	O	0.693674	-0.614256	-0.190021
C58	C	0.722124	-0.697063	-0.218491
C59	C	0.755546	-0.724323	-0.251966
C60	C	0.822371	-0.724242	-0.318905
C61	C	0.822386	-0.778842	-0.318909
C62	C	0.788981	-0.806183	-0.285442
C63	C	0.755561	-0.778923	-0.251970
C64	C	0.688720	-0.724406	-0.185018
C65	C	0.688742	-0.779013	-0.185022
C66	C	0.722164	-0.806273	-0.218497
C67	C	0.722171	-0.860864	-0.218508
N68	N	0.755594	-0.888127	-0.251976
C69	C	0.788999	-0.860786	-0.285444
C70	C	0.722069	-0.527789	-0.218487
C71	C	0.722047	-0.473186	-0.218488
C72	C	0.788878	-0.473109	-0.285427
C73	C	0.788897	-0.527712	-0.285429
C74	C	0.755493	-0.555052	-0.251956
C75	C	0.789028	-0.975451	-0.285451
C76	C	0.789038	-1.030057	-0.285454
C77	C	0.722209	-1.030130	-0.218513
C78	C	0.722197	-0.975529	-0.218512
C79	C	0.755610	-0.948191	-0.251982
O80	O	0.693767	-0.889180	-0.190073
O81	O	0.817430	-0.888996	-0.313903
C82	C	0.891882	-0.251888	-0.251974
C83	C	0.949997	-0.251890	-0.251983
C84	C	0.755526	-0.251875	-0.388326
C85	C	0.755534	-0.251871	-0.446440
C86	C	0.755596	-0.115511	-0.251977
C87	C	0.755633	-0.057397	-0.251987
C88	C	0.789038	-0.218333	-0.806820
C89	C	0.789044	-0.218318	-0.861424
O90	O	0.817488	-0.189864	-0.889675
N91	N	0.755591	-0.251749	-0.888723
C92	C	0.722126	-0.285192	-0.861414
O93	O	0.693672	-0.313626	-0.889648
C94	C	0.722117	-0.285204	-0.806811
C95	C	0.755576	-0.251775	-0.779515
C96	C	0.822493	-0.184906	-0.779524
C97	C	0.822487	-0.184921	-0.724924
C98	C	0.789026	-0.218363	-0.697619
C99	C	0.755570	-0.251790	-0.724915
C100	C	0.688650	-0.318644	-0.779503
C101	C	0.688644	-0.318652	-0.724896
C102	C	0.722102	-0.285223	-0.697601
C103	C	0.722103	-0.285247	-0.643009
N104	N	0.755556	-0.251817	-0.615711
C105	C	0.789017	-0.218375	-0.643016
C106	C	0.722146	-0.285165	-0.976085
C107	C	0.722157	-0.285157	-1.030687
C108	C	0.789075	-0.218282	-1.030694
C109	C	0.789066	-0.218293	-0.976090
C110	C	0.755599	-0.251735	-0.948786
C111	C	0.789002	-0.218410	-0.528350
C112	C	0.788995	-0.218429	-0.473745
C113	C	0.722076	-0.285302	-0.473744
C114	C	0.722085	-0.285285	-0.528344
C115	C	0.755550	-0.251834	-0.555646
O116	O	0.693672	-0.313685	-0.614724
O117	O	0.817461	-0.189941	-0.614775
C118	C	0.755523	-0.251856	-0.116111
C119	C	0.755617	-0.251713	-0.057997
H120	H	0.457358	-0.312470	-0.191177
H121	H	0.305391	-0.157922	-0.346222
H122	H	0.556425	-0.312465	-0.191170
H123	H	0.694834	-0.312531	-0.451502
H124	H	0.457486	-0.191305	-0.312713
C125	C	-0.052664	-0.181773	-0.322326
C126	C	-0.090203	-0.204492	-0.363335
C127	C	-0.120204	-0.167767	-0.400181
C128	C	-0.112665	-0.108323	-0.396018
C129	C	-0.075125	-0.085600	-0.355007
C130	C	-0.045124	-0.122325	-0.318161
H131	H	-0.095785	-0.248499	-0.366419
H132	H	-0.147994	-0.184588	-0.430540
H133	H	-0.134874	-0.081137	-0.423294
H134	H	-0.069543	-0.041593	-0.351924
H135	H	-0.017334	-0.105504	-0.287802
H136	H	0.661505	-0.702219	-0.157759
C137	C	0.825780	-0.945386	-0.322271
C138	C	0.803087	-0.907857	-0.363298
C139	C	0.839835	-0.877792	-0.400121
C140	C	0.899277	-0.885255	-0.395917
C141	C	0.921974	-0.922785	-0.354889
C142	C	0.885225	-0.952850	-0.318066
H143	H	0.759081	-0.902331	-0.366412
H144	H	0.823034	-0.850010	-0.430493
H145	H	0.926481	-0.862998	-0.423176
H146	H	0.965979	-0.928310	-0.351775
H147	H	0.902027	-0.980632	-0.287693
C148	C	0.685279	-0.443204	-0.181669
C149	C	0.644200	-0.405696	-0.204278
C150	C	0.607434	-0.375715	-0.167455
C151	C	0.611745	-0.383242	-0.108023
C152	C	0.652825	-0.420751	-0.085410
C153	C	0.689592	-0.450732	-0.122234
H154	H	0.641007	-0.400123	-0.248276
H155	H	0.577024	-0.347948	-0.184194
H156	H	0.584528	-0.361048	-0.080764
H157	H	0.656018	-0.426324	-0.041413
H158	H	0.720002	-0.478499	-0.105494
C159	C	0.859118	-0.694174	-0.355726
C160	C	0.918560	-0.701634	-0.351524
C161	C	0.955306	-0.671571	-0.388353
C162	C	0.932609	-0.634049	-0.429383
C163	C	0.873163	-0.626588	-0.433587
C164	C	0.836417	-0.656650	-0.396758
H165	H	0.935365	-0.729412	-0.321150
H166	H	0.999311	-0.677095	-0.385241
H167	H	0.959810	-0.611795	-0.456646
H168	H	0.856358	-0.598810	-0.463961
H169	H	0.792412	-0.651127	-0.399870
C170	C	0.825629	-0.443027	-0.322239
C171	C	0.825609	-0.382966	-0.322229
C172	C	0.862357	-0.352883	-0.359038
C173	C	0.899126	-0.382861	-0.395857
C174	C	0.899148	-0.442926	-0.395868
C175	C	0.862399	-0.473009	-0.359059
H176	H	0.798389	-0.360771	-0.294972
H177	H	0.862341	-0.308419	-0.359030
H178	H	0.926329	-0.360592	-0.423105
H179	H	0.926367	-0.465121	-0.423125
H180	H	0.862415	-0.517473	-0.359067
H181	H	0.816254	-1.052249	-0.312716
C182	C	0.685314	-0.557860	-0.181671
C183	C	0.689613	-0.550359	-0.122238
C184	C	0.652859	-0.580426	-0.085422
C185	C	0.611805	-0.617994	-0.108039
C186	C	0.607504	-0.625497	-0.167476
C187	C	0.644258	-0.595429	-0.204292
H188	H	0.720006	-0.522547	-0.105492
H189	H	0.656044	-0.574872	-0.041423
H190	H	0.584597	-0.640252	-0.080786
H191	H	0.577112	-0.653308	-0.184221
H192	H	0.641074	-0.600983	-0.248291
C193	C	0.859285	-0.148142	-0.694901
C194	C	0.900320	-0.170796	-0.657368
C195	C	0.937117	-0.134013	-0.627349
C196	C	0.932879	-0.074575	-0.634863
C197	C	0.891843	-0.051918	-0.672399
C198	C	0.855046	-0.088701	-0.702418
H199	H	0.903458	-0.214798	-0.651803
H200	H	0.967494	-0.150785	-0.599562
H201	H	0.960119	-0.047345	-0.612642
H202	H	0.888705	-0.007915	-0.677963
H203	H	0.824669	-0.071929	-0.730204
H204	H	0.661540	-0.801270	-0.157763
C205	C	0.061864	-0.322007	-0.181633
C206	C	0.099386	-0.363089	-0.204214
C207	C	0.129374	-0.399822	-0.167365
C208	C	0.121842	-0.395472	-0.107936
C209	C	0.084319	-0.354387	-0.085352
C210	C	0.054330	-0.317655	-0.122201
H211	H	0.104963	-0.366311	-0.248209
H212	H	0.157151	-0.430235	-0.184084
H213	H	0.144041	-0.422663	-0.080659
H214	H	0.078741	-0.351165	-0.041357
H215	H	0.026553	-0.287241	-0.105482
C216	C	0.685430	-0.945538	-0.181695
C217	C	0.689740	-0.953062	-0.122262
C218	C	0.652977	-0.923074	-0.085441
C219	C	0.611905	-0.885561	-0.108052
C220	C	0.607594	-0.878035	-0.167488
C221	C	0.644356	-0.908023	-0.204309
H222	H	0.720145	-0.980833	-0.105521
H223	H	0.656168	-0.928645	-0.041443
H224	H	0.584691	-0.863362	-0.080795
H225	H	0.577188	-0.850264	-0.184229
H226	H	0.641165	-0.902452	-0.248307
C227	C	0.685468	-1.060213	-0.181699
C228	C	0.708174	-1.097743	-0.140681
C229	C	0.671436	-1.127828	-0.103863
C230	C	0.611992	-1.120383	-0.108064
C231	C	0.589282	-1.082852	-0.149084
C232	C	0.626020	-1.052767	-0.185901
H233	H	0.752181	-1.103255	-0.137569
H234	H	0.688248	-1.155611	-0.073497
H235	H	0.584796	-1.142654	-0.080809
H236	H	0.545275	-1.077340	-0.152195
H237	H	0.609208	-1.024984	-0.216267
H238	H	0.816310	-0.191071	-0.953870
H239	H	0.816243	-0.191207	-0.451523
C240	C	0.825881	-0.181491	-1.060736
C241	C	0.825883	-0.181479	-1.120797
C242	C	0.862687	-0.144691	-1.150841
C243	C	0.899489	-0.107915	-1.120823
C244	C	0.899488	-0.107926	-1.060758
C245	C	0.862684	-0.144714	-1.030714
H246	H	0.798639	-0.208703	-1.143021
H247	H	0.862687	-0.144683	-1.195305
H248	H	0.926733	-0.080682	-1.143063
H249	H	0.926732	-0.080701	-1.038534
H250	H	0.862683	-0.144722	-0.986250
C251	C	0.859307	-0.148117	-0.809553
C252	C	0.918739	-0.152394	-0.802042
C253	C	0.955558	-0.115606	-0.832065
C254	C	0.932946	-0.074540	-0.869600
C255	C	0.873512	-0.070262	-0.877113
C256	C	0.836692	-0.107050	-0.847090
H257	H	0.935480	-0.182794	-0.774254
H258	H	0.999556	-0.118773	-0.826503
H259	H	0.960203	-0.047307	-0.891825
H260	H	0.856770	-0.039861	-0.904900
H261	H	0.792694	-0.103883	-0.852651
C262	C	0.685335	-0.321960	-0.946054
C263	C	0.625902	-0.317693	-0.953562
C264	C	0.589090	-0.354487	-0.923535
C265	C	0.611712	-0.395548	-0.886001
C266	C	0.671148	-0.399817	-0.878492
C267	C	0.707959	-0.363023	-0.908519
H268	H	0.609154	-0.287296	-0.981348
H269	H	0.545092	-0.351327	-0.929094
H270	H	0.584461	-0.422785	-0.863774
H271	H	0.687896	-0.430214	-0.850705
H272	H	0.751958	-0.366183	-0.902959
H273	H	0.816251	-0.191169	-0.550573
H274	H	0.206346	-0.157919	-0.346225
C275	C	0.651832	-0.355441	-0.694861
C276	C	0.592398	-0.351171	-0.702360
C277	C	0.555588	-0.387960	-0.672325
C278	C	0.578212	-0.429020	-0.634791
C279	C	0.637649	-0.433292	-0.627291
C280	C	0.674459	-0.396503	-0.657326
H281	H	0.575647	-0.320774	-0.730146
H282	H	0.511589	-0.384797	-0.677877
H283	H	0.550964	-0.456253	-0.612558
H284	H	0.654400	-0.463689	-0.599505
H285	H	0.718458	-0.399666	-0.651774
H286	H	0.556536	-0.191317	-0.312711
H287	H	0.816110	-0.549903	-0.312689
C288	C	0.313018	-0.355374	-0.148105
C289	C	0.305490	-0.351017	-0.088676
C290	C	0.335483	-0.387744	-0.051826
C291	C	0.373003	-0.428829	-0.074404
C292	C	0.380533	-0.433188	-0.133836
C293	C	0.350540	-0.396460	-0.170687
H294	H	0.277713	-0.320602	-0.071959
H295	H	0.329908	-0.384517	-0.007830
H296	H	0.395206	-0.456016	-0.047125
H297	H	0.408310	-0.463602	-0.150553
H298	H	0.356115	-0.399687	-0.214683
H299	H	-0.044979	-0.312472	-0.191218
H300	H	0.054190	-0.191310	-0.312748
H301	H	0.849606	-0.801033	-0.346164
H302	H	0.694917	-0.312384	-1.052907
H303	H	0.206173	-0.345840	-0.157683
H304	H	0.661404	-0.345866	-0.801718
H305	H	0.694845	-0.312510	-0.550569
