data_functionalizedCrystal
_audit_creation_method	'MofGen! by Chris Wilmer'
_symmetry_space_group_name_H-M	'P1'
_symmetry_Int_Tables_number	1
_symmetry_cell_setting	triclinic
loop_
_symmetry_equiv_pos_as_xyz
  x,y,z
_cell_length_a	16.959455
_cell_length_b	21.295417
_cell_length_c	16.959447
_cell_angle_alpha	89.964725
_cell_angle_beta	89.983056
_cell_angle_gamma	90.027454
loop_
_atom_site_label
_atom_site_type_symbol
_atom_site_fract_x
_atom_site_fract_y
_atom_site_fract_z
Zn1	Zn	1.208347	-0.250648	-0.446882
Zn2	Zn	1.208239	-0.355924	-0.314692
Zn3	Zn	1.076169	-0.250667	-0.314719
Zn4	Zn	1.076116	-0.355877	-0.446831
O5	O	1.142218	-0.303279	-0.380781
O6	O	1.318943	-0.264624	-0.429357
O7	O	1.190697	-0.341990	-0.204085
O8	O	1.093770	-0.162575	-0.332284
O9	O	1.318864	-0.341971	-0.332237
O10	O	1.190881	-0.162561	-0.429383
O11	O	1.093666	-0.264658	-0.204105
O12	O	0.965551	-0.264612	-0.332234
O13	O	1.093679	-0.341890	-0.557448
O14	O	0.965512	-0.341910	-0.429296
O15	O	1.190829	-0.264578	-0.557486
O16	O	1.190645	-0.444008	-0.332188
O17	O	1.093575	-0.443973	-0.429269
C18	C	0.936852	-0.303258	-0.380763
C19	C	0.848995	-0.303265	-0.380774
C20	C	0.477515	-0.262998	-0.330347
C21	C	0.477523	-0.343613	-0.431261
C22	C	0.560069	-0.343604	-0.431256
C23	C	0.601342	-0.303292	-0.380795
C24	C	0.560069	-0.262989	-0.330339
C25	C	0.601349	-0.383910	-0.481705
C26	C	0.683900	-0.383903	-0.481702
C27	C	0.725174	-0.343588	-0.431244
C28	C	0.683896	-0.303283	-0.380787
C29	C	0.725168	-0.262971	-0.330326
C30	C	0.683892	-0.222662	-0.279871
C31	C	0.601343	-0.222673	-0.279881
C32	C	0.807722	-0.343577	-0.431235
C33	C	0.807722	-0.262962	-0.330318
C34	C	1.142114	-0.466831	-0.380737
C35	C	1.142142	-0.536799	-0.380745
C36	C	1.192732	-0.569663	-0.330246
C37	C	1.192769	-0.635405	-0.330264
C38	C	1.142202	-0.668281	-0.380772
C39	C	1.091609	-0.635410	-0.431281
C40	C	1.091579	-0.569668	-0.431267
N41	N	1.073056	-0.771544	-0.386792
N42	N	1.073086	-0.833995	-0.386800
C43	C	1.142291	-0.866356	-0.380818
N44	N	1.211465	-0.833906	-0.374811
N45	N	1.211433	-0.771449	-0.374798
C46	C	1.142229	-0.739567	-0.380793
C47	C	1.192925	-0.970505	-0.330335
C48	C	1.192963	-1.036249	-0.330359
C49	C	1.091796	-1.036252	-0.431371
C50	C	1.091765	-0.970510	-0.431352
C51	C	1.142328	-0.937640	-0.380830
C52	C	1.348386	-0.303300	-0.380800
C53	C	1.436243	-0.303310	-0.380808
C54	C	1.142260	-0.303227	-0.586949
C55	C	1.142278	-0.303205	-0.674806
C56	C	1.142343	-0.139089	-0.380842
C57	C	1.142397	-0.069121	-0.380868
C58	C	1.091828	-0.262875	-1.046299
C59	C	1.192868	-0.343401	-1.046265
C60	C	1.192854	-0.343416	-0.963719
C61	C	1.142326	-0.303160	-0.922459
C62	C	1.091811	-0.262890	-0.963745
C63	C	1.243362	-0.383690	-0.922427
C64	C	1.243349	-0.383707	-0.839876
C65	C	1.192825	-0.343448	-0.798615
C66	C	1.142309	-0.303175	-0.839906
C67	C	1.091781	-0.262919	-0.798645
C68	C	1.041268	-0.222643	-0.839935
C69	C	1.041287	-0.222630	-0.922483
C70	C	1.192806	-0.343460	-0.716066
C71	C	1.091764	-0.262934	-0.716092
C72	C	1.142221	-0.303286	-0.175415
C73	C	1.142356	-0.303131	-0.087559
H74	H	0.841326	-0.376397	-0.472312
O75	O	1.241905	-0.382494	-0.675873
C76	C	1.348634	-0.390998	-0.582721
C77	C	1.293062	-0.346720	-0.628173
H78	H	1.390019	-0.362092	-0.544157
H79	H	1.312352	-0.423904	-0.544000
H80	H	1.384708	-0.419784	-0.626408
H81	H	1.256976	-0.317894	-0.584543
H82	H	1.329389	-0.313855	-0.666907
O83	O	1.292457	-0.422738	-0.799684
C84	C	1.399187	-0.431226	-0.706531
C85	C	1.343608	-0.386956	-0.751987
H86	H	1.440567	-0.402313	-0.667970
H87	H	1.362911	-0.464133	-0.667806
H88	H	1.435266	-0.460009	-0.750215
H89	H	1.307517	-0.358131	-0.708360
H90	H	1.379929	-0.354089	-0.790723
O91	O	1.042470	-0.537810	-0.480431
C92	C	1.004044	-0.517602	-0.614847
C93	C	1.059698	-0.553733	-0.559260
H94	H	1.017963	-0.530452	-0.678592
H95	H	0.940309	-0.530593	-0.600979
H96	H	1.012693	-0.464972	-0.606117
H97	H	1.051119	-0.606371	-0.567959
H98	H	1.123412	-0.540689	-0.573141
H99	H	0.443904	-0.230177	-0.289270
H100	H	1.233905	-0.542902	-0.289110
O101	O	0.724114	-0.423031	-0.530644
C102	C	0.851286	-0.458708	-0.575408
C103	C	0.805841	-0.414379	-0.519925
H104	H	0.917370	-0.451718	-0.566773
H105	H	0.835093	-0.509471	-0.561415
H106	H	0.835030	-0.447720	-0.639159
H107	H	0.822072	-0.425310	-0.456155
H108	H	0.822038	-0.363629	-0.533985
H109	H	0.443914	-0.376436	-0.472339
O110	O	1.042565	-0.223896	-0.676050
C111	C	0.908131	-0.193304	-0.650837
C112	C	0.963757	-0.237561	-0.696219
H113	H	0.844404	-0.204327	-0.667139
H114	H	0.916723	-0.200235	-0.584735
H115	H	0.922097	-0.142547	-0.667081
H116	H	0.949826	-0.288335	-0.680041
H117	H	0.955156	-0.230576	-0.762310
H118	H	0.841320	-0.230131	-0.289230
O119	O	1.292466	-0.422851	-0.962383
C120	C	1.392716	-0.502699	-0.953649
C121	C	1.337129	-0.458392	-0.908297
H122	H	1.428852	-0.531436	-0.909940
H123	H	1.356447	-0.535643	-0.992260
H124	H	1.434043	-0.473783	-0.992333
H125	H	1.295791	-0.487258	-0.869571
H126	H	1.373447	-0.425447	-0.869736
O127	O	1.241936	-0.667241	-0.281130
C128	C	1.342294	-0.660305	-0.180959
C129	C	1.286642	-0.624176	-0.236551
H130	H	1.378466	-0.625502	-0.144914
H131	H	1.306073	-0.691114	-0.139555
H132	H	1.383584	-0.691052	-0.217301
H133	H	1.245341	-0.593394	-0.200273
H134	H	1.322913	-0.593406	-0.277957
H135	H	1.050439	-0.662182	-0.472406
O136	O	1.042760	-1.068151	-0.480550
C137	C	1.004288	-1.088174	-0.614973
C138	C	1.059881	-1.052018	-0.559364
H139	H	1.018100	-1.075133	-0.678704
H140	H	1.013002	-1.140814	-0.606381
H141	H	0.940559	-1.075307	-0.600991
H142	H	1.123631	-1.064831	-0.573311
H143	H	1.051099	-0.999386	-0.567965
H144	H	1.234099	-0.943742	-0.289200
H145	H	0.567738	-0.416735	-0.522782
O146	O	1.042727	-0.938555	-0.480485
C147	C	1.031988	-0.864243	-0.587145
C148	C	1.087614	-0.900403	-0.531559
H149	H	1.068256	-0.833379	-0.628442
H150	H	0.995866	-0.899004	-0.623306
H151	H	0.990650	-0.833544	-0.550794
H152	H	1.129000	-0.931103	-0.567850
H153	H	1.123681	-0.865608	-0.495396
H154	H	1.000161	-0.189840	-0.956109
H155	H	1.233999	-0.376181	-1.079864
O156	O	0.724110	-0.183525	-0.230928
C157	C	0.851287	-0.147825	-0.186161
C158	C	0.805835	-0.192166	-0.241640
H159	H	0.917370	-0.154805	-0.194791
H160	H	0.835153	-0.097066	-0.200163
H161	H	0.834979	-0.158808	-0.122409
H162	H	0.822119	-0.181239	-0.305411
H163	H	0.821974	-0.242912	-0.227571
O164	O	1.242135	-1.068078	-0.281228
C165	C	1.342496	-1.061134	-0.181061
C166	C	1.286836	-1.025009	-0.236649
H167	H	1.378664	-1.026329	-0.145016
H168	H	1.306281	-1.091948	-0.139656
H169	H	1.383789	-1.091876	-0.217405
H170	H	1.245532	-0.994232	-0.200368
H171	H	1.323100	-0.994235	-0.278056
H172	H	1.000125	-0.189869	-0.806330
H173	H	0.567728	-0.189857	-0.238803
O174	O	1.042678	-0.223843	-1.086437
C175	C	0.936019	-0.215338	-1.179668
C176	C	0.991619	-0.259614	-1.134246
H177	H	0.894735	-0.244240	-1.218345
H178	H	0.899845	-0.186582	-1.136032
H179	H	0.972359	-0.182406	-1.218297
H180	H	0.955340	-0.292584	-1.095617
H181	H	1.027796	-0.288326	-1.177925
