data_functionalizedCrystal
_audit_creation_method	'MofGen! by Chris Wilmer'
_symmetry_space_group_name_H-M	'P1'
_symmetry_Int_Tables_number	1
_symmetry_cell_setting	triclinic
loop_
_symmetry_equiv_pos_as_xyz
  x,y,z
_cell_length_a	18.215407
_cell_length_b	18.050590
_cell_length_c	18.215399
_cell_angle_alpha	89.968856
_cell_angle_beta	89.983176
_cell_angle_gamma	90.019000
loop_
_atom_site_label
_atom_site_type_symbol
_atom_site_fract_x
_atom_site_fract_y
_atom_site_fract_z
Zn1	Zn	1.125082	-0.295641	-0.416112
Zn2	Zn	1.625082	0.204359	0.083888
Zn3	Zn	1.125011	-0.419841	-0.293044
Zn4	Zn	1.625011	0.080159	0.206956
Zn5	Zn	1.002022	-0.295670	-0.293059
Zn6	Zn	1.502022	0.204330	0.206941
Zn7	Zn	1.001995	-0.419794	-0.416069
Zn8	Zn	1.501995	0.080206	0.083931
O9	O	1.063527	-0.357736	-0.354571
O10	O	1.563527	0.142264	0.145429
O11	O	1.228057	-0.312123	-0.399798
O12	O	1.728057	0.187877	0.100202
O13	O	1.108677	-0.403401	-0.190062
O14	O	1.608677	0.096599	0.309938
O15	O	1.018387	-0.191742	-0.309407
O16	O	1.518387	0.308258	0.190593
O17	O	1.228005	-0.403372	-0.309381
O18	O	1.728005	0.096628	0.190619
O19	O	1.108799	-0.191720	-0.399813
O20	O	1.608799	0.308280	0.100187
O21	O	1.018318	-0.312173	-0.190073
O22	O	1.518318	0.187827	0.309927
O23	O	0.899034	-0.312128	-0.309365
O24	O	1.399034	0.187872	0.190635
O25	O	1.018341	-0.403293	-0.519059
O26	O	1.518341	0.096707	-0.019059
O27	O	0.899014	-0.403322	-0.399740
O28	O	1.399014	0.096678	0.100260
O29	O	1.108773	-0.312078	-0.519090
O30	O	1.608773	0.187922	-0.019090
O31	O	1.108651	-0.523759	-0.309339
O32	O	1.608651	-0.023759	0.190661
O33	O	1.018272	-0.523725	-0.399725
O34	O	1.518272	-0.023725	0.100275
C35	C	0.872321	-0.357724	-0.354550
C36	C	1.372321	0.142276	0.145450
C37	C	0.790522	-0.357736	-0.354558
C38	C	1.290522	0.142264	0.145442
C39	C	0.602337	-0.405295	-0.401557
C40	C	1.102337	0.094705	0.098443
C41	C	0.525478	-0.405298	-0.401566
C42	C	1.025478	0.094702	0.098434
C43	C	0.525470	-0.310191	-0.307601
C44	C	1.025470	0.189809	0.192399
C45	C	0.602327	-0.310185	-0.307596
C46	C	1.102327	0.189815	0.192404
C47	C	0.640759	-0.357742	-0.354573
C48	C	1.140759	0.142258	0.145427
C49	C	0.487043	-0.357750	-0.354587
C50	C	0.987043	0.142250	0.145413
C51	C	0.403709	-0.357752	-0.354597
C52	C	0.903709	0.142248	0.145403
C53	C	0.724098	-0.357739	-0.354565
C54	C	1.224098	0.142261	0.145435
C55	C	1.063471	-0.550689	-0.354542
C56	C	1.563471	-0.050689	0.145458
C57	C	1.063514	-0.633234	-0.354554
C58	C	1.563514	-0.133234	0.145446
C59	C	1.112765	-0.832676	-0.305470
C60	C	1.612765	-0.332676	0.194530
C61	C	1.130738	-0.882006	-0.372637
C62	C	1.630738	-0.382006	0.127363
C63	C	1.063556	-0.784365	-0.354583
C64	C	1.563556	-0.284365	0.145417
C65	C	1.045657	-0.882117	-0.287446
C66	C	1.545657	-0.382117	0.212554
C67	C	1.063597	-0.930350	-0.354605
C68	C	1.563597	-0.430350	0.145395
C69	C	1.081564	-0.832607	-0.421785
C70	C	1.581564	-0.332607	0.078215
C71	C	0.996451	-0.832714	-0.336549
C72	C	1.496451	-0.332714	0.163451
C73	C	1.014399	-0.882020	-0.403762
C74	C	1.514399	-0.382020	0.096238
C75	C	1.063534	-0.700266	-0.354569
C76	C	1.563534	-0.200266	0.145431
C77	C	1.063619	-1.014446	-0.354627
C78	C	1.563619	-0.514446	0.145373
C79	C	1.255480	-0.357750	-0.354593
C80	C	1.755480	0.142250	0.145407
C81	C	1.337279	-0.357755	-0.354602
C82	C	1.837279	0.142245	0.145398
C83	C	1.063562	-0.357677	-0.546524
C84	C	1.563562	0.142323	-0.046524
C85	C	1.063577	-0.357652	-0.628323
C86	C	1.563577	0.142348	-0.128323
C87	C	1.063604	-0.164031	-0.354616
C88	C	1.563604	0.335969	0.145384
C89	C	1.063637	-0.081485	-0.354636
C90	C	1.563637	0.418515	0.145364
C91	C	1.016566	-0.310117	-0.816524
C92	C	1.516566	0.189883	-0.316524
C93	C	1.016579	-0.310102	-0.893382
C94	C	1.516579	0.189898	-0.393382
C95	C	1.110676	-0.405097	-0.893360
C96	C	1.610676	0.094903	-0.393360
C97	C	1.110658	-0.405116	-0.816503
C98	C	1.610658	0.094884	-0.316503
C99	C	1.063605	-0.357621	-0.778086
C100	C	1.563605	0.142379	-0.278086
C101	C	1.063635	-0.357588	-0.931803
C102	C	1.563635	0.142412	-0.431803
C103	C	1.063649	-0.357572	-1.015136
C104	C	1.563649	0.142428	-0.515136
C105	C	1.063590	-0.357638	-0.694747
C106	C	1.563590	0.142362	-0.194747
C107	C	1.063535	-0.357742	-0.163365
C108	C	1.563535	0.142258	0.336635
C109	C	1.063663	-0.357558	-0.081566
C110	C	1.563663	0.142442	0.418434
H111	H	1.154393	-0.811010	-0.263980
H112	H	1.654393	-0.311010	0.236020
H113	H	0.978252	-0.271445	-0.785247
H114	H	1.478252	0.228555	-0.285247
H115	H	1.187505	-0.903660	-0.387905
H116	H	1.687505	-0.403660	0.112095
Cl117	Cl	0.477180	-0.465080	-0.460637
Cl118	Cl	0.977180	0.034920	0.039363
Cl119	Cl	0.650632	-0.250394	-0.248530
Cl120	Cl	1.150632	0.249606	0.251470
H121	H	1.096663	-0.810952	-0.478620
H122	H	1.596663	-0.310952	0.021380
H123	H	0.978275	-0.271421	-0.924675
H124	H	1.478275	0.228579	-0.424675
H125	H	1.148985	-0.443765	-0.924648
H126	H	1.648985	0.056235	-0.424648
H127	H	1.148965	-0.443802	-0.785206
H128	H	1.648965	0.056198	-0.285206
Cl129	Cl	0.950178	-0.915265	-0.467971
Cl130	Cl	1.450178	-0.415265	0.032029
H131	H	0.633626	-0.444017	-0.439811
H132	H	1.133626	0.055983	0.060189
H133	H	0.494169	-0.271473	-0.269352
H134	H	0.994169	0.228527	0.230648
H135	H	1.030501	-0.903864	-0.230660
H136	H	1.530501	-0.403864	0.269340
H137	H	0.939701	-0.811044	-0.321261
H138	H	1.439701	-0.311044	0.178739
