data_functionalizedCrystal
_audit_creation_method	'MofGen! by Chris Wilmer'
_symmetry_space_group_name_H-M	'P1'
_symmetry_Int_Tables_number	1
_symmetry_cell_setting	triclinic
loop_
_symmetry_equiv_pos_as_xyz
  x,y,z
_cell_length_a	10.654550
_cell_length_b	14.044220
_cell_length_c	9.730223
_cell_angle_alpha	89.994583
_cell_angle_beta	89.999957
_cell_angle_gamma	88.836904
loop_
_atom_site_label
_atom_site_type_symbol
_atom_site_fract_x
_atom_site_fract_y
_atom_site_fract_z
O1	O	1.681228	0.133232	-0.114191
O2	O	1.317025	0.145925	-0.114216
O3	O	1.493659	0.001558	-0.114190
O4	O	1.504593	0.277599	-0.114217
O5	O	1.493647	0.001554	0.114390
O6	O	1.317012	0.145921	0.114364
O7	O	1.681215	0.133228	0.114389
Zn8	Zn	1.499111	0.139574	0.150668
Zn9	Zn	1.499128	0.139579	-0.150496
O10	O	1.504580	0.277595	0.114363
C11	C	1.270127	0.144991	0.000070
C12	C	1.130403	0.142202	0.000061
C13	C	1.488867	-0.033790	0.000100
C14	C	1.474592	-0.139110	0.000101
C15	C	1.059459	0.227204	0.000057
C16	C	0.928175	0.224578	0.000081
C17	C	0.938790	0.051942	0.000108
C18	C	1.070072	0.054569	0.000094
C19	C	1.448493	-0.331943	0.000079
C20	C	1.549741	-0.388910	0.000082
C21	C	1.535219	-0.496209	0.000070
C22	C	1.463013	-0.224634	0.000091
C23	C	1.728113	0.134162	0.000099
C24	C	1.867836	0.136950	0.000100
C25	C	1.509372	0.312943	0.000070
C26	C	1.523648	0.418262	0.000060
N27	N	1.499109	0.139570	0.356205
N28	N	1.499140	0.139576	-0.356032
C29	C	1.577355	0.075671	0.428142
C30	C	1.577367	0.075671	0.572025
C31	C	1.420885	0.203477	0.572021
C32	C	1.420867	0.203471	0.428140
H33	H	0.870417	0.293795	0.000080
H34	H	1.350913	-0.363754	0.000069
H35	H	1.108577	0.298560	0.000041
C36	C	1.223870	-0.042626	-0.117412
C37	C	1.148067	-0.038870	0.000095
H38	H	1.272025	-0.100307	-0.117401
H39	H	1.172428	-0.040071	-0.197104
H40	H	1.278581	0.009945	-0.117410
H41	H	1.093349	-0.091438	0.000087
H42	H	1.199514	-0.041435	0.079807
C43	C	0.742255	-0.028739	0.000128
C44	C	0.872468	-0.044381	0.000126
H45	H	0.701316	-0.088207	0.000127
H46	H	0.718571	0.006288	0.079832
H47	H	0.718568	0.006299	-0.079591
H48	H	0.896157	-0.079413	0.079850
H49	H	0.896162	-0.079423	-0.079587
C50	C	1.746879	-0.376187	-0.117386
C51	C	1.681484	-0.345973	0.000109
H52	H	1.828205	-0.349671	-0.117366
H53	H	1.754272	-0.443699	-0.117384
H54	H	1.702518	-0.355668	-0.197094
H55	H	1.725841	-0.366499	0.079818
H56	H	1.674097	-0.278447	0.000120
C57	C	1.746112	0.056296	0.733817
C58	C	1.663379	0.005435	0.651103
H59	H	1.799206	0.012930	0.782641
H60	H	1.795726	0.096091	0.677674
H61	H	1.699507	0.094350	0.797247
H62	H	1.709984	-0.032613	0.587665
H63	H	1.613759	-0.034377	0.707250
H64	H	1.641062	0.023637	0.369576
C65	C	1.252115	0.222852	0.266353
C66	C	1.334856	0.273716	0.349054
H67	H	1.199014	0.266217	0.217535
H68	H	1.298706	0.184799	0.202930
H69	H	1.202498	0.183057	0.322514
H70	H	1.384480	0.313507	0.292891
H71	H	1.288261	0.311786	0.412484
C72	C	1.252183	0.222864	0.733863
C73	C	1.334896	0.273721	0.651104
H74	H	1.199105	0.266234	0.782690
H75	H	1.202551	0.183069	0.677752
H76	H	1.298804	0.184812	0.797292
H77	H	1.288276	0.311768	0.587668
H78	H	1.384534	0.313532	0.707220
