data_functionalizedCrystal
_audit_creation_method	'MofGen! by Chris Wilmer'
_symmetry_space_group_name_H-M	'P1'
_symmetry_Int_Tables_number	1
_symmetry_cell_setting	triclinic
loop_
_symmetry_equiv_pos_as_xyz
  x,y,z
_cell_length_a	18.215407
_cell_length_b	16.959454
_cell_length_c	18.215399
_cell_angle_alpha	89.976304
_cell_angle_beta	89.980167
_cell_angle_gamma	90.020523
loop_
_atom_site_label
_atom_site_type_symbol
_atom_site_fract_x
_atom_site_fract_y
_atom_site_fract_z
Zn1	Zn	1.125097	-0.314680	-0.416138
Zn2	Zn	1.458430	0.018653	-0.082804
Zn3	Zn	1.791763	0.351986	0.250529
Zn4	Zn	1.125015	-0.446866	-0.293080
Zn5	Zn	1.458349	-0.113532	0.040253
Zn6	Zn	1.791682	0.219801	0.373586
Zn7	Zn	1.002029	-0.314706	-0.293085
Zn8	Zn	1.335362	0.018627	0.040248
Zn9	Zn	1.668696	0.351961	0.373582
Zn10	Zn	1.002005	-0.446822	-0.416105
Zn11	Zn	1.335339	-0.113488	-0.082772
Zn12	Zn	1.668672	0.219845	0.250561
O13	O	1.063537	-0.380768	-0.354602
O14	O	1.396870	-0.047435	-0.021269
O15	O	1.730203	0.285898	0.312065
O16	O	1.228070	-0.332222	-0.399825
O17	O	1.561403	0.001111	-0.066492
O18	O	1.894737	0.334444	0.266841
O19	O	1.108677	-0.429364	-0.190097
O20	O	1.442010	-0.096030	0.143237
O21	O	1.775344	0.237303	0.476570
O22	O	1.018398	-0.204092	-0.309424
O23	O	1.351732	0.129242	0.023910
O24	O	1.685065	0.462575	0.357243
O25	O	1.228010	-0.429339	-0.309416
O26	O	1.561344	-0.096005	0.023917
O27	O	1.894677	0.237328	0.357251
O28	O	1.108815	-0.204073	-0.399830
O29	O	1.442149	0.129261	-0.066496
O30	O	1.775482	0.462594	0.266837
O31	O	1.018319	-0.332267	-0.190100
O32	O	1.351653	0.001067	0.143233
O33	O	1.684986	0.334400	0.476567
O34	O	0.899042	-0.332224	-0.309392
O35	O	1.232375	0.001109	0.023941
O36	O	1.565708	0.334443	0.357274
O37	O	1.018358	-0.429264	-0.519094
O38	O	1.351691	-0.095930	-0.185761
O39	O	1.685024	0.237403	0.147573
O40	O	0.899024	-0.429289	-0.399775
O41	O	1.232358	-0.095955	-0.066442
O42	O	1.565691	0.237378	0.266892
O43	O	1.108792	-0.332180	-0.519118
O44	O	1.442126	0.001154	-0.185784
O45	O	1.775459	0.334487	0.147549
O46	O	1.108654	-0.557471	-0.309385
O47	O	1.441987	-0.224137	0.023949
O48	O	1.775320	0.109196	0.357282
O49	O	1.018279	-0.557438	-0.399770
O50	O	1.351612	-0.224105	-0.066437
O51	O	1.684946	0.109228	0.266896
C52	C	0.872330	-0.380755	-0.354581
C53	C	1.205664	-0.047422	-0.021248
C54	C	1.538997	0.285912	0.312086
C55	C	0.790531	-0.380768	-0.354589
C56	C	1.123865	-0.047435	-0.021256
C57	C	1.457198	0.285899	0.312077
C58	C	0.602348	-0.431389	-0.401593
C59	C	0.935681	-0.098056	-0.068259
C60	C	1.269014	0.235277	0.265074
C61	C	0.525489	-0.431392	-0.401602
C62	C	0.858822	-0.098058	-0.068268
C63	C	1.192156	0.235275	0.265065
C64	C	0.525478	-0.330162	-0.307628
C65	C	0.858811	0.003171	0.025706
C66	C	1.192144	0.336505	0.359039
C67	C	0.602335	-0.330156	-0.307623
C68	C	0.935668	0.003177	0.025711
C69	C	1.269002	0.336511	0.359044
C70	C	0.640768	-0.380774	-0.354604
C71	C	0.974101	-0.047441	-0.021271
C72	C	1.307435	0.285893	0.312063
C73	C	0.487052	-0.380782	-0.354618
C74	C	0.820385	-0.047449	-0.021285
C75	C	1.153719	0.285884	0.312048
C76	C	0.403718	-0.380785	-0.354628
C77	C	0.737052	-0.047451	-0.021294
C78	C	1.070385	0.285882	0.312039
C79	C	0.724107	-0.380771	-0.354596
C80	C	1.057440	-0.047438	-0.021262
C81	C	1.390774	0.285896	0.312071
C82	C	1.063475	-0.586135	-0.354590
C83	C	1.396808	-0.252801	-0.021256
C84	C	1.730142	0.080532	0.312077
C85	C	1.063516	-0.673991	-0.354609
C86	C	1.396849	-0.340658	-0.021276
C87	C	1.730183	-0.007325	0.312058
C88	C	1.016547	-1.045480	-0.401661
C89	C	1.349880	-0.712147	-0.068328
C90	C	1.683213	-0.378813	0.265006
C91	C	1.110731	-1.045454	-0.307618
C92	C	1.444065	-0.712120	0.025715
C93	C	1.777398	-0.378787	0.359048
C94	C	1.110706	-0.962908	-0.307611
C95	C	1.444039	-0.629574	0.025722
C96	C	1.777372	-0.296241	0.359055
C97	C	1.063599	-0.921644	-0.354629
C98	C	1.396932	-0.588311	-0.021296
C99	C	1.730266	-0.254977	0.312037
C100	C	1.016518	-0.962926	-0.401654
C101	C	1.349851	-0.629593	-0.068321
C102	C	1.683185	-0.296260	0.265013
C103	C	1.157781	-0.921619	-0.260582
C104	C	1.491114	-0.588286	0.072751
C105	C	1.824447	-0.254953	0.406084
C106	C	1.157756	-0.839068	-0.260573
C107	C	1.491090	-0.505735	0.072760
C108	C	1.824423	-0.172402	0.406094
C109	C	1.110653	-0.797803	-0.307595
C110	C	1.443986	-0.464470	0.025738
C111	C	1.777319	-0.131137	0.359071
C112	C	1.063570	-0.839091	-0.354622
C113	C	1.396904	-0.505757	-0.021289
C114	C	1.730237	-0.172424	0.312044
C115	C	1.016464	-0.797827	-0.401640
C116	C	1.349797	-0.464494	-0.068307
C117	C	1.683130	-0.131160	0.265026
C118	C	0.969384	-0.839113	-0.448672
C119	C	1.302718	-0.505779	-0.115339
C120	C	1.636051	-0.172446	0.217995
C121	C	0.969414	-0.921661	-0.448676
C122	C	1.302748	-0.588328	-0.115343
C123	C	1.636081	-0.254995	0.217990
C124	C	1.110623	-0.715255	-0.307591
C125	C	1.443956	-0.381922	0.025742
C126	C	1.777289	-0.048588	0.359076
C127	C	1.016435	-0.715273	-0.401634
C128	C	1.349768	-0.381940	-0.068300
C129	C	1.683101	-0.048607	0.265033
C130	C	1.255489	-0.380783	-0.354624
C131	C	1.588823	-0.047449	-0.021290
C132	C	1.922156	0.285884	0.312043
C133	C	1.337288	-0.380789	-0.354633
C134	C	1.670622	-0.047455	-0.021300
C135	C	2.003955	0.285878	0.312034
C136	C	1.063581	-0.380714	-0.546555
C137	C	1.396915	-0.047381	-0.213222
C138	C	1.730248	0.285953	0.120112
C139	C	1.063601	-0.380691	-0.628354
C140	C	1.396934	-0.047357	-0.295021
C141	C	1.730267	0.285976	0.038313
C142	C	1.063619	-0.174600	-0.354631
C143	C	1.396952	0.158733	-0.021297
C144	C	1.730285	0.492067	0.312036
C145	C	1.063653	-0.086744	-0.354643
C146	C	1.396987	0.246590	-0.021310
C147	C	1.730320	0.579923	0.312024
C148	C	1.110707	-0.330092	-0.816562
C149	C	1.444040	0.003241	-0.483228
C150	C	1.777373	0.336575	-0.149895
C151	C	1.110716	-0.330069	-0.893420
C152	C	1.444049	0.003265	-0.560087
C153	C	1.777382	0.336598	-0.226754
C154	C	1.016546	-0.431167	-0.893384
C155	C	1.349880	-0.097834	-0.560051
C156	C	1.683213	0.235499	-0.226718
C157	C	1.016534	-0.431186	-0.816527
C158	C	1.349868	-0.097852	-0.483194
C159	C	1.683201	0.235481	-0.149860
C160	C	1.063619	-0.380649	-0.778118
C161	C	1.396952	-0.047316	-0.444784
C162	C	1.730285	0.286018	-0.111451
C163	C	1.063639	-0.380608	-0.931834
C164	C	1.396973	-0.047274	-0.598500
C165	C	1.730306	0.286059	-0.265167
C166	C	1.063649	-0.380583	-1.015168
C167	C	1.396982	-0.047250	-0.681834
C168	C	1.730315	0.286084	-0.348501
C169	C	1.063609	-0.380672	-0.694779
C170	C	1.396942	-0.047339	-0.361445
C171	C	1.730275	0.285994	-0.028112
C172	C	1.063534	-0.380766	-0.163396
C173	C	1.396868	-0.047432	0.169937
C174	C	1.730201	0.285901	0.503271
C175	C	1.063658	-0.380566	-0.081597
C176	C	1.396991	-0.047233	0.251736
C177	C	1.730324	0.286101	0.585069
H178	H	0.978077	-0.681682	-0.439924
H179	H	1.311411	-0.348348	-0.106591
H180	H	1.644744	-0.015015	0.226742
H181	H	1.196091	-0.805459	-0.222279
H182	H	1.529424	-0.472125	0.111055
H183	H	1.862758	-0.138792	0.444388
C184	C	1.162518	-0.274454	-0.935705
C185	C	1.495851	0.058880	-0.602372
C186	C	1.829184	0.392213	-0.269039
N187	N	1.201538	-0.232562	-0.967554
N188	N	1.534871	0.100772	-0.634220
N189	N	1.868204	0.434105	-0.300887
C190	C	0.964729	-0.486803	-0.774236
C191	C	1.298062	-0.153470	-0.440903
C192	C	1.631396	0.179864	-0.107570
N193	N	0.925709	-0.528690	-0.742383
N194	N	1.259042	-0.195357	-0.409049
N195	N	1.592375	0.137976	-0.075716
C196	C	0.483194	-0.274489	-0.255947
C197	C	0.816527	0.058844	0.077386
C198	C	1.149861	0.392177	0.410720
N199	N	0.451347	-0.232557	-0.217018
N200	N	0.784680	0.100776	0.116315
N201	N	1.118013	0.434110	0.449648
C202	C	0.483230	-0.487080	-0.453286
C203	C	0.816563	-0.153746	-0.119953
C204	C	1.149897	0.179587	0.213381
N205	N	0.451401	-0.529028	-0.492215
N206	N	0.784735	-0.195695	-0.158882
N207	N	1.118068	0.137638	0.174452
C208	C	0.644621	-0.487065	-0.453279
C209	C	0.977955	-0.153731	-0.119945
C210	C	1.311288	0.179602	0.213388
N211	N	0.676460	-0.528999	-0.492213
N212	N	1.009793	-0.195665	-0.158879
N213	N	1.343126	0.137668	0.174454
C214	C	0.644600	-0.274473	-0.255929
C215	C	0.977933	0.058860	0.077404
C216	C	1.311266	0.392194	0.410738
N217	N	0.676434	-0.232533	-0.216996
N218	N	1.009767	0.100800	0.116338
N219	N	1.343100	0.434134	0.449671
C220	C	1.209584	-0.967014	-0.208855
C221	C	1.542917	-0.633681	0.124478
C222	C	1.876250	-0.300347	0.457811
N223	N	1.248602	-1.001209	-0.169891
N224	N	1.581935	-0.667876	0.163442
N225	N	1.915268	-0.334543	0.496776
C226	C	0.917568	-0.793712	-0.500390
C227	C	1.250901	-0.460379	-0.167056
C228	C	1.584235	-0.127046	0.166277
N229	N	0.878542	-0.759513	-0.539343
N230	N	1.211875	-0.426180	-0.206009
N231	N	1.545208	-0.092846	0.127324
H232	H	1.149044	-0.288940	-0.785291
H233	H	1.482377	0.044394	-0.451958
H234	H	1.815711	0.377727	-0.118624
H235	H	0.978214	-0.472314	-0.924667
H236	H	1.311547	-0.138981	-0.591333
H237	H	1.644880	0.194353	-0.258000
H238	H	0.931084	-0.955284	-0.486966
H239	H	1.264418	-0.621950	-0.153633
H240	H	1.597751	-0.288617	0.179701
H241	H	0.978218	-1.079098	-0.439955
H242	H	1.311551	-0.745765	-0.106622
H243	H	1.644885	-0.412432	0.226712
H244	H	1.149079	-1.079055	-0.269334
H245	H	1.482413	-0.745722	0.063999
H246	H	1.815746	-0.412389	0.397333
H247	H	1.148950	-0.681644	-0.269295
H248	H	1.482284	-0.348310	0.064038
H249	H	1.815617	-0.014977	0.397372
