data_functionalizedCrystal
_audit_creation_method	'MofGen! by Chris Wilmer'
_symmetry_space_group_name_H-M	'P1'
_symmetry_Int_Tables_number	1
_symmetry_cell_setting	triclinic
loop_
_symmetry_equiv_pos_as_xyz
  x,y,z
_cell_length_a	11.792254
_cell_length_b	10.723022
_cell_length_c	9.798715
_cell_angle_alpha	89.998022
_cell_angle_beta	89.996361
_cell_angle_gamma	84.332912
loop_
_atom_site_label
_atom_site_type_symbol
_atom_site_fract_x
_atom_site_fract_y
_atom_site_fract_z
O1	O	1.507273	0.171111	-0.113486
O2	O	1.176972	0.188722	-0.113489
O3	O	1.349742	-0.001679	-0.113482
O4	O	1.334503	0.361513	-0.113493
O5	O	1.349729	-0.001680	0.113500
O6	O	1.176959	0.188722	0.113493
O7	O	1.507260	0.171111	0.113496
Zn8	Zn	1.342107	0.179916	0.149533
Zn9	Zn	1.342125	0.179917	-0.149526
O10	O	1.334490	0.361512	0.113490
C11	C	1.134673	0.187613	0.000002
C12	C	1.008652	0.184292	0.000001
C13	C	1.348627	-0.048176	0.000007
C14	C	1.345310	-0.186722	0.000002
C15	C	1.245680	-0.235024	-0.000001
C16	C	1.242249	-0.378218	-0.000006
C17	C	0.906310	0.181594	-0.000005
C18	C	0.777916	0.178221	-0.000006
C19	C	1.549559	0.172220	0.000002
C20	C	1.675580	0.175541	-0.000006
C21	C	1.335605	0.408009	-0.000003
C22	C	1.338922	0.546555	-0.000007
N23	N	1.342104	0.179915	0.353633
N24	N	1.342137	0.179908	-0.353625
C25	C	1.414646	0.099619	0.421412
C26	C	1.414664	0.099615	0.578575
H27	H	1.162922	-0.170367	0.000007
Cl28	Cl	1.470634	-0.389249	-0.000013
Cl29	Cl	1.110541	-0.442423	-0.000021
Cl30	Cl	1.246248	0.286060	0.556398
Cl31	Cl	1.246228	0.286045	0.443668
H32	H	1.428068	-0.251379	0.000007
H33	H	1.476734	0.030873	0.363092
Cl34	Cl	1.510561	-0.006520	0.668561
