data_functionalizedCrystal
_audit_creation_method	'MofGen! by Chris Wilmer'
_symmetry_space_group_name_H-M	'P1'
_symmetry_Int_Tables_number	1
_symmetry_cell_setting	triclinic
loop_
_symmetry_equiv_pos_as_xyz
  x,y,z
_cell_length_a	27.440280
_cell_length_b	23.196402
_cell_length_c	23.196401
_cell_angle_alpha	59.999265
_cell_angle_beta	90.000797
_cell_angle_gamma	59.994614
loop_
_atom_site_label
_atom_site_type_symbol
_atom_site_fract_x
_atom_site_fract_y
_atom_site_fract_z
Zr1	Zr	0.469500	0.630957	-0.075653
O2	O	0.391670	0.751247	-0.167704
O3	O	0.493357	0.510684	-0.047439
O4	O	0.493341	0.630970	-0.167713
O5	O	0.391701	0.630944	0.047450
O6	O	0.573543	0.630961	-0.167717
O7	O	0.391686	0.630961	-0.047429
O8	O	0.573571	0.415791	0.047433
O9	O	0.391672	0.846114	-0.167700
O10	O	0.563388	0.560141	-0.035404
O11	O	0.503545	0.560135	0.035406
O12	O	0.503526	0.701756	-0.106202
O13	O	0.443683	0.701751	-0.035392
Zr14	Zr	0.597436	0.630916	0.075662
Zr15	Zr	0.597413	0.630942	-0.075659
Zr16	Zr	0.469523	0.630931	0.075667
Zr17	Zr	0.469503	0.782259	-0.075647
Zr18	Zr	0.597433	0.479613	0.075655
O19	O	0.573579	0.751189	0.047447
O20	O	0.573545	0.751226	-0.167712
O21	O	0.391703	0.751210	0.047455
O22	O	0.675266	0.510626	0.167712
O23	O	0.675232	0.510663	-0.047447
O24	O	0.493390	0.510647	0.167720
O25	O	0.675235	0.630928	-0.047441
O26	O	0.573595	0.630903	0.167722
O27	O	0.493393	0.630912	0.167725
O28	O	0.675250	0.630912	0.047437
O29	O	0.493346	0.846102	-0.167704
O30	O	0.573590	0.415770	0.167712
O31	O	0.675264	0.415759	0.167708
O32	O	0.675245	0.415779	0.047428
O33	O	0.391691	0.846093	-0.047420
O34	O	0.493364	0.846082	-0.047424
O35	O	0.563410	0.560116	0.106210
O36	O	0.623253	0.560121	0.035401
O37	O	0.563391	0.701737	-0.035398
O38	O	0.503548	0.701732	0.035412
C39	C	0.533463	0.441680	-0.000004
C40	C	0.533462	0.377448	-0.000007
C41	C	0.373468	0.630955	0.000011
C42	C	0.319166	0.630961	0.000013
C43	C	0.564695	0.347281	-0.036971
C44	C	0.564701	0.286920	-0.036966
C45	C	0.533462	0.256740	-0.000005
C46	C	0.502227	0.286912	0.036968
C47	C	0.502227	0.347266	0.036967
C48	C	0.481128	0.194718	-0.005277
C49	C	0.481126	0.134368	-0.005282
C50	C	0.533463	0.070585	0.000002
C51	C	0.585800	0.067167	0.005276
C52	C	0.585800	0.127521	0.005275
C53	C	0.533459	0.191296	0.000001
C54	C	0.564705	-0.025034	-0.036958
C55	C	0.564712	-0.085399	-0.036947
C56	C	0.502233	-0.085400	0.036982
C57	C	0.502231	-0.025041	0.036975
C58	C	0.533466	0.005141	0.000002
C59	C	-0.017540	0.630927	-0.052266
C60	C	-0.068558	0.630921	-0.052267
O61	O	-0.094940	0.630898	-0.096705
N62	N	-0.094067	0.630914	0.000002
C63	C	-0.068553	0.630904	0.052278
O64	O	-0.094935	0.630896	0.096737
C65	C	-0.017534	0.630904	0.052281
C66	C	0.007970	0.630920	0.000005
C67	C	0.007964	0.630942	-0.104538
C68	C	0.058978	0.630949	-0.104538
C69	C	0.084488	0.630942	-0.052267
C70	C	0.058984	0.630927	0.000005
C71	C	0.007982	0.630888	0.104560
C72	C	0.059006	0.630887	0.104559
C73	C	0.084509	0.630903	0.052282
C74	C	0.135507	0.630927	0.052276
N75	N	0.161017	0.630934	0.000007
C76	C	0.135507	0.630942	-0.052264
C77	C	-0.175697	0.630902	0.052270
C78	C	-0.226718	0.630908	0.052265
C79	C	-0.226718	0.630924	-0.052280
C80	C	-0.175699	0.630924	-0.052278
C81	C	-0.150187	0.630910	0.000001
C82	C	0.242639	0.630958	-0.052261
C83	C	0.293656	0.630969	-0.052258
C84	C	0.293654	0.630948	0.052289
C85	C	0.242640	0.630942	0.052284
C86	C	0.217135	0.630944	0.000006
O87	O	0.161923	0.630946	0.096693
O88	O	0.161900	0.630939	-0.096710
C89	C	0.693467	0.630918	-0.000003
C90	C	0.747770	0.630912	-0.000005
C91	C	0.533438	0.630969	-0.189275
C92	C	0.533428	0.630980	-0.253515
C93	C	0.533472	0.820193	0.000012
C94	C	0.533474	0.884424	0.000015
C95	C	0.577614	0.630976	-0.283680
C96	C	0.577627	0.630960	-0.344026
C97	C	0.533446	0.630963	-0.374214
C98	C	0.489256	0.630962	-0.344039
C99	C	0.489248	0.630971	-0.283690
C100	C	0.479526	0.678464	-0.493591
C101	C	0.479534	0.678461	-0.553942
C102	C	0.533472	0.630934	-0.560350
C103	C	0.587405	0.583421	-0.506405
C104	C	0.587396	0.583430	-0.446055
C105	C	0.533450	0.630954	-0.439652
C106	C	0.577675	0.630912	-0.655949
C107	C	0.577689	0.630890	-0.716294
C108	C	0.489313	0.630901	-0.716310
C109	C	0.489305	0.630915	-0.655962
C110	C	0.533485	0.630924	-0.625787
C111	C	0.533497	0.630904	0.189283
C112	C	0.533508	0.630893	0.253523
C113	C	0.693463	0.441662	-0.000011
C114	C	0.747764	0.377423	-0.000016
C115	C	0.533493	0.441647	0.189275
C116	C	0.533502	0.377405	0.253512
C117	C	0.693493	0.441629	0.189268
C118	C	0.747804	0.377380	0.253503
C119	C	0.373443	0.820244	-0.189260
C120	C	0.319132	0.884493	-0.253495
C121	C	0.373473	0.820211	0.000019
C122	C	0.319172	0.884449	0.000024
C123	C	0.533443	0.820225	-0.189267
C124	C	0.533434	0.884468	-0.253504
C125	C	0.742015	0.347267	-0.036984
C126	C	0.793032	0.286916	-0.037003
C127	C	0.849797	0.256720	-0.000049
C128	C	0.855544	0.286883	0.036920
C129	C	0.804528	0.347236	0.036934
C130	C	0.564754	0.347226	0.320644
C131	C	0.564760	0.286871	0.381007
C132	C	0.533516	0.256692	0.374237
C133	C	0.502260	0.286877	0.307098
C134	C	0.502251	0.347235	0.246736
C135	C	0.804551	0.347211	0.246706
C136	C	0.855587	0.286850	0.307056
C137	C	0.849874	0.256656	0.374201
C138	C	0.793120	0.286831	0.380996
C139	C	0.742086	0.347195	0.320648
C140	C	0.262385	0.914669	-0.246698
C141	C	0.211349	0.975049	-0.307047
C142	C	0.217062	1.005246	-0.374193
C143	C	0.273816	0.975067	-0.380988
C144	C	0.324850	0.914693	-0.320639
C145	C	0.324920	0.914612	0.036986
C146	C	0.273904	0.974979	0.036988
C147	C	0.217139	1.005178	0.000032
C148	C	0.211392	0.975012	-0.036934
C149	C	0.262408	0.914650	-0.036940
C150	C	0.564684	0.914627	-0.246711
C151	C	0.564688	0.974982	-0.307063
C152	C	0.533438	1.005181	-0.374206
C153	C	0.502187	0.975016	-0.380998
C154	C	0.502187	0.914658	-0.320647
H155	H	0.590130	0.371851	-0.067075
N156	N	0.598390	0.254370	-0.076834
H157	H	0.618178	0.282648	-0.100256
H158	H	0.569693	0.264883	-0.113986
N159	N	0.786819	0.254395	-0.076879
H160	H	0.764285	0.229354	-0.057483
H161	H	0.827766	0.211615	-0.071279
H162	H	0.590197	0.371790	0.326170
N163	N	0.468540	0.007498	0.076845
H164	H	0.424830	0.032544	0.057461
H165	H	0.473326	0.050278	0.071227
H166	H	-0.154930	0.630897	0.094840
N167	N	0.279968	1.007640	-0.453413
H168	H	0.302498	0.961598	-0.459078
H169	H	0.302489	1.032692	-0.459034
N170	N	0.215120	0.630932	0.108658
H171	H	0.202742	0.681201	0.106380
H172	H	0.245280	0.580625	0.156613
H173	H	0.628419	0.015227	0.009587
H174	H	0.476803	0.371799	0.192077
N175	N	0.598393	0.007523	-0.076831
H176	H	0.618185	-0.020754	-0.100243
H177	H	0.629806	-0.002983	-0.042898
H178	H	0.613673	0.630882	-0.740853
H179	H	0.221880	0.630958	-0.094830
N180	N	0.280106	1.007514	0.076856
H181	H	0.302647	0.961459	0.128560
H182	H	0.239154	1.050351	0.071190
H183	H	0.533528	0.207546	0.423393
N184	N	0.904918	0.191537	0.439292
H185	H	0.904956	0.212525	0.468352
H186	H	0.941704	0.177028	0.424739
H187	H	0.891332	0.207576	-0.000066
N188	N	0.256208	0.882111	-0.174285
H189	H	0.233675	0.928160	-0.168628
H190	H	0.297164	0.839270	-0.137120
N191	N	0.150141	1.007590	-0.299709
H192	H	0.154271	0.979289	-0.248014
H193	H	0.127602	0.997100	-0.323145
H194	H	0.453323	0.630922	-0.631402
N195	N	0.468571	0.254315	0.299800
H196	H	0.424857	0.300357	0.273143
H197	H	0.473373	0.211485	0.348253
H198	H	0.453266	0.630973	-0.259129
N199	N	0.786963	0.254260	0.453419
H200	H	0.827907	0.211440	0.490612
H201	H	0.764407	0.229258	0.459015
H202	H	0.590215	0.262301	0.435668
N203	N	0.086482	0.630951	-0.160918
H204	H	0.128902	0.580678	-0.138115
H205	H	0.086357	0.681255	-0.188373
N206	N	0.642247	0.123830	0.010966
H207	H	0.674495	0.071403	0.056661
H208	H	0.634252	0.171779	0.010131
N209	N	0.468541	-0.117946	0.076850
H210	H	0.484941	-0.142993	0.128553
H211	H	0.473293	-0.160728	0.071189
H212	H	0.809214	0.371786	0.192038
N213	N	0.162015	1.070363	-0.439280
H214	H	0.125200	1.084891	-0.424779
H215	H	0.162034	1.049321	-0.468307
N216	N	0.598387	1.007522	-0.299733
H217	H	0.629832	0.997014	-0.323119
H218	H	0.618139	0.979225	-0.248027
H219	H	0.371055	0.890123	-0.326182
H220	H	0.175604	1.054328	0.000043
N221	N	0.598404	-0.117944	-0.076814
H222	H	0.618189	-0.089662	-0.100236
H223	H	0.569710	-0.107437	-0.113965
H224	H	0.438509	0.137160	-0.009579
H225	H	0.631310	0.544741	-0.402134
N226	N	0.916795	0.254310	0.299717
H227	H	0.912665	0.282595	0.248023
H228	H	0.939331	0.193719	0.323149
N229	N	0.533446	1.070274	-0.439296
H230	H	0.557988	1.084792	-0.424798
H231	H	0.491115	1.120328	-0.468324
H232	H	0.476743	0.999613	-0.435674
N233	N	0.468475	0.882140	-0.327985
H234	H	0.424768	0.928206	-0.354651
H235	H	0.473258	0.839308	-0.279547
N236	N	0.424677	0.263510	-0.010974
H237	H	0.391522	0.256523	-0.014321
H238	H	0.413031	0.317249	-0.054592
H239	H	0.371136	0.890029	0.067084
N240	N	0.916770	0.254311	0.076774
H241	H	0.948211	0.211500	0.071153
H242	H	0.921509	0.229298	0.128464
H243	H	0.809217	0.371782	0.067042
N244	N	0.468537	0.254361	0.076838
H245	H	0.473275	0.211549	0.071229
H246	H	0.424842	0.300460	0.057437
H247	H	0.476792	0.371829	0.067068
N248	N	0.680880	0.379728	0.327983
H249	H	0.685011	0.351434	0.379678
H250	H	0.658348	0.369222	0.304558
H251	H	0.314419	0.630983	-0.094830
H252	H	-0.012800	0.630945	-0.147104
H253	H	0.453342	0.630900	-0.740886
N254	N	-0.148194	0.630942	-0.108661
H255	H	-0.172101	0.630949	-0.141773
H256	H	-0.105773	0.580669	-0.085807
N257	N	0.150166	1.007573	-0.076778
H258	H	0.118725	1.050381	-0.071153
H259	H	0.145447	0.961472	-0.057358
H260	H	0.590132	0.890049	-0.192045
N261	N	-0.254238	0.630934	-0.108662
H262	H	-0.290427	0.630929	-0.100726
H263	H	-0.224070	0.580665	-0.106355
N264	N	-0.254229	0.630906	0.108640
H265	H	-0.230323	0.630903	0.141751
H266	H	-0.254141	0.580630	0.136054
H267	H	0.257719	0.890093	-0.067036
H268	H	0.631326	0.544720	-0.511618
H269	H	-0.012775	0.630875	0.147128
H270	H	0.435599	0.717159	-0.488378
N271	N	0.086525	0.630864	0.160950
H272	H	0.062624	0.630852	0.194063
H273	H	0.086439	0.681137	0.138101
H274	H	0.314431	0.630946	0.094846
H275	H	0.613589	0.630981	-0.259112
H276	H	0.613609	0.630957	-0.368591
H277	H	0.613651	0.630916	-0.631378
N278	N	0.421367	0.729700	-0.612120
H279	H	0.387195	0.759799	-0.598899
H280	H	0.415995	0.693246	-0.618932
H281	H	0.695799	0.371852	-0.067085
H282	H	0.453284	0.630963	-0.368620
