data_functionalizedCrystal
_audit_creation_method	'MofGen! by Chris Wilmer'
_symmetry_space_group_name_H-M	'P1'
_symmetry_Int_Tables_number	1
_symmetry_cell_setting	triclinic
loop_
_symmetry_equiv_pos_as_xyz
  x,y,z
_cell_length_a	18.760490
_cell_length_b	14.560438
_cell_length_c	14.560438
_cell_angle_alpha	60.006784
_cell_angle_beta	90.018668
_cell_angle_gamma	60.023932
loop_
_atom_site_label
_atom_site_type_symbol
_atom_site_fract_x
_atom_site_fract_y
_atom_site_fract_z
Zr1	Zr	0.686571	1.005557	-0.120275
O2	O	0.572784	1.197081	-0.266911
O3	O	0.721449	0.813991	-0.075343
O4	O	0.721455	1.005576	-0.266917
O5	O	0.572779	1.005497	0.075803
O6	O	0.838733	1.005638	-0.266900
O7	O	0.572779	1.005497	-0.075337
O8	O	0.838723	0.662929	0.075792
O9	O	0.572789	1.348207	-0.266889
O10	O	0.823853	0.892848	-0.056143
O11	O	0.736329	0.892801	0.056638
O12	O	0.736336	1.118367	-0.168917
O13	O	0.648812	1.118321	-0.056136
Zr14	Zr	0.873617	1.005658	0.120803
Zr15	Zr	0.873617	1.005657	-0.120247
Zr16	Zr	0.686572	1.005558	0.120775
Zr17	Zr	0.686579	1.246585	-0.120240
Zr18	Zr	0.873610	0.764630	0.120767
O19	O	0.838740	1.197224	0.075870
O20	O	0.838739	1.197223	-0.266871
O21	O	0.572785	1.197082	0.075831
O22	O	0.987404	0.814134	0.267439
O23	O	0.987404	0.814133	-0.075303
O24	O	0.721449	0.813992	0.267399
O25	O	0.987410	1.005718	-0.075275
O26	O	0.838734	1.005639	0.267445
O27	O	0.721455	1.005577	0.267427
O28	O	0.987410	1.005718	0.075864
O29	O	0.721465	1.348286	-0.266867
O30	O	0.838723	0.662929	0.267395
O31	O	0.987400	0.663008	0.267417
O32	O	0.987399	0.663008	0.075814
O33	O	0.572789	1.348207	-0.075287
O34	O	0.721466	1.348286	-0.075264
O35	O	0.823853	0.892848	0.169444
O36	O	0.911376	0.892894	0.056664
O37	O	0.823860	1.118414	-0.056110
O38	O	0.736336	1.118368	0.056671
C39	C	0.780085	0.704119	0.000220
C40	C	0.780082	0.601796	0.000205
C41	C	0.715477	0.636888	-0.083026
C42	C	0.715491	0.540699	-0.082970
C43	C	0.844718	0.374327	0.083558
C44	C	0.844707	0.470515	0.083496
C45	C	0.640867	0.732941	-0.179167
C46	C	0.640881	0.636752	-0.179110
C47	C	0.546129	1.005483	0.000229
C48	C	0.466723	1.005440	0.000217
C49	C	0.130735	1.005740	-0.082967
C50	C	0.130851	1.005741	0.083569
C51	C	0.205498	1.005676	0.083551
C52	C	0.242767	1.005642	0.000273
C53	C	0.205390	1.005672	-0.082986
C54	C	0.242885	1.005633	0.166815
C55	C	0.317537	1.005567	0.166801
C56	C	0.354804	1.005542	0.083517
C57	C	0.317422	1.005573	0.000254
C58	C	0.354691	1.005539	-0.083023
C59	C	0.317306	1.005580	-0.166292
C60	C	0.242657	1.005647	-0.166269
C61	C	0.429454	1.005475	0.083494
C62	C	0.429346	1.005471	-0.083042
C63	C	1.014060	1.005732	0.000299
C64	C	1.093466	1.005775	0.000311
C65	C	0.780094	1.005607	-0.301253
C66	C	0.780094	1.005607	-0.403585
C67	C	0.780104	1.307096	0.000308
C68	C	0.780107	1.409419	0.000323
C69	C	0.715485	1.005567	-0.451665
C70	C	0.715484	1.005572	-0.547820
C71	C	0.844707	1.005652	-0.547802
C72	C	0.844704	1.005656	-0.451654
C73	C	0.640881	1.005515	-0.451673
C74	C	0.640880	1.005520	-0.547828
C75	C	0.780095	1.005608	0.301780
C76	C	0.780095	1.005608	0.404112
C77	C	1.014051	0.704243	0.000255
C78	C	1.093453	0.601963	0.000251
C79	C	0.780085	0.704119	0.301736
C80	C	0.780082	0.601797	0.404053
C81	C	1.014051	0.704244	0.301771
C82	C	1.093454	0.601964	0.404100
C83	C	0.546138	1.306971	-0.301243
C84	C	0.466735	1.409251	-0.403572
C85	C	0.546138	1.306972	0.000273
C86	C	0.466735	1.409252	0.000276
C87	C	0.780103	1.307096	-0.301209
C88	C	0.780106	1.409418	-0.403526
C89	C	1.085055	0.553907	-0.058644
C90	C	1.159655	0.457817	-0.058670
C91	C	1.242653	0.409779	0.000208
C92	C	1.251049	0.457845	0.059105
C93	C	1.176450	0.553939	0.059123
C94	C	1.176436	0.553957	0.393284
C95	C	1.251051	0.457867	0.489424
C96	C	1.242681	0.409780	0.596378
C97	C	1.159690	0.457797	0.607192
C98	C	1.085077	0.553892	0.511053
C99	C	0.383752	1.457270	-0.392757
C100	C	0.309138	1.553389	-0.488896
C101	C	0.317508	1.601481	-0.595850
C102	C	0.400499	1.553458	-0.606664
C103	C	0.475112	1.457347	-0.510525
C104	C	0.475134	1.457318	0.059162
C105	C	0.400533	1.553434	0.059161
C106	C	0.317536	1.601476	0.000280
C107	C	0.309140	1.553406	-0.058613
C108	C	0.383739	1.457298	-0.058618
C109	C	0.825769	0.553745	0.511006
C110	C	0.825759	0.457608	0.607140
C111	C	0.734375	0.457578	0.489354
C112	C	0.734380	0.553720	0.393223
C113	C	0.878532	0.553758	0.579009
C114	C	0.878522	0.457620	0.675143
H115	H	0.581529	0.792583	-0.162380
C116	C	0.566390	1.404486	-0.522430
H117	H	0.609635	1.340350	-0.449862
H118	H	0.572893	1.367002	-0.562394
H119	H	0.572958	1.473492	-0.562372
C120	C	0.374533	1.404387	-0.275117
H121	H	0.430849	1.340260	-0.219399
H122	H	0.343540	1.473391	-0.266678
H123	H	0.343525	1.366867	-0.266696
H124	H	0.241570	1.592474	-0.480070
H125	H	0.577165	0.647532	-0.170810
H126	H	0.581540	1.098754	-0.624282
H127	H	0.897321	0.441932	0.151261
C128	C	1.324704	0.304066	0.000190
H129	H	1.307807	0.282322	-0.043311
H130	H	1.358465	0.335580	-0.031322
H131	H	1.358450	0.229059	0.075202
H132	H	1.183300	0.593055	0.107090
C133	C	0.831495	0.506394	0.743932
H134	H	0.810566	0.594636	0.708049
H135	H	0.783792	0.499254	0.748758
H136	H	0.871121	0.455390	0.817425
C137	C	1.150408	0.404947	-0.123446
H138	H	1.206719	0.340846	-0.115042
H139	H	1.119410	0.367422	-0.094367
H140	H	1.119399	0.473964	-0.200904
H141	H	1.303443	0.331534	0.674651
C142	C	0.358307	1.005542	-0.257891
H143	H	0.408118	1.005499	-0.245972
H144	H	0.375241	0.930249	-0.254450
H145	H	0.316859	1.080877	-0.329765
H146	H	0.946078	0.517663	0.570285
C147	C	0.658486	0.636709	-0.282390
H148	H	0.666311	0.703255	-0.328426
H149	H	0.709706	0.554945	-0.258232
H150	H	0.610288	0.651922	-0.324239
C151	C	1.185661	0.606839	0.275648
H152	H	1.245773	0.564484	0.282992
H153	H	1.158461	0.591064	0.235681
H154	H	1.158455	0.697599	0.235704
H155	H	1.318635	0.418718	0.107040
H156	H	0.212542	1.005651	0.234622
H157	H	0.347970	1.005535	0.234601
H158	H	0.542708	1.418210	0.107117
C159	C	0.201537	1.005682	-0.257848
H160	H	0.151747	1.005713	-0.245900
H161	H	0.184552	1.080980	-0.329727
H162	H	0.242945	0.930351	-0.254398
C163	C	0.409699	1.606350	-0.724314
H164	H	0.469806	1.563996	-0.716998
H165	H	0.382480	1.590579	-0.764262
H166	H	0.382496	1.697110	-0.764259
C167	C	0.915777	1.005694	-0.600675
H168	H	0.906529	1.005679	-0.664821
H169	H	0.913101	1.081017	-0.622572
H170	H	0.971552	0.930388	-0.547249
C171	C	1.342330	0.405053	0.477509
H172	H	1.336622	0.447443	0.400041
H173	H	1.373343	0.420833	0.512559
H174	H	1.373331	0.314296	0.512563
C175	C	0.470569	1.005441	0.175072
H176	H	0.437679	1.005477	0.224668
H177	H	0.528888	0.930111	0.216185
H178	H	0.470488	1.080740	0.140856
C179	C	1.150489	0.404897	0.724841
H180	H	1.090382	0.447252	0.717525
H181	H	1.177703	0.314142	0.764783
H182	H	1.177698	0.420682	0.764793
H183	H	0.100508	1.005759	0.151376
H184	H	0.948377	0.367642	0.727338
C185	C	0.993801	0.606675	0.522964
H186	H	0.999510	0.564257	0.600433
H187	H	0.962782	0.697427	0.487917
H188	H	0.962804	0.590875	0.487909
C189	C	0.235429	1.707183	-0.701593
H190	H	0.184811	1.728875	-0.679823
H191	H	0.235410	1.782208	-0.745093
H192	H	0.235420	1.675656	-0.745086
C193	C	0.470339	1.005433	-0.174647
H194	H	0.520151	1.005393	-0.162739
H195	H	0.487270	0.930139	-0.171203
H196	H	0.428886	1.080768	-0.246519
C197	C	0.409780	1.606299	0.123943
H198	H	0.353469	1.670433	0.115506
H199	H	0.440776	1.537294	0.201398
H200	H	0.440792	1.643809	0.094870
C201	C	0.235485	1.707189	0.000298
H202	H	0.252381	1.728920	0.043812
H203	H	0.201730	1.782191	-0.074705
H204	H	0.201731	1.675656	0.031825
H205	H	0.100293	1.005779	-0.150766
H206	H	0.849191	0.643746	0.579036
H207	H	0.897307	1.005705	-0.412516
H208	H	0.577161	1.095871	-0.470778
C209	C	0.658486	0.879542	-0.348395
H210	H	0.666323	0.823443	-0.368937
H211	H	0.709700	0.837712	-0.290738
H212	H	0.610283	0.899755	-0.321804
C213	C	0.649533	0.883437	-0.522054
H214	H	0.653107	0.833215	-0.446200
H215	H	0.600004	0.908556	-0.570865
H216	H	0.700832	0.833218	-0.533184
C217	C	0.993768	0.606739	-0.123421
H218	H	0.999463	0.564356	-0.158507
H219	H	0.962757	0.590964	-0.072616
H220	H	0.962771	0.697496	-0.179130
C221	C	0.217840	1.606251	-0.123367
H222	H	0.174621	1.670361	-0.114911
H223	H	0.211279	1.643760	-0.200827
H224	H	0.211289	1.537226	-0.094286
C225	C	0.374490	1.404419	-0.123379
H226	H	0.314374	1.446791	-0.158431
H227	H	0.401692	1.420175	-0.179095
H228	H	0.401683	1.313663	-0.072555
C229	C	0.684142	0.606554	0.275578
H230	H	0.656937	0.564132	0.282901
H231	H	0.640912	0.697301	0.235610
H232	H	0.723596	0.590790	0.235648
H233	H	0.647289	0.795919	-0.261297
C234	C	0.684108	0.404692	0.477443
H235	H	0.656895	0.447089	0.399975
H236	H	0.723534	0.313945	0.512495
H237	H	0.640869	0.420443	0.512496
H238	H	0.897333	0.267430	0.151371
