data_functionalizedCrystal
_audit_creation_method	'MofGen! by Chris Wilmer'
_symmetry_space_group_name_H-M	'P1'
_symmetry_Int_Tables_number	1
_symmetry_cell_setting	triclinic
loop_
_symmetry_equiv_pos_as_xyz
  x,y,z
_cell_length_a	15.995343
_cell_length_b	15.995350
_cell_length_c	17.766277
_cell_angle_alpha	89.995869
_cell_angle_beta	89.994960
_cell_angle_gamma	83.490779
loop_
_atom_site_label
_atom_site_type_symbol
_atom_site_fract_x
_atom_site_fract_y
_atom_site_fract_z
O1	O	1.110995	0.107897	-0.062515
O2	O	1.444329	0.441230	0.270818
O3	O	1.777662	0.774563	0.604152
O4	O	0.867219	0.121231	-0.062533
O5	O	1.200553	0.454564	0.270801
O6	O	1.533886	0.787898	0.604134
O7	O	0.995771	-0.007324	-0.062523
O8	O	1.329104	0.326009	0.270811
O9	O	1.662438	0.659343	0.604144
O10	O	0.982444	0.236452	-0.062525
O11	O	1.315777	0.569785	0.270808
O12	O	1.649110	0.903118	0.604142
O13	O	0.995748	-0.007330	0.062666
O14	O	1.329082	0.326003	0.395999
O15	O	1.662415	0.659336	0.729333
O16	O	0.867197	0.121225	0.062656
O17	O	1.200530	0.454558	0.395989
O18	O	1.533863	0.787891	0.729323
O19	O	1.110973	0.107890	0.062674
O20	O	1.444306	0.441224	0.396007
O21	O	1.777639	0.774557	0.729340
Cu22	Cu	0.989083	0.114557	0.074095
Cu23	Cu	1.322416	0.447890	0.407429
Cu24	Cu	1.655749	0.781223	0.740762
Cu25	Cu	0.989109	0.114565	-0.073954
Cu26	Cu	1.322443	0.447898	0.259379
Cu27	Cu	1.655776	0.781231	0.592712
O28	O	0.982421	0.236445	0.062664
O29	O	1.315754	0.569779	0.395997
O30	O	1.649088	0.903112	0.729330
C31	C	0.836013	0.120678	0.000059
C32	C	1.169346	0.454011	0.333393
C33	C	1.502680	0.787344	0.666726
C34	C	0.743062	0.119028	0.000053
C35	C	1.076396	0.452362	0.333386
C36	C	1.409729	0.785695	0.666719
C37	C	0.572876	0.116035	0.000063
C38	C	0.906209	0.449368	0.333396
C39	C	1.239543	0.782702	0.666729
C40	C	0.549530	0.023238	0.000063
C41	C	0.882864	0.356571	0.333397
C42	C	1.216197	0.689905	0.666730
C43	C	0.452852	0.021492	0.000352
C44	C	0.786186	0.354825	0.333685
C45	C	1.119519	0.688159	0.667019
C46	C	0.405316	0.113086	0.000072
C47	C	0.738649	0.446420	0.333405
C48	C	1.071983	0.779753	0.666738
C49	C	0.434395	0.159742	0.071418
C50	C	0.767728	0.493076	0.404751
C51	C	1.101061	0.826409	0.738085
C52	C	0.531187	0.160843	0.071473
C53	C	0.864521	0.494176	0.404807
C54	C	1.197854	0.827510	0.738140
C55	C	0.531123	0.162209	-0.070894
C56	C	0.864457	0.495543	0.262439
C57	C	1.197790	0.828876	0.595772
C58	C	0.434629	0.158784	-0.071828
C59	C	0.767962	0.492117	0.261506
C60	C	1.101295	0.825450	0.594839
C61	C	0.310618	0.111425	0.000079
C62	C	0.643951	0.444758	0.333413
C63	C	0.977284	0.778092	0.666746
C64	C	0.667574	0.117699	0.000060
C65	C	1.000907	0.451032	0.333393
C66	C	1.334240	0.784366	0.666727
C67	C	0.995209	-0.038522	0.000070
C68	C	1.328542	0.294811	0.333404
C69	C	1.661875	0.628145	0.666737
C70	C	0.993557	-0.131472	0.000066
C71	C	1.326890	0.201861	0.333399
C72	C	1.660224	0.535194	0.666733
C73	C	0.987625	-0.469220	0.000068
C74	C	1.320958	-0.135886	0.333401
C75	C	1.654291	0.197447	0.666735
C76	C	0.896072	-0.421783	-0.000219
C77	C	1.229406	-0.088450	0.333114
C78	C	1.562739	0.244884	0.666447
C79	C	0.897725	-0.325093	0.000063
C80	C	1.231058	0.008241	0.333396
C81	C	1.564391	0.341574	0.666730
C82	C	0.990567	-0.301659	0.000067
C83	C	1.323901	0.031674	0.333400
C84	C	1.657234	0.365008	0.666733
C85	C	1.035711	-0.342742	0.071557
C86	C	1.369044	-0.009408	0.404891
C87	C	1.702378	0.323925	0.738224
C88	C	1.033411	-0.439377	0.071617
C89	C	1.366745	-0.106044	0.404950
C90	C	1.700078	0.227289	0.738284
C91	C	1.035328	-0.439728	-0.070746
C92	C	1.368662	-0.106395	0.262588
C93	C	1.701995	0.226939	0.595921
C94	C	1.035307	-0.342783	-0.071690
C95	C	1.368640	-0.009449	0.261643
C96	C	1.701973	0.323884	0.594976
C97	C	0.992235	-0.206962	0.000068
C98	C	1.325568	0.126372	0.333402
C99	C	1.658902	0.459705	0.666735
C100	C	0.985960	-0.563917	0.000071
C101	C	1.319293	-0.230584	0.333405
C102	C	1.652626	0.102749	0.666738
C103	C	1.142179	0.108444	0.000080
C104	C	1.475512	0.441777	0.333413
C105	C	1.808846	0.775110	0.666747
C106	C	1.235130	0.110093	0.000082
C107	C	1.568463	0.443426	0.333415
C108	C	1.901796	0.776759	0.666749
C109	C	0.982983	0.267643	0.000069
C110	C	1.316317	0.600977	0.333403
C111	C	1.649650	0.934310	0.666736
C112	C	0.984635	0.360594	0.000069
C113	C	1.317968	0.693927	0.333402
C114	C	1.651302	1.027260	0.666735
N115	N	0.989070	0.114551	0.178226
N116	N	1.322403	0.447884	0.511559
N117	N	1.655737	0.781217	0.844892
N118	N	0.989129	0.114564	-0.178085
N119	N	1.322462	0.447897	0.155249
N120	N	1.655795	0.781231	0.488582
C121	C	1.046011	0.057655	0.217617
C122	C	1.379344	0.390988	0.550950
C123	C	1.712678	0.724321	0.884284
C124	C	1.046016	0.057651	0.296419
C125	C	1.379349	0.390984	0.629752
C126	C	1.712683	0.724317	0.963086
C127	C	0.989088	0.114557	0.335826
C128	C	1.322421	0.447891	0.669160
C129	C	1.655754	0.781224	1.002493
C130	C	0.932136	0.171458	0.296426
C131	C	1.265469	0.504791	0.629759
C132	C	1.598802	0.838125	0.963092
C133	C	0.932127	0.171455	0.217625
C134	C	1.265460	0.504788	0.550959
C135	C	1.598794	0.838121	0.884292
C136	C	0.978117	0.190814	0.460663
C137	C	1.311450	0.524147	0.793996
C138	C	1.644784	0.857481	1.127330
C139	C	0.978132	0.190819	0.539462
C140	C	1.311465	0.524152	0.872795
C141	C	1.644798	0.857485	1.206129
C142	C	0.989110	0.114568	0.578873
C143	C	1.322443	0.447901	0.912206
C144	C	1.655777	0.781234	1.245539
C145	C	1.000092	0.038309	0.539475
C146	C	1.333425	0.371642	0.872808
C147	C	1.666758	0.704975	1.206142
C148	C	1.000083	0.038305	0.460675
C149	C	1.333416	0.371639	0.794008
C150	C	1.666749	0.704972	1.127341
C151	C	0.989090	0.114567	0.421272
C152	C	1.322424	0.447900	0.754605
C153	C	1.655757	0.781234	1.087939
C154	C	1.046060	0.057662	0.703710
C155	C	1.379393	0.390996	1.037043
C156	C	1.712726	0.724329	1.370377
C157	C	1.046059	0.057657	0.782513
C158	C	1.379392	0.390991	1.115847
C159	C	1.712725	0.724324	1.449180
C160	C	0.932182	0.171472	0.782518
C161	C	1.265516	0.504805	1.115852
C162	C	1.598849	0.838139	1.449185
C163	C	0.932179	0.171470	0.703717
C164	C	1.265513	0.504803	1.037050
C165	C	1.598846	0.838136	1.370383
C166	C	0.989122	0.114566	0.664317
C167	C	1.322456	0.447899	0.997650
C168	C	1.655789	0.781233	1.330984
H169	H	0.545137	0.230514	-0.071583
H170	H	0.878470	0.563847	0.261751
H171	H	1.211803	0.897180	0.595084
H172	H	0.859489	-0.440311	-0.051487
H173	H	1.192823	-0.106978	0.281846
H174	H	1.526156	0.226356	0.615180
H175	H	0.414293	0.127725	0.124716
H176	H	0.747627	0.461058	0.458049
H177	H	1.080960	0.794392	0.791383
H178	H	1.100627	-0.471627	0.074863
H179	H	1.433960	-0.138294	0.408196
H180	H	1.767294	0.195039	0.741530
H181	H	0.559403	0.132935	-0.124989
H182	H	0.892736	0.466268	0.208344
H183	H	1.226070	0.799601	0.541677
H184	H	1.004338	-0.314362	0.124755
H185	H	1.337671	0.018971	0.458089
H186	H	1.671005	0.352305	0.791422
H187	H	1.092386	0.011317	0.328497
H188	H	1.425719	0.344651	0.661831
H189	H	1.759052	0.677984	0.995164
H190	H	0.557963	0.128904	0.125009
H191	H	0.891297	0.462237	0.458343
H192	H	1.224630	0.795571	0.791676
H193	H	0.416081	0.124807	-0.124611
H194	H	0.749414	0.458140	0.208723
H195	H	1.082747	0.791473	0.542056
H196	H	1.009022	-0.023787	0.428600
H197	H	1.342355	0.309546	0.761934
H198	H	1.675689	0.642880	1.095267
H199	H	0.545760	0.228893	0.074524
H200	H	0.879094	0.562227	0.407857
H201	H	1.212427	0.895560	0.741190
H202	H	0.434406	-0.014865	0.051796
H203	H	0.767739	0.318469	0.385129
H204	H	1.101073	0.651802	0.718462
H205	H	0.885782	0.217791	0.328515
H206	H	1.219116	0.551124	0.661848
H207	H	1.552449	0.884458	0.995182
H208	H	0.885827	0.217803	0.814603
H209	H	1.219160	0.551137	1.147937
H210	H	1.552494	0.884470	1.481270
H211	H	1.009031	-0.023782	0.571561
H212	H	1.342364	0.309551	0.904895
H213	H	1.675698	0.642885	1.238228
H214	H	0.402548	0.227153	0.073870
H215	H	0.735881	0.560486	0.407204
H216	H	1.069215	0.893820	0.740537
H217	H	0.433842	-0.015030	-0.050781
H218	H	0.767175	0.318303	0.282552
H219	H	1.100509	0.651636	0.615885
H220	H	1.103920	-0.328618	0.074218
H221	H	1.437253	0.004715	0.407552
H222	H	1.770586	0.338049	0.740885
H223	H	1.000473	-0.457681	0.125055
H224	H	1.333807	-0.124347	0.458388
H225	H	1.667140	0.208986	0.791721
H226	H	0.885757	0.217787	0.185552
H227	H	1.219091	0.551120	0.518885
H228	H	1.552424	0.884454	0.852219
H229	H	1.005405	-0.460264	-0.124931
H230	H	1.338738	-0.126931	0.208402
H231	H	1.672072	0.206403	0.541736
H232	H	1.092424	0.011325	0.671630
H233	H	1.425757	0.344659	1.004963
H234	H	1.759090	0.677992	1.338296
H235	H	0.969195	0.252913	0.571534
H236	H	1.302528	0.586246	0.904867
H237	H	1.635862	0.919580	1.238200
H238	H	1.092424	0.011321	0.814586
H239	H	1.425758	0.344655	1.147920
H240	H	1.759091	0.677988	1.481253
H241	H	1.103012	-0.327422	-0.076004
H242	H	1.436345	0.005911	0.257329
H243	H	1.769679	0.339244	0.590662
H244	H	1.002301	-0.315530	-0.124577
H245	H	1.335634	0.017803	0.208756
H246	H	1.668967	0.351136	0.542089
H247	H	0.862238	-0.296667	-0.051185
H248	H	1.195571	0.036666	0.282149
H249	H	1.528904	0.370000	0.615482
H250	H	0.401672	0.225616	-0.076357
H251	H	0.735006	0.558950	0.256976
H252	H	1.068339	0.892283	0.590309
H253	H	1.102829	-0.471491	-0.071223
H254	H	1.436163	-0.138157	0.262110
H255	H	1.769496	0.195176	0.595443
H256	H	1.092376	0.011318	0.185540
H257	H	1.425709	0.344652	0.518874
H258	H	1.759042	0.677985	0.852207
H259	H	0.859633	-0.441379	0.050757
H260	H	1.192967	-0.108045	0.384091
H261	H	1.526300	0.225288	0.717424
H262	H	0.861981	-0.297230	0.051393
H263	H	1.195314	0.036104	0.384726
H264	H	1.528647	0.369437	0.718059
H265	H	0.577547	-0.012728	-0.051092
H266	H	0.910880	0.320605	0.282242
H267	H	1.244214	0.653939	0.615575
H268	H	0.885816	0.217803	0.671642
H269	H	1.219149	0.551137	1.004975
H270	H	1.552482	0.884470	1.338309
H271	H	0.969162	0.252911	0.428581
H272	H	1.302496	0.586244	0.761915
H273	H	1.635829	0.919578	1.095248
H274	H	0.578506	-0.012148	0.051151
H275	H	0.911839	0.321185	0.384484
H276	H	1.245172	0.654519	0.717818
