data_functionalizedCrystal
_audit_creation_method	'MofGen! by Chris Wilmer'
_symmetry_space_group_name_H-M	'P1'
_symmetry_Int_Tables_number	1
_symmetry_cell_setting	triclinic
loop_
_symmetry_equiv_pos_as_xyz
  x,y,z
_cell_length_a	10.540535
_cell_length_b	10.654550
_cell_length_c	9.130313
_cell_angle_alpha	90.004369
_cell_angle_beta	89.998864
_cell_angle_gamma	95.495714
loop_
_atom_site_label
_atom_site_type_symbol
_atom_site_fract_x
_atom_site_fract_y
_atom_site_fract_z
O1	O	1.685825	-0.176965	-0.121719
O2	O	1.316405	-0.193647	-0.121739
O3	O	1.509609	-0.002569	-0.121719
O4	O	1.492622	-0.368042	-0.121739
O5	O	1.509596	-0.002564	0.121879
O6	O	1.316392	-0.193641	0.121860
O7	O	1.685812	-0.176959	0.121880
Cu8	Cu	1.501101	-0.185300	0.144112
Cu9	Cu	1.501117	-0.185306	-0.143972
O10	O	1.492608	-0.368037	0.121860
C11	C	1.269096	-0.192394	0.000058
C12	C	1.128149	-0.188655	0.000050
C13	C	1.091529	-0.049145	0.000063
C14	C	0.944930	-0.045210	0.000631
C15	C	0.918783	-0.252335	0.138900
C16	C	1.065547	-0.255304	0.139002
C17	C	1.065445	-0.257340	-0.138025
C18	C	0.919102	-0.250888	-0.139835
C19	C	1.733121	-0.178212	0.000080
C20	C	1.874068	-0.181951	0.000078
C21	C	1.508355	0.044232	0.000079
C22	C	1.504623	0.183676	0.000077
N23	N	1.501099	-0.185294	0.346735
C24	C	1.493862	-0.414838	0.000058
C25	C	1.497594	-0.554282	0.000051
C26	C	1.618378	0.263124	0.000082
C27	C	1.614865	0.394146	0.000064
C28	C	1.383830	0.366260	0.000041
C29	C	1.387345	0.235241	0.000049
N30	N	1.501128	-0.185302	-0.346594
C31	C	1.586679	-0.100721	0.423396
C32	C	1.586691	-0.100721	0.576732
C33	C	1.415540	-0.269879	0.576734
C34	C	1.415522	-0.269872	0.423400
H35	H	0.916491	0.009570	0.100738
O36	O	1.332471	-0.352211	0.651045
C37	C	1.260039	-0.569888	0.697994
C38	C	1.354167	-0.476782	0.613728
H39	H	1.277564	-0.670624	0.667878
H40	H	1.158196	-0.552648	0.667835
H41	H	1.274729	-0.555308	0.820749
H42	H	1.339593	-0.491307	0.490954
H43	H	1.455975	-0.494046	0.644009
H44	H	1.294706	0.170551	0.000040
H45	H	1.713873	0.221145	0.000102
H46	H	0.915617	0.009835	-0.098862
H47	H	1.656359	-0.031851	0.360978
H48	H	1.345827	-0.338742	0.360979
H49	H	1.133522	0.004425	-0.099475
H50	H	1.707496	0.458827	0.000066
H51	H	1.288346	0.408260	0.000021
H52	H	1.656376	-0.031853	0.639145
H53	H	1.135000	0.003533	0.099475
H54	H	1.105730	-0.207766	0.243177
H55	H	0.871390	-0.353015	0.143666
O56	O	1.092932	-0.377315	0.146322
C57	C	1.072009	-0.571188	0.283903
C58	C	1.040936	-0.433030	0.275800
H59	H	1.029962	-0.616282	0.388562
H60	H	1.179787	-0.574560	0.284146
H61	H	1.029206	-0.625031	0.184928
H62	H	1.083657	-0.379104	0.374753
H63	H	0.933147	-0.429751	0.275486
O64	O	0.882193	-0.194744	0.262765
C65	C	0.949185	-0.087680	0.486188
C66	C	0.990770	-0.152897	0.345978
H67	H	1.036948	-0.053806	0.553489
H68	H	0.884266	-0.157299	0.553562
H69	H	0.895546	-0.003569	0.455252
H70	H	1.044460	-0.237001	0.376782
H71	H	1.055627	-0.083196	0.278640
H72	H	1.107926	-0.213810	-0.243285
O73	O	0.884891	-0.190005	-0.262467
C74	C	0.765059	-0.203789	-0.487595
C75	C	0.803757	-0.272896	-0.348807
H76	H	0.699435	-0.270769	-0.557425
H77	H	0.853977	-0.170344	-0.553151
H78	H	0.713046	-0.119049	-0.454896
H79	H	0.855741	-0.357685	-0.381377
H80	H	0.714793	-0.306248	-0.283286
H81	H	1.087593	-0.359985	-0.139373
O82	O	0.860778	-0.370036	-0.150422
C83	C	0.887165	-0.592024	-0.160873
C84	C	0.953384	-0.457152	-0.148912
H85	H	0.962005	-0.662496	-0.159626
H86	H	0.830830	-0.602126	-0.267498
H87	H	0.819615	-0.611300	-0.064235
H88	H	1.020994	-0.437786	-0.245472
H89	H	1.009638	-0.447118	-0.042229
