data_functionalizedCrystal
_audit_creation_method	'MofGen! by Chris Wilmer'
_symmetry_space_group_name_H-M	'P1'
_symmetry_Int_Tables_number	1
_symmetry_cell_setting	triclinic
loop_
_symmetry_equiv_pos_as_xyz
  x,y,z
_cell_length_a	14.044220
_cell_length_b	17.699083
_cell_length_c	16.776229
_cell_angle_alpha	90.001114
_cell_angle_beta	89.992645
_cell_angle_gamma	91.764054
loop_
_atom_site_label
_atom_site_type_symbol
_atom_site_fract_x
_atom_site_fract_y
_atom_site_fract_z
O1	O	0.119850	-1.012346	-0.066178
O2	O	0.135443	-0.793043	-0.066204
O3	O	-0.010330	-0.899403	-0.066183
O4	O	0.265624	-0.905986	-0.066198
O5	O	-0.010339	-0.899387	0.066393
O6	O	0.135434	-0.793027	0.066372
O7	O	0.119841	-1.012330	0.066399
Zn8	Zn	0.127636	-0.902676	0.087435
Zn9	Zn	0.127648	-0.902697	-0.087240
O10	O	0.265615	-0.905970	0.066378
C11	C	0.134880	-0.764800	0.000081
C12	C	0.133204	-0.680666	0.000071
C13	C	-0.045643	-0.896513	0.000105
C14	C	-0.150849	-0.887917	0.000105
C15	C	0.120404	-1.040574	0.000112
C16	C	0.122081	-1.124707	0.000117
C17	C	-0.343474	-0.872202	0.000091
C18	C	-0.401248	-0.933168	0.000096
C19	C	-0.508431	-0.924424	0.000089
C20	C	-0.236281	-0.880945	0.000099
C21	C	0.300927	-0.908860	0.000088
C22	C	0.406133	-0.917456	0.000083
N23	N	0.127628	-0.902667	0.206646
C24	C	0.218769	-0.637948	0.000067
C25	C	0.217189	-0.558895	0.000077
C26	C	0.130041	-0.522563	0.000086
C27	C	0.044469	-0.565287	0.000093
C28	C	0.046050	-0.644338	0.000088
C29	C	0.038089	-0.246484	0.000113
C30	C	0.036514	-0.167427	0.000115
C31	C	0.209227	-0.161041	0.000102
C32	C	0.210809	-0.240092	0.000097
C33	C	0.125237	-0.282809	0.000108
C34	C	0.126952	-0.368527	0.000098
C35	C	0.128325	-0.436847	0.000090
N36	N	0.127649	-0.902712	-0.206452
C37	C	0.063106	-0.949781	0.248372
C38	C	0.063105	-0.949785	0.331825
C39	C	0.127631	-0.902679	0.373549
C40	C	0.192156	-0.855560	0.331817
C41	C	0.192152	-0.855552	0.248366
C42	C	0.192175	-0.855589	0.668364
C43	C	0.192176	-0.855601	0.751821
C44	C	0.063128	-0.949821	0.751822
C45	C	0.063123	-0.949813	0.668372
C46	C	0.127645	-0.902692	0.626647
C47	C	0.127644	-0.902687	0.536159
C48	C	0.127638	-0.902687	0.464036
H49	H	-0.374508	-0.813445	0.000082
H50	H	0.278904	-0.126251	0.000097
H51	H	-0.023626	-0.679119	0.000091
H52	H	0.289735	-0.667523	0.000059
O53	O	0.261793	-0.804800	0.796820
H54	H	0.249813	-0.744988	0.780826
H55	H	0.244712	-0.817222	0.634398
H56	H	0.286865	-0.524117	0.000073
O57	O	-0.057490	-0.128242	0.000137
H58	H	-0.062350	-0.092384	-0.053900
H59	H	-0.031590	-0.281255	0.000123
O60	O	0.261759	-0.804759	0.376820
H61	H	0.306622	-0.771994	0.333783
H62	H	0.244691	-0.817187	0.214394
H63	H	0.010583	-0.988174	0.634402
H64	H	-0.370212	-0.991930	0.000050
H65	H	0.281773	-0.269670	0.000086
O66	O	-0.049530	-0.526105	0.000110
H67	H	-0.054387	-0.490246	-0.053927
O68	O	-0.006495	-1.000585	0.203370
H69	H	-0.051368	-1.033340	0.246409
H70	H	0.010565	-0.988148	0.365798
O71	O	-0.006477	-1.000640	0.796824
H72	H	0.004355	-0.992728	0.861862
