data_functionalizedCrystal
_audit_creation_method	'MofGen! by Chris Wilmer'
_symmetry_space_group_name_H-M	'P1'
_symmetry_Int_Tables_number	1
_symmetry_cell_setting	triclinic
loop_
_symmetry_equiv_pos_as_xyz
  x,y,z
_cell_length_a	19.188931
_cell_length_b	19.288865
_cell_length_c	17.766277
_cell_angle_alpha	90.011603
_cell_angle_beta	89.992168
_cell_angle_gamma	96.859486
loop_
_atom_site_label
_atom_site_type_symbol
_atom_site_fract_x
_atom_site_fract_y
_atom_site_fract_z
O1	O	0.926143	-0.086718	-0.062576
O2	O	0.722831	-0.098391	-0.062584
O3	O	0.830362	0.008575	-0.062565
O4	O	0.818612	-0.193685	-0.062595
O5	O	0.830343	0.008581	0.062624
O6	O	0.722812	-0.098386	0.062604
O7	O	0.926124	-0.086712	0.062613
Cu8	Cu	0.824466	-0.092549	0.074039
Cu9	Cu	0.824489	-0.092555	-0.074011
O10	O	0.818593	-0.193679	0.062593
C11	C	0.829974	0.034454	0.000032
C12	C	0.828839	0.111558	0.000038
C13	C	0.696810	-0.098011	0.000009
C14	C	0.619306	-0.096876	0.000006
C15	C	0.952145	-0.087093	0.000018
C16	C	1.029649	-0.088228	0.000015
C17	C	1.074578	-0.025463	0.000018
C18	C	1.147401	-0.026530	0.000023
C19	C	1.175293	-0.090364	0.000009
C20	C	1.130355	-0.153137	0.000010
C21	C	1.057533	-0.152069	0.000014
N22	N	1.283291	-0.139159	-0.042615
N23	N	1.352469	-0.140169	-0.042619
C24	C	1.394702	-0.093585	0.000001
N25	N	1.365144	-0.045942	0.042617
N26	N	1.295959	-0.044930	0.042618
C27	C	1.254256	-0.091529	0.000006
C28	C	1.518595	-0.031972	0.000010
C29	C	1.591419	-0.033041	0.000019
C30	C	1.574371	-0.159650	-0.000001
C31	C	1.501548	-0.158579	-0.000003
C32	C	1.473664	-0.094739	-0.000001
C33	C	0.818981	-0.219558	-0.000005
C34	C	0.820116	-0.296662	-0.000016
N35	N	0.824456	-0.092544	0.178170
C36	C	0.891934	0.156250	0.000045
C37	C	0.890867	0.228697	0.000033
C38	C	0.826703	0.256449	0.000029
C39	C	0.763601	0.211748	0.000019
C40	C	0.764669	0.139302	0.000023
C41	C	0.776256	0.364742	0.043878
C42	C	0.775191	0.437187	0.043878
C43	C	0.823407	0.479895	0.000012
C44	C	0.872700	0.450151	-0.043844
C45	C	0.873768	0.377706	-0.043840
C46	C	0.825538	0.335003	0.000024
C47	C	0.885349	0.603143	0.000005
C48	C	0.884280	0.675591	-0.000012
C49	C	0.757012	0.658640	-0.000018
C50	C	0.758083	0.586194	-0.000009
C51	C	0.822253	0.558449	0.000006
N52	N	0.824505	-0.092555	-0.178141
C53	C	0.872086	-0.045202	0.217565
C54	C	0.872090	-0.045199	0.296367
C55	C	0.824471	-0.092549	0.335770
C56	C	0.776832	-0.139895	0.296365
C57	C	0.776824	-0.139892	0.217565
C58	C	0.815123	-0.155836	0.460598
C59	C	0.815136	-0.155840	0.539397
C60	C	0.824489	-0.092558	0.578816
C61	C	0.833845	-0.029269	0.539427
C62	C	0.833838	-0.029266	0.460627
C63	C	0.824473	-0.092557	0.421216
C64	C	0.872126	-0.045209	0.703658
C65	C	0.872125	-0.045204	0.782461
C66	C	0.776870	-0.139906	0.782458
C67	C	0.776868	-0.139904	0.703656
C68	C	0.824499	-0.092556	0.664261
H69	H	1.051880	0.026521	0.000023
C70	C	0.923752	0.006289	0.660890
C71	C	0.912662	0.074533	0.680025
C72	C	0.960199	0.121980	0.640623
H73	H	0.970356	-0.001052	0.673750
H74	H	0.916908	-0.000471	0.608315
H75	H	0.919511	0.081290	0.732588
H76	H	0.866068	0.081896	0.667162
H77	H	0.953355	0.115220	0.588049
H78	H	1.006800	0.114633	0.653487
H79	H	0.952677	0.168288	0.653596
H80	H	0.807494	-0.207372	0.428510
H81	H	0.935661	0.711979	-0.000011
H82	H	1.628000	0.018072	0.000027
H83	H	0.942248	0.265092	0.000035
C84	C	0.725097	-0.191194	0.339240
C85	C	0.682497	-0.154298	0.384517
C86	C	0.634833	-0.201530	0.424030
H87	H	0.696659	-0.219410	0.304576
H88	H	0.750104	-0.220039	0.370007
H89	H	0.657492	-0.125465	0.353752
H90	H	0.710915	-0.126084	0.419195
H91	H	0.659840	-0.230375	0.454798
H92	H	0.606400	-0.229744	0.389361
H93	H	0.605928	-0.176503	0.454761
H94	H	0.713288	0.102913	0.000018
C95	C	0.687296	0.688667	0.000094
C96	C	0.649147	0.665935	0.064489
C97	C	0.584917	0.693578	0.064609
H98	H	0.695597	0.738212	0.000129
H99	H	0.661296	0.673282	-0.043541
H100	H	0.675142	0.681324	0.108113
H101	H	0.640828	0.616394	0.064468
H102	H	0.558916	0.678193	0.020975
H103	H	0.593224	0.743122	0.064642
H104	H	0.559022	0.678153	0.108297
C105	C	1.452879	-0.226800	-0.000054
C106	C	1.492889	-0.282934	-0.000084
C107	C	1.448079	-0.345792	-0.000138
H108	H	1.424096	-0.229113	0.043591
H109	H	1.424131	-0.229054	-0.043727
H110	H	1.521624	-0.280681	0.043585
H111	H	1.521670	-0.280644	-0.043725
H112	H	1.419332	-0.348046	-0.043812
H113	H	1.419299	-0.348098	0.043507
H114	H	1.475219	-0.383886	-0.000166
C115	C	1.160769	-0.222372	-0.000047
C116	C	1.234161	-0.209875	-0.000072
C117	C	1.262201	-0.273640	-0.000133
H118	H	1.145409	-0.248260	0.043594
H119	H	1.145373	-0.248214	-0.043724
H120	H	1.249550	-0.184044	0.043600
H121	H	1.249540	-0.183998	-0.043710
H122	H	1.246805	-0.299482	-0.043810
H123	H	1.246836	-0.299522	0.043509
H124	H	1.311999	-0.265169	-0.000157
C125	C	0.961674	0.126263	0.000017
C126	C	1.016702	0.180915	0.000001
C127	C	1.080956	0.153316	-0.000035
H128	H	0.964828	0.098374	0.043663
H129	H	0.964783	0.098366	-0.043655
H130	H	1.013594	0.208800	0.043669
H131	H	1.013571	0.208808	-0.043641
H132	H	1.084065	0.125419	-0.043707
H133	H	1.084103	0.125427	0.043611
H134	H	1.118300	0.190392	-0.000053
H135	H	1.597080	-0.211625	-0.000007
H136	H	1.020951	-0.203181	0.000012
H137	H	1.183989	0.024582	0.000023
C138	C	1.488450	0.037408	0.000057
C139	C	1.543388	0.092149	0.000087
C140	C	1.515649	0.156072	0.000140
H141	H	1.460414	0.040554	-0.043588
H142	H	1.460410	0.040496	0.043730
H143	H	1.571417	0.089063	-0.043581
H144	H	1.571429	0.089026	0.043729
H145	H	1.487609	0.159159	0.043813
H146	H	1.487613	0.159210	-0.043505
H147	H	1.552920	0.193221	0.000168
H148	H	0.711358	0.234348	0.000015
H149	H	0.913902	0.353491	-0.079550
C150	C	0.955036	0.573051	-0.000148
C151	C	0.993163	0.595753	-0.064568
C152	C	1.057357	0.568041	-0.064743
H153	H	0.981089	0.588397	0.043454
H154	H	0.946664	0.523501	-0.000184
H155	H	1.001538	0.645293	-0.064526
H156	H	0.967131	0.580409	-0.108181
H157	H	1.048984	0.518491	-0.064778
H158	H	1.083403	0.583389	-0.021138
H159	H	1.083231	0.583435	-0.108454
H160	H	0.910909	-0.006649	0.814538
H161	H	0.911961	0.484923	-0.079564
H162	H	0.706704	0.549804	-0.000010
C163	C	0.923880	0.006238	0.339015
C164	C	0.965599	0.047695	0.287648
C165	C	1.013319	0.095082	0.326906
H166	H	0.898940	0.035155	0.369771
H167	H	0.952903	-0.018661	0.369727
H168	H	0.936580	0.072593	0.256950
H169	H	0.990555	0.018798	0.256891
H170	H	1.042341	0.070183	0.357617
H171	H	0.988372	0.123994	0.357660
H172	H	1.041635	0.123212	0.292059
C173	C	0.721600	0.469341	0.091515
C174	C	0.679584	0.416433	0.129908
C175	C	0.630202	0.446025	0.173791
H176	H	0.745230	0.500814	0.126844
H177	H	0.692961	0.493823	0.059903
H178	H	0.708220	0.391963	0.161517
H179	H	0.655938	0.384957	0.094597
H180	H	0.601563	0.470506	0.142179
H181	H	0.653838	0.477497	0.209116
H182	H	0.601684	0.410131	0.199840
C183	C	0.724013	0.318306	0.091564
C184	C	0.760371	0.281474	0.143458
C185	C	0.712270	0.238687	0.187389
H186	H	0.694489	0.346315	0.117754
H187	H	0.696250	0.286245	0.059968
H188	H	0.788122	0.313532	0.175050
H189	H	0.789892	0.253452	0.117288
H190	H	0.684507	0.206625	0.155793
H191	H	0.682748	0.266701	0.213574
H192	H	0.736932	0.213686	0.222600
H193	H	0.807522	-0.207373	0.571462
C194	C	0.725089	-0.191348	0.825093
C195	C	0.683365	-0.232800	0.773720
C196	C	0.635648	-0.280189	0.812971
H197	H	0.750032	-0.220268	0.855822
H198	H	0.696070	-0.166450	0.855829
H199	H	0.712381	-0.257696	0.742996
H200	H	0.658408	-0.203899	0.742988
H201	H	0.606628	-0.255291	0.843708
H202	H	0.660596	-0.309104	0.843699
H203	H	0.607328	-0.308315	0.778121
C204	C	0.843841	0.039473	0.417910
C205	C	0.790061	0.079293	0.437099
C206	C	0.799242	0.142618	0.397761
H207	H	0.887917	0.064440	0.430787
H208	H	0.842462	0.030448	0.365327
H209	H	0.791446	0.088320	0.489672
H210	H	0.745978	0.054348	0.424221
H211	H	0.797863	0.133593	0.345177
H212	H	0.843319	0.167579	0.410640
H213	H	0.762750	0.169641	0.410770
C214	C	0.843857	0.039430	0.582248
C215	C	0.784990	0.044804	0.627485
C216	C	0.794186	0.108082	0.666935
H217	H	0.884479	0.041006	0.613041
H218	H	0.849392	0.077138	0.547523
H219	H	0.779462	0.007107	0.662206
H220	H	0.744360	0.043240	0.596710
H221	H	0.799722	0.145789	0.632210
H222	H	0.834810	0.109653	0.697724
H223	H	0.754244	0.111739	0.697627
H224	H	0.910868	-0.006647	0.185492
H225	H	0.738086	-0.178457	0.671578
H226	H	0.738037	-0.178444	0.185488
