data_functionalizedCrystal
_audit_creation_method	'MofGen! by Chris Wilmer'
_symmetry_space_group_name_H-M	'P1'
_symmetry_Int_Tables_number	1
_symmetry_cell_setting	triclinic
loop_
_symmetry_equiv_pos_as_xyz
  x,y,z
_cell_length_a	19.188905
_cell_length_b	10.654550
_cell_length_c	9.730223
_cell_angle_alpha	89.995747
_cell_angle_beta	89.989587
_cell_angle_gamma	83.809743
loop_
_atom_site_label
_atom_site_type_symbol
_atom_site_fract_x
_atom_site_fract_y
_atom_site_fract_z
O1	O	0.927179	0.156630	-0.114516
O2	O	0.724004	0.177768	-0.114469
O3	O	0.830263	-0.015640	-0.114485
O4	O	0.820920	0.350038	-0.114500
O5	O	0.830256	-0.015645	0.114095
O6	O	0.723997	0.177763	0.114111
O7	O	0.927172	0.156624	0.114064
Zn8	Zn	0.825583	0.167193	0.150379
Zn9	Zn	0.825592	0.167199	-0.150785
O10	O	0.820913	0.350032	0.114080
C11	C	0.829573	-0.062426	-0.000196
C12	C	0.827521	-0.201826	-0.000197
C13	C	0.697984	0.177086	-0.000173
C14	C	0.620466	0.175047	-0.000155
C15	C	0.890085	-0.282645	-0.000212
C16	C	0.888152	-0.413625	-0.000229
C17	C	0.761086	-0.382952	-0.000209
C18	C	0.763020	-0.251975	-0.000203
C19	C	0.584071	0.174070	-0.124758
C20	C	0.511235	0.172140	-0.124775
C21	C	0.474798	0.171162	-0.000182
C22	C	0.511200	0.172146	0.124437
C23	C	0.584034	0.174088	0.124450
N24	N	0.365287	0.096646	0.092543
N25	N	0.296098	0.094798	0.092522
C26	C	0.255353	0.165311	-0.000215
N27	N	0.286411	0.237727	-0.092951
N28	N	0.355607	0.239570	-0.092934
C29	C	0.395821	0.169056	-0.000183
C30	C	0.139981	0.162244	-0.124845
C31	C	0.067143	0.160322	-0.124856
C32	C	0.067110	0.160315	0.124359
C33	C	0.139946	0.162249	0.124367
C34	C	0.176377	0.163208	-0.000238
C35	C	0.953191	0.157306	-0.000235
C36	C	1.030710	0.159345	-0.000262
C37	C	0.821603	0.396818	-0.000213
C38	C	0.823655	0.536218	-0.000220
N39	N	0.825582	0.167187	0.355916
N40	N	0.825599	0.167195	-0.356321
C41	C	0.872650	0.081582	0.427834
C42	C	0.872657	0.081582	0.571717
C43	C	0.778526	0.252804	0.571750
C44	C	0.778517	0.252797	0.427870
H45	H	0.942605	-0.241818	-0.000211
H46	H	0.910983	0.011873	0.630270
H47	H	0.740185	0.322508	0.369309
Cl48	Cl	0.719363	0.360428	0.662213
H49	H	0.481597	0.171347	-0.226244
Cl50	Cl	0.185702	0.163469	0.281020
Cl51	Cl	0.931816	-0.026047	0.337384
Cl52	Cl	0.966807	-0.515222	-0.000250
Cl53	Cl	0.021388	0.159105	-0.281515
H54	H	0.708572	-0.423801	-0.000211
Cl55	Cl	0.684362	-0.150365	-0.000196
H56	H	0.037443	0.159526	0.225805
H57	H	0.613666	0.174885	0.225920
Cl58	Cl	0.465394	0.170924	0.281068
Cl59	Cl	0.629866	0.175282	-0.281404
Cl60	Cl	0.185783	0.163461	-0.281488
