data_functionalizedCrystal
_audit_creation_method	'MofGen! by Chris Wilmer'
_symmetry_space_group_name_H-M	'P1'
_symmetry_Int_Tables_number	1
_symmetry_cell_setting	triclinic
loop_
_symmetry_equiv_pos_as_xyz
  x,y,z
_cell_length_a	18.215407
_cell_length_b	29.839131
_cell_length_c	18.215399
_cell_angle_alpha	90.030873
_cell_angle_beta	90.019833
_cell_angle_gamma	90.041868
loop_
_atom_site_label
_atom_site_type_symbol
_atom_site_fract_x
_atom_site_fract_y
_atom_site_fract_z
Zn1	Zn	1.124987	-0.178853	0.416101
Zn2	Zn	1.124860	-0.253982	0.293028
Zn3	Zn	1.001920	-0.178867	0.293048
Zn4	Zn	1.001850	-0.253957	0.416053
O5	O	1.063404	-0.216415	0.354558
O6	O	1.227955	-0.188823	0.399787
O7	O	1.108528	-0.244034	0.190047
O8	O	1.018327	-0.115998	0.309400
O9	O	1.227861	-0.244020	0.309366
O10	O	1.108745	-0.115987	0.399806
O11	O	1.018204	-0.188848	0.190061
O12	O	0.898926	-0.188824	0.309354
O13	O	1.018209	-0.243978	0.519044
O14	O	0.898875	-0.243992	0.399725
O15	O	1.108677	-0.188799	0.519079
O16	O	1.108460	-0.316846	0.309320
O17	O	1.018086	-0.316827	0.399705
C18	C	0.872198	-0.216407	0.354537
C19	C	0.790399	-0.216414	0.354545
C20	C	0.602198	-0.245186	0.401542
C21	C	0.525339	-0.245187	0.401551
C22	C	0.525363	-0.187652	0.307589
C23	C	0.602220	-0.187648	0.307584
C24	C	0.640636	-0.216418	0.354560
C25	C	0.486920	-0.216423	0.354574
C26	C	0.403586	-0.216424	0.354583
C27	C	0.723975	-0.216416	0.354551
C28	C	1.063272	-0.333137	0.354521
C29	C	1.063282	-0.383072	0.354530
C30	C	1.110548	-0.692712	0.307563
C31	C	1.110639	-0.880385	0.307591
O32	O	1.150721	-0.904647	0.267629
N33	N	1.063557	-0.903857	0.354613
C34	C	1.016452	-0.880407	0.401635
O35	O	0.976414	-0.904678	0.441636
C36	C	1.016366	-0.692735	0.401609
C37	C	1.063446	-0.669266	0.354579
C38	C	1.157625	-0.669243	0.260536
C39	C	1.157599	-0.622327	0.260527
C40	C	1.110496	-0.598881	0.307544
C41	C	1.063420	-0.622350	0.354570
C42	C	0.969265	-0.669287	0.448634
C43	C	0.969249	-0.622365	0.448625
C44	C	1.016329	-0.598896	0.401595
C45	C	1.016291	-0.551989	0.401577
N46	N	1.063373	-0.528517	0.354554
C47	C	1.110476	-0.551963	0.307538
C48	C	1.016500	-0.978938	0.401644
C49	C	1.016521	-1.025856	0.401649
C50	C	1.110709	-1.025830	0.307606
C51	C	1.110684	-0.978911	0.307598
C52	C	1.063582	-0.955466	0.354622
C53	C	1.110417	-0.453437	0.307521
C54	C	1.110385	-0.406518	0.307514
C55	C	1.016200	-0.406547	0.401559
C56	C	1.016229	-0.453463	0.401564
C57	C	1.063344	-0.476907	0.354543
O58	O	0.976236	-0.527698	0.441523
O59	O	1.150520	-0.527685	0.267554
C60	C	1.110574	-0.739627	0.307572
C61	C	1.063498	-0.763097	0.354598
C62	C	1.016395	-0.739651	0.401615
C63	C	1.063518	-0.810015	0.354604
C64	C	1.110621	-0.833461	0.307587
C65	C	1.157703	-0.809989	0.260565
C66	C	1.157677	-0.763074	0.260555
C67	C	0.969313	-0.763122	0.448637
C68	C	0.969342	-0.810038	0.448642
C69	C	1.016445	-0.833484	0.401625
C70	C	1.255357	-0.216423	0.354579
C71	C	1.337156	-0.216426	0.354589
C72	C	1.063449	-0.216384	0.546511
C73	C	1.063468	-0.216370	0.628310
C74	C	1.063558	-0.099236	0.354610
C75	C	1.063623	-0.049302	0.354633
C76	C	1.063402	-0.216413	0.163351
C77	C	1.063526	-0.216300	0.081553
C78	C	1.110592	-0.187612	0.816523
C79	C	1.110601	-0.187599	0.893382
C80	C	1.016397	-0.245059	0.893334
C81	C	1.016385	-0.245070	0.816477
C82	C	1.063487	-0.216347	0.778073
C83	C	1.063507	-0.216323	0.931789
C84	C	1.063517	-0.216309	1.015123
C85	C	1.063477	-0.216360	0.694734
H86	H	0.494076	-0.164229	0.269342
H87	H	0.978177	-1.044960	0.439939
H88	H	0.633474	-0.268610	0.439794
H89	H	0.930998	-0.829142	0.486939
N90	N	1.158483	-0.382543	0.259479
N91	N	1.205351	-0.356320	0.285405
H92	H	1.239318	-0.339388	0.251481
H93	H	0.494047	-0.268612	0.439810
N94	N	1.158687	-0.158269	0.777283
N95	N	1.158670	-0.158280	0.708661
H96	H	1.192637	-0.137555	0.680948
N97	N	1.158767	-0.954941	0.259550
N98	N	1.153922	-0.960212	0.191639
H99	H	1.187883	-0.943285	0.157702
H100	H	0.978021	-0.268469	0.785170
H101	H	1.148784	-0.472520	0.269233
N102	N	1.158719	-0.158242	0.932646
N103	N	1.200765	-0.132598	0.898345
H104	H	1.234750	-0.111862	0.926074
H105	H	0.978143	-0.959852	0.439938
H106	H	0.633517	-0.164220	0.269325
N107	N	1.158837	-1.049778	0.259584
N108	N	1.200882	-1.028822	0.217606
H109	H	1.234875	-1.045736	0.183695
H110	H	0.978050	-0.268446	0.924612
N111	N	0.921132	-0.598411	0.496649
N112	N	0.921110	-0.556520	0.496637
H113	H	0.887126	-0.539602	0.530552
N114	N	1.205696	-0.598365	0.212482
N115	N	1.247746	-0.619312	0.170512
H116	H	1.281719	-0.602391	0.136579
H117	H	0.977847	-0.387450	0.439837
N118	N	1.205752	-0.693181	0.212505
N119	N	1.247778	-0.672211	0.170527
H120	H	1.281769	-0.689114	0.136599
H121	H	0.930924	-0.688387	0.486928
N122	N	0.968123	-0.477432	0.449595
N123	N	0.926065	-0.456490	0.491565
H124	H	0.892090	-0.473415	0.525491
H125	H	1.196014	-0.743968	0.222259
N126	N	1.205808	-0.833951	0.212538
N127	N	1.205815	-0.875841	0.212559
H128	H	1.239789	-0.892767	0.178643
N129	N	0.921194	-0.739184	0.496673
N130	N	0.879165	-0.760151	0.538651
H131	H	0.845175	-0.743246	0.572578
