data_functionalizedCrystal
_audit_creation_method	'MofGen! by Chris Wilmer'
_symmetry_space_group_name_H-M	'P1'
_symmetry_Int_Tables_number	1
_symmetry_cell_setting	triclinic
loop_
_symmetry_equiv_pos_as_xyz
  x,y,z
_cell_length_a	19.121063
_cell_length_b	16.625548
_cell_length_c	19.120904
_cell_angle_alpha	87.578974
_cell_angle_beta	94.741613
_cell_angle_gamma	87.531074
loop_
_atom_site_label
_atom_site_type_symbol
_atom_site_fract_x
_atom_site_fract_y
_atom_site_fract_z
Zn1	Zn	-0.297115	-1.197998	-0.409803
Zn2	Zn	-0.409762	-1.197899	-0.297153
Zn3	Zn	-0.292115	-1.069176	-0.292152
Zn4	Zn	-0.414741	-1.057114	-0.414770
O5	O	-0.353433	-1.130547	-0.353470
O6	O	-0.312066	-1.310816	-0.394874
O7	O	-0.389979	-1.185830	-0.198030
O8	O	-0.194315	-1.091355	-0.303587
O9	O	-0.394827	-1.310743	-0.312111
O10	O	-0.197989	-1.186000	-0.390024
O11	O	-0.303545	-1.091258	-0.194355
O12	O	-0.308373	-0.954745	-0.308403
O13	O	-0.403314	-1.070797	-0.512571
O14	O	-0.398466	-0.945883	-0.398490
O15	O	-0.316894	-1.174304	-0.508922
O16	O	-0.508885	-1.174133	-0.316928
O17	O	-0.512543	-1.070700	-0.403340
C18	C	-0.353418	-0.921058	-0.353444
C19	C	-0.353429	-0.831436	-0.353450
C20	C	-0.536245	-1.121118	-0.361231
C21	C	-0.614454	-1.117157	-0.364575
C22	C	-0.353429	-0.503259	-0.353471
C23	C	-0.353427	-0.594568	-0.353463
C24	C	-0.353429	-0.667345	-0.353460
C25	C	-0.353427	-0.758660	-0.353453
C26	C	-0.649270	-1.169186	-0.321193
C27	C	-0.722756	-1.165466	-0.324342
C28	C	-0.761424	-1.109711	-0.370870
C29	C	-0.726603	-1.057679	-0.414256
C30	C	-0.653118	-1.061404	-0.411111
C31	C	-0.983395	-1.095770	-0.382621
C32	C	-1.056884	-1.092047	-0.385762
C33	C	-1.053032	-1.199835	-0.295847
C34	C	-0.979547	-1.203552	-0.292703
C35	C	-0.944732	-1.151523	-0.336092
C36	C	-0.836538	-1.105904	-0.374088
C37	C	-0.869619	-1.155334	-0.332877
C38	C	-0.169908	-1.140034	-0.345693
C39	C	-0.091700	-1.144076	-0.342380
C40	C	-0.361218	-1.121216	-0.536990
C41	C	-0.364535	-1.117239	-0.615196
C42	C	-0.353444	-0.340854	-0.353489
C43	C	-0.353436	-0.430476	-0.353479
C44	C	-0.321101	-1.169259	-0.650038
C45	C	-0.324215	-1.165513	-0.723520
C46	C	-0.370767	-1.109751	-0.762159
C47	C	-0.414203	-1.057726	-0.727312
C48	C	-0.411084	-1.061468	-0.653831
C49	C	-0.382430	-1.095751	-0.984119
C50	C	-0.385546	-1.092014	-1.057605
C51	C	-0.295558	-1.199801	-1.053808
C52	C	-0.292447	-1.203542	-0.980326
C53	C	-0.335879	-1.151514	-0.945485
C54	C	-0.373953	-1.105922	-0.837270
C55	C	-0.332689	-1.155339	-0.870376
C56	C	-0.345628	-1.139891	-0.170661
C57	C	-0.342113	-1.144033	-0.092447
H58	H	-0.617791	-1.214585	-0.283301
Br59	Br	-0.269504	-1.231004	-0.817936
H60	H	-0.868030	-1.060507	-0.411970
Br61	Br	-0.257926	-1.244946	-0.597606
Br62	Br	-0.236615	-1.270405	-1.101096
Br63	Br	-1.100284	-1.270446	-0.236968
Br64	Br	-1.109362	-1.016361	-0.448899
Br65	Br	-0.441374	-1.025139	-0.936844
H66	H	-0.288849	-1.207875	-0.751885
Br67	Br	-0.779080	-0.982017	-0.477409
H68	H	-0.955055	-1.053404	-0.417949
Br69	Br	-0.477377	-0.982042	-0.779749
H70	H	-0.624772	-1.019037	-0.446438
H71	H	-0.838134	-1.200733	-0.294996
Br72	Br	-0.770004	-1.236085	-0.265467
Br73	Br	-0.229269	-1.279224	-0.927893
Br74	Br	-0.448726	-1.016329	-1.110044
Br75	Br	-0.470028	-0.990862	-0.606543
H76	H	-0.948064	-1.248952	-0.254816
H77	H	-0.411859	-1.060524	-0.868738
