data_functionalizedCrystal
_audit_creation_method	'MofGen! by Chris Wilmer'
_symmetry_space_group_name_H-M	'P1'
_symmetry_Int_Tables_number	1
_symmetry_cell_setting	triclinic
loop_
_symmetry_equiv_pos_as_xyz
  x,y,z
_cell_length_a	18.050590
_cell_length_b	21.295417
_cell_length_c	18.050582
_cell_angle_alpha	89.974292
_cell_angle_beta	90.000767
_cell_angle_gamma	90.018869
loop_
_atom_site_label
_atom_site_type_symbol
_atom_site_fract_x
_atom_site_fract_y
_atom_site_fract_z
Zn1	Zn	1.135285	-0.250831	-0.419585
Zn2	Zn	1.135192	-0.356092	-0.295389
Zn3	Zn	1.011104	-0.250821	-0.295444
Zn4	Zn	1.011049	-0.356047	-0.419571
O5	O	1.073157	-0.303448	-0.357497
O6	O	1.239197	-0.264818	-0.403093
O7	O	1.118716	-0.342143	-0.191471
O8	O	1.027639	-0.162733	-0.311940
O9	O	1.239129	-0.342153	-0.311847
O10	O	1.118874	-0.162741	-0.403147
O11	O	1.027549	-0.264801	-0.191512
O12	O	0.907172	-0.264756	-0.311926
O13	O	1.027545	-0.342075	-0.523498
O14	O	0.907132	-0.342065	-0.403122
O15	O	1.118820	-0.264773	-0.523508
O16	O	1.118663	-0.444176	-0.311833
O17	O	1.027455	-0.444142	-0.403069
C18	C	0.880205	-0.303405	-0.357529
C19	C	0.797660	-0.303402	-0.357560
C20	C	0.598208	-0.345562	-0.407035
C21	C	0.548817	-0.288165	-0.425314
C22	C	0.646529	-0.303437	-0.357524
C23	C	0.548839	-0.360867	-0.339245
C24	C	0.500544	-0.303476	-0.357491
C25	C	0.598225	-0.246009	-0.375838
C26	C	0.598251	-0.318749	-0.289738
C27	C	0.548882	-0.261313	-0.307991
C28	C	0.730627	-0.303415	-0.357545
C29	C	0.416448	-0.303491	-0.357469
C30	C	1.073063	-0.467000	-0.357460
C31	C	1.073090	-0.536968	-0.357468
C32	C	1.120569	-0.569781	-0.404994
C33	C	1.120595	-0.635523	-0.405012
C34	C	1.073150	-0.668450	-0.357492
C35	C	1.025662	-0.635629	-0.309963
C36	C	1.025632	-0.569888	-0.309952
N37	N	1.067546	-0.771706	-0.292499
N38	N	1.067579	-0.834158	-0.292512
C39	C	1.073237	-0.866525	-0.357525
N40	N	1.078875	-0.834081	-0.422526
N41	N	1.078846	-0.771624	-0.422512
C42	C	1.073178	-0.739735	-0.357499
C43	C	1.120747	-0.970624	-0.405074
C44	C	1.120768	-1.036367	-0.405094
C45	C	1.025839	-1.036472	-0.310039
C46	C	1.025814	-0.970729	-0.310026
C47	C	1.073272	-0.937809	-0.357542
C48	C	1.266863	-0.303492	-0.357465
C49	C	1.349409	-0.303510	-0.357452
C50	C	1.073187	-0.303420	-0.551203
C51	C	1.073199	-0.303408	-0.633749
C52	C	1.073273	-0.139258	-0.357551
C53	C	1.073322	-0.069290	-0.357574
C54	C	1.023601	-0.345387	-0.833194
C55	C	1.091356	-0.360785	-0.882566
C56	C	1.073236	-0.303360	-0.784879
C57	C	1.005518	-0.287944	-0.882589
C58	C	1.073265	-0.303315	-0.930864
C59	C	1.141026	-0.318788	-0.833164
C60	C	1.055142	-0.245921	-0.833183
C61	C	1.122944	-0.261297	-0.882532
C62	C	1.073218	-0.303388	-0.700781
C63	C	1.073291	-0.303287	-1.014961
C64	C	1.073171	-0.303430	-0.164545
C65	C	1.073303	-0.303265	-0.082000
H66	H	0.619981	-0.331705	-0.232443
H67	H	0.527142	-0.409418	-0.323800
O68	O	1.166689	-0.537901	-0.451223
C69	C	1.260886	-0.544739	-0.545465
C70	C	1.208682	-0.580922	-0.493161
H71	H	1.294862	-0.579506	-0.579374
H72	H	1.226790	-0.513979	-0.584322
H73	H	1.299693	-0.513937	-0.511374
H74	H	1.169864	-0.611758	-0.527192
H75	H	1.242824	-0.611643	-0.454301
H76	H	1.198323	-0.331863	-0.811545
H77	H	0.987031	-0.662442	-0.271274
H78	H	0.986968	-0.543170	-0.271250
O79	O	1.173145	-0.218868	-0.908093
C80	C	1.265403	-0.141507	-0.876744
C81	C	1.208586	-0.189542	-0.847698
H82	H	1.294062	-0.117774	-0.827929
H83	H	1.308428	-0.166571	-0.912263
H84	H	1.235740	-0.104580	-0.911552
H85	H	1.238185	-0.226481	-0.812859
H86	H	1.165564	-0.164434	-0.812219
O87	O	0.624090	-0.388060	-0.456934
C88	C	0.696404	-0.481673	-0.476611
C89	C	0.667127	-0.433603	-0.420019
H90	H	0.731219	-0.518499	-0.446789
H91	H	0.647728	-0.505528	-0.505380
H92	H	0.731985	-0.456546	-0.519574
H93	H	0.631558	-0.458683	-0.377011
H94	H	0.715837	-0.409750	-0.391306
O95	O	1.036713	-0.188031	-0.807311
C96	C	0.944472	-0.106337	-0.803132
C97	C	0.965254	-0.171907	-0.832470
H98	H	0.886703	-0.093275	-0.823474
H99	H	0.945122	-0.106793	-0.739979
H100	H	0.986238	-0.070378	-0.824267
H101	H	0.923508	-0.207902	-0.811389
H102	H	0.964627	-0.171399	-0.895621
H103	H	0.527103	-0.275226	-0.482625
H104	H	1.159252	-0.662245	-0.443721
O105	O	0.973564	-0.387885	-0.807467
C106	C	0.882229	-0.466118	-0.838507
C107	C	0.938878	-0.418022	-0.867743
H108	H	0.854158	-0.490487	-0.887225
H109	H	0.911833	-0.502532	-0.802904
H110	H	0.838719	-0.440903	-0.803737
H111	H	0.982403	-0.443183	-0.902544
H112	H	0.909222	-0.381611	-0.903305
O113	O	1.166786	-1.068271	-0.451342
C114	C	1.176758	-1.142461	-0.551603
C115	C	1.124556	-1.106359	-0.499285
H116	H	1.142637	-1.173274	-0.590368
H117	H	1.210657	-1.107663	-0.585612
H118	H	1.215637	-1.173207	-0.517520
H119	H	1.085632	-1.075612	-0.533311
H120	H	1.090710	-1.141190	-0.465274
H121	H	0.948238	-0.274925	-0.904300
O122	O	0.624114	-0.188115	-0.394370
C123	C	0.731444	-0.123133	-0.415132
C124	C	0.702223	-0.188728	-0.394150
H125	H	0.794597	-0.123604	-0.414946
H126	H	0.710694	-0.110000	-0.472743
H127	H	0.710662	-0.087219	-0.373186
H128	H	0.722992	-0.224686	-0.436046
H129	H	0.722966	-0.201809	-0.336521
H130	H	0.527360	-0.225664	-0.266107
H131	H	1.106677	-0.409341	-0.904257
O132	O	1.166858	-0.938738	-0.451310
C133	C	1.261035	-0.945572	-0.545573
C134	C	1.208843	-0.981757	-0.493259
H135	H	1.295004	-0.980337	-0.579491
H136	H	1.226928	-0.914812	-0.584422
H137	H	1.299848	-0.914769	-0.511490
H138	H	1.170019	-1.012594	-0.527281
H139	H	1.242995	-1.012478	-0.454407
H140	H	0.987204	-1.063280	-0.271351
H141	H	0.987155	-0.944011	-0.271323
