data_functionalizedCrystal
_audit_creation_method	'MofGen! by Chris Wilmer'
_symmetry_space_group_name_H-M	'P1'
_symmetry_Int_Tables_number	1
_symmetry_cell_setting	triclinic
loop_
_symmetry_equiv_pos_as_xyz
  x,y,z
_cell_length_a	12.645331
_cell_length_b	12.645330
_cell_length_c	12.645324
_cell_angle_alpha	90.031659
_cell_angle_beta	90.021980
_cell_angle_gamma	90.016671
loop_
_atom_site_label
_atom_site_type_symbol
_atom_site_fract_x
_atom_site_fract_y
_atom_site_fract_z
Zn1	Zn	1.620724	-0.421989	0.599446
Zn2	Zn	1.620608	-0.599298	0.422186
Zn3	Zn	1.443441	-0.422046	0.422191
Zn4	Zn	1.443420	-0.599208	0.599402
O5	O	1.532048	-0.510635	0.510806
O6	O	1.769056	-0.445523	0.575949
O7	O	1.597066	-0.575846	0.273840
O8	O	1.467015	-0.273691	0.445724
O9	O	1.768970	-0.575791	0.445717
O10	O	1.597264	-0.273649	0.575953
O11	O	1.466902	-0.445620	0.273843
O12	O	1.295091	-0.445533	0.445681
O13	O	1.466980	-0.575638	0.747755
O14	O	1.295076	-0.575693	0.575877
O15	O	1.597244	-0.445436	0.747788
O16	O	1.597046	-0.747633	0.445674
O17	O	1.466867	-0.747567	0.575873
C18	C	1.256618	-0.510610	0.510776
C19	C	1.138788	-0.510625	0.510788
C20	C	1.531971	-0.786065	0.510791
C21	C	1.532035	-0.903895	0.510821
C22	C	0.971198	-0.428364	0.429333
C23	C	1.093758	-0.428577	0.428974
C24	C	1.094269	-0.622302	0.480273
C25	C	0.971670	-0.621853	0.479717
C26	C	0.971638	-0.482270	0.623072
C27	C	1.094244	-0.479775	0.622448
C28	C	1.450477	-1.071461	0.592982
C29	C	1.450060	-0.948902	0.592717
C30	C	1.501791	-0.948501	0.399099
C31	C	1.501293	-1.071100	0.399597
C32	C	1.644335	-1.070983	0.539475
C33	C	1.643647	-0.948375	0.541918
C34	C	1.808553	-0.510661	0.510838
C35	C	1.926383	-0.510672	0.510851
C36	C	1.532123	-0.510520	0.787312
C37	C	1.532155	-0.510471	0.905142
C38	C	1.532155	-0.234130	0.510844
C39	C	1.532200	-0.116300	0.510861
C40	C	1.532035	-0.510673	0.235377
C41	C	1.532208	-0.510423	0.117547
C42	C	1.614122	-0.428544	0.950044
C43	C	1.614474	-0.428758	1.072604
C44	C	1.562111	-0.622241	1.073023
C45	C	1.562675	-0.621795	0.950425
C46	C	1.420090	-0.481547	0.950312
C47	C	1.420721	-0.479055	1.072919
H48	H	1.123859	-0.345764	0.448100
H49	H	1.356430	-0.534332	1.103509
H50	H	1.504254	-0.684938	1.102130
H51	H	1.367864	-1.102363	0.574266
H52	H	1.123037	-0.447350	0.345814
H53	H	0.940352	-0.446929	0.346662
H54	H	1.398163	-0.396765	1.102023
H55	H	1.420673	-0.917892	0.374420
H56	H	1.419321	-1.099793	0.375357
H57	H	0.941734	-0.345302	0.448254
H58	H	0.943025	-0.645937	0.397678
H59	H	1.366928	-0.919668	0.573760
H60	H	0.942025	-0.685255	0.536502
H61	H	1.359024	-0.541214	0.921269
H62	H	1.123437	-0.685267	0.537783
H63	H	1.124925	-0.646800	0.399115
H64	H	1.124900	-0.535351	0.686433
H65	H	1.392770	-0.401415	0.919395
H66	H	0.940741	-0.402256	0.650823
H67	H	1.644582	-0.646259	0.921841
H68	H	1.666455	-0.919216	0.624140
H69	H	1.558234	-1.100766	0.336324
H70	H	1.707742	-0.917733	0.486462
H71	H	1.705221	-1.099979	0.479663
H72	H	1.559427	-0.919352	0.336240
H73	H	1.671924	-1.101817	0.619558
H74	H	1.697528	-0.447919	1.101946
H75	H	1.595658	-0.345394	0.920588
H76	H	1.505525	-0.684917	0.920717
H77	H	1.123347	-0.397593	0.645458
H78	H	1.595790	-0.345859	1.102711
H79	H	1.643118	-0.647130	1.103763
H80	H	1.696689	-0.447486	0.919250
H81	H	1.468982	-0.918738	0.675558
H82	H	1.469226	-1.100863	0.676094
H83	H	0.942658	-0.542220	0.683810
