data_functionalizedCrystal
_audit_creation_method	'MofGen! by Chris Wilmer'
_symmetry_space_group_name_H-M	'P1'
_symmetry_Int_Tables_number	1
_symmetry_cell_setting	triclinic
loop_
_symmetry_equiv_pos_as_xyz
  x,y,z
_cell_length_a	19.121102
_cell_length_b	21.295417
_cell_length_c	19.120904
_cell_angle_alpha	92.408338
_cell_angle_beta	90.088173
_cell_angle_gamma	87.584620
loop_
_atom_site_label
_atom_site_type_symbol
_atom_site_fract_x
_atom_site_fract_y
_atom_site_fract_z
Zn1	Zn	1.054814	-0.307921	-0.442032
Zn2	Zn	1.554814	0.192079	0.057968
Zn3	Zn	1.059724	-0.408895	-0.324785
Zn4	Zn	1.559724	0.091105	0.175215
Zn5	Zn	0.942584	-0.298967	-0.319816
Zn6	Zn	1.442584	0.201033	0.180184
Zn7	Zn	0.937535	-0.408472	-0.436987
Zn8	Zn	1.437535	0.091528	0.063013
O9	O	0.998664	-0.356064	-0.380905
O10	O	1.498664	0.143936	0.119095
O11	O	1.153571	-0.325239	-0.430669
O12	O	1.653571	0.174761	0.069331
O13	O	1.048352	-0.390743	-0.226021
O14	O	1.548352	0.109257	0.273979
O15	O	0.957530	-0.212069	-0.336060
O16	O	1.457530	0.287931	0.163940
O17	O	1.157177	-0.399425	-0.344528
O18	O	1.657177	0.100575	0.155472
O19	O	1.039985	-0.218647	-0.425851
O20	O	1.539985	0.281353	0.074149
O21	O	0.962291	-0.309980	-0.222371
O22	O	1.462291	0.190020	0.277629
O23	O	0.843809	-0.309569	-0.331169
O24	O	1.343809	0.190431	0.168831
O25	O	0.948925	-0.398703	-0.535761
O26	O	1.448925	0.101297	-0.035761
O27	O	0.840100	-0.390022	-0.417254
O28	O	1.340100	0.109978	0.082746
O29	O	1.035089	-0.324829	-0.539467
O30	O	1.535089	0.175171	-0.039467
O31	O	1.043456	-0.496925	-0.339637
O32	O	1.543456	0.003075	0.160363
O33	O	0.953685	-0.496614	-0.422072
O34	O	1.453685	0.003386	0.077928
C35	C	0.816517	-0.348778	-0.373125
C36	C	1.316517	0.151222	0.126875
C37	C	0.738593	-0.345677	-0.369814
C38	C	1.238593	0.154323	0.130186
C39	C	0.700074	-0.386166	-0.413007
C40	C	1.200074	0.113834	0.086993
C41	C	0.626856	-0.383244	-0.409899
C42	C	1.126856	0.116756	0.090101
C43	C	0.592158	-0.339836	-0.363593
C44	C	1.092158	0.160164	0.136407
C45	C	0.630682	-0.299344	-0.320398
C46	C	1.130682	0.200656	0.179602
C47	C	0.703899	-0.302263	-0.323510
C48	C	1.203899	0.197737	0.176490
C49	C	0.371187	-0.328921	-0.351961
C50	C	0.871187	0.171079	0.148039
C51	C	0.297965	-0.326006	-0.348850
C52	C	0.797965	0.173994	0.151150
C53	C	0.294144	-0.409906	-0.438353
C54	C	0.794144	0.090094	0.061647
C55	C	0.367362	-0.412824	-0.441458
C56	C	0.867362	0.087176	0.058542
C57	C	0.405880	-0.372329	-0.398265
C58	C	0.905880	0.127671	0.101735
C59	C	0.517318	-0.336850	-0.360413
C60	C	1.017318	0.163150	0.139587
C61	C	0.480719	-0.375313	-0.401449
C62	C	0.980719	0.124687	0.098551
C63	C	0.998574	-0.519610	-0.380862
C64	C	1.498574	-0.019610	0.119138
C65	C	0.998599	-0.589580	-0.380870
C66	C	1.498599	-0.089580	0.119130
C67	C	1.045380	-0.622590	-0.337994
C68	C	1.545380	-0.122590	0.162006
C69	C	1.045413	-0.688335	-0.338011
C70	C	1.545413	-0.188335	0.161989
C71	C	0.998651	-0.721065	-0.380897
C72	C	1.498651	-0.221065	0.119103
C73	C	0.951865	-0.688046	-0.423781
C74	C	1.451865	-0.188046	0.076219
C75	C	0.951839	-0.622304	-0.423768
C76	C	1.451839	-0.122304	0.076232
N77	N	0.937094	-0.822078	-0.383622
N78	N	1.437094	-0.322078	0.116378
N79	N	0.937121	-0.884530	-0.383630
N80	N	1.437121	-0.384530	0.116370
C81	C	0.998728	-0.919144	-0.380940
C82	C	1.498728	-0.419144	0.119060
N83	N	1.060308	-0.888946	-0.378228
N84	N	1.560308	-0.388946	0.121772
N85	N	1.060281	-0.826487	-0.378215
N86	N	1.560281	-0.326487	0.121785
C87	C	0.998674	-0.792352	-0.380916
C88	C	1.498674	-0.292352	0.119084
C89	C	1.045548	-1.023443	-0.338080
C90	C	1.545548	-0.523443	0.161920
C91	C	1.045581	-1.089189	-0.338103
C92	C	1.545581	-0.589189	0.161897
C93	C	0.952028	-1.088899	-0.423869
C94	C	1.452028	-0.588899	0.076131
C95	C	0.952001	-1.023154	-0.423850
C96	C	1.452001	-0.523154	0.076150
C97	C	0.998760	-0.990430	-0.380953
C98	C	1.498760	-0.490430	0.119047
C99	C	1.181523	-0.363378	-0.388716
C100	C	1.681523	0.136622	0.111284
C101	C	1.259446	-0.366495	-0.392044
C102	C	1.759446	0.133505	0.107956
C103	C	0.990896	-0.362718	-0.563763
C104	C	1.490896	0.137282	-0.063763
C105	C	0.987586	-0.365553	-0.641686
C106	C	1.487586	0.134447	-0.141686
C107	C	0.998773	-0.191880	-0.380964
C108	C	1.498773	0.308120	0.119036
C109	C	0.998820	-0.121914	-0.380989
C110	C	1.498820	0.378086	0.119011
C111	C	1.030890	-0.328425	-0.680225
C112	C	1.530890	0.171575	-0.180225
C113	C	1.027771	-0.331086	-0.753441
C114	C	1.527771	0.168914	-0.253441
C115	C	0.981351	-0.370880	-0.788118
C116	C	1.481351	0.129120	-0.288118
C117	C	0.938043	-0.408010	-0.749573
C118	C	1.438043	0.091990	-0.249573
C119	C	0.941159	-0.405345	-0.676358
C120	C	1.441159	0.094655	-0.176358
C121	C	0.969696	-0.380849	-1.009084
C122	C	1.469696	0.119151	-0.509084
C123	C	0.966585	-0.383513	-1.082305
C124	C	1.466585	0.116487	-0.582305
C125	C	1.056312	-0.306588	-1.086168
C126	C	1.556312	0.193412	-0.586168
C127	C	1.059427	-0.303929	-1.012951
C128	C	1.559427	0.196071	-0.512951
C129	C	1.016116	-0.341056	-0.974413
C130	C	1.516116	0.158944	-0.474413
C131	C	0.978164	-0.373603	-0.862957
C132	C	1.478164	0.126397	-0.362957
C133	C	1.019300	-0.338330	-0.899575
C134	C	1.519300	0.161670	-0.399575
C135	C	1.006442	-0.349392	-0.198761
C136	C	1.506442	0.150608	0.301239
C137	C	1.009889	-0.346384	-0.120844
C138	C	1.509889	0.153616	0.379156
H139	H	0.395608	-0.448173	-0.479164
H140	H	0.895608	0.051827	0.020836
H141	H	0.940372	-0.406006	-0.891199
H142	H	1.440372	0.093994	-0.391199
H143	H	1.083456	-0.595949	-0.303066
H144	H	1.583456	-0.095949	0.196934
H145	H	0.934439	-0.411090	-0.977716
H146	H	1.434439	0.088910	-0.477716
C147	C	0.584490	-0.427819	-0.457369
C148	C	1.084490	0.072181	0.042631
H149	H	0.615642	-0.454105	-0.485374
H150	H	1.115642	0.045895	0.014626
H151	H	0.554626	-0.403794	-0.486767
H152	H	1.054626	0.096206	0.013233
H153	H	0.557073	-0.453079	-0.429237
H154	H	1.057073	0.046921	0.070763
H155	H	0.402539	-0.295952	-0.316785
H156	H	0.902539	0.204048	0.183215
H157	H	0.913743	-0.595426	-0.458684
H158	H	1.413743	-0.095426	0.041316
C159	C	1.081949	-0.284648	-0.642087
C160	C	1.581949	0.215352	-0.142087
H161	H	1.107286	-0.262912	-0.675528
H162	H	1.607286	0.237088	-0.175528
H163	H	1.113696	-0.308905	-0.614821
H164	H	1.613696	0.191095	-0.114821
H165	H	1.056356	-0.255107	-0.612391
H166	H	1.556356	0.244893	-0.112391
C167	C	0.900591	-1.124891	-0.471045
C168	C	1.400591	-0.624891	0.028955
H169	H	0.872727	-1.095812	-0.496582
H170	H	1.372727	-0.595812	0.003418
H171	H	0.871218	-1.148380	-0.442907
H172	H	1.371218	-0.648380	0.057093
H173	H	0.926103	-1.152682	-0.502766
H174	H	1.426103	-0.652682	-0.002766
H175	H	1.057092	-0.305927	-0.871338
H176	H	1.557092	0.194073	-0.371338
H177	H	1.091573	-0.276360	-1.117553
H178	H	1.591573	0.223640	-0.617553
C179	C	1.096987	-0.987444	-0.290904
C180	C	1.596987	-0.487444	0.209096
H181	H	1.124862	-1.016524	-0.265378
H182	H	1.624862	-0.516524	0.234622
H183	H	1.071484	-0.959651	-0.259184
H184	H	1.571484	-0.459651	0.240816
H185	H	1.126361	-0.963958	-0.319051
H186	H	1.626361	-0.463958	0.180949
H187	H	0.602426	-0.263997	-0.282698
H188	H	1.102426	0.236003	0.217302
C189	C	1.096869	-0.724654	-0.290840
C190	C	1.596869	-0.224654	0.209160
H191	H	1.124709	-0.695748	-0.265287
H192	H	1.624709	-0.195748	0.234713
H193	H	1.126265	-0.752464	-0.318985
H194	H	1.626265	-0.252464	0.181015
H195	H	1.071372	-0.748148	-0.259134
H196	H	1.571372	-0.248148	0.240866
H197	H	1.063035	-0.300854	-0.784817
H198	H	1.563035	0.199146	-0.284817
C199	C	0.900428	-0.724047	-0.470952
C200	C	1.400428	-0.224047	0.029048
H201	H	0.907138	-0.767929	-0.464814
H202	H	1.407138	-0.267929	0.035186
H203	H	0.908643	-0.715369	-0.518499
H204	H	1.408643	-0.215369	-0.018499
H205	H	0.853763	-0.711057	-0.458636
H206	H	1.353763	-0.211057	0.041364
C207	C	1.097044	-1.125501	-0.290936
C208	C	1.597044	-0.625501	0.209064
H209	H	1.124881	-1.096593	-0.265383
H210	H	1.624881	-0.596593	0.234617
H211	H	1.126442	-1.153306	-0.319084
H212	H	1.626442	-0.653306	0.180916
H213	H	1.071552	-1.148999	-0.259230
H214	H	1.571552	-0.648999	0.240770
C215	C	0.886983	-0.451783	-0.787715
C216	C	1.386983	0.048217	-0.287715
H217	H	0.891334	-0.448058	-0.836840
H218	H	1.391334	0.051942	-0.336840
H219	H	0.840395	-0.440251	-0.773706
H220	H	1.340395	0.059749	-0.273706
H221	H	0.897731	-0.494052	-0.776138
H222	H	1.397731	0.005948	-0.276138
C223	C	0.900537	-0.986837	-0.471008
C224	C	1.400537	-0.486837	0.028992
H225	H	0.907222	-0.942997	-0.464863
H226	H	1.407222	-0.442997	0.035137
H227	H	0.853883	-0.995398	-0.458703
H228	H	1.353883	-0.495398	0.041297
H229	H	0.908767	-0.999707	-0.518562
H230	H	1.408767	-0.499707	-0.018562
H231	H	1.097229	-0.271526	-0.984722
H232	H	1.597229	0.228474	-0.484722
H233	H	0.728320	-0.421515	-0.450712
H234	H	1.228320	0.078485	0.049288
C235	C	0.915519	-0.427286	-1.120448
C236	C	1.415519	0.072714	-0.620448
H237	H	0.890166	-0.449012	-1.087010
H238	H	1.390166	0.050988	-0.587010
H239	H	0.941103	-0.456826	-1.150144
H240	H	1.441103	0.043174	-0.650144
H241	H	0.883775	-0.403018	-1.147713
H242	H	1.383775	0.096982	-0.647713
H243	H	0.905889	-0.435572	-0.644980
H244	H	1.405889	0.064428	-0.144980
H245	H	0.489059	-0.301509	-0.322710
H246	H	0.989059	0.198491	0.177290
C247	C	0.251775	-0.454417	-0.485898
C248	C	0.751775	0.045583	0.014102
H249	H	0.282926	-0.480681	-0.513927
H250	H	0.782926	0.019319	-0.013927
H251	H	0.221949	-0.430330	-0.515270
H252	H	0.721949	0.069670	-0.015270
H253	H	0.224319	-0.479704	-0.457834
H254	H	0.724319	0.020296	0.042166
C255	C	0.259796	-0.278262	-0.297907
C256	C	0.759796	0.221738	0.202093
H257	H	0.210674	-0.282332	-0.302233
H258	H	0.710674	0.217668	0.197767
H259	H	0.271371	-0.236833	-0.308759
H260	H	0.771371	0.263167	0.191241
H261	H	0.273787	-0.286179	-0.251293
H262	H	0.773787	0.213821	0.248707
C263	C	0.746273	-0.257727	-0.275999
C264	C	1.246273	0.242273	0.224001
H265	H	0.794847	-0.265677	-0.284489
H266	H	1.294847	0.234323	0.215511
H267	H	0.736263	-0.264677	-0.228364
H268	H	1.236263	0.235323	0.271636
H269	H	0.733857	-0.215344	-0.285844
H270	H	1.233857	0.284656	0.214156
H271	H	0.508972	-0.410653	-0.439154
H272	H	1.008972	0.089347	0.060846
