data_functionalizedCrystal
_audit_creation_method	'MofGen! by Chris Wilmer'
_symmetry_space_group_name_H-M	'P1'
_symmetry_Int_Tables_number	1
_symmetry_cell_setting	triclinic
loop_
_symmetry_equiv_pos_as_xyz
  x,y,z
_cell_length_a	13.339070
_cell_length_b	10.268362
_cell_length_c	13.262975
_cell_angle_alpha	74.092158
_cell_angle_beta	99.433729
_cell_angle_gamma	90.004641
loop_
_atom_site_label
_atom_site_type_symbol
_atom_site_fract_x
_atom_site_fract_y
_atom_site_fract_z
O1	O	1.344519	-0.078211	0.526794
O2	O	1.049699	-0.053732	0.457649
O3	O	1.204521	-0.012640	0.341603
O4	O	1.189697	-0.119303	0.642841
O5	O	1.204507	-0.229236	0.341592
O6	O	1.049685	-0.270329	0.457639
O7	O	1.344506	-0.294808	0.526784
Cu8	Cu	1.197094	-0.302345	0.492210
Cu9	Cu	1.197110	-0.046194	0.492223
O10	O	1.189684	-0.335900	0.642830
C11	C	1.011953	-0.157895	0.445964
C12	C	0.899504	-0.145569	0.411149
C13	C	0.535860	-0.241400	0.681852
C14	C	0.641512	-0.252978	0.714566
C15	C	0.706015	-0.226127	0.638714
C16	C	0.664856	-0.187695	0.530144
C17	C	0.559194	-0.176106	0.497427
C18	C	0.729349	-0.160833	0.454289
C19	C	0.688190	-0.122401	0.345718
C20	C	0.582538	-0.110814	0.313007
C21	C	0.518035	-0.137665	0.388858
C22	C	0.835011	-0.172422	0.487006
C23	C	0.858345	-0.107128	0.302581
C24	C	0.752693	-0.095550	0.269867
N25	N	1.197090	-0.482509	0.492203
C26	C	1.197105	-0.748185	0.492219
C27	C	1.197094	-0.600344	0.492212
C28	C	1.382251	-0.190642	0.538469
C29	C	1.494701	-0.202959	0.573284
C30	C	1.203681	-0.107005	0.302255
C31	C	1.201188	-0.065486	0.185022
N32	N	1.197122	0.133971	0.492224
C33	C	1.200036	0.072095	0.129980
C34	C	1.197705	0.111133	0.019836
C35	C	1.196534	0.012593	-0.035275
C36	C	1.197692	-0.124992	0.019768
C37	C	1.200015	-0.164033	0.129921
C38	C	1.196512	-0.223536	-0.035335
C39	C	1.197671	-0.361121	0.019708
C40	C	1.199995	-0.400155	0.129851
C41	C	1.201167	-0.301615	0.184963
C42	C	1.194189	-0.184495	-0.145488
C43	C	1.194168	-0.420623	-0.145548
C44	C	1.196499	-0.459661	-0.035404
C45	C	1.190523	-0.241532	0.682178
C46	C	1.193017	-0.283042	0.799411
H47	H	0.868511	-0.203719	0.575405
H48	H	1.200934	-0.512186	0.174663
C49	C	0.538045	-0.069129	0.195082
C50	C	0.617143	-0.048129	0.135654
C51	C	0.576197	-0.009746	0.027019
H52	H	0.497335	0.012312	0.178342
H53	H	0.497335	-0.138798	0.178438
H54	H	0.657835	0.021536	0.152290
H55	H	0.657859	-0.129553	0.152361
H56	H	0.535487	-0.079415	0.010375
H57	H	0.535487	0.071693	0.010290
H58	H	0.629857	0.004495	-0.013316
H59	H	1.193210	-0.500863	-0.190420
C60	C	1.192768	-0.035071	-0.205140
C61	C	1.106311	0.031452	-0.191856
C62	C	1.104970	0.169112	-0.246783
H63	H	1.191159	-0.025743	-0.278657
H64	H	1.252113	0.003866	-0.177878
H65	H	1.046981	-0.007473	-0.219123
H66	H	1.107901	0.022163	-0.118352
H67	H	1.164316	0.208049	-0.219521
H68	H	1.103364	0.178426	-0.320296
H69	H	1.046316	0.214267	-0.237769
H70	H	0.792040	-0.235553	0.665357
H71	H	0.483333	-0.263246	0.743598
H72	H	0.432004	-0.128241	0.362228
C73	C	0.928316	-0.077689	0.220170
C74	C	0.909687	0.056273	0.156604
C75	C	0.974140	0.083448	0.080693
H76	H	0.915847	-0.137779	0.176808
H77	H	0.997150	-0.090015	0.255163
H78	H	0.840869	0.068585	0.121613
H79	H	0.922163	0.116391	0.199936
H80	H	1.042974	0.071122	0.115686
H81	H	0.961666	0.023350	0.037339
H82	H	0.961516	0.174346	0.037561
C83	C	0.686000	-0.294793	0.832484
C84	C	0.606902	-0.315865	0.891910
C85	C	0.647846	-0.354408	1.000545
H86	H	0.726724	-0.225210	0.849229
H87	H	0.726696	-0.376250	0.849124
H88	H	0.566223	-0.234418	0.875277
H89	H	0.566171	-0.385454	0.875199
H90	H	0.688542	-0.435865	1.017186
H91	H	0.688569	-0.284820	1.017279
H92	H	0.594184	-0.368722	1.040879
H93	H	0.719166	-0.064248	0.181467
C94	C	1.201182	0.178915	0.189947
C95	C	1.115507	0.168184	0.239671
C96	C	1.116548	0.266552	0.294943
H97	H	1.200124	0.266525	0.141523
H98	H	1.261063	0.165291	0.242153
H99	H	1.055642	0.181819	0.187471
H100	H	1.116547	0.080596	0.288111
H101	H	1.176428	0.252928	0.347149
H102	H	1.115493	0.354155	0.246512
H103	H	1.058424	0.259277	0.328696
H104	H	1.194635	0.044386	-0.124960
H105	H	1.196765	0.223154	-0.024971
H106	H	1.203070	-0.333393	0.274652
H107	H	1.197442	-0.571685	0.009428
