data_functionalizedCrystal
_audit_creation_method	'MofGen! by Chris Wilmer'
_symmetry_space_group_name_H-M	'P1'
_symmetry_Int_Tables_number	1
_symmetry_cell_setting	triclinic
loop_
_symmetry_equiv_pos_as_xyz
  x,y,z
_cell_length_a	21.395362
_cell_length_b	11.169416
_cell_length_c	11.169409
_cell_angle_alpha	89.969126
_cell_angle_beta	89.957440
_cell_angle_gamma	90.026221
loop_
_atom_site_label
_atom_site_type_symbol
_atom_site_fract_x
_atom_site_fract_y
_atom_site_fract_z
Zn1	Zn	0.957940	-0.477201	-0.679283
Zn2	Zn	1.457940	0.022799	-0.179283
Zn3	Zn	0.957882	-0.677942	-0.478605
Zn4	Zn	1.457882	-0.177942	0.021395
Zn5	Zn	0.853157	-0.477327	-0.478538
Zn6	Zn	1.353157	0.022673	0.021462
Zn7	Zn	0.853161	-0.677896	-0.679171
Zn8	Zn	1.353161	-0.177896	-0.179171
O9	O	0.905535	-0.577591	-0.578899
O10	O	1.405535	-0.077591	-0.078899
O11	O	1.045610	-0.503796	-0.652738
O12	O	1.545610	-0.003796	-0.152738
O13	O	0.943964	-0.651401	-0.310647
O14	O	1.443964	-0.151401	0.189353
O15	O	0.867079	-0.309360	-0.505186
O16	O	1.367079	0.190640	-0.005186
O17	O	1.045567	-0.651279	-0.505301
O18	O	1.545567	-0.151279	-0.005301
O19	O	0.944063	-0.309268	-0.652673
O20	O	1.444063	0.190732	-0.152673
O21	O	0.867023	-0.504010	-0.310597
O22	O	1.367023	-0.004010	0.189403
O23	O	0.765480	-0.503966	-0.505077
O24	O	1.265480	-0.003966	-0.005077
O25	O	0.867086	-0.651202	-0.847135
O26	O	1.367086	-0.151202	-0.347135
O27	O	0.765483	-0.651324	-0.652481
O28	O	1.265483	-0.151324	-0.152481
O29	O	0.944066	-0.503752	-0.847218
O30	O	1.444066	-0.003752	-0.347218
O31	O	0.943968	-0.845885	-0.505192
O32	O	1.443968	-0.345885	-0.005192
O33	O	0.867030	-0.845852	-0.652546
O34	O	1.367030	-0.345852	-0.152546
C35	C	0.742747	-0.577655	-0.578760
C36	C	1.242747	-0.077655	-0.078760
C37	C	0.673106	-0.577711	-0.578729
C38	C	1.173106	-0.077711	-0.078729
C39	C	0.640411	-0.654542	-0.655367
C40	C	1.140411	-0.154542	-0.155367
C41	C	0.574975	-0.654512	-0.655421
C42	C	1.074975	-0.154512	-0.155421
C43	C	0.542238	-0.577665	-0.578814
C44	C	1.042238	-0.077665	-0.078814
C45	C	0.574941	-0.500819	-0.502171
C46	C	1.074941	-0.000819	-0.002171
C47	C	0.640375	-0.500842	-0.502128
C48	C	1.140375	-0.000842	-0.002128
C49	C	0.438513	-0.568034	-0.470767
C50	C	0.938513	-0.068034	0.029233
C51	C	0.373080	-0.568019	-0.470808
C52	C	0.873080	-0.068019	0.029192
C53	C	0.340417	-0.577586	-0.578947
C54	C	0.840417	-0.077586	-0.078947
C55	C	0.373195	-0.587194	-0.687049
C56	C	0.873195	-0.087194	-0.187049
C57	C	0.438630	-0.587217	-0.687006
C58	C	0.938630	-0.087217	-0.187006
C59	C	0.471285	-0.577631	-0.578853
C60	C	0.971285	-0.077631	-0.078853
C61	C	0.236769	-0.654389	-0.655650
C62	C	0.736769	-0.154389	-0.155650
C63	C	0.171333	-0.654352	-0.655705
C64	C	0.671333	-0.154352	-0.155705
C65	C	0.171299	-0.500664	-0.502445
C66	C	0.671299	-0.000664	-0.002445
C67	C	0.236735	-0.500696	-0.502400
C68	C	0.736735	-0.000696	-0.002400
C69	C	0.269466	-0.577565	-0.579001
C70	C	0.769466	-0.077565	-0.079001
C71	C	0.905510	-0.889416	-0.578890
C72	C	1.405510	-0.389416	-0.078890
C73	C	0.905557	-1.022816	-0.578926
C74	C	1.405557	-0.522816	-0.078926
C75	C	1.068958	-0.577529	-0.579040
C76	C	1.568958	-0.077529	-0.079040
C77	C	1.138599	-0.577502	-0.579100
C78	C	1.638599	-0.077502	-0.079100
C79	C	0.905583	-0.577458	-0.891942
C80	C	1.405583	-0.077458	-0.391942
C81	C	0.905603	-0.577401	-1.025342
C82	C	1.405603	-0.077401	-0.525342
C83	C	0.905577	-0.264549	-0.578935
C84	C	1.405577	0.235451	-0.078935
C85	C	0.905595	-0.131149	-0.578950
C86	C	1.405595	0.368851	-0.078950
C87	C	0.905523	-0.577638	-0.267075
C88	C	1.405523	-0.077638	0.232925
C89	C	0.905624	-0.577356	-0.133675
C90	C	1.405624	-0.077356	0.366325
H91	H	0.667056	-0.717133	-0.717743
H92	H	1.167056	-0.217133	-0.217743
F93	F	0.338439	-0.597371	-0.802148
F94	F	0.838439	-0.097371	-0.302148
H95	H	0.548350	-0.717077	-0.717833
H96	H	1.048350	-0.217077	-0.217833
F97	F	0.473512	-0.597436	-0.802052
F98	F	0.973512	-0.097436	-0.302052
H99	H	0.465101	-0.560238	-0.382701
H100	H	0.965101	-0.060238	0.117299
H101	H	0.144645	-0.438088	-0.440076
H102	H	0.644645	0.061912	0.059924
H103	H	0.263355	-0.438138	-0.439987
H104	H	0.763355	0.061862	0.060013
H105	H	0.548282	-0.438247	-0.439800
H106	H	1.048282	0.061753	0.060200
F107	F	0.338200	-0.557795	-0.355758
F108	F	0.838200	-0.057795	0.144242
H109	H	0.666995	-0.438273	-0.439720
H110	H	1.166995	0.061727	0.060280
H111	H	0.144713	-0.716914	-0.718121
H112	H	0.644713	-0.216914	-0.218121
F113	F	0.271606	-0.736193	-0.737179
F114	F	0.771606	-0.236193	-0.237179
