data_functionalizedCrystal
_audit_creation_method	'MofGen! by Chris Wilmer'
_symmetry_space_group_name_H-M	'P1'
_symmetry_Int_Tables_number	1
_symmetry_cell_setting	triclinic
loop_
_symmetry_equiv_pos_as_xyz
  x,y,z
_cell_length_a	14.519709
_cell_length_b	10.540510
_cell_length_c	12.996460
_cell_angle_alpha	89.996346
_cell_angle_beta	90.000034
_cell_angle_gamma	84.096728
loop_
_atom_site_label
_atom_site_type_symbol
_atom_site_fract_x
_atom_site_fract_y
_atom_site_fract_z
O1	O	1.224752	0.166402	-0.085427
O2	O	0.956380	0.185998	-0.085458
O3	O	1.096703	-0.008571	-0.085441
O4	O	1.084429	0.360972	-0.085443
O5	O	1.096688	-0.008582	0.085693
O6	O	0.956365	0.185987	0.085676
O7	O	1.224738	0.166391	0.085707
Cu8	Cu	1.090550	0.176188	0.101317
Cu9	Cu	1.090567	0.176201	-0.101068
O10	O	1.084414	0.360961	0.085690
C11	C	0.922008	0.185079	0.000105
C12	C	0.819612	0.182343	0.000093
C13	C	0.444662	0.172268	0.000140
C14	C	0.548985	0.175066	0.000127
C15	C	0.632134	0.177305	0.000116
C16	C	0.736463	0.180103	0.000104
C17	C	1.095781	-0.055871	0.000123
C18	C	1.093044	-0.196793	0.000117
C19	C	1.190527	-0.415244	0.000520
C20	C	1.193446	-0.268678	0.000129
C21	C	1.041657	-0.241021	-0.097613
C22	C	1.039449	-0.387759	-0.097689
C23	C	1.037341	-0.387559	0.096921
C24	C	1.042104	-0.241266	0.098208
C25	C	1.259110	0.167310	0.000142
C26	C	1.361505	0.170047	0.000147
C27	C	1.085336	0.408261	0.000123
C28	C	1.088073	0.549182	0.000123
N29	N	1.090544	0.176179	0.243664
N30	N	1.090580	0.176201	-0.243415
C31	C	1.090566	0.176202	0.663479
C32	C	1.090557	0.176200	0.546674
C33	C	1.090556	0.176191	0.453575
C34	C	1.090546	0.176187	0.336763
H35	H	1.233653	-0.239749	0.070185
H36	H	0.964355	-0.409988	-0.102126
N37	N	1.083517	-0.438688	-0.189315
N38	N	1.039281	-0.498788	-0.252053
H39	H	1.070406	-0.534755	-0.316765
N40	N	0.950146	-0.178793	0.105661
N41	N	0.926964	-0.111344	0.182328
H42	H	0.862016	-0.067224	0.187600
N43	N	1.086447	-0.202760	-0.188836
N44	N	1.156201	-0.142934	-0.182127
H45	H	1.187840	-0.115914	-0.246551
H46	H	0.961960	-0.408939	0.097571
H47	H	1.069241	-0.430071	0.171000
N48	N	1.239592	-0.468374	0.088446
N49	N	1.211610	-0.438254	0.176950
H50	H	1.246262	-0.475786	0.239052
H51	H	1.233899	-0.240681	-0.070039
N52	N	1.239315	-0.470317	-0.086897
N53	N	1.198957	-0.535652	-0.149489
H54	H	1.233410	-0.574550	-0.211230
N55	N	0.948934	-0.180624	-0.102174
N56	N	0.919622	-0.104125	-0.033283
H57	H	0.854136	-0.061467	-0.036501
H58	H	1.079495	-0.213041	0.170508
