data_functionalizedCrystal
_audit_creation_method	'MofGen! by Chris Wilmer'
_symmetry_space_group_name_H-M	'P1'
_symmetry_Int_Tables_number	1
_symmetry_cell_setting	triclinic
loop_
_symmetry_equiv_pos_as_xyz
  x,y,z
_cell_length_a	19.121063
_cell_length_b	12.759401
_cell_length_c	19.121605
_cell_angle_alpha	87.544739
_cell_angle_beta	89.924837
_cell_angle_gamma	87.534569
loop_
_atom_site_label
_atom_site_type_symbol
_atom_site_fract_x
_atom_site_fract_y
_atom_site_fract_z
Zn1	Zn	-0.262277	-1.615417	0.408298
Zn2	Zn	-0.384518	-1.600326	0.296055
Zn3	Zn	-0.267290	-1.431937	0.291074
Zn4	Zn	-0.379473	-1.432505	0.413251
O5	O	-0.323389	-1.520046	0.352170
O6	O	-0.278505	-1.760436	0.393420
O7	O	-0.373177	-1.571435	0.197288
O8	O	-0.168518	-1.462354	0.302467
O9	O	-0.368315	-1.749349	0.310955
O10	O	-0.164835	-1.597156	0.388591
O11	O	-0.287050	-1.447720	0.193629
O12	O	-0.282158	-1.284991	0.307270
O13	O	-0.359717	-1.463322	0.510700
O14	O	-0.364578	-1.285409	0.397033
O15	O	-0.273614	-1.597707	0.507061
O16	O	-0.481956	-1.571986	0.315758
O17	O	-0.478249	-1.448689	0.401862
C18	C	-0.323365	-1.247079	0.352149
C19	C	-0.323371	-1.130302	0.352157
C20	C	-0.505540	-1.508791	0.359903
C21	C	-0.583463	-1.504074	0.363235
C22	C	-0.280391	-1.075201	0.305496
C23	C	-0.280404	-0.965477	0.305503
C24	C	-0.366379	-0.965965	0.398838
C25	C	-0.366369	-1.075687	0.398827
C26	C	-0.237393	-1.129817	0.258826
C27	C	-0.194408	-1.074716	0.212162
C28	C	-0.194421	-0.964991	0.212169
C29	C	-0.237419	-0.910368	0.258840
C30	C	-0.621977	-1.566107	0.320008
C31	C	-0.695194	-1.561677	0.323146
C32	C	-0.729897	-1.495207	0.369508
C33	C	-0.691378	-1.433172	0.412739
C34	C	-0.618162	-1.437608	0.409605
C35	C	-0.950867	-1.478603	0.381217
C36	C	-1.024088	-1.474169	0.384346
C37	C	-1.027900	-1.602676	0.294753
C38	C	-0.954682	-1.607101	0.291620
C39	C	-0.916169	-1.545070	0.334854
C40	C	-0.804737	-1.490675	0.372714
C41	C	-0.841331	-1.549609	0.331650
C42	C	-0.140527	-1.531375	0.344421
C43	C	-0.062602	-1.536202	0.341119
C44	C	-0.315543	-1.532261	0.535030
C45	C	-0.312200	-1.537467	0.612954
C46	C	-0.323406	-0.794079	0.352185
C47	C	-0.323394	-0.910856	0.352175
C48	C	-0.331154	-1.507942	0.170019
C49	C	-0.334300	-1.502952	0.092087
C50	C	-0.291044	-1.570470	1.053581
C51	C	-0.294189	-1.565572	0.980364
C52	C	-0.340587	-1.493151	0.945653
C53	C	-0.383848	-1.425631	0.984164
C54	C	-0.380706	-1.430534	1.057380
C55	C	-0.352319	-1.474850	0.724681
C56	C	-0.355456	-1.469949	0.651459
C57	C	-0.265798	-1.609892	0.647664
C58	C	-0.262657	-1.614785	0.720882
C59	C	-0.305920	-1.547269	0.759387
C60	C	-0.343801	-1.488141	0.870812
C61	C	-0.302709	-1.552285	0.834226
H62	H	-0.159406	-1.119197	0.174161
H63	H	-0.421629	-1.366669	0.955896
H64	H	-0.264935	-1.611253	0.862491
N65	N	-1.067231	-1.666036	0.250586
N66	N	-1.061858	-1.655314	0.185542
H67	H	-1.089635	-1.700065	0.154347
H68	H	-0.258967	-1.620554	0.949015
H69	H	-0.159426	-0.920130	0.174169
H70	H	-0.224878	-1.673762	0.749139
H71	H	-0.926429	-1.661226	0.253868
H72	H	-0.401385	-0.921482	0.436837
N73	N	-0.237390	-1.241895	0.258807
N74	N	-0.292680	-1.286517	0.246373
H75	H	-0.292678	-1.365673	0.246360
N76	N	-0.578807	-1.374257	0.453759
N77	N	-0.535997	-1.416637	0.496703
H78	H	-0.508202	-1.371898	0.527891
H79	H	-0.833000	-1.436554	0.410461
N80	N	-0.410281	-1.131962	0.446490
N81	N	-0.448666	-1.083188	0.488157
H82	H	-0.479683	-1.122932	0.521818
H83	H	-0.593727	-1.620228	0.282252
N84	N	-0.237418	-0.798288	0.258849
N85	N	-0.182123	-0.753674	0.271278
H86	H	-0.182119	-0.674519	0.271288
H87	H	-0.726549	-1.612190	0.287945
H88	H	-1.052340	-1.420056	0.422112
H89	H	-0.719638	-1.379056	0.450491
N90	N	-0.911544	-1.415235	0.425382
N91	N	-0.942540	-1.355891	0.466771
H92	H	-0.914766	-1.311133	0.497966
N93	N	-0.805876	-1.617487	0.284291
N94	N	-0.766975	-1.580048	0.237854
H95	H	-0.741929	-1.627983	0.204403
N96	N	-0.243638	-1.644443	1.089023
N97	N	-0.205019	-1.704718	1.054631
H98	H	-0.171537	-1.756965	1.079659
N99	N	-0.221612	-1.678845	0.608322
N100	N	-0.224420	-1.674460	0.542951
H101	H	-0.193213	-1.723162	0.515164
H102	H	-0.393225	-1.410951	0.623199
H103	H	-0.387546	-1.419872	0.756023
N104	N	-0.424879	-1.361564	1.096725
N105	N	-0.422068	-1.365951	1.162096
H106	H	-0.453267	-1.317241	1.189885
H107	H	-0.381577	-1.429174	0.842542
