data_functionalizedCrystal
_audit_creation_method	'MofGen! by Chris Wilmer'
_symmetry_space_group_name_H-M	'P1'
_symmetry_Int_Tables_number	1
_symmetry_cell_setting	triclinic
loop_
_symmetry_equiv_pos_as_xyz
  x,y,z
_cell_length_a	12.645330
_cell_length_b	12.759395
_cell_length_c	12.759387
_cell_angle_alpha	89.982262
_cell_angle_beta	89.969429
_cell_angle_gamma	90.017537
loop_
_atom_site_label
_atom_site_type_symbol
_atom_site_fract_x
_atom_site_fract_y
_atom_site_fract_z
Zn1	Zn	-0.421976	1.606229	-0.593985
Zn2	Zn	-0.599281	1.606116	-0.418310
Zn3	Zn	-0.422032	1.430533	-0.418325
Zn4	Zn	-0.599197	1.430511	-0.593952
O5	O	-0.510622	1.518347	-0.506143
O6	O	-0.445507	1.753235	-0.570689
O7	O	-0.575828	1.582786	-0.271291
O8	O	-0.273677	1.453896	-0.441647
O9	O	-0.575773	1.753152	-0.441621
O10	O	-0.273636	1.582979	-0.570704
O11	O	-0.445603	1.453786	-0.271302
O12	O	-0.445522	1.283509	-0.441615
O13	O	-0.575630	1.453858	-0.740978
O14	O	-0.575684	1.283492	-0.570647
O15	O	-0.445426	1.582958	-0.741002
O16	O	-0.747617	1.582765	-0.441589
O17	O	-0.747556	1.453748	-0.570632
C18	C	-0.510601	1.245380	-0.506130
C19	C	-0.510617	1.128603	-0.506149
C20	C	-0.375191	1.128670	-0.640765
C21	C	-0.307490	1.073843	-0.708081
C22	C	-0.307509	0.964122	-0.708094
C23	C	-0.375233	0.909225	-0.640782
C24	C	-0.442934	0.964052	-0.573465
C25	C	-0.442910	1.073776	-0.573462
C26	C	-0.578353	0.963984	-0.438846
C27	C	-0.578341	1.073706	-0.438837
C28	C	-0.646077	0.909087	-0.371534
C29	C	-0.713785	0.963914	-0.304221
C30	C	-0.713764	1.073643	-0.304212
C31	C	-0.646042	1.128533	-0.371521
C32	C	-0.786051	1.518270	-0.506128
C33	C	-0.903881	1.518334	-0.506157
C34	C	-1.071450	1.437504	-0.587589
C35	C	-0.948891	1.437091	-0.587327
C36	C	-0.948486	1.488361	-0.395436
C37	C	-1.071085	1.487868	-0.395930
C38	C	-1.070968	1.629630	-0.534549
C39	C	-0.948361	1.628948	-0.536970
C40	C	-0.234116	1.518453	-0.506181
C41	C	-0.116286	1.518498	-0.506197
C42	C	-0.510512	1.518418	-0.780177
C43	C	-0.510465	1.518449	-0.896953
C44	C	-0.510643	1.792380	-0.506157
C45	C	-0.510653	1.909157	-0.506162
C46	C	-0.374854	1.384130	-0.896984
C47	C	-0.307027	1.316989	-0.951860
C48	C	-0.306988	1.317021	-1.061582
C49	C	-0.374787	1.384198	-1.116430
C50	C	-0.442613	1.451338	-1.061554
C51	C	-0.442642	1.451301	-0.951830
C52	C	-0.578229	1.585650	-1.061523
C53	C	-0.578264	1.585626	-0.951801
C54	C	-0.646027	1.652827	-1.116371
C55	C	-0.713851	1.719974	-1.061495
C56	C	-0.713885	1.719941	-0.951767
C57	C	-0.646091	1.652766	-0.896925
C58	C	-0.510654	1.518337	-0.233175
C59	C	-0.510402	1.518510	-0.116399
H60	H	-0.252349	1.118553	-0.762884
C61	C	-0.906985	1.714762	-0.462706
H62	H	-0.861845	1.684115	-0.411706
H63	H	-0.868616	1.765422	-0.501875
H64	H	-0.964982	1.747675	-0.428696
H65	H	-0.768890	1.118276	-0.249391
H66	H	-1.101804	1.656972	-0.613914
C67	C	-1.111169	1.564092	-0.311214
H68	H	-1.186298	1.564313	-0.310947
H69	H	-1.085991	1.542306	-0.244549
H70	H	-1.085958	1.632691	-0.325895
C71	C	-0.646306	1.652553	-1.237060
H72	H	-0.696498	1.702074	-1.261863
H73	H	-0.577990	1.670668	-1.262227
H74	H	-0.664719	1.584655	-1.261548
H75	H	-0.918729	1.455843	-0.669426
H76	H	-1.099962	1.689972	-0.475268
C77	C	-1.111301	1.462501	-0.698840
H78	H	-1.155631	1.522563	-0.696653
H79	H	-1.052674	1.475866	-0.743469
H80	H	-1.150247	1.404469	-0.725019
H81	H	-0.374869	1.384106	-0.807643
H82	H	-0.919202	1.651552	-0.618455
C83	C	-0.788417	1.793859	-1.121827
H84	H	-0.778679	1.784263	-1.195032
H85	H	-0.859648	1.778452	-1.103827
H86	H	-0.772909	1.864457	-1.103856
H87	H	-0.251759	1.262348	-1.106262
H88	H	-0.251829	1.262293	-0.907191
H89	H	-0.646013	1.217874	-0.371514
C90	C	-0.788498	1.793795	-0.891411
H91	H	-0.828862	1.833807	-0.939794
H92	H	-0.834692	1.753571	-0.848595
H93	H	-0.747965	1.839588	-0.848621
H94	H	-0.646109	1.652736	-0.807584
C95	C	-0.375180	1.249361	-0.640759
H96	H	-0.425204	1.274151	-0.591033
H97	H	-0.306744	1.274192	-0.622716
H98	H	-0.393606	1.274198	-0.708528
C99	C	-0.233046	0.903810	-0.782144
H100	H	-0.192715	0.952214	-0.822236
H101	H	-0.186816	0.860991	-0.742044
H102	H	-0.273679	0.861026	-0.827854
C103	C	-0.375247	0.788534	-0.640791
H104	H	-0.325230	0.763744	-0.690524
H105	H	-0.356838	0.763690	-0.573027
H106	H	-0.443688	0.763710	-0.658850
H107	H	-0.919658	1.354702	-0.568544
H108	H	-0.646085	0.819746	-0.371546
C109	C	-0.788272	0.903533	-0.230185
H110	H	-0.828589	0.951898	-0.190090
H111	H	-0.834514	0.860734	-0.270295
H112	H	-0.747659	0.860725	-0.184477
H113	H	-1.102353	1.355630	-0.569046
C114	C	-1.109853	1.378122	-0.363494
H115	H	-1.050676	1.334258	-0.350145
H116	H	-1.151735	1.383506	-0.301904
H117	H	-1.151051	1.348886	-0.418440
C118	C	-0.909102	1.565516	-0.311268
H119	H	-0.864996	1.616814	-0.342980
H120	H	-0.967954	1.598931	-0.279261
H121	H	-0.870036	1.528401	-0.259642
C122	C	-0.907154	1.379756	-0.362396
H123	H	-0.934584	1.362316	-0.295287
H124	H	-0.929271	1.328804	-0.412035
H125	H	-0.832099	1.381155	-0.359470
C126	C	-0.374749	1.384226	-1.237121
H127	H	-0.324643	1.334621	-1.261947
H128	H	-0.443149	1.366036	-1.261926
H129	H	-0.356412	1.452043	-1.261948
