data_functionalizedCrystal
_audit_creation_method	'MofGen! by Chris Wilmer'
_symmetry_space_group_name_H-M	'P1'
_symmetry_Int_Tables_number	1
_symmetry_cell_setting	triclinic
loop_
_symmetry_equiv_pos_as_xyz
  x,y,z
_cell_length_a	13.032831
_cell_length_b	16.625545
_cell_length_c	13.033277
_cell_angle_alpha	97.196176
_cell_angle_beta	90.889840
_cell_angle_gamma	82.830132
loop_
_atom_site_label
_atom_site_type_symbol
_atom_site_fract_x
_atom_site_fract_y
_atom_site_fract_z
Zn1	Zn	1.498268	-0.391687	0.780824
Zn2	Zn	1.998268	0.108313	1.280824
Zn3	Zn	1.520016	-0.545482	0.608831
Zn4	Zn	2.020016	-0.045482	1.108831
Zn5	Zn	1.348162	-0.395930	0.587061
Zn6	Zn	1.848162	0.104070	1.087061
Zn7	Zn	1.326242	-0.511737	0.758961
Zn8	Zn	1.826242	-0.011737	1.258961
O9	O	1.423172	-0.461209	0.683919
O10	O	1.923172	0.038791	1.183919
O11	O	1.645068	-0.424435	0.776269
O12	O	2.145068	0.075565	1.276269
O13	O	1.515495	-0.541541	0.462023
O14	O	2.015495	-0.041541	0.962023
O15	O	1.368145	-0.282538	0.612803
O16	O	1.868145	0.217462	1.112803
O17	O	1.661047	-0.537427	0.649907
O18	O	2.161047	-0.037427	1.149907
O19	O	1.478427	-0.279421	0.755160
O20	O	1.978427	0.220579	1.255160
O21	O	1.389234	-0.431667	0.446029
O22	O	1.889234	0.068333	0.946029
O23	O	1.201339	-0.398946	0.591604
O24	O	1.701339	0.101054	1.091604
O25	O	1.330786	-0.479914	0.905782
O26	O	1.830786	0.020086	1.405782
O27	O	1.185235	-0.484029	0.717898
O28	O	1.685235	0.015971	1.217898
O29	O	1.457173	-0.391714	0.921845
O30	O	1.957173	0.108286	1.421845
O31	O	1.494240	-0.653835	0.628707
O32	O	1.994240	-0.153835	1.128707
O33	O	1.351875	-0.629043	0.739007
O34	O	1.851875	-0.129043	1.239007
C35	C	1.155971	-0.438286	0.650017
C36	C	1.655971	0.061714	1.150017
C37	C	1.041658	-0.428497	0.635537
C38	C	1.541658	0.071503	1.135537
C39	C	0.982765	-0.466318	0.691476
C40	C	1.482765	0.033682	1.191476
C41	C	0.864617	-0.456201	0.676512
C42	C	1.364617	0.043799	1.176512
C43	C	1.423064	-0.670694	0.683873
C44	C	1.923064	-0.170694	1.183873
C45	C	1.423108	-0.760317	0.683899
C46	C	1.923108	-0.260317	1.183899
C47	C	1.423145	-0.833100	0.683925
C48	C	1.923145	-0.333100	1.183925
C49	C	1.423202	-0.924411	0.683955
C50	C	1.923202	-0.424411	1.183955
C51	C	1.423254	-0.997191	0.683975
C52	C	1.923254	-0.497191	1.183975
C53	C	1.423310	-1.088508	0.684003
C54	C	1.923310	-0.588508	1.184003
C55	C	1.691416	-0.484222	0.717955
C56	C	2.191416	0.015778	1.217955
C57	C	1.805726	-0.494028	0.732459
C58	C	2.305726	0.005972	1.232459
C59	C	1.389108	-0.431577	0.952174
C60	C	1.889108	0.068423	1.452174
C61	C	1.374593	-0.418949	1.066488
C62	C	1.874593	0.081051	1.566488
C63	C	1.423305	-0.250906	0.683992
C64	C	1.923305	0.249094	1.183992
C65	C	1.423362	-0.161287	0.684023
C66	C	1.923362	0.338713	1.184023
C67	C	1.430592	-0.467683	1.125366
C68	C	1.930592	0.032317	1.625366
C69	C	1.415591	-0.454633	1.243515
C70	C	1.915591	0.045367	1.743515
C71	C	1.457092	-0.490744	1.416707
C72	C	1.957092	0.009256	1.916707
C73	C	1.471599	-0.503374	1.302392
C74	C	1.971599	-0.003374	1.802392
H75	H	1.019813	-0.506186	0.750449
H76	H	1.519813	-0.006186	1.250449
C77	C	0.991613	-0.374631	0.555871
C78	C	1.491613	0.125369	1.055871
N79	N	0.953920	-0.334059	0.495863
N80	N	1.453920	0.165941	0.995863
H81	H	1.530657	-0.554759	1.265337
H82	H	2.030657	-0.054759	1.765337
C83	C	1.335812	-0.385209	1.293574
C84	C	1.835812	0.114791	1.793574
N85	N	1.275723	-0.332921	1.331281
N86	N	1.775723	0.167079	1.831281
H87	H	1.489646	-0.519065	1.088305
H88	H	1.989646	-0.019065	1.588305
C89	C	0.814576	-0.402333	0.596842
C90	C	1.314576	0.097667	1.096842
N91	N	0.776883	-0.361761	0.536834
N92	N	1.276883	0.138239	1.036834
C93	C	1.294818	-0.349529	1.116551
C94	C	1.794818	0.150471	1.616551
N95	N	1.234728	-0.297240	1.154257
N96	N	1.734728	0.202760	1.654257
C97	C	0.855764	-0.547896	0.812131
C98	C	1.355764	-0.047896	1.312131
N99	N	0.893455	-0.588470	0.872139
N100	N	1.393455	-0.088470	1.372139
