data_functionalizedCrystal
_audit_creation_method	'MofGen! by Chris Wilmer'
_symmetry_space_group_name_H-M	'P1'
_symmetry_Int_Tables_number	1
_symmetry_cell_setting	triclinic
loop_
_symmetry_equiv_pos_as_xyz
  x,y,z
_cell_length_a	9.065218
_cell_length_b	14.971482
_cell_length_c	7.540329
_cell_angle_alpha	89.998949
_cell_angle_beta	89.998628
_cell_angle_gamma	84.314247
loop_
_atom_site_label
_atom_site_type_symbol
_atom_site_fract_x
_atom_site_fract_y
_atom_site_fract_z
O1	O	0.192229	1.188376	-0.147452
O2	O	0.215258	0.928147	-0.147460
O3	O	-0.011008	1.063640	-0.147452
O4	O	0.418495	1.052882	-0.147460
O5	O	-0.011009	1.063636	0.147513
O6	O	0.215257	0.928142	0.147505
O7	O	0.192228	1.188371	0.147513
Cu8	Cu	0.203742	1.058256	0.174442
Cu9	Cu	0.203744	1.058262	-0.174389
O10	O	0.418494	1.052878	0.147505
C11	C	0.214229	0.894812	0.000022
C12	C	0.211145	0.795492	0.000018
C13	C	0.209692	0.748834	0.160806
C14	C	0.206771	0.655514	0.160808
C15	C	0.205314	0.608852	0.000020
C16	C	0.206763	0.655517	-0.160779
C17	C	0.209673	0.748836	-0.160779
C18	C	0.200701	0.461010	-0.160768
C19	C	0.197794	0.367684	-0.160768
C20	C	0.197799	0.367687	0.160819
C21	C	0.200709	0.461006	0.160819
C22	C	0.202161	0.507665	0.000019
C23	C	-0.065974	1.062604	0.000027
C24	C	-0.229754	1.059513	0.000019
C25	C	0.473460	1.053914	0.000022
C26	C	0.637240	1.057005	0.000019
C27	C	0.193257	1.221706	0.000027
C28	C	0.196341	1.321026	0.000019
N29	N	0.203740	1.058259	0.419790
N30	N	0.203735	1.058266	-0.419737
H31	H	0.196618	0.329694	0.291749
C32	C	0.205488	0.604788	-0.335296
C33	C	0.330669	0.542191	-0.344708
C34	C	0.329560	0.495453	-0.505458
H35	H	0.118488	0.574429	-0.342150
H36	H	0.206847	0.645908	-0.431111
H37	H	0.329296	0.501077	-0.248919
H38	H	0.417688	0.572526	-0.337884
H39	H	0.330919	0.536573	-0.601273
H40	H	0.242554	0.465099	-0.512298
H41	H	0.414500	0.452981	-0.511872
H42	H	0.196609	0.329695	-0.291696
H43	H	0.201884	0.498996	-0.291709
C44	C	0.211579	0.799515	0.335327
C45	C	0.340095	0.844030	0.344750
C46	C	0.341887	0.890714	0.505507
H47	H	0.126850	0.842113	0.342185
H48	H	0.210372	0.758381	0.431136
H49	H	0.341288	0.885161	0.248967
H50	H	0.424844	0.801453	0.337923
H51	H	0.340680	0.849580	0.601316
H52	H	0.257153	0.933307	0.512350
H53	H	0.429089	0.920916	0.511928
H54	H	0.205564	0.617531	0.291737
H55	H	0.201905	0.498995	0.291747
H56	H	0.210860	0.786824	-0.291709
