data_functionalizedCrystal
_audit_creation_method	'MofGen! by Chris Wilmer'
_symmetry_space_group_name_H-M	'P1'
_symmetry_Int_Tables_number	1
_symmetry_cell_setting	triclinic
loop_
_symmetry_equiv_pos_as_xyz
  x,y,z
_cell_length_a	18.215407
_cell_length_b	18.215405
_cell_length_c	18.215399
_cell_angle_alpha	90.030551
_cell_angle_beta	90.017368
_cell_angle_gamma	90.022329
loop_
_atom_site_label
_atom_site_type_symbol
_atom_site_fract_x
_atom_site_fract_y
_atom_site_fract_z
Zn1	Zn	1.125072	-0.293042	0.416054
Zn2	Zn	1.625072	0.206958	0.916054
Zn3	Zn	1.124980	-0.416113	0.292982
Zn4	Zn	1.624980	0.083887	0.792982
Zn5	Zn	1.002004	-0.293060	0.293007
Zn6	Zn	1.502004	0.206940	0.793007
Zn7	Zn	1.001970	-0.416066	0.416012
Zn8	Zn	1.501970	0.083934	0.916012
O9	O	1.063507	-0.354570	0.354514
O10	O	1.563507	0.145430	0.854514
O11	O	1.228044	-0.309380	0.399736
O12	O	1.728044	0.190620	0.899736
O13	O	1.108643	-0.399817	0.190001
O14	O	1.608643	0.100183	0.690001
O15	O	1.018382	-0.190073	0.309357
O16	O	1.518382	0.309927	0.809357
O17	O	1.227977	-0.399800	0.309315
O18	O	1.727977	0.100200	0.809315
O19	O	1.108799	-0.190060	0.399759
O20	O	1.608799	0.309940	0.899759
O21	O	1.018293	-0.309410	0.190019
O22	O	1.518293	0.190590	0.690019
O23	O	0.899016	-0.309364	0.309317
O24	O	1.399016	0.190636	0.809317
O25	O	1.018324	-0.399719	0.519002
O26	O	1.518324	0.100281	1.019002
O27	O	0.898991	-0.399736	0.399688
O28	O	1.398991	0.100264	0.899688
O29	O	1.108766	-0.309334	0.519033
O30	O	1.608766	0.190666	1.019033
O31	O	1.108610	-0.519091	0.309275
O32	O	1.608610	-0.019091	0.809275
O33	O	1.018235	-0.519056	0.399665
O34	O	1.518235	-0.019056	0.899665
C35	C	0.872301	-0.354548	0.354501
C36	C	1.372301	0.145452	0.854501
C37	C	0.790502	-0.354556	0.354513
C38	C	1.290502	0.145444	0.854513
C39	C	1.063429	-0.545777	0.354479
C40	C	1.563429	-0.045777	0.854479
C41	C	1.063463	-0.627575	0.354488
C42	C	1.563463	-0.127575	0.854488
C43	C	0.602342	-0.307571	0.401669
C44	C	1.102342	0.192429	0.901669
C45	C	0.525483	-0.307577	0.401672
C46	C	1.025483	0.192423	0.901672
C47	C	0.525424	-0.401590	0.307372
C48	C	1.025424	0.098410	0.807372
C49	C	0.602281	-0.401580	0.307366
C50	C	1.102281	0.098420	0.807366
C51	C	0.640738	-0.354571	0.354519
C52	C	1.140738	0.145429	0.854519
C53	C	0.487022	-0.354588	0.354527
C54	C	0.987022	0.145412	0.854527
C55	C	0.403688	-0.354595	0.354529
C56	C	0.903688	0.145405	0.854529
C57	C	0.724077	-0.354563	0.354516
C58	C	1.224077	0.145437	0.854516
C59	C	1.110632	-0.815763	0.307509
C60	C	1.610632	-0.315763	0.807509
C61	C	1.110665	-0.892622	0.307526
C62	C	1.610665	-0.392622	0.807526
C63	C	1.016476	-0.892625	0.401572
C64	C	1.516476	-0.392625	0.901572
C65	C	1.016447	-0.815768	0.401557
C66	C	1.516447	-0.315768	0.901557
C67	C	1.063524	-0.777339	0.354522
C68	C	1.563524	-0.277339	0.854522
C69	C	1.063586	-0.931055	0.354554
C70	C	1.563586	-0.431055	0.854554
C71	C	1.063621	-1.014389	0.354574
C72	C	1.563621	-0.514389	0.854574
C73	C	1.063490	-0.694000	0.354503
C74	C	1.563490	-0.194000	0.854503
C75	C	1.255460	-0.354593	0.354527
C76	C	1.755460	0.145407	0.854527
C77	C	1.337259	-0.354603	0.354533
C78	C	1.837259	0.145397	0.854533
C79	C	1.063552	-0.354520	0.546467
C80	C	1.563552	0.145480	1.046467
C81	C	1.063571	-0.354498	0.628266
C82	C	1.563571	0.145502	1.128266
C83	C	1.063605	-0.162617	0.354566
C84	C	1.563605	0.337383	0.854566
C85	C	1.063647	-0.080818	0.354588
C86	C	1.563647	0.419182	0.854588
C87	C	1.063504	-0.354568	0.163308
C88	C	1.563504	0.145432	0.663308
C89	C	1.063628	-0.354382	0.081509
C90	C	1.563628	0.145618	0.581509
C91	C	1.110681	-0.307390	0.816477
C92	C	1.610681	0.192610	1.316477
C93	C	1.110690	-0.307369	0.893336
C94	C	1.610690	0.192631	1.393336
C95	C	1.016513	-0.401492	0.893293
C96	C	1.516513	0.098508	1.393293
C97	C	1.016501	-0.401509	0.816435
C98	C	1.516501	0.098491	1.316435
C99	C	1.063589	-0.354459	0.778029
C100	C	1.563589	0.145541	1.278029
C101	C	1.063610	-0.354421	0.931746
C102	C	1.563610	0.145579	1.431746
C103	C	1.063619	-0.354398	1.015079
C104	C	1.563619	0.145602	1.515079
C105	C	1.063579	-0.354481	0.694690
C106	C	1.563579	0.145519	1.194690
H107	H	0.633651	-0.269291	0.440062
H108	H	1.133651	0.230709	0.940062
H109	H	0.494224	-0.269304	0.440065
H110	H	0.994224	0.230696	0.940065
O111	O	0.488031	-0.447335	0.261680
O112	O	0.988031	0.052665	0.761680
C113	C	0.401196	-0.546665	0.251612
C114	C	0.901196	-0.046665	0.751612
C115	C	0.443508	-0.494914	0.303440
C116	C	0.943508	0.005086	0.803440
H117	H	0.365176	-0.585136	0.285354
H118	H	0.865176	-0.085136	0.785354
H119	H	0.441809	-0.580310	0.217922
H120	H	0.941809	-0.080310	0.717922
H121	H	0.365238	-0.512820	0.213180
H122	H	0.865238	-0.012820	0.713180
H123	H	0.479466	-0.528703	0.341917
H124	H	0.979466	-0.028703	0.841917
H125	H	0.402854	-0.461267	0.337078
H126	H	0.902854	0.038733	0.837078
H127	H	0.978086	-0.784481	0.439845
H128	H	1.478086	-0.284481	0.939845
H129	H	1.149021	-0.269078	0.785209
H130	H	1.649021	0.230922	1.285209
H131	H	0.633544	-0.439854	0.268967
H132	H	1.133544	0.060146	0.768967
H133	H	1.148966	-0.784476	0.269210
H134	H	1.648966	-0.284476	0.769210
O135	O	1.156506	-0.261624	0.930570
O136	O	1.656506	0.238376	1.430570
C137	C	1.249887	-0.168241	0.922496
C138	C	1.749887	0.331759	1.422496
C139	C	1.198048	-0.220025	0.880239
C140	C	1.698048	0.279975	1.380239
H141	H	1.283476	-0.134583	0.881822
H142	H	1.783476	0.365417	1.381822
H143	H	1.288405	-0.201988	0.958456
H144	H	1.788405	0.298012	1.458456
H145	H	1.216112	-0.129778	0.958504
H146	H	1.716112	0.370222	1.458504
H147	H	1.231764	-0.258498	0.844191
H148	H	1.731764	0.241502	1.344191
H149	H	1.159528	-0.186232	0.844325
H150	H	1.659528	0.313768	1.344325
O151	O	1.156447	-0.929833	0.261787
O152	O	1.656447	-0.429833	0.761787
C153	C	1.249895	-0.921713	0.168534
C154	C	1.749895	-0.421713	0.668534
C155	C	1.198068	-0.879481	0.220285
C156	C	1.698068	-0.379481	0.720285
H157	H	1.283570	-0.881022	0.134977
H158	H	1.783570	-0.381022	0.634977
H159	H	1.216180	-0.957731	0.129981
H160	H	1.716180	-0.457731	0.629981
H161	H	1.288339	-0.957660	0.202375
H162	H	1.788339	-0.457660	0.702375
H163	H	1.159613	-0.843495	0.186503
H164	H	1.659613	-0.343495	0.686503
H165	H	1.231829	-0.843509	0.258840
H166	H	1.731829	-0.343509	0.758840
H167	H	0.978146	-0.923924	0.439866
H168	H	1.478146	-0.423924	0.939866
O169	O	0.970846	-0.447173	0.930715
O170	O	1.470846	0.052827	1.430715
C171	C	0.929095	-0.488831	1.049099
C172	C	1.429095	0.011169	1.549099
C173	C	0.980861	-0.437070	1.006812
C174	C	1.480861	0.062930	1.506812
H175	H	0.937163	-0.480669	1.110630
H176	H	1.437163	0.019331	1.610630
H177	H	0.941988	-0.548193	1.034025
H178	H	1.441988	-0.048193	1.534025
H179	H	0.869766	-0.475913	1.033939
H180	H	1.369766	0.024087	1.533939
H181	H	1.040208	-0.449921	1.021949
H182	H	1.540208	0.050079	1.521949
H183	H	0.967905	-0.377723	1.021889
H184	H	1.467905	0.122277	1.521889
O185	O	0.970731	-0.447305	0.779196
O186	O	1.470731	0.052695	1.279196
C187	C	0.877291	-0.540630	0.787257
C188	C	1.377291	-0.040630	1.287257
C189	C	0.929098	-0.488822	0.829522
C190	C	1.429098	0.011178	1.329522
H191	H	0.843606	-0.574199	0.827927
H192	H	1.343606	-0.074199	1.327927
H193	H	0.911020	-0.579170	0.751287
H194	H	1.411020	-0.079170	1.251287
H195	H	0.838853	-0.506834	0.751260
H196	H	1.338853	-0.006834	1.251260
H197	H	0.967546	-0.522559	0.865559
H198	H	1.467546	-0.022559	1.365559
H199	H	0.895323	-0.450280	0.865446
H200	H	1.395323	0.049720	1.365446
