data_functionalizedCrystal
_audit_creation_method	'MofGen! by Chris Wilmer'
_symmetry_space_group_name_H-M	'P1'
_symmetry_Int_Tables_number	1
_symmetry_cell_setting	triclinic
loop_
_symmetry_equiv_pos_as_xyz
  x,y,z
_cell_length_a	11.792241
_cell_length_b	10.654550
_cell_length_c	9.730223
_cell_angle_alpha	89.996251
_cell_angle_beta	90.001500
_cell_angle_gamma	95.660841
loop_
_atom_site_label
_atom_site_type_symbol
_atom_site_fract_x
_atom_site_fract_y
_atom_site_fract_z
O1	O	0.159415	-1.667383	0.114404
O2	O	0.174603	-1.301862	0.114382
O3	O	0.001859	-1.493493	0.114383
O4	O	0.332159	-1.475752	0.114402
O5	O	0.001863	-1.493490	-0.114196
O6	O	0.174608	-1.301859	-0.114198
O7	O	0.159419	-1.667381	-0.114176
Zn8	Zn	0.167014	-1.484620	-0.150479
Zn9	Zn	0.167008	-1.484623	0.150685
O10	O	0.332163	-1.475750	-0.114178
C11	C	-0.040432	-1.492377	0.000094
C12	C	-0.166454	-1.489042	0.000095
C13	C	0.173490	-1.255066	0.000089
C14	C	0.170154	-1.115632	0.000080
C15	C	0.160532	-1.714177	0.000120
C16	C	0.163869	-1.853611	0.000137
C17	C	-0.397180	-1.482908	0.000118
C18	C	-0.268787	-1.486316	0.000105
C19	C	0.374455	-1.476865	0.000114
C20	C	0.500476	-1.480201	0.000122
N21	N	0.167017	-1.484627	-0.356016
C22	C	0.271863	-1.035858	0.000106
C23	C	0.268721	-0.904847	0.000129
C24	C	0.062152	-0.933394	0.000107
C25	C	0.065295	-1.064404	0.000074
C26	C	0.376722	-1.087087	0.000112
C27	C	0.478439	-1.007312	0.000139
C28	C	0.475297	-0.876300	0.000163
C29	C	0.370438	-0.825063	0.000159
C30	C	0.090552	-1.569503	-0.427941
C31	C	0.090539	-1.569500	-0.571824
C32	C	0.243465	-1.399740	-0.571844
C33	C	0.243472	-1.399739	-0.427963
C34	C	0.014098	-1.654391	-0.355993
C35	C	-0.062373	-1.739275	-0.427919
C36	C	-0.062387	-1.739272	-0.571802
C37	C	0.014070	-1.654385	-0.643759
N38	N	0.166996	-1.484625	0.356221
H39	H	0.563812	-1.049039	0.000130
H40	H	0.367888	-0.718383	0.000157
H41	H	-0.017526	-1.129358	0.000057
H42	H	0.305736	-1.330623	-0.369401
C43	C	0.326658	-1.307649	-0.649787
C44	C	0.438369	-1.328742	-0.614764
C45	C	0.515039	-1.243921	-0.686521
H46	H	0.315863	-1.319717	-0.745799
H47	H	0.313693	-1.223728	-0.626184
H48	H	0.451328	-1.412643	-0.638377
H49	H	0.449200	-1.316664	-0.518764
H50	H	0.502075	-1.159999	-0.662917
H51	H	0.504233	-1.255996	-0.782530
H52	H	0.590843	-1.258213	-0.662758
C53	C	-0.145326	-1.831606	-0.349945
C54	C	-0.125927	-1.955150	-0.384932
C55	C	-0.202334	-2.040227	-0.313133
H56	H	-0.134431	-1.819605	-0.253938
H57	H	-0.221219	-1.817526	-0.373538
H58	H	-0.050052	-1.969225	-0.361329
H59	H	-0.136830	-1.967192	-0.480926
H60	H	-0.278227	-2.026147	-0.336726
H61	H	-0.191433	-2.028215	-0.217130
H62	H	-0.189189	-2.124061	-0.336871
H63	H	0.558120	-0.811350	0.000171
H64	H	0.014104	-1.654404	-0.238837
H65	H	-0.124659	-1.808379	-0.630362
H66	H	-0.023220	-0.891666	0.000127
C67	C	0.014190	-1.654139	-0.799977
C68	C	0.097498	-1.561620	-0.847593
C69	C	0.097634	-1.561349	-0.991489
H70	H	0.030441	-1.734430	-0.832697
H71	H	-0.058481	-1.636398	-0.832568
H72	H	0.170153	-1.579369	-0.815016
H73	H	0.081266	-1.481315	-0.814911
H74	H	0.024963	-1.543609	-1.024080
H75	H	0.113882	-1.641645	-1.024196
H76	H	0.154150	-1.498569	-1.023815
H77	H	0.379291	-1.193762	0.000099
