data_functionalizedCrystal
_audit_creation_method	'MofGen! by Chris Wilmer'
_symmetry_space_group_name_H-M	'P1'
_symmetry_Int_Tables_number	1
_symmetry_cell_setting	triclinic
loop_
_symmetry_equiv_pos_as_xyz
  x,y,z
_cell_length_a	25.639242
_cell_length_b	25.639239
_cell_length_c	25.639233
_cell_angle_alpha	89.981253
_cell_angle_beta	90.022166
_cell_angle_gamma	89.965787
loop_
_atom_site_label
_atom_site_type_symbol
_atom_site_fract_x
_atom_site_fract_y
_atom_site_fract_z
Zn1	Zn	0.799225	0.208277	0.295742
Zn2	Zn	1.299225	0.708277	0.795742
Zn3	Zn	0.799149	0.295696	0.208307
Zn4	Zn	1.299149	0.795696	0.708307
Zn5	Zn	0.711801	0.208269	0.208306
Zn6	Zn	1.211801	0.708269	0.708306
Zn7	Zn	0.711746	0.295676	0.295696
Zn8	Zn	1.211746	0.795676	0.795696
O9	O	0.755480	0.251979	0.252013
O10	O	1.255480	0.751979	0.752013
O11	O	0.872380	0.219884	0.284163
O12	O	1.372380	0.719884	0.784163
O13	O	0.787553	0.284103	0.135141
O14	O	1.287553	0.784103	0.635141
O15	O	0.723453	0.135105	0.219924
O16	O	1.223453	0.635105	0.719924
O17	O	0.872324	0.284111	0.219924
O18	O	1.372324	0.784111	0.719924
O19	O	0.787683	0.135111	0.284163
O20	O	1.287683	0.635111	0.784163
O21	O	0.723379	0.219871	0.135141
O22	O	1.223379	0.719871	0.635141
O23	O	0.638629	0.219853	0.219880
O24	O	1.138629	0.719853	0.719880
O25	O	0.723360	0.284078	0.368868
O26	O	1.223360	0.784078	0.868868
O27	O	0.638589	0.284070	0.284085
O28	O	1.138589	0.784070	0.784085
O29	O	0.787630	0.219866	0.368901
O30	O	1.287630	0.719866	0.868901
O31	O	0.787499	0.368858	0.219880
O32	O	1.287499	0.868858	0.719880
O33	O	0.723286	0.368844	0.284085
O34	O	1.223286	0.868844	0.784085
C35	C	0.619638	0.251959	0.251977
C36	C	1.119638	0.751959	0.751977
C37	C	0.561524	0.251963	0.251975
C38	C	1.061524	0.751963	0.751975
C39	C	0.755392	0.387822	0.251989
C40	C	1.255392	0.887822	0.751989
C41	C	0.755403	0.445936	0.251996
C42	C	1.255403	0.945936	0.751996
C43	C	0.201149	0.285473	0.285413
C44	C	0.701149	0.785473	0.785413
C45	C	0.146544	0.285477	0.285421
C46	C	0.646544	0.785477	0.785421
O47	O	0.118297	0.313943	0.313821
O48	O	0.618297	0.813943	0.813821
N49	N	0.119241	0.251994	0.252047
N50	N	0.619241	0.751994	0.752047
C51	C	0.146545	0.218502	0.218666
C52	C	0.646545	0.718502	0.718666
O53	O	0.118308	0.190022	0.190280
O54	O	0.618308	0.690022	0.690280
C55	C	0.201149	0.218496	0.218661
C56	C	0.701149	0.718496	0.718661
C57	C	0.228449	0.251985	0.252034
C58	C	0.728449	0.751985	0.752034
C59	C	0.228449	0.318959	0.318783
C60	C	0.728449	0.818959	0.818783
C61	C	0.283049	0.318956	0.318774
C62	C	0.783049	0.818956	0.818774
C63	C	0.310350	0.285468	0.285395
C64	C	0.810350	0.785468	0.785395
C65	C	0.283049	0.251983	0.252024
C66	C	0.783049	0.751983	0.752024
C67	C	0.228452	0.185002	0.185283
C68	C	0.728452	0.685002	0.685283
C69	C	0.283059	0.185000	0.185281
C70	C	0.783059	0.685000	0.685281
C71	C	0.310359	0.218488	0.218654
C72	C	0.810359	0.718488	0.718654
C73	C	0.364950	0.218492	0.218636
C74	C	0.864950	0.718492	0.718636
N75	N	0.392253	0.251974	0.252010
N76	N	0.892253	0.751974	0.752010
C77	C	0.364953	0.285463	0.285389
C78	C	0.864953	0.785463	0.785389
C79	C	0.031875	0.218515	0.218680
C80	C	0.531875	0.718515	0.718680
C81	C	-0.022728	0.218523	0.218683
C82	C	0.477272	0.718523	0.718683
C83	C	-0.022725	0.285497	0.285438
C84	C	0.477275	0.785497	0.785438
C85	C	0.031878	0.285492	0.285433
C86	C	0.531878	0.785492	0.785433
C87	C	0.059178	0.251998	0.252054
C88	C	0.559178	0.751998	0.752054
C89	C	0.479618	0.285455	0.285368
C90	C	0.979618	0.785455	0.785368
C91	C	0.534223	0.285451	0.285354
C92	C	1.034223	0.785451	0.785354
C93	C	0.534216	0.218475	0.218601
C94	C	1.034216	0.718475	0.718601
C95	C	0.479615	0.218481	0.218612
C96	C	0.979615	0.718481	0.718612
C97	C	0.452318	0.251972	0.252000
C98	C	0.952318	0.751972	0.752000
O99	O	0.393232	0.190038	0.190252
O100	O	0.893232	0.690038	0.690252
O101	O	0.393197	0.313933	0.313776
O102	O	0.893197	0.813933	0.813776
C103	C	0.755497	0.251970	0.388386
C104	C	1.255497	0.751970	0.888386
C105	C	0.755504	0.251966	0.446500
C106	C	1.255504	0.751966	0.946500
C107	C	0.891853	0.252000	0.252049
C108	C	1.391853	0.752000	0.752049
C109	C	0.949967	0.252009	0.252064
C110	C	1.449967	0.752009	0.752064
C111	C	0.755583	0.115606	0.252048
C112	C	1.255583	0.615606	0.752048
C113	C	0.755627	0.057492	0.252064
C114	C	1.255627	0.557492	0.752064
C115	C	0.789004	0.806294	0.218638
C116	C	1.289004	1.306294	0.718638
C117	C	0.789024	0.860898	0.218645
C118	C	1.289024	1.360898	0.718645
O119	O	0.817502	0.889131	0.190257
O120	O	1.317502	1.389131	0.690257
N121	N	0.755572	0.888218	0.252048
N122	N	1.255572	1.388218	0.752048
C123	C	0.722102	0.860932	0.285449
C124	C	1.222102	1.360932	0.785449
O125	O	0.693651	0.889184	0.313861
O126	O	1.193651	1.389184	0.813861
C127	C	0.722085	0.806328	0.285444
C128	C	1.222085	1.306328	0.785444
C129	C	0.755535	0.779011	0.252036
C130	C	1.255535	1.279011	0.752036
C131	C	0.822452	0.778976	0.185233
C132	C	1.322452	1.278976	0.685233
C133	C	0.822431	0.724376	0.185226
C134	C	1.322431	1.224376	0.685226
C135	C	0.788962	0.697093	0.218623
C136	C	1.288962	1.197093	0.718623
C137	C	0.755514	0.724410	0.252028
C138	C	1.255514	1.224410	0.752028
C139	C	0.688617	0.779042	0.318847
C140	C	1.188617	1.279042	0.818847
C141	C	0.688603	0.724435	0.318840
C142	C	1.188603	1.224435	0.818840
C143	C	0.722053	0.697118	0.285432
C144	C	1.222053	1.197118	0.785432
C145	C	0.722024	0.642527	0.285418
C146	C	1.222024	1.142527	0.785418
N147	N	0.755475	0.615206	0.252016
N148	N	1.255475	1.115206	0.752016
C149	C	0.788944	0.642490	0.218618
C150	C	1.288944	1.142490	0.718618
C151	C	0.722141	0.975602	0.285457
C152	C	1.222141	1.475602	0.785457
C153	C	0.722155	1.030204	0.285459
C154	C	1.222155	1.530204	0.785459
C155	C	0.789078	1.030167	0.218656
C156	C	1.289078	1.530167	0.718656
C157	C	0.789061	0.975564	0.218652
C158	C	1.289061	1.475564	0.718652
C159	C	0.755593	0.948282	0.252055
C160	C	1.255593	1.448282	0.752055
C161	C	0.788897	0.527824	0.218605
C162	C	1.288897	1.027824	0.718605
C163	C	0.788872	0.473219	0.218599
C164	C	1.288872	0.973219	0.718599
C165	C	0.721951	0.473261	0.285403
C166	C	1.221951	0.973261	0.785403
C167	C	0.721974	0.527862	0.285408
C168	C	1.221974	1.027862	0.785408
C169	C	0.755452	0.555142	0.252007
C170	C	1.255452	1.055142	0.752007
O171	O	0.693562	0.614260	0.313793
O172	O	1.193562	1.114260	0.813793
O173	O	0.817396	0.614231	0.190216
O174	O	1.317396	1.114231	0.690216
C175	C	0.755494	0.251951	0.116170
C176	C	1.255494	0.751951	0.616170
C177	C	0.755588	0.251807	0.058057
C178	C	1.255588	0.751807	0.558057
C179	C	0.789012	0.218432	0.806886
C180	C	1.289012	0.718432	1.306886
C181	C	0.789019	0.218417	0.861491
C182	C	1.289019	0.718417	1.361491
O183	O	0.817466	0.189967	0.889747
O184	O	1.317466	0.689967	1.389747
N185	N	0.755562	0.251844	0.888783
N186	N	1.255562	0.751844	1.388783
C187	C	0.722093	0.285283	0.861468
C188	C	1.222093	0.785283	1.361468
O189	O	0.693636	0.313713	0.889695
O190	O	1.193636	0.813713	1.389695
C191	C	0.722084	0.285294	0.806864
C192	C	1.222084	0.785294	1.306864
C193	C	0.755547	0.251870	0.779575
C194	C	1.255547	0.751870	1.279575
C195	C	0.822472	0.185009	0.779597
C196	C	1.322472	0.685009	1.279597
C197	C	0.822466	0.185025	0.724997
C198	C	1.322466	0.685025	1.224997
C199	C	0.789000	0.218462	0.697685
C200	C	1.289000	0.718462	1.197685
C201	C	0.755541	0.251885	0.724974
C202	C	1.255541	0.751885	1.224974
C203	C	0.688613	0.318731	0.779550
C204	C	1.188613	0.818731	1.279550
C205	C	0.688607	0.318739	0.724943
C206	C	1.188607	0.818739	1.224943
C207	C	0.722069	0.285314	0.697654
C208	C	1.222069	0.785314	1.197654
C209	C	0.722070	0.285338	0.643063
C210	C	1.222070	0.785338	1.143063
N211	N	0.755526	0.251912	0.615771
N212	N	1.255526	0.751912	1.115771
C213	C	0.788992	0.218474	0.643082
C214	C	1.288992	0.718474	1.143082
C215	C	0.722113	0.285256	0.976138
C216	C	1.222113	0.785256	1.476138
C217	C	0.722124	0.285247	1.030741
C218	C	1.222124	0.785247	1.530741
C219	C	0.789049	0.218381	1.030760
C220	C	1.289049	0.718381	1.530760
C221	C	0.789041	0.218392	0.976157
C222	C	1.289041	0.718392	1.476157
C223	C	0.755570	0.251829	0.948846
C224	C	1.255570	0.751829	1.448846
C225	C	0.788977	0.218509	0.528417
C226	C	1.288977	0.718509	1.028417
C227	C	0.788970	0.218529	0.473811
C228	C	1.288970	0.718529	0.973811
C229	C	0.722043	0.285393	0.473797
C230	C	1.222043	0.785393	0.973797
C231	C	0.722052	0.285375	0.528397
C232	C	1.222052	0.785375	1.028397
C233	C	0.755521	0.251929	0.555706
C234	C	1.255521	0.751929	1.055706
O235	O	0.693635	0.313773	0.614771
O236	O	1.193635	0.813773	1.114771
O237	O	0.817439	0.190044	0.614847
O238	O	1.317439	0.690044	1.114847
H239	H	0.556449	0.312723	0.312530
H240	H	1.056449	0.812723	0.812530
C241	C	0.818885	1.113859	0.189076
C242	C	1.318885	1.613859	0.689076
C243	C	0.825916	1.060164	0.181991
C244	C	1.325916	1.560164	0.681991
H245	H	0.841641	1.132377	0.166456
H246	H	1.341641	1.632377	0.666456
H247	H	0.783783	1.122862	0.181344
H248	H	1.283783	1.622862	0.681344
H249	H	0.826473	1.122753	0.224233
H250	H	1.326473	1.622753	0.724233
H251	H	0.818324	1.051269	0.146835
H252	H	1.318324	1.551269	0.646835
H253	H	0.861026	1.051158	0.189719
H254	H	1.361026	1.551158	0.689719
C255	C	0.277567	0.118799	0.119295
C256	C	0.777567	0.618799	0.619295
C257	C	0.313065	0.148186	0.148584
C258	C	0.813065	0.648186	0.648584
H259	H	0.296093	0.096077	0.096637
H260	H	0.796093	0.596077	0.596637
H261	H	0.256297	0.098835	0.142115
H262	H	0.756297	0.598835	0.642115
H263	H	0.256244	0.141558	0.099262
H264	H	0.756244	0.641558	0.599262
H265	H	0.334386	0.125428	0.168620
H266	H	0.834386	0.625428	0.668620
H267	H	0.334345	0.168152	0.125761
H268	H	0.834345	0.668152	0.625761
H269	H	0.694809	0.312597	0.550617
H270	H	1.194809	0.812597	1.050617
H271	H	0.816298	0.191153	1.053007
H272	H	1.316298	0.691153	1.553007
C273	C	0.656005	1.024743	0.351490
C274	C	1.156005	1.524743	0.851490
C275	C	0.685383	1.060228	0.322180
C276	C	1.185383	1.560228	0.822180
H277	H	0.633307	1.043278	0.374164
H278	H	1.133307	1.543278	0.874164
H279	H	0.636015	1.003478	0.328684
H280	H	1.136015	1.503478	0.828684
H281	H	0.678771	1.003413	0.371507
H282	H	1.178771	1.503413	0.871507
H283	H	0.662617	1.081556	0.302159
H284	H	1.162617	1.581556	0.802159
H285	H	0.705374	1.081502	0.344989
H286	H	1.205374	1.581502	0.844989
H287	H	-0.044951	0.191258	0.191502
H288	H	0.455049	0.691258	0.691502
H289	H	0.694883	0.953392	0.312656
H290	H	1.194883	1.453392	0.812656
H291	H	0.849670	0.702137	0.158024
H292	H	1.349670	1.202137	0.658024
C293	C	0.622479	0.773571	0.384887
C294	C	1.122479	1.273571	0.884887
C295	C	0.651850	0.809060	0.355575
C296	C	1.151850	1.309060	0.855575
H297	H	0.599782	0.792103	0.407565
H298	H	1.099782	1.292103	0.907565
H299	H	0.602488	0.752306	0.362082
H300	H	1.102488	1.252306	0.862082
H301	H	0.645249	0.752241	0.404900
H302	H	1.145249	1.252241	0.904900
H303	H	0.629080	0.830387	0.335559
H304	H	1.129080	1.330387	0.835559
H305	H	0.671843	0.830334	0.378383
H306	H	1.171843	1.330334	0.878383
H307	H	0.206227	0.346229	0.345967
H308	H	0.706227	0.846229	0.845967
C309	C	0.485120	0.351658	0.351350
C310	C	0.985120	0.851658	0.851350
C311	C	0.449618	0.322270	0.322067
C312	C	0.949618	0.822270	0.822067
H313	H	0.466598	0.374388	0.374003
H314	H	0.966598	0.874388	0.874003
H315	H	0.506439	0.328904	0.371384
H316	H	1.006439	0.828904	0.871384
H317	H	0.506395	0.371618	0.328522
H318	H	1.006395	0.871618	0.828522
H319	H	0.428346	0.302306	0.344895
H320	H	0.928346	0.802306	0.844895
H321	H	0.428290	0.345026	0.302031
H322	H	0.928290	0.845026	0.802031
C323	C	0.026384	0.351690	0.351419
C324	C	0.526384	0.851690	0.851419
C325	C	0.061884	0.322298	0.322122
C326	C	0.561884	0.822298	0.822122
H327	H	0.044907	0.374410	0.374072
H328	H	0.544907	0.874410	0.874072
H329	H	0.005069	0.371657	0.328603
H330	H	0.505069	0.871657	0.828603
H331	H	0.005104	0.328935	0.371456
H332	H	0.505104	0.828935	0.871456
H333	H	0.083161	0.345053	0.302081
H334	H	0.583161	0.845053	0.802081
H335	H	0.083208	0.302330	0.344941
H336	H	0.583208	0.802330	0.844941
H337	H	0.816300	0.953325	0.191448
H338	H	1.316300	1.453325	0.691448
H339	H	0.694881	0.312471	1.052955
H340	H	1.194881	0.812471	1.552955
H341	H	0.661345	0.345963	0.702710
H342	H	1.161345	0.845963	1.202710
H343	H	0.849714	0.157806	0.702783
H344	H	1.349714	0.657806	1.202783
H345	H	0.694857	0.312487	0.953905
H346	H	1.194857	0.812487	1.453905
C347	C	0.888627	0.118926	0.774117
C348	C	1.388627	0.618926	1.274117
C349	C	0.859265	0.148253	0.809612
C350	C	1.359265	0.648253	1.309612
H351	H	0.911347	0.096237	0.792645
H352	H	1.411347	0.596237	1.292645
H353	H	0.865857	0.098928	0.752821
H354	H	1.365857	0.598928	1.252821
H355	H	0.908598	0.141724	0.752819
H356	H	1.408598	0.641724	1.252819
H357	H	0.839291	0.125455	0.830907
H358	H	1.339291	0.625455	1.330907
H359	H	0.882038	0.168253	0.830917
H360	H	1.382038	0.668253	1.330917
C361	C	-0.106432	0.315230	0.315092
C362	C	0.393568	0.815230	0.815092
C363	C	-0.052741	0.322304	0.322135
C364	C	0.447259	0.822304	0.822135
H365	H	-0.124962	0.337949	0.337749
H366	H	0.375038	0.837949	0.837749
H367	H	-0.115398	0.322834	0.279954
H368	H	0.384602	0.822834	0.779954
H369	H	-0.115349	0.280109	0.322805
H370	H	0.384651	0.780109	0.822805
H371	H	-0.043824	0.357424	0.314418
H372	H	0.456176	0.857424	0.814418
H373	H	-0.043771	0.314704	0.357281
H374	H	0.456229	0.814704	0.857281
H375	H	0.661364	0.345949	0.801759
H376	H	1.161364	0.845949	1.301759
H377	H	0.457387	0.191213	0.191436
H378	H	0.957387	0.691213	0.691436
C379	C	0.855192	0.152297	0.981673
C380	C	1.355192	0.652297	1.481673
C381	C	0.825819	0.181647	0.946163
C382	C	1.325819	0.681647	1.446163
H383	H	0.877895	0.129609	0.963157
H384	H	1.377895	0.629609	1.463157
H385	H	0.875176	0.175078	1.002969
H386	H	1.375176	0.675078	1.502969
H387	H	0.832423	0.132294	1.002970
H388	H	1.332423	0.632294	1.502970
H389	H	0.848587	0.201653	0.924868
H390	H	1.348587	0.701653	1.424868
H391	H	0.805833	0.158863	0.924858
H392	H	1.305833	0.658863	1.424858
H393	H	0.661350	0.702225	0.346042
H394	H	1.161350	1.202225	0.846042
C395	C	0.344419	0.389297	0.325919
C396	C	0.844419	0.889297	0.825919
C397	C	0.313054	0.355762	0.355464
C398	C	0.813054	0.855762	0.855464
H399	H	0.362938	0.412020	0.348574
H400	H	0.862938	0.912020	0.848574
H401	H	0.368496	0.369355	0.306045
H402	H	0.868496	0.869355	0.806045
H403	H	0.323093	0.409264	0.303108
H404	H	0.823093	0.909264	0.803108
H405	H	0.334381	0.335791	0.378274
H406	H	0.834381	0.835791	0.878274
H407	H	0.288975	0.375705	0.375348
H408	H	0.788975	0.875705	0.875348
H409	H	0.816229	0.191272	0.550645
H410	H	1.316229	0.691272	1.050645
C411	C	0.655825	0.522411	0.351442
C412	C	1.155825	1.022411	0.851442
C413	C	0.685206	0.557892	0.322130
C414	C	1.185206	1.057892	0.822130
H415	H	0.633131	0.540949	0.374118
H416	H	1.133131	1.040949	0.874118
H417	H	0.635830	0.501149	0.328637
H418	H	1.135830	1.001149	0.828637
H419	H	0.678589	0.501077	0.371457
H420	H	1.178589	1.001077	0.871457
H421	H	0.662442	0.579224	0.302112
H422	H	1.162442	1.079224	0.802112
H423	H	0.705202	0.579162	0.344938
H424	H	1.205202	1.079162	0.844938
C425	C	0.026379	0.152322	0.152687
C426	C	0.526379	0.652322	0.652687
C427	C	0.061880	0.181704	0.181979
C428	C	0.561880	0.681704	0.681979
H429	H	0.044902	0.129600	0.130028
H430	H	0.544902	0.629600	0.630028
H431	H	0.005106	0.132358	0.175507
H432	H	0.505106	0.632358	0.675507
H433	H	0.005058	0.175084	0.132656
H434	H	0.505058	0.675084	0.632656
H435	H	0.083198	0.158942	0.202013
H436	H	0.583198	0.658942	0.702013
H437	H	0.083161	0.201669	0.159157
H438	H	0.583161	0.701669	0.659157
H439	H	0.694699	0.451039	0.312594
H440	H	1.194699	0.951039	0.812594
H441	H	0.694798	0.312619	0.451550
H442	H	1.194798	0.812619	0.951550
C443	C	0.855123	0.152428	0.479324
C444	C	1.355123	0.652428	0.979324
C445	C	0.825752	0.181783	0.443816
C446	C	1.325752	0.681783	0.943816
H447	H	0.877826	0.129742	0.460806
H448	H	1.377826	0.629742	0.960806
H449	H	0.875106	0.175206	0.500623
H450	H	1.375106	0.675206	1.000623
H451	H	0.832353	0.132423	0.500617
H452	H	1.332353	0.632423	1.000617
H453	H	0.848522	0.201791	0.422525
H454	H	1.348522	0.701791	0.922525
H455	H	0.805767	0.159002	0.422507
H456	H	1.305767	0.659002	0.922507
H457	H	0.556454	0.191211	0.191422
H458	H	1.056454	0.691211	0.691422
C459	C	0.167053	0.177648	0.114945
C460	C	0.667053	0.677648	0.614945
C461	C	0.198467	0.148200	0.148577
C462	C	0.698467	0.648200	0.648577
H463	H	0.148549	0.154928	0.092275
H464	H	0.648549	0.654928	0.592275
H465	H	0.142964	0.197574	0.134819
H466	H	0.642964	0.697574	0.634819
H467	H	0.188345	0.200408	0.094925
H468	H	0.688345	0.700408	0.594925
H469	H	0.177174	0.125443	0.168600
H470	H	0.677174	0.625443	0.668600
H471	H	0.222559	0.128265	0.128701
H472	H	0.722559	0.628265	0.628701
C473	C	0.855028	0.478675	0.152568
C474	C	1.355028	0.978675	0.652568
C475	C	0.825645	0.443193	0.181876
C476	C	1.325645	0.943193	0.681876
H477	H	0.877731	0.460139	0.129901
H478	H	1.377731	0.960139	0.629901
H479	H	0.832269	0.500003	0.132548
H480	H	1.332269	1.000003	0.632548
H481	H	0.875016	0.499944	0.175379
H482	H	1.375016	0.999944	0.675379
H483	H	0.805653	0.421927	0.159064
H484	H	1.305653	0.921927	0.659064
H485	H	0.848406	0.421857	0.201897
H486	H	1.348406	0.921857	0.701897
H487	H	0.816159	0.550030	0.191408
H488	H	1.316159	1.050030	0.691408
H489	H	0.849709	0.801185	0.158037
H490	H	1.349709	1.301185	0.658037
