data_functionalizedCrystal
_audit_creation_method	'MofGen! by Chris Wilmer'
_symmetry_space_group_name_H-M	'P1'
_symmetry_Int_Tables_number	1
_symmetry_cell_setting	triclinic
loop_
_symmetry_equiv_pos_as_xyz
  x,y,z
_cell_length_a	14.519731
_cell_length_b	16.109301
_cell_length_c	15.186229
_cell_angle_alpha	90.000638
_cell_angle_beta	89.995270
_cell_angle_gamma	96.424833
loop_
_atom_site_label
_atom_site_type_symbol
_atom_site_fract_x
_atom_site_fract_y
_atom_site_fract_z
O1	O	0.118539	-1.103344	-0.073175
O2	O	0.618539	-0.603344	0.426825
O3	O	0.133291	-0.861309	-0.073189
O4	O	0.633291	-0.361309	0.426811
O5	O	-0.008336	-0.988734	-0.073174
O6	O	0.491664	-0.488734	0.426826
O7	O	0.260165	-0.975918	-0.073190
O8	O	0.760165	-0.475918	0.426810
O9	O	-0.008338	-0.988726	0.073284
O10	O	0.491662	-0.488726	0.573284
O11	O	0.133289	-0.861300	0.073268
O12	O	0.633289	-0.361300	0.573268
O13	O	0.118537	-1.103335	0.073282
O14	O	0.618537	-0.603335	0.573282
Zn15	Zn	0.125912	-0.982316	0.096529
Zn16	Zn	0.625912	-0.482316	0.596529
Zn17	Zn	0.125915	-0.982328	-0.096435
Zn18	Zn	0.625915	-0.482328	0.403565
O19	O	0.260163	-0.975910	0.073267
O20	O	0.760163	-0.475910	0.573267
C21	C	0.132692	-0.830328	0.000038
C22	C	0.632692	-0.330328	0.500038
C23	C	0.130901	-0.738030	0.000033
C24	C	0.630901	-0.238030	0.500033
C25	C	-0.042695	-0.988129	0.000055
C26	C	0.457305	-0.488129	0.500055
C27	C	-0.145072	-0.986330	0.000056
C28	C	0.354928	-0.486330	0.500056
C29	C	0.119135	-1.134316	0.000054
C30	C	0.619135	-0.634316	0.500054
C31	C	0.120927	-1.226614	0.000053
C32	C	0.620927	-0.726614	0.500053
C33	C	-0.228213	-0.984868	0.000054
C34	C	0.271787	-0.484868	0.500054
C35	C	-0.332518	-0.983041	0.000047
C36	C	0.167482	-0.483041	0.500047
C37	C	-0.415654	-0.981591	0.000041
C38	C	0.084346	-0.481591	0.500041
C39	C	-0.519965	-0.979764	0.000036
C40	C	-0.019965	-0.479764	0.500036
C41	C	0.294523	-0.976515	0.000036
C42	C	0.794523	-0.476515	0.500036
C43	C	0.396899	-0.978314	0.000030
C44	C	0.896899	-0.478314	0.500030
N45	N	0.125910	-0.982315	0.228221
N46	N	0.625910	-0.482315	0.728221
C47	C	0.210773	-0.515901	0.000038
C48	C	0.710773	-0.015901	0.500038
C49	C	0.209083	-0.429178	0.000044
C50	C	0.709083	0.070822	0.500044
C51	C	0.041048	-0.448750	0.000050
C52	C	0.541048	0.051250	0.500050
C53	C	0.042739	-0.535471	0.000051
C54	C	0.542739	-0.035471	0.500051
C55	C	0.127605	-0.569045	0.000040
C56	C	0.627605	-0.069045	0.500040
C57	C	0.124223	-0.395599	0.000045
C58	C	0.624223	0.104401	0.500045
C59	C	0.122389	-0.301570	0.000052
C60	C	0.622389	0.198430	0.500052
C61	C	0.129439	-0.663080	0.000036
C62	C	0.629439	-0.163080	0.500036
N63	N	0.125910	-0.982336	-0.228128
N64	N	0.625910	-0.482336	0.271872
C65	C	0.063219	-1.038758	0.453951
C66	C	0.563219	-0.538758	0.953951
C67	C	0.063217	-1.038761	0.546141
C68	C	0.563217	-0.538761	1.046141
C69	C	0.188604	-0.925886	0.546136
C70	C	0.688604	-0.425886	1.046136
C71	C	0.188601	-0.925880	0.453948
C72	C	0.688601	-0.425880	0.953948
C73	C	0.125910	-0.982321	0.407858
C74	C	0.625910	-0.482321	0.907858
C75	C	0.125910	-0.982330	0.592235
C76	C	0.625910	-0.482330	1.092235
C77	C	0.125908	-0.982332	0.692192
C78	C	0.625908	-0.482332	1.192192
C79	C	0.125910	-0.982318	0.307895
C80	C	0.625910	-0.482318	0.807895
H81	H	0.279876	-0.543233	0.000036
H82	H	0.779876	-0.043233	0.500036
O83	O	0.298785	-0.371856	0.000038
O84	O	0.798785	0.128144	0.500038
H85	H	0.358077	-0.409774	0.000026
H86	H	0.858077	0.090226	0.500026
O87	O	-0.046971	-0.592797	0.000062
O88	O	0.453029	-0.092797	0.500062
H89	H	-0.050216	-0.632785	-0.059625
H90	H	0.449784	-0.132785	0.440375
H91	H	-0.028047	-0.421403	0.000064
H92	H	0.471953	0.078597	0.500064
H93	H	0.012170	-1.084714	0.416427
H94	H	0.512170	-0.584714	0.916427
H95	H	0.012167	-1.084716	0.583667
H96	H	0.512167	-0.584716	1.083667
H97	H	0.239648	-0.879935	0.583672
H98	H	0.739648	-0.379935	1.083672
O99	O	0.256224	-0.865009	0.404223
O100	O	0.756224	-0.365009	0.904223
H101	H	0.299828	-0.825773	0.451758
H102	H	0.799828	-0.325773	0.951758
