data_functionalizedCrystal
_audit_creation_method	'MofGen! by Chris Wilmer'
_symmetry_space_group_name_H-M	'P1'
_symmetry_Int_Tables_number	1
_symmetry_cell_setting	triclinic
loop_
_symmetry_equiv_pos_as_xyz
  x,y,z
_cell_length_a	18.215407
_cell_length_b	12.594516
_cell_length_c	18.215399
_cell_angle_alpha	89.975485
_cell_angle_beta	89.983176
_cell_angle_gamma	90.016501
loop_
_atom_site_label
_atom_site_type_symbol
_atom_site_fract_x
_atom_site_fract_y
_atom_site_fract_z
Zn1	Zn	1.125095	-0.423715	-0.416146
Zn2	Zn	1.625095	0.076285	0.083854
Zn3	Zn	1.125029	-0.601720	-0.293092
Zn4	Zn	1.625029	-0.101720	0.206908
Zn5	Zn	1.002034	-0.423757	-0.293093
Zn6	Zn	1.502034	0.076243	0.206907
Zn7	Zn	1.002013	-0.601653	-0.416117
Zn8	Zn	1.502013	-0.101653	0.083883
O9	O	1.063543	-0.512711	-0.354612
O10	O	1.563543	-0.012711	0.145388
O11	O	1.228071	-0.447338	-0.399834
O12	O	1.728071	0.052662	0.100166
O13	O	1.108695	-0.578158	-0.190108
O14	O	1.608695	-0.078158	0.309892
O15	O	1.018395	-0.274806	-0.309429
O16	O	1.518395	0.225194	0.190571
O17	O	1.228022	-0.578117	-0.309427
O18	O	1.728022	-0.078117	0.190573
O19	O	1.108808	-0.274775	-0.399835
O20	O	1.608808	0.225225	0.100165
O21	O	1.018331	-0.447410	-0.190109
O22	O	1.518331	0.052590	0.309891
O23	O	0.899047	-0.447345	-0.309401
O24	O	1.399047	0.052655	0.190599
O25	O	1.018359	-0.578004	-0.519105
O26	O	1.518359	-0.078004	-0.019105
O27	O	0.899031	-0.578045	-0.399786
O28	O	1.399031	-0.078045	0.100214
O29	O	1.108787	-0.447273	-0.519126
O30	O	1.608787	0.052727	-0.019126
O31	O	1.108674	-0.750657	-0.309399
O32	O	1.608674	-0.250657	0.190601
O33	O	1.018294	-0.750608	-0.399785
O34	O	1.518294	-0.250608	0.100215
C35	C	0.872337	-0.512693	-0.354591
C36	C	1.372337	-0.012693	0.145409
C37	C	0.790538	-0.512711	-0.354599
C38	C	1.290538	-0.012711	0.145401
C39	C	1.063495	-0.789252	-0.354605
C40	C	1.563495	-0.289252	0.145395
C41	C	1.063541	-0.907558	-0.354626
C42	C	1.563541	-0.407558	0.145374
C43	C	0.602355	-0.580873	-0.401604
C44	C	1.102355	-0.080873	0.098396
C45	C	0.525496	-0.580877	-0.401613
C46	C	1.025496	-0.080877	0.098387
C47	C	0.525483	-0.444569	-0.307636
C48	C	1.025483	0.055431	0.192364
C49	C	0.602340	-0.444561	-0.307631
C50	C	1.102340	0.055439	0.192369
C51	C	0.640774	-0.512719	-0.354614
C52	C	1.140774	-0.012719	0.145386
C53	C	0.487058	-0.512730	-0.354628
C54	C	0.987058	-0.012730	0.145372
C55	C	0.403724	-0.512734	-0.354638
C56	C	0.903724	-0.012734	0.145362
C57	C	0.724113	-0.512715	-0.354606
C58	C	1.224113	-0.012715	0.145394
C59	C	1.014379	-0.976823	-0.403753
C60	C	1.514379	-0.476823	0.096247
C61	C	0.996453	-1.047686	-0.336600
C62	C	1.496453	-0.547686	0.163400
C63	C	1.081534	-1.047494	-0.421791
C64	C	1.581534	-0.547494	0.078209
C65	C	1.045580	-0.976862	-0.287438
C66	C	1.545580	-0.476862	0.212562
C67	C	1.130692	-0.976664	-0.372674
C68	C	1.630692	-0.476664	0.127326
C69	C	1.112792	-1.047495	-0.305475
C70	C	1.612792	-0.547495	0.194525
C71	C	1.255496	-0.512730	-0.354634
C72	C	1.755496	-0.012730	0.145366
C73	C	1.337295	-0.512739	-0.354643
C74	C	1.837295	-0.012739	0.145357
C75	C	1.063578	-0.512626	-0.546565
C76	C	1.563578	-0.012626	-0.046565
C77	C	1.063592	-0.512590	-0.628364
C78	C	1.563592	-0.012590	-0.128364
C79	C	1.063611	-0.235091	-0.354635
C80	C	1.563611	0.264909	0.145365
C81	C	1.063640	-0.116785	-0.354645
C82	C	1.563640	0.383215	0.145355
C83	C	1.016580	-0.444463	-0.816559
C84	C	1.516580	0.055537	-0.316559
C85	C	1.016593	-0.444442	-0.893418
C86	C	1.516593	0.055558	-0.393418
C87	C	1.110693	-0.580590	-0.893406
C88	C	1.610693	-0.080590	-0.393406
C89	C	1.110676	-0.580616	-0.816549
C90	C	1.610676	-0.080616	-0.316549
C91	C	1.063620	-0.512547	-0.778127
C92	C	1.563620	-0.012547	-0.278127
C93	C	1.063650	-0.512499	-0.931844
C94	C	1.563650	-0.012499	-0.431844
C95	C	1.063664	-0.512476	-1.015177
C96	C	1.563664	-0.012476	-0.515177
C97	C	1.063605	-0.512571	-0.694788
C98	C	1.563605	-0.012571	-0.194788
C99	C	1.063551	-0.512719	-0.163406
C100	C	1.563551	-0.012719	0.336594
C101	C	1.063678	-0.512456	-0.081607
C102	C	1.563678	-0.012456	0.418393
H103	H	0.633645	-0.636369	-0.439862
H104	H	1.133645	-0.136369	0.060138
O105	O	1.167922	-1.088343	-0.250397
O106	O	1.667922	-0.588343	0.249603
H107	H	1.167915	-1.176466	-0.251127
H108	H	1.667915	-0.676466	0.248873
H109	H	0.972730	-0.945791	-0.445237
H110	H	1.472730	-0.445791	0.054763
O111	O	0.484016	-0.654388	-0.452260
O112	O	0.984016	-0.154388	0.047740
H113	H	0.448982	-0.708435	-0.419221
H114	H	0.948982	-0.208435	0.080779
O115	O	0.484031	-0.371092	-0.256939
O116	O	0.984031	0.128908	0.243061
H117	H	0.424132	-0.382563	-0.264823
H118	H	0.924132	0.117437	0.235177
H119	H	1.148984	-0.636061	-0.785257
H120	H	1.648984	-0.136061	-0.285257
O121	O	0.643787	-0.371065	-0.256936
O122	O	1.143787	0.128935	0.243064
H123	H	0.604151	-0.323688	-0.224256
H124	H	1.104151	0.176312	0.275744
H125	H	0.939711	-1.078905	-0.321350
H126	H	1.439711	-0.578905	0.178650
O127	O	1.025387	-0.935954	-0.212185
O128	O	1.525387	-0.435954	0.287815
H129	H	0.974891	-0.886982	-0.216148
H130	H	1.474891	-0.386982	0.283852
O131	O	1.205921	-0.935545	-0.392829
O132	O	1.705921	-0.435545	0.107171
H133	H	1.220724	-0.963868	-0.448594
H134	H	1.720724	-0.463868	0.051406
O135	O	1.101647	-1.088589	-0.497017
O136	O	1.601647	-0.588589	0.002983
H137	H	1.060708	-1.060283	-0.537677
H138	H	1.560708	-0.560283	-0.037677
H139	H	0.978287	-0.389003	-0.924706
H140	H	1.478287	0.110997	-0.424706
H141	H	0.978264	-0.389037	-0.785279
H142	H	1.478264	0.110963	-0.285279
O143	O	1.161452	-0.653996	-0.934846
O144	O	1.661452	-0.153996	-0.434846
H145	H	1.153568	-0.642533	-0.994747
H146	H	1.653568	-0.142533	-0.494747
