data_functionalizedCrystal
_audit_creation_method	'MofGen! by Chris Wilmer'
_symmetry_space_group_name_H-M	'P1'
_symmetry_Int_Tables_number	1
_symmetry_cell_setting	triclinic
loop_
_symmetry_equiv_pos_as_xyz
  x,y,z
_cell_length_a	8.559649
_cell_length_b	8.597304
_cell_length_c	16.776229
_cell_angle_alpha	82.293521
_cell_angle_beta	89.992917
_cell_angle_gamma	77.624695
loop_
_atom_site_label
_atom_site_type_symbol
_atom_site_fract_x
_atom_site_fract_y
_atom_site_fract_z
O1	O	2.119303	-0.053140	-0.062626
O2	O	1.655364	0.027761	-0.068185
O3	O	1.896461	-0.242258	-0.049637
O4	O	1.878205	0.216879	-0.081174
O5	O	1.896429	-0.242269	0.082940
O6	O	1.655331	0.027750	0.064392
O7	O	2.119270	-0.053151	0.069951
Zn8	Zn	1.887295	-0.012702	0.088221
Zn9	Zn	1.887339	-0.012688	-0.086455
O10	O	1.878173	0.216868	0.051403
C11	C	1.595913	0.033886	-0.002318
C12	C	1.418819	0.052136	-0.003573
C13	C	1.894483	-0.300499	0.020649
C14	C	1.888618	-0.474020	0.032563
C15	C	2.178721	-0.059276	0.004082
C16	C	2.355815	-0.077525	0.005332
C17	C	1.880151	0.275109	-0.018885
C18	C	1.886016	0.448630	-0.030804
N19	N	1.887278	-0.012714	0.207433
N20	N	1.887369	-0.012690	-0.205666
C21	C	1.994069	-0.132239	0.257361
C22	C	1.994078	-0.132241	0.340813
C23	C	1.887302	-0.012711	0.374336
C24	C	1.780499	0.106820	0.324402
C25	C	1.780483	0.106814	0.240952
C26	C	1.780557	0.106844	0.660948
C27	C	1.780584	0.106843	0.744404
C28	C	1.994152	-0.132212	0.760809
C29	C	1.994136	-0.132217	0.677358
C30	C	1.887328	-0.012692	0.627432
C31	C	1.887318	-0.012693	0.536944
C32	C	1.887319	-0.012703	0.464822
H33	H	1.337266	0.177114	-0.012162
O34	O	1.676776	0.222747	0.777072
C35	C	1.577086	0.150638	0.830300
H36	H	1.638713	0.020440	0.851740
H37	H	1.552889	0.219046	0.884285
H38	H	1.459046	0.154120	0.797917
O39	O	1.888467	-0.471807	-0.106377
C40	C	1.753853	-0.343155	-0.119475
H41	H	1.708772	-0.307415	-0.059162
H42	H	1.788678	-0.236160	-0.157358
H43	H	1.655261	-0.381857	-0.152496
O44	O	1.885683	-0.553486	0.108128
C45	C	1.744702	-0.613370	0.116513
H46	H	1.697976	-0.626182	0.054629
H47	H	1.771779	-0.735821	0.155444
H48	H	1.650353	-0.526534	0.146245
H49	H	1.693551	0.204139	0.351701
H50	H	2.081026	-0.229568	0.230072
H51	H	1.437359	-0.202495	0.013912
H52	H	2.081035	-0.229568	0.381464
O53	O	2.097915	-0.248488	0.644930
C54	C	2.192203	-0.353966	0.706892
H55	H	2.126806	-0.347889	0.765969
H56	H	2.214574	-0.481991	0.691578
H57	H	2.311469	-0.317315	0.713232
O58	O	2.097744	-0.248256	0.809427
C59	C	2.074893	-0.222611	0.890271
H60	H	1.949015	-0.148859	0.896615
H61	H	2.090801	-0.343376	0.930283
H62	H	2.166384	-0.154864	0.909286
O63	O	1.676759	0.223111	0.612569
C64	C	1.582502	0.328588	0.660057
H65	H	1.647935	0.322513	0.719951
H66	H	1.560112	0.456612	0.627149
H67	H	1.463242	0.291933	0.671470
O68	O	1.676692	0.223083	0.192562
C69	C	1.582425	0.328564	0.240044
H70	H	1.647849	0.322499	0.299940
H71	H	1.560036	0.456586	0.207133
H72	H	1.463166	0.291907	0.251454
