data_functionalizedCrystal
_audit_creation_method	'MofGen! by Chris Wilmer'
_symmetry_space_group_name_H-M	'P1'
_symmetry_Int_Tables_number	1
_symmetry_cell_setting	triclinic
loop_
_symmetry_equiv_pos_as_xyz
  x,y,z
_cell_length_a	14.908520
_cell_length_b	17.077404
_cell_length_c	17.077396
_cell_angle_alpha	90.019699
_cell_angle_beta	93.268321
_cell_angle_gamma	86.682202
loop_
_atom_site_label
_atom_site_type_symbol
_atom_site_fract_x
_atom_site_fract_y
_atom_site_fract_z
Zn1	Zn	-0.359229	-1.182020	-0.461875
Zn2	Zn	-0.510100	-1.174353	-0.338181
Zn3	Zn	-0.359252	-1.050751	-0.330624
Zn4	Zn	-0.510038	-1.043149	-0.469401
O5	O	-0.434655	-1.112568	-0.400020
O6	O	-0.379258	-1.290849	-0.445480
O7	O	-0.490125	-1.157929	-0.227333
O8	O	-0.233005	-1.074554	-0.341723
O9	O	-0.490103	-1.285216	-0.354602
O10	O	-0.232987	-1.170997	-0.438152
O11	O	-0.379298	-1.067119	-0.221781
O12	O	-0.379238	-0.939896	-0.349020
O13	O	-0.489997	-1.061597	-0.578248
O14	O	-0.490020	-0.934311	-0.450979
O15	O	-0.379198	-1.163626	-0.572719
O16	O	-0.636336	-1.150558	-0.361900
O17	O	-0.636291	-1.054163	-0.458307
C18	C	-0.434626	-0.908622	-0.399996
C19	C	-0.434635	-0.821371	-0.400006
C20	C	-0.377020	-0.783310	-0.447407
C21	C	-0.377024	-0.701329	-0.447409
C22	C	-0.434649	-0.657411	-0.400014
C23	C	-0.492266	-0.695478	-0.352607
C24	C	-0.492256	-0.777458	-0.352602
C25	C	-0.492283	-0.524607	-0.352624
C26	C	-0.492294	-0.442622	-0.352630
C27	C	-0.377051	-0.448479	-0.447431
C28	C	-0.377042	-0.530458	-0.447425
C29	C	-0.434660	-0.568520	-0.400020
C30	C	-0.669047	-1.100725	-0.411757
C31	C	-0.769321	-1.095730	-0.416804
C32	C	-0.957733	-1.186824	-0.325981
C33	C	-1.051950	-1.182134	-0.330721
C34	C	-1.051973	-1.081664	-0.431027
C35	C	-0.957756	-1.086354	-0.426287
C36	C	-0.910640	-1.138935	-0.373762
C37	C	-0.816422	-1.143621	-0.369018
C38	C	-0.816446	-1.043155	-0.469328
C39	C	-0.910663	-1.038465	-0.474068
C40	C	-0.199347	-1.124479	-0.388255
C41	C	-0.099073	-1.129554	-0.383241
C42	C	-0.434588	-1.112619	-0.604761
C43	C	-0.434560	-1.112641	-0.692010
C44	C	-0.434680	-0.317311	-0.400039
C45	C	-0.434680	-0.404561	-0.400031
C46	C	-0.376862	-1.165769	-0.730122
C47	C	-0.376832	-1.165780	-0.812101
C48	C	-0.434505	-1.112666	-0.855967
C49	C	-0.492206	-1.059532	-0.817849
C50	C	-0.492230	-1.059518	-0.735871
C51	C	-0.492151	-1.059566	-0.988716
C52	C	-0.492128	-1.059581	-1.070700
C53	C	-0.376753	-1.165828	-1.064946
C54	C	-0.376778	-1.165814	-0.982968
C55	C	-0.434480	-1.112681	-0.944856
C56	C	-0.434656	-1.112566	-0.196073
C57	C	-0.434430	-1.112709	-0.108812
H58	H	-0.539218	-0.406866	-0.314037
O59	O	-1.102812	-1.024960	-0.487672
H60	H	-1.084682	-1.039288	-0.548383
O61	O	-0.961481	-0.981743	-0.530708
H62	H	-1.034908	-0.986520	-0.525972
H63	H	-0.778092	-1.004159	-0.508232
O64	O	-0.554430	-0.565664	-0.301497
H65	H	-0.594509	-0.521354	-0.268548
O66	O	-0.314581	-1.223107	-0.935656
H67	H	-0.268693	-1.190293	-0.895999
H68	H	-0.329769	-1.209090	-1.095981
H69	H	-0.329901	-1.209023	-0.694412
H70	H	-0.330098	-0.819062	-0.486004
H71	H	-0.330110	-0.670344	-0.486009
H72	H	-0.330124	-0.566214	-0.486023
O73	O	-0.314602	-1.223085	-0.853206
H74	H	-0.354977	-1.260977	-0.892588
H75	H	-0.330134	-0.417486	-0.486028
O76	O	-0.554452	-1.002203	-0.694764
H77	H	-0.625258	-1.012076	-0.714030
H78	H	-0.539088	-1.016329	-1.106413
O79	O	-0.554379	-1.002255	-0.947604
H80	H	-0.594484	-0.965327	-0.991878
O81	O	-0.554404	-1.002236	-0.865157
H82	H	-0.600305	-1.035048	-0.904804
H83	H	-0.539180	-0.659714	-0.314013
O84	O	-0.554398	-0.818516	-0.301478
H85	H	-0.594476	-0.774206	-0.268527
H86	H	-0.778060	-1.186433	-0.326248
H87	H	-1.090290	-1.221131	-0.291814
O88	O	-0.906905	-1.243532	-0.269333
H89	H	-0.955482	-1.276047	-0.236905
