data_functionalizedCrystal
_audit_creation_method	'MofGen! by Chris Wilmer'
_symmetry_space_group_name_H-M	'P1'
_symmetry_Int_Tables_number	1
_symmetry_cell_setting	triclinic
loop_
_symmetry_equiv_pos_as_xyz
  x,y,z
_cell_length_a	14.908571
_cell_length_b	16.120484
_cell_length_c	16.120728
_cell_angle_alpha	84.367400
_cell_angle_beta	90.236006
_cell_angle_gamma	89.787312
loop_
_atom_site_label
_atom_site_type_symbol
_atom_site_fract_x
_atom_site_fract_y
_atom_site_fract_z
Zn1	Zn	1.324458	-0.431441	0.563736
Zn2	Zn	1.824458	0.068559	1.063736
Zn3	Zn	1.324375	-0.564082	0.431039
Zn4	Zn	1.824375	-0.064082	0.931039
Zn5	Zn	1.182558	-0.416346	0.416022
Zn6	Zn	1.682558	0.083654	0.916022
Zn7	Zn	1.166472	-0.562284	0.561909
Zn8	Zn	1.666472	-0.062284	1.061909
O9	O	1.249466	-0.493538	0.493176
O10	O	1.749466	0.006462	0.993176
O11	O	1.449915	-0.456106	0.553182
O12	O	1.949915	0.043894	1.053182
O13	O	1.312259	-0.538920	0.312459
O14	O	1.812259	-0.038920	0.812459
O15	O	1.208148	-0.301762	0.430096
O16	O	1.708148	0.198238	0.930096
O17	O	1.449854	-0.553557	0.455691
O18	O	1.949854	-0.053557	0.955691
O19	O	1.312402	-0.312852	0.538621
O20	O	1.812402	0.187148	1.038621
O21	O	1.208068	-0.430378	0.301426
O22	O	1.708068	0.069622	0.801426
O23	O	1.054956	-0.428635	0.428325
O24	O	1.554956	0.071365	0.928325
O25	O	1.180732	-0.550492	0.678739
O26	O	1.680732	-0.050492	1.178739
O27	O	1.043137	-0.535855	0.535508
O28	O	1.543137	-0.035855	1.035508
O29	O	1.296803	-0.454362	0.680081
O30	O	1.796803	0.045638	1.180081
O31	O	1.296661	-0.680430	0.453920
O32	O	1.796661	-0.180430	0.953920
O33	O	1.180651	-0.679109	0.550069
O34	O	1.680651	-0.179109	1.050069
C35	C	1.016514	-0.480412	0.480089
C36	C	1.516514	0.019588	0.980089
C37	C	0.916854	-0.474818	0.474511
C38	C	1.416854	0.025182	0.974511
C39	C	0.717323	-0.576112	0.575503
C40	C	1.217323	-0.076112	1.075503
C41	C	0.623683	-0.570858	0.570265
C42	C	1.123683	-0.070858	1.070265
C43	C	0.635933	-0.459053	0.458801
C44	C	1.135933	0.040947	0.958801
C45	C	0.729573	-0.464307	0.464039
C46	C	1.229573	0.035693	0.964039
C47	C	0.770264	-0.522839	0.522391
C48	C	1.270264	-0.022839	1.022391
C49	C	0.863906	-0.528096	0.527625
C50	C	1.363906	-0.028096	1.027625
C51	C	0.876154	-0.416288	0.416165
C52	C	1.376154	0.083712	0.916165
C53	C	0.782514	-0.411034	0.410927
C54	C	1.282514	0.088966	0.910927
C55	C	1.236925	-0.710001	0.503445
C56	C	1.736925	-0.210001	1.003445
C57	C	1.231640	-0.802611	0.507871
C58	C	1.731640	-0.302611	1.007871
C59	C	1.221996	-0.972171	0.515968
C60	C	1.721996	-0.472171	1.015968
C61	C	1.277095	-1.014074	0.470407
C62	C	1.777095	-0.514074	0.970407
C63	C	1.271729	-1.108423	0.474912
C64	C	1.771729	-0.608423	0.974912
C65	C	1.227361	-0.877813	0.511464
C66	C	1.727361	-0.377813	1.011464
C67	C	1.483327	-0.506716	0.506316
C68	C	1.983327	-0.006716	1.006316
C69	C	1.582984	-0.512332	0.511915
C70	C	2.082984	-0.012332	1.011915
C71	C	1.236983	-0.503910	0.710486
C72	C	1.736983	-0.003910	1.210486
C73	C	1.231663	-0.508330	0.803090
C74	C	1.731663	-0.008330	1.303090
C75	C	1.262079	-0.276232	0.482887
C76	C	1.762079	0.223768	0.982887
C77	C	1.267454	-0.183629	0.478502
C78	C	1.767454	0.316371	0.978502
C79	C	1.221919	-0.516380	0.972636
C80	C	1.721919	-0.016380	1.472636
C81	C	1.276980	-0.470774	1.014570
C82	C	1.776980	0.029226	1.514570
C83	C	1.271558	-0.475253	1.108911
C84	C	1.771558	0.024747	1.608911
C85	C	1.227339	-0.511902	0.878286
C86	C	1.727339	-0.011902	1.378286
C87	C	1.261899	-0.483229	1.276713
C88	C	1.761899	0.016771	1.776713
C89	C	1.267239	-0.478822	1.184111
C90	C	1.767239	0.021178	1.684111
H91	H	0.750454	-0.623775	0.623011
H92	H	1.250454	-0.123775	1.123011
H93	H	1.328295	-0.979090	0.428016
H94	H	1.828295	-0.479090	0.928016
O95	O	1.338040	-0.420241	0.972751
O96	O	1.838040	0.079759	1.472751
C97	C	1.329912	-0.426943	0.886498
C98	C	1.829912	0.073057	1.386498
H99	H	1.297491	-0.489040	0.876113
H100	H	1.797491	0.010960	1.376113
H101	H	1.399262	-0.423517	0.856861
H102	H	1.899262	0.076483	1.356861
H103	H	1.286411	-0.373691	0.856774
H104	H	1.786411	0.126309	1.356774
O105	O	1.160937	-1.014025	0.566461
O106	O	1.660937	-0.514025	1.066461
C107	C	1.169118	-1.100274	0.559778
C108	C	1.669118	-0.600274	1.059778
H109	H	1.201584	-1.110643	0.497711
H110	H	1.701584	-0.610643	0.997711
H111	H	1.099781	-1.129965	0.563148
H112	H	1.599781	-0.629965	1.063148
H113	H	1.212601	-1.129959	0.613069
H114	H	1.712601	-0.629959	1.113069
O115	O	0.903539	-0.584841	0.584348
O116	O	1.403539	-0.084841	1.084348
C117	C	0.957342	-0.543095	0.639028
C118	C	1.457342	-0.043095	1.139028
H119	H	0.976696	-0.479303	0.607526
H120	H	1.476696	0.020697	1.107526
H121	H	1.020591	-0.581273	0.655438
H122	H	1.520591	-0.081273	1.155438
H123	H	0.918245	-0.534952	0.698335
H124	H	1.418245	-0.034952	1.198335
O125	O	1.160911	-0.566959	1.014459
O126	O	1.660911	-0.066959	1.514459
C127	C	1.169010	-0.560215	1.100707
C128	C	1.669010	-0.060215	1.600707
H129	H	1.239122	-0.537369	1.115083
H130	H	1.739122	-0.037369	1.615083
H131	H	1.157448	-0.623820	1.136475
H132	H	1.657448	-0.123820	1.636475
H133	H	1.117009	-0.514004	1.120304
H134	H	1.617009	-0.014004	1.620304
H135	H	0.919269	-0.372911	0.372916
H136	H	1.419269	0.127089	0.872916
O137	O	0.572388	-0.622694	0.621895
O138	O	1.072388	-0.122694	1.121895
C139	C	0.628388	-0.675463	0.674535
C140	C	1.128388	-0.175463	1.174535
H141	H	0.696924	-0.680415	0.644272
H142	H	1.196924	-0.180415	1.144272
H143	H	0.597036	-0.740020	0.684926
H144	H	1.097036	-0.240020	1.184926
H145	H	0.636486	-0.648626	0.736971
H146	H	1.136486	-0.148626	1.236971
H147	H	0.749370	-0.363377	0.363421
H148	H	1.249370	0.136623	0.863421
O149	O	0.596252	-0.402244	0.402173
O150	O	1.096252	0.097756	0.902173
C151	C	0.502251	-0.409003	0.408975
C152	C	1.002251	0.090997	0.908975
H153	H	0.484185	-0.473933	0.438462
H154	H	0.984185	0.026067	0.938462
H155	H	0.470541	-0.398235	0.344325
H156	H	0.970541	0.101765	0.844325
H157	H	0.476015	-0.360307	0.449635
H158	H	0.976015	0.139693	0.949635
