data_functionalizedCrystal
_audit_creation_method	'MofGen! by Chris Wilmer'
_symmetry_space_group_name_H-M	'P1'
_symmetry_Int_Tables_number	1
_symmetry_cell_setting	triclinic
loop_
_symmetry_equiv_pos_as_xyz
  x,y,z
_cell_length_a	14.519709
_cell_length_b	13.596369
_cell_length_c	14.519709
_cell_angle_alpha	90.006965
_cell_angle_beta	96.319855
_cell_angle_gamma	90.005176
loop_
_atom_site_label
_atom_site_type_symbol
_atom_site_fract_x
_atom_site_fract_y
_atom_site_fract_z
O1	O	-1.223863	0.081653	0.120893
O2	O	-0.723863	0.581653	0.620893
O3	O	-0.955386	0.081686	0.135130
O4	O	-0.455386	0.581686	0.635130
O5	O	-1.096742	0.081660	-0.006227
O6	O	-0.596742	0.581660	0.493773
O7	O	-1.082506	0.081680	0.262250
O8	O	-0.582506	0.581680	0.762250
O9	O	-1.096740	-0.081923	-0.006236
O10	O	-0.596740	0.418077	0.493764
O11	O	-0.955383	-0.081896	0.135121
O12	O	-0.455383	0.418104	0.635121
O13	O	-1.223860	-0.081929	0.120885
O14	O	-0.723860	0.418071	0.620885
Zn15	Zn	-1.089621	-0.107885	0.128001
Zn16	Zn	-0.589621	0.392115	0.628001
Zn17	Zn	-1.089624	0.107642	0.128013
Zn18	Zn	-0.589624	0.607642	0.628013
O19	O	-1.082504	-0.081903	0.262241
O20	O	-0.582504	0.418097	0.762241
C21	C	-0.921025	-0.000101	0.134462
C22	C	-0.421025	0.499899	0.634462
C23	C	-0.818643	-0.000089	0.132474
C24	C	-0.318643	0.499911	0.632474
C25	C	-1.096078	-0.000131	-0.040591
C26	C	-0.596078	0.499869	0.459409
C27	C	-1.094090	-0.000132	-0.142972
C28	C	-0.594090	0.499868	0.357028
C29	C	-0.443748	-0.000130	0.125154
C30	C	0.056252	0.499870	0.625154
C31	C	-0.548056	-0.000118	0.127187
C32	C	-0.048056	0.499882	0.627187
C33	C	-0.631192	-0.000108	0.128814
C34	C	-0.131192	0.499892	0.628814
C35	C	-0.735507	-0.000098	0.130847
C36	C	-0.235507	0.499902	0.630847
C37	C	-0.258221	-0.000137	0.121553
C38	C	0.241779	0.499863	0.621553
C39	C	-0.360602	-0.000136	0.123541
C40	C	0.139398	0.499864	0.623541
N41	N	-1.089627	0.254734	0.128014
N42	N	-0.589627	0.754734	0.628014
N43	N	-1.089626	-0.254977	0.127993
N44	N	-0.589626	0.245023	0.627993
C45	C	-1.089622	0.656025	0.128004
C46	C	-0.589622	1.156025	0.628004
C47	C	-1.089620	0.544374	0.128010
C48	C	-0.589620	1.044374	0.628010
C49	C	-1.089624	0.455383	0.128009
C50	C	-0.589624	0.955383	0.628009
C51	C	-1.089624	0.343725	0.128015
C52	C	-0.589624	0.843725	0.628015
C53	C	-1.086770	-0.000105	-0.517868
C54	C	-0.586770	0.499895	-0.017868
C55	C	-1.088803	-0.000113	-0.413560
C56	C	-0.588803	0.499887	0.086440
C57	C	-1.090430	-0.000119	-0.330423
C58	C	-0.590430	0.499881	0.169577
C59	C	-1.092463	-0.000125	-0.226109
C60	C	-0.592463	0.499875	0.273891
C61	C	-1.083168	-0.000109	0.296605
C62	C	-0.583168	0.499891	0.796605
C63	C	-1.085156	-0.000103	0.398987
C64	C	-0.585156	0.499897	0.898987
