data_functionalizedCrystal
_audit_creation_method	'MofGen! by Chris Wilmer'
_symmetry_space_group_name_H-M	'P1'
_symmetry_Int_Tables_number	1
_symmetry_cell_setting	triclinic
loop_
_symmetry_equiv_pos_as_xyz
  x,y,z
_cell_length_a	12.759401
_cell_length_b	12.645330
_cell_length_c	12.645324
_cell_angle_alpha	89.966098
_cell_angle_beta	89.980171
_cell_angle_gamma	90.011732
loop_
_atom_site_label
_atom_site_type_symbol
_atom_site_fract_x
_atom_site_fract_y
_atom_site_fract_z
Zn1	Zn	1.606282	-0.421985	-0.599342
Zn2	Zn	2.106282	0.078015	-0.099342
Zn3	Zn	1.606179	-0.599294	-0.422075
Zn4	Zn	2.106179	-0.099294	0.077925
Zn5	Zn	1.430580	-0.422042	-0.422096
Zn6	Zn	1.930580	0.077958	0.077904
Zn7	Zn	1.430579	-0.599204	-0.599300
Zn8	Zn	1.930579	-0.099204	-0.099300
O9	O	1.518405	-0.510631	-0.510703
O10	O	2.018405	-0.010631	-0.010703
O11	O	1.753289	-0.445519	-0.575836
O12	O	2.253289	0.054481	-0.075836
O13	O	1.582843	-0.575843	-0.273731
O14	O	2.082843	-0.075843	0.226269
O15	O	1.453931	-0.273687	-0.445634
O16	O	1.953931	0.226313	0.054366
O17	O	1.753214	-0.575787	-0.445599
O18	O	2.253214	-0.075787	0.054401
O19	O	1.583018	-0.273645	-0.575856
O20	O	2.083018	0.226355	-0.075856
O21	O	1.453832	-0.445617	-0.273746
O22	O	1.953832	0.054383	0.226254
O23	O	1.283559	-0.445529	-0.445594
O24	O	1.783559	0.054471	0.054406
O25	O	1.453928	-0.575633	-0.747653
O26	O	1.953928	-0.075633	-0.247653
O27	O	1.283558	-0.575689	-0.575785
O28	O	1.783558	-0.075689	-0.075785
O29	O	1.583016	-0.445431	-0.747684
O30	O	2.083016	0.054569	-0.247684
O31	O	1.582841	-0.747629	-0.445559
O32	O	2.082841	-0.247629	0.054441
O33	O	1.453829	-0.747563	-0.575765
O34	O	1.953829	-0.247563	-0.075765
C35	C	1.245437	-0.510606	-0.510688
C36	C	1.745437	-0.010606	-0.010688
C37	C	1.128661	-0.510621	-0.510706
C38	C	1.628661	-0.010621	-0.010706
C39	C	0.964102	-0.442938	-0.578633
C40	C	1.464102	0.057062	-0.078633
C41	C	1.073826	-0.442917	-0.578626
C42	C	1.573826	0.057083	-0.078626
C43	C	1.073766	-0.578359	-0.442797
C44	C	1.573766	-0.078359	0.057203
C45	C	0.964044	-0.578384	-0.442810
C46	C	1.464044	-0.078384	0.057190
C47	C	1.518352	-0.786061	-0.510678
C48	C	2.018352	-0.286061	-0.010678
C49	C	1.518426	-0.903891	-0.510703
C50	C	2.018426	-0.403891	-0.010703
C51	C	1.599458	-1.071452	-0.428624
C52	C	2.099458	-0.571452	0.071376
C53	C	1.599721	-0.948892	-0.428825
C54	C	2.099721	-0.448892	0.071175
C55	C	1.548456	-0.948260	-0.622446
C56	C	2.048456	-0.448260	-0.122446
C57	C	1.549099	-1.070858	-0.622011
C58	C	2.049099	-0.570858	-0.122011
C59	C	1.407333	-1.071220	-0.482140
C60	C	1.907333	-0.571220	0.017860
C61	C	1.407865	-0.948616	-0.479634
C62	C	1.907865	-0.448616	0.020366
C63	C	1.792438	-0.510657	-0.510720
C64	C	2.292438	-0.010657	-0.010720
C65	C	1.909215	-0.510668	-0.510727
C66	C	2.409215	-0.010668	-0.010727
C67	C	1.518484	-0.510516	-0.787209
C68	C	2.018484	-0.010516	-0.287209
C69	C	1.518517	-0.510467	-0.905039
C70	C	2.018517	-0.010467	-0.405039
C71	C	1.518486	-0.234126	-0.510752
C72	C	2.018486	0.265874	-0.010752
C73	C	1.518521	-0.116296	-0.510772
C74	C	2.018521	0.383704	-0.010772
C75	C	1.600043	-0.428794	-1.072622
C76	C	2.100043	0.071206	-0.572622
C77	C	1.599781	-0.428499	-0.950062
C78	C	2.099781	0.071501	-0.450062
C79	C	1.407831	-0.480107	-0.949524
C80	C	1.907831	0.019893	-0.449524
C81	C	1.408326	-0.479487	-1.072123
C82	C	1.908326	0.020513	-0.572123
C83	C	1.546779	-0.622619	-1.072231
C84	C	2.046779	-0.122619	-0.572231
C85	C	1.549201	-0.622055	-0.949626
C86	C	2.049201	-0.122055	-0.449626
C87	C	1.518387	-0.510669	-0.235274
C88	C	2.018387	-0.010669	0.264726
C89	C	1.518557	-0.510420	-0.117444
C90	C	2.018557	-0.010420	0.382556
H91	H	0.919463	-0.387798	-0.633934
H92	H	1.419463	0.112202	-0.133934
H93	H	1.118510	-0.387766	-0.633923
H94	H	1.618510	0.112234	-0.133923
Br95	Br	1.148184	-0.670252	-0.350627
Br96	Br	1.648184	-0.170252	0.149373
H97	H	0.919354	-0.633544	-0.387512
H98	H	1.419354	-0.133544	0.112488
H99	H	1.682390	-0.447568	-1.102110
H100	H	2.182390	0.052432	-0.602110
H101	H	1.385222	-0.919629	-0.397401
H102	H	1.885222	-0.419629	0.102599
Br103	Br	1.569305	-0.291027	-1.124003
Br104	Br	2.069305	0.208973	-0.624003
H105	H	1.580933	-0.918899	-0.345969
H106	H	2.080933	-0.418899	0.154031
Br107	Br	1.568542	-1.120728	-0.290115
Br108	Br	2.068542	-0.620728	0.209885
Br109	Br	1.735986	-1.122664	-0.459830
Br110	Br	2.235986	-0.622664	0.040170
Br111	Br	1.679008	-0.668637	-1.123774
Br112	Br	2.179008	-0.168637	-0.623774
H113	H	1.682075	-0.919483	-0.447763
H114	H	2.182075	-0.419483	0.052237
Br115	Br	1.306820	-1.119554	-0.581861
Br116	Br	1.806820	-0.619554	-0.081861
Br117	Br	1.684558	-1.118385	-0.662434
Br118	Br	2.184558	-0.618385	-0.162434
Br119	Br	1.453185	-0.899689	-0.727198
Br120	Br	1.953185	-0.399689	-0.227198
H121	H	1.492731	-1.100517	-0.685326
H122	H	1.992731	-0.600517	-0.185326
Br123	Br	1.568636	-0.289968	-0.901202
Br124	Br	2.068636	0.210032	-0.401202
H125	H	1.345545	-0.536353	-1.101772
H126	H	1.845545	-0.036353	-0.601772
H127	H	1.628811	-0.917470	-0.647104
H128	H	2.128811	-0.417470	-0.147104
Br129	Br	1.361815	-1.122921	-0.348697
Br130	Br	1.861815	-0.622921	0.151303
Br131	Br	1.301925	-0.897579	-0.572047
Br132	Br	1.801925	-0.397579	-0.072047
H133	H	1.681857	-0.447512	-0.919986
H134	H	2.181857	0.052488	-0.419986
H135	H	1.487434	-0.683439	-1.101225
H136	H	1.987434	-0.183439	-0.601225
H137	H	1.494165	-0.686145	-0.918974
H138	H	1.994165	-0.186145	-0.418974
H139	H	1.384403	-0.397471	-1.100737
H140	H	1.884403	0.102529	-0.600737
H141	H	1.345464	-0.537733	-0.920359
H142	H	1.845464	-0.037733	-0.420359
H143	H	1.383470	-0.399006	-0.918833
H144	H	1.883470	0.100994	-0.418833
H145	H	1.630657	-0.644948	-0.920549
H146	H	2.130657	-0.144948	-0.420549
