data_functionalizedCrystal
_audit_creation_method	'MofGen! by Chris Wilmer'
_symmetry_space_group_name_H-M	'P1'
_symmetry_Int_Tables_number	1
_symmetry_cell_setting	triclinic
loop_
_symmetry_equiv_pos_as_xyz
  x,y,z
_cell_length_a	13.897449
_cell_length_b	13.897448
_cell_length_c	14.908308
_cell_angle_alpha	86.732812
_cell_angle_beta	86.720912
_cell_angle_gamma	90.018972
loop_
_atom_site_label
_atom_site_type_symbol
_atom_site_fract_x
_atom_site_fract_y
_atom_site_fract_z
Zn1	Zn	1.443197	-0.415437	0.510067
Zn2	Zn	1.943197	0.084563	1.010067
Zn3	Zn	1.452409	-0.567447	0.359213
Zn4	Zn	1.952409	-0.067447	0.859213
Zn5	Zn	1.291203	-0.406172	0.359229
Zn6	Zn	1.791203	0.093828	0.859229
Zn7	Zn	1.281871	-0.576693	0.510024
Zn8	Zn	1.781871	-0.076693	1.010024
O9	O	1.367170	-0.491437	0.434633
O10	O	1.867170	0.008563	0.934633
O11	O	1.579400	-0.435610	0.490067
O12	O	2.079400	0.064390	0.990067
O13	O	1.438786	-0.538306	0.232973
O14	O	1.938786	-0.038306	0.732973
O15	O	1.311416	-0.272421	0.379262
O16	O	1.811416	0.227579	0.879262
O17	O	1.586168	-0.547290	0.379235
O18	O	2.086168	-0.047290	0.879235
O19	O	1.423085	-0.279228	0.490083
O20	O	1.923085	0.220772	0.990083
O21	O	1.320348	-0.419818	0.232985
O22	O	1.820348	0.080182	0.732985
O23	O	1.154984	-0.428784	0.379221
O24	O	1.654984	0.071216	0.879221
O25	O	1.295510	-0.563049	0.636271
O26	O	1.795510	-0.063049	1.136271
O27	O	1.148128	-0.554065	0.490010
O28	O	1.648128	-0.054065	0.990010
O29	O	1.414036	-0.444575	0.636303
O30	O	1.914036	0.055425	1.136303
O31	O	1.429736	-0.703653	0.379194
O32	O	1.929736	-0.203653	0.879194
O33	O	1.304442	-0.710447	0.489994
O34	O	1.804442	-0.210447	0.989994
C35	C	1.116557	-0.491423	0.434613
C36	C	1.616557	0.008577	0.934613
C37	C	1.009342	-0.491442	0.434625
C38	C	1.509342	0.008558	0.934625
C39	C	1.367101	-0.742050	0.434607
C40	C	1.867101	-0.242050	0.934607
C41	C	1.367158	-0.849265	0.434626
C42	C	1.867158	-0.349265	0.934626
C43	C	0.813046	-0.491446	0.434649
C44	C	1.313046	0.008554	0.934649
C45	C	0.922279	-0.491441	0.434633
C46	C	1.422279	0.008559	0.934633
C47	C	1.367256	-1.045564	0.434683
C48	C	1.867256	-0.545564	0.934683
C49	C	1.367199	-0.936329	0.434654
C50	C	1.867199	-0.436329	0.934654
C51	C	1.618761	-0.491452	0.434654
C52	C	2.118761	0.008548	0.934654
C53	C	1.725975	-0.491459	0.434663
C54	C	2.225975	0.008541	0.934663
C55	C	1.352704	-0.505877	0.669936
C56	C	1.852704	-0.005877	1.169936
C57	C	1.346540	-0.512030	0.770207
C58	C	1.846540	-0.012030	1.270207
C59	C	1.367264	-0.239847	0.434679
C60	C	1.867264	0.260153	0.934679
C61	C	1.367304	-0.132634	0.434699
C62	C	1.867304	0.367366	0.934699
C63	C	1.381635	-0.476984	0.200246
C64	C	1.881635	0.023016	0.700246
C65	C	1.387986	-0.470559	0.099975
C66	C	1.887986	0.029441	0.599975
C67	C	1.458375	-0.400204	0.958663
C68	C	1.958375	0.099796	1.458663
C69	C	1.452586	-0.405982	1.052878
C70	C	1.952586	0.094018	1.552878
C71	C	1.329169	-0.529360	1.052852
C72	C	1.829169	-0.029360	1.552852
C73	C	1.334958	-0.523582	0.958638
C74	C	1.834958	-0.023582	1.458638
C75	C	1.399564	-0.459002	0.911547
C76	C	1.899564	0.040998	1.411547
C77	C	1.405357	-0.453230	0.817331
C78	C	1.905357	0.046770	1.317331
C79	C	1.281936	-0.576602	0.817307
C80	C	1.781936	-0.076602	1.317307
C81	C	1.276147	-0.582380	0.911521
C82	C	1.776147	-0.082380	1.411521
H83	H	1.457964	-0.400647	0.778990
H84	H	1.957964	0.099353	1.278990
H85	H	1.500473	-0.358100	1.091236
H86	H	2.000473	0.141900	1.591236
H87	H	1.276569	-0.581936	1.091210
H88	H	1.776569	-0.081936	1.591210
H89	H	1.234050	-0.624482	0.778934
H90	H	1.734050	-0.124482	1.278934
N91	N	1.528064	-0.330573	0.907859
N92	N	2.028064	0.169427	1.407859
H93	H	1.512114	-0.262653	0.924253
H94	H	2.012114	0.237347	1.424253
H95	H	1.522770	-0.335930	0.841044
H96	H	2.022770	0.164070	1.341044
N97	N	1.206449	-0.652010	0.962314
N98	N	1.706449	-0.152010	1.462314
H99	H	1.211697	-0.646743	1.029148
H100	H	1.711697	-0.146743	1.529148
H101	H	1.222438	-0.719895	0.945846
H102	H	1.722438	-0.219895	1.445846
