data_functionalizedCrystal
_audit_creation_method	'MofGen! by Chris Wilmer'
_symmetry_space_group_name_H-M	'P1'
_symmetry_Int_Tables_number	1
_symmetry_cell_setting	triclinic
loop_
_symmetry_equiv_pos_as_xyz
  x,y,z
_cell_length_a	21.295417
_cell_length_b	19.077300
_cell_length_c	21.295411
_cell_angle_alpha	87.718692
_cell_angle_beta	89.971282
_cell_angle_gamma	92.264088
loop_
_atom_site_label
_atom_site_type_symbol
_atom_site_fract_x
_atom_site_fract_y
_atom_site_fract_z
Zn1	Zn	-0.289245	-1.075886	-0.317250
Zn2	Zn	0.210755	-0.575886	0.182750
Zn3	Zn	-0.394507	-1.075794	-0.211979
Zn4	Zn	0.105493	-0.575794	0.288021
Zn5	Zn	-0.285035	-0.958200	-0.216224
Zn6	Zn	0.214965	-0.458200	0.283776
Zn7	Zn	-0.390255	-0.958149	-0.321438
Zn8	Zn	0.109745	-0.458149	0.178562
O9	O	-0.339761	-1.017007	-0.266723
O10	O	0.160239	-0.517007	0.233277
O11	O	-0.306749	-1.174360	-0.299756
O12	O	0.193251	-0.674360	0.200244
O13	O	-0.380002	-1.060177	-0.124453
O14	O	0.119998	-0.560177	0.375547
O15	O	-0.197507	-0.973871	-0.229649
O16	O	0.302493	-0.473871	0.270351
O17	O	-0.384084	-1.174293	-0.222414
O18	O	0.115916	-0.674293	0.277586
O19	O	-0.200599	-1.060335	-0.303873
O20	O	0.299401	-0.560335	0.196127
O21	O	-0.299574	-0.973782	-0.127572
O22	O	0.200426	-0.473782	0.372428
O23	O	-0.295452	-0.859707	-0.233710
O24	O	0.204548	-0.359707	0.266290
O25	O	-0.376839	-0.973785	-0.408971
O26	O	0.123161	-0.473785	0.091029
O27	O	-0.372757	-0.859669	-0.311010
O28	O	0.127243	-0.359669	0.188990
O29	O	-0.302627	-1.060286	-0.405894
O30	O	0.197373	-0.560286	0.094106
O31	O	-0.482030	-1.060128	-0.226475
O32	O	0.017970	-0.560128	0.273525
O33	O	-0.478907	-0.973695	-0.306894
O34	O	0.021093	-0.473695	0.193106
C35	C	-0.333187	-0.834152	-0.273276
C36	C	0.166813	-0.334152	0.226724
C37	C	-0.330390	-0.755925	-0.276094
C38	C	0.169610	-0.255925	0.223906
C39	C	-0.310279	-0.315598	-0.296318
C40	C	0.189721	0.184402	0.203682
C41	C	-0.312919	-0.389100	-0.293666
C42	C	0.187081	0.110900	0.206334
C43	C	-0.354437	-0.425806	-0.252007
C44	C	0.145563	0.074194	0.247993
C45	C	-0.393322	-0.389007	-0.213002
C46	C	0.106678	0.110993	0.286998
C47	C	-0.390685	-0.315506	-0.215657
C48	C	0.109315	0.184494	0.284343
C49	C	-0.366638	-0.645625	-0.239744
C50	C	0.133362	-0.145625	0.260256
C51	C	-0.369271	-0.719131	-0.237090
C52	C	0.130729	-0.219131	0.262910
C53	C	-0.288868	-0.719219	-0.317756
C54	C	0.211132	-0.219219	0.182244
C55	C	-0.286232	-0.645717	-0.320405
C56	C	0.213768	-0.145717	0.179595
C57	C	-0.325119	-0.608924	-0.281402
C58	C	0.174881	-0.108924	0.218598
N59	N	-0.357135	-0.500937	-0.249294
N60	N	0.142865	-0.000937	0.250706
N61	N	-0.322424	-0.533794	-0.284118
N62	N	0.177576	-0.033794	0.215882
C63	C	-0.503309	-1.016915	-0.266691
C64	C	-0.003309	-0.516915	0.233309
C65	C	-0.573278	-1.016940	-0.266696
C66	C	-0.073278	-0.516940	0.233304
C67	C	-0.607751	-1.061986	-0.224862
C68	C	-0.107751	-0.561986	0.275138
C69	C	-0.673495	-1.062019	-0.224875
C70	C	-0.173495	-0.562019	0.275125
C71	C	-0.704762	-1.016993	-0.266716
C72	C	-0.204762	-0.516993	0.233284
C73	C	-0.670281	-0.971945	-0.308559
C74	C	-0.170281	-0.471945	0.191441
C75	C	-0.604539	-0.971918	-0.308549
C76	C	-0.104539	-0.471918	0.191451
N77	N	-0.805819	-0.955426	-0.273722
N78	N	-0.305819	-0.455426	0.226278
N79	N	-0.868271	-0.955453	-0.273727
N80	N	-0.368271	-0.455453	0.226273
C81	C	-0.902840	-1.017072	-0.266749
C82	C	-0.402840	-0.517072	0.233251
N83	N	-0.872597	-1.078664	-0.259754
N84	N	-0.372597	-0.578664	0.240246
N85	N	-0.810138	-1.078636	-0.259745
N86	N	-0.310138	-0.578636	0.240255
C87	C	-0.776049	-1.017018	-0.266732
C88	C	-0.276049	-0.517018	0.233268
C89	C	-1.008600	-1.062157	-0.224927
C90	C	-0.508600	-0.562157	0.275073
C91	C	-1.074345	-1.062192	-0.224944
C92	C	-0.574345	-0.562192	0.275056
C93	C	-1.071129	-0.972111	-0.308625
C94	C	-0.571129	-0.472111	0.191375
C95	C	-1.005386	-0.972084	-0.308610
C96	C	-0.505386	-0.472084	0.191390
C97	C	-0.974125	-1.017106	-0.266758
C98	C	-0.474125	-0.517106	0.233242
C99	C	-0.175574	-1.017119	-0.266768
C100	C	0.324426	-0.517119	0.233232
C101	C	-0.105608	-1.017167	-0.266787
C102	C	0.394392	-0.517167	0.233213
C103	C	-0.339728	-1.017040	-0.430912
C104	C	0.160272	-0.517040	0.069088
C105	C	-0.339714	-1.017054	-0.500880
C106	C	0.160286	-0.517054	-0.000880
C107	C	-0.346357	-0.200577	-0.260138
C108	C	0.153643	0.299423	0.239862
C109	C	-0.349160	-0.278803	-0.257314
C110	C	0.150840	0.221197	0.242686
C111	C	-0.381466	-1.062118	-0.998711
C112	C	0.118534	-0.562118	-0.498711
C113	C	-0.381485	-1.062106	-0.932969
C114	C	0.118515	-0.562106	-0.432969
C115	C	-0.339619	-1.017120	-0.901717
C116	C	0.160381	-0.517120	-0.401717
C117	C	-0.297740	-0.972131	-0.936212
C118	C	0.202260	-0.472131	-0.436212
C119	C	-0.297726	-0.972140	-1.001953
C120	C	0.202274	-0.472140	-0.501953
N121	N	-0.284346	-1.011744	-0.798705
N122	N	0.215654	-0.511744	-0.298705
N123	N	-0.284362	-1.011740	-0.736253
N124	N	0.215638	-0.511740	-0.236253
C125	C	-0.339660	-1.017089	-0.703643
C126	C	0.160340	-0.517089	-0.203643
N127	N	-0.394944	-1.022457	-0.735843
N128	N	0.105056	-0.522457	-0.235843
N129	N	-0.394928	-1.022465	-0.798300
N130	N	0.105072	-0.522465	-0.298300
C131	C	-0.339630	-1.017105	-0.830432
C132	C	0.160370	-0.517105	-0.330432
C133	C	-0.381560	-1.062058	-0.597871
C134	C	0.118440	-0.562058	-0.097871
C135	C	-0.381581	-1.062040	-0.532127
C136	C	0.118419	-0.562040	-0.032127
C137	C	-0.297830	-0.972070	-0.535372
C138	C	0.202170	-0.472070	-0.035372
C139	C	-0.297815	-0.972084	-0.601114
C140	C	0.202185	-0.472084	-0.101114
C141	C	-0.339679	-1.017082	-0.632359
C142	C	0.160321	-0.517082	-0.132359
C143	C	-0.339749	-1.017016	-0.103171
C144	C	0.160251	-0.517016	0.396829
C145	C	-0.339590	-1.017138	-0.033199
C146	C	0.160410	-0.517138	0.466801
H147	H	-0.403082	-0.749016	-0.203165
H148	H	0.096918	-0.249016	0.296835
C149	C	-1.112266	-1.111747	-0.178920
C150	C	-0.612266	-0.611747	0.321080
N151	N	-1.140829	-1.149072	-0.144252
N152	N	-0.640829	-0.649072	0.355748
H153	H	-0.427129	-0.418899	-0.179085
H154	H	0.072871	0.081101	0.320915
H155	H	-0.252426	-0.615835	-0.354331
H156	H	0.247574	-0.115835	0.145669
C157	C	-0.974212	-1.111692	-0.178898
C158	C	-0.474212	-0.611692	0.321102
N159	N	-0.948312	-1.149005	-0.144231
N160	N	-0.448312	-0.649005	0.355769
H161	H	-0.422347	-0.285550	-0.183897
H162	H	0.077653	0.214450	0.316103
H163	H	-0.398301	-0.615677	-0.207983
H164	H	0.101699	-0.115677	0.292017
C165	C	-0.573368	-1.111504	-0.178817
C166	C	-0.073368	-0.611504	0.321183
N167	N	-0.547470	-1.148798	-0.144132
N168	N	-0.047470	-0.648798	0.355868
C169	C	-0.967464	-0.922543	-0.354645
C170	C	-0.467464	-0.422543	0.145355
N171	N	-0.938902	-0.885236	-0.389327
N172	N	-0.438902	-0.385236	0.110673
H173	H	-0.701569	-1.098703	-0.190808
H174	H	-0.201569	-0.598703	0.309192
C175	C	-0.566617	-0.922371	-0.354580
C176	C	-0.066617	-0.422371	0.145420
N177	N	-0.538053	-0.885054	-0.389253
N178	N	-0.038053	-0.385054	0.110747
C179	C	-0.251653	-0.922662	-1.039891
C180	C	0.248347	-0.422662	-0.539891
N181	N	-0.216948	-0.885397	-1.068466
N182	N	0.283052	-0.385397	-0.568466
C183	C	-0.427617	-1.111549	-0.632243
C184	C	0.072383	-0.611549	-0.132243
N185	N	-0.462309	-1.148825	-0.658130
N186	N	0.037691	-0.648825	-0.158130
C187	C	-0.427554	-1.111588	-0.895026
C188	C	0.072446	-0.611588	-0.395026
N189	N	-0.462253	-1.148858	-0.866449
N190	N	0.037747	-0.648858	-0.366449
H191	H	-0.695743	-0.935286	-0.342627
H192	H	-0.195743	-0.435286	0.157373
H193	H	-0.415686	-1.098665	-0.504049
H194	H	0.084314	-0.598665	-0.004049
H195	H	-0.281260	-0.419054	-0.325430
H196	H	0.218740	0.080946	0.174570
H197	H	-0.263653	-0.935503	-0.910762
H198	H	0.236347	-0.435503	-0.410762
C199	C	-0.427523	-1.111611	-1.033078
C200	C	0.072477	-0.611611	-0.533078
N201	N	-0.462216	-1.148887	-1.058963
N202	N	0.037784	-0.648887	-0.558963
H203	H	-0.257209	-0.749183	-0.349511
H204	H	0.242791	-0.249183	0.150489
C205	C	-1.105520	-0.922584	-0.354652
C206	C	-0.605520	-0.422584	0.145348
N207	N	-1.131425	-0.885280	-0.389322
N208	N	-0.631425	-0.385280	0.110678
H209	H	-0.263743	-0.935440	-0.509927
H210	H	0.236257	-0.435440	-0.009927
H211	H	-0.276467	-0.285716	-0.330238
H212	H	0.223533	0.214284	0.169762
C213	C	-0.251740	-0.922611	-0.639051
C214	C	0.248260	-0.422611	-0.139051
N215	N	-0.217034	-0.885346	-0.667625
N216	N	0.282966	-0.385346	-0.167625
