data_functionalizedCrystal
_audit_creation_method	'MofGen! by Chris Wilmer'
_symmetry_space_group_name_H-M	'P1'
_symmetry_Int_Tables_number	1
_symmetry_cell_setting	triclinic
loop_
_symmetry_equiv_pos_as_xyz
  x,y,z
_cell_length_a	15.944545
_cell_length_b	15.944551
_cell_length_c	9.198806
_cell_angle_alpha	89.995864
_cell_angle_beta	89.998841
_cell_angle_gamma	83.497455
loop_
_atom_site_label
_atom_site_type_symbol
_atom_site_fract_x
_atom_site_fract_y
_atom_site_fract_z
O1	O	1.114527	0.108305	-0.120801
O2	O	0.869977	0.121667	-0.120825
O3	O	0.998930	-0.007289	-0.120800
O4	O	0.985574	0.237261	-0.120827
O5	O	0.998920	-0.007289	0.120985
O6	O	0.869966	0.121667	0.120960
O7	O	1.114517	0.108305	0.120984
Cu8	Cu	0.992241	0.114986	0.143048
Cu9	Cu	0.992253	0.114986	-0.142890
O10	O	0.985563	0.237261	0.120958
C11	C	0.838677	0.121113	0.000064
C12	C	0.745431	0.119453	0.000055
C13	C	0.474798	0.034559	0.000080
C14	C	0.525375	0.075488	0.119292
C15	C	0.409787	0.113532	0.000081
C16	C	0.525366	0.075509	-0.119089
C17	C	0.574701	0.116437	0.000066
C18	C	0.459136	0.154440	0.119391
C19	C	0.459123	0.154450	-0.119097
C20	C	0.509667	0.195436	0.000144
C21	C	0.314785	0.111856	0.000091
C22	C	0.669700	0.118119	0.000067
C23	C	0.998370	-0.038583	0.000093
C24	C	0.996708	-0.131829	0.000094
C25	C	0.912803	-0.346684	0.000065
C26	C	0.951761	-0.407702	0.119284
C27	C	0.993701	-0.302555	0.000082
C28	C	0.951790	-0.407685	-0.119097
C29	C	0.990790	-0.467468	0.000065
C30	C	1.032680	-0.362345	0.119399
C31	C	1.032698	-0.362322	-0.119089
C32	C	1.071715	-0.423322	0.000158
C33	C	0.995375	-0.207553	0.000093
C34	C	0.989122	-0.562469	0.000064
C35	C	1.145816	0.108859	0.000091
C36	C	1.239062	0.110519	0.000090
C37	C	0.986123	0.268555	0.000062
C38	C	0.987785	0.361801	0.000052
N39	N	0.992238	0.114985	0.344162
N40	N	0.992262	0.114980	-0.344004
C41	C	1.046384	0.060603	0.416370
C42	C	1.046397	0.060600	0.583783
H43	H	0.459145	-0.033453	0.000204
C44	C	0.453638	0.157941	-0.379881
C45	C	0.420041	0.199433	-0.255163
H46	H	0.429505	0.185705	-0.463888
H47	H	0.513089	0.158875	-0.381341
H48	H	0.441091	0.101105	-0.379005
H49	H	0.432593	0.256268	-0.256033
H50	H	0.360576	0.198508	-0.253703
H51	H	0.945888	0.161538	0.406281
H52	H	1.066889	-0.342192	-0.219877
H53	H	0.554302	0.042135	0.220083
C54	C	1.148891	-0.295565	0.213608
C55	C	1.078824	-0.335366	0.255617
H56	H	1.177371	-0.278904	0.297705
H57	H	1.186173	-0.333603	0.157903
H58	H	1.130643	-0.247187	0.156744
H59	H	1.097073	-0.383748	0.312472
H60	H	1.041535	-0.297325	0.311346
H61	H	0.554287	0.042144	-0.219867
C62	C	0.779993	-0.324449	0.125206
C63	C	0.822160	-0.301709	0.000211
H64	H	0.724037	-0.296677	0.125302
H65	H	0.778317	-0.383804	0.126060
H66	H	0.809023	-0.308272	0.209029
H67	H	0.793133	-0.317891	-0.083612
H68	H	0.823832	-0.242341	-0.000656
C69	C	0.905181	-0.522630	0.254529
C70	C	0.905569	-0.434856	0.255334
H71	H	0.876664	-0.539389	0.338522
H72	H	0.876989	-0.538904	0.169881
H73	H	0.961629	-0.549121	0.254662
H74	H	0.849120	-0.408364	0.255190
H75	H	0.933759	-0.418574	0.340005
H76	H	1.138922	-0.456483	0.000232
H77	H	0.430322	0.187767	0.220283
H78	H	0.945906	0.161544	0.593909
C79	C	0.822399	-0.395716	-0.254925
C80	C	0.905593	-0.434798	-0.255163
H81	H	0.793879	-0.412448	-0.338927
H82	H	0.794213	-0.412021	-0.170286
H83	H	0.822687	-0.336172	-0.255424
H84	H	0.905305	-0.494343	-0.254653
H85	H	0.933787	-0.418499	-0.339824
C86	C	1.159020	-0.052537	0.431303
C87	C	1.108953	-0.002252	0.332527
H88	H	1.197645	-0.091345	0.379541
H89	H	1.189378	-0.017683	0.490653
H90	H	1.123991	-0.082696	0.490689
H91	H	1.143982	0.027913	0.273149
H92	H	1.078594	-0.037110	0.273153
C93	C	0.496833	0.328464	0.125141
C94	C	0.530591	0.287317	0.000222
H95	H	0.509758	0.385184	0.125195
H96	H	0.437331	0.327906	0.125930
H97	H	0.520530	0.300211	0.209017
H98	H	0.506890	0.315567	-0.083654
H99	H	0.590106	0.287880	-0.000580
H100	H	1.092757	0.014045	0.645878
