data_functionalizedCrystal
_audit_creation_method	'MofGen! by Chris Wilmer'
_symmetry_space_group_name_H-M	'P1'
_symmetry_Int_Tables_number	1
_symmetry_cell_setting	triclinic
loop_
_symmetry_equiv_pos_as_xyz
  x,y,z
_cell_length_a	17.077404
_cell_length_b	21.395361
_cell_length_c	17.077396
_cell_angle_alpha	89.965914
_cell_angle_beta	89.982756
_cell_angle_gamma	90.030933
loop_
_atom_site_label
_atom_site_type_symbol
_atom_site_fract_x
_atom_site_fract_y
_atom_site_fract_z
Zn1	Zn	1.199994	-0.249430	-0.443817
Zn2	Zn	1.199889	-0.354212	-0.312540
Zn3	Zn	1.068731	-0.249453	-0.312565
Zn4	Zn	1.068676	-0.354174	-0.443763
O5	O	1.134323	-0.301817	-0.378171
O6	O	1.309827	-0.263336	-0.426414
O7	O	1.182469	-0.340342	-0.202696
O8	O	1.086211	-0.161772	-0.330008
O9	O	1.309750	-0.340319	-0.329966
O10	O	1.182649	-0.161755	-0.426439
O11	O	1.086109	-0.263376	-0.202714
O12	O	0.958877	-0.263338	-0.329957
O13	O	1.086117	-0.340253	-0.553617
O14	O	0.958837	-0.340276	-0.426348
O15	O	1.182596	-0.263298	-0.553657
O16	O	1.182416	-0.441885	-0.329914
O17	O	1.086015	-0.441857	-0.426324
C18	C	0.930375	-0.301806	-0.378149
C19	C	0.843125	-0.301816	-0.378159
C20	C	0.802134	-0.341938	-0.428269
C21	C	0.720154	-0.341939	-0.428282
C22	C	0.679166	-0.301822	-0.378179
C23	C	0.720162	-0.261695	-0.328067
C24	C	0.802141	-0.261691	-0.328059
C25	C	0.549292	-0.261707	-0.328086
C26	C	0.467307	-0.261712	-0.328092
C27	C	0.467305	-0.341956	-0.428309
C28	C	0.549284	-0.341952	-0.428301
C29	C	0.590275	-0.301826	-0.378187
C30	C	1.134219	-0.464605	-0.378127
C31	C	1.134247	-0.534246	-0.378135
C32	C	1.184487	-0.566953	-0.327986
C33	C	1.184524	-0.632389	-0.328004
C34	C	1.134306	-0.665114	-0.378162
C35	C	1.084062	-0.632399	-0.428321
C36	C	1.084032	-0.566965	-0.428307
C37	C	1.063626	-0.768829	-0.384313
C38	C	1.063654	-0.834262	-0.384321
C39	C	1.134397	-0.866935	-0.378208
C40	C	1.205114	-0.834168	-0.372070
C41	C	1.205084	-0.768733	-0.372057
C42	C	1.134332	-0.736067	-0.378182
C43	C	1.184681	-0.970595	-0.328075
C44	C	1.184719	-1.036031	-0.328098
C45	C	1.084250	-1.036041	-0.428411
C46	C	1.084219	-0.970606	-0.428392
C47	C	1.134434	-0.937886	-0.378220
C48	C	1.339067	-0.301829	-0.378193
C49	C	1.426317	-0.301834	-0.378203
C50	C	1.134362	-0.301769	-0.582915
C51	C	1.134379	-0.301748	-0.670165
C52	C	1.134448	-0.138394	-0.378232
C53	C	1.134502	-0.068753	-0.378258
C54	C	1.084219	-0.261667	-0.711164
C55	C	1.084232	-0.261653	-0.793145
C56	C	1.134409	-0.301717	-0.834125
C57	C	1.184571	-0.341802	-0.793120
C58	C	1.184554	-0.341819	-0.711141
C59	C	1.184605	-0.341763	-0.963990
C60	C	1.184624	-0.341746	-1.045975
C61	C	1.084283	-0.261597	-1.045994
C62	C	1.084266	-0.261614	-0.964015
C63	C	1.134429	-0.301698	-0.923016
C64	C	1.134329	-0.301820	-0.174223
C65	C	1.134464	-0.301665	-0.086974
H66	H	0.582664	-0.229027	-0.287285
C67	C	1.239729	-0.385909	-0.666042
H68	H	1.269620	-0.409764	-0.702188
H69	H	1.209671	-0.413212	-0.634049
H70	H	1.273947	-0.361948	-0.634075
C71	C	1.029074	-0.217543	-0.918938
H72	H	0.999197	-0.193671	-0.955096
H73	H	1.059118	-0.190254	-0.886971
H74	H	0.994845	-0.241520	-0.886946
C75	C	0.847235	-0.217558	-0.272939
H76	H	0.901928	-0.223297	-0.280115
H77	H	0.833775	-0.226672	-0.220176
H78	H	0.833827	-0.175472	-0.284534
H79	H	1.262720	-0.860769	-0.367092
C80	C	1.239730	-0.530966	-0.272808
H81	H	1.269662	-0.559820	-0.242948
H82	H	1.209716	-0.505479	-0.238573
H83	H	1.273906	-0.505401	-0.302869
H84	H	1.043175	-0.659049	-0.469161
H85	H	1.225422	-0.374427	-0.826492
H86	H	1.043365	-1.062686	-0.469255
H87	H	1.225438	-0.659024	-0.287166
C88	C	0.422219	-0.386090	-0.483437
H89	H	0.367525	-0.380342	-0.476275
H90	H	0.435622	-0.428175	-0.471849
H91	H	0.435684	-0.376969	-0.536201
C92	C	1.028764	-0.530983	-0.483469
H93	H	1.035941	-0.487327	-0.476279
H94	H	0.976034	-0.541752	-0.471939
H95	H	1.040232	-0.541664	-0.536227
C96	C	0.675081	-0.217564	-0.272956
H97	H	0.711237	-0.193664	-0.243116
H98	H	0.643073	-0.241497	-0.238700
H99	H	0.643130	-0.190294	-0.303056
C100	C	0.594370	-0.386080	-0.483412
H101	H	0.558218	-0.409973	-0.513265
H102	H	0.626324	-0.413346	-0.453319
H103	H	0.626376	-0.362138	-0.517668
C104	C	1.028944	-0.934626	-0.483547
H105	H	0.999035	-0.963486	-0.513418
H106	H	1.058935	-0.909055	-0.517772
H107	H	0.994747	-0.909146	-0.453474
C108	C	1.282867	-0.732691	-0.365318
H109	H	1.325006	-0.761517	-0.361684
H110	H	1.281867	-0.707191	-0.319813
H111	H	1.289719	-0.707136	-0.410315
C112	C	1.029081	-0.217523	-1.091089
H113	H	1.036263	-0.223260	-1.145782
H114	H	1.040581	-0.175424	-1.077686
H115	H	0.976333	-0.226711	-1.077631
H116	H	1.225572	-0.943954	-0.287224
H117	H	0.835501	-0.374609	-0.469066
H118	H	0.433937	-0.229037	-0.287304
H119	H	0.686783	-0.374611	-0.469086
H120	H	1.006072	-0.860936	-0.389311
H121	H	1.225636	-1.062660	-0.287263
C122	C	1.239822	-0.385811	-1.091052
H123	H	1.269690	-0.409691	-1.054894
H124	H	1.274048	-0.361834	-1.123040
H125	H	1.209778	-0.413102	-1.123023
H126	H	1.006014	-0.742232	-0.389295
C127	C	1.029017	-0.217601	-0.666094
H128	H	0.999139	-0.193734	-0.702256
H129	H	1.059051	-0.190307	-0.634124
H130	H	0.994789	-0.241582	-0.634105
C131	C	1.239782	-0.385857	-0.918893
H132	H	1.269674	-0.409711	-0.955038
H133	H	1.209727	-0.413161	-0.886898
H134	H	1.273999	-0.361894	-0.886927
H135	H	1.043384	-0.229017	-0.826523
