data_functionalizedCrystal
_audit_creation_method	'MofGen! by Chris Wilmer'
_symmetry_space_group_name_H-M	'P1'
_symmetry_Int_Tables_number	1
_symmetry_cell_setting	triclinic
loop_
_symmetry_equiv_pos_as_xyz
  x,y,z
_cell_length_a	12.594517
_cell_length_b	12.594516
_cell_length_c	12.759393
_cell_angle_alpha	90.029090
_cell_angle_beta	90.012728
_cell_angle_gamma	90.007702
loop_
_atom_site_label
_atom_site_type_symbol
_atom_site_fract_x
_atom_site_fract_y
_atom_site_fract_z
Zn1	Zn	1.627311	-0.423814	0.593809
Zn2	Zn	1.627211	-0.601828	0.418131
Zn3	Zn	1.449311	-0.423851	0.418168
Zn4	Zn	1.449311	-0.601738	0.593792
O5	O	1.538286	-0.512808	0.505975
O6	O	1.776244	-0.447450	0.570497
O7	O	1.603571	-0.578272	0.271115
O8	O	1.472966	-0.274901	0.441489
O9	O	1.776170	-0.578236	0.441427
O10	O	1.603741	-0.274873	0.570532
O11	O	1.472869	-0.447514	0.271142
O12	O	1.300365	-0.447426	0.441473
O13	O	1.472964	-0.578083	0.740816
O14	O	1.300365	-0.578119	0.570504
O15	O	1.603741	-0.447363	0.740828
O16	O	1.603570	-0.750762	0.441411
O17	O	1.472867	-0.750696	0.570468
C18	C	1.261745	-0.512768	0.505991
C19	C	1.143440	-0.512776	0.506023
C20	C	1.074217	-0.583999	0.576067
C21	C	1.003402	-0.486953	0.601906
C22	C	1.003456	-0.609903	0.480160
C23	C	1.074183	-0.415678	0.531912
C24	C	1.074243	-0.538694	0.410122
C25	C	1.003460	-0.441580	0.435925
C26	C	1.538237	-0.789349	0.505957
C27	C	1.538313	-0.907654	0.505984
C28	C	1.609485	-0.976905	0.435865
C29	C	1.635498	-1.047601	0.531754
C30	C	1.512434	-1.047757	0.410156
C31	C	1.564376	-0.976792	0.601924
C32	C	1.441266	-0.976942	0.480261
C33	C	1.467242	-1.047606	0.576216
C34	C	1.815907	-0.512849	0.505960
C35	C	1.934212	-0.512867	0.505953
C36	C	1.538364	-0.512709	0.780009
C37	C	1.538396	-0.512667	0.896785
C38	C	1.538365	-0.235187	0.506016
C39	C	1.538398	-0.116882	0.506034
C40	C	1.538270	-0.512830	0.233008
C41	C	1.538444	-0.512572	0.116232
C42	C	1.606481	-0.580674	1.061369
C43	C	1.606455	-0.580724	0.951645
C44	C	1.470351	-0.444562	0.951656
C45	C	1.470373	-0.444518	1.061378
H46	H	0.972285	-0.465063	0.682978
H47	H	1.586218	-0.945754	0.683056
H48	H	1.661859	-0.636179	0.906980
H49	H	0.972588	-0.381318	0.376661
H50	H	1.669683	-0.945859	0.376621
H51	H	1.407091	-1.078455	0.635604
C52	C	1.290125	-0.392710	0.917862
C53	C	1.395535	-0.369758	0.891353
H54	H	1.243939	-0.346531	0.880628
H55	H	1.280405	-0.382932	0.991051
H56	H	1.274541	-0.464233	0.899868
H57	H	1.411122	-0.298237	0.909355
H58	H	1.405260	-0.379527	0.818148
H59	H	0.972382	-0.692003	0.458318
H60	H	1.414963	-0.389060	1.106048
H61	H	1.359183	-0.945879	0.458447
H62	H	1.717605	-1.078641	0.553540
C63	C	1.565834	-1.152545	0.262022
C64	C	1.482829	-1.089832	0.300727
H65	H	1.547564	-1.178512	0.194462
H66	H	1.577612	-1.210639	0.308016
H67	H	1.628614	-1.111009	0.257323
H68	H	1.420050	-1.131371	0.305433
H69	H	1.471038	-1.031730	0.254721
C70	C	1.080412	-0.637791	0.756469
C71	C	1.116175	-0.665151	0.656127
H72	H	1.106324	-0.687883	0.805895
H73	H	1.005003	-0.637941	0.757435
H74	H	1.105672	-0.568998	0.774136
H75	H	1.090908	-0.733941	0.638457
H76	H	1.191599	-0.665012	0.655159
C77	C	1.227112	-0.305783	0.561355
C78	C	1.115938	-0.304813	0.561541
H79	H	1.252889	-0.237343	0.579655
H80	H	1.251949	-0.324268	0.493474
H81	H	1.251893	-0.356387	0.610825
H82	H	1.091157	-0.254215	0.512065
H83	H	1.091090	-0.286316	0.629432
H84	H	1.105383	-0.560612	0.329073
C85	C	1.741002	-0.715277	1.050333
C86	C	1.681293	-0.655488	1.121665
H87	H	1.787181	-0.761471	1.087558
H88	H	1.781721	-0.668928	1.007547
H89	H	1.694593	-0.755994	1.007529
H90	H	1.727702	-0.614764	1.164464
H91	H	1.640571	-0.701843	1.164469
