data_functionalizedCrystal
_audit_creation_method	'MofGen! by Chris Wilmer'
_symmetry_space_group_name_H-M	'P1'
_symmetry_Int_Tables_number	1
_symmetry_cell_setting	triclinic
loop_
_symmetry_equiv_pos_as_xyz
  x,y,z
_cell_length_a	13.033293
_cell_length_b	25.639240
_cell_length_c	13.032268
_cell_angle_alpha	82.852470
_cell_angle_beta	90.920818
_cell_angle_gamma	97.201789
loop_
_atom_site_label
_atom_site_type_symbol
_atom_site_fract_x
_atom_site_fract_y
_atom_site_fract_z
Zn1	Zn	1.498381	-0.162669	0.781477
Zn2	Zn	1.998381	0.337331	1.281477
Zn3	Zn	1.520086	-0.237807	0.609502
Zn4	Zn	2.020086	0.262193	1.109502
Zn5	Zn	1.348243	-0.159908	0.587653
Zn6	Zn	1.848243	0.340092	1.087653
Zn7	Zn	1.326326	-0.259604	0.759541
Zn8	Zn	1.826326	0.240396	1.259541
O9	O	1.423259	-0.204997	0.684543
O10	O	1.923259	0.295003	1.184543
O11	O	1.645183	-0.164670	0.776989
O12	O	2.145183	0.335330	1.276989
O13	O	1.515547	-0.217197	0.462696
O14	O	2.015547	0.282803	0.962696
O15	O	1.368247	-0.087106	0.613401
O16	O	1.868247	0.412894	1.113401
O17	O	1.661130	-0.219874	0.650639
O18	O	2.161130	0.280126	1.150639
O19	O	1.478553	-0.089135	0.755803
O20	O	1.978553	0.410865	1.255803
O21	O	1.389294	-0.159964	0.446643
O22	O	1.889294	0.340036	0.946643
O23	O	1.201413	-0.181099	0.592130
O24	O	1.701413	0.318901	1.092130
O25	O	1.330894	-0.257023	0.906359
O26	O	1.830894	0.242977	1.406359
O27	O	1.185311	-0.254345	0.718416
O28	O	1.685311	0.245655	1.218416
O29	O	1.457302	-0.185805	0.922476
O30	O	1.957302	0.314195	1.422476
O31	O	1.494295	-0.313867	0.629369
O32	O	1.994295	0.186133	1.129369
O33	O	1.351940	-0.329881	0.739602
O34	O	1.851940	0.170119	1.239602
C35	C	1.156044	-0.219788	0.650522
C36	C	1.656044	0.280212	1.150522
C37	C	1.041725	-0.226130	0.635992
C38	C	1.541725	0.273870	1.135992
C39	C	0.982856	-0.201700	0.692127
C40	C	1.482856	0.298300	1.192127
C41	C	0.864701	-0.208255	0.677111
C42	C	1.364701	0.291745	1.177111
C43	C	1.423120	-0.340846	0.684502
C44	C	1.923120	0.159154	1.184502
C45	C	1.423150	-0.398960	0.684530
C46	C	1.923150	0.101040	1.184530
C47	C	1.480681	-0.651157	0.758759
C48	C	1.980681	-0.151157	1.258759
C49	C	1.480651	-0.596554	0.758747
C50	C	1.980651	-0.096554	1.258747
O51	O	1.529452	-0.569175	0.821809
O52	O	2.029452	-0.069175	1.321809
N53	N	1.423261	-0.568228	0.684557
N54	N	1.923261	-0.068228	1.184557
C55	C	1.365906	-0.594508	0.610368
C56	C	1.865906	-0.094508	1.110368
O57	O	1.317089	-0.565400	0.547263
O58	O	1.817089	-0.065400	1.047263
C59	C	1.365942	-0.649109	0.610376
C60	C	1.865942	-0.149109	1.110376
C61	C	1.423327	-0.677433	0.684577
C62	C	1.923327	-0.177433	1.184577
C63	C	1.538062	-0.679481	0.832953
C64	C	2.038062	-0.179481	1.332953
C65	C	1.538091	-0.734081	0.832965
C66	C	2.038091	-0.234081	1.332965
C67	C	1.480737	-0.760356	0.758784
C68	C	1.980737	-0.260356	1.258784
C69	C	1.423356	-0.732033	0.684590
C70	C	1.923356	-0.232033	1.184590
C71	C	1.308593	-0.675387	0.536184
C72	C	1.808593	-0.175387	1.036184
C73	C	1.308635	-0.729992	0.536198
C74	C	1.808635	-0.229992	1.036198
C75	C	1.366020	-0.758316	0.610398
C76	C	1.866020	-0.258316	1.110398
C77	C	1.366030	-0.812908	0.610421
C78	C	1.866030	-0.312908	1.110421
N79	N	1.423420	-0.841234	0.684610
N80	N	1.923420	-0.341234	1.184610
C81	C	1.480774	-0.814958	0.758792
C82	C	1.980774	-0.314958	1.258792
C83	C	1.365835	-0.479841	0.610356
C84	C	1.865835	0.020159	1.110356
C85	C	1.365792	-0.425241	0.610352
C86	C	1.865792	0.074759	1.110352
C87	C	1.480539	-0.427291	0.758729
C88	C	1.980539	0.072709	1.258729
C89	C	1.480575	-0.481893	0.758737
C90	C	1.980575	0.018107	1.258737
C91	C	1.423225	-0.508166	0.684545
C92	C	1.923225	-0.008166	1.184545
C93	C	1.480828	-0.929621	0.758813
C94	C	1.980828	-0.429621	1.258813
C95	C	1.480847	-0.984226	0.758822
C96	C	1.980847	-0.484226	1.258822
C97	C	1.366105	-0.982170	0.610441
C98	C	1.866105	-0.482170	1.110441
C99	C	1.366081	-0.927571	0.610435
C100	C	1.866081	-0.427571	1.110435
C101	C	1.423450	-0.901297	0.684626
C102	C	1.923450	-0.401297	1.184626
O103	O	1.317258	-0.840321	0.547388
O104	O	1.817258	-0.340321	1.047388
O105	O	1.529593	-0.844070	0.821878
O106	O	2.029593	-0.344070	1.321878
C107	C	1.691517	-0.190149	0.718698
C108	C	2.191517	0.309851	1.218698
C109	C	1.805833	-0.183821	0.733252
C110	C	2.305833	0.316179	1.233252
C111	C	1.389232	-0.224153	0.952775
C112	C	1.889232	0.275847	1.452775
C113	C	1.374731	-0.232316	1.067079
C114	C	1.874731	0.267684	1.567079
C115	C	1.423424	-0.068618	0.684611
C116	C	1.923424	0.431382	1.184611
C117	C	1.423494	-0.010501	0.684640
C118	C	1.923494	0.489499	1.184640
C119	C	1.457213	-0.185875	0.417363
C120	C	1.957213	0.314125	0.917363
C121	C	1.471913	-0.177553	0.303085
C122	C	1.971913	0.322447	0.803085
C123	C	1.430811	-0.200719	1.126013
C124	C	1.930811	0.299281	1.626013
C125	C	1.415825	-0.209155	1.244152
C126	C	1.915825	0.290845	1.744152
H127	H	0.842901	-0.158049	0.792427
H128	H	1.342901	0.341951	1.292427
H129	H	1.319051	-0.402184	0.549940
H130	H	1.819051	0.097816	1.049940
H131	H	1.531017	-0.144251	1.266084
H132	H	2.031017	0.355749	1.766084
H133	H	1.527241	-0.405887	0.819131
H134	H	2.027241	0.094113	1.319131
H135	H	0.827633	-0.234023	0.617929
H136	H	1.327633	0.265977	1.117929
H137	H	1.004652	-0.251897	0.576815
H138	H	1.504652	0.248103	1.076815
H139	H	1.527575	-1.007285	0.819251
H140	H	2.027575	-0.507285	1.319251
H141	H	1.315619	-0.265611	1.104084
H142	H	1.815619	0.234389	1.604084
H143	H	1.356709	-0.242452	1.281153
H144	H	1.856709	0.257548	1.781153
H145	H	1.019929	-0.175931	0.751298
H146	H	1.519929	0.324069	1.251298
H147	H	1.527299	-0.504951	0.819162
H148	H	2.027299	-0.004951	1.319162
H149	H	1.527544	-0.908235	0.819225
H150	H	2.027544	-0.408235	1.319225
H151	H	1.584828	-0.757136	0.893380
H152	H	2.084828	-0.257136	1.393380
H153	H	1.584771	-0.658092	0.893360
H154	H	2.084771	-0.158092	1.393360
H155	H	1.319340	-0.904510	0.550024
H156	H	1.819340	-0.404510	1.050024
H157	H	1.319123	-0.501230	0.549942
H158	H	1.819123	-0.001230	1.049942
H159	H	1.261866	-0.652333	0.475762
H160	H	1.761866	-0.152333	0.975762
H161	H	1.261933	-0.751381	0.475779
H162	H	1.761933	-0.251381	0.975779
H163	H	1.319406	-1.003574	0.550047
H164	H	1.819406	-0.503574	1.050047
H165	H	1.489913	-0.167420	1.089006
H166	H	1.989913	0.332580	1.589006
