data_functionalizedCrystal
_audit_creation_method	'MofGen! by Chris Wilmer'
_symmetry_space_group_name_H-M	'P1'
_symmetry_Int_Tables_number	1
_symmetry_cell_setting	triclinic
loop_
_symmetry_equiv_pos_as_xyz
  x,y,z
_cell_length_a	6.394989
_cell_length_b	16.956993
_cell_length_c	16.053789
_cell_angle_alpha	86.946176
_cell_angle_beta	87.183414
_cell_angle_gamma	81.276206
loop_
_atom_site_label
_atom_site_type_symbol
_atom_site_fract_x
_atom_site_fract_y
_atom_site_fract_z
O1	O	-0.093757	-1.061981	0.069512
O2	O	-0.166955	-0.830559	0.069494
O3	O	0.174275	-0.949555	0.069504
O4	O	-0.434987	-0.942985	0.069502
O5	O	0.188930	-0.943399	-0.069356
O6	O	-0.152300	-0.824403	-0.069366
O7	O	-0.079102	-1.055826	-0.069348
Zn8	Zn	-0.113374	-0.939137	-0.091404
Zn9	Zn	-0.132683	-0.947248	0.091550
O10	O	-0.420332	-0.936830	-0.069357
C11	C	-0.163375	-0.797811	0.000062
C12	C	-0.174517	-0.709402	0.000055
N13	N	-0.100194	-0.933608	-0.216265
C14	C	-0.257877	-0.210940	0.000074
C15	C	-0.247392	-0.294010	0.000075
C16	C	-0.050559	-0.343120	0.000070
C17	C	0.135800	-0.309157	0.000073
C18	C	0.125311	-0.226089	0.000077
C19	C	0.001353	-0.592371	0.000062
C20	C	0.011828	-0.675444	0.000055
C21	C	-0.371365	-0.660291	0.000059
C22	C	-0.381836	-0.577222	0.000058
C23	C	-0.195478	-0.543266	0.000065
N24	N	-0.039836	-0.428031	0.000069
N25	N	-0.206204	-0.458357	0.000072
C26	C	0.259200	-0.945179	0.000077
C27	C	0.494749	-0.941209	0.000078
C28	C	-0.082680	-0.088574	0.000080
C29	C	-0.071533	-0.176982	0.000073
C30	C	-0.213793	-0.981221	-0.259952
C31	C	-0.204557	-0.977364	-0.347359
C32	C	-0.081734	-0.925889	-0.391078
C33	C	0.031879	-0.878274	-0.347385
C34	C	0.022654	-0.882136	-0.259979
C35	C	-0.041458	-0.909030	-0.652490
C36	C	-0.032247	-0.905170	-0.739902
C37	C	-0.268681	-1.004261	-0.739870
C38	C	-0.277905	-1.008115	-0.652463
C39	C	-0.164284	-0.960503	-0.608777
N40	N	-0.072296	-0.921943	-0.480422
N41	N	-0.173711	-0.964454	-0.519434
N42	N	-0.145846	-0.952783	0.216411
H43	H	-0.418160	-0.170960	0.000071
Cl44	Cl	-0.432413	-1.072796	-0.597508
Cl45	Cl	-0.411504	-1.064114	-0.794794
Cl46	Cl	0.122175	-0.840454	-0.794862
Cl47	Cl	0.359583	-0.183399	0.000077
Cl48	Cl	-0.481666	-0.336697	0.000080
Cl49	Cl	-0.368211	-1.045935	-0.205000
H50	H	0.172121	-0.715428	0.000055
Cl51	Cl	0.165494	-0.822284	-0.205058
H52	H	0.153099	-0.564734	0.000065
H53	H	-0.542118	-0.537242	0.000065
H54	H	-0.523087	-0.687948	0.000055
Cl55	Cl	0.383248	-0.370896	0.000069
H56	H	-0.297058	-1.016137	-0.382925
H57	H	0.051062	-0.870261	-0.616932
H58	H	0.131896	-0.836365	-0.382987
