data_functionalizedCrystal
_audit_creation_method	'MofGen! by Chris Wilmer'
_symmetry_space_group_name_H-M	'P1'
_symmetry_Int_Tables_number	1
_symmetry_cell_setting	triclinic
loop_
_symmetry_equiv_pos_as_xyz
  x,y,z
_cell_length_a	12.759395
_cell_length_b	16.625545
_cell_length_c	12.759387
_cell_angle_alpha	90.033270
_cell_angle_beta	90.019431
_cell_angle_gamma	90.025403
loop_
_atom_site_label
_atom_site_type_symbol
_atom_site_fract_x
_atom_site_fract_y
_atom_site_fract_z
Zn1	Zn	1.606189	-0.320962	0.593957
Zn2	Zn	2.106189	0.179038	1.093957
Zn3	Zn	1.606047	-0.455818	0.418270
Zn4	Zn	2.106047	0.044182	0.918270
Zn5	Zn	1.430488	-0.321002	0.418297
Zn6	Zn	1.930488	0.178998	0.918297
Zn7	Zn	1.430447	-0.455756	0.593912
Zn8	Zn	1.930447	0.044244	1.093912
O9	O	1.518293	-0.388385	0.506109
O10	O	2.018293	0.111615	1.006109
O11	O	1.753192	-0.338860	0.570659
O12	O	2.253192	0.161140	1.070659
O13	O	1.582716	-0.437977	0.271252
O14	O	2.082716	0.062023	0.771252
O15	O	1.453872	-0.208165	0.441629
O16	O	1.953872	0.291835	0.941629
O17	O	1.753087	-0.437938	0.441582
O18	O	2.253087	0.062062	0.941582
O19	O	1.582959	-0.208135	0.570685
O20	O	2.082959	0.291865	1.070685
O21	O	1.453733	-0.338928	0.271272
O22	O	1.953733	0.161072	0.771272
O23	O	1.283461	-0.338869	0.441585
O24	O	1.783461	0.161131	0.941585
O25	O	1.453802	-0.437833	0.740939
O26	O	1.953802	0.062167	1.240939
O27	O	1.283431	-0.437872	0.570609
O28	O	1.783431	0.062128	1.070609
O29	O	1.582919	-0.338801	0.740972
O30	O	2.082919	0.161199	1.240972
O31	O	1.582676	-0.568642	0.441539
O32	O	2.082676	-0.068642	0.941539
O33	O	1.453664	-0.568597	0.570583
O34	O	1.953664	-0.068597	1.070583
C35	C	1.245325	-0.388369	0.506096
C36	C	1.745325	0.111631	1.006096
C37	C	1.128548	-0.388381	0.506115
C38	C	1.628548	0.111619	1.006115
C39	C	1.128638	-0.285379	0.640740
C40	C	1.628638	0.214621	1.140740
C41	C	1.073822	-0.233887	0.708061
C42	C	1.573822	0.266113	1.208061
C43	C	0.964101	-0.233901	0.708074
C44	C	1.464101	0.266099	1.208074
C45	C	0.909192	-0.285411	0.640757
C46	C	1.409192	0.214589	1.140757
C47	C	0.964008	-0.336903	0.573436
C48	C	1.464008	0.163097	1.073436
C49	C	1.073732	-0.336884	0.573432
C50	C	1.573732	0.163116	1.073432
C51	C	0.963919	-0.439900	0.438808
C52	C	1.463919	0.060100	0.938808
C53	C	1.073640	-0.439891	0.438798
C54	C	1.573640	0.060109	0.938798
C55	C	0.909010	-0.491410	0.371490
C56	C	1.409010	0.008590	0.871490
C57	C	0.963826	-0.542907	0.304173
C58	C	1.463826	-0.042907	0.804173
C59	C	1.073554	-0.542891	0.304164
C60	C	1.573554	-0.042891	0.804164
C61	C	1.128456	-0.491383	0.371477
C62	C	1.628456	0.008617	0.871477
C63	C	1.518178	-0.597876	0.506076
C64	C	2.018178	-0.097876	1.006076
C65	C	1.518226	-0.687497	0.506097
C66	C	2.018226	-0.187497	1.006097
C67	C	1.518267	-0.760279	0.506118
C68	C	2.018267	-0.260279	1.006118
C69	C	1.518328	-0.851588	0.506141
C70	C	2.018328	-0.351588	1.006141
C71	C	1.518382	-0.924364	0.506154
C72	C	2.018382	-0.424364	1.006154
C73	C	1.518442	-1.015678	0.506176
C74	C	2.018442	-0.515678	1.006176
C75	C	1.792326	-0.388401	0.506122
C76	C	2.292326	0.111599	1.006122
C77	C	1.909103	-0.388409	0.506128
C78	C	2.409103	0.111591	1.006128
C79	C	1.518372	-0.388306	0.780142
C80	C	2.018372	0.111694	1.280142
C81	C	1.518406	-0.388272	0.896919
C82	C	2.018406	0.111728	1.396919
C83	C	1.518436	-0.178076	0.506165
C84	C	2.018436	0.321924	1.006165
C85	C	1.518497	-0.088455	0.506189
C86	C	2.018497	0.411545	1.006189
C87	C	1.518274	-0.388405	0.233141
C88	C	2.018274	0.111595	0.733141
C89	C	1.518444	-0.388212	0.116365
C90	C	2.018444	0.111788	0.616365
C91	C	1.652865	-0.285156	0.896973
C92	C	2.152865	0.214844	1.396973
C93	C	1.720109	-0.233586	0.951861
C94	C	2.220109	0.266414	1.451861
C95	C	1.720135	-0.233557	1.061583
C96	C	2.220135	0.266443	1.561583
C97	C	1.652907	-0.285101	1.116419
C98	C	2.152907	0.214899	1.616419
C99	C	1.585662	-0.336671	1.061531
C100	C	2.085662	0.163329	1.561531
C101	C	1.585646	-0.336697	0.951807
C102	C	2.085646	0.163303	1.451807
C103	C	1.451200	-0.439782	1.061477
C104	C	1.951200	0.060218	1.561477
C105	C	1.451178	-0.439817	0.951756
C106	C	1.951178	0.060183	1.451756
C107	C	1.383971	-0.491326	1.116314
C108	C	1.883971	0.008674	1.616314
C109	C	1.316731	-0.542902	1.061426
C110	C	1.816731	-0.042902	1.561426
C111	C	1.316709	-0.542929	0.951698
C112	C	1.816709	-0.042929	1.451698
C113	C	1.383933	-0.491386	0.896868
C114	C	1.883933	0.008614	1.396868
H115	H	1.118541	-0.191947	0.762867
H116	H	1.618541	0.308053	1.262867
H117	H	1.261994	-0.584860	1.106082
H118	H	1.761994	-0.084860	1.606082
H119	H	0.919470	-0.191968	0.762886
H120	H	1.419470	0.308032	1.262886
C121	C	1.779864	-0.187733	1.229808
C122	C	2.279864	0.312267	1.729808
C123	C	1.794046	-0.176870	1.121923
C124	C	2.294046	0.323130	1.621923
H125	H	1.825489	-0.152732	1.267058
H126	H	2.325489	0.347268	1.767058
H127	H	1.795203	-0.241900	1.247764
H128	H	2.295203	0.258100	1.747764
H129	H	1.709282	-0.175919	1.247770
H130	H	2.209282	0.324081	1.747770
H131	H	1.864627	-0.188689	1.103960
H132	H	2.364627	0.311311	1.603960
H133	H	1.778714	-0.122691	1.103960
H134	H	2.278714	0.377309	1.603960
H135	H	1.774843	-0.191619	0.907201
H136	H	2.274843	0.308381	1.407201
H137	H	1.261939	-0.584915	0.907014
H138	H	1.761939	-0.084915	1.407014
H139	H	1.383927	-0.491408	0.807527
H140	H	1.883927	0.008592	1.307527
C141	C	1.285864	-0.229285	0.714034
C142	C	1.785864	0.270715	1.214034
C143	C	1.249246	-0.285366	0.640734
C144	C	1.749246	0.214634	1.140734
H145	H	1.360323	-0.229276	0.714026
H146	H	1.860323	0.270724	1.214026
H147	H	1.261065	-0.243303	0.781789
H148	H	1.761065	0.256697	1.281789
H149	H	1.261051	-0.177240	0.695987
H150	H	1.761051	0.322760	1.195987
H151	H	1.274053	-0.337413	0.658785
H152	H	1.774053	0.162587	1.158785
H153	H	1.274056	-0.271353	0.572965
H154	H	1.774056	0.228647	1.072965
C155	C	0.752067	-0.229347	0.714065
C156	C	1.252067	0.270653	1.214065
C157	C	0.788585	-0.285423	0.640765
C158	C	1.288585	0.214577	1.140765
H159	H	0.677608	-0.229360	0.714071
H160	H	1.177608	0.270640	1.214071
H161	H	0.776899	-0.177303	0.696014
H162	H	1.276899	0.322697	1.196014
H163	H	0.776915	-0.243358	0.781825
H164	H	1.276915	0.256642	1.281825
H165	H	0.763743	-0.271408	0.573003
H166	H	1.263743	0.228592	1.073003
H167	H	0.763742	-0.337479	0.658810
H168	H	1.263742	0.162521	1.158810
H169	H	1.118179	-0.584819	0.249339
H170	H	1.618179	-0.084819	0.749339
H171	H	0.919111	-0.584838	0.249365
H172	H	1.419111	-0.084838	0.749365
C173	C	1.310789	-0.547426	1.273458
C174	C	1.810789	-0.047426	1.773458
C175	C	1.383995	-0.491297	1.236922
C176	C	1.883995	0.008703	1.736922
H177	H	1.310802	-0.547405	1.347917
H178	H	1.810802	-0.047405	1.847917
H179	H	1.328912	-0.599458	1.248621
H180	H	1.828912	-0.099458	1.748621
H181	H	1.243001	-0.533470	1.248627
H182	H	1.743001	-0.033470	1.748627
H183	H	1.451785	-0.505256	1.261746
H184	H	1.951785	-0.005256	1.761746
H185	H	1.365879	-0.439252	1.261769
H186	H	1.865879	0.060748	1.761769
H187	H	1.217797	-0.491361	0.371471
H188	H	1.717797	0.008639	0.871471
C189	C	0.751874	-0.512091	0.471400
C190	C	1.251874	-0.012091	0.971400
C191	C	0.788403	-0.491429	0.371503
C192	C	1.288403	0.008571	0.871503
H193	H	0.677415	-0.512110	0.471404
H194	H	1.177415	-0.012110	0.971404
H195	H	0.776724	-0.474046	0.521111
H196	H	1.276724	0.025954	1.021111
H197	H	0.776697	-0.564139	0.489425
H198	H	1.276697	-0.064139	0.989425
H199	H	0.763586	-0.439379	0.353482
H200	H	1.263586	0.060621	0.853482
H201	H	0.763542	-0.529476	0.321777
H202	H	1.263542	-0.029476	0.821777
H203	H	1.652861	-0.285183	0.807632
H204	H	2.152861	0.214817	1.307632
H205	H	1.652924	-0.285066	1.205760
H206	H	2.152924	0.214934	1.705760
