data_functionalizedCrystal
_audit_creation_method	'MofGen! by Chris Wilmer'
_symmetry_space_group_name_H-M	'P1'
_symmetry_Int_Tables_number	1
_symmetry_cell_setting	triclinic
loop_
_symmetry_equiv_pos_as_xyz
  x,y,z
_cell_length_a	13.635800
_cell_length_b	11.102183
_cell_length_c	11.102315
_cell_angle_alpha	88.052119
_cell_angle_beta	108.606275
_cell_angle_gamma	71.396124
loop_
_atom_site_label
_atom_site_type_symbol
_atom_site_fract_x
_atom_site_fract_y
_atom_site_fract_z
V1	V	2.055764	-0.175845	0.396256
O2	O	2.035286	0.008443	0.388715
O3	O	2.044147	-0.348665	0.393543
O4	O	2.044157	-0.173143	0.569077
O5	O	2.035277	-0.168293	0.211966
V6	V	2.294316	-0.153802	0.374213
O7	O	2.193434	-0.224199	0.444607
O8	O	2.381745	-0.105448	0.325862
O9	O	2.194330	0.019018	0.376926
O10	O	2.373493	-0.338090	0.381754
O11	O	2.373502	-0.161354	0.558503
O12	O	2.194320	-0.156504	0.201392
V13	V	2.555764	-0.175845	0.396256
O14	O	2.535286	0.008443	0.388715
O15	O	2.544147	-0.348665	0.393543
O16	O	2.544157	-0.173143	0.569077
O17	O	2.535277	-0.168293	0.211966
V18	V	2.794316	-0.153802	0.374213
O19	O	2.693434	-0.224199	0.444607
O20	O	2.881745	-0.105448	0.325862
O21	O	2.694330	0.019018	0.376926
O22	O	2.873493	-0.338090	0.381754
O23	O	2.873502	-0.161354	0.558503
O24	O	2.694320	-0.156504	0.201392
C25	C	1.969301	-0.390794	0.387292
C26	C	2.000531	-0.532077	0.386226
C27	C	1.940350	-0.495796	0.153446
C28	C	1.924930	-0.544029	0.036560
C29	C	1.954276	-0.676777	0.035566
C30	C	1.999050	-0.761297	0.151470
C31	C	2.014471	-0.713063	0.268356
C32	C	1.985117	-0.580310	0.269338
C33	C	2.074658	-0.749345	0.501134
C34	C	2.045305	-0.616597	0.502130
C35	C	2.119432	-0.833865	0.617038
C36	C	2.134845	-0.785631	0.733926
C37	C	2.105495	-0.652874	0.734916
C38	C	2.060725	-0.568363	0.619016
C39	C	1.969313	-0.166898	0.611201
C40	C	2.000547	-0.165832	0.752484
C41	C	2.100847	0.061141	0.383174
C42	C	2.059237	0.202422	0.384248
C43	C	2.100835	-0.162753	0.159261
C44	C	2.059219	-0.163813	0.017977
C45	C	2.469301	-0.390794	0.387292
C46	C	2.500531	-0.532077	0.386226
C47	C	2.469313	-0.166898	0.611201
C48	C	2.500547	-0.165832	0.752484
C49	C	2.184574	-0.178533	0.765454
C50	C	2.291258	-0.184387	0.838312
C51	C	2.320599	-0.183384	0.971059
C52	C	2.243246	-0.176523	1.030948
C53	C	2.136562	-0.170669	0.958089
C54	C	2.107231	-0.171677	0.825341
C55	C	1.952535	-0.157959	0.945119
C56	C	1.923194	-0.158971	0.812373
C57	C	1.875182	-0.151098	1.005008
C58	C	1.768498	-0.145253	0.932151
C59	C	1.739159	-0.146258	0.799397
C60	C	1.816510	-0.153117	0.739515
C61	C	2.600847	0.061141	0.383174
C62	C	2.559237	0.202422	0.384248
C63	C	2.600835	-0.162753	0.159261
C64	C	2.559219	-0.163813	0.017977
C65	C	2.684549	-0.545042	0.398895
C66	C	2.791225	-0.617897	0.404726
C67	C	2.820562	-0.750644	0.403726
C68	C	2.743215	-0.810538	0.396899
C69	C	2.636539	-0.737683	0.391069
C70	C	2.607211	-0.604934	0.392066
C71	C	2.452525	-0.724719	0.378409
C72	C	2.423184	-0.591971	0.379399
C73	C	2.375178	-0.784614	0.371582
C74	C	2.268498	-0.711757	0.365743
C75	C	2.239163	-0.579002	0.366741
C76	C	2.316508	-0.519116	0.373569
C77	C	2.560706	-0.398609	0.788808
C78	C	2.605455	-0.514492	0.873343
C79	C	2.634802	-0.513484	1.006089
C80	C	2.619401	-0.396580	1.054301
C81	C	2.574652	-0.280697	0.969767
C82	C	2.545304	-0.281718	0.837020
C83	C	2.514502	-0.047923	0.933444
C84	C	2.485146	-0.048928	0.800697
C85	C	2.499100	0.068980	0.981656
C86	C	2.454344	0.184866	0.897121
C87	C	2.424995	0.183853	0.764367
C88	C	2.440398	0.066954	0.716162
H89	H	1.888475	-0.475199	-0.057806
H90	H	2.441816	0.280039	0.936388
N91	N	2.530742	0.070079	1.124829
H92	H	2.588576	0.111696	1.154080
H93	H	2.561370	-0.021099	1.170969
N94	N	1.624092	-0.139950	0.720822
H95	H	1.617238	-0.141628	0.627639
H96	H	1.568591	-0.057845	0.728850
N97	N	1.784860	-0.154200	0.596339
H98	H	1.834369	-0.236085	0.579250
H99	H	1.793460	-0.077733	0.554661
N100	N	2.284878	-0.375943	0.374662
H101	H	2.205566	-0.338874	0.369938
H102	H	2.293538	-0.334268	0.298240
N103	N	2.622073	-0.640577	0.821345
H104	H	2.596692	-0.623639	0.724424
H105	H	2.577764	-0.686905	0.848078
N106	N	1.906838	-0.149962	1.148177
H107	H	1.970489	-0.231351	1.195065
H108	H	1.841599	-0.144661	1.174973
H109	H	2.671241	-0.607846	1.074918
H110	H	2.416497	0.066119	0.608075
H111	H	2.660667	-0.436951	0.399692
N112	N	2.274867	-0.175357	1.174110
H113	H	2.354180	-0.180078	1.211174
H114	H	2.266200	-0.251748	1.215835
N115	N	1.937683	-0.728839	-0.090483
H116	H	1.856858	-0.693438	-0.145529
H117	H	1.963145	-0.825755	-0.073372
H118	H	1.916422	-0.387701	0.154242
H119	H	2.907426	-0.809964	0.408479
N120	N	2.030724	-0.904476	0.150404
H121	H	2.014169	-0.922207	0.058771
H122	H	1.987036	-0.939097	0.191614
N123	N	2.651061	-0.395500	1.197478
H124	H	2.583752	-0.345241	1.217927
H125	H	2.708917	-0.353908	1.226626
H126	H	2.388563	0.278219	0.695545
N127	N	2.435663	-0.189686	1.049640
H128	H	2.491241	-0.271787	1.041721
H129	H	2.442408	-0.187954	1.142784
H130	H	2.036808	-0.460269	0.619810
H131	H	2.205534	-0.760535	0.360193
N132	N	2.151090	-0.977042	0.615961
H133	H	2.083776	-0.997497	0.565724
H134	H	2.181819	-1.023172	0.707153
N135	N	2.183159	-0.876787	0.858927
H136	H	2.199423	-0.968202	0.840561
H137	H	2.128613	-0.857131	0.905636
H138	H	1.705524	-0.139659	0.980922
H139	H	2.118067	-0.613614	0.830100
H140	H	2.399074	-0.892705	0.370776
N141	N	2.152933	-0.179638	0.622282
H142	H	2.218122	-0.184877	0.595398
H143	H	2.089264	-0.098232	0.575504
N144	N	2.874649	-0.553301	0.412098
H145	H	2.839882	-0.458151	0.411846
H146	H	2.899490	-0.566993	0.335537
H147	H	2.767114	-0.918631	0.396101
N148	N	2.374682	-0.191770	0.773717
H149	H	2.339912	-0.191517	0.678567
H150	H	2.440447	-0.273518	0.812094
N151	N	2.124109	-0.500428	0.360468
H152	H	2.079570	-0.558519	0.355996
H153	H	2.087455	-0.432725	0.281454
H154	H	2.536797	-0.399441	0.680720
