data_functionalizedCrystal
_audit_creation_method	'MofGen! by Chris Wilmer'
_symmetry_space_group_name_H-M	'P1'
_symmetry_Int_Tables_number	1
_symmetry_cell_setting	triclinic
loop_
_symmetry_equiv_pos_as_xyz
  x,y,z
_cell_length_a	14.519709
_cell_length_b	14.971486
_cell_length_c	14.048226
_cell_angle_alpha	89.993360
_cell_angle_beta	89.999158
_cell_angle_gamma	83.647137
loop_
_atom_site_label
_atom_site_type_symbol
_atom_site_fract_x
_atom_site_fract_y
_atom_site_fract_z
O1	O	1.223800	0.117253	-0.079037
O2	O	0.955315	0.131060	-0.079066
O3	O	1.096753	-0.006039	-0.079044
O4	O	1.082361	0.254353	-0.079059
O5	O	1.096736	-0.006048	0.079277
O6	O	0.955298	0.131052	0.079255
O7	O	1.223783	0.117245	0.079284
Zn8	Zn	1.089538	0.124147	0.104407
Zn9	Zn	1.089560	0.124158	-0.104189
O10	O	1.082344	0.254344	0.079262
C11	C	1.096101	-0.039369	0.000116
C12	C	1.094172	-0.138667	0.000115
C13	C	0.920947	0.130413	0.000091
C14	C	0.818567	0.128485	0.000080
C15	C	1.177264	-0.195845	0.000125
C16	C	1.175446	-0.289146	0.000115
C17	C	1.090536	-0.325266	0.000102
C18	C	1.007438	-0.268080	0.000090
C19	C	1.009257	-0.174781	0.000093
C20	C	1.003653	-0.462545	0.000086
C21	C	1.001834	-0.555850	0.000085
C22	C	1.169842	-0.576909	0.000108
C23	C	1.171661	-0.483610	0.000111
C24	C	1.088563	-0.426431	0.000100
C25	C	0.443675	0.121386	0.000123
C26	C	0.547982	0.123357	0.000111
C27	C	0.631118	0.124935	0.000101
C28	C	0.735431	0.126907	0.000090
C29	C	1.258151	0.117892	0.000125
C30	C	1.360531	0.119820	0.000130
C31	C	1.082996	0.287674	0.000100
C32	C	1.084925	0.386972	0.000094
N33	N	1.089529	0.124139	0.246767
N34	N	1.089576	0.124159	-0.246549
C35	C	1.152178	0.063457	0.296595
C36	C	1.152184	0.063456	0.396253
C37	C	1.089545	0.124143	0.446081
C38	C	1.026890	0.184829	0.396246
C39	C	1.026880	0.184824	0.296590
C40	C	1.026916	0.184835	0.603960
C41	C	1.026927	0.184841	0.703623
C42	C	1.152220	0.063467	0.703623
C43	C	1.152211	0.063463	0.603967
C44	C	1.089556	0.124150	0.554139
H45	H	1.246407	-0.166444	0.000141
F46	F	0.917070	-0.306524	0.000066
H47	H	1.243107	-0.335698	0.000125
F48	F	0.911463	-0.594289	0.000072
F49	F	0.920819	-0.113927	0.000080
F50	F	1.218902	-0.001119	0.756657
F51	F	1.218852	-0.001132	0.243574
F52	F	1.218860	-0.001130	0.449284
H53	H	0.975919	0.234258	0.744188
F54	F	1.218882	-0.001121	0.550936
F55	F	0.960228	0.249424	0.550934
F56	F	0.960219	0.249414	0.449277
H57	H	0.935985	-0.415991	0.000075
H58	H	1.237504	-0.623470	0.000114
F59	F	1.262032	-0.445171	0.000122
F60	F	0.960197	0.249409	0.243561
