data_functionalizedCrystal
_audit_creation_method	'MofGen! by Chris Wilmer'
_symmetry_space_group_name_H-M	'P1'
_symmetry_Int_Tables_number	1
_symmetry_cell_setting	triclinic
loop_
_symmetry_equiv_pos_as_xyz
  x,y,z
_cell_length_a	19.288859
_cell_length_b	27.731996
_cell_length_c	18.366186
_cell_angle_alpha	89.987769
_cell_angle_beta	89.990083
_cell_angle_gamma	82.877556
loop_
_atom_site_label
_atom_site_type_symbol
_atom_site_fract_x
_atom_site_fract_y
_atom_site_fract_z
O1	O	0.920963	0.060287	-0.060573
O2	O	1.420963	0.560287	0.439427
O3	O	0.718649	0.068425	-0.060573
O4	O	1.218649	0.568425	0.439427
O5	O	0.826108	-0.006024	-0.060557
O6	O	1.326108	0.493976	0.439443
O7	O	0.813504	0.134736	-0.060589
O8	O	1.313504	0.634736	0.439411
O9	O	0.826090	-0.006027	0.060542
O10	O	1.326090	0.493973	0.560542
O11	O	0.718631	0.068421	0.060526
O12	O	1.218631	0.568421	0.560526
O13	O	0.920945	0.060283	0.060526
O14	O	1.420945	0.560283	0.560526
Zn15	Zn	0.819785	0.064352	0.079753
Zn16	Zn	1.319785	0.564352	0.579753
Zn17	Zn	0.819809	0.064356	-0.079800
Zn18	Zn	1.319809	0.564356	0.420200
O19	O	0.813486	0.134732	0.060510
O20	O	1.313486	0.634732	0.560510
C21	C	0.692765	0.068162	-0.000023
C22	C	1.192765	0.568162	0.499977
C23	C	0.615666	0.067377	-0.000022
C24	C	1.115666	0.567377	0.499978
C25	C	0.051376	0.105753	-0.000032
C26	C	0.551376	0.605753	0.499968
C27	C	0.123818	0.106494	-0.000036
C28	C	0.623818	0.606494	0.499964
C29	C	0.168809	0.062811	-0.000025
C30	C	0.668809	0.562811	0.499975
C31	C	0.141353	0.018384	-0.000028
C32	C	0.641353	0.518384	0.499972
C33	C	0.068912	0.017644	-0.000032
C34	C	0.568912	0.517644	0.499968
C35	C	0.290285	0.030232	0.042412
C36	C	0.790285	0.530232	0.542412
C37	C	0.362723	0.030973	0.042420
C38	C	0.862723	0.530973	0.542420
C39	C	0.392240	0.065092	-0.000018
C40	C	0.892240	0.565092	0.499982
C41	C	0.349307	0.098477	-0.042453
C42	C	0.849307	0.598477	0.457547
C43	C	0.276866	0.097737	-0.042457
C44	C	0.776866	0.597737	0.457543
C45	C	0.247359	0.063609	-0.000021
C46	C	0.747359	0.563609	0.499979
C47	C	0.498237	0.110321	-0.000024
C48	C	0.998237	0.610321	0.499976
C49	C	0.570680	0.111060	-0.000032
C50	C	1.070680	0.611060	0.499968
C51	C	0.588214	0.022949	-0.000017
C52	C	1.088214	0.522949	0.499983
C53	C	0.515772	0.022210	-0.000016
C54	C	1.015772	0.522210	0.499984
C55	C	0.470787	0.065898	-0.000016
C56	C	0.970787	0.565898	0.499984
C57	C	0.825840	-0.024034	-0.000005
C58	C	1.325840	0.475966	0.499995
C59	C	0.825061	-0.077692	0.000002
C60	C	1.325061	0.422308	0.500002
C61	C	0.820164	-0.410421	-0.066045
C62	C	1.320164	0.089579	0.433955
C63	C	0.817202	-0.612088	-0.066057
C64	C	1.317202	-0.112088	0.433943
O65	O	0.816798	-0.638159	-0.122198
O66	O	1.316798	-0.138159	0.377802
N67	N	0.816824	-0.637309	-0.000047
N68	N	1.316824	-0.137309	0.499953
C69	C	0.817183	-0.612109	0.065972
C70	C	1.317183	-0.112109	0.565972
O71	O	0.816786	-0.638187	0.122118
O72	O	1.316786	-0.138187	0.622118
C73	C	0.820139	-0.410442	0.065984
C74	C	1.320139	0.089558	0.565984
C75	C	0.820524	-0.385225	-0.000031
C76	C	1.320524	0.114775	0.499969
C77	C	0.820548	-0.385204	-0.132054
C78	C	1.320548	0.114796	0.367946
C79	C	0.821292	-0.334791	-0.132050
C80	C	1.321292	0.165209	0.367950
C81	C	0.821652	-0.309594	-0.066037
C82	C	1.321652	0.190406	0.433963
C83	C	0.821268	-0.334812	-0.000027
C84	C	1.321268	0.165188	0.499973
C85	C	0.820492	-0.385242	0.132002
C86	C	1.320492	0.114758	0.632002
C87	C	0.821230	-0.334822	0.131999
C88	C	1.321230	0.165178	0.631999
C89	C	0.821614	-0.309605	0.065984
C90	C	1.321614	0.190395	0.565984
C91	C	0.822372	-0.259202	0.065990
C92	C	1.322372	0.240798	0.565990
N93	N	0.822750	-0.233982	-0.000021
N94	N	1.322750	0.266018	0.499979
C95	C	0.822390	-0.259178	-0.066034
C96	C	1.322390	0.240822	0.433966
C97	C	0.815632	-0.717987	0.065961
C98	C	1.315632	-0.217987	0.565961
C99	C	0.814894	-0.768403	0.065958
C100	C	1.314894	-0.268403	0.565958
C101	C	0.814912	-0.768379	-0.066072
C102	C	1.314912	-0.268379	0.433928
C103	C	0.815655	-0.717962	-0.066068
C104	C	1.315655	-0.217962	0.433932
C105	C	0.816009	-0.692766	-0.000050
C106	C	1.316009	-0.192766	0.499950
C107	C	0.823953	-0.153306	-0.066021
C108	C	1.323953	0.346694	0.433979
C109	C	0.824700	-0.102889	-0.066011
C110	C	1.324700	0.397111	0.433989
C111	C	0.824678	-0.102916	0.066018
C112	C	1.324678	0.397084	0.566018
C113	C	0.823935	-0.153330	0.066008
C114	C	1.323935	0.346670	0.566008
C115	C	0.823570	-0.178523	-0.000017
C116	C	1.323570	0.321477	0.499983
O117	O	0.822769	-0.233100	0.122101
O118	O	1.322769	0.266900	0.622101
O119	O	0.822771	-0.233090	-0.122172
O120	O	1.322771	0.266910	0.377828
C121	C	0.819419	-0.460835	-0.066049
C122	C	1.319419	0.039165	0.433951
C123	C	0.819035	-0.486052	-0.000039
C124	C	1.319035	0.013948	0.499961
C125	C	0.819396	-0.460855	0.065974
C126	C	1.319396	0.039145	0.565974
C127	C	0.818298	-0.536468	-0.000042
C128	C	1.318298	-0.036468	0.499958
C129	C	0.817937	-0.561665	-0.066055
C130	C	1.317937	-0.061665	0.433945
C131	C	0.818315	-0.536444	-0.132066
C132	C	1.318315	-0.036444	0.367934
C133	C	0.819059	-0.486031	-0.132062
C134	C	1.319059	0.013969	0.367938
C135	C	0.819018	-0.486076	0.131985
C136	C	1.319018	0.013924	0.631985
C137	C	0.818275	-0.536489	0.131976
C138	C	1.318275	-0.036489	0.631976
C139	C	0.817914	-0.561686	0.065962
C140	C	1.317914	-0.061686	0.565962
C141	C	0.946829	0.060547	-0.000026
C142	C	1.446829	0.560547	0.499974
C143	C	1.023928	0.061331	-0.000031
C144	C	1.523928	0.561331	0.499969
C145	C	0.813754	0.152742	-0.000043
C146	C	1.313754	0.652742	0.499957
C147	C	0.814534	0.206400	-0.000056
C148	C	1.314534	0.706400	0.499944
N149	N	0.819774	0.064348	0.188644
N150	N	1.319774	0.564348	0.688644
N151	N	0.819826	0.064356	-0.188691
N152	N	1.319826	0.564356	0.311309
C153	C	0.867372	0.031399	0.226752
C154	C	1.367372	0.531399	0.726752
C155	C	0.867377	0.031396	0.302980
C156	C	1.367377	0.531396	0.802980
C157	C	0.819789	0.064352	0.341097
C158	C	1.319789	0.564352	0.841097
C159	C	0.772182	0.097304	0.302981
C160	C	1.272182	0.597304	0.802981
C161	C	0.772174	0.097302	0.226754
C162	C	1.272174	0.597302	0.726754
C163	C	0.810205	0.108396	0.461848
C164	C	1.310205	0.608396	0.961848
C165	C	0.810217	0.108399	0.538073
C166	C	1.310217	0.608399	1.038073
C167	C	0.819809	0.064358	0.576205
C168	C	1.319809	0.564358	1.076205
C169	C	0.829403	0.020313	0.538102
C170	C	1.329403	0.520313	1.038102
C171	C	0.829396	0.020311	0.461876
C172	C	1.329396	0.520311	0.961876
C173	C	0.819792	0.064358	0.423752
C174	C	1.319792	0.564358	0.923752
C175	C	0.867415	0.031403	0.696967
C176	C	1.367415	0.531403	1.196967
C177	C	0.867414	0.031401	0.773196
C178	C	1.367414	0.531401	1.273196
C179	C	0.772223	0.097313	0.773196
C180	C	1.272223	0.597313	1.273196
C181	C	0.772220	0.097311	0.696968
C182	C	1.272220	0.597311	1.196968
C183	C	0.819820	0.064357	0.658858
C184	C	1.319820	0.564357	1.158858
H185	H	0.373336	0.126261	-0.077008
H186	H	0.873336	0.626261	0.422992
C187	C	0.814477	-0.796137	0.138579
C188	C	1.314477	-0.296137	0.638579
N189	N	0.814159	-0.817024	0.193281
N190	N	1.314159	-0.317024	0.693281
H191	H	0.733435	0.124137	0.334020
H192	H	1.233435	0.624137	0.834020
H193	H	0.817967	-0.557017	0.185737
H194	H	1.317967	-0.057017	0.685737
H195	H	0.820180	-0.405765	0.185758
H196	H	1.320180	0.094235	0.685758
C197	C	0.448751	0.158378	-0.000037
C198	C	0.948751	0.658378	0.499963
N199	N	0.411481	0.194574	-0.000050
N200	N	0.911481	0.694574	0.499950
C201	C	0.799657	0.156849	0.579978
C202	C	1.299657	0.656849	1.079978
N203	N	0.791698	0.193343	0.611539
N204	N	1.291698	0.693343	1.111539
C205	C	0.719877	0.133565	0.815121
C206	C	1.219877	0.633565	1.315121
N207	N	0.680447	0.160871	0.846703
N208	N	1.180447	0.660871	1.346703
H209	H	0.823628	-0.173863	0.119763
H210	H	1.323628	0.326137	0.619763
H211	H	0.493424	-0.013963	-0.000011
H212	H	0.993424	0.486037	0.499989
C213	C	0.038719	-0.031226	-0.000022
C214	C	0.538719	0.468774	0.499978
N215	N	0.015976	-0.068035	-0.000011
N216	N	0.515976	0.431965	0.499989
H217	H	0.397674	0.003792	0.076977
H218	H	0.897674	0.503792	0.576977
H219	H	0.906173	0.004567	0.804224
H220	H	1.406173	0.504567	1.304224
C221	C	0.819417	-0.458367	0.204609
C222	C	1.319417	0.041633	0.704609
N223	N	0.819721	-0.437499	0.259315
N224	N	1.319721	0.062501	0.759315
C225	C	0.821622	-0.307110	0.204626
C226	C	1.321622	0.192890	0.704626
N227	N	0.821921	-0.286239	0.259328
N228	N	1.321921	0.213761	0.759328
C229	C	0.229644	0.134455	-0.089143
C230	C	0.729644	0.634455	0.410857
N231	N	0.194076	0.162110	-0.124311
N232	N	0.694076	0.662110	0.375689
C233	C	0.257825	-0.007305	0.089097
C234	C	0.757825	0.492695	0.589097
N235	N	0.233378	-0.035578	0.124259
N236	N	0.733378	0.464422	0.624259
C237	C	0.839940	-0.028138	0.419966
C238	C	1.339940	0.471862	0.919966
N239	N	0.847877	-0.064630	0.388400
N240	N	1.347877	0.435370	0.888400
C241	C	0.825068	-0.075190	0.138629
C242	C	1.325068	0.424810	0.638629
N243	N	0.825354	-0.054305	0.193320
N244	N	1.325354	0.445695	0.693320
H245	H	0.593026	0.147235	-0.000039
H246	H	1.093026	0.647235	0.499961
C247	C	0.001897	0.153811	-0.000027
C248	C	0.501897	0.653811	0.499973
N249	N	-0.035372	0.190008	-0.000022
N250	N	0.464628	0.690008	0.499978
H251	H	0.146171	0.142669	-0.000029
H252	H	0.646171	0.642669	0.499971
H253	H	0.819372	-0.465504	-0.185818
H254	H	1.319372	0.034496	0.314182
C255	C	0.817917	-0.564170	-0.204681
C256	C	1.317917	-0.064170	0.295319
N257	N	0.817612	-0.585055	-0.259371
N258	N	1.317612	-0.085055	0.240629
C259	C	0.799652	0.156847	0.419910
C260	C	1.299652	0.656847	0.919910
N261	N	0.791705	0.193340	0.388324
N262	N	1.291705	0.693340	0.888324
C263	C	0.839953	-0.028136	0.580042
C264	C	1.339953	0.471864	1.080042
N265	N	0.847900	-0.064626	0.611634
N266	N	1.347900	0.435374	1.111634
C267	C	0.719907	0.133594	0.655048
C268	C	1.219907	0.633594	1.155048
N269	N	0.680518	0.160934	0.623475
N270	N	1.180518	0.660934	1.123475
C271	C	0.820181	-0.412915	-0.204681
C272	C	1.320181	0.087085	0.295319
N273	N	0.819921	-0.433785	-0.259388
N274	N	1.319921	0.066215	0.240612
H275	H	0.177989	-0.017183	-0.000021
H276	H	0.677989	0.482817	0.499979
H277	H	0.624845	-0.012619	-0.000014
H278	H	1.124845	0.487381	0.499986
C279	C	0.825121	-0.075153	-0.138636
C280	C	1.325121	0.424847	0.361364
N281	N	0.825436	-0.054264	-0.193335
N282	N	1.325436	0.445736	0.306665
C283	C	0.823564	-0.181013	-0.138652
C284	C	1.323564	0.318987	0.361348
N285	N	0.823278	-0.201882	-0.193358
N286	N	1.323278	0.298118	0.306642
H287	H	0.821602	-0.314263	-0.185807
H288	H	1.321602	0.185737	0.314193
C289	C	0.919727	-0.004857	0.184835
C290	C	1.419727	0.495143	0.684835
N291	N	0.959158	-0.032166	0.153263
N292	N	1.459158	0.467834	0.653263
H293	H	0.815967	-0.697434	-0.119823
H294	H	1.315967	-0.197434	0.380177
C295	C	0.719840	0.133572	0.184835
C296	C	1.219840	0.633572	0.684835
N297	N	0.680432	0.160899	0.153260
N298	N	1.180432	0.660899	0.653260
H299	H	0.906138	0.004564	0.334012
H300	H	1.406138	0.504564	0.834012
H301	H	0.814619	-0.788903	-0.119822
H302	H	1.314619	-0.288903	0.380178
H303	H	0.815924	-0.697477	0.119724
H304	H	1.315924	-0.197477	0.619724
C305	C	0.919768	-0.004851	0.655043
C306	C	1.419768	0.495149	1.155043
N307	N	0.959200	-0.032159	0.623469
N308	N	1.459200	0.467841	1.123469
