data_functionalizedCrystal
_audit_creation_method	'MofGen! by Chris Wilmer'
_symmetry_space_group_name_H-M	'P1'
_symmetry_Int_Tables_number	1
_symmetry_cell_setting	triclinic
loop_
_symmetry_equiv_pos_as_xyz
  x,y,z
_cell_length_a	27.732048
_cell_length_b	27.732048
_cell_length_c	26.210047
_cell_angle_alpha	90.000479
_cell_angle_beta	90.003465
_cell_angle_gamma	82.642655
loop_
_atom_site_label
_atom_site_type_symbol
_atom_site_fract_x
_atom_site_fract_y
_atom_site_fract_z
O1	O	-0.640931	-0.057510	-0.042369
O2	O	-0.140931	0.442490	0.457631
O3	O	-0.500138	-0.066256	-0.042385
O4	O	-0.000138	0.433744	0.457615
O5	O	-0.574907	0.008514	-0.042367
O6	O	-0.074907	0.508514	0.457633
O7	O	-0.566162	-0.132279	-0.042387
O8	O	-0.066162	0.367721	0.457613
O9	O	-0.574893	0.008502	0.042491
O10	O	-0.074893	0.508502	0.542491
O11	O	-0.500123	-0.066267	0.042473
O12	O	-0.000123	0.433733	0.542473
O13	O	-0.640917	-0.057522	0.042489
O14	O	-0.140917	0.442478	0.542489
Cu15	Cu	-0.570519	-0.061896	0.050229
Cu16	Cu	-0.070519	0.438104	0.550229
Cu17	Cu	-0.570536	-0.061882	-0.050125
Cu18	Cu	-0.070536	0.438118	0.449875
O19	O	-0.566147	-0.132291	0.042471
O20	O	-0.066147	0.367709	0.542471
C21	C	-0.574716	0.026515	0.000064
C22	C	-0.074716	0.526515	0.500064
C23	C	-0.574164	0.080170	0.000068
C24	C	-0.074164	0.580170	0.500068
C25	C	-0.482124	-0.066078	0.000042
C26	C	0.017876	0.433922	0.500042
C27	C	-0.428469	-0.065525	0.000036
C28	C	0.071531	0.434475	0.500036
C29	C	-0.658931	-0.057699	0.000061
C30	C	-0.158931	0.442301	0.500061
C31	C	-0.712586	-0.058252	0.000064
C32	C	-0.212586	0.441748	0.500064
C33	C	-0.089654	-0.106229	0.000053
C34	C	0.410346	0.393771	0.500053
C35	C	0.112006	-0.104178	0.000057
C36	C	0.612006	0.395822	0.500057
O37	O	0.143262	-0.141398	0.000074
O38	O	0.643262	0.358602	0.500074
N39	N	0.131130	-0.059843	0.000063
N40	N	0.631130	0.440157	0.500063
C41	C	0.099835	-0.016017	0.000071
C42	C	0.599835	0.483983	0.500071
O43	O	0.120728	0.021740	0.000081
O44	O	0.620728	0.521740	0.500081
C45	C	-0.101824	-0.018068	0.000069
C46	C	0.398176	0.481932	0.500069
C47	C	-0.120944	-0.062407	0.000059
C48	C	0.379056	0.437593	0.500059
C49	C	-0.108775	-0.150563	0.000043
C50	C	0.391225	0.349437	0.500043
C51	C	-0.159187	-0.151076	0.000039
C52	C	0.340813	0.348924	0.500039
C53	C	-0.190477	-0.107253	0.000045
C54	C	0.309523	0.392747	0.500045
C55	C	-0.171356	-0.062919	0.000055
C56	C	0.328644	0.437081	0.500055
C57	C	-0.133117	0.025757	0.000081
C58	C	0.366883	0.525757	0.500081
C59	C	-0.183535	0.025240	0.000082
C60	C	0.316465	0.525240	0.500082
C61	C	-0.202655	-0.019098	0.000071
C62	C	0.297345	0.480902	0.500071
C63	C	-0.253059	-0.019609	0.000057
C64	C	0.246941	0.480391	0.500057
N65	N	-0.272183	-0.063944	0.000051
N66	N	0.227817	0.436056	0.500051
C67	C	-0.240892	-0.107766	0.000045
C68	C	0.259108	0.392234	0.500045
C69	C	0.205709	-0.014943	0.000070
C70	C	0.705709	0.485057	0.500070
C71	C	0.256124	-0.014430	0.000070
C72	C	0.756124	0.485570	0.500070
C73	C	0.268291	-0.102591	0.000057
C74	C	0.768291	0.397409	0.500057
C75	C	0.217876	-0.103104	0.000054
C76	C	0.717876	0.396896	0.500054
C77	C	0.186585	-0.059278	0.000065
C78	C	0.686585	0.440722	0.500065
C79	C	-0.346761	-0.108839	0.000036
C80	C	0.153239	0.391161	0.500036
C81	C	-0.397178	-0.109347	0.000030
C82	C	0.102822	0.390653	0.500030
C83	C	-0.409341	-0.021186	0.000045
C84	C	0.090659	0.478814	0.500045
C85	C	-0.358929	-0.020678	0.000049
C86	C	0.141071	0.479322	0.500049
C87	C	-0.327639	-0.064508	0.000046
C88	C	0.172361	0.435492	0.500046
O89	O	-0.284343	0.017592	0.000046
O90	O	0.215657	0.517592	0.500046
O91	O	-0.261794	-0.145518	0.000047
O92	O	0.238206	0.354482	0.500047
C93	C	-0.039242	-0.105716	0.000057
C94	C	0.460758	0.394284	0.500057
C95	C	-0.020120	-0.061382	0.000067
C96	C	0.479880	0.438618	0.500067
C97	C	-0.051411	-0.017560	0.000073
C98	C	0.448589	0.482440	0.500073
C99	C	0.030294	-0.060869	0.000066
C100	C	0.530294	0.439131	0.500066
C101	C	0.061585	-0.104691	0.000060
C102	C	0.561585	0.395309	0.500060
C103	C	0.042461	-0.149026	0.000054
C104	C	0.542461	0.350974	0.500054
C105	C	-0.007951	-0.149539	0.000050
C106	C	0.492049	0.350461	0.500050
C107	C	-0.032287	0.026775	0.000078
C108	C	0.467713	0.526775	0.500078
C109	C	0.018125	0.027284	0.000082
C110	C	0.518125	0.527284	0.500082
C111	C	0.049416	-0.016538	0.000076
C112	C	0.549416	0.483462	0.500076
C113	C	-0.566338	-0.150292	0.000040
C114	C	-0.066338	0.349708	0.500040
C115	C	-0.566891	-0.203947	0.000032
C116	C	-0.066891	0.296053	0.500032
N117	N	-0.570510	-0.061905	0.120813
N118	N	-0.070510	0.438095	0.620813
C119	C	-0.614867	0.418985	0.000046
C120	C	-0.114867	0.918985	0.500046
C121	C	-0.612816	0.620645	0.000039
C122	C	-0.112816	1.120645	0.500039
O123	O	-0.650037	0.651900	0.000021
O124	O	-0.150037	1.151900	0.500021
N125	N	-0.568481	0.639768	0.000034
N126	N	-0.068481	1.139768	0.500034
C127	C	-0.524656	0.608474	0.000028
C128	C	-0.024656	1.108474	0.500028
O129	O	-0.486899	0.629367	0.000019
O130	O	0.013101	1.129367	0.500019
C131	C	-0.526707	0.406815	0.000032
C132	C	-0.026707	0.906815	0.500032
C133	C	-0.571045	0.387694	0.000042
C134	C	-0.071045	0.887694	0.500042
C135	C	-0.659202	0.399864	0.000056
C136	C	-0.159202	0.899864	0.500056
C137	C	-0.659714	0.349452	0.000060
C138	C	-0.159714	0.849452	0.500060
C139	C	-0.615892	0.318161	0.000056
C140	C	-0.115892	0.818161	0.500056
C141	C	-0.571557	0.337282	0.000046
C142	C	-0.071557	0.837282	0.500046
C143	C	-0.482882	0.375521	0.000022
C144	C	0.017118	0.875521	0.500022
C145	C	-0.483399	0.325104	0.000022
C146	C	0.016601	0.825104	0.500022
C147	C	-0.527737	0.305983	0.000032
C148	C	-0.027737	0.805983	0.500032
C149	C	-0.528247	0.255580	0.000046
C150	C	-0.028247	0.755580	0.500046
N151	N	-0.572583	0.236456	0.000051
N152	N	-0.072583	0.736456	0.500051
C153	C	-0.616405	0.267747	0.000056
C154	C	-0.116405	0.767747	0.500056
C155	C	-0.523582	0.714348	0.000027
C156	C	-0.023582	1.214348	0.500027
C157	C	-0.523069	0.764762	0.000027
C158	C	-0.023069	1.264762	0.500027
C159	C	-0.611230	0.776930	0.000037
C160	C	-0.111230	1.276930	0.500037
C161	C	-0.611742	0.726514	0.000041
C162	C	-0.111742	1.226514	0.500041
C163	C	-0.567917	0.695224	0.000032
C164	C	-0.067917	1.195224	0.500032
C165	C	-0.617477	0.161878	0.000066
C166	C	-0.117477	0.661878	0.500066
C167	C	-0.617986	0.111461	0.000073
C168	C	-0.117986	0.611461	0.500073
C169	C	-0.529825	0.099298	0.000060
C170	C	-0.029825	0.599298	0.500060
C171	C	-0.529316	0.149710	0.000056
C172	C	-0.029316	0.649710	0.500056
C173	C	-0.573147	0.180999	0.000057
C174	C	-0.073147	0.680999	0.500057
O175	O	-0.491047	0.224296	0.000059
O176	O	0.008953	0.724296	0.500059
O177	O	-0.654156	0.246844	0.000054
O178	O	-0.154156	0.746844	0.500054
C179	C	-0.614355	0.469397	0.000042
C180	C	-0.114355	0.969397	0.500042
C181	C	-0.570021	0.488518	0.000033
C182	C	-0.070021	0.988518	0.500033
C183	C	-0.526198	0.457228	0.000028
C184	C	-0.026198	0.957228	0.500028
C185	C	-0.569508	0.538933	0.000033
C186	C	-0.069508	1.038933	0.500033
C187	C	-0.613330	0.570223	0.000037
C188	C	-0.113330	1.070223	0.500037
C189	C	-0.657665	0.551100	0.000042
C190	C	-0.157665	1.051100	0.500042
C191	C	-0.658177	0.500688	0.000046
C192	C	-0.158177	1.000688	0.500046
C193	C	-0.481863	0.476351	0.000023
C194	C	0.018137	0.976351	0.500023
C195	C	-0.481355	0.526764	0.000019
C196	C	0.018645	1.026764	0.500019
C197	C	-0.525177	0.558054	0.000024
C198	C	-0.025177	1.058054	0.500024
N199	N	-0.570548	-0.061868	-0.120709
N200	N	-0.070548	0.438132	0.379291
C201	C	-0.603640	-0.028781	0.473336
C202	C	-0.103640	0.471219	0.973336
C203	C	-0.603651	-0.028774	0.686994
C204	C	-0.103651	0.471226	1.186994
O205	O	-0.631801	-0.000614	0.714623
O206	O	-0.131801	0.499386	1.214623
N207	N	-0.570538	-0.061871	0.713707
N208	N	-0.070538	0.438129	1.213707
C209	C	-0.537419	-0.094970	0.687003
C210	C	-0.037419	0.405030	1.187003
O211	O	-0.509251	-0.123117	0.714626
O212	O	-0.009251	0.376883	1.214626
C213	C	-0.537406	-0.094974	0.473345
C214	C	-0.037406	0.405026	0.973345
C215	C	-0.570524	-0.061878	0.446635
C216	C	-0.070524	0.438122	0.946635
C217	C	-0.636755	0.004312	0.446625
C218	C	-0.136755	0.504312	0.946625
C219	C	-0.636754	0.004308	0.393214
C220	C	-0.136754	0.504308	0.893214
C221	C	-0.603638	-0.028789	0.366513
C222	C	-0.103638	0.471211	0.866513
C223	C	-0.570523	-0.061882	0.393223
C224	C	-0.070523	0.438118	0.893223
C225	C	-0.504284	-0.128070	0.446641
C226	C	-0.004284	0.371930	0.946641
C227	C	-0.504283	-0.128067	0.393223
C228	C	-0.004283	0.371933	0.893223
C229	C	-0.537401	-0.094971	0.366513
C230	C	-0.037401	0.405029	0.866513
C231	C	-0.537405	-0.094983	0.313111
C232	C	-0.037405	0.405017	0.813111
N233	N	-0.570518	-0.061886	0.286397
N234	N	-0.070518	0.438114	0.786397
C235	C	-0.603634	-0.028789	0.313098
C236	C	-0.103634	0.471211	0.813098
C237	C	-0.537428	-0.094966	0.799176
C238	C	-0.037428	0.405034	1.299176
C239	C	-0.537432	-0.094965	0.852590
C240	C	-0.037432	0.405035	1.352590
C241	C	-0.603664	-0.028769	0.852578
C242	C	-0.103664	0.471231	1.352578
C243	C	-0.603662	-0.028773	0.799163
C244	C	-0.103662	0.471227	1.299163
C245	C	-0.570541	-0.061869	0.772463
C246	C	-0.070541	0.438131	1.272463
C247	C	-0.603629	-0.028800	0.200931
C248	C	-0.103629	0.471200	0.700931
C249	C	-0.603626	-0.028808	0.147514
C250	C	-0.103626	0.471192	0.647514
C251	C	-0.537393	-0.095002	0.147531
C252	C	-0.037393	0.404998	0.647531
C253	C	-0.537397	-0.094996	0.200943
C254	C	-0.037397	0.405004	0.700943
C255	C	-0.570517	-0.061891	0.227641
C256	C	-0.070517	0.438109	0.727641
O257	O	-0.509267	-0.123125	0.285449
O258	O	-0.009267	0.376875	0.785449
O259	O	-0.631790	-0.000639	0.285466
O260	O	-0.131790	0.499361	0.785466
C261	C	-0.603641	-0.028777	0.526747
C262	C	-0.103641	0.471223	1.026747
C263	C	-0.570527	-0.061871	0.553457
C264	C	-0.070527	0.438129	1.053457
C265	C	-0.537410	-0.094968	0.526756
C266	C	-0.037410	0.405032	1.026756
C267	C	-0.570530	-0.061870	0.606872
C268	C	-0.070530	0.438130	1.106872
C269	C	-0.603646	-0.028773	0.633573
C270	C	-0.103646	0.471227	1.133573
C271	C	-0.636759	0.004323	0.606859
C272	C	-0.136759	0.504323	1.106859
C273	C	-0.636758	0.004320	0.553448
C274	C	-0.136758	0.504320	1.053448
C275	C	-0.504298	-0.128064	0.553470
C276	C	-0.004298	0.371936	1.053470
C277	C	-0.504302	-0.128058	0.606881
C278	C	-0.004302	0.371942	1.106881
C279	C	-0.537418	-0.094961	0.633582
C280	C	-0.037418	0.405039	1.133582
H281	H	-0.412743	-0.145454	0.000021
H282	H	0.087257	0.354546	0.500021
H283	H	-0.494146	0.073812	0.000058
H284	H	0.005854	0.573812	0.500058
H285	H	-0.477330	-0.155015	0.531734
H286	H	0.022670	0.344985	1.031734
H287	H	-0.695819	0.333889	0.000066
H288	H	-0.195819	0.833889	0.500066
H289	H	-0.445246	0.542327	0.000016
H290	H	0.054754	1.042327	0.500016
H291	H	-0.694889	0.425336	0.000058
H292	H	-0.194889	0.925336	0.500058
C293	C	0.277150	0.034345	0.000078
C294	C	0.777150	0.534345	0.500078
N295	N	0.292986	0.071085	0.000089
N296	N	0.792986	0.571085	0.500089
H297	H	-0.321291	-0.144530	0.000036
H298	H	0.178709	0.355470	0.500036
C299	C	0.196848	-0.151878	0.000048
C300	C	0.696848	0.348122	0.500048
N301	N	0.181013	-0.188618	0.000046
N302	N	0.681013	0.311382	0.500046
H303	H	-0.174750	-0.187180	0.000030
H304	H	0.325250	0.312820	0.500030
H305	H	0.033688	0.063392	0.000086
H306	H	0.533688	0.563392	0.500086
C307	C	-0.028977	-0.198314	0.000045
C308	C	0.471023	0.301686	0.500045
N309	N	-0.044810	-0.235055	0.000043
N310	N	0.455190	0.264945	0.500043
C311	C	-0.706953	0.479662	0.000054
C312	C	-0.206953	0.979662	0.500054
N313	N	-0.743694	0.463829	0.000058
N314	N	-0.243694	0.963829	0.500058
H315	H	-0.083302	-0.186251	0.000039
H316	H	0.416698	0.313749	0.500039
H317	H	0.293777	-0.138273	0.000053
H318	H	0.793777	0.361727	0.500053
H319	H	-0.209009	0.060929	0.000091
H320	H	0.290991	0.560929	0.500091
H321	H	-0.647846	0.710950	0.000048
H322	H	-0.147846	1.210950	0.500048
H323	H	-0.693347	0.576585	0.000048
H324	H	-0.193347	1.076585	0.500048
C325	C	0.171295	0.033272	0.000078
C326	C	0.671295	0.533272	0.500078
N327	N	0.145377	0.069587	0.000081
N328	N	0.645377	0.569587	0.500081
C329	C	-0.474293	0.785789	0.000023
C330	C	0.025707	1.285789	0.500023
N331	N	-0.437554	0.801624	0.000016
N332	N	0.062446	1.301624	0.500016
C333	C	-0.673186	0.040731	0.636241
C334	C	-0.173186	0.540731	1.136241
N335	N	-0.700619	0.068154	0.658374
N336	N	-0.200619	0.568154	1.158374
H337	H	-0.510434	-0.121950	0.222691
H338	H	-0.010434	0.378050	0.722691
C339	C	-0.475367	0.679934	0.000018
C340	C	0.024633	1.179934	0.500018
N341	N	-0.439051	0.654016	0.000013
N342	N	0.060949	1.154016	0.500013
C343	C	-0.501003	-0.131376	0.881965
C344	C	-0.001003	0.368624	1.381965
N345	N	-0.473561	-0.158800	0.904089
N346	N	0.026439	0.341200	1.404089
H347	H	-0.117558	0.061861	0.000090
H348	H	0.382442	0.561861	0.500090
H349	H	-0.477311	-0.155018	0.371487
H350	H	0.022689	0.344982	0.871487
H351	H	-0.446777	0.391080	0.000011
H352	H	0.053223	0.891080	0.500011
H353	H	-0.653168	0.187348	0.000065
H354	H	-0.153168	0.687348	0.500065
C355	C	0.076890	-0.197231	0.000050
C356	C	0.576890	0.302769	0.500050
N357	N	0.102825	-0.233536	0.000050
N358	N	0.602825	0.266464	0.500050
C359	C	-0.337895	0.028096	0.000054
C360	C	0.162105	0.528096	0.500054
N361	N	-0.322056	0.064833	0.000062
N362	N	0.177944	0.564833	0.500062
H363	H	-0.663720	0.031259	0.371469
H364	H	-0.163720	0.531259	0.871469
H365	H	-0.630629	-0.001821	0.874327
H366	H	-0.130629	0.498179	1.374327
C367	C	-0.433652	0.441938	0.000017
C368	C	0.066348	0.941938	0.500017
N369	N	-0.397337	0.416019	0.000015
N370	N	0.102663	0.916019	0.500015
C371	C	-0.640059	0.007603	0.118136
C372	C	-0.140059	0.507603	0.618136
N373	N	-0.667497	0.035028	0.096010
N374	N	-0.167497	0.535028	0.596010
C375	C	-0.066701	0.074986	0.000083
C376	C	0.433299	0.574986	0.500083
N377	N	-0.092620	0.111302	0.000083
N378	N	0.407380	0.611302	0.500083
H379	H	-0.434827	0.014492	0.000048
H380	H	0.065173	0.514492	0.500048
H381	H	-0.654093	0.095896	0.000082
H382	H	-0.154093	0.595896	0.500082
C383	C	-0.673185	0.040728	0.475988
C384	C	-0.173185	0.540728	0.975988
N385	N	-0.700628	0.068158	0.498100
N386	N	-0.200628	0.568158	0.998100
H387	H	-0.646911	0.802415	0.000041
H388	H	-0.146911	1.302415	0.500041
H389	H	-0.510456	-0.121918	0.777440
H390	H	-0.010456	0.378082	1.277440
H391	H	-0.630629	-0.001823	0.777418
H392	H	-0.130629	0.498177	1.277418
H393	H	-0.477317	-0.155019	0.468381
H394	H	0.022683	0.344981	0.968381
H395	H	-0.510432	-0.121951	0.125783
H396	H	-0.010432	0.378049	0.625783
C397	C	-0.467867	-0.164468	0.636256
C398	C	0.032133	0.335532	1.136256
N399	N	-0.440421	-0.191888	0.658380
N400	N	0.059579	0.308112	1.158380
H401	H	-0.447710	0.299629	0.000014
H402	H	0.052290	0.799629	0.500014
C403	C	-0.480543	0.170743	0.000049
C404	C	0.019457	0.670743	0.500049
N405	N	-0.443805	0.186582	0.000037
N406	N	0.056195	0.686582	0.500037
H407	H	-0.630598	-0.001842	0.222662
H408	H	-0.130598	0.498158	0.722662
H409	H	-0.663725	0.031269	0.531704
H410	H	-0.163725	0.531269	1.031704
