data_functionalizedCrystal
_audit_creation_method	'MofGen! by Chris Wilmer'
_symmetry_space_group_name_H-M	'P1'
_symmetry_Int_Tables_number	1
_symmetry_cell_setting	triclinic
loop_
_symmetry_equiv_pos_as_xyz
  x,y,z
_cell_length_a	12.837943
_cell_length_b	10.654550
_cell_length_c	11.892095
_cell_angle_alpha	93.928097
_cell_angle_beta	85.689438
_cell_angle_gamma	89.656922
loop_
_atom_site_label
_atom_site_type_symbol
_atom_site_fract_x
_atom_site_fract_y
_atom_site_fract_z
O1	O	1.384377	0.319511	-0.093978
O2	O	1.082456	0.303370	-0.093985
O3	O	1.240358	0.129459	-0.093977
O4	O	1.226475	0.493422	-0.093986
O5	O	1.227192	0.143935	0.094030
O6	O	1.069290	0.317845	0.094022
O7	O	1.371211	0.333987	0.094029
Zn8	Zn	1.218160	0.328214	0.123876
Zn9	Zn	1.235507	0.309142	-0.123831
O10	O	1.213309	0.507898	0.094021
C11	C	1.037213	0.305155	0.000018
C12	C	0.922020	0.288892	0.000015
C13	C	0.682466	0.484397	0.000027
C14	C	0.574230	0.469123	0.000025
C15	C	0.597310	0.243071	0.000018
C16	C	0.705546	0.258345	0.000020
C17	C	0.748119	0.379012	0.000023
C18	C	0.856358	0.394285	0.000016
C19	C	0.879435	0.168234	0.000017
C20	C	0.771199	0.152960	0.000016
C21	C	1.232756	0.089788	0.000025
C22	C	1.229706	-0.049989	0.000021
C23	C	1.322676	-0.119329	0.000027
C24	C	1.319805	-0.250664	0.000019
C25	C	1.130985	-0.243306	0.000004
C26	C	1.133858	-0.111974	0.000004
C27	C	1.418525	-0.057343	0.000044
C28	C	1.511502	-0.126683	0.000050
C29	C	1.508631	-0.258018	0.000042
C30	C	1.412782	-0.320013	0.000028
C31	C	1.416454	0.332202	0.000024
C32	C	1.531648	0.348464	0.000019
C33	C	1.220912	0.547569	0.000017
C34	C	1.223962	0.687345	0.000013
N35	N	1.206330	0.341231	0.292929
N36	N	1.247346	0.296117	-0.292885
C37	C	1.329670	0.205471	0.529583
C38	C	1.321408	0.214579	0.647925
C39	C	1.181539	0.368549	0.647956
C40	C	1.189801	0.359440	0.529614
C41	C	1.263870	0.277900	0.470432
C42	C	1.272137	0.268799	0.352089
C43	C	1.132263	0.422761	0.352122
C44	C	1.124001	0.431870	0.470463
H45	H	0.736520	0.054717	0.000027
C46	C	1.060644	0.501335	0.288040
C47	C	0.956533	0.470933	0.316861
C48	C	0.890535	0.543303	0.257861
H49	H	1.076032	0.484307	0.209067
H50	H	1.071098	0.588089	0.307459
H51	H	0.946083	0.384199	0.297434
H52	H	0.941112	0.487967	0.395824
H53	H	0.900990	0.630057	0.277280
H54	H	0.905933	0.526269	0.178891
H55	H	0.819889	0.522694	0.277415
H56	H	0.891019	0.492538	0.000020
C57	C	0.950682	0.053740	-0.000219
C58	C	0.938100	-0.025585	-0.096961
C59	C	1.003724	-0.131058	-0.097231
H60	H	0.933162	0.009691	0.065264
H61	H	1.021262	0.080057	-0.000282
H62	H	0.867536	-0.051902	-0.096888
H63	H	0.955628	0.018425	-0.162461
H64	H	1.074304	-0.104742	-0.097293
H65	H	0.986198	-0.175096	-0.031743
H66	H	0.995203	-0.184887	-0.162874
C67	C	1.615609	-0.059466	-0.000175
C68	C	1.678631	-0.101046	-0.096915
C69	C	1.774537	-0.039144	-0.097172
H70	H	1.649470	-0.077414	0.065310
H71	H	1.604053	0.028688	-0.000232
H72	H	1.690189	-0.189179	-0.096848
H73	H	1.644802	-0.083097	-0.162416
H74	H	1.762981	0.049010	-0.097228
H75	H	1.808388	-0.057096	-0.031683
H76	H	1.817305	-0.067339	-0.162813
C77	C	1.352580	0.180151	0.288034
C78	C	1.408415	0.118643	0.365172
C79	C	1.482517	0.036954	0.306211
H80	H	1.399418	0.226867	0.241855
H81	H	1.318127	0.119723	0.241903
H82	H	1.442867	0.179062	0.411285
H83	H	1.361606	0.071903	0.411354
H84	H	1.448064	-0.023474	0.260079
H85	H	1.529347	0.083681	0.260034
H86	H	1.520404	-0.004797	0.358540
H87	H	1.058153	-0.055516	0.000001
H88	H	1.121227	0.434928	0.696157
C89	C	0.728773	0.615351	-0.000209
C90	C	0.796991	0.623282	-0.096947
C91	C	0.839656	0.743903	-0.097210
H92	H	0.766003	0.631182	0.065277
H93	H	0.674203	0.675966	-0.000272
H94	H	0.851552	0.562686	-0.096873
H95	H	0.759785	0.607476	-0.162449
H96	H	0.785086	0.804519	-0.097274
H97	H	0.876881	0.759724	-0.031720
H98	H	0.885938	0.749305	-0.162851
C99	C	1.026839	-0.310432	0.000174
C100	C	0.963795	-0.268797	0.096881
C101	C	0.867842	-0.330590	0.097071
H102	H	1.038291	-0.398588	0.000234
H103	H	0.993053	-0.292413	-0.065357
H104	H	0.997574	-0.286826	0.162395
H105	H	0.952314	-0.180650	0.096841
H106	H	0.834056	-0.312571	0.031540
H107	H	0.879304	-0.418744	0.097128
H108	H	0.825051	-0.302342	0.162680
C109	C	1.043690	0.520372	0.534928
C110	C	1.050552	0.512871	0.651228
C111	C	0.976598	0.594398	0.710644
H112	H	0.975648	0.496995	0.515685
H113	H	1.056926	0.604153	0.515597
H114	H	1.037309	0.429107	0.670551
H115	H	1.118578	0.536259	0.670504
H116	H	0.989833	0.678179	0.691313
H117	H	0.908561	0.571014	0.691392
H118	H	0.981250	0.589328	0.789559
H119	H	1.410452	-0.426956	0.000009
H120	H	1.389987	0.139087	0.481396
C121	C	1.392978	0.135882	0.711943
C122	C	1.459625	0.062548	0.634779
C123	C	1.525579	-0.009957	0.693710
H124	H	1.352176	0.082520	0.758119
H125	H	1.433329	0.189815	0.758075
H126	H	1.419278	0.008621	0.588666
H127	H	1.500450	0.115878	0.588600
H128	H	1.565930	0.043976	0.739842
H129	H	1.484767	-0.063311	0.739885
H130	H	1.570812	-0.059714	0.641364
H131	H	0.520778	0.554939	0.000032
H132	H	0.562621	0.144837	0.000110
H133	H	1.420873	0.049596	0.000054
H134	H	1.584339	-0.314472	0.000036
