data_functionalizedCrystal
_audit_creation_method	'MofGen! by Chris Wilmer'
_symmetry_space_group_name_H-M	'P1'
_symmetry_Int_Tables_number	1
_symmetry_cell_setting	triclinic
loop_
_symmetry_equiv_pos_as_xyz
  x,y,z
_cell_length_a	17.019282
_cell_length_b	17.038272
_cell_length_c	10.065875
_cell_angle_alpha	99.426590
_cell_angle_beta	85.087387
_cell_angle_gamma	87.241387
loop_
_atom_site_label
_atom_site_type_symbol
_atom_site_fract_x
_atom_site_fract_y
_atom_site_fract_z
O1	O	1.052390	0.100583	0.010234
O2	O	1.552390	0.600583	0.510234
O3	O	0.826103	0.110599	-0.016373
O4	O	1.326103	0.610599	0.483627
O5	O	0.937900	-0.008238	-0.003217
O6	O	1.437900	0.491762	0.496783
O7	O	0.940592	0.219420	-0.002922
O8	O	1.440592	0.719420	0.497078
O9	O	0.916588	0.014514	0.221264
O10	O	1.416588	0.514514	0.721264
O11	O	0.804790	0.133351	0.208108
O12	O	1.304790	0.633351	0.708108
O13	O	1.031078	0.123336	0.234715
O14	O	1.531078	0.623336	0.734715
Zn15	Zn	0.914550	0.131956	0.257053
Zn16	Zn	1.414550	0.631956	0.757053
Zn17	Zn	0.942630	0.101979	-0.038710
Zn18	Zn	1.442630	0.601979	0.461290
O19	O	0.919280	0.242173	0.221559
O20	O	1.419280	0.742173	0.721559
C21	C	0.786350	0.121148	0.092446
C22	C	1.286350	0.621148	0.592446
C23	C	0.699650	0.118675	0.082252
C24	C	1.199650	0.618675	0.582252
C25	C	0.647306	0.129914	0.199831
C26	C	1.147306	0.629914	0.699831
C27	C	0.565843	0.127578	0.190256
C28	C	1.065843	0.627578	0.690256
C29	C	0.536725	0.114009	0.063102
C30	C	1.036725	0.614009	0.563102
C31	C	0.589077	0.102767	-0.054485
C32	C	1.089077	0.602767	0.445515
C33	C	0.670538	0.105097	-0.044910
C34	C	1.170538	0.605097	0.455090
C35	C	0.291345	0.106347	0.028067
C36	C	0.791345	0.606347	0.528067
C37	C	0.209876	0.104019	0.018500
C38	C	0.709876	0.604019	0.518500
C39	C	0.186648	0.128829	0.263242
C40	C	0.686648	0.628829	0.763242
C41	C	0.268112	0.131164	0.272807
C42	C	0.768112	0.631164	0.772807
C43	C	0.320456	0.119917	0.155220
C44	C	0.820456	0.619917	0.655220
C45	C	0.453457	0.111623	0.053312
C46	C	0.953457	0.611623	0.553312
C47	C	0.403723	0.122297	0.165011
C48	C	0.903723	0.622297	0.665011
C49	C	0.924798	-0.026017	0.108736
C50	C	1.424798	0.473983	0.608736
C51	C	0.917499	-0.112890	0.107877
C52	C	1.417499	0.387110	0.607877
C53	C	0.984511	-0.162267	0.115758
C54	C	1.484511	0.337733	0.615758
C55	C	0.977650	-0.243894	0.114938
C56	C	1.477650	0.256106	0.614938
C57	C	0.903774	-0.276142	0.106247
C58	C	1.403774	0.223858	0.606247
C59	C	0.836758	-0.226759	0.098362
C60	C	1.336758	0.273241	0.598362
C61	C	0.843621	-0.145135	0.099172
C62	C	1.343621	0.354865	0.599172
C63	C	0.879529	-0.522169	0.103378
C64	C	1.379529	-0.022169	0.603378
C65	C	0.872670	-0.603799	0.102572
C66	C	1.372670	-0.103799	0.602572
C67	C	1.013563	-0.620929	0.119146
C68	C	1.513563	-0.120929	0.619146
C69	C	1.020419	-0.539301	0.119964
C70	C	1.520419	-0.039301	0.619964
C71	C	0.953403	-0.489926	0.112071
C72	C	1.453403	0.010074	0.612071
C73	C	0.896759	-0.359578	0.105413
C74	C	1.396759	0.140422	0.605413
C75	C	0.960421	-0.406493	0.112896
C76	C	1.460421	0.093507	0.612896
C77	C	1.070831	0.112786	0.125893
C78	C	1.570831	0.612786	0.625893
C79	C	1.157531	0.115258	0.136078
C80	C	1.657531	0.615258	0.636078
N81	N	0.895392	0.152414	0.458904
N82	N	1.395392	0.652414	0.958904
C83	C	0.932383	0.259951	0.109603
C84	C	1.432383	0.759951	0.609603
C85	C	0.939683	0.346824	0.110453
C86	C	1.439683	0.846824	0.610453
N87	N	0.961794	0.081514	-0.240561
N88	N	1.461794	0.581514	0.259439
C89	C	0.935959	0.109092	0.531456
C90	C	1.435959	0.609092	1.031456
C91	C	0.921221	0.124843	0.686889
C92	C	1.421221	0.624843	1.186889
H93	H	0.523227	0.136717	0.286001
H94	H	1.023227	0.636717	0.786001
N95	N	0.797203	-0.636743	0.093728
N96	N	1.297203	-0.136743	0.593728
N97	N	0.741820	-0.612305	0.182903
N98	N	1.241820	-0.112305	0.682903
H99	H	0.688524	-0.635573	0.176667
H100	H	1.188524	-0.135573	0.676667
N101	N	1.082018	-0.671369	0.127168
N102	N	1.582018	-0.171369	0.627168
N103	N	1.138933	-0.677574	0.038174
N104	N	1.638933	-0.177574	0.538174
H105	H	1.187284	-0.713198	0.043834
H106	H	1.687284	-0.213198	0.543834
N107	N	0.433465	0.136182	0.294888
N108	N	0.933465	0.636182	0.794888
N109	N	0.413058	0.199276	0.375311
N110	N	0.913058	0.699276	0.875311
H111	H	0.434071	0.209089	0.467037
H112	H	0.934071	0.709089	0.967037
H113	H	1.032218	-0.284094	0.121359
H114	H	1.532218	0.215906	0.621359
H115	H	1.007436	0.032757	0.706489
H116	H	1.507436	0.532757	1.206489
H117	H	0.836609	-0.385843	0.098340
H118	H	1.336609	0.114157	0.598340
H119	H	0.291812	0.142209	0.376350
H120	H	0.791812	0.642209	0.876350
H121	H	0.981598	0.060337	0.478503
H122	H	1.481598	0.560337	0.978503
H123	H	0.849747	0.201163	0.511858
H124	H	1.349747	0.701163	1.011858
H125	H	0.875573	0.173595	0.739838
H126	H	1.375573	0.673595	1.239838
H127	H	0.824959	-0.481977	0.096951
H128	H	1.324959	0.018023	0.596951
N129	N	1.059966	-0.129315	0.124650
N130	N	1.559966	0.370685	0.624650
N131	N	1.070529	-0.076093	0.221575
N132	N	1.570529	0.423907	0.721575
H133	H	1.123821	-0.052821	0.227854
H134	H	1.623821	0.447179	0.727854
N135	N	1.095888	-0.506376	0.128844
N136	N	1.595888	-0.006376	0.628844
N137	N	1.155716	-0.550473	0.135877
N138	N	1.655716	-0.050473	0.635877
H139	H	1.209017	-0.527221	0.142152
H140	H	1.709017	-0.027221	0.642152
H141	H	0.671005	0.140970	0.303373
H142	H	1.171005	0.640970	0.803373
H143	H	0.776608	-0.253023	0.091277
H144	H	1.276608	0.246977	0.591277
N145	N	0.133168	0.140316	0.383334
N146	N	0.633168	0.640316	0.883334
N147	N	0.060436	0.138237	0.374774
N148	N	0.560436	0.638237	0.874774
H149	H	0.022665	0.146348	0.459593
H150	H	0.522665	0.646348	0.959593
N151	N	0.180146	0.090155	-0.111403
N152	N	0.680146	0.590155	0.388597
N153	N	0.226889	0.080113	-0.216381
N154	N	0.726889	0.580113	0.283619
H155	H	0.205893	0.070322	-0.308121
H156	H	0.705893	0.570322	0.191879
H157	H	0.333955	0.097187	-0.067681
H158	H	0.833955	0.597187	0.432319
H159	H	0.565364	0.091713	-0.158017
H160	H	1.065364	0.591713	0.341983
H161	H	0.789052	-0.104932	0.092754
H162	H	1.289052	0.395068	0.592754
H163	H	0.429741	0.100575	-0.050218
H164	H	0.929741	0.600575	0.449782
N165	N	0.724000	0.093608	-0.165026
N166	N	1.224000	0.593608	0.334974
N167	N	0.697995	0.081491	-0.278550
N168	N	1.197995	0.581491	0.221450
H169	H	0.735751	0.073372	-0.363388
H170	H	1.235751	0.573372	0.136612
H171	H	1.020572	-0.380237	0.119942
H172	H	1.520572	0.119763	0.619942
