data_functionalizedCrystal
_audit_creation_method	'MofGen! by Chris Wilmer'
_symmetry_space_group_name_H-M	'P1'
_symmetry_Int_Tables_number	1
_symmetry_cell_setting	triclinic
loop_
_symmetry_equiv_pos_as_xyz
  x,y,z
_cell_length_a	15.995350
_cell_length_b	15.995343
_cell_length_c	13.448316
_cell_angle_alpha	90.008378
_cell_angle_beta	90.001430
_cell_angle_gamma	83.490780
loop_
_atom_site_label
_atom_site_type_symbol
_atom_site_fract_x
_atom_site_fract_y
_atom_site_fract_z
O1	O	1.110983	0.107926	0.082618
O2	O	0.867208	0.121253	0.082640
O3	O	0.995763	-0.007299	0.082610
O4	O	0.982428	0.236477	0.082648
O5	O	0.995750	-0.007300	-0.082774
O6	O	0.867195	0.121252	-0.082744
O7	O	1.110971	0.107924	-0.082766
Cu8	Cu	0.989082	0.114588	-0.097856
Cu9	Cu	0.989097	0.114589	0.097730
O10	O	0.982416	0.236476	-0.082736
C11	C	0.836007	0.120702	-0.000049
C12	C	0.743056	0.119050	-0.000042
C13	C	0.995206	-0.038494	-0.000084
C14	C	0.993557	-0.131445	-0.000092
C15	C	0.990563	-0.301631	-0.000069
C16	C	0.897766	-0.324977	-0.000059
C17	C	0.896020	-0.421655	0.000328
C18	C	0.987615	-0.469191	-0.000048
C19	C	1.034282	-0.440092	0.094200
C20	C	1.035383	-0.343299	0.094268
C21	C	1.036727	-0.343405	-0.093811
C22	C	1.033301	-0.439900	-0.095038
C23	C	0.985953	-0.563889	-0.000032
C24	C	0.992228	-0.206933	-0.000078
C25	C	0.405309	0.113118	-0.000064
C26	C	0.452746	0.021565	-0.000447
C27	C	0.549436	0.023217	-0.000067
C28	C	0.572869	0.116060	-0.000053
C29	C	0.531788	0.161217	0.094392
C30	C	0.435153	0.158917	0.094464
C31	C	0.434799	0.160808	-0.093608
C32	C	0.531744	0.160786	-0.094850
C33	C	0.667567	0.117728	-0.000044
C34	C	0.310611	0.111452	-0.000066
C35	C	1.142172	0.108476	-0.000074
C36	C	1.235122	0.110128	-0.000075
C37	C	0.982972	0.267672	-0.000039
C38	C	0.984621	0.360622	-0.000025
N39	N	0.989077	0.114587	-0.235420
C40	C	1.039854	0.165401	-0.287452
C41	C	1.039864	0.165398	-0.391556
C42	C	0.989093	0.114583	-0.443624
C43	C	0.938314	0.063763	-0.391585
C44	C	0.938309	0.063762	-0.287483
C45	C	0.938327	0.063768	-0.608565
C46	C	0.938331	0.063770	-0.712673
C47	C	1.039883	0.165404	-0.712637
C48	C	1.039877	0.165403	-0.608536
C49	C	0.989097	0.114584	-0.556503
N50	N	0.989108	0.114584	0.235294
H51	H	0.859482	-0.440679	-0.067213
C52	C	0.882460	0.007866	-0.448852
C53	C	0.786332	0.020152	-0.434533
C54	C	0.730473	-0.035744	-0.491794
C55	C	0.770740	-0.103926	-0.563375
C56	C	0.866873	-0.116215	-0.577697
C57	C	0.922733	-0.060319	-0.520435
H58	H	0.756519	0.070627	-0.381542
H59	H	0.659309	-0.026646	-0.481192
H60	H	0.729390	-0.145304	-0.605763
H61	H	0.896686	-0.166691	-0.630687
H62	H	0.993897	-0.069417	-0.531037
H63	H	1.105029	-0.329384	-0.094732
C64	C	1.127313	-0.323607	0.099697
C65	C	1.156542	-0.272264	0.187415
C66	C	1.248470	-0.252578	0.192852
C67	C	1.311169	-0.284236	0.110571
C68	C	1.281941	-0.335582	0.022846
C69	C	1.190013	-0.355268	0.017409
H70	H	1.110127	-0.248826	0.248330
H71	H	1.270106	-0.214568	0.257792
H72	H	1.379220	-0.269663	0.114596
H73	H	1.328355	-0.359020	-0.038069
H74	H	1.168377	-0.393278	-0.047531
H75	H	1.081216	0.206785	-0.566144
C76	C	0.849164	-0.287147	-0.091351
C77	C	0.769361	-0.224815	-0.077141
C78	C	0.720759	-0.186977	-0.168438
C79	C	0.751962	-0.211471	-0.273945
C80	C	0.831769	-0.273806	-0.288160
C81	C	0.880370	-0.311644	-0.196863
H82	H	0.746259	-0.206680	0.000966
H83	H	0.661681	-0.140832	-0.157914
H84	H	0.715984	-0.183461	-0.341528
H85	H	0.854870	-0.291941	-0.366267
H86	H	0.939449	-0.357789	-0.207387
C87	C	0.391890	0.251996	-0.094466
C88	C	0.330396	0.283073	-0.010742
C89	C	0.287483	0.374258	-0.011590
C90	C	0.306064	0.434365	-0.096162
C91	C	0.367562	0.403289	-0.179892
C92	C	0.410474	0.312105	-0.179044
H93	H	0.316638	0.238577	0.051868
H94	H	0.241958	0.397262	0.050392
H95	H	0.274298	0.501865	-0.096790
H96	H	0.381319	0.447785	-0.242503
H97	H	0.455999	0.289101	-0.241027
C98	C	1.095705	0.221298	-0.230181
C99	C	1.151563	0.277189	-0.287421
C100	C	1.207419	0.333085	-0.230153
C101	C	1.207417	0.333090	-0.115646
C102	C	1.151556	0.277198	-0.058400
C103	C	1.095701	0.221302	-0.115667
H104	H	1.151567	0.277187	-0.372192
H105	H	1.248770	0.374460	-0.272531
H106	H	1.248764	0.374468	-0.073253
H107	H	1.151553	0.277200	0.026371
H108	H	1.054349	0.179926	-0.073289
C109	C	0.407072	0.120369	-0.190325
C110	C	0.348878	0.172685	-0.263977
C111	C	0.321157	0.132235	-0.360689
C112	C	0.351630	0.039470	-0.383749
C113	C	0.409828	-0.012852	-0.310096
C114	C	0.437549	0.027598	-0.213384
H115	H	0.326316	0.241361	-0.246908
H116	H	0.278074	0.170968	-0.415212
H117	H	0.331109	0.009526	-0.455341
H118	H	0.432389	-0.081528	-0.327165
H119	H	0.480631	-0.011134	-0.158860
H120	H	0.577860	-0.012279	-0.067770
H121	H	0.560169	0.129854	0.164671
H122	H	0.862389	-0.295987	0.067434
H123	H	0.896988	0.022393	-0.755065
C124	C	1.095726	0.221298	-0.448778
C125	C	1.191850	0.209013	-0.434430
C126	C	1.247720	0.264915	-0.491645
C127	C	1.207465	0.333101	-0.563208
C128	C	1.111335	0.345389	-0.577558
C129	C	1.055465	0.289487	-0.520343
H130	H	1.221654	0.158535	-0.381453
H131	H	1.318882	0.255819	-0.481022
H132	H	1.248823	0.374483	-0.605561
H133	H	1.081531	0.395867	-0.630535
H134	H	0.984304	0.298583	-0.530967
H135	H	1.081226	0.206786	-0.755007
H136	H	0.896978	0.022384	-0.566203
H137	H	0.896961	0.022384	-0.245120
H138	H	0.859675	-0.440086	0.068296
C139	C	0.991041	-0.467215	0.189332
C140	C	0.913449	-0.515729	0.181693
C141	C	0.870202	-0.542850	0.276821
C142	C	0.904546	-0.521456	0.379589
C143	C	0.982142	-0.472939	0.387232
C144	C	1.025389	-0.445818	0.292103
H145	H	0.888022	-0.531569	0.105614
H146	H	0.812761	-0.578765	0.271162
H147	H	0.872532	-0.541532	0.450008
H148	H	1.007569	-0.457099	0.463310
H149	H	1.082830	-0.409903	0.297762
C150	C	0.427715	-0.027879	-0.091944
C151	C	0.466500	-0.119470	-0.107955
C152	C	0.441463	-0.168914	-0.199456
C153	C	0.377642	-0.126768	-0.274947
C154	C	0.338853	-0.035172	-0.258939
C155	C	0.363890	0.014273	-0.167437
H156	H	0.513747	-0.150674	-0.052070
H157	H	0.470177	-0.236720	-0.211306
H158	H	0.359108	-0.163370	-0.342682
H159	H	0.291606	-0.003968	-0.314824
H160	H	0.335176	0.082078	-0.155588
H161	H	1.003452	-0.316507	0.164995
C162	C	0.987387	-0.464983	-0.189230
C163	C	0.894492	-0.431087	-0.206224
C164	C	0.848571	-0.456176	-0.300410
C165	C	0.895544	-0.515162	-0.377602
C166	C	0.988443	-0.549061	-0.360610
C167	C	1.034365	-0.523972	-0.266425
H168	H	0.859716	-0.387419	-0.149080
H169	H	0.779800	-0.431081	-0.312987
H170	H	0.861550	-0.533734	-0.447324
H171	H	1.023220	-0.592729	-0.417755
H172	H	1.103136	-0.549067	-0.253847
C173	C	0.997166	-0.305231	-0.190356
C174	C	1.032330	-0.336661	-0.291947
C175	C	0.992758	-0.298486	-0.388486
C176	C	0.918023	-0.228882	-0.383434
C177	C	0.882855	-0.197449	-0.281839
C178	C	0.922427	-0.235624	-0.185300
H179	H	1.087657	-0.388189	-0.295691
H180	H	1.018792	-0.321755	-0.463693
H181	H	0.888730	-0.200622	-0.454898
H182	H	0.827528	-0.145920	-0.278096
H183	H	0.896393	-0.212355	-0.110093
C184	C	0.426286	-0.027653	0.090528
C185	C	0.361851	0.014921	0.165059
C186	C	0.335390	-0.034295	0.256035
C187	C	0.373365	-0.126085	0.272480
C188	C	0.437804	-0.168664	0.197946
C189	C	0.464264	-0.119448	0.106970
H190	H	0.333736	0.082873	0.152888
H191	H	0.287688	-0.002774	0.311210
H192	H	0.353777	-0.162517	0.339826
H193	H	0.465918	-0.236616	0.210118
H194	H	0.511967	-0.150968	0.051795
C195	C	0.410420	0.114426	0.189820
C196	C	0.349086	0.161511	0.264527
C197	C	0.324359	0.117017	0.359884
C198	C	0.360966	0.025438	0.380534
C199	C	0.422304	-0.021652	0.305826
C200	C	0.447031	0.022842	0.210469
H201	H	0.321984	0.229308	0.249242
H202	H	0.278952	0.151877	0.415188
H203	H	0.342661	-0.007500	0.451123
H204	H	0.449406	-0.089450	0.321111
H205	H	0.492438	-0.012018	0.155165
C206	C	0.550866	0.253364	0.099160
C207	C	0.604096	0.288763	0.017153
C208	C	0.623174	0.380910	0.021918
C209	C	0.589021	0.437657	0.108691
C210	C	0.535788	0.402258	0.190705
C211	C	0.516710	0.310112	0.185939
H212	H	0.629381	0.246755	-0.047087
H213	H	0.662581	0.407114	-0.038794
H214	H	0.603144	0.505869	0.112219
H215	H	0.510503	0.444267	0.254945
H216	H	0.477303	0.283908	0.246652
H217	H	0.577300	-0.012518	0.067743
H218	H	1.100137	-0.472848	-0.101019
H219	H	0.402903	0.226134	0.098759
H220	H	1.101693	-0.471937	0.097436
C221	C	0.552491	0.252253	-0.102541
C222	C	0.600213	0.280533	-0.193782
C223	C	0.620959	0.372004	-0.201462
C224	C	0.593983	0.435195	-0.117903
C225	C	0.546259	0.406916	-0.026656
C226	C	0.525512	0.315445	-0.018976
H227	H	0.620185	0.233755	-0.255643
H228	H	0.656288	0.392938	-0.269010
H229	H	0.609341	0.502907	-0.123589
H230	H	0.526287	0.453694	0.035205
H231	H	0.490183	0.294511	0.048572
H232	H	0.559057	0.127821	-0.164720
