data_functionalizedCrystal
_audit_creation_method	'MofGen! by Chris Wilmer'
_symmetry_space_group_name_H-M	'P1'
_symmetry_Int_Tables_number	1
_symmetry_cell_setting	triclinic
loop_
_symmetry_equiv_pos_as_xyz
  x,y,z
_cell_length_a	23.532407
_cell_length_b	14.519709
_cell_length_c	13.596369
_cell_angle_alpha	89.993066
_cell_angle_beta	90.000007
_cell_angle_gamma	83.264411
loop_
_atom_site_label
_atom_site_type_symbol
_atom_site_fract_x
_atom_site_fract_y
_atom_site_fract_z
O1	O	0.755765	0.111951	-0.081671
O2	O	1.089099	0.445284	0.251663
O3	O	1.422432	0.778617	0.584996
O4	O	0.589975	0.128149	-0.081700
O5	O	0.923308	0.461482	0.251633
O6	O	1.256642	0.794816	0.584967
O7	O	0.677266	-0.014241	-0.081676
O8	O	1.010599	0.319093	0.251658
O9	O	1.343932	0.652426	0.584991
O10	O	0.668474	0.254340	-0.081695
O11	O	1.001808	0.587674	0.251638
O12	O	1.335141	0.921007	0.584972
O13	O	0.677257	-0.014248	0.081907
O14	O	1.010590	0.319085	0.415240
O15	O	1.343924	0.652419	0.748574
O16	O	0.589966	0.128142	0.081883
O17	O	0.923300	0.461475	0.415216
O18	O	1.256633	0.794808	0.748550
O19	O	0.755756	0.111943	0.081912
O20	O	1.089090	0.445277	0.415245
O21	O	1.422423	0.778610	0.748579
Zn22	Zn	0.672860	0.120041	0.107870
Zn23	Zn	1.006193	0.453375	0.441203
Zn24	Zn	1.339527	0.786708	0.774537
Zn25	Zn	0.672871	0.120051	-0.107658
Zn26	Zn	1.006205	0.453384	0.225676
Zn27	Zn	1.339538	0.786718	0.559009
O28	O	0.668466	0.254333	0.081888
O29	O	1.001799	0.587666	0.415221
O30	O	1.335132	0.921000	0.748555
C31	C	0.676852	-0.048599	0.000116
C32	C	1.010185	0.284734	0.333449
C33	C	1.343518	0.618067	0.666782
C34	C	0.675624	-0.150966	0.000116
C35	C	1.008957	0.182367	0.333449
C36	C	1.342291	0.515701	0.666783
C37	C	0.568753	0.127733	0.000088
C38	C	0.902086	0.461066	0.333421
C39	C	1.235419	0.794399	0.666755
C40	C	0.505530	0.126493	0.000077
C41	C	0.838863	0.459826	0.333410
C42	C	1.172197	0.793159	0.666744
C43	C	0.671104	-0.525808	0.000090
C44	C	1.004437	-0.192475	0.333423
C45	C	1.337771	0.140858	0.666756
C46	C	0.672359	-0.421515	0.000097
C47	C	1.005692	-0.088182	0.333431
C48	C	1.339026	0.245151	0.666764
C49	C	0.673364	-0.338390	0.000104
C50	C	1.006697	-0.005057	0.333437
C51	C	1.340030	0.328276	0.666771
C52	C	0.674619	-0.234091	0.000110
C53	C	1.007953	0.099243	0.333443
C54	C	1.341286	0.432576	0.666776
C55	C	0.106772	0.202977	0.000116
C56	C	0.440105	0.536311	0.333449
C57	C	0.773439	0.869644	0.666783
C58	C	0.047367	0.201825	0.000122
C59	C	0.380700	0.535159	0.333455
C60	C	0.714033	0.868492	0.666789
O61	O	0.010942	0.272727	0.000153
O62	O	0.344275	0.606061	0.333486
O63	O	0.677609	0.939394	0.666819
N64	N	0.024358	0.117175	0.000127
N65	N	0.357692	0.450508	0.333460
N66	N	0.691025	0.783841	0.666793
C67	C	0.060759	0.033671	0.000135
C68	C	0.394093	0.367004	0.333468
C69	C	0.727426	0.700337	0.666802
O70	O	0.035734	-0.038437	0.000140
O71	O	0.369068	0.294896	0.333474
O72	O	0.702401	0.628230	0.666807
C73	C	0.120164	0.034824	0.000136
C74	C	0.453497	0.368157	0.333469
C75	C	0.786830	0.701490	0.666803
C76	C	0.143168	0.119480	0.000121
C77	C	0.476502	0.452813	0.333455
C78	C	0.809835	0.786146	0.666788
C79	C	0.129777	0.287626	0.000103
C80	C	0.463111	0.620960	0.333436
C81	C	0.796444	0.954293	0.666769
C82	C	0.189179	0.288778	0.000095
C83	C	0.522512	0.622111	0.333428
C84	C	0.855845	0.955445	0.666761
C85	C	0.225575	0.205281	0.000100
C86	C	0.558908	0.538614	0.333434
C87	C	0.892241	0.871947	0.666767
C88	C	0.202570	0.120631	0.000114
C89	C	0.535903	0.453965	0.333447
C90	C	0.869236	0.787298	0.666780
C91	C	0.156563	-0.048679	0.000151
C92	C	0.489897	0.284654	0.333485
C93	C	0.823230	0.617988	0.666818
C94	C	0.215971	-0.047519	0.000153
C95	C	0.549304	0.285815	0.333486
C96	C	0.882638	0.619148	0.666820
C97	C	0.238976	0.037137	0.000139
C98	C	0.572309	0.370471	0.333472
C99	C	0.905642	0.703804	0.666805
C100	C	0.298367	0.038286	0.000111
C101	C	0.631700	0.371619	0.333444
C102	C	0.965034	0.704952	0.666778
N103	N	0.321375	0.122936	0.000107
N104	N	0.654709	0.456269	0.333440
N105	N	0.988042	0.789603	0.666773
C106	C	0.284979	0.206434	0.000101
C107	C	0.618312	0.539767	0.333434
C108	C	0.951646	0.873100	0.666768
C109	C	-0.063994	0.031256	0.000135
C110	C	0.269339	0.364589	0.333468
C111	C	0.602673	0.697922	0.666801
C112	C	-0.123397	0.030102	0.000127
C113	C	0.209936	0.363435	0.333460
C114	C	0.543269	0.696768	0.666793
C115	C	-0.136786	0.198257	0.000116
C116	C	0.196547	0.531590	0.333449
C117	C	0.529881	0.864923	0.666782
C118	C	-0.077382	0.199410	0.000117
C119	C	0.255952	0.532743	0.333450
C120	C	0.589285	0.866076	0.666783
C121	C	-0.040986	0.115906	0.000130
C122	C	0.292347	0.449240	0.333464
C123	C	0.625681	0.782573	0.666797
C124	C	0.409727	0.208846	0.000084
C125	C	0.743060	0.542179	0.333417
C126	C	1.076393	0.875512	0.666750
C127	C	0.469134	0.209990	0.000072
C128	C	0.802467	0.543323	0.333405
C129	C	1.135801	0.876657	0.666738
C130	C	0.482517	0.041836	0.000088
C131	C	0.815851	0.375169	0.333421
C132	C	1.149184	0.708502	0.666754
C133	C	0.423115	0.040691	0.000095
C134	C	0.756449	0.374024	0.333428
C135	C	1.089782	0.707358	0.666761
C136	C	0.386721	0.124204	0.000096
C137	C	0.720054	0.457537	0.333429
C138	C	1.053388	0.790870	0.666763
O139	O	0.334827	-0.032579	0.000084
O140	O	0.668160	0.300754	0.333418
O141	O	1.001493	0.634087	0.666751
O142	O	0.310012	0.278529	0.000109
O143	O	0.643346	0.611863	0.333442
O144	O	0.976679	0.945196	0.666775
C145	C	0.776979	0.112360	0.000122
C146	C	1.110312	0.445693	0.333455
C147	C	1.443645	0.779026	0.666789
C148	C	0.840201	0.113600	0.000127
C149	C	1.173535	0.446933	0.333460
C150	C	1.506868	0.780266	0.666793
C151	C	0.668880	0.288692	0.000094
C152	C	1.002213	0.622025	0.333428
C153	C	1.335546	0.955358	0.666761
C154	C	0.670107	0.391058	0.000087
C155	C	1.003441	0.724392	0.333421
C156	C	1.336774	1.057725	0.666754
N157	N	0.672856	0.120034	0.254962
N158	N	1.006190	0.453367	0.588295
N159	N	1.339523	0.786701	0.921628
N160	N	0.672880	0.120051	-0.254750
N161	N	1.006213	0.453384	0.078584
N162	N	1.339546	0.786718	0.411917
C163	C	0.672871	0.120052	0.656253
C164	C	1.006204	0.453385	0.989586
C165	C	1.339537	0.786719	1.322919
C166	C	0.672865	0.120050	0.544601
C167	C	1.006198	0.453383	0.877935
C168	C	1.339532	0.786717	1.211268
C169	C	0.672864	0.120044	0.455611
C170	C	1.006197	0.453377	0.788944
C171	C	1.339530	0.786710	1.122277
C172	C	0.672858	0.120040	0.343952
C173	C	1.006191	0.453374	0.677286
C174	C	1.339524	0.786707	1.010619
H175	H	0.487861	0.278930	0.000059
H176	H	0.821194	0.612263	0.333393
H177	H	1.154527	0.945597	0.666726
H178	H	-0.034363	-0.036747	0.000137
H179	H	0.298970	0.296586	0.333470
H180	H	0.632303	0.629920	0.666804
H181	H	0.137844	-0.117615	0.000164
H182	H	0.471177	0.215718	0.333497
H183	H	0.804511	0.549052	0.666830
C184	C	0.364085	-0.058164	0.084203
C185	C	0.697418	0.275170	0.417536
C186	C	1.030752	0.608503	0.750870
C187	C	0.397825	-0.052363	0.000103
C188	C	0.731158	0.280971	0.333436
C189	C	1.064492	0.614304	0.666770
H190	H	0.348474	-0.115610	0.084210
H191	H	0.681807	0.217723	0.417543
H192	H	1.015140	0.551056	0.750877
H193	H	0.386987	-0.054222	0.141230
H194	H	0.720320	0.279111	0.474563
H195	H	1.053654	0.612445	0.807897
H196	H	0.333906	-0.008598	0.084194
H197	H	0.667240	0.324735	0.417528
H198	H	1.000573	0.658068	0.750861
H199	H	0.428007	-0.101924	0.000115
H200	H	0.761340	0.231409	0.333448
H201	H	1.094673	0.564742	0.666782
H202	H	0.374922	-0.056313	-0.056939
H203	H	0.708255	0.277020	0.276394
H204	H	1.041589	0.610353	0.609728
H205	H	0.100149	0.355624	0.000102
H206	H	0.433482	0.688957	0.333435
H207	H	0.766815	1.022291	0.666769
H208	H	0.512162	-0.026146	0.000088
H209	H	0.845495	0.307188	0.333422
H210	H	1.178828	0.640521	0.666755
C211	C	-0.018355	0.298274	-0.083989
C212	C	0.314979	0.631607	0.249344
C213	C	0.648312	0.964941	0.582677
C214	C	-0.052100	0.292467	0.000103
C215	C	0.281233	0.625800	0.333437
C216	C	0.614567	0.959133	0.666770
H217	H	-0.002753	0.355730	-0.083998
H218	H	0.330580	0.689063	0.249335
H219	H	0.663913	1.022396	0.582668
H220	H	0.011826	0.248724	-0.083974
H221	H	0.345159	0.582058	0.249359
H222	H	0.678493	0.915391	0.582693
H223	H	-0.041255	0.294322	-0.141028
H224	H	0.292078	0.627655	0.192306
H225	H	0.625411	0.960988	0.525639
H226	H	-0.029198	0.296412	0.057142
H227	H	0.304135	0.629746	0.390475
H228	H	0.637468	0.963079	0.723808
H229	H	-0.082285	0.342030	0.000097
H230	H	0.251049	0.675364	0.333430
H231	H	0.584382	1.008697	0.666763
H232	H	0.245602	-0.115519	0.000165
H233	H	0.578936	0.217814	0.333498
H234	H	0.912269	0.551148	0.666831
H235	H	0.380101	0.276850	0.000088
H236	H	0.713434	0.610183	0.333421
H237	H	1.046767	0.943517	0.666754
C238	C	-0.233798	0.271142	0.000127
C239	C	0.099535	0.604475	0.333460
C240	C	0.432869	0.937809	0.666793
C241	C	-0.176801	0.290041	0.000118
C242	C	0.156532	0.623374	0.333451
C243	C	0.489866	0.956708	0.666785
H244	H	-0.258501	0.327803	0.000133
H245	H	0.074832	0.661137	0.333466
H246	H	0.408166	0.994470	0.666799
H247	H	-0.240778	0.236418	-0.056913
H248	H	0.092555	0.569751	0.276420
H249	H	0.425889	0.903084	0.609754
H250	H	-0.240771	0.236400	0.057177
H251	H	0.092562	0.569734	0.390511
H252	H	0.425896	0.903067	0.723844
H253	H	-0.169827	0.324777	-0.056937
H254	H	0.163507	0.658111	0.276396
H255	H	0.496840	0.991444	0.609730
H256	H	-0.169818	0.324780	0.057163
H257	H	0.163515	0.658114	0.390497
H258	H	0.496849	0.991447	0.723830
H259	H	-0.142122	-0.038834	0.000123
H260	H	0.191211	0.294500	0.333456
H261	H	0.524545	0.627833	0.666790
C262	C	0.169959	0.454870	0.000101
C263	C	0.503293	0.788203	0.333435
C264	C	0.836626	1.121537	0.666768
C265	C	0.214460	0.381836	0.000097
C266	C	0.547793	0.715169	0.333430
C267	C	0.881126	1.048502	0.666763
H268	H	0.185565	0.512322	0.000112
H269	H	0.518899	0.845655	0.333445
H270	H	0.852232	1.178988	0.666779
H271	H	0.147071	0.450926	-0.056942
H272	H	0.480405	0.784259	0.276391
H273	H	0.813738	1.117593	0.609725
H274	H	0.147068	0.450900	0.057148
H275	H	0.480401	0.784233	0.390482
H276	H	0.813735	1.117567	0.723815
H277	H	0.237349	0.385802	-0.056955
H278	H	0.570682	0.719135	0.276379
H279	H	0.904016	1.052468	0.609712
H280	H	0.237358	0.385781	0.057146
H281	H	0.570691	0.719115	0.390479
H282	H	0.904024	1.052448	0.723812
