data_functionalizedCrystal
_audit_creation_method	'MofGen! by Chris Wilmer'
_symmetry_space_group_name_H-M	'P1'
_symmetry_Int_Tables_number	1
_symmetry_cell_setting	triclinic
loop_
_symmetry_equiv_pos_as_xyz
  x,y,z
_cell_length_a	19.805407
_cell_length_b	12.594510
_cell_length_c	19.805405
_cell_angle_alpha	89.959175
_cell_angle_beta	90.026410
_cell_angle_gamma	89.978247
loop_
_atom_site_label
_atom_site_type_symbol
_atom_site_fract_x
_atom_site_fract_y
_atom_site_fract_z
Zn1	Zn	1.034750	-0.601830	-0.269402
Zn2	Zn	1.034661	-0.423831	-0.382613
Zn3	Zn	0.921561	-0.423857	-0.269443
Zn4	Zn	0.921528	-0.601760	-0.382554
O5	O	0.978125	-0.512820	-0.326003
O6	O	1.129455	-0.578237	-0.284427
O7	O	1.019634	-0.274889	-0.367643
O8	O	0.936626	-0.447506	-0.174721
O9	O	1.129389	-0.447462	-0.367603
O10	O	1.019786	-0.578262	-0.174691
O11	O	0.936540	-0.274908	-0.284497
O12	O	0.826840	-0.447437	-0.284440
O13	O	0.936572	-0.750715	-0.367502
O14	O	0.826816	-0.578142	-0.367543
O15	O	1.019755	-0.750767	-0.284370
O16	O	1.019603	-0.447394	-0.477322
O17	O	0.936485	-0.578117	-0.477279
C18	C	0.802269	-0.512785	-0.325990
C19	C	0.727037	-0.512796	-0.326001
C20	C	0.691698	-0.580743	-0.369337
C21	C	0.621010	-0.580758	-0.369339
C22	C	0.585661	-0.512820	-0.326006
C23	C	0.621005	-0.444869	-0.282665
C24	C	0.691692	-0.444860	-0.282661
C25	C	0.335932	-0.444904	-0.282680
C26	C	0.265240	-0.444916	-0.282689
C27	C	0.265249	-0.580802	-0.369358
C28	C	0.335937	-0.580793	-0.369354
C29	C	0.371274	-0.512847	-0.326010
C30	C	0.447922	-0.512833	-0.326008
C31	C	0.509014	-0.512827	-0.326011
C32	C	0.978170	-0.790441	-0.325925
C33	C	0.978189	-0.908746	-0.325892
C34	C	1.023446	-0.978028	-0.280673
C35	C	0.961717	-1.048820	-0.264105
C36	C	1.039954	-1.048753	-0.342412
C37	C	0.916427	-0.977981	-0.309293
C38	C	0.994706	-0.977907	-0.387628
C39	C	0.932934	-1.048667	-0.371084
C40	C	1.154668	-0.512855	-0.326017
C41	C	1.229900	-0.512870	-0.326022
C42	C	0.978049	-0.512768	-0.501859
C43	C	0.978078	-0.512782	-0.577091
C44	C	0.978119	-0.236279	-0.326032
C45	C	0.978232	-0.117974	-0.325875
C46	C	1.021400	-0.444785	-0.612435
C47	C	1.021428	-0.444809	-0.683124
C48	C	0.978132	-0.512824	-0.718467
C49	C	0.934808	-0.580828	-0.683118
C50	C	0.934784	-0.580809	-0.612430
C51	C	0.934908	-0.580907	-0.968191
C52	C	0.934935	-0.580918	-1.038883
C53	C	1.021553	-0.444907	-1.038884
C54	C	1.021528	-0.444888	-0.968197
C55	C	0.978208	-0.512895	-0.932854
C56	C	0.978178	-0.512870	-0.856206
C57	C	0.978158	-0.512844	-0.795114
C58	C	0.978220	-0.512895	-0.149460
C59	C	0.978260	-0.512927	-0.074228
H60	H	0.720464	-0.389536	-0.247368
O61	O	0.892823	-0.647052	-0.717418
C62	C	0.907562	-0.753151	-0.700063
H63	H	0.961625	-0.758599	-0.680584
H64	H	0.871249	-0.780912	-0.659047
C65	C	0.833281	-0.817498	-0.786748
C66	C	0.899685	-0.824190	-0.762830
H67	H	0.828419	-0.861320	-0.825464
H68	H	0.823349	-0.746017	-0.798440
H69	H	0.803028	-0.840630	-0.752562
H70	H	0.929935	-0.801046	-0.797013
H71	H	0.909622	-0.895669	-0.751146
H72	H	0.894636	-1.079489	-0.409317
H73	H	0.720474	-0.636063	-0.404626
O74	O	0.945167	-1.086117	-0.201819
C75	C	0.998380	-1.149259	-0.176751
H76	H	1.029860	-1.180255	-0.220700
H77	H	1.031619	-1.099479	-0.142036
C78	C	0.930414	-1.205537	-0.082918
C79	C	0.969076	-1.243615	-0.136897
H80	H	0.912339	-1.263738	-0.058331
H81	H	0.894564	-1.162994	-0.099805
H82	H	0.958120	-1.164054	-0.053996
H83	H	0.941368	-1.285086	-0.165822
H84	H	1.004920	-1.286167	-0.120014
H85	H	1.008680	-0.946737	-0.439829
H86	H	1.092170	-1.079844	-0.356390
H87	H	0.592240	-0.636087	-0.404628
O88	O	0.892666	-0.646713	-0.578022
C89	C	0.848944	-0.586045	-0.537214
H90	H	0.872838	-0.505414	-0.526647
H91	H	0.798798	-0.574286	-0.564503
C92	C	0.807300	-0.743611	-0.483026
C93	C	0.836649	-0.644582	-0.470043
H94	H	0.799713	-0.779720	-0.441593
H95	H	0.836754	-0.784485	-0.510521
H96	H	0.765515	-0.733797	-0.505768
H97	H	0.878437	-0.654397	-0.447308
H98	H	0.807201	-0.603711	-0.442542
O99	O	0.370168	-0.646890	-0.411468
C100	C	0.323819	-0.706850	-0.449730
H101	H	0.273442	-0.710620	-0.422014
H102	H	0.316270	-0.667729	-0.501110
C103	C	0.413310	-0.815469	-0.493603
C104	C	0.351438	-0.820107	-0.459558
H105	H	0.430348	-0.885330	-0.499668
H106	H	0.444538	-0.775071	-0.467827
H107	H	0.407012	-0.782863	-0.536415
H108	H	0.357739	-0.852700	-0.416743
H109	H	0.320212	-0.860514	-0.485327
H110	H	0.864196	-0.947024	-0.295252
H111	H	1.056782	-0.389500	-0.939423
H112	H	1.056654	-0.389395	-0.583664
H113	H	0.236469	-0.636131	-0.404647
H114	H	0.236461	-0.389592	-0.247398
H115	H	1.056705	-0.389439	-0.711898
O116	O	1.063631	-0.378968	-1.073322
C117	C	1.054368	-0.393557	-1.143291
H118	H	1.032163	-0.475661	-1.152916
H119	H	1.018368	-0.330364	-1.163427
C120	C	1.150150	-0.283107	-1.167699
C121	C	1.122882	-0.383952	-1.179521
H122	H	1.192411	-0.277178	-1.190048
H123	H	1.156389	-0.273275	-1.120559
H124	H	1.120143	-0.230458	-1.184478
H125	H	1.152885	-0.436599	-1.162733
H126	H	1.116650	-0.393794	-1.226658
O127	O	0.370148	-0.378805	-0.240556
C128	C	0.323788	-0.318864	-0.202301
H129	H	0.273391	-0.315100	-0.230031
H130	H	0.316296	-0.357998	-0.150927
C131	C	0.413245	-0.210233	-0.158395
C132	C	0.351348	-0.205602	-0.192456
H133	H	0.430246	-0.140369	-0.152318
H134	H	0.444479	-0.250618	-0.184165
H135	H	0.406993	-0.242849	-0.115587
H136	H	0.357602	-0.172999	-0.235266
H137	H	0.320115	-0.165209	-0.166692
O138	O	0.586742	-0.378727	-0.240604
C139	C	0.603965	-0.272598	-0.255330
H140	H	0.655279	-0.270308	-0.281342
H141	H	0.564158	-0.236653	-0.290106
C142	C	0.544211	-0.211128	-0.157349
C143	C	0.607238	-0.208315	-0.189293
H144	H	0.546227	-0.171473	-0.116616
H145	H	0.532605	-0.282628	-0.147430
H146	H	0.511045	-0.181176	-0.186337
H147	H	0.640401	-0.238279	-0.160309
H148	H	0.618850	-0.136817	-0.199206
H149	H	1.061651	-0.947006	-0.242410
H150	H	0.899678	-0.636312	-1.067657
H151	H	0.899634	-0.636278	-0.939420
