data_functionalizedCrystal
_audit_creation_method	'MofGen! by Chris Wilmer'
_symmetry_space_group_name_H-M	'P1'
_symmetry_Int_Tables_number	1
_symmetry_cell_setting	triclinic
loop_
_symmetry_equiv_pos_as_xyz
  x,y,z
_cell_length_a	27.732048
_cell_length_b	15.995350
_cell_length_c	14.472310
_cell_angle_alpha	89.998838
_cell_angle_beta	90.007492
_cell_angle_gamma	83.067515
loop_
_atom_site_label
_atom_site_type_symbol
_atom_site_fract_x
_atom_site_fract_y
_atom_site_fract_z
O1	O	-0.641363	-0.099622	-0.076718
O2	O	-0.500635	-0.114770	-0.076745
O3	O	-0.574846	0.014741	-0.076730
O4	O	-0.567152	-0.229134	-0.076733
O5	O	-0.574827	0.014733	0.076952
O6	O	-0.500616	-0.114778	0.076937
O7	O	-0.641344	-0.099630	0.076964
Cu8	Cu	-0.570978	-0.107205	0.090983
Cu9	Cu	-0.571001	-0.107196	-0.090764
O10	O	-0.567133	-0.229141	0.076949
C11	C	-0.482617	-0.114456	0.000092
C12	C	-0.428958	-0.113499	0.000082
C13	C	-0.574518	0.045928	0.000109
C14	C	-0.573565	0.138866	0.000104
C15	C	-0.659362	-0.099944	0.000125
C16	C	-0.713021	-0.100901	0.000129
C17	C	-0.090447	-0.184004	0.000121
C18	C	0.111228	-0.180451	0.000129
O19	O	0.142205	-0.244923	0.000168
N20	N	0.130683	-0.103656	0.000128
C21	C	0.099715	-0.027744	0.000132
O22	O	0.120891	0.037657	0.000141
C23	C	-0.101958	-0.031297	0.000130
C24	C	-0.121410	-0.108097	0.000121
C25	C	-0.109900	-0.260797	0.000113
C26	C	-0.160315	-0.261685	0.000106
C27	C	-0.191279	-0.185778	0.000107
C28	C	-0.171826	-0.108985	0.000114
C29	C	-0.132925	0.044614	0.000140
C30	C	-0.183346	0.043719	0.000142
C31	C	-0.202798	-0.033081	0.000133
C32	C	-0.253205	-0.033965	0.000108
N33	N	-0.272660	-0.110761	0.000108
C34	C	-0.241697	-0.186667	0.000108
C35	C	0.205598	-0.025883	0.000131
C36	C	0.256016	-0.024995	0.000130
C37	C	0.267525	-0.177703	0.000129
C38	C	0.217106	-0.178590	0.000123
C39	C	0.186143	-0.102679	0.000132
C40	C	-0.347574	-0.188525	0.000092
C41	C	-0.397995	-0.189405	0.000081
C42	C	-0.409499	-0.036698	0.000087
C43	C	-0.359083	-0.035817	0.000093
C44	C	-0.328121	-0.111737	0.000099
O45	O	-0.284211	0.030472	0.000079
O46	O	-0.262881	-0.252058	0.000119
C47	C	-0.040031	-0.183116	0.000128
C48	C	-0.020579	-0.106323	0.000136
C49	C	-0.051542	-0.030416	0.000136
C50	C	0.029839	-0.105434	0.000134
C51	C	0.060803	-0.181340	0.000134
C52	C	0.041348	-0.258135	0.000134
C53	C	-0.009068	-0.259023	0.000127
C54	C	-0.032087	0.046379	0.000136
C55	C	0.018329	0.047260	0.000142
C56	C	0.049292	-0.028646	0.000141
C57	C	-0.567461	-0.260328	0.000108
C58	C	-0.568414	-0.353266	0.000107
N59	N	-0.570966	-0.107210	0.218814
C60	C	-0.570140	0.476569	0.000106
C61	C	-0.517289	0.428451	-0.000249
C62	C	-0.518242	0.331773	0.000098
C63	C	-0.571839	0.309031	0.000105
C64	C	-0.597896	0.350441	0.087868
C65	C	-0.596569	0.447060	0.087941
C66	C	-0.597682	0.447441	-0.086824
C67	C	-0.597670	0.350495	-0.087984
C68	C	-0.572802	0.214346	0.000107
C69	C	-0.569179	0.571255	0.000110
N70	N	-0.571017	-0.107183	-0.218595
C71	C	-0.571000	-0.107192	0.592905
C72	C	-0.531158	-0.176262	0.553731
C73	C	-0.531250	-0.176511	0.446643
C74	C	-0.570983	-0.107201	0.407314
C75	C	-0.621417	-0.125630	0.446161
C76	C	-0.621193	-0.126121	0.553282
C77	C	-0.560858	-0.019484	0.553433
C78	C	-0.559701	-0.020084	0.446305
C79	C	-0.570976	-0.107205	0.302426
C80	C	-0.571010	-0.107190	0.697793
H81	H	-0.413829	-0.251948	0.000073
Cl82	Cl	-0.571011	0.478799	-0.189525
Cl83	Cl	-0.605715	0.059862	0.592544
Cl84	Cl	-0.658690	0.329421	0.092920
H85	H	-0.651767	-0.077762	0.579194
H86	H	-0.117096	0.107153	0.000148
Cl87	Cl	0.042776	0.143819	0.000141
Cl88	Cl	-0.505300	0.008110	0.595180
Cl89	Cl	-0.473087	-0.159739	0.593512
Cl90	Cl	-0.071006	0.141815	0.000137
Cl91	Cl	-0.541230	-0.277031	0.407060
H92	H	-0.343245	0.026720	0.000087
H93	H	-0.537545	-0.240997	0.580641
Cl94	Cl	0.166679	0.069559	0.000139
Cl95	Cl	-0.568498	0.307563	-0.188240
Cl96	Cl	0.280463	0.071558	0.000118
H97	H	-0.586835	0.033672	0.419537
H98	H	-0.496250	0.447770	0.062330
Cl99	Cl	-0.635548	-0.223225	0.404732
H100	H	0.066567	-0.319941	0.000130
Cl101	Cl	-0.486616	0.287483	-0.097033
H102	H	-0.434719	0.025103	0.000084
H103	H	-0.636755	0.335639	-0.093278
Cl104	Cl	-0.308658	-0.283969	0.000098
H105	H	-0.024901	-0.321561	0.000122
Cl106	Cl	-0.486379	0.288329	0.097382
Cl107	Cl	-0.484683	0.456643	-0.097420
Cl108	Cl	-0.657844	0.497257	-0.087730
Cl109	Cl	-0.567205	0.474934	0.189218
H110	H	-0.208554	0.105537	0.000149
H111	H	-0.635371	0.479810	0.091928
Cl112	Cl	-0.569930	0.306261	0.188698
H113	H	-0.493761	-0.165627	0.420380
H114	H	-0.630131	-0.190066	0.578259
Cl115	Cl	-0.668287	-0.049985	0.406832
H116	H	-0.522601	-0.006083	0.420916
H117	H	-0.176148	-0.324223	0.000099
H118	H	-0.084694	-0.322613	0.000116
H119	H	0.201272	-0.241128	0.000121
H120	H	0.292744	-0.239509	0.000128
