data_functionalizedCrystal
_audit_creation_method	'MofGen! by Chris Wilmer'
_symmetry_space_group_name_H-M	'P1'
_symmetry_Int_Tables_number	1
_symmetry_cell_setting	triclinic
loop_
_symmetry_equiv_pos_as_xyz
  x,y,z
_cell_length_a	16.109295
_cell_length_b	15.186229
_cell_length_c	16.109301
_cell_angle_alpha	90.005167
_cell_angle_beta	96.539666
_cell_angle_gamma	89.999572
loop_
_atom_site_label
_atom_site_type_symbol
_atom_site_fract_x
_atom_site_fract_y
_atom_site_fract_z
O1	O	-1.103134	0.073171	0.106844
O2	O	-0.769800	0.406505	0.440177
O3	O	-0.436467	0.739838	0.773510
O4	O	-0.861071	0.073187	0.120148
O5	O	-0.527738	0.406520	0.453481
O6	O	-0.194404	0.739853	0.786815
O7	O	-0.988752	0.073170	-0.007535
O8	O	-0.655419	0.406503	0.325798
O9	O	-0.322085	0.739836	0.659131
O10	O	-0.975453	0.073188	0.234527
O11	O	-0.642119	0.406522	0.567860
O12	O	-0.308786	0.739855	0.901194
O13	O	-0.988743	-0.073288	-0.007537
O14	O	-0.655410	0.260046	0.325796
O15	O	-0.322077	0.593379	0.659130
O16	O	-0.861062	-0.073271	0.120146
O17	O	-0.527729	0.260063	0.453480
O18	O	-0.194396	0.593396	0.786813
O19	O	-1.103125	-0.073286	0.106842
O20	O	-0.769792	0.260047	0.440175
O21	O	-0.436458	0.593381	0.773509
Zn22	Zn	-0.982092	-0.096531	0.113494
Zn23	Zn	-0.648759	0.236802	0.446827
Zn24	Zn	-0.315426	0.570135	0.780160
Zn25	Zn	-0.982104	0.096432	0.113496
Zn26	Zn	-0.648770	0.429766	0.446830
Zn27	Zn	-0.315437	0.763099	0.780163
O28	O	-0.975444	-0.073269	0.234525
O29	O	-0.642111	0.260065	0.567859
O30	O	-0.308777	0.593398	0.901192
C31	C	-0.830092	-0.000040	0.119609
C32	C	-0.496758	0.333293	0.452942
C33	C	-0.163425	0.666627	0.786276
C34	C	-0.737796	-0.000035	0.117996
C35	C	-0.404463	0.333299	0.451329
C36	C	-0.071129	0.666632	0.784662
N37	N	-0.982091	-0.228224	0.113492
N38	N	-0.648757	0.105109	0.446825
N39	N	-0.315424	0.438443	0.780158
C40	C	-0.515523	-0.000038	0.190008
C41	C	-0.182190	0.333295	0.523341
C42	C	0.151143	0.666628	0.856675
C43	C	-0.428803	-0.000044	0.188486
C44	C	-0.095469	0.333290	0.521819
C45	C	0.237864	0.666623	0.855152
C46	C	-0.448677	-0.000052	0.036996
C47	C	-0.115344	0.333281	0.370330
C48	C	0.217990	0.666615	0.703663
C49	C	-0.535396	-0.000053	0.038520
C50	C	-0.202063	0.333281	0.371853
C51	C	0.131271	0.666614	0.705186
C52	C	-0.568816	-0.000041	0.115028
C53	C	-0.235483	0.333292	0.448361
C54	C	0.097850	0.666625	0.781695
C55	C	-0.395377	-0.000046	0.111982
C56	C	-0.062044	0.333287	0.445316
C57	C	0.271290	0.666621	0.778649
C58	C	-0.301351	-0.000052	0.110331
C59	C	0.031983	0.333281	0.443665
C60	C	0.365316	0.666615	0.776998
C61	C	-0.662849	-0.000037	0.116679
C62	C	-0.329515	0.333296	0.450013
C63	C	0.003818	0.666629	0.783346
C64	C	-1.038647	-0.453955	0.056973
C65	C	-0.705314	-0.120621	0.390306
C66	C	-0.371980	0.212712	0.723639
C67	C	-1.038650	-0.546144	0.056971
C68	C	-0.705316	-0.212811	0.390304
C69	C	-0.371983	0.120522	0.723637
C70	C	-0.925549	-0.546138	0.170014
C71	C	-0.592216	-0.212805	0.503347
C72	C	-0.258883	0.120528	0.836680
C73	C	-0.925543	-0.453950	0.170011
C74	C	-0.592210	-0.120617	0.503344
C75	C	-0.258877	0.212716	0.836678
C76	C	-0.982097	-0.407861	0.113491
C77	C	-0.648764	-0.074527	0.446825
C78	C	-0.315430	0.258806	0.780158
C79	C	-0.982106	-0.592238	0.113492
C80	C	-0.648772	-0.258905	0.446825
C81	C	-0.315439	0.074428	0.780159
C82	C	-0.982108	-0.692195	0.113490
C83	C	-0.648775	-0.358861	0.446824
C84	C	-0.315441	-0.025528	0.780157
C85	C	-0.982094	-0.307898	0.113492
C86	C	-0.648760	0.025435	0.446825
C87	C	-0.315427	0.358768	0.780158
C88	C	-0.134104	-0.000056	0.107386
C89	C	0.199230	0.333277	0.440719
C90	C	0.532563	0.666611	0.774053
C91	C	-0.226397	-0.000053	0.109014
C92	C	0.106936	0.333280	0.442348
C93	C	0.440270	0.666614	0.775681
C94	C	-0.988209	-0.000059	-0.038511
C95	C	-0.654876	0.333274	0.294822
C96	C	-0.321542	0.666607	0.628156
C97	C	-0.986594	-0.000061	-0.130806
C98	C	-0.653260	0.333273	0.202527
C99	C	-0.319927	0.666606	0.535860
N100	N	-0.982112	0.228125	0.113492
N101	N	-0.648778	0.561458	0.446825
N102	N	-0.315445	0.894792	0.780158
C103	C	-1.058602	-0.000051	-0.353080
C104	C	-0.725268	0.333282	-0.019747
C105	C	-0.391935	0.666616	0.313587
C106	C	-1.057078	-0.000044	-0.439800
C107	C	-0.723744	0.333290	-0.106467
C108	C	-0.390411	0.666623	0.226866
C109	C	-0.905588	-0.000038	-0.419923
C110	C	-0.572255	0.333296	-0.086590
C111	C	-0.238922	0.666629	0.246744
C112	C	-0.907113	-0.000039	-0.333204
C113	C	-0.573780	0.333295	0.000129
C114	C	-0.240447	0.666628	0.333462
C115	C	-0.983622	-0.000050	-0.299785
C116	C	-0.650289	0.333283	0.033548
C117	C	-0.316956	0.666617	0.366881
C118	C	-0.980573	-0.000042	-0.473225
C119	C	-0.647240	0.333292	-0.139891
C120	C	-0.313907	0.666625	0.193442
C121	C	-0.978920	-0.000034	-0.567251
C122	C	-0.645587	0.333300	-0.233917
C123	C	-0.312254	0.666633	0.099416
C124	C	-0.985276	-0.000056	-0.205754
C125	C	-0.651943	0.333277	0.127580
C126	C	-0.318609	0.666610	0.460913
C127	C	-0.975987	-0.000038	0.265501
C128	C	-0.642654	0.333295	0.598834
C129	C	-0.309320	0.666629	0.932168
C130	C	-0.977602	-0.000031	0.357796
C131	C	-0.644269	0.333302	0.691130
C132	C	-0.310935	0.666636	1.024463
H133	H	-0.542731	-0.000036	0.252306
H134	H	-0.209398	0.333298	0.585639
H135	H	0.123936	0.666631	0.918972
H136	H	-0.846052	-0.000035	-0.289809
H137	H	-0.512719	0.333298	0.043524
H138	H	-0.179386	0.666632	0.376857
H139	H	-0.385414	-0.000043	0.249542
H140	H	-0.052081	0.333290	0.582875
H141	H	0.281253	0.666624	0.916209
H142	H	-0.578790	-0.000058	-0.022542
H143	H	-0.245457	0.333276	0.310791
H144	H	0.087877	0.666609	0.644125
H145	H	-1.120900	-0.000058	-0.325874
H146	H	-0.787567	0.333275	0.007460
H147	H	-0.454234	0.666608	0.340793
H148	H	-1.118133	-0.000043	-0.483190
H149	H	-0.784800	0.333290	-0.149857
H150	H	-0.451467	0.666624	0.183477
H151	H	-1.084695	-0.416431	0.010950
H152	H	-0.751362	-0.083097	0.344283
H153	H	-0.418029	0.250236	0.677617
H154	H	-0.879489	-0.416418	0.216036
H155	H	-0.546156	-0.083085	0.549369
H156	H	-0.212823	0.250249	0.882702
H157	H	-1.084697	-0.583671	0.010947
H158	H	-0.751364	-0.250338	0.344280
H159	H	-0.418030	0.082995	0.677614
H160	H	-0.879506	-0.583673	0.216032
H161	H	-0.546172	-0.250340	0.549365
H162	H	-0.212839	0.082993	0.882698
Cl163	Cl	-0.406656	-0.000060	-0.059180
Cl164	Cl	-0.073323	0.333273	0.274153
Cl165	Cl	0.260011	0.666606	0.607487
H166	H	-0.843297	-0.000030	-0.447144
H167	H	-0.509964	0.333303	-0.113810
H168	H	-0.176631	0.666636	0.219523
