data_functionalizedCrystal
_audit_creation_method	'MofGen! by Chris Wilmer'
_symmetry_space_group_name_H-M	'P1'
_symmetry_Int_Tables_number	1
_symmetry_cell_setting	triclinic
loop_
_symmetry_equiv_pos_as_xyz
  x,y,z
_cell_length_a	18.050589
_cell_length_b	17.077404
_cell_length_c	17.077396
_cell_angle_alpha	90.019501
_cell_angle_beta	89.975358
_cell_angle_gamma	89.971554
loop_
_atom_site_label
_atom_site_type_symbol
_atom_site_fract_x
_atom_site_fract_y
_atom_site_fract_z
Zn1	Zn	-0.295655	-1.200026	-0.443864
Zn2	Zn	0.204345	-0.700026	0.056136
Zn3	Zn	-0.419852	-1.199920	-0.312606
Zn4	Zn	0.080148	-0.699920	0.187394
Zn5	Zn	-0.295681	-1.068757	-0.312612
Zn6	Zn	0.204319	-0.568757	0.187388
Zn7	Zn	-0.419808	-1.068713	-0.443830
Zn8	Zn	0.080192	-0.568713	0.056170
O9	O	-0.357749	-1.134354	-0.378228
O10	O	0.142251	-0.634354	0.121772
O11	O	-0.312138	-1.309858	-0.426464
O12	O	0.187862	-0.809858	0.073536
O13	O	-0.403410	-1.182496	-0.202760
O14	O	0.096590	-0.682496	0.297240
O15	O	-0.191753	-1.086233	-0.330039
O16	O	0.308247	-0.586233	0.169961
O17	O	-0.403385	-1.309781	-0.330030
O18	O	0.096615	-0.809781	0.169970
O19	O	-0.191734	-1.182675	-0.426469
O20	O	0.308266	-0.682675	0.073531
O21	O	-0.312182	-1.086131	-0.202764
O22	O	0.187818	-0.586131	0.297236
O23	O	-0.312139	-0.958905	-0.330006
O24	O	0.187861	-0.458905	0.169994
O25	O	-0.403310	-1.086157	-0.553681
O26	O	0.096690	-0.586157	-0.053681
O27	O	-0.403335	-0.958872	-0.426412
O28	O	0.096665	-0.458872	0.073588
O29	O	-0.312095	-1.182632	-0.553706
O30	O	0.187905	-0.682632	-0.053706
O31	O	-0.523771	-1.182453	-0.329997
O32	O	-0.023771	-0.682453	0.170003
O33	O	-0.523739	-1.086056	-0.426407
O34	O	-0.023739	-0.586056	0.073593
C35	C	-0.357736	-0.930406	-0.378206
C36	C	0.142264	-0.430406	0.121794
C37	C	-0.357748	-0.843156	-0.378216
C38	C	0.142252	-0.343156	0.121784
C39	C	-0.550701	-1.134259	-0.378215
C40	C	-0.050701	-0.634259	0.121785
C41	C	-0.633247	-1.134291	-0.378236
C42	C	-0.133247	-0.634291	0.121764
C43	C	-0.357694	-1.134402	-0.582972
C44	C	0.142306	-0.634402	-0.082972
C45	C	-0.357671	-1.134422	-0.670222
C46	C	0.142329	-0.634422	-0.170222
C47	C	-0.832707	-1.081921	-0.430645
C48	C	-0.332707	-0.581921	0.069355
C49	C	-0.882149	-1.062786	-0.359016
C50	C	-0.382149	-0.562786	0.140984
C51	C	-0.784377	-1.134368	-0.378246
C52	C	-0.284377	-0.634368	0.121754
C53	C	-0.882017	-1.153541	-0.449883
C54	C	-0.382017	-0.653541	0.050117
C55	C	-0.930362	-1.134441	-0.378262
C56	C	-0.430362	-0.634441	0.121738
C57	C	-0.832732	-1.115195	-0.306579
C58	C	-0.332732	-0.615195	0.193421
C59	C	-0.832596	-1.205984	-0.397495
C60	C	-0.332596	-0.705984	0.102505
C61	C	-0.882016	-1.186876	-0.325816
C62	C	-0.382016	-0.686876	0.174184
C63	C	-0.700279	-1.134324	-0.378238
C64	C	-0.200279	-0.634324	0.121762
C65	C	-1.014459	-1.134485	-0.378262
C66	C	-0.514459	-0.634485	0.121738
C67	C	-0.164043	-1.134471	-0.378258
C68	C	0.335957	-0.634471	0.121742
C69	C	-0.081498	-1.134520	-0.378271
C70	C	0.418502	-0.634520	0.121729
C71	C	-0.357763	-1.339098	-0.378250
C72	C	0.142237	-0.839098	0.121750
C73	C	-0.357769	-1.426348	-0.378260
C74	C	0.142231	-0.926348	0.121740
C75	C	-0.405305	-0.802170	-0.428333
C76	C	0.094695	-0.302170	0.071667
C77	C	-0.405307	-0.720189	-0.428346
C78	C	0.094693	-0.220189	0.071654
C79	C	-0.357754	-0.679197	-0.378236
C80	C	0.142246	-0.179197	0.121764
C81	C	-0.310192	-0.720189	-0.328116
C82	C	0.189808	-0.220189	0.171884
C83	C	-0.310187	-0.802168	-0.328108
C84	C	0.189813	-0.302168	0.171892
C85	C	-0.310206	-0.549319	-0.328135
C86	C	0.189794	-0.049319	0.171865
C87	C	-0.310212	-0.467335	-0.328142
C88	C	0.189788	0.032665	0.171858
C89	C	-0.405326	-0.467340	-0.428373
C90	C	0.094674	0.032660	0.071627
C91	C	-0.405321	-0.549319	-0.428365
C92	C	0.094679	-0.049319	0.071635
C93	C	-0.357760	-0.590306	-0.378244
C94	C	0.142240	-0.090306	0.121756
C95	C	-0.310172	-1.184658	-0.711226
C96	C	0.189828	-0.684658	-0.211226
C97	C	-0.310147	-1.184667	-0.793207
C98	C	0.189853	-0.684667	-0.293207
C99	C	-0.357626	-1.134444	-0.834182
C100	C	0.142374	-0.634444	-0.334182
C101	C	-0.405128	-1.084202	-0.793172
C102	C	0.094872	-0.584202	-0.293172
C103	C	-0.405148	-1.084190	-0.711193
C104	C	0.094852	-0.584190	-0.211193
C105	C	-0.405083	-1.084234	-0.964042
C106	C	0.094917	-0.584234	-0.464042
C107	C	-0.405064	-1.084248	-1.046026
C108	C	0.094936	-0.584248	-0.546026
C109	C	-0.310082	-1.184712	-1.046056
C110	C	0.189918	-0.684712	-0.546056
C111	C	-0.310102	-1.184699	-0.964077
C112	C	0.189898	-0.684699	-0.464077
C113	C	-0.357605	-1.134458	-0.923073
C114	C	0.142395	-0.634458	-0.423073
C115	C	-0.357750	-1.134352	-0.174280
C116	C	0.142250	-0.634352	0.325720
C117	C	-0.357564	-1.134484	-0.087031
C118	C	0.142436	-0.634484	0.412969
H119	H	-0.811056	-1.037504	-0.474894
H120	H	-0.311056	-0.537504	0.025106
H121	H	-0.903931	-1.002257	-0.342749
H122	H	-0.403931	-0.502257	0.157251
H123	H	-0.903530	-1.231259	-0.281460
H124	H	-0.403530	-0.731259	0.218540
H125	H	-0.810816	-1.266499	-0.413795
H126	H	-0.310816	-0.766499	0.086205
H127	H	-0.444033	-0.686822	-0.469156
H128	H	0.055967	-0.186822	0.030844
H129	H	-0.903667	-1.169729	-0.510460
H130	H	-0.403667	-0.669729	-0.010460
H131	H	-0.811172	-1.098937	-0.245986
H132	H	-0.311172	-0.598937	0.254014
H133	H	-0.271511	-1.225558	-0.677871
H134	H	0.228489	-0.725558	-0.177871
H135	H	-0.271470	-0.582688	-0.287328
H136	H	0.228530	-0.082688	0.212672
H137	H	-0.271457	-0.835538	-0.287301
H138	H	0.228543	-0.335538	0.212699
H139	H	-0.271402	-1.225619	-1.079446
H140	H	0.228598	-0.725619	-0.579446
H141	H	-0.271471	-0.686807	-0.287319
H142	H	0.228529	-0.186807	0.212681
H143	H	-0.444030	-0.835540	-0.469136
H144	H	0.055970	-0.335540	0.030864
H145	H	-0.271482	-0.433961	-0.287347
H146	H	0.228518	0.066039	0.212653
H147	H	-0.271470	-1.225577	-0.826589
H148	H	0.228530	-0.725577	-0.326589
H149	H	-0.444047	-0.582693	-0.469164
H150	H	0.055953	-0.082693	0.030836
H151	H	-0.271445	-1.225600	-0.930718
H152	H	0.228555	-0.725600	-0.430718
H153	H	-0.443724	-1.043350	-1.079386
H154	H	0.056276	-0.543350	-0.579386
H155	H	-0.443819	-1.043274	-0.677808
H156	H	0.056181	-0.543274	-0.177808
H157	H	-0.443753	-1.043310	-0.930658
H158	H	0.056247	-0.543310	-0.430658
H159	H	-0.444050	-0.433965	-0.469186
H160	H	0.055950	0.066035	0.030814
H161	H	-0.443783	-1.043307	-0.826540
H162	H	0.056217	-0.543307	-0.326540
