data_functionalizedCrystal
_audit_creation_method	'MofGen! by Chris Wilmer'
_symmetry_space_group_name_H-M	'P1'
_symmetry_Int_Tables_number	1
_symmetry_cell_setting	triclinic
loop_
_symmetry_equiv_pos_as_xyz
  x,y,z
_cell_length_a	19.121112
_cell_length_b	19.121073
_cell_length_c	12.645323
_cell_angle_alpha	87.594102
_cell_angle_beta	92.460596
_cell_angle_gamma	90.128326
loop_
_atom_site_label
_atom_site_type_symbol
_atom_site_fract_x
_atom_site_fract_y
_atom_site_fract_z
Zn1	Zn	1.059865	-0.324893	0.688416
Zn2	Zn	1.559865	0.175107	1.188416
Zn3	Zn	1.054761	-0.442134	0.518343
Zn4	Zn	1.554761	0.057866	1.018343
Zn5	Zn	0.942621	-0.319910	0.503303
Zn6	Zn	1.442621	0.180090	1.003303
Zn7	Zn	0.937587	-0.437083	0.687701
Zn8	Zn	1.437587	0.062917	1.187701
O9	O	0.998708	-0.381005	0.599441
O10	O	1.498708	0.118995	1.099441
O11	O	1.157293	-0.344645	0.672449
O12	O	1.657293	0.155355	1.172449
O13	O	1.039857	-0.425948	0.368001
O14	O	1.539857	0.074052	0.868001
O15	O	0.962416	-0.222468	0.521862
O16	O	1.462416	0.277532	1.021862
O17	O	1.153543	-0.430781	0.547497
O18	O	1.653543	0.069219	1.047497
O19	O	1.048554	-0.226129	0.657864
O20	O	1.548554	0.273871	1.157864
O21	O	0.957467	-0.336151	0.356950
O22	O	1.457467	0.163849	0.856950
O23	O	0.843848	-0.331254	0.521170
O24	O	1.343848	0.168746	1.021170
O25	O	0.953836	-0.422173	0.836144
O26	O	1.453836	0.077827	1.336144
O27	O	0.840149	-0.417341	0.656647
O28	O	1.340149	0.082659	1.156647
O29	O	1.043673	-0.339748	0.836668
O30	O	1.543673	0.160252	1.336668
O31	O	1.034975	-0.539567	0.546805
O32	O	1.534975	-0.039567	1.046805
O33	O	0.948888	-0.535857	0.671232
O34	O	1.448888	-0.035857	1.171232
C35	C	0.816561	-0.373209	0.587200
C36	C	1.316561	0.126791	1.087200
C37	C	0.738637	-0.369891	0.581989
C38	C	1.238637	0.130109	1.081989
C39	C	0.298010	-0.348838	0.548984
C40	C	0.798010	0.151162	1.048984
C41	C	0.371228	-0.351960	0.553886
C42	C	0.871228	0.148040	1.053886
C43	C	0.405924	-0.398415	0.626767
C44	C	0.905924	0.101585	1.126767
C45	C	0.367399	-0.441747	0.694758
C46	C	0.867399	0.058253	1.194758
C47	C	0.294183	-0.438621	0.689860
C48	C	0.794183	0.061379	1.189860
C49	C	0.626895	-0.410096	0.645082
C50	C	1.126895	0.089904	1.145082
C51	C	0.700117	-0.413220	0.649973
C52	C	1.200117	0.086780	1.149973
C53	C	0.703941	-0.323432	0.509101
C54	C	1.203941	0.176568	1.009101
C55	C	0.630723	-0.320313	0.504206
C56	C	1.130723	0.179687	1.004206
C57	C	0.592204	-0.363642	0.572200
C58	C	1.092204	0.136358	1.072200
C59	C	0.480765	-0.401609	0.631777
C60	C	0.980765	0.098391	1.131777
C61	C	0.517365	-0.360444	0.567195
C62	C	1.017365	0.139556	1.067195
C63	C	0.990850	-0.563150	0.610597
C64	C	1.490850	-0.063150	1.110597
C65	C	0.987553	-0.641075	0.615410
C66	C	1.487553	-0.141075	1.115410
C67	C	0.966677	-1.081708	0.645961
C68	C	1.466677	-0.581708	1.145961
C69	C	0.969775	-1.008489	0.641428
C70	C	1.469775	-0.508489	1.141428
C71	C	1.016179	-0.973792	0.574429
C72	C	1.516179	-0.473792	1.074429
C73	C	1.059493	-1.012318	0.511969
C74	C	1.559493	-0.512318	1.011969
C75	C	1.056397	-1.085535	0.516509
C76	C	1.556397	-0.585535	1.016509
C77	C	1.027772	-0.752818	0.557489
C78	C	1.527772	-0.252818	1.057489
C79	C	1.030862	-0.679595	0.552951
C80	C	1.530862	-0.179595	1.052951
C81	C	0.941145	-0.675771	0.682412
C82	C	1.441145	-0.175771	1.182412
C83	C	0.938051	-0.748990	0.686942
C84	C	1.438051	-0.248990	1.186942
C85	C	0.981367	-0.787510	0.624485
C86	C	1.481367	-0.287510	1.124485
C87	C	1.019345	-0.898951	0.569791
C88	C	1.519345	-0.398951	1.069791
C89	C	0.978204	-0.862350	0.629129
C90	C	1.478204	-0.362350	1.129129
C91	C	1.181567	-0.388832	0.611730
C92	C	1.681567	0.111168	1.111730
C93	C	1.259490	-0.392168	0.616968
C94	C	1.759490	0.107832	1.116968
C95	C	0.998762	-0.380953	0.875946
C96	C	1.498762	0.119047	1.375946
C97	C	0.998785	-0.380931	0.993777
C98	C	1.498785	0.119069	1.493777
C99	C	1.006616	-0.198150	0.588265
C100	C	1.506616	0.301850	1.088265
C101	C	1.009986	-0.120228	0.583503
C102	C	1.509986	0.379772	1.083503
C103	C	0.998697	-0.381008	0.324010
C104	C	1.498697	0.118992	0.824010
C105	C	0.998818	-0.380839	0.206178
C106	C	1.498818	0.119161	0.706178
C107	C	0.942112	-0.432522	1.160984
C108	C	1.442112	0.067478	1.660984
C109	C	0.942243	-0.432795	1.038450
C110	C	1.442243	0.067205	1.538450
C111	C	1.071795	-0.404137	1.044478
C112	C	1.571795	0.095863	1.544478
C113	C	1.071483	-0.404463	1.167077
C114	C	1.571483	0.095537	1.667077
C115	C	0.983159	-0.305861	1.155157
C116	C	1.483159	0.194139	1.655157
C117	C	0.981492	-0.306236	1.032468
C118	C	1.481492	0.193764	1.532468
H119	H	0.489112	-0.322618	0.507860
H120	H	0.989112	0.177382	1.007860
H121	H	1.085737	-0.458484	1.018170
H122	H	1.585737	0.041516	1.518170
H123	H	0.509022	-0.439435	0.691114
H124	H	1.009022	0.060565	1.191114
Cl125	Cl	0.245757	-0.493092	0.775333
Cl126	Cl	0.745757	0.006908	1.275333
H127	H	0.940424	-0.890604	0.683683
H128	H	1.440424	-0.390604	1.183683
H129	H	0.402588	-0.316679	0.498522
H130	H	0.902588	0.183321	0.998522
Cl131	Cl	0.578481	-0.464571	0.730557
Cl132	Cl	1.078481	0.035429	1.230557
H133	H	1.091666	-1.116898	0.465651
H134	H	1.591666	-0.616898	0.965651
Cl135	Cl	1.077679	-0.855325	0.485566
Cl136	Cl	1.577679	-0.355325	0.985566
Cl137	Cl	0.411017	-0.500152	0.786376
Cl138	Cl	0.911017	-0.000152	1.286376
H139	H	0.602478	-0.282489	0.444851
H140	H	1.102478	0.217511	0.944851
H141	H	0.928890	-1.109953	0.700520
H142	H	1.428890	-0.609953	1.200520
Cl143	Cl	1.092545	-0.489229	1.218043
Cl144	Cl	1.592545	0.010771	1.718043
H145	H	0.905879	-0.644402	0.733263
H146	H	1.405879	-0.144402	1.233263
Cl147	Cl	0.902650	-0.274153	1.195656
Cl148	Cl	1.402650	0.225847	1.695656
Cl149	Cl	0.915329	-0.960066	0.719954
Cl150	Cl	1.415329	-0.460066	1.219954
Cl151	Cl	0.879722	-0.792605	0.771187
Cl152	Cl	1.379722	-0.292605	1.271187
H153	H	0.735311	-0.288155	0.453745
H154	H	1.235311	0.211845	0.953745
Cl155	Cl	1.046984	-0.246350	1.200239
Cl156	Cl	1.546984	0.253650	1.700239
Cl157	Cl	0.898558	-0.279306	0.980497
Cl158	Cl	1.398558	0.220694	1.480497
H159	H	0.269766	-0.311009	0.489635
H160	H	0.769766	0.188991	0.989635
Cl161	Cl	0.858503	-0.409808	0.985112
Cl162	Cl	1.358503	0.090192	1.485112
H163	H	0.887706	-0.417749	1.186012
H164	H	1.387706	0.082251	1.686012
Cl165	Cl	0.957845	-0.518505	0.999681
Cl166	Cl	1.457845	-0.018505	1.499681
H167	H	0.728364	-0.451050	0.709327
H168	H	1.228364	0.048950	1.209327
H169	H	1.068652	-0.651348	0.498389
H170	H	1.568652	-0.151348	0.998389
Cl171	Cl	0.957467	-0.517689	1.215089
Cl172	Cl	1.457467	-0.017689	1.715089
Cl173	Cl	1.040999	-0.243247	0.984997
Cl174	Cl	1.540999	0.256753	1.484997
Cl175	Cl	1.082225	-0.801233	0.478969
Cl176	Cl	1.582225	-0.301233	0.978969
Cl177	Cl	1.117834	-0.968699	0.427748
Cl178	Cl	1.617834	-0.468699	0.927748
Cl179	Cl	1.138626	-0.349090	1.213671
Cl180	Cl	1.638626	0.150910	1.713671
H181	H	1.115040	-0.367823	1.015795
H182	H	1.615040	0.132177	1.515795
