data_functionalizedCrystal
_audit_creation_method	'MofGen! by Chris Wilmer'
_symmetry_space_group_name_H-M	'P1'
_symmetry_Int_Tables_number	1
_symmetry_cell_setting	triclinic
loop_
_symmetry_equiv_pos_as_xyz
  x,y,z
_cell_length_a	19.288864
_cell_length_b	19.288859
_cell_length_c	18.366186
_cell_angle_alpha	89.995122
_cell_angle_beta	90.022929
_cell_angle_gamma	96.865014
loop_
_atom_site_label
_atom_site_type_symbol
_atom_site_fract_x
_atom_site_fract_y
_atom_site_fract_z
O1	O	0.921351	-0.086648	0.060783
O2	O	1.171351	0.163352	0.310783
O3	O	1.421351	0.413352	0.560783
O4	O	1.671351	0.663352	0.810783
O5	O	0.719090	-0.098337	0.060733
O6	O	0.969090	0.151663	0.310733
O7	O	1.219090	0.401663	0.560733
O8	O	1.469090	0.651663	0.810733
O9	O	0.826067	0.008638	0.060755
O10	O	1.076067	0.258638	0.310755
O11	O	1.326067	0.508638	0.560755
O12	O	1.576067	0.758638	0.810755
O13	O	0.814374	-0.193623	0.060761
O14	O	1.064374	0.056377	0.310761
O15	O	1.314374	0.306377	0.560761
O16	O	1.564374	0.556377	0.810761
O17	O	0.826049	0.008641	-0.060344
O18	O	1.076049	0.258641	0.189656
O19	O	1.326049	0.508641	0.439656
O20	O	1.576049	0.758641	0.689656
O21	O	0.719072	-0.098334	-0.060367
O22	O	0.969072	0.151666	0.189633
O23	O	1.219072	0.401666	0.439633
O24	O	1.469072	0.651666	0.689633
O25	O	0.921333	-0.086645	-0.060317
O26	O	1.171333	0.163355	0.189683
O27	O	1.421333	0.413355	0.439683
O28	O	1.671333	0.663355	0.689683
Zn29	Zn	0.820199	-0.092489	-0.079569
Zn30	Zn	1.070199	0.157511	0.170431
Zn31	Zn	1.320199	0.407511	0.420431
Zn32	Zn	1.570199	0.657511	0.670431
Zn33	Zn	0.820224	-0.092493	0.079985
Zn34	Zn	1.070224	0.157507	0.329985
Zn35	Zn	1.320224	0.407507	0.579985
Zn36	Zn	1.570224	0.657507	0.829985
O37	O	0.814355	-0.193620	-0.060339
O38	O	1.064355	0.056380	0.189661
O39	O	1.314355	0.306380	0.439661
O40	O	1.564355	0.556380	0.689661
C41	C	0.693204	-0.097959	0.000177
C42	C	0.943204	0.152041	0.250177
C43	C	1.193204	0.402041	0.500177
C44	C	1.443204	0.652041	0.750177
C45	C	0.616101	-0.096830	0.000158
C46	C	0.866101	0.153170	0.250158
C47	C	1.116101	0.403170	0.500158
C48	C	1.366101	0.653170	0.750158
C49	C	0.571403	-0.159598	0.000171
C50	C	0.821403	0.090402	0.250171
C51	C	1.071403	0.340402	0.500171
C52	C	1.321403	0.590402	0.750171
C53	C	0.498956	-0.158537	0.000179
C54	C	0.748956	0.091463	0.250179
C55	C	0.998956	0.341463	0.500179
C56	C	1.248956	0.591463	0.750179
C57	C	0.471210	-0.094705	0.000188
C58	C	0.721210	0.155295	0.250188
C59	C	0.971210	0.405295	0.500188
C60	C	1.221210	0.655295	0.750188
C61	C	0.515918	-0.031929	0.000171
C62	C	0.765918	0.218071	0.250171
C63	C	1.015918	0.468071	0.500171
C64	C	1.265918	0.718071	0.750171
C65	C	0.588363	-0.032991	0.000156
C66	C	0.838363	0.217009	0.250156
C67	C	1.088363	0.467009	0.500156
C68	C	1.338363	0.717009	0.750156
C69	C	0.362956	-0.044527	0.042638
C70	C	0.612956	0.205473	0.292638
C71	C	0.862956	0.455473	0.542638
C72	C	1.112956	0.705473	0.792638
C73	C	0.290511	-0.043467	0.042658
C74	C	0.540511	0.206533	0.292658
C75	C	0.790511	0.456533	0.542658
C76	C	1.040511	0.706533	0.792658
C77	C	0.247765	-0.091425	0.000232
C78	C	0.497765	0.158575	0.250232
C79	C	0.747765	0.408575	0.500232
C80	C	0.997765	0.658575	0.750232
C81	C	0.277470	-0.140455	-0.042203
C82	C	0.527470	0.109545	0.207797
C83	C	0.777470	0.359545	0.457797
C84	C	1.027470	0.609545	0.707797
C85	C	0.349915	-0.141518	-0.042219
C86	C	0.599915	0.108482	0.207781
C87	C	0.849915	0.358482	0.457781
C88	C	1.099915	0.608482	0.707781
C89	C	0.392656	-0.093546	0.000204
C90	C	0.642656	0.156454	0.250204
C91	C	0.892656	0.406454	0.500204
C92	C	1.142656	0.656454	0.750204
C93	C	0.124511	-0.153048	0.000253
C94	C	0.374511	0.096952	0.250253
C95	C	0.624511	0.346952	0.500253
C96	C	0.874511	0.596952	0.750253
C97	C	0.052063	-0.151984	0.000257
C98	C	0.302063	0.098016	0.250257
C99	C	0.552063	0.348016	0.500257
C100	C	0.802063	0.598016	0.750257
C101	C	0.069026	-0.025374	0.000256
C102	C	0.319026	0.224626	0.250256
C103	C	0.569026	0.474626	0.500256
C104	C	0.819026	0.724626	0.750256
C105	C	0.141472	-0.026439	0.000245
C106	C	0.391472	0.223561	0.250245
C107	C	0.641472	0.473561	0.500245
C108	C	0.891472	0.723561	0.750245
C109	C	0.169210	-0.090278	0.000247
C110	C	0.419210	0.159722	0.250247
C111	C	0.669210	0.409722	0.500247
C112	C	0.919210	0.659722	0.750247
C113	C	0.825682	0.034516	0.000206
C114	C	1.075682	0.284516	0.250206
C115	C	1.325682	0.534516	0.500206
C116	C	1.575682	0.784516	0.750206
C117	C	0.824555	0.111620	0.000207
C118	C	1.074555	0.361620	0.250207
C119	C	1.324555	0.611620	0.500207
C120	C	1.574555	0.861620	0.750207
C121	C	0.947218	-0.087022	0.000241
C122	C	1.197218	0.162978	0.250241
C123	C	1.447218	0.412978	0.500241
C124	C	1.697218	0.662978	0.750241
C125	C	1.024322	-0.088151	0.000265
C126	C	1.274322	0.161849	0.250265
C127	C	1.524322	0.411849	0.500265
C128	C	1.774322	0.661849	0.750265
N129	N	0.820188	-0.092486	-0.188460
N130	N	1.070188	0.157514	0.061540
N131	N	1.320188	0.407514	0.311540
N132	N	1.570188	0.657514	0.561540
C133	C	0.814740	-0.219498	0.000212
C134	C	1.064740	0.030502	0.250212
C135	C	1.314740	0.280502	0.500212
C136	C	1.564740	0.530502	0.750212
C137	C	0.815868	-0.296602	0.000216
C138	C	1.065868	-0.046602	0.250216
C139	C	1.315868	0.203398	0.500216
C140	C	1.565868	0.453398	0.750216
C141	C	0.879698	0.675661	0.000239
C142	C	1.129698	0.925661	0.250239
C143	C	1.379698	1.175661	0.500239
C144	C	1.629698	1.425661	0.750239
C145	C	0.880764	0.603214	0.000233
C146	C	1.130764	0.853214	0.250233
C147	C	1.380764	1.103214	0.500233
C148	C	1.630764	1.353214	0.750233
C149	C	0.817994	0.558508	0.000218
C150	C	1.067994	0.808508	0.250218
C151	C	1.317994	1.058508	0.500218
C152	C	1.567994	1.308508	0.750218
C153	C	0.754155	0.586253	0.000190
C154	C	1.004155	0.836253	0.250190
C155	C	1.254155	1.086253	0.500190
C156	C	1.504155	1.336253	0.750190
C157	C	0.753092	0.658698	0.000189
C158	C	1.003092	0.908698	0.250189
C159	C	1.253092	1.158698	0.500189
C160	C	1.503092	1.408698	0.750189
C161	C	0.771188	0.437233	0.042632
C162	C	1.021188	0.687233	0.292632
C163	C	1.271188	0.937233	0.542632
C164	C	1.521188	1.187233	0.792632
C165	C	0.772254	0.364789	0.042637
C166	C	1.022254	0.614789	0.292637
C167	C	1.272254	0.864789	0.542637
C168	C	1.522254	1.114789	0.792637
C169	C	0.821272	0.335062	0.000218
C170	C	1.071272	0.585062	0.250218
C171	C	1.321272	0.835062	0.500218
C172	C	1.571272	1.085062	0.750218
C173	C	0.869235	0.377789	-0.042197
C174	C	1.119235	0.627789	0.207803
C175	C	1.369235	0.877789	0.457803
C176	C	1.619235	1.127789	0.707803
C177	C	0.868172	0.450234	-0.042198
C178	C	1.118172	0.700234	0.207802
C179	C	1.368172	0.950234	0.457802
C180	C	1.618172	1.200234	0.707802
C181	C	0.819141	0.479952	0.000219
C182	C	1.069141	0.729952	0.250219
C183	C	1.319141	0.979952	0.500219
C184	C	1.569141	1.229952	0.750219
C185	C	0.886262	0.228770	0.000234
C186	C	1.136262	0.478770	0.250234
C187	C	1.386262	0.728770	0.500234
C188	C	1.636262	0.978770	0.750234
C189	C	0.887325	0.156322	0.000223
C190	C	1.137325	0.406322	0.250223
C191	C	1.387325	0.656322	0.500223
C192	C	1.637325	0.906322	0.750223
C193	C	0.760715	0.139362	0.000188
C194	C	1.010715	0.389362	0.250188
C195	C	1.260715	0.639362	0.500188
C196	C	1.510715	0.889362	0.750188
C197	C	0.759654	0.211809	0.000191
C198	C	1.009654	0.461809	0.250191
C199	C	1.259654	0.711809	0.500191
C200	C	1.509654	0.961809	0.750191
C201	C	0.822430	0.256509	0.000218
C202	C	1.072430	0.506509	0.250218
C203	C	1.322430	0.756509	0.500218
C204	C	1.572430	1.006509	0.750218
C205	C	0.862174	-0.134510	-0.226542
C206	C	1.112174	0.115490	0.023458
C207	C	1.362174	0.365490	0.273458
C208	C	1.612174	0.615490	0.523458
C209	C	0.862186	-0.134508	-0.302770
C210	C	1.112186	0.115492	-0.052770
C211	C	1.362186	0.365492	0.197230
C212	C	1.612186	0.615492	0.447230
C213	C	0.820197	-0.092490	-0.340913
C214	C	1.070197	0.157510	-0.090913
C215	C	1.320197	0.407510	0.159087
C216	C	1.570197	0.657510	0.409087
C217	C	0.778208	-0.050457	-0.302821
C218	C	1.028208	0.199543	-0.052821
C219	C	1.278208	0.449543	0.197179
C220	C	1.528208	0.699543	0.447179
C221	C	0.778203	-0.050455	-0.226595
C222	C	1.028203	0.199545	0.023405
C223	C	1.278203	0.449545	0.273405
C224	C	1.528203	0.699545	0.523405
C225	C	0.757586	-0.090733	-0.461709
C226	C	1.007586	0.159267	-0.211709
C227	C	1.257586	0.409267	0.038291
C228	C	1.507586	0.659267	0.288291
C229	C	0.757589	-0.090740	-0.537934
C230	C	1.007589	0.159260	-0.287934
C231	C	1.257589	0.409260	-0.037934
C232	C	1.507589	0.659260	0.212066
C233	C	0.820213	-0.092492	-0.576020
C234	C	1.070213	0.157508	-0.326020
C235	C	1.320213	0.407508	-0.076020
C236	C	1.570213	0.657508	0.173980
C237	C	0.882835	-0.094252	-0.537872
C238	C	1.132835	0.155748	-0.287872
C239	C	1.382835	0.405748	-0.037872
C240	C	1.632835	0.655748	0.212128
C241	C	0.882830	-0.094250	-0.461645
C242	C	1.132830	0.155750	-0.211645
C243	C	1.382830	0.405750	0.038355
C244	C	1.632830	0.655750	0.288355
C245	C	0.820198	-0.092487	-0.423567
C246	C	1.070198	0.157513	-0.173567
C247	C	1.320198	0.407513	0.076433
C248	C	1.570198	0.657513	0.326433
C249	C	0.862216	-0.134516	-0.696757
C250	C	1.112216	0.115484	-0.446757
C251	C	1.362216	0.365484	-0.196757
C252	C	1.612216	0.615484	0.053243
C253	C	0.862228	-0.134509	-0.772986
C254	C	1.112228	0.115491	-0.522986
C255	C	1.362228	0.365491	-0.272986
C256	C	1.612228	0.615491	-0.022986
C257	C	0.778244	-0.050463	-0.773036
C258	C	1.028244	0.199537	-0.523036
C259	C	1.278244	0.449537	-0.273036
C260	C	1.528244	0.699537	-0.023036
C261	C	0.778238	-0.050466	-0.696809
C262	C	1.028238	0.199534	-0.446809
C263	C	1.278238	0.449534	-0.196809
C264	C	1.528238	0.699534	0.053191
C265	C	0.820222	-0.092496	-0.658674
C266	C	1.070222	0.157504	-0.408674
C267	C	1.320222	0.407504	-0.158674
C268	C	1.570222	0.657504	0.091326
N269	N	0.820241	-0.092490	0.188876
N270	N	1.070241	0.157510	0.438876
N271	N	1.320241	0.407510	0.688876
N272	N	1.570241	0.657510	0.938876
H273	H	0.015670	-0.203100	0.000263
H274	H	0.265670	0.046900	0.250263
H275	H	0.515670	0.296900	0.500263
H276	H	0.765670	0.546900	0.750263
H277	H	0.733203	0.330007	0.077178
H278	H	0.983203	0.580007	0.327178
H279	H	1.233203	0.830007	0.577178
H280	H	1.483203	1.080007	0.827178
Br281	Br	0.649029	0.052201	0.000136
Br282	Br	0.899029	0.302201	0.250136
Br283	Br	1.149029	0.552201	0.500136
Br284	Br	1.399029	0.802201	0.750136
Br285	Br	0.971456	0.289439	0.000268
Br286	Br	1.221456	0.539439	0.250268
Br287	Br	1.471456	0.789439	0.500268
Br288	Br	1.721456	1.039439	0.750268
Br289	Br	0.704652	0.477568	0.100198
Br290	Br	0.954652	0.727568	0.350198
Br291	Br	1.204652	0.977568	0.600198
Br292	Br	1.454652	1.227568	0.850198
Br293	Br	0.031379	0.061258	0.000257
Br294	Br	0.281379	0.311258	0.250257
Br295	Br	0.531379	0.561258	0.500257
Br296	Br	0.781379	0.811258	0.750257
H297	H	0.707676	0.234392	0.000177
H298	H	0.957676	0.484392	0.250177
H299	H	1.207676	0.734392	0.500177
H300	H	1.457676	0.984392	0.750177
H301	H	0.703048	0.549848	0.000176
H302	H	0.953048	0.799848	0.250176
H303	H	1.203048	1.049848	0.500176
H304	H	1.453048	1.299848	0.750176
H305	H	0.896402	-0.168739	-0.665706
H306	H	1.146402	0.081261	-0.415706
H307	H	1.396402	0.331261	-0.165706
H308	H	1.646402	0.581261	0.084294
H309	H	0.896364	-0.168731	-0.195497
H310	H	1.146364	0.081269	0.054503
H311	H	1.396364	0.331269	0.304503
H312	H	1.646364	0.581269	0.554503
Br313	Br	0.202138	0.058751	0.000229
Br314	Br	0.452138	0.308751	0.250229
Br315	Br	0.702138	0.558751	0.500229
Br316	Br	0.952138	0.808751	0.750229
Br317	Br	0.666457	0.696344	0.000157
Br318	Br	0.916457	0.946344	0.250157
Br319	Br	1.166457	1.196344	0.500157
Br320	Br	1.416457	1.446344	0.750157
H321	H	0.744011	-0.016233	-0.195589
H322	H	0.994011	0.233767	0.054411
H323	H	1.244011	0.483767	0.304411
H324	H	1.494011	0.733767	0.554411
Br325	Br	0.967398	0.565561	0.000253
Br326	Br	1.217398	0.815561	0.250253
Br327	Br	1.467398	1.065561	0.500253
Br328	Br	1.717398	1.315561	0.750253
Br329	Br	0.162160	-0.239684	0.000251
Br330	Br	0.412160	0.010316	0.250251
Br331	Br	0.662160	0.260316	0.500251
Br332	Br	0.912160	0.510316	0.750251
H333	H	0.709607	0.102962	0.000169
H334	H	0.959607	0.352962	0.250169
H335	H	1.209607	0.602962	0.500169
H336	H	1.459607	0.852962	0.750169
Br337	Br	0.672598	-0.088289	-0.410029
Br338	Br	0.922598	0.161711	-0.160029
Br339	Br	1.172598	0.411711	0.089971
Br340	Br	1.422598	0.661711	0.339971
H341	H	0.939306	0.133741	0.000238
H342	H	1.189306	0.383741	0.250238
H343	H	1.439306	0.633741	0.500238
H344	H	1.689306	0.883741	0.750238
H345	H	0.896377	-0.168731	-0.333782
H346	H	1.146377	0.081269	-0.083782
H347	H	1.396377	0.331269	0.166218
H348	H	1.646377	0.581269	0.416218
H349	H	0.933818	-0.095681	-0.430588
H350	H	1.183818	0.154319	-0.180588
H351	H	1.433818	0.404319	0.069412
H352	H	1.683818	0.654319	0.319412
H353	H	0.266331	-0.003546	0.077214
H354	H	0.516331	0.246454	0.327214
H355	H	0.766331	0.496454	0.577214
H356	H	1.016331	0.746454	0.827214
Br357	Br	0.721239	0.006557	-0.645122
Br358	Br	0.971239	0.256557	-0.395122
Br359	Br	1.221239	0.506557	-0.145122
Br360	Br	1.471239	0.756557	0.104878
H361	H	0.909146	0.353586	-0.076744
H362	H	1.159146	0.603586	0.173256
H363	H	1.409146	0.853586	0.423256
H364	H	1.659146	1.103586	0.673256
H365	H	0.744022	-0.016245	-0.333882
H366	H	0.994022	0.233755	-0.083882
H367	H	1.244022	0.483755	0.166118
H368	H	1.494022	0.733755	0.416118
Br369	Br	0.967830	-0.096632	-0.589550
Br370	Br	1.217830	0.153368	-0.339550
Br371	Br	1.467830	0.403368	-0.089550
Br372	Br	1.717830	0.653368	0.160450
H373	H	0.397755	-0.005472	0.077190
H374	H	0.647755	0.244528	0.327190
H375	H	0.897755	0.494528	0.577190
H376	H	1.147755	0.744528	0.827190
Br377	Br	0.919221	-0.191542	-0.824671
Br378	Br	1.169221	0.058458	-0.574671
Br379	Br	1.419221	0.308458	-0.324671
Br380	Br	1.669221	0.558458	-0.074671
Br381	Br	0.721270	0.006573	-0.824793
Br382	Br	0.971270	0.256573	-0.574793
Br383	Br	1.221270	0.506573	-0.324793
Br384	Br	1.471270	0.756573	-0.074793
H385	H	0.907224	0.485019	-0.076736
H386	H	1.157224	0.735019	0.173264
H387	H	1.407224	0.985019	0.423264
H388	H	1.657224	1.235019	0.673264
Br389	Br	0.478264	0.054702	0.000176
Br390	Br	0.728264	0.304702	0.250176
Br391	Br	0.978264	0.554702	0.500176
Br392	Br	1.228264	0.804702	0.750176
H393	H	0.593982	-0.211581	0.000174
H394	H	0.843982	0.038419	0.250174
H395	H	1.093982	0.288419	0.500174
H396	H	1.343982	0.538419	0.750174
Br397	Br	0.438283	-0.243729	0.000192
Br398	Br	0.688283	0.006271	0.250192
Br399	Br	0.938283	0.256271	0.500192
Br400	Br	1.188283	0.506271	0.750192
H401	H	0.374098	-0.181438	-0.076774
H402	H	0.624098	0.068562	0.173226
H403	H	0.874098	0.318562	0.423226
H404	H	1.124098	0.568562	0.673226
Br405	Br	0.219465	-0.205549	-0.099783
Br406	Br	0.469465	0.044451	0.150217
Br407	Br	0.719465	0.294451	0.400217
Br408	Br	0.969465	0.544451	0.650217
H409	H	0.706599	-0.089311	-0.568989
H410	H	0.956599	0.160689	-0.318989
H411	H	1.206599	0.410689	-0.068989
H412	H	1.456599	0.660689	0.181011
H413	H	0.930816	0.712052	0.000257
H414	H	1.180816	0.962052	0.250257
H415	H	1.430816	1.212052	0.500257
H416	H	1.680816	1.462052	0.750257
