data_functionalizedCrystal
_audit_creation_method	'MofGen! by Chris Wilmer'
_symmetry_space_group_name_H-M	'P1'
_symmetry_Int_Tables_number	1
_symmetry_cell_setting	triclinic
loop_
_symmetry_equiv_pos_as_xyz
  x,y,z
_cell_length_a	17.077404
_cell_length_b	17.077402
_cell_length_c	17.077396
_cell_angle_alpha	89.970216
_cell_angle_beta	89.978543
_cell_angle_gamma	90.021987
loop_
_atom_site_label
_atom_site_type_symbol
_atom_site_fract_x
_atom_site_fract_y
_atom_site_fract_z
Zn1	Zn	-1.200055	0.312527	0.443877
Zn2	Zn	-1.199962	0.443802	0.312608
Zn3	Zn	-1.068786	0.312552	0.312620
Zn4	Zn	-1.068754	0.443753	0.443827
O5	O	-1.134389	0.378158	0.378233
O6	O	-1.309889	0.329951	0.426479
O7	O	-1.182536	0.426422	0.202762
O8	O	-1.086252	0.202702	0.330058
O9	O	-1.309821	0.426398	0.330036
O10	O	-1.182694	0.202683	0.426491
O11	O	-1.086162	0.329993	0.202771
O12	O	-0.958935	0.329946	0.330009
O13	O	-1.086197	0.426314	0.553680
O14	O	-0.958912	0.426338	0.426406
O15	O	-1.182663	0.329903	0.553717
O16	O	-1.182505	0.553642	0.329988
O17	O	-1.086107	0.553606	0.426394
C18	C	-0.930441	0.378140	0.378204
C19	C	-0.843192	0.378151	0.378210
C20	C	-0.802210	0.428418	0.428322
C21	C	-0.720229	0.428418	0.428332
C22	C	-0.679232	0.378155	0.378225
C23	C	-0.720220	0.327883	0.328111
C24	C	-0.802199	0.327879	0.328106
C25	C	-0.549350	0.327895	0.328124
C26	C	-0.467365	0.327899	0.328128
C27	C	-0.467380	0.428433	0.428350
C28	C	-0.549359	0.428430	0.428345
C29	C	-0.590341	0.378159	0.378230
C30	C	-0.339134	0.378172	0.378253
C31	C	-0.426383	0.378166	0.378240
C32	C	-1.134314	0.582106	0.378201
C33	C	-1.134353	0.669356	0.378214
C34	C	-1.134437	0.378100	0.582977
C35	C	-1.134457	0.378076	0.670227
C36	C	-1.134487	0.173414	0.378281
C37	C	-1.134528	0.086164	0.378302
C38	C	-1.184598	0.710339	0.328069
C39	C	-1.184637	0.792319	0.328089
C40	C	-1.134425	0.833315	0.378251
C41	C	-1.084178	0.792327	0.428401
C42	C	-1.084144	0.710348	0.428385
C43	C	-1.084250	0.963197	0.428431
C44	C	-1.084283	1.045181	0.428447
C45	C	-1.184743	1.045168	0.328136
C46	C	-1.184709	0.963189	0.328119
C47	C	-1.134461	0.922206	0.378269
C48	C	-1.134387	0.378159	0.174285
C49	C	-1.134519	0.377963	0.087036
C50	C	-1.184689	0.327870	0.711237
C51	C	-1.184698	0.327844	0.793218
C52	C	-1.134479	0.378028	0.834186
C53	C	-1.084242	0.428236	0.793170
C54	C	-1.084229	0.428257	0.711191
C55	C	-1.084274	0.428188	0.964040
C56	C	-1.084288	0.428168	1.046025
C57	C	-1.184742	0.327776	1.046067
C58	C	-1.184730	0.327797	0.964088
C59	C	-1.134493	0.378006	0.923077
H60	H	-0.434009	0.469364	0.469159
H61	H	-1.225483	0.676965	0.287219
O62	O	-1.233649	0.279082	1.085869
C63	C	-1.311874	0.296238	1.065843
H64	H	-1.315805	0.358955	1.043292
H65	H	-1.350661	0.289466	1.119769
H66	H	-1.332410	0.254168	1.018275
H67	H	-1.043393	0.469030	1.079379
H68	H	-1.225627	0.286937	0.930734
O69	O	-1.233458	0.278964	0.832963
C70	C	-1.216325	0.200734	0.812951
H71	H	-1.186137	0.199127	0.753425
H72	H	-1.272995	0.165544	0.810159
H73	H	-1.175992	0.174270	0.859087
H74	H	-0.433988	0.286961	0.287336
H75	H	-1.225551	0.825684	0.287256
H76	H	-0.582737	0.469363	0.469142
H77	H	-0.686866	0.469351	0.469138
O78	O	-0.589039	0.279042	0.279363
C79	C	-0.535277	0.234669	0.235147
H80	H	-0.476826	0.266817	0.232383
H81	H	-0.558937	0.226227	0.173311
H82	H	-0.526597	0.175084	0.263991
H83	H	-1.043298	0.825712	0.469247
H84	H	-1.043335	0.929831	0.469271
O85	O	-1.035463	0.477048	0.924323
C86	C	-0.991136	0.521333	0.978060
H87	H	-1.023288	0.524020	1.036508
H88	H	-0.982753	0.583191	0.954362
H89	H	-0.931522	0.492598	0.986761
O90	O	-1.233722	1.084966	0.279579
C91	C	-1.284403	1.132262	0.324396
H92	H	-1.289084	1.107507	0.386228
H93	H	-1.344871	1.133080	0.296149
H94	H	-1.260237	1.194443	0.327049
H95	H	-0.835565	0.286943	0.287304
O96	O	-1.035498	0.477093	0.832879
C97	C	-1.052625	0.555337	0.812844
H98	H	-1.082788	0.556982	0.753327
H99	H	-0.995955	0.590530	0.810019
H100	H	-1.092978	0.581768	0.858983
O101	O	-1.035536	1.085128	0.477101
C102	C	-1.046354	1.166272	0.466369
H103	H	-1.072098	1.177485	0.405814
H104	H	-0.987567	1.197473	0.471646
H105	H	-1.088143	1.189472	0.512969
O106	O	-0.841910	0.477269	0.477072
C107	C	-0.788154	0.521647	0.521291
H108	H	-0.729729	0.489500	0.524067
H109	H	-0.811863	0.530097	0.583122
H110	H	-0.779402	0.581229	0.492441
O111	O	-0.680482	0.279095	0.279330
C112	C	-0.700459	0.296160	0.201060
H113	H	-0.759971	0.326328	0.199374
H114	H	-0.703264	0.239462	0.165965
H115	H	-0.654296	0.336487	0.174552
O116	O	-1.035549	0.477067	0.671260
C117	C	-1.080214	0.527792	0.623851
H118	H	-1.139714	0.500114	0.611597
H119	H	-1.048231	0.538320	0.566190
H120	H	-1.088815	0.585959	0.655429
H121	H	-1.043230	0.676980	0.469218
O122	O	-1.233361	0.279080	0.671359
C123	C	-1.188684	0.228376	0.623959
H124	H	-1.129183	0.256062	0.611655
H125	H	-1.220654	0.217868	0.566323
H126	H	-1.180087	0.170197	0.655570
H127	H	-1.225591	0.929810	0.287270
