data_functionalizedCrystal
_audit_creation_method	'MofGen! by Chris Wilmer'
_symmetry_space_group_name_H-M	'P1'
_symmetry_Int_Tables_number	1
_symmetry_cell_setting	triclinic
loop_
_symmetry_equiv_pos_as_xyz
  x,y,z
_cell_length_a	12.837943
_cell_length_b	14.853567
_cell_length_c	11.892095
_cell_angle_alpha	93.898435
_cell_angle_beta	85.689438
_cell_angle_gamma	89.231935
loop_
_atom_site_label
_atom_site_type_symbol
_atom_site_fract_x
_atom_site_fract_y
_atom_site_fract_z
O1	O	1.382409	0.229205	-0.093964
O2	O	1.080587	0.217625	-0.093972
O3	O	1.239561	0.092869	-0.093971
O4	O	1.223436	0.353961	-0.093965
O5	O	1.226306	0.103253	0.094036
O6	O	1.067332	0.228009	0.094035
O7	O	1.369154	0.239589	0.094043
Zn8	Zn	1.216139	0.235448	0.123889
Zn9	Zn	1.233603	0.221766	-0.123818
O10	O	1.210181	0.364345	0.094042
C11	C	1.035334	0.218906	0.000031
C12	C	0.920240	0.207240	0.000027
C13	C	0.679482	0.347487	0.000047
C14	C	0.571341	0.336530	0.000045
C15	C	0.595813	0.174369	0.000029
C16	C	0.703955	0.185327	0.000031
C17	C	0.745785	0.271888	0.000038
C18	C	0.853929	0.282844	0.000032
C19	C	0.878399	0.120685	0.000024
C20	C	0.770257	0.109727	0.000022
C21	C	1.232203	0.064410	0.000029
C22	C	1.230014	-0.035860	0.000019
C23	C	1.126324	-0.457187	0.000038
C24	C	1.315188	-0.462449	0.000043
C25	C	1.317247	-0.368241	0.000036
C26	C	1.223843	-0.318502	0.000032
C27	C	1.128380	-0.362970	0.000035
C28	C	1.412707	-0.323765	0.000045
C29	C	1.414770	-0.229551	0.000040
C30	C	1.321366	-0.179810	0.000028
C31	C	1.225899	-0.224285	0.000029
C32	C	1.132495	-0.174546	0.000025
C33	C	1.037028	-0.219019	0.000018
C34	C	1.034976	-0.313230	0.000023
C35	C	1.323418	-0.085599	0.000023
C36	C	1.134551	-0.080329	0.000022
C37	C	1.414408	0.238308	0.000038
C38	C	1.529502	0.249974	0.000034
C39	C	1.217539	0.392804	0.000040
C40	C	1.219728	0.493073	0.000042
N41	N	1.204228	0.244785	0.292943
N42	N	1.245522	0.212422	-0.292873
C43	C	1.328405	0.147396	0.529592
C44	C	1.320087	0.153930	0.647934
C45	C	1.179269	0.264382	0.647971
C46	C	1.187587	0.257848	0.529629
C47	C	1.262159	0.199354	0.470444
C48	C	1.270481	0.192826	0.352100
C49	C	1.129659	0.303272	0.352140
C50	C	1.121341	0.309806	0.470481
H51	H	0.736183	0.039252	0.000029
C52	C	0.873166	0.419107	-0.096594
C53	C	0.899909	0.377992	0.000044
H54	H	0.901544	0.477850	-0.096579
H55	H	0.900544	0.383976	-0.162149
H56	H	0.799269	0.423390	-0.096580
H57	H	0.973806	0.373702	0.000026
H58	H	0.872536	0.413131	0.065616
H59	H	1.401145	-0.049393	0.000036
C60	C	0.970926	0.324538	0.603606
C61	C	1.039378	0.374100	0.535550
H62	H	0.920332	0.364235	0.643780
H63	H	0.936824	0.281250	0.557443
H64	H	1.009201	0.294529	0.655764
H65	H	1.001104	0.404104	0.483387
H66	H	1.073483	0.417405	0.581717
C67	C	0.590167	0.027443	-0.096626
C68	C	0.549817	0.079228	0.000024
H69	H	0.561773	-0.031295	-0.096623
H70	H	0.572033	0.055344	-0.162172
H71	H	0.664061	0.023147	-0.096619
H72	H	0.475923	0.083529	0.000013
H73	H	0.567945	0.051320	0.065587
C74	C	0.394704	0.391737	0.000048
C75	C	0.498458	0.419630	0.000050
H76	H	0.349711	0.443043	0.000059
H77	H	0.386636	0.353016	-0.065514
H78	H	0.377397	0.360246	0.065612
H79	H	0.515768	0.451115	-0.065518
H80	H	0.506531	0.458365	0.065619
H81	H	1.389131	0.099775	0.481402
H82	H	0.960979	-0.178508	0.000023
C83	C	1.408827	0.084297	0.363954
C84	C	1.352444	0.128527	0.287040
H85	H	1.459422	0.044596	0.323788
H86	H	1.442930	0.127596	0.410101
H87	H	1.362366	0.050691	0.410122
H88	H	1.398903	0.162139	0.240877
H89	H	1.318340	0.085222	0.240873
C90	C	0.939359	-0.019494	-0.096642
C91	C	0.951281	0.037577	0.000013
H92	H	0.984359	-0.070796	-0.096653
H93	H	0.868974	-0.038402	-0.096631
H94	H	0.956677	0.012009	-0.162192
H95	H	0.933956	0.006076	0.065564
H96	H	1.021682	0.056485	0.000013
H97	H	1.374030	0.111620	0.696089
C98	C	1.116699	0.416701	0.219078
C99	C	1.056838	0.360395	0.287124
H100	H	1.071745	0.451964	0.178938
H101	H	1.156647	0.455400	0.265245
H102	H	1.162292	0.380922	0.166891
H103	H	1.011251	0.396175	0.339317
H104	H	1.016872	0.321692	0.240954
H105	H	1.492505	-0.193349	0.000043
C106	C	0.698735	0.483739	-0.096597
C107	C	0.725470	0.442632	0.000049
H108	H	0.727121	0.542480	-0.096591
H109	H	0.726111	0.448600	-0.162146
H110	H	0.624839	0.488029	-0.096586
H111	H	0.799366	0.438336	0.000034
H112	H	0.698099	0.477779	0.065615
H113	H	1.058490	-0.039837	0.000014
H114	H	1.118548	0.312000	0.696175
H115	H	0.957252	-0.349449	0.000019
H116	H	1.488751	-0.364268	0.000059
C117	C	0.939845	-0.442509	0.000018
C118	C	1.021389	-0.506066	0.000025
H119	H	0.875064	-0.472688	0.000002
H120	H	0.939951	-0.402256	0.065580
H121	H	0.949212	-0.409490	-0.065545
H122	H	1.012027	-0.539081	0.065594
H123	H	1.021282	-0.546335	-0.065543
C124	C	1.502078	-0.458189	0.000044
C125	C	1.417854	-0.517119	0.000048
H126	H	1.565461	-0.491944	0.000052
H127	H	1.503573	-0.424962	-0.065517
H128	H	1.494326	-0.417706	0.065608
H129	H	1.425602	-0.557598	-0.065521
H130	H	1.416361	-0.550361	0.065616
