data_functionalizedCrystal
_audit_creation_method	'MofGen! by Chris Wilmer'
_symmetry_space_group_name_H-M	'P1'
_symmetry_Int_Tables_number	1
_symmetry_cell_setting	triclinic
loop_
_symmetry_equiv_pos_as_xyz
  x,y,z
_cell_length_a	11.169417
_cell_length_b	18.050589
_cell_length_c	11.169409
_cell_angle_alpha	89.967150
_cell_angle_beta	89.980487
_cell_angle_gamma	90.029470
loop_
_atom_site_label
_atom_site_type_symbol
_atom_site_fract_x
_atom_site_fract_y
_atom_site_fract_z
Zn1	Zn	1.834813	-0.295575	-0.678528
Zn2	Zn	2.334813	0.204425	-0.178528
Zn3	Zn	1.834640	-0.419790	-0.477844
Zn4	Zn	2.334640	0.080210	0.022156
Zn5	Zn	1.634099	-0.295621	-0.477864
Zn6	Zn	2.134099	0.204379	0.022136
Zn7	Zn	1.634044	-0.419730	-0.678490
Zn8	Zn	2.134044	0.080270	-0.178490
O9	O	1.734399	-0.357679	-0.578181
O10	O	2.234399	0.142321	-0.078181
O11	O	2.002740	-0.312058	-0.651915
O12	O	2.502740	0.187942	-0.151915
O13	O	1.807988	-0.403363	-0.309896
O14	O	2.307988	0.096637	0.190104
O15	O	1.660820	-0.191690	-0.504507
O16	O	2.160820	0.308310	-0.004507
O17	O	2.002613	-0.403318	-0.504473
O18	O	2.502613	0.096682	-0.004473
O19	O	1.808284	-0.191656	-0.651935
O20	O	2.308284	0.308344	-0.151935
O21	O	1.660652	-0.312136	-0.309911
O22	O	2.160652	0.187864	0.190089
O23	O	1.466142	-0.312078	-0.504470
O24	O	1.966142	0.187922	-0.004470
O25	O	1.660726	-0.403216	-0.846445
O26	O	2.160726	0.096784	-0.346445
O27	O	1.466102	-0.403261	-0.651868
O28	O	1.966102	0.096739	-0.151868
O29	O	1.808230	-0.312000	-0.846473
O30	O	2.308230	0.188000	-0.346473
O31	O	1.807935	-0.523706	-0.504435
O32	O	2.307935	-0.023706	-0.004435
O33	O	1.660558	-0.523662	-0.651849
O34	O	2.160558	-0.023662	-0.151849
C35	C	1.422574	-0.357669	-0.578168
C36	C	1.922574	0.142331	-0.078168
C37	C	1.289174	-0.357682	-0.578190
C38	C	1.789174	0.142318	-0.078190
C39	C	1.734254	-0.550631	-0.578161
C40	C	2.234254	-0.050631	-0.078161
C41	C	1.734302	-0.633177	-0.578193
C42	C	2.234302	-0.133177	-0.078193
C43	C	1.654237	-0.832630	-0.658329
C44	C	2.154237	-0.332630	-0.158329
C45	C	1.624974	-0.882082	-0.548814
C46	C	2.124974	-0.382082	-0.048814
C47	C	1.734420	-0.784307	-0.578209
C48	C	2.234420	-0.284307	-0.078209
C49	C	1.763742	-0.881937	-0.687736
C50	C	2.263742	-0.381937	-0.187736
C51	C	1.734532	-0.930292	-0.578233
C52	C	2.234532	-0.430292	-0.078233
C53	C	1.705099	-0.832671	-0.468636
C54	C	2.205099	-0.332671	0.031364
C55	C	1.843918	-0.832522	-0.607632
C56	C	2.343918	-0.332522	-0.107632
C57	C	1.814697	-0.881951	-0.498042
C58	C	2.314697	-0.381951	0.001958
C59	C	1.734353	-0.700209	-0.578196
C60	C	2.234353	-0.200209	-0.078196
C61	C	1.734599	-1.014389	-0.578234
C62	C	2.234599	-0.514389	-0.078234
C63	C	2.047441	-0.357689	-0.578196
C64	C	2.547441	0.142311	-0.078196
C65	C	2.180841	-0.357694	-0.578202
C66	C	2.680841	0.142306	-0.078202
C67	C	1.734491	-0.357596	-0.891224
C68	C	2.234491	0.142404	-0.391224
C69	C	1.734531	-0.357561	-1.024624
C70	C	2.234531	0.142439	-0.524624
C71	C	1.734577	-0.163973	-0.578228
C72	C	2.234577	0.336027	-0.078228
C73	C	1.734653	-0.081427	-0.578247
C74	C	2.234653	0.418573	-0.078247
C75	C	1.734376	-0.357707	-0.266357
C76	C	2.234376	0.142293	0.233643
C77	C	1.734570	-0.357533	-0.132957
C78	C	2.234570	0.142467	0.367043
H79	H	1.586330	-0.810974	-0.725987
H80	H	2.086330	-0.310974	-0.225987
H81	H	1.936444	-0.810739	-0.632549
H82	H	2.436444	-0.310739	-0.132549
C83	C	1.499941	-0.911491	-0.515197
C84	C	1.999941	-0.411491	-0.015197
N85	N	1.405764	-0.933640	-0.489885
N86	N	1.905764	-0.433640	0.010115
C87	C	1.797189	-0.911173	-0.812856
C88	C	2.297189	-0.411173	-0.312856
N89	N	1.822372	-0.933190	-0.907099
N90	N	2.322372	-0.433190	-0.407099
H91	H	1.680236	-0.811120	-0.375994
H92	H	2.180236	-0.311120	0.124006
C93	C	1.906363	-0.911030	-0.406418
C94	C	2.406363	-0.411030	0.093582
N95	N	1.975400	-0.932934	-0.337404
N96	N	2.475400	-0.432934	0.162596
