data_functionalizedCrystal
_audit_creation_method	'MofGen! by Chris Wilmer'
_symmetry_space_group_name_H-M	'P1'
_symmetry_Int_Tables_number	1
_symmetry_cell_setting	triclinic
loop_
_symmetry_equiv_pos_as_xyz
  x,y,z
_cell_length_a	14.519709
_cell_length_b	23.532407
_cell_length_c	12.996460
_cell_angle_alpha	89.989202
_cell_angle_beta	90.000034
_cell_angle_gamma	83.264412
loop_
_atom_site_label
_atom_site_type_symbol
_atom_site_fract_x
_atom_site_fract_y
_atom_site_fract_z
O1	O	1.222985	0.074654	-0.085444
O2	O	1.556319	0.407987	0.247889
O3	O	1.889652	0.741321	0.581223
O4	O	0.954405	0.083445	-0.085477
O5	O	1.287738	0.416779	0.247857
O6	O	1.621071	0.750112	0.581190
O7	O	1.096794	-0.003845	-0.085440
O8	O	1.430127	0.329488	0.247893
O9	O	1.763461	0.662821	0.581226
O10	O	1.080596	0.161945	-0.085480
O11	O	1.413929	0.495278	0.247853
O12	O	1.747263	0.828611	0.581187
O13	O	1.096779	-0.003850	0.085693
O14	O	1.430113	0.329483	0.419027
O15	O	1.763446	0.662816	0.752360
O16	O	0.954390	0.083441	0.085657
O17	O	1.287723	0.416774	0.418991
O18	O	1.621057	0.750107	0.752324
O19	O	1.222971	0.074649	0.085690
O20	O	1.556304	0.407982	0.419023
O21	O	1.889637	0.741316	0.752357
Cu22	Cu	1.088679	0.079044	0.101299
Cu23	Cu	1.422012	0.412378	0.434633
Cu24	Cu	1.755346	0.745711	0.767966
Cu25	Cu	1.088696	0.079050	-0.101086
Cu26	Cu	1.422030	0.412383	0.232247
Cu27	Cu	1.755363	0.745717	0.565581
O28	O	1.080581	0.161940	0.085654
O29	O	1.413915	0.495273	0.418987
O30	O	1.747248	0.828607	0.752320
C31	C	0.920042	0.083033	0.000086
C32	C	1.253376	0.416367	0.333420
C33	C	1.586709	0.749700	0.666753
C34	C	0.817676	0.081805	0.000075
C35	C	1.151009	0.415139	0.333408
C36	C	1.484342	0.748472	0.666741
C37	C	0.442833	0.077286	0.000123
C38	C	0.776167	0.410619	0.333456
C39	C	1.109500	0.743952	0.666789
C40	C	0.547126	0.078541	0.000109
C41	C	0.880460	0.411874	0.333442
C42	C	1.213793	0.745207	0.666776
C43	C	0.630251	0.079545	0.000098
C44	C	0.963584	0.412879	0.333431
C45	C	1.296918	0.746212	0.666764
C46	C	0.734551	0.080801	0.000086
C47	C	1.067884	0.414134	0.333419
C48	C	1.401217	0.747467	0.666753
C49	C	1.096374	-0.025066	0.000129
C50	C	1.429708	0.308268	0.333462
C51	C	1.763041	0.641601	0.666796
C52	C	1.095134	-0.088288	0.000137
C53	C	1.428467	0.245045	0.333470
C54	C	1.761801	0.578378	0.666804
C55	C	1.171619	-0.487046	0.000090
C56	C	1.504952	-0.153713	0.333423
C57	C	1.838285	0.179620	0.666756
C58	C	1.170467	-0.546452	0.000082
C59	C	1.503800	-0.213119	0.333415
C60	C	1.837133	0.120215	0.666748
O61	O	1.241369	-0.582876	0.000052
O62	O	1.574702	-0.249543	0.333386
O63	O	1.908035	0.083790	0.666719
N64	N	1.085816	-0.569460	0.000072
N65	N	1.419149	-0.236127	0.333406
N66	N	1.752483	0.097207	0.666739
C67	C	1.002312	-0.533059	0.000060
C68	C	1.335646	-0.199726	0.333393
C69	C	1.668979	0.133608	0.666727
O70	O	0.930205	-0.558084	0.000050
O71	O	1.263538	-0.224751	0.333384
O72	O	1.596871	0.108583	0.666717
C73	C	1.003465	-0.473655	0.000061
C74	C	1.336799	-0.140321	0.333394
C75	C	1.670132	0.193012	0.666727
C76	C	1.088121	-0.450650	0.000081
C77	C	1.421455	-0.117317	0.333414
C78	C	1.754788	0.216016	0.666747
C79	C	1.256268	-0.464041	0.000109
C80	C	1.589601	-0.130708	0.333442
C81	C	1.922935	0.202625	0.666775
C82	C	1.257420	-0.404640	0.000119
C83	C	1.590753	-0.071307	0.333452
C84	C	1.924086	0.262027	0.666785
C85	C	1.173922	-0.368244	0.000110
C86	C	1.507255	-0.034910	0.333443
C87	C	1.840589	0.298423	0.666776
C88	C	1.089273	-0.391249	0.000091
C89	C	1.422606	-0.057916	0.333424
C90	C	1.755940	0.275418	0.666757
C91	C	0.919962	-0.437255	0.000041
C92	C	1.253296	-0.103922	0.333375
C93	C	1.586629	0.229412	0.666708
C94	C	0.921123	-0.377847	0.000041
C95	C	1.254456	-0.044514	0.333374
C96	C	1.587789	0.288819	0.666708
C97	C	1.005779	-0.354843	0.000061
C98	C	1.339112	-0.021509	0.333394
C99	C	1.672445	0.311824	0.666728
C100	C	1.006927	-0.295451	0.000091
C101	C	1.340260	0.037882	0.333425
C102	C	1.673594	0.371215	0.666758
N103	N	1.091578	-0.272443	0.000101
N104	N	1.424911	0.060890	0.333434
N105	N	1.758244	0.394223	0.666768
C106	C	1.175075	-0.308839	0.000110
C107	C	1.508408	0.024494	0.333443
C108	C	1.841742	0.357827	0.666777
C109	C	0.999897	-0.657813	0.000057
C110	C	1.333231	-0.324479	0.333390
C111	C	1.666564	0.008854	0.666724
C112	C	0.998743	-0.717216	0.000064
C113	C	1.332077	-0.383882	0.333397
C114	C	1.665410	-0.050549	0.666731
C115	C	1.166898	-0.730604	0.000084
C116	C	1.500231	-0.397271	0.333417
C117	C	1.833565	-0.063938	0.666750
C118	C	1.168051	-0.671200	0.000084
C119	C	1.501384	-0.337867	0.333418
C120	C	1.834718	-0.004533	0.666751
C121	C	1.084548	-0.634804	0.000067
C122	C	1.417881	-0.301471	0.333400
C123	C	1.751214	0.031862	0.666733
C124	C	1.177487	-0.184092	0.000132
C125	C	1.510821	0.149242	0.333465
C126	C	1.844154	0.482575	0.666798
C127	C	1.178632	-0.124685	0.000146
C128	C	1.511965	0.208649	0.333479
C129	C	1.845298	0.541982	0.666813
C130	C	1.010477	-0.111301	0.000121
C131	C	1.343811	0.222032	0.333454
C132	C	1.677144	0.555366	0.666787
C133	C	1.009332	-0.170703	0.000112
C134	C	1.342666	0.162630	0.333445
C135	C	1.675999	0.495964	0.666779
C136	C	1.092845	-0.207098	0.000114
C137	C	1.426178	0.126236	0.333447
C138	C	1.759512	0.459569	0.666781
O139	O	0.936062	-0.258992	0.000117
O140	O	1.269396	0.074341	0.333450
O141	O	1.602729	0.407675	0.666783
O142	O	1.247171	-0.283806	0.000106
O143	O	1.580504	0.049527	0.333440
O144	O	1.913838	0.382860	0.666773
C145	C	1.257333	0.075061	0.000125
C146	C	1.590666	0.408395	0.333458
C147	C	1.924000	0.741728	0.666791
C148	C	1.359700	0.076289	0.000130
C149	C	1.693033	0.409622	0.333463
C150	C	2.026366	0.742956	0.666796
C151	C	1.081001	0.183160	0.000082
C152	C	1.414334	0.516494	0.333415
C153	C	1.747668	0.849827	0.666749
C154	C	1.082241	0.246383	0.000067
C155	C	1.415575	0.579716	0.333401
C156	C	1.748908	0.913050	0.666734
N157	N	1.088673	0.079040	0.243647
N158	N	1.422007	0.412373	0.576980
N159	N	1.755340	0.745707	0.910313
N160	N	1.088709	0.079050	-0.243433
N161	N	1.422043	0.412383	0.089900
N162	N	1.755376	0.745717	0.423233
C163	C	1.088695	0.079051	0.663461
C164	C	1.422028	0.412384	0.996794
C165	C	1.755362	0.745717	1.330128
C166	C	1.088686	0.079050	0.546656
C167	C	1.422020	0.412383	0.879989
C168	C	1.755353	0.745716	1.213322
C169	C	1.088685	0.079046	0.453557
C170	C	1.422018	0.412379	0.786891
C171	C	1.755351	0.745712	1.120224
C172	C	1.088675	0.079044	0.336745
C173	C	1.422008	0.412377	0.670078
C174	C	1.755342	0.745711	1.003412
H175	H	1.247572	-0.105958	0.000165
H176	H	1.580905	0.227375	0.333498
H177	H	1.914238	0.560709	0.666831
H178	H	1.245491	-0.213718	0.000129
H179	H	1.578825	0.119616	0.333463
H180	H	1.912158	0.452949	0.666796
O181	O	1.348727	-0.379830	0.000110
O182	O	1.682060	-0.046497	0.333443
O183	O	2.015393	0.286836	0.666777
H184	H	1.406586	-0.415126	0.000098
H185	H	1.739919	-0.081793	0.333431
H186	H	2.073253	0.251540	0.666765
H187	H	1.236985	-0.652474	0.000100
H188	H	1.570319	-0.319141	0.333433
H189	H	1.903652	0.014192	0.666766
O190	O	1.346333	-0.503294	0.000133
O191	O	1.679666	-0.169960	0.333466
O192	O	2.013000	0.163373	0.666800
H193	H	1.405379	-0.477307	0.000157
H194	H	1.738712	-0.143973	0.333490
H195	H	2.072046	0.189360	0.666823
H196	H	0.940399	-0.189434	0.000124
H197	H	1.273732	0.143899	0.333458
H198	H	1.607065	0.477232	0.666791
O199	O	1.256962	-0.769865	0.000082
O200	O	1.590295	-0.436532	0.333416
O201	O	1.923628	-0.103199	0.666749
H202	H	1.241930	-0.815036	0.000067
H203	H	1.575263	-0.481703	0.333400
H204	H	1.908597	-0.148369	0.666733
H205	H	0.853122	-0.348216	0.000025
H206	H	1.186456	-0.014883	0.333359
H207	H	1.519789	0.318450	0.666692
O208	O	0.920420	-0.072041	0.000110
O209	O	1.253754	0.261293	0.333443
O210	O	1.587087	0.594626	0.666776
H211	H	0.935452	-0.026870	0.000108
H212	H	1.268785	0.306463	0.333441
H213	H	1.602119	0.639797	0.666774
H214	H	0.929808	-0.735940	0.000065
H215	H	1.263141	-0.402607	0.333399
H216	H	1.596475	-0.069274	0.666732
H217	H	0.851027	-0.455975	0.000019
H218	H	1.184360	-0.122641	0.333352
H219	H	1.517693	0.210692	0.666685
H220	H	0.931894	-0.628182	0.000052
H221	H	1.265228	-0.294848	0.333385
H222	H	1.598561	0.038485	0.666718
