data_functionalizedCrystal
_audit_creation_method	'MofGen! by Chris Wilmer'
_symmetry_space_group_name_H-M	'P1'
_symmetry_Int_Tables_number	1
_symmetry_cell_setting	triclinic
loop_
_symmetry_equiv_pos_as_xyz
  x,y,z
_cell_length_a	19.077236
_cell_length_b	12.827892
_cell_length_c	19.076919
_cell_angle_alpha	87.721647
_cell_angle_beta	89.887323
_cell_angle_gamma	87.689617
loop_
_atom_site_label
_atom_site_type_symbol
_atom_site_fract_x
_atom_site_fract_y
_atom_site_fract_z
Zn1	Zn	1.058322	0.379341	-0.440572
Zn2	Zn	1.558322	0.879341	0.059428
Zn3	Zn	1.062975	0.546811	-0.323079
Zn4	Zn	1.562975	1.046811	0.176921
Zn5	Zn	0.945537	0.378793	-0.318352
Zn6	Zn	1.445537	0.878793	0.181648
Zn7	Zn	0.940796	0.560753	-0.435818
Zn8	Zn	1.440796	1.060753	0.064182
O9	O	1.001908	0.466425	-0.379455
O10	O	1.501908	0.966425	0.120545
O11	O	1.157273	0.395951	-0.428954
O12	O	1.657273	0.895951	0.071046
O13	O	1.051329	0.518459	-0.224120
O14	O	1.551329	1.018459	0.275880
O15	O	0.960535	0.232628	-0.334576
O16	O	1.460535	0.732628	0.165424
O17	O	1.160691	0.518991	-0.342632
O18	O	1.660691	1.018991	0.157368
O19	O	1.043398	0.233031	-0.424371
O20	O	1.543398	0.733031	0.075629
O21	O	0.965048	0.395017	-0.220648
O22	O	1.465048	0.895017	0.279352
O23	O	0.846575	0.408536	-0.329966
O24	O	1.346575	0.908536	0.170034
O25	O	0.952454	0.542752	-0.534780
O26	O	1.452454	1.042752	-0.034780
O27	O	0.843092	0.542221	-0.416268
O28	O	1.343092	1.042221	0.083732
O29	O	1.038800	0.409470	-0.538273
O30	O	1.538800	0.909470	-0.038273
O31	O	1.046731	0.694898	-0.338022
O32	O	1.546731	1.194898	0.161978
O33	O	0.956966	0.705141	-0.420851
O34	O	1.456966	1.205141	0.079149
C35	C	0.819337	0.476833	-0.372089
C36	C	1.319337	0.976833	0.127911
C37	C	0.741231	0.481311	-0.368954
C38	C	1.241231	0.981311	0.131046
C39	C	0.702755	0.419466	-0.412493
C40	C	1.202755	0.919466	0.087507
C41	C	0.629367	0.423668	-0.409542
C42	C	1.129367	0.923668	0.090458
C43	C	0.594456	0.489723	-0.363054
C44	C	1.094456	0.989723	0.136946
C45	C	0.632938	0.551571	-0.319511
C46	C	1.132938	1.051571	0.180489
C47	C	0.706325	0.547362	-0.322459
C48	C	1.206325	1.047362	0.177541
C49	C	0.375165	0.509164	-0.349407
C50	C	0.875165	1.009164	0.150593
C51	C	0.301772	0.513370	-0.346463
C52	C	0.801772	1.013370	0.153537
C53	C	0.298207	0.385466	-0.436494
C54	C	0.798207	0.885466	0.063506
C55	C	0.371595	0.381267	-0.439441
C56	C	0.871595	0.881267	0.060559
C57	C	0.410070	0.443111	-0.395895
C58	C	0.910070	0.943111	0.104105
N59	N	0.519442	0.494023	-0.360038
N60	N	1.019442	0.994023	0.139962
N61	N	0.485083	0.438805	-0.398908
N62	N	0.985083	0.938805	0.101092
C63	C	1.001858	0.737937	-0.379450
C64	C	1.501858	1.237937	0.120550
C65	C	1.001900	0.854089	-0.379474
C66	C	1.501900	1.354089	0.120526
C67	C	1.046366	0.900771	-0.338539
C68	C	1.546366	1.400771	0.161461
C69	C	1.046410	1.020820	-0.338562
C70	C	1.546410	1.520820	0.161438
C71	C	1.185192	0.455977	-0.386851
C72	C	1.685192	0.955977	0.113149
C73	C	1.263296	0.451525	-0.390002
C74	C	1.763296	0.951525	0.109998
C75	C	0.994579	0.477727	-0.562735
C76	C	1.494579	0.977727	-0.062735
C77	C	0.991456	0.482544	-0.640838
C78	C	1.491456	0.982544	-0.140838
C79	C	1.001970	1.193853	-0.379485
C80	C	1.501970	1.693853	0.120515
C81	C	1.001982	1.077701	-0.379519
C82	C	1.501982	1.577701	0.120481
C83	C	1.034942	0.415417	-0.679351
C84	C	1.534942	0.915417	-0.179351
C85	C	1.031999	0.419939	-0.752737
C86	C	1.531999	0.919939	-0.252737
C87	C	0.985573	0.491594	-0.787609
C88	C	1.485573	0.991594	-0.287609
C89	C	0.942082	0.558724	-0.749091
C90	C	1.442082	1.058724	-0.249091
C91	C	0.945022	0.554196	-0.675706
C92	C	1.445022	1.054196	-0.175706
C93	C	0.971956	0.512572	-1.006890
C94	C	1.471956	1.012572	-0.506890
C95	C	0.969021	0.517097	-1.080280
C96	C	1.469021	1.017097	-0.580280
C97	C	1.058938	0.378310	-1.083921
C98	C	1.558938	0.878310	-0.583921
C99	C	1.061877	0.373793	-1.010535
C100	C	1.561877	0.873793	-0.510535
C101	C	1.018383	0.440919	-0.972023
C102	C	1.518383	0.940919	-0.472023
N103	N	0.982565	0.496220	-0.862621
N104	N	1.482565	0.996220	-0.362621
N105	N	1.021388	0.436287	-0.897012
N106	N	1.521388	0.936287	-0.397012
C107	C	1.009248	0.455088	-0.196890
C108	C	1.509248	0.955088	0.303110
C109	C	1.012507	0.449970	-0.118792
C110	C	1.512507	0.949970	0.381208
H111	H	0.731174	0.365680	-0.450350
H112	H	1.231174	0.865680	0.049650
Cl113	Cl	0.910649	0.607179	-1.124118
Cl114	Cl	1.410649	1.107179	-0.624118
H115	H	1.084477	1.060985	-0.303514
H116	H	1.584477	1.560985	0.196486
Cl117	Cl	0.917279	0.596960	-0.958485
Cl118	Cl	1.417279	1.096960	-0.458485
Cl119	Cl	0.754695	0.625115	-0.267722
Cl120	Cl	1.254695	1.125115	0.232278
Cl121	Cl	0.890349	0.638585	-0.627290
Cl122	Cl	1.390349	1.138585	-0.127290
H123	H	0.904278	0.617063	-0.777489
H124	H	1.404278	1.117063	-0.277489
H125	H	0.406482	0.559522	-0.313949
H126	H	0.906482	1.059522	0.186051
Cl127	Cl	0.249834	0.307722	-0.491232
Cl128	Cl	0.749834	0.807722	0.008768
Cl129	Cl	0.943197	1.015703	-0.433628
Cl130	Cl	1.443197	1.515703	0.066372
H131	H	0.598043	0.373309	-0.444997
H132	H	1.098043	0.873309	0.055003
H133	H	0.963866	0.902999	-0.414540
H134	H	1.463866	1.402999	0.085460
H135	H	0.604508	0.605349	-0.281656
H136	H	1.104508	1.105349	0.218344
Cl137	Cl	0.415477	0.298230	-0.497889
Cl138	Cl	0.915477	0.798230	0.002111
H139	H	0.273351	0.567165	-0.308607
H140	H	0.773351	1.067165	0.191393
H141	H	1.072750	0.357070	-0.650964
H142	H	1.572750	0.857070	-0.150964
Cl143	Cl	1.086701	0.335591	-0.801151
Cl144	Cl	1.586701	0.835591	-0.301151
Cl145	Cl	1.105098	0.825267	-0.284405
Cl146	Cl	1.605098	1.325267	0.215595
H147	H	1.099684	0.315446	-0.982147
H148	H	1.599684	0.815446	-0.482147
Cl149	Cl	1.113609	0.293925	-1.132339
Cl150	Cl	1.613609	0.793925	-0.632339
