data_functionalizedCrystal
_audit_creation_method	'MofGen! by Chris Wilmer'
_symmetry_space_group_name_H-M	'P1'
_symmetry_Int_Tables_number	1
_symmetry_cell_setting	triclinic
loop_
_symmetry_equiv_pos_as_xyz
  x,y,z
_cell_length_a	23.532407
_cell_length_b	10.654550
_cell_length_c	9.130313
_cell_angle_alpha	89.990227
_cell_angle_beta	90.010427
_cell_angle_gamma	96.333210
loop_
_atom_site_label
_atom_site_type_symbol
_atom_site_fract_x
_atom_site_fract_y
_atom_site_fract_z
O1	O	0.079986	-1.665310	0.121936
O2	O	0.087606	-1.299590	0.121914
O3	O	0.000936	-1.493478	0.121899
O4	O	0.166656	-1.471422	0.121952
O5	O	0.000932	-1.493456	-0.121700
O6	O	0.087602	-1.299568	-0.121684
O7	O	0.079981	-1.665287	-0.121662
Cu8	Cu	0.083791	-1.482425	-0.143916
Cu9	Cu	0.083796	-1.482452	0.144168
O10	O	0.166651	-1.471399	-0.121647
C11	C	-0.020286	-1.492905	0.000096
C12	C	-0.083514	-1.491217	0.000085
C13	C	0.087044	-1.252799	0.000112
C14	C	0.085370	-1.113408	0.000102
C15	C	0.080543	-1.712079	0.000143
C16	C	0.082217	-1.851469	0.000163
C17	C	-0.481938	-1.595364	0.000171
C18	C	-0.541349	-1.593795	0.000182
O19	O	-0.577464	-1.690341	0.000242
N20	N	-0.564726	-1.478529	0.000174
C21	C	-0.528689	-1.364824	0.000170
O22	O	-0.554029	-1.266636	0.000166
C23	C	-0.469280	-1.366394	0.000170
C24	C	-0.445906	-1.481668	0.000163
C25	C	-0.458564	-1.710629	0.000166
C26	C	-0.399158	-1.712197	0.000152
C27	C	-0.363126	-1.598500	0.000144
C28	C	-0.386500	-1.483236	0.000149
C29	C	-0.433244	-1.252690	0.000176
C30	C	-0.373832	-1.254270	0.000177
C31	C	-0.350458	-1.369544	0.000170
C32	C	-0.291061	-1.371108	0.000127
N33	N	-0.267684	-1.486374	0.000135
C34	C	-0.303716	-1.600070	0.000143
C35	C	-0.653453	-1.361535	0.000174
C36	C	-0.712861	-1.359964	0.000164
C37	C	-0.725517	-1.588936	0.000179
C38	C	-0.666108	-1.590506	0.000178
C39	C	-0.630076	-1.476802	0.000182
C40	C	-0.178958	-1.603355	0.000113
C41	C	-0.119546	-1.604913	0.000093
C42	C	-0.106896	-1.375942	0.000086
C43	C	-0.166303	-1.374383	0.000098
C44	C	-0.202333	-1.488100	0.000117
O45	O	-0.254911	-1.274613	0.000073
O46	O	-0.278369	-1.698241	0.000167
C47	C	0.187873	-1.471972	0.000159
C48	C	0.251101	-1.473661	0.000180
N49	N	0.083787	-1.482416	-0.346539
C50	C	0.136400	-1.032306	0.000140
C51	C	0.134824	-0.901335	0.000165
C52	C	0.031183	-0.932582	0.000121
C53	C	0.032760	-1.063550	0.000085
C54	C	0.189010	-1.082164	0.000157
C55	C	0.240045	-1.001060	0.000196
C56	C	0.238468	-0.870089	0.000221
C57	C	0.185858	-0.820222	0.000206
C58	C	0.122158	-1.396589	-0.576559
C59	C	0.122153	-1.396557	-0.423222
C60	C	0.045421	-1.568303	-0.423199
C61	C	0.045424	-1.568328	-0.576533
C62	C	0.160530	-1.310733	-0.653235
C63	C	0.198896	-1.224843	-0.576585
C64	C	0.198891	-1.224812	-0.423248
C65	C	0.160520	-1.310670	-0.346562
N66	N	0.083795	-1.482472	0.346791
H67	H	-0.100519	-1.698787	0.000084
H68	H	0.184578	-0.713576	0.000204
O69	O	0.236088	-1.141392	-0.651234
C70	C	0.205265	-1.064306	-0.739962
H71	H	0.160914	-1.114884	-0.762940
H72	H	0.228954	-1.044164	-0.847779
H73	H	0.201003	-0.971539	-0.680916
O74	O	-0.019870	-0.883935	0.000185
C75	C	-0.010319	-0.750947	0.000191
H76	H	0.034001	-0.719653	0.046327
H77	H	-0.044010	-0.711174	0.070920
H78	H	-0.013225	-0.714479	-0.116665
H79	H	0.014181	-1.638206	-0.360751
O80	O	-0.338774	-1.143895	-0.000018
C81	C	-0.304051	-1.137911	-0.126205
H82	H	-0.300646	-1.237537	-0.168270
H83	H	-0.259595	-1.090557	-0.097837
H84	H	-0.323835	-1.080802	-0.214543
O85	O	-0.493479	-1.821198	0.000104
C86	C	-0.460096	-1.923254	0.000139
H87	H	-0.415896	-1.890781	-0.045972
H88	H	-0.481684	-2.002866	-0.070592
H89	H	-0.455716	-1.958640	0.117004
H90	H	0.282878	-1.041671	0.000195
O91	O	-0.188917	-1.262298	0.000165
C92	C	-0.144372	-1.162285	0.000111
H93	H	-0.103872	-1.196977	0.046204
H94	H	-0.157099	-1.081773	0.070849
H95	H	-0.136124	-1.127231	-0.116757
H96	H	0.280023	-0.804057	0.000238
O97	O	0.236210	-1.141333	-0.349015
C98	C	0.270066	-1.065543	-0.449578
H99	H	0.270927	-1.117039	-0.558855
H100	H	0.315464	-1.045810	-0.405253
H101	H	0.251184	-0.972495	-0.465943
H102	H	-0.077548	-1.283373	0.000074
H103	H	0.160539	-1.310753	-0.778090
O104	O	0.160608	-1.310511	-0.197609
C105	C	0.202686	-1.216273	-0.146394
H106	H	0.236518	-1.193953	-0.234748
H107	H	0.223583	-1.251372	-0.043788
H108	H	0.181982	-1.127293	-0.119231
O109	O	0.008134	-1.651866	-0.650774
C110	C	-0.025744	-1.727620	-0.550222
H111	H	-0.002391	-1.728750	-0.440907
H112	H	-0.034018	-1.828010	-0.594502
H113	H	-0.068216	-1.687359	-0.533947
O114	O	-0.016770	-1.142471	0.000250
C115	C	-0.018961	-1.219186	0.126408
H116	H	0.026267	-1.225246	0.168482
H117	H	-0.039780	-1.317889	0.097999
H118	H	-0.045143	-1.176459	0.214756
O119	O	-0.213871	-1.713933	0.000060
C120	C	-0.180490	-1.815992	0.000089
H121	H	-0.136291	-1.783524	-0.046035
H122	H	-0.202082	-1.895605	-0.070634
H123	H	-0.176105	-1.851375	0.116954
H124	H	-0.380133	-1.806065	0.000153
H125	H	-0.647081	-1.684372	0.000174
H126	H	-0.754865	-1.681514	0.000191
H127	H	-0.731887	-1.266096	0.000144
H128	H	-0.624119	-1.268937	0.000164
H129	H	0.190300	-1.188805	0.000143
O130	O	-0.456005	-1.140788	0.000393
C131	C	-0.489965	-1.133029	0.126585
H132	H	-0.504368	-1.232198	0.168632
H133	H	-0.529059	-1.083440	0.098232
H134	H	-0.463930	-1.077174	0.214932
