data_functionalizedCrystal
_audit_creation_method	'MofGen! by Chris Wilmer'
_symmetry_space_group_name_H-M	'P1'
_symmetry_Int_Tables_number	1
_symmetry_cell_setting	triclinic
loop_
_symmetry_equiv_pos_as_xyz
  x,y,z
_cell_length_a	14.560432
_cell_length_b	16.704503
_cell_length_c	16.704494
_cell_angle_alpha	66.032140
_cell_angle_beta	90.001599
_cell_angle_gamma	62.458403
loop_
_atom_site_label
_atom_site_type_symbol
_atom_site_fract_x
_atom_site_fract_y
_atom_site_fract_z
Zr1	Zr	0.955193	0.814751	-0.043749
O2	O	0.827235	0.960113	-0.155578
O3	O	0.985790	0.661226	-0.017012
O4	O	1.006394	0.802976	-0.166453
O5	O	0.800195	0.830498	0.120326
O6	O	1.157534	0.802975	-0.166450
O7	O	0.806631	0.818363	-0.006137
O8	O	1.120677	0.549409	0.100873
O9	O	0.837051	1.084063	-0.146996
O10	O	1.122060	0.727396	0.003508
O11	O	1.004462	0.736453	0.097884
O12	O	1.028720	0.903346	-0.078064
O13	O	0.911123	0.912403	0.016312
Zr14	Zr	1.185980	0.834103	0.157950
Zr15	Zr	1.196245	0.814749	-0.043744
Zr16	Zr	0.944929	0.834105	0.157945
Zr17	Zr	0.970850	1.012438	-0.030063
Zr18	Zr	1.170324	0.636416	0.144263
O19	O	1.155384	0.987628	0.131212
O20	O	1.169979	0.960109	-0.155571
O21	O	0.812640	0.987632	0.131205
O22	O	1.313939	0.688741	0.269778
O23	O	1.328534	0.661222	-0.017005
O24	O	0.971195	0.688745	0.269771
O25	O	1.340979	0.818356	-0.006126
O26	O	1.134780	0.845877	0.280653
O27	O	0.983640	0.845879	0.280650
O28	O	1.334543	0.830491	0.120337
O29	O	1.028655	1.084061	-0.146992
O30	O	1.112518	0.564793	0.261193
O31	O	1.304122	0.564791	0.261196
O32	O	1.312281	0.549407	0.100877
O33	O	0.828892	1.099447	0.013324
O34	O	1.020496	1.099445	0.013328
O35	O	1.112453	0.745508	0.192264
O36	O	1.230051	0.736450	0.097888
O37	O	1.136712	0.912401	0.016317
O38	O	1.019114	0.921458	0.110692
C39	C	1.051003	0.577152	0.039980
C40	C	1.044356	0.493229	0.034170
C41	C	0.769068	0.824430	0.057094
C42	C	0.666735	0.824432	0.057092
C43	C	1.180490	0.212312	0.153164
C44	C	1.174247	0.133456	0.147708
C45	C	1.025623	0.256660	0.017806
C46	C	1.031866	0.335516	0.023262
C47	C	1.109303	0.313336	0.090943
C48	C	1.115550	0.392194	0.096394
C49	C	0.966922	0.515396	-0.033503
C50	C	0.960680	0.436540	-0.038959
C51	C	0.673804	0.811073	-0.082259
C52	C	0.629261	0.804397	-0.151933
C53	C	0.533111	0.804397	-0.151930
C54	C	0.481503	0.811071	-0.082244
C55	C	0.526046	0.817746	-0.012569
C56	C	0.622196	0.817749	-0.012581
C57	C	0.518981	0.831098	0.126783
C58	C	0.615127	0.831105	0.126778
C59	C	0.467373	0.837771	0.196470
C60	C	0.511912	0.844454	0.266143
C61	C	0.608067	0.844455	0.266136
C62	C	0.659670	0.837781	0.196453
C63	C	1.372106	0.824423	0.057106
C64	C	1.474439	0.824422	0.057109
C65	C	1.083426	0.800218	-0.195188
C66	C	1.087784	0.792002	-0.280813
C67	C	1.090171	1.071702	0.074220
C68	C	1.096818	1.155625	0.080030
C69	C	0.998535	0.960271	-0.526880
C70	C	1.002627	0.952556	-0.607334
C71	C	1.100066	0.768857	-0.522177
C72	C	1.095974	0.776572	-0.441723
C73	C	1.045205	0.872282	-0.444079
C74	C	1.041107	0.879997	-0.363623
C75	C	1.138553	0.696299	-0.278468
C76	C	1.142645	0.688584	-0.358922
C77	C	1.057747	0.848636	0.309389
C78	C	1.053390	0.856852	0.395013
C79	C	1.352522	0.577148	0.039986
C80	C	1.448208	0.493224	0.034178
C81	C	1.038163	0.601361	0.292269
C82	C	1.027159	0.525654	0.372083
C83	C	1.339682	0.601357	0.292275
C84	C	1.431011	0.525649	0.372091
C85	C	0.801492	1.047497	-0.178075
C86	C	0.710163	1.123205	-0.257891
C87	C	0.788652	1.071706	0.074214
C88	C	0.692966	1.155630	0.080022
C89	C	1.103010	1.047493	-0.178068
C90	C	1.114015	1.123200	-0.257883
C91	C	1.436773	0.449085	-0.017823
C92	C	1.526673	0.370238	-0.023299
C93	C	1.628006	0.335527	0.023233
C94	C	1.639439	0.379674	0.075237
C95	C	1.549541	0.458524	0.080706
C96	C	1.078361	0.494829	0.458838
C97	C	1.068018	0.423706	0.533841
C98	C	1.006478	0.383404	0.522085
C99	C	0.955269	0.414236	0.435321
C100	C	0.965607	0.485363	0.360321
C101	C	1.535294	0.485368	0.360311
C102	C	1.621118	0.414243	0.435299
C103	C	1.602654	0.383394	0.522068
C104	C	1.498360	0.423683	0.533847
C105	C	1.412540	0.494813	0.458859
C106	C	0.605880	1.163495	-0.246110
C107	C	0.520059	1.234645	-0.321097
C108	C	0.538522	1.265498	-0.407865
C109	C	0.642816	1.225204	-0.419644
C110	C	0.728636	1.154061	-0.344658
C111	C	0.704402	1.199776	0.132016
C112	C	0.614505	1.278643	0.137471
C113	C	0.513172	1.313356	0.090936
C114	C	0.501739	1.269206	0.038936
C115	C	0.591635	1.190346	0.033477
C116	C	1.175563	1.163479	-0.246099
C117	C	1.185923	1.234604	-0.321085
C118	C	1.134729	1.265454	-0.407855
C119	C	1.073178	1.225166	-0.419638
C120	C	1.062825	1.154038	-0.344652
H121	H	1.178605	0.374130	0.151502
H122	H	1.217253	1.138374	-0.175453
H123	H	1.232213	0.051199	0.198376
F124	F	0.911111	0.518157	0.267990
H125	H	1.550348	0.510473	0.289666
H126	H	0.813546	1.121256	-0.354261
F127	F	0.586206	1.130672	-0.153771
H128	H	0.752088	0.811084	-0.082274
H129	H	0.999764	0.957929	-0.365545
H130	H	0.957185	1.038202	-0.528800
H131	H	1.141413	0.690935	-0.520275
H132	H	0.403220	0.811058	-0.082240
H133	H	1.012702	1.121250	-0.354259
F134	F	0.393884	1.306159	-0.010583
H135	H	0.435146	1.267441	-0.311488
F136	F	0.579447	1.143364	-0.021859
F137	F	1.301554	0.537671	0.471411
H138	H	0.964624	1.024205	-0.674752
H139	H	0.998069	0.325489	0.583163
H140	H	1.706031	0.381446	0.425692
F141	F	1.188220	0.602649	-0.190336
H142	H	0.496848	0.798956	-0.208663
H143	H	1.236041	1.267399	-0.311474
H144	H	0.389086	0.837765	0.196472
H145	H	1.672545	0.325475	0.583120
F146	F	0.943204	0.280247	-0.054207
F147	F	1.145755	1.341159	-0.487654
F148	F	1.143866	0.537705	0.471370
H149	H	1.354272	0.477344	-0.055727
H150	H	1.031499	1.250295	-0.490296
F151	F	1.478727	0.390842	0.626199
F152	F	1.514482	0.323265	-0.078646
F153	F	1.262913	0.188709	0.225185
H154	H	0.897630	0.454586	-0.094060
H155	H	0.905163	0.381412	0.425762
F156	F	0.447174	1.341215	-0.487665
F157	F	0.812240	1.162849	0.181547
F158	F	0.891162	0.622923	-0.099733
H159	H	0.657837	1.250333	-0.490300
F160	F	0.684192	0.797290	-0.226094
F161	F	0.626695	1.325614	0.192820
H162	H	1.721956	0.351401	0.113120
F163	F	0.456988	0.851548	0.340304
F164	F	0.417504	1.397287	0.096756
F165	F	1.196674	0.586728	-0.356425
F166	F	1.723675	0.251606	0.017404
F167	F	1.561726	0.505488	0.136061
H168	H	0.644331	0.849886	0.322876
F169	F	0.761998	0.837787	0.196437
F170	F	1.122528	0.390903	0.626173
