data_functionalizedCrystal
_audit_creation_method	'MofGen! by Chris Wilmer'
_symmetry_space_group_name_H-M	'P1'
_symmetry_Int_Tables_number	1
_symmetry_cell_setting	triclinic
loop_
_symmetry_equiv_pos_as_xyz
  x,y,z
_cell_length_a	21.295418
_cell_length_b	21.295417
_cell_length_c	21.295411
_cell_angle_alpha	89.978356
_cell_angle_beta	89.956262
_cell_angle_gamma	90.046319
loop_
_atom_site_label
_atom_site_type_symbol
_atom_site_fract_x
_atom_site_fract_y
_atom_site_fract_z
Zn1	Zn	0.962356	-0.250415	-0.356234
Zn2	Zn	0.962258	-0.355667	-0.250959
Zn3	Zn	0.857079	-0.250445	-0.250943
Zn4	Zn	0.857048	-0.355680	-0.356155
O5	O	0.909685	-0.303052	-0.303573
O6	O	1.050432	-0.264360	-0.342308
O7	O	0.948278	-0.341716	-0.162867
O8	O	0.871098	-0.162351	-0.264937
O9	O	1.050361	-0.341688	-0.264963
O10	O	0.948444	-0.162330	-0.342293
O11	O	0.871003	-0.264410	-0.162856
O12	O	0.768985	-0.264422	-0.264861
O13	O	0.871046	-0.341709	-0.444255
O14	O	0.768963	-0.341738	-0.342160
O15	O	0.948415	-0.264372	-0.444313
O16	O	0.948248	-0.443758	-0.264887
O17	O	0.870951	-0.443767	-0.342175
C18	C	0.746134	-0.303085	-0.303500
C19	C	0.676166	-0.303114	-0.303484
C20	C	0.643304	-0.343426	-0.343674
C21	C	0.577561	-0.343410	-0.343702
C22	C	0.544683	-0.303090	-0.303530
C23	C	0.577553	-0.262770	-0.263337
C24	C	0.643294	-0.262783	-0.263315
N25	N	0.441407	-0.298163	-0.248472
N26	N	0.378956	-0.298155	-0.248495
C27	C	0.346608	-0.303050	-0.303596
N28	N	0.379072	-0.307965	-0.358675
N29	N	0.441529	-0.307976	-0.358650
C30	C	0.473398	-0.303072	-0.303550
C31	C	0.242461	-0.343346	-0.343820
C32	C	0.176717	-0.343326	-0.343849
C33	C	0.176710	-0.262690	-0.263479
C34	C	0.242453	-0.262707	-0.263455
C35	C	0.275324	-0.303038	-0.303625
C36	C	0.909603	-0.466603	-0.303538
C37	C	0.909625	-0.536571	-0.303544
C38	C	0.949910	-0.569412	-0.263342
C39	C	0.949939	-0.635155	-0.263356
C40	C	0.909673	-0.668054	-0.303566
C41	C	0.869386	-0.635205	-0.343776
C42	C	0.869362	-0.569464	-0.343765
N43	N	0.854606	-0.771336	-0.308340
N44	N	0.854630	-0.833787	-0.308347
C45	C	0.909743	-0.866129	-0.303602
N46	N	0.964832	-0.833659	-0.298838
N47	N	0.964807	-0.771202	-0.298828
C48	C	0.909695	-0.739339	-0.303582
C49	C	0.950063	-0.970255	-0.263413
C50	C	0.950094	-1.035999	-0.263431
C51	C	0.869535	-1.036048	-0.343848
C52	C	0.869510	-0.970305	-0.343833
C53	C	0.909773	-0.937413	-0.303612
C54	C	1.073876	-0.303019	-0.303646
C55	C	1.143844	-0.303005	-0.303677
C56	C	0.909738	-0.303038	-0.467763
C57	C	0.909760	-0.303033	-0.537731
C58	C	0.909785	-0.138861	-0.303622
C59	C	0.909828	-0.068893	-0.303642
C60	C	0.950044	-0.262761	-0.570629
C61	C	0.950043	-0.262734	-0.636371
C62	C	0.909765	-0.302989	-0.669214
C63	C	0.869473	-0.343263	-0.636308
C64	C	0.869470	-0.343285	-0.570567
N65	N	0.904908	-0.358058	-0.772428
N66	N	0.904914	-0.358036	-0.834879
C67	C	0.909769	-0.302926	-0.867289
N68	N	0.914629	-0.247837	-0.834888
N69	N	0.914627	-0.247860	-0.772430
C70	C	0.909763	-0.302970	-0.740499
C71	C	0.950054	-0.262621	-0.971472
C72	C	0.950049	-0.262593	-1.037216
C73	C	0.869482	-0.343128	-1.037151
C74	C	0.869484	-0.343151	-0.971409
C75	C	0.909773	-0.302898	-0.938573
C76	C	0.909670	-0.303019	-0.140021
C77	C	0.909769	-0.302848	-0.070054
H78	H	0.670050	-0.229954	-0.230588
O79	O	0.830438	-0.382437	-0.668236
C80	C	0.821921	-0.467381	-0.742475
C81	C	0.866203	-0.423067	-0.706347
H82	H	0.850819	-0.500233	-0.773306
H83	H	0.793138	-0.496215	-0.707694
H84	H	0.789013	-0.438464	-0.773205
H85	H	0.899149	-0.451935	-0.675616
H86	H	0.894942	-0.394230	-0.741162
H87	H	0.670063	-0.376266	-0.376384
O88	O	0.274281	-0.223532	-0.224351
C89	C	0.267334	-0.143524	-0.144667
C90	C	0.231211	-0.187872	-0.188910
H91	H	0.232528	-0.114672	-0.116010
H92	H	0.298030	-0.172352	-0.111645
H93	H	0.298195	-0.110685	-0.173629
H94	H	0.200317	-0.220720	-0.159999
H95	H	0.200555	-0.159005	-0.221933
H96	H	0.836557	-0.542724	-0.376503
O97	O	0.989227	-0.223738	-0.538697
C98	C	1.074165	-0.215242	-0.464479
C99	C	1.029853	-0.259514	-0.500621
H100	H	1.107014	-0.244148	-0.433676
H101	H	1.103004	-0.186453	-0.499251
H102	H	1.045248	-0.182340	-0.433720
H103	H	1.058721	-0.292454	-0.531381
H104	H	1.001012	-0.288259	-0.465815
H105	H	0.269226	-0.376183	-0.376531
O106	O	0.830321	-0.382471	-0.538705
C107	C	0.750386	-0.462322	-0.545578
C108	C	0.794699	-0.417985	-0.581742
H109	H	0.721565	-0.491038	-0.580358
H110	H	0.779240	-0.495284	-0.514841
H111	H	0.717516	-0.433431	-0.514756
H112	H	0.827578	-0.446826	-0.612598
H113	H	0.765806	-0.385021	-0.612440
H114	H	0.149962	-0.376152	-0.376580
O115	O	0.988996	-0.537533	-0.224190
C116	C	1.019579	-0.517416	-0.117147
C117	C	0.975282	-0.553570	-0.161413
H118	H	1.008498	-0.530358	-0.066381
H119	H	1.070345	-0.530293	-0.128217
H120	H	1.012657	-0.464789	-0.124075
H121	H	0.982148	-0.606205	-0.154509
H122	H	0.924532	-0.540640	-0.150331
H123	H	0.836602	-0.661996	-0.376516
O124	O	0.989235	-0.938396	-0.224327
C125	C	1.069109	-0.945285	-0.144537
C126	C	1.024792	-0.981440	-0.188781
H127	H	1.097859	-0.980070	-0.115777
H128	H	1.102040	-0.914465	-0.173440
H129	H	1.040199	-0.914545	-0.111607
H130	H	1.053651	-1.012214	-0.221720
H131	H	0.991859	-1.012220	-0.159839
H132	H	0.550800	-0.376236	-0.376431
O133	O	0.144683	-0.223597	-0.224460
C134	C	0.043402	-0.187847	-0.188869
C135	C	0.079598	-0.232155	-0.233088
H136	H	-0.009226	-0.194742	-0.195839
H137	H	0.056224	-0.198851	-0.138079
H138	H	0.056418	-0.137106	-0.199984
H139	H	0.066601	-0.282911	-0.222030
H140	H	0.066772	-0.221097	-0.283865
H141	H	0.836683	-0.375948	-0.944623
O142	O	0.989151	-0.667003	-0.224329
C143	C	1.096241	-0.687071	-0.193912
C144	C	1.051909	-0.650950	-0.238140
H145	H	1.146990	-0.674115	-0.205070
H146	H	1.085250	-0.674176	-0.143128
H147	H	1.089297	-0.739702	-0.200824
H148	H	1.058828	-0.598310	-0.231284
H149	H	1.062911	-0.663898	-0.288907
H150	H	0.982902	-1.062737	-0.230695
H151	H	0.982857	-0.229842	-0.944736
H152	H	0.836752	-1.062833	-0.376591
O153	O	0.989242	-0.223450	-1.069077
C154	C	1.069134	-0.143557	-1.062200
C155	C	1.024790	-0.187864	-1.026038
H156	H	1.097876	-0.114764	-1.027419
H157	H	1.102071	-0.172412	-1.092986
H158	H	1.040246	-0.110660	-1.092974
H159	H	1.053627	-0.220769	-0.995231
H160	H	0.991851	-0.158969	-0.995292
H161	H	0.836704	-0.943564	-0.376567
H162	H	0.982846	-0.229937	-0.663162
O163	O	0.830419	-0.382217	-1.069144
C164	C	0.794698	-0.417859	-1.170394
C165	C	0.838979	-0.373567	-1.134237
H166	H	0.801594	-0.410871	-1.223028
H167	H	0.805729	-0.468631	-1.157517
H168	H	0.743950	-0.406833	-1.157396
H169	H	0.889742	-0.384536	-1.147215
H170	H	0.827894	-0.322807	-1.147116
H171	H	0.550779	-0.229940	-0.230630
