data_functionalizedCrystal
_audit_creation_method	'MofGen! by Chris Wilmer'
_symmetry_space_group_name_H-M	'P1'
_symmetry_Int_Tables_number	1
_symmetry_cell_setting	triclinic
loop_
_symmetry_equiv_pos_as_xyz
  x,y,z
_cell_length_a	16.994730
_cell_length_b	19.077269
_cell_length_c	19.076919
_cell_angle_alpha	85.330942
_cell_angle_beta	92.355184
_cell_angle_gamma	92.347403
loop_
_atom_site_label
_atom_site_type_symbol
_atom_site_fract_x
_atom_site_fract_y
_atom_site_fract_z
Zn1	Zn	0.377865	1.062059	0.355730
Zn2	Zn	0.504688	1.066850	0.238003
Zn3	Zn	0.367700	0.948905	0.242585
Zn4	Zn	0.504649	0.944280	0.360586
O5	O	0.438725	1.005524	0.299226
O6	O	0.398959	1.161346	0.336163
O7	O	0.482279	1.055144	0.139958
O8	O	0.258658	0.963846	0.257479
O9	O	0.492136	1.164865	0.249670
O10	O	0.266127	1.046980	0.340606
O11	O	0.381634	0.968491	0.143325
O12	O	0.381595	0.849641	0.262188
O13	O	0.492068	0.955964	0.458595
O14	O	0.482211	0.846243	0.348883
O15	O	0.398921	1.042495	0.455027
O16	O	0.615073	1.050660	0.254379
O17	O	0.615044	0.960609	0.344440
C18	C	0.430797	0.822363	0.306560
C19	C	0.427424	0.744005	0.309714
C20	C	0.474267	0.709025	0.266097
C21	C	0.471099	0.635399	0.269070
C22	C	0.421084	0.596756	0.315657
C23	C	0.374239	0.631741	0.359280
C24	C	0.377412	0.705365	0.356310
C25	C	0.406406	0.376366	0.329379
C26	C	0.403235	0.302737	0.332344
C27	C	0.500097	0.306400	0.242135
C28	C	0.503261	0.380026	0.239166
C29	C	0.456420	0.415005	0.282791
N30	N	0.417843	0.521498	0.318696
N31	N	0.459666	0.490261	0.279756
C32	C	0.732989	1.005535	0.299304
C33	C	0.643674	1.005601	0.299387
C34	C	0.232969	1.005390	0.299010
C35	C	0.143640	1.005334	0.298917
Zn36	Zn	0.998505	0.948755	0.242480
Zn37	Zn	1.009187	1.062004	0.355529
Zn38	Zn	0.872034	0.944214	0.360489
Zn39	Zn	0.871927	1.066695	0.237818
O40	O	0.937913	1.005417	0.299079
O41	O	1.110295	0.963715	0.257352
O42	O	0.995509	1.042516	0.454837
O43	O	0.884385	0.846163	0.348861
O44	O	1.118143	1.046919	0.340409
O45	O	0.977303	0.849499	0.262161
O46	O	0.894743	0.955976	0.458481
O47	O	0.761647	0.960524	0.344340
O48	O	0.884203	1.054914	0.139787
O49	O	0.761569	1.050510	0.254215
O50	O	0.977199	0.968263	0.143212
O51	O	0.995405	1.161280	0.335888
O52	O	0.894561	1.164727	0.249406
C53	C	0.446624	0.998179	0.483106
C54	C	0.449990	0.995049	0.561464
C55	C	0.446686	1.189400	0.291864
C56	C	0.450078	1.267756	0.288727
C57	C	0.430802	1.012880	0.116060
C58	C	0.427220	1.016146	0.037697
C59	C	0.403076	1.038629	0.596421
C60	C	0.406236	1.035680	0.670047
C61	C	0.456313	0.989154	0.708716
C62	C	0.503228	0.945569	0.673754
C63	C	0.500064	0.948516	0.600129
C64	C	0.470972	0.975508	0.929110
C65	C	0.474134	0.972567	1.002740
C66	C	0.377140	1.062676	0.999028
C67	C	0.373984	1.065621	0.925402
C68	C	0.420896	1.022034	0.890447
N69	N	0.459545	0.986140	0.783974
N70	N	0.417659	1.025046	0.815190
C71	C	0.946133	1.188583	0.291605
C72	C	0.949673	1.266942	0.288428
C73	C	0.929498	1.012618	0.115205
C74	C	0.925911	1.015687	0.036849
C75	C	0.929664	0.821536	0.306584
C76	C	0.926149	0.743176	0.309783
C77	C	0.946339	0.998194	0.482239
C78	C	0.950067	0.994928	0.560603
C79	C	1.003885	1.301926	0.331927
C80	C	1.007227	1.375552	0.328942
C81	C	0.956353	1.414193	0.282461
C82	C	0.902139	1.379203	0.238957
C83	C	0.898801	1.305579	0.241939
C84	C	0.972645	0.972009	0.001832
C85	C	0.969275	0.974878	-0.071791
C86	C	0.919175	1.021430	-0.110396
C87	C	0.872436	1.065110	-0.075374
C88	C	0.875802	1.062236	-0.001752
C89	C	0.876114	0.704637	0.356425
C90	C	0.872795	0.631010	0.359431
C91	C	0.919516	0.595924	0.315797
C92	C	0.969553	0.634468	0.269149
C93	C	0.972867	0.708094	0.266140
C94	C	0.899002	0.948662	0.599257
C95	C	0.902504	0.945580	0.672888
C96	C	0.957067	0.988768	0.707864
C97	C	1.008138	1.035036	0.669205
C98	C	1.004639	1.038114	0.595575
H99	H	0.543988	0.411485	0.201229
H100	H	1.007590	0.605889	0.233623
F101	F	1.066205	1.080996	0.706439
H102	H	0.854566	0.913494	0.570790
H103	H	0.860912	0.907905	0.704355
H104	H	0.368265	0.404837	0.364903
H105	H	0.339267	0.733845	0.391827
F106	F	1.026123	0.749103	0.216494
H107	H	0.832050	0.599637	0.397419
F108	F	0.960782	0.985485	0.786229
F109	F	0.356332	1.082088	0.707246
H110	H	0.837747	1.097808	0.026753
H111	H	0.538258	0.913021	0.571669
H112	H	1.046221	1.075793	0.564108
H113	H	0.514992	0.740484	0.228157
H114	H	1.045313	1.270475	0.369780
F115	F	1.064928	1.412777	0.375249
F116	F	1.019026	0.928387	-0.109050
F117	F	0.520942	0.598174	0.222633
H118	H	0.538234	0.277912	0.206619
F119	F	0.841094	1.268353	0.195642
F120	F	0.349996	0.261611	0.381928
H121	H	0.338946	1.098161	1.027496
F122	F	0.321014	0.590611	0.408867
H123	H	1.013445	0.934100	0.033255
F124	F	0.349781	1.088152	0.555273
H125	H	0.333208	1.103510	0.893922
F126	F	0.527432	0.923042	1.043893
F127	F	0.819104	1.114639	-0.116470
F128	F	0.520900	0.929118	0.891918
H129	H	0.959078	1.474142	0.280040
F130	F	0.556521	0.896050	0.714910
F131	F	0.847997	1.420337	0.189494
F132	F	0.915600	1.024480	-0.188752
F133	F	0.826382	0.741965	0.402871
H134	H	0.916807	0.535973	0.318250
