data_functionalizedCrystal
_audit_creation_method	'MofGen! by Chris Wilmer'
_symmetry_space_group_name_H-M	'P1'
_symmetry_Int_Tables_number	1
_symmetry_cell_setting	triclinic
loop_
_symmetry_equiv_pos_as_xyz
  x,y,z
_cell_length_a	15.995292
_cell_length_b	15.995292
_cell_length_c	10.268362
_cell_angle_alpha	89.994242
_cell_angle_beta	90.008286
_cell_angle_gamma	96.531384
loop_
_atom_site_label
_atom_site_type_symbol
_atom_site_fract_x
_atom_site_fract_y
_atom_site_fract_z
O1	O	-0.107698	1.110993	-0.108344
O2	O	-0.121077	0.867209	-0.108340
O3	O	0.007505	0.995790	-0.108324
O4	O	-0.236280	0.982412	-0.108361
O5	O	0.007510	0.995779	0.108277
O6	O	-0.121072	0.867198	0.108260
O7	O	-0.107693	1.110982	0.108256
Cu8	Cu	-0.114382	0.989089	0.128036
Cu9	Cu	-0.114388	0.989102	-0.128120
O10	O	-0.236275	0.982401	0.108240
C11	C	-0.120530	0.836008	-0.000039
C12	C	-0.118898	0.743055	-0.000037
C13	C	-0.112896	0.405318	-0.000051
C14	C	-0.205703	0.428611	-0.000548
C15	C	-0.207467	0.525286	-0.000055
C16	C	-0.115874	0.572873	-0.000045
C17	C	-0.069472	0.543775	0.123648
C18	C	-0.068355	0.446984	0.123746
C19	C	-0.066466	0.447142	-0.122569
C20	C	-0.069905	0.543634	-0.124199
C21	C	-0.117552	0.667569	-0.000037
C22	C	-0.111215	0.310622	-0.000050
C23	C	-0.267473	0.982951	-0.000065
C24	C	-0.360426	0.984583	-0.000080
C25	C	-0.698163	0.990584	-0.000038
C26	C	-0.674870	0.897778	0.000444
C27	C	-0.578195	0.896014	-0.000058
C28	C	-0.530607	0.987607	-0.000058
C29	C	-0.559713	1.034012	-0.123740
C30	C	-0.656504	1.035129	-0.123831
C31	C	-0.656331	1.037011	0.122485
C32	C	-0.559839	1.033572	0.124106
C33	C	-0.435912	0.985928	-0.000073
C34	C	-0.792858	0.992265	-0.000031
C35	C	0.038703	0.995240	-0.000022
C36	C	0.131655	0.993608	-0.000016
C37	C	-0.108240	1.142183	-0.000048
C38	C	-0.109873	1.235136	-0.000058
N39	N	-0.114377	0.989086	0.308202
N40	N	-0.114386	0.989112	-0.308285
C41	C	-0.114387	0.989098	0.573872
C42	C	-0.114384	0.989088	0.426034
H43	H	-0.559168	0.859663	0.088594
H44	H	-0.003052	0.576618	-0.131662
C45	C	-0.675198	1.129301	0.123581
C46	C	-0.602368	1.201044	0.119713
C47	C	-0.621233	1.293332	0.120774
C48	C	-0.712927	1.313878	0.125703
C49	C	-0.785763	1.242133	0.129571
C50	C	-0.766899	1.149845	0.128510
H51	H	-0.534485	1.185836	0.116065
H52	H	-0.567314	1.346442	0.117911
H53	H	-0.726892	1.382195	0.126488
H54	H	-0.853646	1.257341	0.133219
H55	H	-0.820817	1.096736	0.131373
C56	C	-0.253759	0.389402	0.118606
C57	C	-0.333224	0.326672	0.099335
C58	C	-0.381275	0.287463	0.218492
C59	C	-0.349861	0.310984	0.356920
C60	C	-0.270391	0.373717	0.376197
C61	C	-0.222340	0.412926	0.257040
H62	H	-0.356483	0.309258	-0.003143
H63	H	-0.440104	0.241024	0.204221
H64	H	-0.385431	0.281959	0.445128
H65	H	-0.247133	0.391131	0.478675
H66	H	-0.163511	0.459366	0.271311
C67	C	-0.553344	0.846660	-0.120064
C68	C	-0.460328	0.835238	-0.144405
C69	C	-0.435477	0.785891	-0.264425
C70	C	-0.503642	0.747965	-0.360105
C71	C	-0.596664	0.759386	-0.335768
C72	C	-0.621515	0.808734	-0.215747
H73	H	-0.409863	0.863313	-0.073574
H74	H	-0.366616	0.777436	-0.282441
H75	H	-0.485246	0.711436	-0.448952
H76	H	-0.647129	0.731311	-0.406598
H77	H	-0.690376	0.817188	-0.197731
C78	C	-0.115543	0.568713	-0.247826
C79	C	-0.194180	0.615521	-0.236156
C80	C	-0.239821	0.640604	-0.359780
C81	C	-0.206824	0.618878	-0.495074
C82	C	-0.128182	0.572067	-0.506750
C83	C	-0.082541	0.546984	-0.383126
H84	H	-0.218611	0.631606	-0.135998
H85	H	-0.298037	0.675257	-0.351136
H86	H	-0.240610	0.637446	-0.586588
H87	H	-0.103752	0.555982	-0.606908
H88	H	-0.024325	0.512332	-0.391770
C89	C	0.025820	0.428262	-0.123700
C90	C	0.084544	0.457425	-0.009655
C91	C	0.176826	0.438540	-0.010774
C92	C	0.210383	0.390493	-0.125938
C93	C	0.151658	0.361327	-0.239992
C94	C	0.059376	0.380211	-0.238873
H95	H	0.059704	0.492995	0.075605
H96	H	0.220298	0.460131	0.073657
H97	H	0.278696	0.376513	-0.126766
H98	H	0.176498	0.325757	-0.325251
H99	H	0.015904	0.358621	-0.323304
C100	C	0.021581	0.586846	0.129888
C101	C	0.054939	0.649089	0.022481
C102	C	0.145991	0.692161	0.028719
C103	C	0.203685	0.672990	0.142363
C104	C	0.170328	0.610744	0.249778
C105	C	0.079275	0.567672	0.243540
H106	H	0.012230	0.663283	-0.061652
H107	H	0.170685	0.738240	-0.050797
H108	H	0.271088	0.704875	0.146981
H109	H	0.213037	0.596550	0.333912
H110	H	0.054582	0.521593	0.323057
C111	C	-0.692763	0.991718	-0.248724
C112	C	-0.633616	0.956278	-0.347685
C113	C	-0.669870	0.912862	-0.472580
C114	C	-0.765272	0.904886	-0.498513
C115	C	-0.824425	0.940327	-0.399549
C116	C	-0.788170	0.983743	-0.274655
H117	H	-0.562989	0.962181	-0.328491
H118	H	-0.626081	0.886626	-0.545839
H119	H	-0.792110	0.872747	-0.590967
H120	H	-0.895052	0.934423	-0.418744
H121	H	-0.831959	1.009978	-0.201396
C122	C	-0.256550	0.551002	-0.119837
C123	C	-0.336021	0.595793	-0.101623
C124	C	-0.385104	0.621509	-0.221410
C125	C	-0.354717	0.602434	-0.359411
C126	C	-0.275243	0.557640	-0.377631
C127	C	-0.226159	0.531925	-0.257844
H128	H	-0.358519	0.609916	0.000539
H129	H	-0.443937	0.654668	-0.207921
H130	H	-0.391052	0.621470	-0.448084
H131	H	-0.252744	0.543518	-0.479793
H132	H	-0.167327	0.498765	-0.271333
H133	H	-0.526852	1.100424	0.131580
C134	C	-0.256845	0.550141	0.119922
C135	C	-0.294788	0.481980	0.215587
C136	C	-0.344169	0.506834	0.335568
C137	C	-0.355606	0.599849	0.359885
C138	C	-0.317662	0.668016	0.264217
C139	C	-0.268281	0.643162	0.144236
H140	H	-0.286322	0.413119	0.197589
H141	H	-0.372257	0.456371	0.406388
H142	H	-0.392161	0.618247	0.448702
H143	H	-0.326128	0.736877	0.282215
H144	H	-0.240193	0.693625	0.073416
C145	C	-0.712689	0.849442	0.120274
C146	C	-0.808653	0.837975	0.141062
C147	C	-0.846479	0.789641	0.260900
C148	C	-0.788340	0.752774	0.359950
C149	C	-0.692370	0.764239	0.339165
C150	C	-0.654545	0.812573	0.219327
H151	H	-0.851697	0.865268	0.067736
H152	H	-0.917522	0.781154	0.276285
H153	H	-0.816340	0.716994	0.448661
H154	H	-0.649327	0.736947	0.412491
H155	H	-0.583501	0.821060	0.203942
C156	C	-0.254044	0.390775	-0.120369
C157	C	-0.209845	0.338262	-0.219232
C158	C	-0.258188	0.300416	-0.339054
C159	C	-0.350731	0.315082	-0.360012
C160	C	-0.394936	0.367597	-0.261146
C161	C	-0.346592	0.405443	-0.141324
H162	H	-0.141334	0.327403	-0.203721
H163	H	-0.225464	0.261541	-0.412241
H164	H	-0.386517	0.287066	-0.448711
H165	H	-0.463446	0.378456	-0.276657
H166	H	-0.379316	0.444318	-0.068137
H167	H	-0.100487	0.420156	0.216201
H168	H	-0.095476	0.418814	-0.216320
H169	H	-0.101691	0.563822	0.215692
H170	H	-0.000308	0.432448	0.129372
H171	H	-0.703903	0.862210	-0.087759
H172	H	-0.671040	1.103176	-0.129447
H173	H	-0.527831	1.101412	-0.128339
H174	H	-0.539672	1.001795	-0.215791
H175	H	-0.684586	1.007936	0.216236
H176	H	-0.541269	0.999783	0.215606
