data_functionalizedCrystal
_audit_creation_method	'MofGen! by Chris Wilmer'
_symmetry_space_group_name_H-M	'P1'
_symmetry_Int_Tables_number	1
_symmetry_cell_setting	triclinic
loop_
_symmetry_equiv_pos_as_xyz
  x,y,z
_cell_length_a	21.395362
_cell_length_b	12.759400
_cell_length_c	21.395355
_cell_angle_alpha	90.012729
_cell_angle_beta	90.043940
_cell_angle_gamma	90.029045
loop_
_atom_site_label
_atom_site_type_symbol
_atom_site_fract_x
_atom_site_fract_y
_atom_site_fract_z
Zn1	Zn	0.957936	-0.417943	0.354611
Zn2	Zn	1.457936	0.082057	0.854611
Zn3	Zn	0.957870	-0.593607	0.249844
Zn4	Zn	1.457870	-0.093607	0.749844
Zn5	Zn	0.853151	-0.417992	0.249812
Zn6	Zn	1.353151	0.082008	0.749812
Zn7	Zn	0.853152	-0.593629	0.354549
Zn8	Zn	1.353152	-0.093629	0.854549
O9	O	0.905527	-0.505793	0.302204
O10	O	1.405527	-0.005793	0.802204
O11	O	1.045605	-0.441215	0.340753
O12	O	1.545605	0.058785	0.840753
O13	O	0.943951	-0.570323	0.162162
O14	O	1.443951	-0.070323	0.662162
O15	O	0.867078	-0.270964	0.263727
O16	O	1.367078	0.229036	0.763727
O17	O	1.045557	-0.570275	0.263781
O18	O	1.545557	-0.070275	0.763781
O19	O	0.944063	-0.270928	0.340722
O20	O	1.444063	0.229072	0.840722
O21	O	0.867014	-0.441299	0.162138
O22	O	1.367014	0.058701	0.662138
O23	O	0.765473	-0.441320	0.263666
O24	O	1.265473	0.058680	0.763666
O25	O	0.867080	-0.570312	0.442235
O26	O	1.367080	-0.070312	0.942235
O27	O	0.765474	-0.570360	0.340616
O28	O	1.265474	-0.070360	0.840616
O29	O	0.944064	-0.441236	0.442281
O30	O	1.444064	0.058764	0.942281
O31	O	0.943952	-0.740631	0.263721
O32	O	1.443952	-0.240631	0.763721
O33	O	0.867016	-0.740647	0.340647
O34	O	1.367016	-0.240647	0.840647
C35	C	0.742740	-0.505848	0.302131
C36	C	1.242740	-0.005848	0.802131
C37	C	0.673098	-0.505897	0.302115
C38	C	1.173098	-0.005897	0.802115
C39	C	0.905494	-0.778760	0.302194
C40	C	1.405494	-0.278760	0.802194
C41	C	0.905538	-0.895537	0.302211
C42	C	1.405538	-0.395537	0.802211
C43	C	0.640402	-0.573177	0.342123
C44	C	1.140402	-0.073177	0.842123
C45	C	0.574967	-0.573152	0.342150
C46	C	1.074967	-0.073152	0.842150
C47	C	0.542230	-0.505857	0.302160
C48	C	1.042230	-0.005857	0.802160
C49	C	0.574934	-0.438564	0.262149
C50	C	1.074934	0.061436	0.762149
C51	C	0.640368	-0.438584	0.262127
C52	C	1.140368	0.061416	0.762127
C53	C	0.438504	-0.497393	0.245754
C54	C	0.938504	0.002607	0.745754
C55	C	0.373071	-0.497380	0.245775
C56	C	0.873071	0.002620	0.745775
C57	C	0.340409	-0.505788	0.302229
C58	C	0.840409	-0.005788	0.802229
C59	C	0.373189	-0.514231	0.358663
C60	C	0.873189	-0.014231	0.858663
C61	C	0.438623	-0.514251	0.358641
C62	C	0.938623	-0.014251	0.858641
C63	C	0.471278	-0.505827	0.302180
C64	C	0.971278	-0.005827	0.802180
C65	C	0.236761	-0.573044	0.342270
C66	C	0.736761	-0.073044	0.842270
C67	C	0.171324	-0.573011	0.342299
C68	C	0.671324	-0.073011	0.842299
C69	C	0.171293	-0.438428	0.262292
C70	C	0.671293	0.061572	0.762292
C71	C	0.236728	-0.438456	0.262269
C72	C	0.736728	0.061544	0.762269
C73	C	0.269458	-0.505769	0.302257
C74	C	0.769458	-0.005769	0.802257
C75	C	0.945604	-0.950300	0.342335
C76	C	1.445604	-0.450300	0.842335
C77	C	0.945633	-1.060024	0.342350
C78	C	1.445633	-0.560024	0.842350
C79	C	0.865528	-1.060211	0.262112
C80	C	1.365528	-0.560211	0.762112
C81	C	0.865496	-0.950489	0.262100
C82	C	1.365496	-0.450489	0.762100
C83	C	0.991854	-0.950193	0.388658
C84	C	1.491854	-0.450193	0.888658
C85	C	0.991883	-1.059917	0.388673
C86	C	1.491883	-0.559917	0.888673
C87	C	1.068951	-0.505738	0.302277
C88	C	1.568951	-0.005738	0.802277
C89	C	1.138592	-0.505714	0.302308
C90	C	1.638592	-0.005714	0.802308
C91	C	0.905579	-0.505771	0.465627
C92	C	1.405579	-0.005771	0.965627
C93	C	0.905601	-0.505762	0.535269
C94	C	1.405601	-0.005762	1.035269
C95	C	0.905577	-0.231759	0.302228
C96	C	1.405577	0.268241	0.802228
C97	C	0.905599	-0.114983	0.302238
C98	C	1.405599	0.385017	0.802238
C99	C	0.905511	-0.505738	0.139416
C100	C	1.405511	-0.005738	0.639416
C101	C	0.905611	-0.505451	0.069775
C102	C	1.405611	-0.005451	0.569775
C103	C	0.945685	-0.438550	0.568006
C104	C	1.445685	0.061450	1.068006
C105	C	0.945685	-0.438504	0.633442
C106	C	1.445685	0.061496	1.133442
C107	C	0.905606	-0.505691	0.666137
C108	C	1.405606	-0.005691	1.166137
C109	C	0.865515	-0.572908	0.633391
C110	C	1.365515	-0.072908	1.133391
C111	C	0.865512	-0.572944	0.567957
C112	C	1.365512	-0.072944	1.067957
C113	C	0.900648	-0.600292	0.769806
C114	C	1.400648	-0.100292	1.269806
C115	C	0.900654	-0.600258	0.835239
C116	C	1.400654	-0.100258	1.335239
C117	C	0.905610	-0.505580	0.867958
C118	C	1.405610	-0.005580	1.367958
C119	C	0.910572	-0.410932	0.835235
C120	C	1.410572	0.089068	1.335235
C121	C	0.910570	-0.410968	0.769801
C122	C	1.410570	0.089032	1.269801
C123	C	0.905604	-0.505659	0.737089
C124	C	1.405604	-0.005659	1.237089
C125	C	0.945695	-0.438312	0.971648
C126	C	1.445695	0.061688	1.471648
C127	C	0.945690	-0.438265	1.037085
C128	C	1.445690	0.061735	1.537085
C129	C	0.865523	-0.572678	1.037033
C130	C	1.365523	-0.072678	1.537033
C131	C	0.865525	-0.572716	0.971597
C132	C	1.365525	-0.072716	1.471597
C133	C	0.905615	-0.505534	0.938909
C134	C	1.405615	-0.005534	1.438909
H135	H	0.667047	-0.627988	0.374685
H136	H	1.167047	-0.127988	0.874685
Br137	Br	0.811102	-0.876169	0.207660
Br138	Br	1.311102	-0.376169	0.707660
Br139	Br	0.962914	-1.116643	0.465480
Br140	Br	1.462914	-0.616643	0.965480
Br141	Br	0.281184	-0.664391	0.396541
Br142	Br	0.781184	-0.164391	0.896541
H143	H	1.040425	-1.089624	0.375743
H144	H	1.540425	-0.589624	0.875743
Br145	Br	0.917303	-0.282431	0.879630
Br146	Br	1.417303	0.217569	1.379630
Br147	Br	0.281105	-0.347142	0.207969
Br148	Br	0.781105	0.152858	0.707969
Br149	Br	0.328871	-0.525640	0.435285
Br150	Br	0.828871	-0.025640	0.935285
Br151	Br	1.000089	-0.347371	0.523646
Br152	Br	1.500089	0.152629	1.023646
H153	H	0.832888	-0.627454	0.944942
H154	H	1.332888	-0.127454	1.444942
Br155	Br	1.000072	-0.347255	0.677882
Br156	Br	1.500072	0.152745	1.177882
Br157	Br	0.893929	-0.728706	0.879642
Br158	Br	1.393929	-0.228706	1.379642
H159	H	0.346387	-0.490512	0.199823
H160	H	0.846387	0.009488	0.699823
Br161	Br	1.000099	-0.347137	0.927282
Br162	Br	1.500099	0.152863	1.427282
H163	H	0.978827	-0.920406	0.437165
H164	H	1.478827	-0.420406	0.937165
Br165	Br	0.482823	-0.485982	0.169131
Br166	Br	0.982823	0.014018	0.669131
Br167	Br	0.811122	-0.663848	1.081398
Br168	Br	1.311122	-0.163848	1.581398
Br169	Br	0.530508	-0.347225	0.207880
Br170	Br	1.030508	0.152775	0.707880
Br171	Br	0.811107	-0.664167	0.523524
Br172	Br	1.311107	-0.164167	1.023524
H173	H	0.978330	-0.383527	1.063739
H174	H	1.478330	0.116473	1.563739
Br175	Br	0.811186	-1.134796	0.207681
Br176	Br	1.311186	-0.634796	0.707681
Br177	Br	0.917300	-0.282526	0.725393
Br178	Br	1.417300	0.217474	1.225393
Br179	Br	1.068676	-0.893350	0.359777
Br180	Br	1.568676	-0.393350	0.859777
Br181	Br	0.893940	-0.728798	0.725410
Br182	Br	1.393940	-0.228798	1.225410
H183	H	0.832881	-0.627608	0.660016
H184	H	1.332881	-0.127608	1.160016
H185	H	0.548340	-0.627939	0.374732
H186	H	1.048340	-0.127939	0.874732
H187	H	0.465309	-0.521123	0.404591
H188	H	0.965309	-0.021123	0.904591
H189	H	0.144704	-0.627796	0.374882
H190	H	0.644704	-0.127796	0.874882
Br191	Br	0.126872	-0.347088	0.208023
Br192	Br	0.626872	0.152912	0.708023
H193	H	0.666989	-0.383793	0.229548
H194	H	1.166989	0.116207	0.729548
