data_functionalizedCrystal
_audit_creation_method	'MofGen! by Chris Wilmer'
_symmetry_space_group_name_H-M	'P1'
_symmetry_Int_Tables_number	1
_symmetry_cell_setting	triclinic
loop_
_symmetry_equiv_pos_as_xyz
  x,y,z
_cell_length_a	10.654562
_cell_length_b	14.519709
_cell_length_c	9.130313
_cell_angle_alpha	89.997798
_cell_angle_beta	89.996930
_cell_angle_gamma	84.085124
loop_
_atom_site_label
_atom_site_type_symbol
_atom_site_fract_x
_atom_site_fract_y
_atom_site_fract_z
O1	O	1.666579	0.129584	-0.121899
O2	O	1.300984	0.141913	-0.121881
O3	O	1.493475	0.001560	-0.121878
O4	O	1.474088	0.269936	-0.121903
O5	O	1.493472	0.001564	0.121721
O6	O	1.300981	0.141916	0.121718
O7	O	1.666576	0.129588	0.121700
Cu8	Cu	1.483779	0.135752	0.143951
Cu9	Cu	1.483782	0.135748	-0.144133
O10	O	1.474086	0.269940	0.121696
C11	C	1.254194	0.141007	-0.000079
C12	C	1.114777	0.138291	-0.000072
C13	C	1.049257	0.137027	0.132702
C14	C	0.918260	0.134482	0.132678
C15	C	0.918312	0.134471	-0.132907
C16	C	1.049309	0.137009	-0.132881
C17	C	1.049225	0.137037	0.286036
C18	C	0.918227	0.134493	0.286011
C19	C	1.492570	-0.032802	-0.000078
C20	C	1.489862	-0.135198	-0.000077
C21	C	1.479895	-0.510145	-0.000114
C22	C	1.482663	-0.405823	-0.000103
C23	C	1.484879	-0.322675	-0.000094
C24	C	1.487647	-0.218346	-0.000086
C25	C	1.713367	0.130493	-0.000105
C26	C	1.852783	0.133209	-0.000122
C27	C	1.474990	0.304302	-0.000107
C28	C	1.477698	0.406698	-0.000118
N29	N	1.483786	0.135755	0.346574
N30	N	1.483784	0.135738	-0.346755
C31	C	1.569042	0.073628	0.423227
C32	C	1.569039	0.073617	0.576564
C33	C	1.398519	0.197868	0.576580
C34	C	1.398517	0.197874	0.423246
C35	C	1.667495	0.001896	0.423219
C36	C	1.667492	0.001885	0.576556
H37	H	0.889285	0.067234	0.333597
H38	H	1.637623	-0.065102	0.624111
H39	H	1.096097	0.073304	0.344925
N40	N	0.856097	0.218918	0.363966
H41	H	0.877525	0.276633	0.311859
H42	H	0.761605	0.217030	0.363972
N43	N	1.795124	0.022819	0.631683
H44	H	1.813575	0.085619	0.594853
H45	H	1.795087	0.022766	0.742299
N46	N	1.119984	0.138348	-0.276086
H47	H	1.058630	0.137150	-0.360219
H48	H	1.164303	0.196467	-0.281889
H49	H	1.078153	0.204298	0.333606
H50	H	1.646734	-0.068990	0.381607
N51	N	0.847701	0.133083	-0.276145
H52	H	0.754773	0.131280	-0.256017
H53	H	0.860564	0.190594	-0.334141
H54	H	1.758462	0.024360	0.375654
H55	H	1.329084	0.248454	0.360836
N56	N	1.306550	0.264862	0.659277
H57	H	1.319483	0.255430	0.768046
H58	H	1.321193	0.330390	0.632482
