data_functionalizedCrystal
_audit_creation_method	'MofGen! by Chris Wilmer'
_symmetry_space_group_name_H-M	'P1'
_symmetry_Int_Tables_number	1
_symmetry_cell_setting	triclinic
loop_
_symmetry_equiv_pos_as_xyz
  x,y,z
_cell_length_a	23.532361
_cell_length_b	9.065218
_cell_length_c	22.010155
_cell_angle_alpha	89.993828
_cell_angle_beta	89.995873
_cell_angle_gamma	96.077223
loop_
_atom_site_label
_atom_site_type_symbol
_atom_site_fract_x
_atom_site_fract_y
_atom_site_fract_z
O1	O	0.756593	-0.178726	-0.050462
O2	O	0.590917	-0.204708	-0.050476
O3	O	0.677180	0.023095	-0.050468
O4	O	0.670331	-0.406530	-0.050471
O5	O	0.677164	0.023061	0.050583
O6	O	0.590901	-0.204742	0.050574
O7	O	0.756577	-0.178760	0.050588
Cu8	Cu	0.673738	-0.191754	0.059808
Cu9	Cu	0.673756	-0.191714	-0.059696
O10	O	0.670315	-0.406564	0.050580
C11	C	0.569688	-0.204075	0.000047
C12	C	0.506455	-0.202118	0.000042
C13	C	0.233157	-0.193543	-0.055037
C14	C	0.292570	-0.195395	-0.055039
O15	O	0.323310	-0.196286	-0.101883
N16	N	0.322274	-0.196349	0.000044
C17	C	0.292562	-0.195436	0.055132
O18	O	0.323284	-0.196416	0.101984
C19	C	0.233151	-0.193574	0.055133
C20	C	0.203449	-0.192635	0.000046
C21	C	0.203455	-0.192603	-0.110119
C22	C	0.144046	-0.190754	-0.110117
C23	C	0.114338	-0.189845	-0.055034
C24	C	0.144040	-0.190786	0.000048
C25	C	0.203440	-0.192650	0.110220
C26	C	0.144025	-0.190787	0.110216
C27	C	0.114323	-0.189848	0.055130
C28	C	0.054922	-0.188029	0.055134
N29	N	0.025218	-0.187075	0.000051
C30	C	0.054926	-0.187983	-0.055033
C31	C	0.417331	-0.199345	0.055126
C32	C	0.476741	-0.201218	0.055126
C33	C	0.476745	-0.201174	-0.055045
C34	C	0.417333	-0.199311	-0.055044
C35	C	0.387627	-0.198391	0.000043
C36	C	-0.069838	-0.184101	-0.055025
C37	C	-0.129253	-0.182258	-0.055018
C38	C	-0.129251	-0.182295	0.055152
C39	C	-0.069842	-0.184145	0.055146
C40	C	-0.040136	-0.185044	0.000052
O41	O	0.024145	-0.187131	0.101954
O42	O	0.024199	-0.186983	-0.101877
C43	C	0.676513	0.078032	0.000057
C44	C	0.674545	0.241777	0.000054
C45	C	0.777807	-0.179394	0.000064
C46	C	0.841039	-0.181350	0.000065
C47	C	0.670981	-0.461501	0.000054
C48	C	0.672949	-0.625246	0.000053
N49	N	0.673729	-0.191782	0.143860
N50	N	0.673770	-0.191675	-0.143748
C51	C	0.711956	-0.090857	0.563644
C52	C	0.711958	-0.090847	0.627251
O53	O	0.744438	-0.005056	0.660146
N54	N	0.673756	-0.191683	0.659068
C55	C	0.635544	-0.292527	0.627273
O56	O	0.603050	-0.378294	0.660176
C57	C	0.635539	-0.292528	0.563667
C58	C	0.673748	-0.191695	0.531854
C59	C	0.750161	0.009969	0.531831
C60	C	0.750159	0.009957	0.468227
C61	C	0.711952	-0.090882	0.436437
C62	C	0.673746	-0.191708	0.468250
C63	C	0.597326	-0.393364	0.531873
C64	C	0.597324	-0.393356	0.468262
C65	C	0.635533	-0.292523	0.436449
C66	C	0.635537	-0.292559	0.372857
N67	N	0.673740	-0.191722	0.341041
C68	C	0.711947	-0.090883	0.372831
C69	C	0.635557	-0.292513	0.760851
C70	C	0.635564	-0.292519	0.824456
C71	C	0.711978	-0.090837	0.824430
C72	C	0.711973	-0.090839	0.760824
C73	C	0.673759	-0.191676	0.729034
C74	C	0.711940	-0.090918	0.239259
C75	C	0.711936	-0.090943	0.175651
C76	C	0.635521	-0.292620	0.175682
C77	C	0.635527	-0.292600	0.239286
C78	C	0.673738	-0.191737	0.271073
O79	O	0.603073	-0.378302	0.339922
O80	O	0.744431	-0.005117	0.339920
H81	H	0.227613	-0.193410	0.155077
H82	H	0.227637	-0.193337	-0.154977
H83	H	0.743055	-0.008784	0.265133
C84	C	0.753446	0.018709	0.141221
C85	C	0.786893	0.107047	0.182681
C86	C	0.825130	0.208085	0.150990
H87	H	0.777477	-0.033863	0.116407
H88	H	0.732659	0.079919	0.116420
H89	H	0.807678	0.045844	0.207472
H90	H	0.762878	0.159651	0.207496
H91	H	0.804344	0.269296	0.126188
H92	H	0.849157	0.155501	0.126177
H93	H	0.847826	0.268043	0.179116
H94	H	0.781274	0.092091	0.557709
H95	H	-0.045659	-0.184939	0.100002
H96	H	0.119868	-0.189982	-0.154974
H97	H	0.500918	-0.202006	0.099983
C98	C	0.594047	-0.402186	0.726449
C99	C	0.560607	-0.490510	0.767933
C100	C	0.522368	-0.591567	0.736269
H101	H	0.570011	-0.349629	0.701634
H102	H	0.614831	-0.463404	0.701651
H103	H	0.539824	-0.429300	0.792721
H104	H	0.584627	-0.543100	0.792749
H105	H	0.543152	-0.652785	0.711470
H106	H	0.498336	-0.538997	0.711455
H107	H	0.499677	-0.651516	0.764410
C108	C	0.508901	-0.202216	-0.114916
C109	C	0.470177	-0.201022	-0.163161
C110	C	0.499779	-0.202002	-0.218319
H111	H	0.535981	-0.116925	-0.117286
H112	H	0.528163	-0.289007	-0.117240
H113	H	0.450925	-0.114240	-0.160839
H114	H	0.443096	-0.286307	-0.160812
H115	H	0.519041	-0.288793	-0.220643
H116	H	0.526858	-0.116709	-0.220682
H117	H	0.473509	-0.201205	-0.251060
H118	H	0.566204	-0.475469	0.442383
C119	C	0.385179	-0.198448	0.115003
C120	C	0.423913	-0.199724	0.163237
C121	C	0.394318	-0.198917	0.218403
H122	H	0.365902	-0.111713	0.117388
H123	H	0.358111	-0.283796	0.117327
H124	H	0.450971	-0.114384	0.160914
H125	H	0.443191	-0.286452	0.160872
H126	H	0.367250	-0.284265	0.220727
H127	H	0.375042	-0.112180	0.220781
H128	H	0.420593	-0.199795	0.251136
H129	H	0.743085	-0.008731	0.734925
C130	C	-0.161437	-0.181467	-0.114875
C131	C	-0.152724	-0.308816	-0.148116
C132	C	-0.182354	-0.308126	-0.203260
H133	H	-0.201088	-0.180314	-0.107075
H134	H	-0.147786	-0.095770	-0.137539
H135	H	-0.166378	-0.394490	-0.125457
H136	H	-0.113079	-0.309996	-0.155932
H137	H	-0.168703	-0.222428	-0.225924
H138	H	-0.222004	-0.306968	-0.195454
H139	H	-0.176443	-0.394522	-0.225823
C140	C	0.555775	-0.502906	0.566292
C141	C	0.522307	-0.591170	0.524825
C142	C	0.484017	-0.692089	0.556508
H143	H	0.576503	-0.564192	0.591109
H144	H	0.531767	-0.450196	0.591090
H145	H	0.546313	-0.643877	0.500037
H146	H	0.501567	-0.529926	0.500007
H147	H	0.460008	-0.639379	0.581306
H148	H	0.504750	-0.753364	0.581324
H149	H	0.461301	-0.751979	0.528378
H150	H	0.119840	-0.190050	0.155076
C151	C	-0.161495	-0.181608	0.114974
C152	C	-0.152820	-0.309011	0.148207
C153	C	-0.182520	-0.308425	0.203315
H154	H	-0.147887	-0.095978	0.137678
H155	H	-0.201141	-0.180444	0.107108
H156	H	-0.113182	-0.310160	0.156075
H157	H	-0.166430	-0.394661	0.125522
H158	H	-0.222166	-0.307262	0.195448
H159	H	-0.168909	-0.222790	0.226013
H160	H	-0.176642	-0.394873	0.225867
C161	C	0.593979	-0.402138	0.273719
C162	C	0.560509	-0.490425	0.232261
C163	C	0.522218	-0.591321	0.263954
H164	H	0.614706	-0.463410	0.298543
H165	H	0.569971	-0.349409	0.298512
H166	H	0.584513	-0.543150	0.207480
H167	H	0.539769	-0.429194	0.207436
H168	H	0.498210	-0.538592	0.288747
H169	H	0.542950	-0.652582	0.288777
H170	H	0.499500	-0.651226	0.235830
C171	C	-0.037530	-0.185323	-0.114795
C172	C	-0.009168	-0.313300	-0.118009
C173	C	0.020606	-0.314478	-0.173056
H174	H	-0.063672	-0.184579	-0.147647
H175	H	-0.010419	-0.100056	-0.117097
H176	H	-0.036275	-0.398544	-0.115714
H177	H	0.016984	-0.314071	-0.085170
H178	H	0.047716	-0.229211	-0.175357
H179	H	-0.005540	-0.313730	-0.205903
H180	H	0.039857	-0.401301	-0.175242
H181	H	0.393154	-0.198547	-0.099901
C182	C	0.791663	0.119615	0.433803
C183	C	0.825108	0.207945	0.475268
C184	C	0.863343	0.309001	0.443583
H185	H	0.815697	0.067058	0.408986
H186	H	0.770875	0.180830	0.409005
H187	H	0.845895	0.146738	0.500056
H188	H	0.801090	0.260534	0.500086
H189	H	0.842555	0.370216	0.418785
H190	H	0.887372	0.256432	0.418767
H191	H	0.886036	0.368954	0.471712
H192	H	0.604415	-0.374726	0.149789
H193	H	0.743088	-0.008727	0.850325
H194	H	0.604457	-0.374642	0.850354
