data_functionalizedCrystal
_audit_creation_method	'MofGen! by Chris Wilmer'
_symmetry_space_group_name_H-M	'P1'
_symmetry_Int_Tables_number	1
_symmetry_cell_setting	triclinic
loop_
_symmetry_equiv_pos_as_xyz
  x,y,z
_cell_length_a	23.532407
_cell_length_b	23.532407
_cell_length_c	22.010155
_cell_angle_alpha	89.999577
_cell_angle_beta	89.996931
_cell_angle_gamma	82.848678
loop_
_atom_site_label
_atom_site_type_symbol
_atom_site_fract_x
_atom_site_fract_y
_atom_site_fract_z
O1	O	0.755264	0.069127	-0.050455
O2	O	0.589400	0.079130	-0.050474
O3	O	0.677334	-0.008803	-0.050453
O4	O	0.667330	0.157060	-0.050476
O5	O	0.677318	-0.008790	0.050597
O6	O	0.589384	0.079143	0.050576
O7	O	0.755248	0.069140	0.050595
Cu8	Cu	0.672315	0.074143	0.059812
Cu9	Cu	0.672333	0.074127	-0.059691
O10	O	0.667314	0.157073	0.050574
C11	C	0.568176	0.078882	0.000049
C12	C	0.504959	0.078116	0.000042
C13	C	0.677071	-0.030013	0.000074
C14	C	0.676305	-0.093230	0.000078
C15	C	0.105856	0.125350	0.000063
C16	C	0.046456	0.124638	0.000067
O17	O	0.009711	0.168424	0.000083
N18	N	0.023830	0.072362	0.000073
C19	C	0.060607	0.020794	0.000082
O20	O	0.035908	-0.023737	0.000088
C21	C	0.120006	0.021506	0.000082
C22	C	0.142629	0.073785	0.000070
C23	C	0.128479	0.177625	0.000051
C24	C	0.187876	0.178336	0.000046
C25	C	0.224649	0.126772	0.000053
C26	C	0.202025	0.074497	0.000065
C27	C	0.156783	-0.030062	0.000096
C28	C	0.216185	-0.029345	0.000097
C29	C	0.238808	0.022934	0.000084
C30	C	0.298194	0.023643	0.000067
N31	N	0.320820	0.075920	0.000061
C32	C	0.284048	0.127484	0.000054
C33	C	-0.064135	0.019302	0.000082
C34	C	-0.123533	0.018589	0.000077
C35	C	-0.137680	0.122434	0.000063
C36	C	-0.078281	0.123146	0.000064
C37	C	-0.041509	0.071578	0.000076
C38	C	0.408784	0.128974	0.000043
C39	C	0.468186	0.129680	0.000035
C40	C	0.482329	0.025836	0.000052
C41	C	0.422932	0.025129	0.000057
C42	C	0.386160	0.076702	0.000054
O43	O	0.334974	-0.020119	0.000054
O44	O	0.308755	0.172007	0.000055
C45	C	0.723539	-0.492333	0.000050
C46	C	0.722827	-0.551733	0.000046
O47	O	0.766613	-0.588478	0.000028
N48	N	0.670551	-0.574359	0.000040
C49	C	0.618983	-0.537582	0.000033
O50	O	0.574452	-0.562281	0.000027
C51	C	0.619695	-0.478182	0.000033
C52	C	0.671974	-0.455560	0.000045
C53	C	0.775814	-0.469710	0.000061
C54	C	0.776525	-0.410313	0.000067
C55	C	0.724961	-0.373540	0.000062
C56	C	0.672685	-0.396164	0.000051
C57	C	0.568127	-0.441406	0.000022
C58	C	0.568844	-0.382004	0.000022
C59	C	0.621123	-0.359381	0.000034
C60	C	0.621832	-0.299995	0.000052
N61	N	0.674109	-0.277368	0.000057
C62	C	0.725673	-0.314141	0.000062
C63	C	0.617491	-0.662324	0.000031
C64	C	0.616778	-0.721722	0.000035
C65	C	0.720623	-0.735869	0.000047
C66	C	0.721335	-0.676470	0.000047
C67	C	0.669767	-0.639698	0.000037
C68	C	0.727163	-0.189405	0.000075
C69	C	0.727869	-0.130003	0.000083
C70	C	0.624025	-0.115860	0.000069
C71	C	0.623318	-0.175257	0.000064
C72	C	0.674891	-0.212029	0.000065
O73	O	0.578070	-0.263215	0.000067
O74	O	0.770196	-0.289433	0.000060
C75	C	0.776472	0.069388	0.000071
C76	C	0.839689	0.070154	0.000073
C77	C	0.667577	0.178283	0.000046
C78	C	0.668343	0.241500	0.000037
N79	N	0.672305	0.074153	0.143865
N80	N	0.672347	0.074112	-0.143744
C81	C	0.711273	0.035196	0.563653
C82	C	0.711275	0.035192	0.627261
O83	O	0.744384	0.002076	0.660160
N84	N	0.672333	0.074115	0.659072
C85	C	0.633382	0.113041	0.627272
O86	O	0.600259	0.146148	0.660170
C87	C	0.633377	0.113042	0.563665
C88	C	0.672326	0.074120	0.531858
C89	C	0.750217	-0.003723	0.531846
C90	C	0.750215	-0.003719	0.468243
C91	C	0.711268	0.035205	0.436447
C92	C	0.672324	0.074125	0.468255
C93	C	0.594424	0.151965	0.531866
C94	C	0.594422	0.151962	0.468256
C95	C	0.633370	0.113040	0.436448
C96	C	0.633374	0.113054	0.372856
N97	N	0.672317	0.074130	0.341045
C98	C	0.711263	0.035206	0.372841
C99	C	0.633395	0.113036	0.760850
C100	C	0.633402	0.113039	0.824455
C101	C	0.711294	0.035188	0.824440
C102	C	0.711290	0.035189	0.760833
C103	C	0.672337	0.074113	0.729039
C104	C	0.711256	0.035220	0.239269
C105	C	0.711252	0.035229	0.175660
C106	C	0.633358	0.113077	0.175681
C107	C	0.633364	0.113070	0.239284
C108	C	0.672315	0.074136	0.271077
O109	O	0.600282	0.146151	0.339916
O110	O	0.744376	0.002100	0.339935
H111	H	0.486602	0.172255	0.000025
C112	C	0.754130	-0.007629	0.725848
C113	C	0.753545	-0.072478	0.734601
C114	C	0.796386	-0.115300	0.699620
C115	C	0.839812	-0.093272	0.655886
C116	C	0.840398	-0.028419	0.647132
C117	C	0.797557	0.014402	0.682113
H118	H	0.721397	-0.088788	0.766977
H119	H	0.795951	-0.163308	0.706101
H120	H	0.871525	-0.124970	0.629991
H121	H	0.872547	-0.012110	0.614755
H122	H	0.797992	0.062410	0.675632
H123	H	0.769159	-0.219337	0.000073
H124	H	0.512280	-0.016146	0.000056
C125	C	0.256634	-0.086073	0.000107
C126	C	0.299416	-0.099876	-0.052366
C127	C	0.339863	-0.156603	-0.052358
C128	C	0.337528	-0.199527	0.000123
C129	C	0.294744	-0.185725	0.052599
C130	C	0.254297	-0.128998	0.052591
H131	H	0.301146	-0.068100	-0.091219
H132	H	0.371534	-0.166820	-0.091204
H133	H	0.367469	-0.241519	0.000129
H134	H	0.293014	-0.217500	0.091452
H135	H	0.222626	-0.118781	0.091438
H136	H	0.742971	0.003534	0.149765
H137	H	0.762610	-0.765821	0.000048
H138	H	0.098544	0.219617	0.000048
H139	H	0.819097	-0.391900	0.000074
C140	C	0.551576	0.194776	0.566846
C141	C	0.486734	0.194138	0.558099
C142	C	0.443883	0.236950	0.593078
C143	C	0.465874	0.280401	0.636804
C144	C	0.530719	0.281041	0.645553
C145	C	0.573571	0.238229	0.610574
H146	H	0.470452	0.161972	0.525728
H147	H	0.395880	0.236476	0.586601
H148	H	0.434153	0.312093	0.662698
H149	H	0.547001	0.313207	0.677924
H150	H	0.621574	0.238703	0.617051
C151	C	0.368342	0.185704	0.000034
C152	C	0.370681	0.228623	-0.052450
C153	C	0.330238	0.285353	-0.052463
C154	C	0.287456	0.299163	0.000008
C155	C	0.285115	0.256243	0.052496
C156	C	0.325558	0.199513	0.052509
H157	H	0.402352	0.218401	-0.091296
H158	H	0.331971	0.317125	-0.091319
H159	H	0.257518	0.341158	-0.000002
H160	H	0.253444	0.266465	0.091342
H161	H	0.323825	0.167741	0.091365
C162	C	0.754134	-0.007633	0.859424
C163	C	0.754130	-0.007632	0.929388
C164	C	0.796966	-0.050450	0.964375
C165	C	0.839806	-0.093270	0.929396
C166	C	0.839812	-0.093273	0.859428
C167	C	0.796975	-0.050454	0.824442
H168	H	0.722416	0.024067	0.955285
H169	H	0.796962	-0.050448	1.016170
H170	H	0.871516	-0.124967	0.955295
H171	H	0.871526	-0.124972	0.833531
H172	H	0.796980	-0.050457	0.772646
C173	C	0.832541	-0.510153	0.000070
C174	C	0.875458	-0.507810	0.052553
C175	C	0.932190	-0.548249	0.052567
C176	C	0.946005	-0.591031	0.000099
C177	C	0.903087	-0.593376	-0.052387
C178	C	0.846355	-0.552937	-0.052402
H179	H	0.865233	-0.476139	0.091396
H180	H	0.963961	-0.546513	0.091422
H181	H	0.988001	-0.620967	0.000110
H182	H	0.913313	-0.625048	-0.091231
H183	H	0.814584	-0.554673	-0.091256
H184	H	0.742973	0.003516	0.265148
H185	H	0.404512	-0.017441	0.000058
C186	C	-0.053399	0.180654	0.000055
C187	C	-0.067413	0.223396	0.052522
C188	C	-0.042534	0.280907	0.052515
C189	C	-0.003642	0.295675	0.000042
C190	C	0.010374	0.252931	-0.052429
C191	C	-0.014505	0.195421	-0.052422
H192	H	-0.096205	0.212465	0.091369
H193	H	-0.052910	0.312548	0.091357
H194	H	0.014775	0.338247	0.000037
H195	H	0.039166	0.263862	-0.091276
H196	H	-0.004129	0.163780	-0.091264
C197	C	0.590516	0.155891	0.140700
C198	C	0.547672	0.198704	0.175682
C199	C	0.504826	0.241515	0.140699
C200	C	0.504822	0.241513	0.070735
C201	C	0.547667	0.198699	0.035749
C202	C	0.590514	0.155888	0.070731
H203	H	0.547673	0.198707	0.227477
H204	H	0.473109	0.273210	0.166599
H205	H	0.473105	0.273205	0.044839
H206	H	0.547666	0.198696	-0.016047
H207	H	0.622230	0.124193	0.044832
C208	C	0.565813	-0.200150	0.000048
C209	C	0.551030	-0.239051	0.052506
C210	C	0.493525	-0.263941	0.052481
C211	C	0.450805	-0.249930	-0.000003
C212	C	0.465587	-0.211027	-0.052465
C213	C	0.523091	-0.186137	-0.052439
H214	H	0.582655	-0.249424	0.091361
H215	H	0.482583	-0.292739	0.091317
H216	H	0.408236	-0.268355	-0.000022
H217	H	0.433962	-0.200653	-0.091320
H218	H	0.534034	-0.157339	-0.091275
H219	H	-0.167632	0.164421	0.000060
C220	C	0.793053	-0.046539	0.433258
C221	C	0.792462	-0.111387	0.442009
C222	C	0.835300	-0.154212	0.407028
C223	C	0.878729	-0.132187	0.363295
C224	C	0.879322	-0.067336	0.354542
C225	C	0.836484	-0.024511	0.389523
H226	H	0.760311	-0.127694	0.474384
H227	H	0.834861	-0.202219	0.413508
H228	H	0.910440	-0.163889	0.337400
H229	H	0.911473	-0.051029	0.322167
H230	H	0.836923	0.023496	0.383043
H231	H	-0.141947	-0.023982	0.000078
H232	H	0.763906	-0.658056	0.000056
H233	H	0.574207	-0.740136	0.000036
H234	H	0.582043	-0.085909	0.000067
C235	C	0.560761	-0.621877	0.000031
C236	C	0.517834	-0.624212	-0.052443
C237	C	0.461105	-0.583769	-0.052443
C238	C	0.447303	-0.540990	0.000030
C239	C	0.490232	-0.538653	0.052508
C240	C	0.546961	-0.579096	0.052509
H241	H	0.528050	-0.655881	-0.091290
H242	H	0.429326	-0.585499	-0.091291
H243	H	0.405309	-0.511051	0.000030
H244	H	0.480016	-0.506984	0.091356
H245	H	0.578740	-0.577366	0.091357
C246	C	-0.023688	-0.037428	0.000084
C247	C	-0.026027	-0.080356	0.052559
C248	C	0.014417	-0.137085	0.052562
C249	C	0.057199	-0.150885	0.000090
C250	C	0.059540	-0.107956	-0.052389
C251	C	0.019096	-0.051227	-0.052392
H252	H	-0.057698	-0.070142	0.091406
H253	H	0.012684	-0.168865	0.091411
H254	H	0.087138	-0.192880	0.000092
H255	H	0.091212	-0.118170	-0.091236
H256	H	0.020829	-0.019447	-0.091241
H257	H	0.206289	0.220908	0.000036
H258	H	0.138375	-0.072634	0.000106
H259	H	0.781933	-0.035423	0.557728
H260	H	0.601692	0.144738	0.850348
C261	C	0.590523	0.155888	0.274274
C262	C	0.547095	0.133851	0.317999
C263	C	0.504249	0.176666	0.352982
C264	C	0.504832	0.241517	0.344241
C265	C	0.548262	0.263556	0.300514
C266	C	0.591108	0.220742	0.265531
H267	H	0.546662	0.085842	0.324472
H268	H	0.472099	0.160351	0.385352
H269	H	0.473115	0.273211	0.370138
H270	H	0.548695	0.311566	0.294041
H271	H	0.623258	0.237057	0.233161
H272	H	0.770443	-0.111587	0.000094
H273	H	0.526850	-0.352066	0.000013
H274	H	0.525555	-0.459814	0.000009
H275	H	0.601676	0.144737	0.734966
H276	H	0.562700	0.183658	0.442372
