data_functionalizedCrystal
_audit_creation_method	'MofGen! by Chris Wilmer'
_symmetry_space_group_name_H-M	'P1'
_symmetry_Int_Tables_number	1
_symmetry_cell_setting	triclinic
loop_
_symmetry_equiv_pos_as_xyz
  x,y,z
_cell_length_a	12.759401
_cell_length_b	18.050590
_cell_length_c	12.759393
_cell_angle_alpha	90.034679
_cell_angle_beta	90.020938
_cell_angle_gamma	90.020077
loop_
_atom_site_label
_atom_site_type_symbol
_atom_site_fract_x
_atom_site_fract_y
_atom_site_fract_z
Zn1	Zn	1.606238	-0.295593	0.593990
Zn2	Zn	1.606118	-0.419801	0.418297
Zn3	Zn	1.430537	-0.295633	0.418325
Zn4	Zn	1.430517	-0.419749	0.593934
O5	O	1.518352	-0.357694	0.506136
O6	O	1.753243	-0.312075	0.570695
O7	O	1.582784	-0.403368	0.271279
O8	O	1.453903	-0.191703	0.441662
O9	O	1.753155	-0.403330	0.441614
O10	O	1.582990	-0.191674	0.570722
O11	O	1.453786	-0.312142	0.271300
O12	O	1.283513	-0.312092	0.441608
O13	O	1.453869	-0.403241	0.740963
O14	O	1.283499	-0.403280	0.570628
O15	O	1.582971	-0.312025	0.741003
O16	O	1.582765	-0.523719	0.441561
O17	O	1.453752	-0.523681	0.570601
C18	C	1.245385	-0.357685	0.506115
C19	C	1.128608	-0.357699	0.506131
C20	C	1.073766	-0.405253	0.573206
C21	C	0.964042	-0.405256	0.573227
C22	C	0.964012	-0.310149	0.439089
C23	C	1.073734	-0.310143	0.439075
C24	C	1.518272	-0.550646	0.506094
C25	C	1.518333	-0.633192	0.506112
C26	C	1.588636	-0.832636	0.436038
C27	C	1.614306	-0.881961	0.531925
C28	C	1.518393	-0.784322	0.506154
C29	C	1.492831	-0.882079	0.410310
C30	C	1.518452	-0.930307	0.506186
C31	C	1.544111	-0.832560	0.602091
C32	C	1.422592	-0.832674	0.480411
C33	C	1.448224	-0.881976	0.576364
C34	C	1.518361	-0.700224	0.506134
C35	C	1.518484	-1.014404	0.506216
C36	C	1.792386	-0.357704	0.506158
C37	C	1.909162	-0.357708	0.506167
C38	C	1.518431	-0.357623	0.780170
C39	C	1.518465	-0.357592	0.896947
C40	C	1.518462	-0.163989	0.506201
C41	C	1.518509	-0.081443	0.506229
C42	C	1.518335	-0.357712	0.233169
C43	C	1.518505	-0.357533	0.116393
C44	C	1.585693	-0.310088	0.951831
C45	C	1.585711	-0.310056	1.061556
C46	C	1.451269	-0.405039	1.061500
C47	C	1.451247	-0.405067	0.951778
H48	H	1.118388	-0.271414	0.384454
H49	H	1.388847	-0.903504	0.635741
H50	H	1.341572	-0.811006	0.458589
H51	H	1.396545	-0.443693	1.106158
H52	H	0.919395	-0.443978	0.627847
C53	C	0.930251	-0.184351	0.388244
C54	C	0.903693	-0.257880	0.365377
H55	H	0.893009	-0.152084	0.342737
H56	H	1.003438	-0.177548	0.378634
H57	H	0.912300	-0.173554	0.458866
H58	H	0.921651	-0.268680	0.294756
H59	H	0.830489	-0.264687	0.374977
H60	H	1.640453	-0.271372	1.106238
H61	H	1.640423	-0.271430	0.907191
C62	C	1.769152	-0.828261	0.383311
C63	C	1.668848	-0.803380	0.356076
H64	H	1.818671	-0.810194	0.333953
H65	H	1.770163	-0.880875	0.383212
H66	H	1.786654	-0.810574	0.451236
H67	H	1.651344	-0.821072	0.288154
H68	H	1.667835	-0.750755	0.356165
H69	H	1.695348	-0.903613	0.553718
H70	H	1.471186	-0.903830	0.329242
H71	H	1.396494	-0.443750	0.907090
H72	H	1.565676	-0.810901	0.683228
H73	H	1.118442	-0.443974	0.627811
