data_functionalizedCrystal
_audit_creation_method	'MofGen! by Chris Wilmer'
_symmetry_space_group_name_H-M	'P1'
_symmetry_Int_Tables_number	1
_symmetry_cell_setting	triclinic
loop_
_symmetry_equiv_pos_as_xyz
  x,y,z
_cell_length_a	15.944551
_cell_length_b	19.288864
_cell_length_c	18.366186
_cell_angle_alpha	90.022894
_cell_angle_beta	89.992809
_cell_angle_gamma	96.682508
loop_
_atom_site_label
_atom_site_type_symbol
_atom_site_fract_x
_atom_site_fract_y
_atom_site_fract_z
O1	O	0.104784	-0.921629	-0.060785
O2	O	0.604784	-0.421629	0.439215
O3	O	0.118919	-0.719405	-0.060735
O4	O	0.618919	-0.219405	0.439265
O5	O	-0.010445	-0.826039	-0.060755
O6	O	0.489555	-0.326039	0.439245
O7	O	0.234147	-0.814995	-0.060765
O8	O	0.734147	-0.314995	0.439235
O9	O	-0.010451	-0.826021	0.060345
O10	O	0.489549	-0.326021	0.560345
O11	O	0.118912	-0.719387	0.060364
O12	O	0.618912	-0.219387	0.560364
O13	O	0.104777	-0.921611	0.060315
O14	O	0.604777	-0.421611	0.560315
Zn15	Zn	0.111844	-0.820496	0.079567
Zn16	Zn	0.611844	-0.320496	0.579567
Zn17	Zn	0.111852	-0.820520	-0.079987
Zn18	Zn	0.611852	-0.320520	0.420013
O19	O	0.234141	-0.814977	0.060334
O20	O	0.734141	-0.314977	0.560334
C21	C	0.118461	-0.693519	-0.000179
C22	C	0.618461	-0.193519	0.499821
C23	C	0.117095	-0.616411	-0.000160
C24	C	0.617095	-0.116411	0.499840
C25	C	-0.041740	-0.825572	-0.000205
C26	C	0.458260	-0.325572	0.499795
C27	C	-0.134981	-0.824197	-0.000204
C28	C	0.365019	-0.324197	0.499796
N29	N	0.111838	-0.820485	0.188458
N30	N	0.611838	-0.320485	0.688458
C31	C	-0.349571	-0.754815	-0.000197
C32	C	0.150429	-0.254815	0.499803
C33	C	-0.410715	-0.787025	0.059504
C34	C	0.089285	-0.287025	0.559504
C35	C	-0.305697	-0.821710	-0.000209
C36	C	0.194303	-0.321710	0.499791
C37	C	-0.410692	-0.787058	-0.059890
C38	C	0.089308	-0.287058	0.440110
C39	C	-0.470601	-0.819303	-0.000217
C40	C	0.029399	-0.319303	0.499783
C41	C	-0.365614	-0.853939	0.059542
C42	C	0.134386	-0.353939	0.559542
C43	C	-0.365585	-0.853963	-0.059906
C44	C	0.134415	-0.353963	0.440094
C45	C	-0.426712	-0.886222	-0.000190
C46	C	0.073288	-0.386222	0.499810
C47	C	-0.210700	-0.823095	-0.000204
C48	C	0.289300	-0.323095	0.499796
C49	C	-0.565597	-0.817924	-0.000217
C50	C	-0.065597	-0.317924	0.499783
C51	C	0.265436	-0.815444	-0.000217
C52	C	0.765436	-0.315444	0.499783
C53	C	0.358677	-0.816819	-0.000223
C54	C	0.858677	-0.316819	0.499777
C55	C	0.105235	-0.947497	-0.000243
C56	C	0.605235	-0.447497	0.499757
C57	C	0.106600	-1.024605	-0.000267
C58	C	0.606600	-0.524605	0.499733
C59	C	0.193000	-0.571915	-0.000175
C60	C	0.693000	-0.071915	0.499825
C61	C	0.191717	-0.499465	-0.000183
C62	C	0.691717	0.000535	0.499817
C63	C	0.114526	-0.471514	-0.000191
C64	C	0.614526	0.028486	0.499809
C65	C	0.038611	-0.516020	-0.000172
C66	C	0.538611	-0.016020	0.499828
C67	C	0.039896	-0.588469	-0.000156
C68	C	0.539896	-0.088469	0.499844
C69	C	0.053847	-0.363098	-0.042639
C70	C	0.553847	0.136902	0.457361
C71	C	0.052565	-0.290650	-0.042659
C72	C	0.552565	0.209350	0.457341
C73	C	0.110560	-0.248058	-0.000234
C74	C	0.610560	0.251942	0.499766
C75	C	0.169850	-0.277920	0.042200
C76	C	0.669850	0.222080	0.542200
C77	C	0.171135	-0.350369	0.042216
C78	C	0.671135	0.149631	0.542216
C79	C	0.113124	-0.392956	-0.000207
C80	C	0.613124	0.107044	0.499793
C81	C	0.185079	-0.125002	-0.000257
C82	C	0.685079	0.374998	0.499743
C83	C	0.183793	-0.052550	-0.000260
C84	C	0.683793	0.447450	0.499740
C85	C	0.030684	-0.069107	-0.000257
C86	C	0.530684	0.430893	0.499743
C87	C	0.031972	-0.141557	-0.000246
C88	C	0.531972	0.358443	0.499754
C89	C	0.109172	-0.169500	-0.000249
C90	C	0.609172	0.330500	0.499751
N91	N	0.111852	-0.820537	-0.188878
N92	N	0.611852	-0.320537	0.311122
C93	C	0.054583	-0.867718	0.226549
C94	C	0.554583	-0.367718	0.726549
C95	C	0.054580	-0.867722	0.302777
C96	C	0.554580	-0.367722	0.802777
C97	C	0.111844	-0.820500	0.340910
C98	C	0.611844	-0.320500	0.840910
C99	C	0.169103	-0.773258	0.302810
C100	C	0.669103	-0.273258	0.802810
C101	C	0.169100	-0.773251	0.226583
C102	C	0.669100	-0.273251	0.726583
C103	C	0.188378	-0.811404	0.461669
C104	C	0.688378	-0.311404	0.961669
C105	C	0.188383	-0.811416	0.537894
C106	C	0.688383	-0.311416	1.037894
C107	C	0.111855	-0.820520	0.576018
C108	C	0.611855	-0.320520	1.076018
C109	C	0.035320	-0.829626	0.537908
C110	C	0.535320	-0.329626	1.037908
C111	C	0.035316	-0.829618	0.461681
C112	C	0.535316	-0.329618	0.961681
C113	C	0.111854	-0.820503	0.423565
C114	C	0.611854	-0.320503	0.923565
C115	C	0.054592	-0.867760	0.696765
C116	C	0.554592	-0.367760	1.196765
C117	C	0.054587	-0.867760	0.772994
C118	C	0.554587	-0.367760	1.272994
C119	C	0.169118	-0.773299	0.773025
C120	C	0.669118	-0.273299	1.273025
C121	C	0.169115	-0.773296	0.696797
C122	C	0.669115	-0.273296	1.196797
C123	C	0.111853	-0.820531	0.658671
C124	C	0.611853	-0.320531	1.158671
H125	H	-0.316049	-0.699288	-0.000124
H126	H	0.183951	-0.199288	0.499876
N127	N	-0.339304	-0.891375	0.126479
N128	N	0.160696	-0.391375	0.626479
H129	H	-0.310751	-0.933179	0.111333
H130	H	0.189249	-0.433179	0.611333
H131	H	-0.298769	-0.858560	0.156155
H132	H	0.201231	-0.358560	0.656155
H133	H	-0.026997	-0.837039	0.568947
H134	H	0.473003	-0.337039	1.068947
N135	N	-0.470923	-0.959834	-0.000171
N136	N	0.029077	-0.459834	0.499829
H137	H	-0.454549	-0.984997	0.044941
H138	H	0.045451	-0.484997	0.544941
H139	H	-0.534046	-0.958452	-0.000627
H140	H	-0.034046	-0.458452	0.499373
N141	N	-0.339059	-0.891426	-0.126781
N142	N	0.160941	-0.391426	0.373219
H143	H	-0.355262	-0.866118	-0.171855
H144	H	0.144738	-0.366118	0.328145
H145	H	-0.275883	-0.892463	-0.125961
H146	H	0.224117	-0.392463	0.374039
N147	N	0.232411	-0.231999	0.087966
N148	N	0.732411	0.268001	0.587966
H149	H	0.267956	-0.198054	0.055464
H150	H	0.767956	0.301946	0.555464
H151	H	0.200972	-0.205305	0.124241
H152	H	0.700972	0.294695	0.624241
H153	H	0.006619	-0.397772	-0.077190
H154	H	0.506619	0.102228	0.422810
N155	N	-0.437161	-0.749579	-0.126742
N156	N	0.062839	-0.249579	0.373258
H157	H	-0.408805	-0.699950	-0.126673
H158	H	0.091195	-0.199950	0.373327
H159	H	-0.419942	-0.774403	-0.171811
H160	H	0.080058	-0.274403	0.328189
H161	H	-0.029838	-0.177787	-0.000238
H162	H	0.470162	0.322213	0.499762
N163	N	0.230883	-0.722362	0.655709
N164	N	0.730883	-0.222362	1.155709
H165	H	0.222192	-0.729522	0.601634
H166	H	0.722192	-0.229522	1.101634
H167	H	0.221334	-0.673090	0.669059
H168	H	0.721334	-0.173090	1.169059
H169	H	0.007955	-0.906186	0.333797
H170	H	0.507955	-0.406186	0.833797
N171	N	0.268341	-0.155142	-0.000256
N172	N	0.768341	0.344858	0.499744
H173	H	0.301581	-0.138894	0.044634
H174	H	0.801581	0.361106	0.544634
H175	H	0.257569	-0.207786	-0.000277
H176	H	0.757569	0.292214	0.499723
N177	N	0.276261	-0.602054	-0.000184
N178	N	0.776261	-0.102054	0.499816
H179	H	0.324153	-0.562867	-0.000196
H180	H	0.824153	-0.062867	0.499804
H181	H	0.280136	-0.631728	0.044714
H182	H	0.780136	-0.131728	0.544714
N183	N	0.273588	-0.451460	-0.000200
N184	N	0.773588	0.048540	0.499800
H185	H	0.322688	-0.480155	-0.000200
H186	H	0.822688	0.019845	0.499800
H187	H	0.276382	-0.421068	-0.045102
H188	H	0.776382	0.078932	0.454898
N189	N	0.235074	-0.382580	0.087983
N190	N	0.735074	0.117420	0.587983
H191	H	0.271622	-0.344610	0.114859
H192	H	0.771622	0.155390	0.614859
H193	H	0.204692	-0.415961	0.124227
H194	H	0.704692	0.084039	0.624227
N195	N	-0.007162	-0.918710	0.814085
N196	N	0.492838	-0.418710	1.314085
H197	H	0.024858	-0.949455	0.845691
H198	H	0.524858	-0.449455	1.345691
H199	H	-0.044260	-0.892127	0.845690
H200	H	0.455740	-0.392127	1.345690
H201	H	0.215728	-0.734808	0.333861
H202	H	0.715728	-0.234808	0.833861
H203	H	0.250702	-0.804006	0.568917
H204	H	0.750702	-0.304006	1.068917
N205	N	-0.047224	-0.839437	0.420575
N206	N	0.452776	-0.339437	0.920575
H207	H	-0.095708	-0.845206	0.456288
H208	H	0.404292	-0.345206	0.956288
H209	H	-0.051998	-0.797239	0.388972
H210	H	0.448002	-0.297239	0.888972
H211	H	0.215741	-0.734848	0.804072
H212	H	0.715741	-0.234848	1.304072
H213	H	0.245606	-0.016321	-0.000268
H214	H	0.745606	0.483679	0.499732
H215	H	0.004290	-0.266342	-0.077214
H216	H	0.504290	0.233658	0.422786
H217	H	-0.032167	-0.046351	-0.000308
H218	H	0.467833	0.453649	0.499692
N219	N	-0.437205	-0.749546	0.126386
N220	N	0.062795	-0.249546	0.626386
H221	H	-0.408851	-0.699916	0.126357
H222	H	0.091149	-0.199916	0.626357
H223	H	-0.500517	-0.749344	0.126100
H224	H	-0.000517	-0.249344	0.626100
N225	N	-0.044647	-0.485878	-0.000172
N226	N	0.455353	0.014122	0.499828
H227	H	-0.033944	-0.433230	-0.000184
H228	H	0.466056	0.066770	0.499816
H229	H	-0.077854	-0.502182	-0.045058
H230	H	0.422146	-0.002182	0.454942
H231	H	-0.021917	-0.624699	-0.000145
H232	H	0.478083	-0.124699	0.499855
H233	H	0.007955	-0.906177	0.195510
H234	H	0.507955	-0.406177	0.695510
N235	N	-0.007167	-0.918700	0.655637
N236	N	0.492833	-0.418700	1.155637
H237	H	-0.043444	-0.948620	0.691338
H238	H	0.456556	-0.448620	1.191338
H239	H	-0.044219	-0.892108	0.624026
H240	H	0.455781	-0.392108	1.124026
H241	H	0.250700	-0.803978	0.430635
H242	H	0.750700	-0.303978	0.930635
N243	N	0.230852	-0.722302	0.185493
N244	N	0.730852	-0.222302	0.685493
H245	H	0.267127	-0.692384	0.221214
H246	H	0.767127	-0.192384	0.721214
H247	H	0.267906	-0.748887	0.153847
H248	H	0.767906	-0.248887	0.653847
