data_functionalizedCrystal
_audit_creation_method	'MofGen! by Chris Wilmer'
_symmetry_space_group_name_H-M	'P1'
_symmetry_Int_Tables_number	1
_symmetry_cell_setting	triclinic
loop_
_symmetry_equiv_pos_as_xyz
  x,y,z
_cell_length_a	12.827893
_cell_length_b	16.625539
_cell_length_c	12.827892
_cell_angle_alpha	89.974941
_cell_angle_beta	90.015553
_cell_angle_gamma	89.981586
loop_
_atom_site_label
_atom_site_type_symbol
_atom_site_fract_x
_atom_site_fract_y
_atom_site_fract_z
Zn1	Zn	1.597663	-0.455881	-0.416027
Zn2	Zn	2.097663	0.044119	0.083973
Zn3	Zn	1.597559	-0.321056	-0.590790
Zn4	Zn	2.097559	0.178944	-0.090790
Zn5	Zn	1.422906	-0.321067	-0.416064
Zn6	Zn	1.922906	0.178933	0.083936
Zn7	Zn	1.422889	-0.455851	-0.590727
Zn8	Zn	1.922889	0.044149	-0.090727
O9	O	1.510254	-0.388464	-0.503402
O10	O	2.010254	0.111536	-0.003402
O11	O	1.743885	-0.438004	-0.439220
O12	O	2.243885	0.061996	0.060780
O13	O	1.574354	-0.208225	-0.567654
O14	O	2.074354	0.291775	-0.067654
O15	O	1.446138	-0.338967	-0.269823
O16	O	1.946138	0.161033	0.230177
O17	O	1.743809	-0.338949	-0.567618
O18	O	2.243809	0.161051	-0.067618
O19	O	1.574531	-0.438015	-0.269796
O20	O	2.074531	0.061985	0.230204
O21	O	1.446038	-0.208233	-0.439283
O22	O	1.946038	0.291767	0.060717
O23	O	1.276668	-0.338938	-0.439222
O24	O	1.776668	0.161062	0.060778
O25	O	1.446110	-0.568687	-0.567511
O26	O	1.946110	-0.068687	-0.067511
O27	O	1.276656	-0.437963	-0.567547
O28	O	1.776656	0.062037	-0.067547
O29	O	1.574515	-0.568710	-0.439159
O30	O	2.074515	-0.068710	0.060841
O31	O	1.574338	-0.338920	-0.737017
O32	O	2.074338	0.161080	-0.237017
O33	O	1.446009	-0.437953	-0.736971
O34	O	1.946009	0.062047	-0.236971
C35	C	1.238744	-0.388449	-0.503382
C36	C	1.738744	0.111551	-0.003382
C37	C	1.122591	-0.388462	-0.503399
C38	C	1.622591	0.111538	-0.003399
C39	C	0.950784	-0.437399	-0.567014
C40	C	1.450784	0.062601	-0.067014
C41	C	1.070834	-0.437387	-0.566997
C42	C	1.570834	0.062613	-0.066997
C43	C	1.510322	-0.598773	-0.503324
C44	C	2.010322	-0.098773	-0.003324
C45	C	1.510351	-0.688394	-0.503291
C46	C	2.010351	-0.188394	-0.003291
C47	C	1.510399	-1.016570	-0.503174
C48	C	2.010399	-0.516570	-0.003174
C49	C	1.510383	-0.925261	-0.503210
C50	C	2.010383	-0.425261	-0.003210
C51	C	1.510376	-0.852485	-0.503233
C52	C	2.010376	-0.352485	-0.003233
C53	C	1.510358	-0.761170	-0.503267
C54	C	2.010358	-0.261170	-0.003267
C55	C	1.782824	-0.388479	-0.503422
C56	C	2.282824	0.111521	-0.003422
C57	C	1.898977	-0.388485	-0.503430
C58	C	2.398977	0.111515	-0.003430
C59	C	1.510189	-0.388450	-0.774912
C60	C	2.010189	0.111550	-0.274912
C61	C	1.510257	-0.388470	-0.891065
C62	C	2.010257	0.111530	-0.391065
C63	C	1.510247	-0.178973	-0.503404
C64	C	2.010247	0.321027	-0.003404
C65	C	1.510420	-0.089352	-0.503143
C66	C	2.010420	0.410648	-0.003143
C67	C	1.573833	-0.339520	-0.942838
C68	C	2.073833	0.160480	-0.442838
C69	C	1.573905	-0.339540	-1.062888
C70	C	2.073905	0.160460	-0.562888
C71	C	1.510348	-0.388496	-0.230832
C72	C	2.010348	0.111504	0.269168
C73	C	1.510388	-0.388509	-0.114678
C74	C	2.010388	0.111491	0.385322
H75	H	1.078046	-0.346586	-0.448957
H76	H	1.578046	0.153414	0.051043
F77	F	0.892594	-0.492139	-0.638197
F78	F	1.392594	0.007861	-0.138197
F79	F	1.439233	-0.443286	-1.056494
F80	F	1.939233	0.056714	-0.556494
H81	H	1.455883	-0.430397	-0.935617
H82	H	1.955883	0.069603	-0.435617
H83	H	1.115386	-0.479268	-0.621428
H84	H	1.615386	0.020732	-0.121428
H85	H	0.943501	-0.346597	-0.448986
H86	H	1.443501	0.153403	0.051014
F87	F	1.644917	-0.284726	-0.884611
F88	F	2.144917	0.215274	-0.384611
H89	H	1.628332	-0.297630	-1.107412
H90	H	2.128332	0.202370	-0.607412
