data_functionalizedCrystal
_audit_creation_method	'MofGen! by Chris Wilmer'
_symmetry_space_group_name_H-M	'P1'
_symmetry_Int_Tables_number	1
_symmetry_cell_setting	triclinic
loop_
_symmetry_equiv_pos_as_xyz
  x,y,z
_cell_length_a	17.699083
_cell_length_b	9.730223
_cell_length_c	17.699083
_cell_angle_alpha	90.002214
_cell_angle_beta	83.283015
_cell_angle_gamma	89.994169
loop_
_atom_site_label
_atom_site_type_symbol
_atom_site_fract_x
_atom_site_fract_y
_atom_site_fract_z
O1	O	1.004071	0.114100	0.095708
O2	O	1.504071	0.614100	0.595708
O3	O	0.783693	0.114145	0.108160
O4	O	1.283693	0.614145	0.608160
O5	O	0.900109	0.114109	-0.008255
O6	O	1.400109	0.614109	0.491745
O7	O	0.887656	0.114136	0.212123
O8	O	1.387656	0.614136	0.712123
O9	O	0.900107	-0.114471	-0.008252
O10	O	1.400107	0.385529	0.491748
O11	O	0.783692	-0.114435	0.108163
O12	O	1.283692	0.385565	0.608163
O13	O	1.004070	-0.114480	0.095711
O14	O	1.504070	0.385520	0.595711
Zn15	Zn	0.893881	-0.150749	0.101938
Zn16	Zn	1.393881	0.349251	0.601938
Zn17	Zn	0.893882	0.150415	0.101934
Zn18	Zn	1.393882	0.650415	0.601934
O19	O	0.887655	-0.114444	0.212126
O20	O	1.387655	0.385556	0.712126
C21	C	0.755495	-0.000139	0.107716
C22	C	1.255495	0.499861	0.607716
C23	C	0.671477	-0.000122	0.106377
C24	C	1.171477	0.499878	0.606377
C25	C	0.622856	-0.000114	0.174710
C26	C	1.122856	0.499886	0.674710
C27	C	0.543913	-0.000132	0.173448
C28	C	1.043913	0.499868	0.673448
C29	C	0.513592	-0.000148	0.103852
C30	C	1.013592	0.499852	0.603852
C31	C	0.562219	-0.000160	0.035513
C32	C	1.062219	0.499840	0.535513
C33	C	0.641161	-0.000152	0.036776
C34	C	1.141161	0.499848	0.536776
C35	C	0.243856	-0.000195	0.030418
C36	C	0.743856	0.499805	0.530418
C37	C	0.164908	-0.000199	0.029160
C38	C	0.664908	0.499801	0.529160
C39	C	0.146608	-0.000175	0.167090
C40	C	0.646608	0.499825	0.667090
C41	C	0.225550	-0.000167	0.168353
C42	C	0.725550	0.499833	0.668353
C43	C	0.274170	-0.000186	0.100015
C44	C	0.774170	0.499814	0.600015
C45	C	0.359769	-0.000169	0.101384
C46	C	0.859769	0.499831	0.601384
C47	C	0.427995	-0.000155	0.102481
C48	C	0.927995	0.499845	0.602481
N49	N	0.893885	-0.356286	0.101940
N50	N	1.393885	0.143714	0.601940
C51	C	0.945447	-0.428228	0.050408
C52	C	1.445447	0.071772	0.550408
C53	C	0.945445	-0.572111	0.050399
C54	C	1.445445	-0.072111	0.550399
C55	C	0.842317	-0.572097	0.153459
C56	C	1.342317	-0.072097	0.653459
C57	C	0.842316	-0.428217	0.153464
C58	C	1.342316	0.071783	0.653464
C59	C	0.997016	-0.356297	-0.001116
C60	C	1.497016	0.143703	0.498884
C61	C	1.048583	-0.428239	-0.052652
C62	C	1.548583	0.071761	0.447348
C63	C	1.048581	-0.572122	-0.052661
C64	C	1.548581	-0.072122	0.447339
C65	C	0.997012	-0.644063	-0.001135
C66	C	1.497012	-0.144063	0.498865
C67	C	1.032268	-0.000193	0.096156
C68	C	1.532268	0.499807	0.596156
C69	C	1.116286	-0.000201	0.097494
C70	C	1.616286	0.499799	0.597494
C71	C	0.899662	-0.000181	-0.036451
C72	C	1.399662	0.499819	0.463549
C73	C	0.898323	-0.000181	-0.120469
C74	C	1.398323	0.499819	0.379531
N75	N	0.893884	0.355951	0.101926
N76	N	1.393884	0.855951	0.601926
C77	C	0.966656	-0.000197	-0.169090
C78	C	1.466656	0.499803	0.330910
C79	C	0.965394	-0.000185	-0.248033
C80	C	1.465394	0.499815	0.251967
C81	C	0.895798	-0.000166	-0.278354
C82	C	1.395798	0.499834	0.221646
C83	C	0.827459	-0.000146	-0.229727
C84	C	1.327459	0.499854	0.270273
C85	C	0.828722	-0.000149	-0.150785
C86	C	1.328722	0.499851	0.349215
C87	C	0.822364	-0.000134	-0.548090
C88	C	1.322364	0.499866	-0.048090
C89	C	0.821106	-0.000135	-0.627038
C90	C	1.321106	0.499865	-0.127038
C91	C	0.959036	-0.000170	-0.645338
C92	C	1.459036	0.499830	-0.145338
C93	C	0.960299	-0.000173	-0.566396
C94	C	1.460299	0.499827	-0.066396
C95	C	0.891961	-0.000145	-0.517776
C96	C	1.391961	0.499855	-0.017776
C97	C	0.893330	-0.000156	-0.432177
C98	C	1.393330	0.499844	0.067823
C99	C	0.894427	-0.000165	-0.363951
C100	C	1.394427	0.499835	0.136049
C101	C	0.888102	-0.000151	0.240322
C102	C	1.388102	0.499849	0.740322
C103	C	0.889440	-0.000142	0.324340
C104	C	1.389440	0.499858	0.824340
H105	H	0.283434	-0.000212	-0.025228
H106	H	0.783434	0.499788	0.474772
Br107	Br	0.733005	-0.000098	-0.270875
Br108	Br	1.233005	0.499902	0.229125
H109	H	1.090563	-0.630696	-0.094627
H110	H	1.590563	-0.130696	0.405373
Br111	Br	0.997025	-0.161028	-0.001101
Br112	Br	1.497025	0.338972	0.498899
Br113	Br	0.663998	-0.000078	0.269168
Br114	Br	1.163998	0.499922	0.769168
Br115	Br	0.477929	-0.000117	0.266191
Br116	Br	0.977929	0.499883	0.766191
Br117	Br	0.772337	-0.669729	0.223384
Br118	Br	1.272337	-0.169729	0.723384
Br119	Br	0.726647	-0.000112	-0.668186
Br120	Br	1.226647	0.499888	-0.168186
Br121	Br	0.735980	-0.000116	-0.084797
Br122	Br	1.235980	0.499884	0.415203
H123	H	1.090564	-0.369657	-0.094607
H124	H	1.590564	0.130343	0.405393
Br125	Br	0.997004	-0.839334	-0.001159
Br126	Br	1.497004	-0.339334	0.498841
H127	H	0.250232	-0.000147	0.225025
H128	H	0.750232	0.499853	0.725025
H129	H	0.800329	-0.369641	0.195425
H130	H	1.300329	0.130359	0.695425
H131	H	1.023330	-0.000221	-0.144409
H132	H	1.523330	0.499779	0.355591
Br133	Br	0.123759	-0.000216	-0.065299
Br134	Br	0.623759	0.499784	0.434701
Br135	Br	1.058137	-0.000206	-0.314016
Br136	Br	1.558137	0.499794	0.185984
H137	H	0.680748	-0.000158	-0.018868
H138	H	1.180748	0.499842	0.481132
Br139	Br	0.080619	-0.000150	0.259837
Br140	Br	0.580619	0.499850	0.759837
H141	H	1.016971	-0.000194	-0.541714
H142	H	1.516971	0.499806	-0.041714
H143	H	0.766718	-0.000112	-0.508512
H144	H	1.266718	0.499888	-0.008512
Br145	Br	0.521071	-0.000196	-0.058941
Br146	Br	1.021071	0.499804	0.441059
H147	H	1.014680	-0.000185	-0.684934
H148	H	1.514680	0.499815	-0.184934
