data_functionalizedCrystal
_audit_creation_method	'MofGen! by Chris Wilmer'
_symmetry_space_group_name_H-M	'P1'
_symmetry_Int_Tables_number	1
_symmetry_cell_setting	triclinic
loop_
_symmetry_equiv_pos_as_xyz
  x,y,z
_cell_length_a	15.297327
_cell_length_b	19.805407
_cell_length_c	19.805399
_cell_angle_alpha	89.975799
_cell_angle_beta	99.649417
_cell_angle_gamma	99.707138
loop_
_atom_site_label
_atom_site_type_symbol
_atom_site_fract_x
_atom_site_fract_y
_atom_site_fract_z
Zn1	Zn	-0.359207	0.988096	-0.429418
Zn2	Zn	0.140793	1.488096	0.070582
Zn3	Zn	-0.510075	0.968421	-0.335809
Zn4	Zn	-0.010075	1.468421	0.164191
Zn5	Zn	-0.359229	0.874907	-0.316237
Zn6	Zn	0.140771	1.374907	0.183763
Zn7	Zn	-0.510025	0.855291	-0.448940
Zn8	Zn	-0.010025	1.355291	0.051060
O9	O	-0.434634	0.921679	-0.382601
O10	O	0.065366	1.421679	0.117399
O11	O	-0.379231	1.080201	-0.417022
O12	O	0.120769	1.580201	0.082978
O13	O	-0.490096	0.955992	-0.238500
O14	O	0.009904	1.455992	0.261500
O15	O	-0.232979	0.906365	-0.314890
O16	O	0.267021	1.406365	0.185110
O17	O	-0.490074	1.065746	-0.348247
O18	O	0.009926	1.565746	0.151753
O19	O	-0.232962	0.989524	-0.398044
O20	O	0.267038	1.489524	0.101956
O21	O	-0.379270	0.887288	-0.224120
O22	O	0.120730	1.387288	0.275880
O23	O	-0.379222	0.777590	-0.333819
O24	O	0.120778	1.277590	0.166181
O25	O	-0.489988	0.872932	-0.541063
O26	O	0.010012	1.372932	-0.041063
O27	O	-0.490011	0.763178	-0.431315
O28	O	0.009989	1.263178	0.068685
O29	O	-0.379182	0.970503	-0.526720
O30	O	0.120818	1.470503	-0.026720
O31	O	-0.636316	0.936971	-0.367176
O32	O	-0.136316	1.436971	0.132824
O33	O	-0.636280	0.853855	-0.450293
O34	O	-0.136280	1.353855	0.049707
C35	C	-0.434614	0.745825	-0.382562
C36	C	0.065386	1.245825	0.117438
C37	C	-0.434627	0.670592	-0.382564
C38	C	0.065373	1.170592	0.117436
C39	C	-0.492431	0.201299	-0.433357
C40	C	0.007569	0.701299	0.066643
C41	C	-0.492429	0.271988	-0.433342
C42	C	0.007571	0.771988	0.066658
C43	C	-0.434656	0.314826	-0.382630
C44	C	0.065344	0.814826	0.117370
C45	C	-0.376887	0.286972	-0.331925
C46	C	0.123113	0.786972	0.168075
C47	C	-0.376894	0.216284	-0.331938
C48	C	0.123106	0.716284	0.168062
C49	C	-0.376860	0.572049	-0.331874
C50	C	0.123140	1.072049	0.168126
C51	C	-0.376855	0.642742	-0.331867
C52	C	0.123145	1.142742	0.168133
C53	C	-0.492395	0.627753	-0.433279
C54	C	0.007605	1.127753	0.066721
C55	C	-0.492401	0.557065	-0.433291
C56	C	0.007599	1.057065	0.066709
C57	C	-0.434636	0.529216	-0.382584
C58	C	0.065364	1.029216	0.117416
C59	C	-0.434640	0.452567	-0.382600
C60	C	0.065360	0.952567	0.117400
C61	C	-0.434647	0.391474	-0.382617
C62	C	0.065353	0.891474	0.117383
C63	C	-0.669033	0.891168	-0.412992
C64	C	-0.169033	1.391168	0.087008
C65	C	-0.769309	0.878177	-0.426016
C66	C	-0.269309	1.378177	0.073984
C67	C	-1.051924	1.014805	-0.289747
C68	C	-0.551924	1.514805	0.210253
C69	C	-0.957709	1.027010	-0.277507
C70	C	-0.457709	1.527010	0.222493
C71	C	-0.910604	0.989803	-0.314633
C72	C	-0.410604	1.489803	0.185367
C73	C	-0.957724	0.940388	-0.364001
C74	C	-0.457724	1.440388	0.135999
C75	C	-1.051948	0.928178	-0.376239
C76	C	-0.551948	1.428178	0.123761
C77	C	-0.910629	0.903176	-0.401125
C78	C	-0.410629	1.403176	0.098875
C79	C	-0.957749	0.853762	-0.450494
C80	C	-0.457749	1.353762	0.049506
C81	C	-1.051963	0.841554	-0.462729
C82	C	-0.551963	1.341554	0.037271
C83	C	-1.099068	0.878761	-0.425603
C84	C	-0.599068	1.378761	0.074397
C85	C	-0.816405	0.915387	-0.388888
C86	C	-0.316405	1.415387	0.111112
C87	C	-0.816429	0.828760	-0.475380
C88	C	-0.316429	1.328760	0.024620
C89	C	-0.910644	0.816555	-0.487620
C90	C	-0.410644	1.316555	0.012380
C91	C	-0.199320	0.952327	-0.352106
C92	C	0.300680	1.452327	0.147894
C93	C	-0.099044	0.965388	-0.339111
C94	C	0.400956	1.465388	0.160889
C95	C	-0.434577	0.921724	-0.559136
C96	C	0.065423	1.421724	-0.059136
C97	C	-0.434553	0.921743	-0.634365
C98	C	0.065447	1.421743	-0.134365
C99	C	-0.434655	1.098219	-0.382640
C100	C	0.065345	1.598219	0.117360
C101	C	-0.434664	1.173450	-0.382657
C102	C	0.065336	1.673450	0.117343
C103	C	-0.376854	0.972550	-0.662242
C104	C	0.123146	1.472550	-0.162242
C105	C	-0.376827	0.972560	-0.732927
C106	C	0.123173	1.472560	-0.232927
C107	C	-0.434506	0.921766	-0.775735
C108	C	0.065494	1.421766	-0.275735
C109	C	-0.492208	0.870955	-0.747853
C110	C	0.007792	1.370955	-0.247853
C111	C	-0.492229	0.870942	-0.677169
C112	C	0.007771	1.370942	-0.177169
C113	C	-0.492124	0.871004	-1.032916
C114	C	0.007876	1.371004	-0.532916
C115	C	-0.492101	0.871022	-1.103605
C116	C	0.007899	1.371022	-0.603605
C117	C	-0.376722	0.972622	-1.088674
C118	C	0.123278	1.472622	-0.588674
C119	C	-0.376743	0.972609	-1.017990
C120	C	0.123257	1.472609	-0.517990
C121	C	-0.434442	0.921796	-0.990114
C122	C	0.065558	1.421796	-0.490114
C123	C	-0.434468	0.921785	-0.913469
C124	C	0.065532	1.421785	-0.413469
C125	C	-0.434485	0.921780	-0.852379
C126	C	0.065515	1.421780	-0.352379
C127	C	-0.434626	0.921681	-0.206744
C128	C	0.065374	1.421681	0.293256
C129	C	-0.434396	0.921826	-0.131482
C130	C	0.065604	1.421826	0.368518
H131	H	-0.329827	0.549383	-0.290584
H132	H	0.170173	1.049383	0.209416
O133	O	-0.548545	0.654696	-0.482600
O134	O	-0.048545	1.154696	0.017400
C135	C	-0.599549	0.601725	-0.527353
C136	C	-0.099549	1.101725	-0.027353
H137	H	-0.562601	0.556148	-0.524957
H138	H	-0.062601	1.056148	-0.024957
H139	H	-0.609261	0.620915	-0.581927
H140	H	-0.109261	1.120915	-0.081927
H141	H	-0.668027	0.585280	-0.511366
H142	H	-0.168027	1.085280	-0.011366
H143	H	-0.539471	0.166425	-0.474655
H144	H	-0.039471	0.666425	0.025345
O145	O	-1.097876	0.793557	-0.510638
O146	O	-0.597876	1.293557	-0.010638
C147	C	-1.191136	0.790772	-0.513491
C148	C	-0.691136	1.290772	-0.013491
H149	H	-1.204024	0.811295	-0.462950
H150	H	-0.704024	1.311295	0.037050
H151	H	-1.226996	0.735425	-0.522693
H152	H	-0.726996	1.235425	-0.022693
H153	H	-1.217799	0.823342	-0.557135
H154	H	-0.717799	1.323342	-0.057135
H155	H	-0.329851	0.321856	-0.290632
H156	H	0.170149	0.821856	0.209368
H157	H	-0.329888	1.013914	-0.627392
H158	H	0.170112	1.513914	-0.127392
O159	O	-0.770738	0.963340	-0.340856
O160	O	-0.270738	1.463340	0.159144
C161	C	-0.793818	0.945583	-0.276379
C162	C	-0.293818	1.445583	0.223621
H163	H	-0.862254	0.910695	-0.283841
H164	H	-0.362254	1.410695	0.216159
H165	H	-0.797018	0.994034	-0.246493
H166	H	-0.297018	1.494034	0.253507
H167	H	-0.740845	0.917663	-0.246667
H168	H	-0.240845	1.417663	0.253333
H169	H	-0.329852	0.193611	-0.290654
H170	H	0.170148	0.693611	0.209346
H171	H	-0.949022	0.776321	-0.527816
H172	H	-0.449022	1.276321	-0.027816
H173	H	-0.833890	0.999743	-0.304664
H174	H	-0.333890	1.499743	0.195336
H175	H	-1.090285	1.045089	-0.259520
H176	H	-0.590285	1.545089	0.240480
O177	O	-0.912079	1.075057	-0.229555
O178	O	-0.412079	1.575057	0.270445
C179	C	-0.973855	1.105269	-0.199401
C180	C	-0.473855	1.605269	0.300599
H181	H	-1.040992	1.098896	-0.235846
H182	H	-0.540992	1.598896	0.264154
H183	H	-0.946582	1.162137	-0.188695
H184	H	-0.446582	1.662137	0.311305
H185	H	-0.983943	1.079208	-0.149280
H186	H	-0.483943	1.579208	0.350720
H187	H	-1.175786	0.868828	-0.435568
H188	H	-0.675786	1.368828	0.064432
H189	H	-0.329845	1.013933	-0.755621
H190	H	0.170155	1.513933	-0.255621
H191	H	-0.778077	0.798461	-0.505610
H192	H	-0.278077	1.298461	-0.005610
H193	H	-0.329779	1.013973	-0.983139
H194	H	0.170221	1.513973	-0.483139
O195	O	-0.320693	1.021911	-1.115861
O196	O	0.179307	1.521911	-0.615861
C197	C	-0.333050	1.011043	-1.187429
C198	C	0.166950	1.511043	-0.687429
H199	H	-0.362585	0.954962	-1.200898
H200	H	0.137415	1.454962	-0.700898
H201	H	-0.265463	1.024442	-1.205534
H202	H	0.234537	1.524442	-0.705534
H203	H	-0.381091	1.044935	-1.213728
H204	H	0.118909	1.544935	-0.713728
O205	O	-0.548157	0.821607	-1.145088
O206	O	-0.048157	1.321607	-0.645088
C207	C	-0.599103	0.776763	-1.105330
C208	C	-0.099103	1.276763	-0.605330
H209	H	-0.562167	0.779222	-1.050154
H210	H	-0.062167	1.279222	-0.550154
H211	H	-0.608706	0.722188	-1.126988
H212	H	-0.108706	1.222188	-0.626988
H213	H	-0.667630	0.792617	-1.106699
H214	H	-0.167630	1.292617	-0.606699
O215	O	-0.548220	0.821732	-1.005782
O216	O	-0.048220	1.321732	-0.505782
C217	C	-0.606532	0.852657	-0.972470
C218	C	-0.106532	1.352657	-0.472470
H219	H	-0.574727	0.908090	-0.957759
H220	H	-0.074727	1.408090	-0.457759
H221	H	-0.618641	0.823491	-0.924332
H222	H	-0.118641	1.323491	-0.424332
H223	H	-0.673377	0.851395	-1.008382
H224	H	-0.173377	1.351395	-0.508382
H225	H	-0.539168	0.829595	-0.782713
H226	H	-0.039168	1.329595	-0.282713
H227	H	-0.539443	0.522189	-0.474588
H228	H	-0.039443	1.022189	0.025412
O229	O	-0.320709	0.684255	-0.282531
O230	O	0.179291	1.184255	0.217469
C231	C	-0.269711	0.644520	-0.237786
C232	C	0.230289	1.144520	0.262214
H233	H	-0.306661	0.589321	-0.240196
H234	H	0.193339	1.089321	0.259804
H235	H	-0.260004	0.666180	-0.183208
H236	H	0.239996	1.166180	0.316792
H237	H	-0.201231	0.645928	-0.253771
H238	H	0.298769	1.145928	0.246229
H239	H	-0.539205	0.829565	-0.654472
H240	H	-0.039205	1.329565	-0.154472
H241	H	-0.539470	0.294659	-0.474626
H242	H	-0.039470	0.794659	0.025374
