data_functionalizedCrystal
_audit_creation_method	'MofGen! by Chris Wilmer'
_symmetry_space_group_name_H-M	'P1'
_symmetry_Int_Tables_number	1
_symmetry_cell_setting	triclinic
loop_
_symmetry_equiv_pos_as_xyz
  x,y,z
_cell_length_a	10.654550
_cell_length_b	17.699083
_cell_length_c	9.130313
_cell_angle_alpha	89.994594
_cell_angle_beta	89.999724
_cell_angle_gamma	83.883973
loop_
_atom_site_label
_atom_site_type_symbol
_atom_site_fract_x
_atom_site_fract_y
_atom_site_fract_z
O1	O	1.665979	0.106303	-0.121693
O2	O	1.300323	0.116430	-0.121721
O3	O	1.493481	0.001243	-0.121693
O4	O	1.472820	0.221490	-0.121721
O5	O	1.493468	0.001240	0.121906
O6	O	1.300310	0.116427	0.121878
O7	O	1.665966	0.106299	0.121906
Cu8	Cu	1.483136	0.111363	0.144134
Cu9	Cu	1.483152	0.111367	-0.143949
O10	O	1.472807	0.221487	0.121878
C11	C	1.253531	0.115685	0.000076
C12	C	1.114127	0.113460	0.000066
C13	C	1.492735	-0.026960	0.000106
C14	C	1.490514	-0.110993	0.000107
C15	C	1.033454	0.181281	0.000061
C16	C	0.902470	0.179186	0.000087
C17	C	0.932844	0.041444	0.000115
C18	C	1.063826	0.043539	0.000100
C19	C	1.603894	-0.158893	0.000117
C20	C	1.601799	-0.237849	0.000104
C21	C	1.486323	-0.268904	0.000091
C22	C	1.372935	-0.220998	0.000076
C23	C	1.375030	-0.142043	0.000079
C24	C	1.364481	-0.539415	0.000064
C25	C	1.362394	-0.618376	0.000065
C26	C	1.591249	-0.635221	0.000089
C27	C	1.593345	-0.556266	0.000092
C28	C	1.479957	-0.508367	0.000069
C29	C	1.482229	-0.422753	0.000080
C30	C	1.484050	-0.354516	0.000090
C31	C	1.712757	0.107045	0.000106
C32	C	1.852161	0.109269	0.000107
C33	C	1.473554	0.249690	0.000075
C34	C	1.475775	0.333722	0.000065
N35	N	1.483135	0.111360	0.346757
N36	N	1.483164	0.111364	-0.346572
C37	C	1.568694	0.060376	0.423421
C38	C	1.568706	0.060376	0.576758
C39	C	1.397596	0.162350	0.576753
C40	C	1.397579	0.162345	0.423419
H41	H	1.074405	0.238215	0.000044
H42	H	0.836791	0.234412	0.000087
H43	H	0.891873	-0.015484	0.000152
H44	H	1.638374	0.018860	0.639173
H45	H	1.272153	-0.500424	0.000046
H46	H	1.282705	-0.103043	0.000070
H47	H	1.638357	0.018859	0.361006
O48	O	1.314324	0.211801	0.651164
C49	C	1.190053	0.198808	0.613696
H50	H	1.189629	0.138207	0.571561
H51	H	1.153022	0.240550	0.524688
C52	C	1.105420	0.284522	0.801672
C53	C	1.104899	0.210088	0.749932
H54	H	1.052890	0.291483	0.885706
H55	H	1.189143	0.293278	0.826912
H56	H	1.074564	0.319298	0.727486
H57	H	1.135769	0.175314	0.824111
H58	H	1.021178	0.201327	0.724708
O59	O	1.314586	0.211981	0.349006
C60	C	1.334743	0.287020	0.386471
H61	H	1.435283	0.287958	0.428607
H62	H	1.265079	0.308863	0.475477
C63	C	1.191567	0.337065	0.198491
C64	C	1.315056	0.338218	0.250232
H65	H	1.179418	0.368648	0.114456
H66	H	1.177983	0.286510	0.173253
H67	H	1.133528	0.355266	0.272676
H68	H	1.373092	0.320008	0.176054
H69	H	1.328650	0.388771	0.275454
O70	O	1.712022	-0.284299	-0.000074
C71	C	1.782148	-0.270132	-0.126239
H72	H	1.751128	-0.210408	-0.168301
H73	H	1.765125	-0.313397	-0.214590
C74	C	1.961748	-0.350243	-0.036229
C75	C	1.923656	-0.276887	-0.087882
H76	H	2.049037	-0.354414	-0.012572
H77	H	1.914502	-0.359791	0.048770
H78	H	1.947551	-0.386289	-0.109863
H79	H	1.937838	-0.240844	-0.014242
H80	H	1.970907	-0.267334	-0.172868
O81	O	1.705628	-0.526226	0.000038
C82	C	1.805254	-0.585436	0.000079
H83	H	1.770218	-0.639246	-0.046041
H84	H	1.840213	-0.596428	0.116948
C85	C	1.957217	-0.496484	-0.038801
C86	C	1.914188	-0.562573	-0.095458
H87	H	2.024415	-0.482381	-0.097727
H88	H	1.890098	-0.456592	-0.038823
H89	H	1.986340	-0.505653	0.058588
H90	H	1.885051	-0.553401	-0.192838
H91	H	1.981305	-0.602463	-0.095455
H92	H	1.683575	-0.674231	0.000100
H93	H	1.129514	-0.011692	0.000108
H94	H	1.268354	-0.643657	0.000058
H95	H	1.278912	-0.246289	0.000056
H96	H	1.697927	-0.133614	0.000137
