data_functionalizedCrystal
_audit_creation_method	'MofGen! by Chris Wilmer'
_symmetry_space_group_name_H-M	'P1'
_symmetry_Int_Tables_number	1
_symmetry_cell_setting	triclinic
loop_
_symmetry_equiv_pos_as_xyz
  x,y,z
_cell_length_a	27.731994
_cell_length_b	19.288865
_cell_length_c	18.366186
_cell_angle_alpha	89.987206
_cell_angle_beta	89.993010
_cell_angle_gamma	97.121609
loop_
_atom_site_label
_atom_site_type_symbol
_atom_site_fract_x
_atom_site_fract_y
_atom_site_fract_z
O1	O	0.641189	-0.082473	0.060454
O2	O	0.974523	0.250861	0.393787
O3	O	1.307856	0.584194	0.727121
O4	O	0.500430	-0.095079	0.060479
O5	O	0.833764	0.238255	0.393813
O6	O	1.167097	0.571588	0.727146
O7	O	0.574877	0.012381	0.060452
O8	O	0.908210	0.345715	0.393785
O9	O	1.241544	0.679048	0.727118
O10	O	0.566743	-0.189932	0.060482
O11	O	0.900076	0.143401	0.393815
O12	O	1.233409	0.476734	0.727149
O13	O	0.574879	0.012392	-0.060648
O14	O	0.908212	0.345725	0.272685
O15	O	1.241546	0.679058	0.606019
O16	O	0.500432	-0.095068	-0.060620
O17	O	0.833765	0.238265	0.272713
O18	O	1.167099	0.571598	0.606047
O19	O	0.641191	-0.082462	-0.060645
O20	O	0.974525	0.250871	0.272688
O21	O	1.307858	0.584205	0.606021
Zn22	Zn	0.570812	-0.088764	-0.079860
Zn23	Zn	0.904145	0.244570	0.253473
Zn24	Zn	1.237479	0.577903	0.586807
Zn25	Zn	0.570810	-0.088777	0.079694
Zn26	Zn	0.904143	0.244556	0.413027
Zn27	Zn	1.237476	0.577889	0.746360
O28	O	0.566744	-0.189922	-0.060618
O29	O	0.900078	0.143411	0.272716
O30	O	1.233411	0.476745	0.606049
C31	C	0.482423	-0.094815	-0.000067
C32	C	0.815756	0.238519	0.333266
C33	C	1.149090	0.571852	0.666599
C34	C	0.428764	-0.094035	-0.000058
C35	C	0.762098	0.239298	0.333275
C36	C	1.095431	0.572631	0.666608
C37	C	0.096032	-0.089122	-0.066098
C38	C	0.429365	0.244212	0.267235
C39	C	0.762699	0.577545	0.600568
C40	C	-0.105635	-0.086159	-0.066107
C41	C	0.227698	0.247174	0.267226
C42	C	0.561032	0.580508	0.600560
O43	O	-0.131708	-0.085741	-0.122247
O44	O	0.201625	0.247592	0.211086
O45	O	0.534959	0.580925	0.544420
N46	N	-0.130852	-0.085797	-0.000096
N47	N	0.202481	0.247537	0.333237
N48	N	0.535815	0.580870	0.666571
C49	C	-0.105649	-0.086171	0.065922
C50	C	0.227685	0.247163	0.399256
C51	C	0.561018	0.580496	0.732589
O52	O	-0.131724	-0.085787	0.122068
O53	O	0.201609	0.247546	0.455402
O54	O	0.534943	0.580879	0.788735
C55	C	0.096018	-0.089128	0.065930
C56	C	0.429351	0.244205	0.399263
C57	C	0.762685	0.577539	0.732597
C58	C	0.121232	-0.089497	-0.000085
C59	C	0.454565	0.243836	0.333248
C60	C	0.787898	0.577169	0.666581
C61	C	0.121246	-0.089490	-0.132108
C62	C	0.454579	0.243843	0.201225
C63	C	0.787912	0.577177	0.534558
C64	C	0.171659	-0.090234	-0.132106
C65	C	0.504992	0.243099	0.201228
C66	C	0.838326	0.576432	0.534561
C67	C	0.196859	-0.090610	-0.066093
C68	C	0.530192	0.242723	0.267241
C69	C	0.863525	0.576056	0.600574
C70	C	0.171645	-0.090242	-0.000083
C71	C	0.504978	0.243092	0.333251
C72	C	0.838312	0.576425	0.666584
C73	C	0.121221	-0.089497	0.131947
C74	C	0.454554	0.243836	0.465281
C75	C	0.787888	0.577170	0.798614
C76	C	0.171641	-0.090234	0.131944
C77	C	0.504974	0.243099	0.465277
C78	C	0.838308	0.576432	0.798610
C79	C	0.196855	-0.090604	0.065928
C80	C	0.530188	0.242730	0.399261
C81	C	0.863521	0.576063	0.732595
C82	C	0.247258	-0.091362	0.065933
C83	C	0.580591	0.241971	0.399267
C84	C	0.913925	0.575305	0.732600
N85	N	0.272475	-0.091724	-0.000078
N86	N	0.605808	0.241609	0.333255
N87	N	0.939142	0.574942	0.666589
C88	C	0.247275	-0.091348	-0.066091
C89	C	0.580609	0.241985	0.267242
C90	C	0.913942	0.575318	0.600576
C91	C	-0.211527	-0.084619	0.065913
C92	C	0.121807	0.248714	0.399247
C93	C	0.455140	0.582047	0.732580
C94	C	-0.261943	-0.083881	0.065912
C95	C	0.071390	0.249452	0.399245
C96	C	0.404723	0.582785	0.732578
C97	C	-0.261926	-0.083868	-0.066118
C98	C	0.071407	0.249465	0.267215
C99	C	0.404741	0.582798	0.600549
C100	C	-0.211509	-0.084612	-0.066115
C101	C	0.121824	0.248722	0.267218
C102	C	0.455158	0.582055	0.600551
C103	C	-0.186310	-0.084982	-0.000098
C104	C	0.147024	0.248352	0.333236
C105	C	0.480357	0.581685	0.666569
C106	C	0.353147	-0.092912	-0.066080
C107	C	0.686480	0.240421	0.267253
C108	C	1.019814	0.573754	0.600587
C109	C	0.403565	-0.093660	-0.066071
C110	C	0.736898	0.239674	0.267262
C111	C	1.070231	0.573007	0.600595
C112	C	0.403543	-0.093669	0.065958
C113	C	0.736877	0.239665	0.399291
C114	C	1.070210	0.572998	0.732624
C115	C	0.353130	-0.092925	0.065950
C116	C	0.686463	0.240408	0.399283
C117	C	1.019797	0.573742	0.732616
C118	C	0.327933	-0.092544	-0.000075
C119	C	0.661267	0.240789	0.333258
C120	C	0.994600	0.574122	0.666591
O121	O	0.273363	-0.091772	0.122044
O122	O	0.606696	0.241561	0.455377
O123	O	0.940030	0.574894	0.788710
O124	O	0.273361	-0.091716	-0.122229
O125	O	0.606694	0.241617	0.211105
O126	O	0.940027	0.574950	0.544438
C127	C	0.045619	-0.088377	-0.066101
C128	C	0.378952	0.244956	0.267232
C129	C	0.712285	0.578290	0.600565
C130	C	0.020405	-0.088009	-0.000091
C131	C	0.353738	0.245325	0.333242
C132	C	0.687072	0.578658	0.666576
C133	C	0.045604	-0.088384	0.065922
C134	C	0.378938	0.244949	0.399255
C135	C	0.712271	0.578282	0.732589
C136	C	-0.030012	-0.087271	-0.000093
C137	C	0.303322	0.246063	0.333240
C138	C	0.636655	0.579396	0.666574
C139	C	-0.055211	-0.086895	-0.066106
C140	C	0.278122	0.246439	0.267228
C141	C	0.611455	0.579772	0.600561
C142	C	-0.029994	-0.087257	-0.132117
C143	C	0.303339	0.246076	0.201216
C144	C	0.636672	0.579410	0.534550
C145	C	0.020419	-0.088001	-0.132114
C146	C	0.353752	0.245332	0.201219
C147	C	0.687086	0.578665	0.534553
C148	C	0.020388	-0.088022	0.131933
C149	C	0.353721	0.245311	0.465266
C150	C	0.687054	0.578644	0.798600
C151	C	-0.030026	-0.087279	0.131925
C152	C	0.303307	0.246055	0.465258
C153	C	0.636641	0.579388	0.798591
C154	C	-0.055226	-0.086903	0.065912
C155	C	0.278108	0.246431	0.399245
C156	C	0.611441	0.579764	0.732579
C157	C	0.574616	0.038261	-0.000100
C158	C	0.907950	0.371595	0.333233
C159	C	1.241283	0.704928	0.666566
C160	C	0.573831	0.115360	-0.000107
C161	C	0.907164	0.448693	0.333227
C162	C	1.240497	0.782026	0.666560
C163	C	0.659198	-0.082726	-0.000097
C164	C	0.992532	0.250607	0.333236
C165	C	1.325865	0.583941	0.666570
C166	C	0.712857	-0.083505	-0.000101
C167	C	1.046190	0.249828	0.333232
C168	C	1.379524	0.583161	0.666565
N169	N	0.570817	-0.088754	-0.188751
N170	N	0.904150	0.244580	0.144582
N171	N	1.237484	0.577913	0.477916
C172	C	0.567005	-0.215802	-0.000064
C173	C	0.900339	0.117531	0.333269
C174	C	1.233672	0.450865	0.666603
C175	C	0.567791	-0.292900	-0.000053
C176	C	0.901124	0.040433	0.333280
C177	C	1.234458	0.373766	0.666614
C178	C	0.617513	0.160341	-0.000118
C179	C	0.950846	0.493674	0.333215
C180	C	1.284179	0.827007	0.666549
C181	C	0.616774	0.232783	-0.000106
C182	C	0.950108	0.566116	0.333227
C183	C	1.283441	0.899450	0.666560
C184	C	0.572352	0.260241	-0.000098
C185	C	0.905685	0.593574	0.333235
C186	C	1.239018	0.926908	0.666569
C187	C	0.528664	0.215250	-0.000082
C188	C	0.861997	0.548583	0.333251
C189	C	1.195331	0.881917	0.666584
C190	C	0.529403	0.142809	-0.000087
C191	C	0.862737	0.476143	0.333247
C192	C	1.196070	0.809476	0.666580
C193	C	0.537431	0.368304	-0.042510
C194	C	0.870764	0.701638	0.290823
C195	C	1.204098	1.034971	0.624157
C196	C	0.536693	0.440744	-0.042510
C197	C	0.870027	0.774077	0.290823
C198	C	1.203360	1.107411	0.624156
C199	C	0.570069	0.483672	-0.000081
C200	C	0.903403	0.817005	0.333252
C201	C	1.236736	1.150338	0.666586
C202	C	0.604191	0.454152	0.042339
C203	C	0.937524	0.787486	0.375672
C204	C	1.270858	1.120819	0.709005
C205	C	0.604931	0.381712	0.042334
C206	C	0.938264	0.715045	0.375668
C207	C	1.271597	1.048378	0.709001
C208	C	0.571545	0.338790	-0.000093
C209	C	0.904878	0.672123	0.333241
C210	C	1.238212	1.005456	0.666574
C211	C	0.612954	0.607203	-0.000079
C212	C	0.946287	0.940537	0.333254
C213	C	1.279621	1.273870	0.666588
C214	C	0.612214	0.679647	-0.000063
C215	C	0.945547	1.012980	0.333271
C216	C	1.278881	1.346313	0.666604
C217	C	0.524102	0.662112	-0.000046
C218	C	0.857436	0.995446	0.333287
C219	C	1.190769	1.328779	0.666621
C220	C	0.524844	0.589671	-0.000055
C221	C	0.858177	0.923004	0.333278
C222	C	1.191510	1.256337	0.666612
C223	C	0.569271	0.562221	-0.000075
C224	C	0.902604	0.895554	0.333259
C225	C	1.235937	1.228887	0.666592
N226	N	0.570808	-0.088781	0.188585
N227	N	0.904142	0.244552	0.521918
N228	N	1.237475	0.577885	0.855252
C229	C	0.603832	-0.041290	0.226673
C230	C	0.937165	0.292043	0.560006
C231	C	1.270499	0.625377	0.893340
C232	C	0.603836	-0.041288	0.302901
C233	C	0.937169	0.292045	0.636234
C234	C	1.270503	0.625378	0.969568
C235	C	0.570808	-0.088772	0.341038
C236	C	0.904142	0.244561	0.674371
C237	C	1.237475	0.577895	1.007704
C238	C	0.537782	-0.136272	0.302940
C239	C	0.871116	0.197061	0.636274
C240	C	1.204449	0.530394	0.969607
C241	C	0.537782	-0.136277	0.226714
C242	C	0.871116	0.197056	0.560047
C243	C	1.204449	0.530390	0.893381
C244	C	0.526765	-0.098204	0.461814
C245	C	0.860098	0.235129	0.795147
C246	C	1.193432	0.568463	1.128480
C247	C	0.526764	-0.098194	0.538039
C248	C	0.860098	0.235139	0.871372
C249	C	1.193431	0.568472	1.204705
C250	C	0.570809	-0.088761	0.576145
C251	C	0.904142	0.244572	0.909479
C252	C	1.237475	0.577905	1.242812
C253	C	0.614856	-0.079323	0.538018
C254	C	0.948189	0.254010	0.871351
C255	C	1.281522	0.587343	1.204684
C256	C	0.614856	-0.079328	0.461791
C257	C	0.948189	0.254005	0.795125
C258	C	1.281522	0.587339	1.128458
C259	C	0.570805	-0.088772	0.423692
C260	C	0.904138	0.244561	0.757026
C261	C	1.237472	0.577894	1.090359
C262	C	0.603840	-0.041266	0.696888
C263	C	0.937173	0.292068	1.030222
C264	C	1.270506	0.625401	1.363555
C265	C	0.603845	-0.041269	0.773117
C266	C	0.937178	0.292064	1.106451
C267	C	1.270511	0.625398	1.439784
C268	C	0.537786	-0.136250	0.773156
C269	C	0.871120	0.197084	1.106489
C270	C	1.204453	0.530417	1.439822
C271	C	0.537786	-0.136250	0.696928
C272	C	0.871119	0.197084	1.030261
C273	C	1.204452	0.530417	1.363594
C274	C	0.570812	-0.088754	0.658799
C275	C	0.904145	0.244579	0.992132
C276	C	1.237479	0.577913	1.325465
H277	H	0.424070	-0.093978	0.119704
H278	H	0.757403	0.239356	0.453037
H279	H	1.090737	0.572689	0.786371
N280	N	0.639466	0.009948	0.655759
N281	N	0.972800	0.343282	0.989092
N282	N	1.306133	0.676615	1.322426
H283	H	0.634454	0.002742	0.601690
H284	H	0.967787	0.336076	0.935023
H285	H	1.301120	0.669409	1.268356
H286	H	0.634061	0.059196	0.669071
H287	H	0.967394	0.392530	1.002404
H288	H	1.300728	0.725863	1.335737
N289	N	-0.289134	-0.083484	0.137115
N290	N	0.044200	0.249849	0.470448
N291	N	0.377533	0.583183	0.803782
H292	H	-0.324897	-0.082958	0.127104
H293	H	0.008436	0.250375	0.460438
H294	H	0.341770	0.583708	0.793771
H295	H	-0.284337	-0.126690	0.165951
H296	H	0.048996	0.206644	0.499284
H297	H	0.382329	0.539977	0.832617
N298	N	0.482289	0.094285	-0.000088
N299	N	0.815623	0.427618	0.333245
N300	N	1.148956	0.760951	0.666578
H301	H	0.480631	0.063822	0.044799
H302	H	0.813964	0.397155	0.378132
H303	H	1.147298	0.730489	0.711465
H304	H	0.454060	0.122714	-0.000109
H305	H	0.787393	0.456047	0.333225
H306	H	1.120726	0.789380	0.666558
N307	N	0.639464	0.009925	0.185558
N308	N	0.972797	0.343258	0.518891
N309	N	1.306130	0.676592	0.852224
H310	H	0.621115	0.040556	0.153921
H311	H	0.954448	0.373889	0.487254
H312	H	1.287782	0.707223	0.820588
H313	H	0.660375	0.039955	0.221313
H314	H	0.993708	0.373288	0.554646
H315	H	1.327041	0.706622	0.887979
N316	N	0.047557	-0.088433	0.203141
N317	N	0.380890	0.244900	0.536475
N318	N	0.714224	0.578233	0.869808
H319	H	0.064456	-0.131818	0.206095
H320	H	0.397789	0.201515	0.539428
H321	H	0.731123	0.534849	0.872761
H322	H	0.072466	-0.045640	0.206048
H323	H	0.405800	0.287693	0.539381
H324	H	0.739133	0.621026	0.872714
H325	H	-0.282452	-0.083564	-0.119868
H326	H	0.050881	0.249769	0.213465
H327	H	0.384214	0.583103	0.546798
H328	H	0.632713	0.357680	0.076875
H329	H	0.966046	0.691013	0.410209
H330	H	1.299379	1.024347	0.743542
H331	H	-0.191014	-0.084920	0.119676
H332	H	0.142319	0.248413	0.453009
H333	H	0.475653	0.581746	0.786342
H334	H	0.631369	0.489103	0.076889
H335	H	0.964702	0.822436	0.410222
H336	H	1.298036	1.155770	0.743555
N337	N	0.502160	-0.187463	0.655841
N338	N	0.835494	0.145871	0.989174
N339	N	1.168827	0.479204	1.322508
H340	H	0.481235	-0.217541	0.691565
H341	H	0.814569	0.115792	1.024898
H342	H	1.147902	0.449125	1.358232
H343	H	0.480893	-0.161016	0.624215
H344	H	0.814226	0.172317	0.957548
H345	H	1.147559	0.505650	1.290882
N346	N	0.094034	-0.089089	0.203150
N347	N	0.427368	0.244244	0.536483
N348	N	0.760701	0.577577	0.869817
H349	H	0.098793	-0.132289	0.232025
H350	H	0.432126	0.201044	0.565358
H351	H	0.765459	0.534377	0.898691
H352	H	0.106842	-0.046112	0.231932
H353	H	0.440175	0.287221	0.565265
H354	H	0.773508	0.620554	0.898599
H355	H	0.630729	-0.002614	0.333918
H356	H	0.964062	0.330719	0.667251
H357	H	1.297396	0.664053	1.000585
H358	H	-0.190984	-0.084913	-0.119871
H359	H	0.142350	0.248420	0.213462
H360	H	0.475683	0.581754	0.546796
H361	H	0.650721	-0.071647	0.569042
H362	H	0.984054	0.261686	0.902376
H363	H	1.317388	0.595019	1.235709
H364	H	0.653689	0.137996	-0.000132
H365	H	0.987022	0.471329	0.333202
H366	H	1.320355	0.804663	0.666535
H367	H	0.100734	-0.089182	-0.185867
H368	H	0.434067	0.244151	0.147466
H369	H	0.767400	0.577484	0.480800
H370	H	-0.050521	-0.086954	-0.185867
H371	H	0.282812	0.246379	0.147466
H372	H	0.616146	0.579712	0.480800
N373	N	0.662360	-0.069164	0.420669
N374	N	0.995693	0.264169	0.754002
N375	N	1.329026	0.597503	1.087336
H376	H	0.655674	-0.070600	0.366599
H377	H	0.989007	0.262733	0.699932
H378	H	1.322341	0.596066	1.033266
H379	H	0.680842	-0.022447	0.433971
H380	H	1.014176	0.310886	0.767304
H381	H	1.347509	0.644219	1.100638
H382	H	0.424091	-0.093963	-0.119831
H383	H	0.757424	0.239371	0.213502
H384	H	1.090758	0.572704	0.546835
H385	H	0.192156	-0.090536	0.185704
H386	H	0.525489	0.242797	0.519038
H387	H	0.858822	0.576130	0.852371
H388	H	0.492495	0.237611	-0.000074
H389	H	0.825828	0.570944	0.333260
H390	H	1.159161	0.904278	0.666593
N391	N	0.663890	0.281310	-0.000117
N392	N	0.997223	0.614644	0.333216
N393	N	1.330557	0.947977	0.666550
H394	H	0.692146	0.252929	-0.000129
H395	H	1.025479	0.586262	0.333204
H396	H	1.358813	0.919595	0.666538
H397	H	0.665498	0.311758	-0.045010
H398	H	0.998831	0.645092	0.288323
H399	H	1.332165	0.978425	0.621657
H400	H	0.510891	-0.174935	0.333995
H401	H	0.844225	0.158398	0.667329
H402	H	1.177558	0.491731	1.000662
N403	N	0.639468	0.009952	0.814202
N404	N	0.972801	0.343285	1.147536
N405	N	1.306134	0.676619	1.480869
H406	H	0.660387	0.040038	0.778478
H407	H	0.993721	0.373371	1.111811
H408	H	1.327054	0.706705	1.445145
H409	H	0.621074	0.040527	0.845826
H410	H	0.954408	0.373861	1.179160
H411	H	1.287741	0.707194	1.512493
N412	N	0.660869	0.577590	-0.000097
N413	N	0.994202	0.910923	0.333236
N414	N	1.327535	1.244256	0.666569
H415	H	0.688430	0.617081	-0.000097
H416	H	1.021763	0.950414	0.333237
H417	H	1.355097	1.283747	0.666570
H418	H	0.663094	0.547900	0.044791
H419	H	0.996427	0.881233	0.378125
H420	H	1.329760	1.214567	0.711458
H421	H	0.510890	-0.174951	0.195702
H422	H	0.844223	0.158382	0.529035
H423	H	1.177557	0.491715	0.862369
H424	H	0.332637	-0.092609	-0.119844
H425	H	0.665971	0.240725	0.213490
H426	H	0.999304	0.574058	0.546823
H427	H	0.332599	-0.092636	0.119705
H428	H	0.665932	0.240698	0.453038
H429	H	0.999266	0.574031	0.786371
H430	H	0.510897	-0.174914	0.804206
H431	H	0.844230	0.158419	1.137539
H432	H	1.177563	0.491752	1.470873
N433	N	0.047610	-0.088402	-0.203317
N434	N	0.380943	0.244931	0.130017
N435	N	0.714277	0.578264	0.463350
H436	H	0.023990	-0.088051	-0.245130
H437	H	0.357323	0.245282	0.088203
H438	H	0.690656	0.578615	0.421537
H439	H	0.072544	-0.045635	-0.206206
H440	H	0.405878	0.287699	0.127128
H441	H	0.739211	0.621032	0.460461
N442	N	0.198850	-0.090633	-0.203308
N443	N	0.532184	0.242701	0.130025
N444	N	0.865517	0.576034	0.463358
H445	H	0.175230	-0.090281	-0.245122
H446	H	0.508563	0.243053	0.088212
H447	H	0.841897	0.576386	0.421545
H448	H	0.223784	-0.047864	-0.206195
H449	H	0.557117	0.285469	0.127138
H450	H	0.890451	0.618803	0.460472
H451	H	0.490896	-0.105889	0.430793
H452	H	0.824229	0.227444	0.764127
H453	H	1.157563	0.560778	1.097460
N454	N	-0.057220	-0.086879	0.203130
N455	N	0.276114	0.246454	0.536464
N456	N	0.609447	0.579788	0.869797
H457	H	-0.052465	-0.130082	0.232003
H458	H	0.280868	0.203252	0.565337
H459	H	0.614201	0.536585	0.898670
H460	H	-0.044414	-0.043905	0.231918
H461	H	0.288919	0.289428	0.565251
H462	H	0.622253	0.622762	0.898584
N463	N	0.659330	0.728166	-0.000072
N464	N	0.992664	1.061500	0.333261
N465	N	1.325997	1.394833	0.666595
H466	H	0.687585	0.699781	-0.000088
H467	H	1.020918	1.033115	0.333246
H468	H	1.354251	1.366448	0.666579
H469	H	0.660939	0.758617	-0.044963
H470	H	0.994272	1.091950	0.288370
H471	H	1.327606	1.425284	0.621704
H472	H	0.487932	0.684468	-0.000036
H473	H	0.821266	1.017801	0.333298
H474	H	1.154599	1.351134	0.666631
H475	H	0.490899	-0.105871	0.569076
H476	H	0.824232	0.227462	0.902410
H477	H	1.157565	0.560795	1.235743
N478	N	0.477731	0.541146	-0.000051
N479	N	0.811064	0.874480	0.333282
N480	N	1.144397	1.207813	0.666615
H481	H	0.458340	0.549908	0.044844
H482	H	0.791674	0.883241	0.378177
H483	H	1.125007	1.216574	0.711511
H484	H	0.458381	0.549955	-0.044969
H485	H	0.791715	0.883288	0.288364
H486	H	1.125048	1.216621	0.621698
N487	N	0.499898	0.472582	-0.088269
N488	N	0.833232	0.805915	0.245064
N489	N	1.166565	1.139248	0.578397
H490	H	0.478864	0.434396	-0.115143
H491	H	0.812197	0.767729	0.218190
H492	H	1.145531	1.101063	0.551523
H493	H	0.478865	0.498509	-0.055724
H494	H	0.812199	0.831843	0.277610
H495	H	1.145532	1.165176	0.610943
H496	H	0.510251	0.333358	-0.077065
H497	H	0.843584	0.666691	0.256269
H498	H	1.176918	1.000024	0.589602
