data_functionalizedCrystal
_audit_creation_method	'MofGen! by Chris Wilmer'
_symmetry_space_group_name_H-M	'P1'
_symmetry_Int_Tables_number	1
_symmetry_cell_setting	triclinic
loop_
_symmetry_equiv_pos_as_xyz
  x,y,z
_cell_length_a	10.908878
_cell_length_b	19.188928
_cell_length_c	9.483335
_cell_angle_alpha	99.292938
_cell_angle_beta	96.980860
_cell_angle_gamma	108.385698
loop_
_atom_site_label
_atom_site_type_symbol
_atom_site_fract_x
_atom_site_fract_y
_atom_site_fract_z
O1	O	1.684342	0.094670	-0.120834
O2	O	1.310167	0.040109	-0.120858
O3	O	1.508060	0.170285	-0.120809
O4	O	1.486449	-0.035507	-0.120884
O5	O	1.548302	0.196777	0.120977
O6	O	1.350409	0.066600	0.120927
O7	O	1.724584	0.121161	0.120951
Cu8	Cu	1.541171	0.096300	0.143016
Cu9	Cu	1.493580	0.064970	-0.142923
O10	O	1.526691	-0.009015	0.120902
C11	C	1.282417	0.048256	0.000032
C12	C	1.139778	0.033071	0.000024
C13	C	1.091084	0.088477	0.000044
C14	C	0.943659	0.072784	0.000036
C15	C	1.527483	0.209463	0.000090
C16	C	1.525388	0.286729	0.000109
C17	C	1.641503	0.344944	0.000127
C18	C	1.639529	0.417541	0.000109
C19	C	1.521438	0.431921	0.000103
C20	C	1.405307	0.373694	0.000077
C21	C	1.407282	0.301098	0.000080
N22	N	1.444870	0.538611	0.082391
N23	N	1.443002	0.607576	0.082391
C24	C	1.515481	0.650647	0.000092
N25	N	1.589920	0.622153	-0.082190
N26	N	1.591792	0.553183	-0.082184
C27	C	1.519284	0.510637	0.000099
C28	C	1.629463	0.787581	0.000089
C29	C	1.627482	0.860177	0.000062
C30	C	1.393259	0.816329	0.000045
C31	C	1.395240	0.743734	0.000057
C32	C	1.513347	0.729365	0.000085
C33	C	1.752333	0.113014	0.000058
C34	C	1.894971	0.128198	0.000056
C35	C	1.507275	0.951810	0.000020
C36	C	1.509390	0.874552	0.000054
N37	N	1.574653	0.118337	0.344130
N38	N	1.460108	0.042940	-0.344038
C39	C	1.531321	0.089808	0.583751
C40	C	1.503430	0.071462	0.416338
H41	H	1.072322	-0.025984	-0.000004
C42	C	0.986077	0.207985	0.000088
C43	C	1.103446	0.249484	0.125653
C44	C	1.194550	0.329270	0.125687
C45	C	1.168285	0.367556	0.000154
C46	C	1.050911	0.326057	-0.125420
C47	C	0.959807	0.246271	-0.125454
H48	H	1.122893	0.221142	0.218588
H49	H	1.281438	0.359990	0.218646
H50	H	1.235726	0.426618	0.000179
H51	H	1.031463	0.354399	-0.218355
H52	H	0.872918	0.215551	-0.218413
C53	C	1.759372	0.771767	0.000109
C54	C	1.887100	0.835806	0.000109
C55	C	2.017010	0.819995	0.000131
C56	C	2.019192	0.740145	0.000153
C57	C	1.891460	0.676101	0.000152
C58	C	1.761550	0.691912	0.000130
H59	H	1.885489	0.894920	0.000093
H60	H	2.111566	0.867405	0.000132
H61	H	2.115359	0.728441	0.000170
H62	H	1.893071	0.616987	0.000169
H63	H	1.666994	0.644502	0.000130
C64	C	1.767263	0.481592	0.000142
C65	C	1.885030	0.503466	0.125720
C66	C	2.012763	0.567516	0.125756
C67	C	2.022729	0.609693	0.000215
C68	C	1.904958	0.587820	-0.125373
C69	C	1.777226	0.523770	-0.125409
H70	H	1.877656	0.472244	0.218662
H71	H	2.099945	0.583708	0.218725
H72	H	2.117285	0.657106	0.000242
H73	H	1.912332	0.619042	-0.218315
H74	H	1.690044	0.507578	-0.218378
C75	C	1.393163	-0.001100	0.332444
C76	C	1.398324	-0.078129	0.353306
C77	C	1.288060	-0.150689	0.269410
C78	C	1.172634	-0.146219	0.164652
C79	C	1.167469	-0.069186	0.143785
C80	C	1.277733	0.003373	0.227681
H81	H	1.483773	-0.081441	0.430859
H82	H	1.291884	-0.207714	0.284858
H83	H	1.091010	-0.199932	0.102547
H84	H	1.082020	-0.065875	0.066232
H85	H	1.273909	0.060398	0.212233
H86	H	1.612942	0.143514	0.645865
C87	C	1.267511	0.679695	0.000057
C88	C	1.215759	0.609989	-0.125495
C89	C	1.088022	0.545949	-0.125499
C90	C	1.012038	0.551615	0.000049
C91	C	1.063790	0.621324	0.125610
C92	C	1.191527	0.685364	0.125615
H93	H	1.272007	0.605793	-0.218442
H94	H	1.049712	0.494347	-0.218449
H95	H	0.917479	0.504209	0.000045
H96	H	1.007541	0.625520	0.218557
H97	H	1.229836	0.736966	0.218564
C98	C	1.684920	0.190898	0.428025
C99	C	1.652312	0.249906	0.532730
C100	C	1.762576	0.322465	0.616626
C101	C	1.905449	0.336018	0.595817
C102	C	1.938063	0.277009	0.491107
C103	C	1.827799	0.204449	0.407211
H104	H	1.546543	0.239875	0.548138
H105	H	1.738432	0.366148	0.694138
H106	H	1.987073	0.389731	0.657921
H107	H	2.043832	0.287040	0.475699
H108	H	1.851943	0.160767	0.329698
C109	C	1.349846	-0.029618	0.572062
C110	C	1.234421	-0.025148	0.467304
C111	C	1.124157	-0.097708	0.383408
C112	C	1.129318	-0.174737	0.404271
C113	C	1.244748	-0.179211	0.509034
C114	C	1.355012	-0.106651	0.592929
H115	H	1.230596	0.031877	0.451856
H116	H	1.038708	-0.094396	0.305855
H117	H	1.047693	-0.228451	0.342166
H118	H	1.248572	-0.236235	0.524481
H119	H	1.440461	-0.109962	0.670482
H120	H	0.876208	0.013726	0.000008
H121	H	1.722040	0.907576	0.000069
H122	H	1.158538	0.147530	0.000059
H123	H	1.737674	0.333251	0.000145
H124	H	1.309156	0.385406	0.000069
H125	H	1.312724	0.253696	0.000066
H126	H	1.297106	0.828036	0.000033
