data_functionalizedCrystal
_audit_creation_method	'MofGen! by Chris Wilmer'
_symmetry_space_group_name_H-M	'P1'
_symmetry_Int_Tables_number	1
_symmetry_cell_setting	triclinic
loop_
_symmetry_equiv_pos_as_xyz
  x,y,z
_cell_length_a	15.297475
_cell_length_b	18.050589
_cell_length_c	15.296720
_cell_angle_alpha	80.357141
_cell_angle_beta	88.382886
_cell_angle_gamma	80.322809
loop_
_atom_site_label
_atom_site_type_symbol
_atom_site_fract_x
_atom_site_fract_y
_atom_site_fract_z
Zn1	Zn	1.253427	-0.577986	0.726569
Zn2	Zn	1.278695	-0.684923	0.580080
Zn3	Zn	1.132303	-0.536265	0.554812
Zn4	Zn	1.106921	-0.677623	0.701208
O5	O	1.192836	-0.619199	0.640667
O6	O	1.379358	-0.612686	0.728325
O7	O	1.280473	-0.650798	0.454154
O8	O	1.148419	-0.437887	0.577635
O9	O	1.397922	-0.691253	0.620700
O10	O	1.237408	-0.468539	0.703825
O11	O	1.172919	-0.541580	0.435590
O12	O	1.006357	-0.534501	0.553044
O13	O	1.105158	-0.678811	0.827147
O14	O	0.987709	-0.638356	0.660601
O15	O	1.212796	-0.605608	0.845779
O16	O	1.255860	-0.787867	0.596108
O17	O	1.129659	-0.782503	0.685101
C18	C	0.965249	-0.581110	0.601329
C19	C	0.867883	-0.564836	0.584520
C20	C	0.554745	-0.735520	0.760802
C21	C	0.646226	-0.750816	0.776592
C22	C	0.701644	-0.704322	0.728576
C23	C	0.665574	-0.642530	0.664766
C24	C	0.574085	-0.627236	0.648970
C25	C	0.720984	-0.596038	0.616744
C26	C	0.684913	-0.534246	0.552934
C27	C	0.593433	-0.518955	0.537141
C28	C	0.538014	-0.565449	0.585157
C29	C	0.812473	-0.611332	0.632540
C30	C	0.831813	-0.503048	0.520708
C31	C	0.740332	-0.487752	0.504918
C32	C	1.192767	-0.812134	0.640618
C33	C	1.192813	-0.894690	0.640640
C34	C	1.261577	-1.146442	0.592369
C35	C	1.185379	-1.081209	0.557050
C36	C	1.192911	-1.191837	0.640726
C37	C	1.269063	-1.109969	0.675960
C38	C	1.192868	-1.045839	0.640683
C39	C	1.116679	-1.127679	0.605359
C40	C	1.200410	-1.156457	0.724316
C41	C	1.124152	-1.091241	0.689018
C42	C	1.192938	-1.275942	0.640750
C43	C	1.192832	-0.961734	0.640658
C44	C	1.421312	-0.657438	0.680160
C45	C	1.518674	-0.673733	0.696989
C46	C	1.153327	-0.646049	0.869133
C47	C	1.136490	-0.657491	0.966492
C48	C	1.192926	-0.425517	0.640740
C49	C	1.192964	-0.342981	0.640771
C50	C	1.232243	-0.592409	0.413099
C51	C	1.249249	-0.580786	0.315770
C52	C	1.313203	-0.537299	1.279735
C53	C	1.329027	-0.526551	1.188263
C54	C	1.280894	-0.559284	1.132816
C55	C	1.216934	-0.602769	1.168850
C56	C	1.201113	-0.613522	1.260332
C57	C	1.168805	-0.635508	1.113412
C58	C	1.104845	-0.678992	1.149446
C59	C	1.089026	-0.689744	1.240920
C60	C	1.137159	-0.657010	1.296367
C61	C	1.184626	-0.624754	1.021930
C62	C	1.072536	-0.700978	1.002527
C63	C	1.056712	-0.711726	1.093999
H64	H	0.463522	-0.552997	0.572307
H65	H	0.564069	-0.468646	0.485174
H66	H	1.236702	-0.589349	0.992601
H67	H	1.293782	-0.550531	1.058335
Br68	Br	0.479536	-0.798628	0.825936
Br69	Br	1.002242	-0.748777	1.289825
Br70	Br	1.378529	-0.492891	1.354988
H71	H	1.179011	-1.048580	0.486340
H72	H	1.124279	-0.665759	1.370852
H73	H	1.004635	-0.747131	1.123351
H74	H	1.033344	-0.727635	0.957382
H75	H	0.675588	-0.801129	0.828544
Br76	Br	1.358302	-1.186654	0.524166
Br77	Br	0.691367	-0.403892	0.418325
H78	H	1.052254	-1.135882	0.575462
H79	H	0.841833	-0.661643	0.684495
H80	H	1.066008	-1.067230	0.729884
H81	H	1.333481	-1.101661	0.705777
H82	H	0.876935	-0.465190	0.481608
H83	H	1.206805	-1.189103	0.795011
H84	H	0.776132	-0.716780	0.741436
Br85	Br	1.415828	-0.467541	1.139365
