data_functionalizedCrystal
_audit_creation_method	'MofGen! by Chris Wilmer'
_symmetry_space_group_name_H-M	'P1'
_symmetry_Int_Tables_number	1
_symmetry_cell_setting	triclinic
loop_
_symmetry_equiv_pos_as_xyz
  x,y,z
_cell_length_a	14.519731
_cell_length_b	14.519709
_cell_length_c	9.730223
_cell_angle_alpha	89.994652
_cell_angle_beta	89.996618
_cell_angle_gamma	83.684499
loop_
_atom_site_label
_atom_site_type_symbol
_atom_site_fract_x
_atom_site_fract_y
_atom_site_fract_z
O1	O	1.223854	0.120984	-0.114296
O2	O	1.473854	0.370984	0.135704
O3	O	1.723854	0.620984	0.385704
O4	O	1.973854	0.870984	0.635704
O5	O	0.955380	0.135201	-0.114298
O6	O	1.205380	0.385201	0.135702
O7	O	1.455380	0.635201	0.385702
O8	O	1.705380	0.885201	0.635702
O9	O	1.096735	-0.006145	-0.114285
O10	O	1.346735	0.243855	0.135715
O11	O	1.596735	0.493855	0.385715
O12	O	1.846735	0.743855	0.635715
O13	O	1.082498	0.262330	-0.114310
O14	O	1.332498	0.512330	0.135690
O15	O	1.582498	0.762330	0.385690
O16	O	1.832498	1.012330	0.635690
O17	O	1.096726	-0.006149	0.114295
O18	O	1.346726	0.243851	0.364295
O19	O	1.596726	0.493851	0.614295
O20	O	1.846726	0.743851	0.864295
O21	O	0.955370	0.135197	0.114282
O22	O	1.205370	0.385197	0.364282
O23	O	1.455370	0.635197	0.614282
O24	O	1.705370	0.885197	0.864282
O25	O	1.223845	0.120981	0.114284
O26	O	1.473845	0.370981	0.364284
O27	O	1.723845	0.620981	0.614284
O28	O	1.973845	0.870981	0.864284
Zn29	Zn	1.089606	0.128088	0.150575
Zn30	Zn	1.339606	0.378088	0.400575
Zn31	Zn	1.589606	0.628088	0.650575
Zn32	Zn	1.839606	0.878088	0.900575
Zn33	Zn	1.089618	0.128093	-0.150589
Zn34	Zn	1.339618	0.378093	0.099411
Zn35	Zn	1.589618	0.628093	0.349411
Zn36	Zn	1.839618	0.878093	0.599411
O37	O	1.082489	0.262327	0.114270
O38	O	1.332489	0.512327	0.364270
O39	O	1.582489	0.762327	0.614270
O40	O	1.832489	1.012327	0.864270
C41	C	0.921016	0.134532	-0.000009
C42	C	1.171016	0.384532	0.249991
C43	C	1.421016	0.634532	0.499991
C44	C	1.671016	0.884532	0.749991
C45	C	0.818635	0.132536	-0.000009
C46	C	1.068635	0.382536	0.249991
C47	C	1.318635	0.632536	0.499991
C48	C	1.568635	0.882536	0.749991
C49	C	0.735491	0.130915	-0.000015
C50	C	0.985491	0.380915	0.249985
C51	C	1.235491	0.630915	0.499985
C52	C	1.485491	0.880915	0.749985
C53	C	0.631182	0.128888	-0.000015
C54	C	0.881182	0.378888	0.249985
C55	C	1.131182	0.628888	0.499985
C56	C	1.381182	0.878888	0.749985
C57	C	0.548043	0.127280	-0.000015
C58	C	0.798043	0.377280	0.249985
C59	C	1.048043	0.627280	0.499985
C60	C	1.298043	0.877280	0.749985
C61	C	0.443728	0.125253	-0.000017
C62	C	0.693728	0.375253	0.249983
C63	C	0.943728	0.625253	0.499983
C64	C	1.193728	0.875253	0.749983
C65	C	1.096067	-0.040507	0.000006
C66	C	1.346067	0.209493	0.250006
C67	C	1.596067	0.459493	0.500006
C68	C	1.846067	0.709493	0.750006
C69	C	1.094079	-0.142889	0.000006
C70	C	1.344079	0.107111	0.250006
C71	C	1.594079	0.357111	0.500006
C72	C	1.844079	0.607111	0.750006
C73	C	1.086759	-0.517785	-0.000029
C74	C	1.336759	-0.267785	0.249971
C75	C	1.586759	-0.017785	0.499971
C76	C	1.836759	0.232215	0.749971
C77	C	1.088792	-0.413477	-0.000019
C78	C	1.338792	-0.163477	0.249981
C79	C	1.588792	0.086523	0.499981
C80	C	1.838792	0.336523	0.749981
C81	C	1.090419	-0.330340	-0.000010
C82	C	1.340419	-0.080340	0.249990
C83	C	1.590419	0.169660	0.499990
C84	C	1.840419	0.419660	0.749990
C85	C	1.092452	-0.226025	-0.000002
C86	C	1.342452	0.023975	0.249998
C87	C	1.592452	0.273975	0.499998
C88	C	1.842452	0.523975	0.749998
C89	C	1.258209	0.121649	-0.000009
C90	C	1.508209	0.371649	0.249991
C91	C	1.758209	0.621649	0.499991
C92	C	2.008209	0.871649	0.749991
C93	C	1.360589	0.123645	-0.000017
C94	C	1.610589	0.373645	0.249983
C95	C	1.860589	0.623645	0.499983
C96	C	2.110589	0.873645	0.749983
C97	C	1.083157	0.296688	-0.000023
C98	C	1.333157	0.546688	0.249977
C99	C	1.583157	0.796688	0.499977
C100	C	1.833157	1.046688	0.749977
C101	C	1.085146	0.399070	-0.000033
C102	C	1.335146	0.649070	0.249967
C103	C	1.585146	0.899070	0.499967
C104	C	1.835146	1.149070	0.749967
N105	N	1.089605	0.128084	0.356111
N106	N	1.339605	0.378084	0.606111
N107	N	1.589605	0.628084	0.856111
N108	N	1.839605	0.878084	1.106111
N109	N	1.089627	0.128090	-0.356125
N110	N	1.339627	0.378090	-0.106125
N111	N	1.589627	0.628090	0.143875
N112	N	1.839627	0.878090	0.393875
C113	C	1.152218	0.065522	0.428043
C114	C	1.402218	0.315522	0.678043
C115	C	1.652218	0.565522	0.928043
C116	C	1.902218	0.815522	1.178043
C117	C	1.152227	0.065523	0.571926
C118	C	1.402227	0.315523	0.821926
C119	C	1.652227	0.565523	1.071926
C120	C	1.902227	0.815523	1.321926
C121	C	1.027007	0.190654	0.571932
C122	C	1.277007	0.440654	0.821932
C123	C	1.527007	0.690654	1.071932
C124	C	1.777007	0.940654	1.321932
C125	C	1.026994	0.190649	0.428052
C126	C	1.276994	0.440649	0.678052
C127	C	1.526994	0.690649	0.928052
C128	C	1.776994	0.940649	1.178052
H129	H	1.203198	0.014577	0.369472
H130	H	1.453198	0.264577	0.619472
H131	H	1.703198	0.514577	0.869472
H132	H	1.953198	0.764577	1.119472
F133	F	1.218867	-0.001065	0.648477
F134	F	1.468867	0.248935	0.898477
F135	F	1.718867	0.498935	1.148477
F136	F	1.968867	0.748935	1.398477
H137	H	0.976032	0.241595	0.630521
H138	H	1.226032	0.491595	0.880521
H139	H	1.476032	0.741595	1.130521
H140	H	1.726032	0.991595	1.380521
F141	F	0.960345	0.257235	0.351491
F142	F	1.210345	0.507235	0.601491
F143	F	1.460345	0.757235	0.851491
F144	F	1.710345	1.007235	1.101491
