data_functionalizedCrystal
_audit_creation_method	'MofGen! by Chris Wilmer'
_symmetry_space_group_name_H-M	'P1'
_symmetry_Int_Tables_number	1
_symmetry_cell_setting	triclinic
loop_
_symmetry_equiv_pos_as_xyz
  x,y,z
_cell_length_a	14.519731
_cell_length_b	15.500215
_cell_length_c	14.519709
_cell_angle_alpha	86.820847
_cell_angle_beta	96.315501
_cell_angle_gamma	93.178262
loop_
_atom_site_label
_atom_site_type_symbol
_atom_site_fract_x
_atom_site_fract_y
_atom_site_fract_z
O1	O	1.227686	0.071949	-0.124815
O2	O	1.561020	0.405282	0.208518
O3	O	1.894353	0.738615	0.541851
O4	O	0.959212	0.071950	-0.139031
O5	O	1.292545	0.405283	0.194302
O6	O	1.625879	0.738617	0.527635
O7	O	1.100567	0.071941	0.002315
O8	O	1.433900	0.405275	0.335648
O9	O	1.767234	0.738608	0.668982
O10	O	1.086331	0.071957	-0.266162
O11	O	1.419665	0.405290	0.067172
O12	O	1.752998	0.738624	0.400505
O13	O	1.092893	-0.071948	0.009980
O14	O	1.426227	0.261385	0.343313
O15	O	1.759560	0.594718	0.676647
O16	O	0.951539	-0.071940	-0.131366
O17	O	1.284872	0.261394	0.201967
O18	O	1.618205	0.594727	0.535300
O19	O	1.220013	-0.071941	-0.117150
O20	O	1.553346	0.261392	0.216183
O21	O	1.886679	0.594726	0.549516
Cu22	Cu	1.085075	-0.085079	-0.123558
Cu23	Cu	1.418408	0.248255	0.209775
Cu24	Cu	1.751742	0.581588	0.543108
Cu25	Cu	1.094150	0.085088	-0.132623
Cu26	Cu	1.427483	0.418421	0.200710
Cu27	Cu	1.760817	0.751754	0.534043
O28	O	1.078658	-0.071933	-0.258497
O29	O	1.411991	0.261401	0.074837
O30	O	1.745324	0.594734	0.408170
C31	C	0.921016	0.000005	-0.134533
C32	C	1.254349	0.333339	0.198801
C33	C	1.587683	0.666672	0.532134
C34	C	0.818636	0.000006	-0.132537
C35	C	1.151969	0.333339	0.200797
C36	C	1.485302	0.666672	0.534130
C37	C	0.735492	0.000009	-0.130915
C38	C	1.068825	0.333342	0.202418
C39	C	1.402158	0.666676	0.535752
C40	C	0.631183	0.000009	-0.128888
C41	C	0.964516	0.333343	0.204445
C42	C	1.297850	0.666676	0.537778
C43	C	0.548044	0.000009	-0.127280
C44	C	0.881377	0.333342	0.206053
C45	C	1.214711	0.666676	0.539387
C46	C	0.443729	0.000011	-0.125254
C47	C	0.777062	0.333344	0.208080
C48	C	1.110395	0.666678	0.541413
N49	N	1.078699	-0.204764	-0.117182
N50	N	1.412032	0.128569	0.216151
N51	N	1.745366	0.461902	0.549485
C52	C	1.132309	-0.250034	-0.170836
C53	C	1.465643	0.083299	0.162497
C54	C	1.798976	0.416632	0.495831
C55	C	1.127499	-0.340608	-0.166008
C56	C	1.460833	-0.007274	0.167326
C57	C	1.794166	0.326059	0.500659
C58	C	1.069074	-0.385910	-0.107530
C59	C	1.402407	-0.052576	0.225803
C60	C	1.735740	0.280757	0.559137
C61	C	1.015461	-0.340633	-0.053870
C62	C	1.348795	-0.007300	0.279463
C63	C	1.682128	0.326034	0.612796
C64	C	1.020277	-0.250061	-0.058694
C65	C	1.353610	0.083272	0.274639
C66	C	1.686943	0.416605	0.607973
C67	C	1.051736	-0.659379	-0.090156
C68	C	1.385070	-0.326045	0.243177
C69	C	1.718403	0.007288	0.576511
C70	C	1.046923	-0.749957	-0.085338
C71	C	1.380256	-0.416623	0.247995
C72	C	1.713589	-0.083290	0.581328
C73	C	1.158963	-0.749925	-0.197475
C74	C	1.492296	-0.416592	0.135858
C75	C	1.825630	-0.083258	0.469191
C76	C	1.163769	-0.659352	-0.202298
C77	C	1.497102	-0.326018	0.131035
C78	C	1.830436	0.007315	0.464369
C79	C	1.110160	-0.614083	-0.148634
C80	C	1.443494	-0.280750	0.184699
C81	C	1.776827	0.052584	0.518032
C82	C	1.064154	-0.478490	-0.102596
C83	C	1.397487	-0.145157	0.230738
C84	C	1.730820	0.188177	0.564071
C85	C	1.115086	-0.521504	-0.153564
C86	C	1.448419	-0.188171	0.179769
C87	C	1.781752	0.145163	0.513102
C88	C	1.258209	0.000005	-0.121649
C89	C	1.591542	0.333339	0.211684
C90	C	1.924876	0.666672	0.545018
C91	C	1.360590	0.000011	-0.123645
C92	C	1.693923	0.333344	0.209688
C93	C	2.027256	0.666677	0.543021
C94	C	1.096067	-0.000004	0.040507
C95	C	1.429400	0.333330	0.373841
C96	C	1.762733	0.666663	0.707174
C97	C	1.094078	-0.000004	0.142889
C98	C	1.427412	0.333329	0.476222
C99	C	1.760745	0.666663	0.809555
N100	N	1.100533	0.204773	-0.138992
N101	N	1.433867	0.538107	0.194341
N102	N	1.767200	0.871440	0.527674
C103	C	1.083158	0.000014	-0.296689
C104	C	1.416492	0.333348	0.036644
C105	C	1.749825	0.666681	0.369978
C106	C	1.085147	0.000021	-0.399071
C107	C	1.418480	0.333354	-0.065737
C108	C	1.751813	0.666687	0.267596
C109	C	1.086760	0.000019	0.517784
C110	C	1.420094	0.333352	0.851117
C111	C	1.753427	0.666685	1.184451
C112	C	1.088793	0.000012	0.413476
C113	C	1.422126	0.333345	0.746810
C114	C	1.755459	0.666679	1.080143
C115	C	1.090419	0.000006	0.330340
C116	C	1.423752	0.333340	0.663673
C117	C	1.757086	0.666673	0.997006
C118	C	1.092452	0.000002	0.226025
C119	C	1.425785	0.333335	0.559359
C120	C	1.759119	0.666668	0.892692
H121	H	1.171157	-0.377463	-0.209697
H122	H	1.504490	-0.044129	0.123636
H123	H	1.837823	0.289204	0.456970
C124	C	0.992760	-0.609594	-0.031138
C125	C	1.326093	-0.276261	0.302196
C126	C	1.659426	0.057072	0.635529
H127	H	0.957267	-0.649549	0.004370
H128	H	1.290600	-0.316216	0.337703
H129	H	1.623933	0.017118	0.671037
H130	H	1.032355	-0.574260	0.009341
H131	H	1.365688	-0.240927	0.342674
H132	H	1.699022	0.092407	0.676007
H133	H	0.952253	-0.574267	-0.070720
H134	H	1.285586	-0.240934	0.262613
H135	H	1.618920	0.092400	0.595947
C136	C	1.179355	-0.471679	-0.217884
C137	C	1.512688	-0.138346	0.115449
C138	C	1.846022	0.194987	0.448783
H139	H	1.210602	-0.511609	-0.249147
H140	H	1.543935	-0.178276	0.084186
H141	H	1.877268	0.155058	0.417519
H142	H	1.143511	-0.436345	-0.262117
H143	H	1.476844	-0.103012	0.071217
H144	H	1.810177	0.230322	0.404550
H145	H	1.223617	-0.436348	-0.182061
H146	H	1.556950	-0.103015	0.151272
H147	H	1.890284	0.230318	0.484606
H148	H	1.211348	-0.622473	-0.249914
H149	H	1.544681	-0.289140	0.083419
H150	H	1.878015	0.044194	0.416753
C151	C	1.217935	-0.799722	-0.256491
C152	C	1.551269	-0.466389	0.076842
C153	C	1.884602	-0.133055	0.410176
H154	H	1.206708	-0.860151	-0.245240
H155	H	1.540041	-0.526818	0.088094
H156	H	1.873375	-0.193485	0.421427
H157	H	1.201695	-0.784876	-0.320344
H158	H	1.535029	-0.451542	0.012990
H159	H	1.868362	-0.118209	0.346323
H160	H	1.281796	-0.784869	-0.240282
H161	H	1.615130	-0.451535	0.093051
H162	H	1.948463	-0.118202	0.426384
C163	C	0.982630	-0.799787	-0.021032
C164	C	1.315964	-0.466454	0.312302
C165	C	1.649297	-0.133121	0.645635
H166	H	0.951391	-0.759856	0.010237
H167	H	1.284724	-0.426523	0.343570
H168	H	1.618057	-0.093189	0.676903
H169	H	0.938377	-0.835109	-0.056866
H170	H	1.271711	-0.501776	0.276467
H171	H	1.605044	-0.168442	0.609800
H172	H	1.018461	-0.835131	0.023212
H173	H	1.351795	-0.501797	0.356545
H174	H	1.685128	-0.168464	0.689879
H175	H	0.967894	-0.377525	-0.006252
H176	H	1.301228	-0.044192	0.327082
H177	H	1.634561	0.289142	0.660415
C178	C	0.961302	-0.200264	0.000321
C179	C	1.294635	0.133069	0.333655
C180	C	1.627968	0.466402	0.666988
H181	H	0.925809	-0.240215	0.035833
H182	H	1.259142	0.093119	0.369167
H183	H	1.592475	0.426452	0.702500
H184	H	1.000901	-0.164930	0.040796
H185	H	1.334235	0.168403	0.374129
H186	H	1.667568	0.501737	0.707462
H187	H	0.920795	-0.164936	-0.039261
H188	H	1.254129	0.168397	0.294073
H189	H	1.587462	0.501730	0.627406
H190	H	1.179880	-0.213156	-0.218460
H191	H	1.513214	0.120177	0.114873
H192	H	1.846547	0.453510	0.448206
H193	H	1.016583	-0.515385	-0.054983
H194	H	1.349916	-0.182052	0.278350
H195	H	1.683249	0.151282	0.611683
