data_functionalizedCrystal
_audit_creation_method	'MofGen! by Chris Wilmer'
_symmetry_space_group_name_H-M	'P1'
_symmetry_Int_Tables_number	1
_symmetry_cell_setting	triclinic
loop_
_symmetry_equiv_pos_as_xyz
  x,y,z
_cell_length_a	14.519709
_cell_length_b	23.532407
_cell_length_c	13.596369
_cell_angle_alpha	89.989360
_cell_angle_beta	90.000291
_cell_angle_gamma	83.264412
loop_
_atom_site_label
_atom_site_type_symbol
_atom_site_fract_x
_atom_site_fract_y
_atom_site_fract_z
O1	O	1.222985	0.074654	-0.081674
O2	O	1.722985	0.574654	0.418326
O3	O	0.954404	0.083445	-0.081705
O4	O	1.454404	0.583445	0.418295
O5	O	1.096794	-0.003846	-0.081671
O6	O	1.596794	0.496154	0.418329
O7	O	1.080596	0.161945	-0.081708
O8	O	1.580596	0.661945	0.418292
O9	O	1.096780	-0.003850	0.081912
O10	O	1.596780	0.496150	0.581912
O11	O	0.954390	0.083441	0.081878
O12	O	1.454390	0.583441	0.581878
O13	O	1.222971	0.074649	0.081909
O14	O	1.722971	0.574649	0.581909
Zn15	Zn	1.088678	0.079044	0.107866
Zn16	Zn	1.588678	0.579044	0.607866
Zn17	Zn	1.088697	0.079050	-0.107662
Zn18	Zn	1.588697	0.579050	0.392338
O19	O	1.080582	0.161940	0.081874
O20	O	1.580582	0.661940	0.581874
C21	C	0.920042	0.083033	0.000083
C22	C	1.420042	0.583033	0.500083
C23	C	0.817676	0.081805	0.000071
C24	C	1.317676	0.581805	0.500071
C25	C	1.096374	-0.025066	0.000123
C26	C	1.596374	0.474934	0.500123
C27	C	1.095134	-0.088288	0.000131
C28	C	1.595134	0.411712	0.500131
C29	C	0.442833	0.077286	0.000117
C30	C	0.942833	0.577286	0.500117
C31	C	0.547126	0.078541	0.000104
C32	C	1.047126	0.578541	0.500104
C33	C	0.630251	0.079545	0.000093
C34	C	1.130251	0.579545	0.500093
C35	C	0.734551	0.080801	0.000082
C36	C	1.234551	0.580801	0.500082
C37	C	1.171619	-0.487046	0.000086
C38	C	1.671619	0.012954	0.500086
C39	C	1.170467	-0.546452	0.000078
C40	C	1.670467	-0.046452	0.500078
O41	O	1.241369	-0.582876	0.000050
O42	O	1.741369	-0.082876	0.500050
N43	N	1.085816	-0.569460	0.000069
N44	N	1.585816	-0.069460	0.500069
C45	C	1.002312	-0.533059	0.000057
C46	C	1.502312	-0.033059	0.500057
O47	O	0.930205	-0.558084	0.000048
O48	O	1.430205	-0.058084	0.500048
C49	C	1.003465	-0.473655	0.000058
C50	C	1.503465	0.026345	0.500058
C51	C	1.088121	-0.450650	0.000077
C52	C	1.588121	0.049350	0.500077
C53	C	1.256268	-0.464041	0.000104
C54	C	1.756268	0.035959	0.500104
C55	C	1.257420	-0.404640	0.000113
C56	C	1.757420	0.095360	0.500113
C57	C	1.173922	-0.368244	0.000105
C58	C	1.673922	0.131756	0.500105
C59	C	1.089273	-0.391249	0.000087
C60	C	1.589273	0.108751	0.500087
C61	C	0.919962	-0.437255	0.000039
C62	C	1.419962	0.062745	0.500039
C63	C	0.921123	-0.377847	0.000039
C64	C	1.421123	0.122153	0.500039
C65	C	1.005779	-0.354843	0.000058
C66	C	1.505779	0.145157	0.500058
C67	C	1.006927	-0.295451	0.000087
C68	C	1.506927	0.204549	0.500087
N69	N	1.091578	-0.272443	0.000097
N70	N	1.591578	0.227557	0.500097
C71	C	1.175075	-0.308839	0.000105
C72	C	1.675075	0.191161	0.500105
C73	C	0.999897	-0.657813	0.000055
C74	C	1.499897	-0.157813	0.500055
C75	C	0.998743	-0.717216	0.000061
C76	C	1.498743	-0.217216	0.500061
C77	C	1.166898	-0.730604	0.000080
C78	C	1.666898	-0.230604	0.500080
C79	C	1.168051	-0.671200	0.000080
C80	C	1.668051	-0.171200	0.500080
C81	C	1.084548	-0.634804	0.000064
C82	C	1.584548	-0.134804	0.500064
C83	C	1.177487	-0.184092	0.000126
C84	C	1.677487	0.315908	0.500126
C85	C	1.178632	-0.124685	0.000139
C86	C	1.678632	0.375315	0.500139
C87	C	1.010477	-0.111301	0.000115
C88	C	1.510477	0.388699	0.500115
C89	C	1.009332	-0.170703	0.000107
C90	C	1.509332	0.329297	0.500107
C91	C	1.092845	-0.207098	0.000109
C92	C	1.592845	0.292902	0.500109
O93	O	0.936062	-0.258992	0.000111
O94	O	1.436062	0.241008	0.500111
O95	O	1.247171	-0.283806	0.000102
O96	O	1.747171	0.216194	0.500102
C97	C	1.257333	0.075061	0.000119
C98	C	1.757333	0.575061	0.500119
C99	C	1.359700	0.076289	0.000124
C100	C	1.859700	0.576289	0.500124
C101	C	1.081001	0.183160	0.000078
C102	C	1.581001	0.683160	0.500078
C103	C	1.082241	0.246383	0.000064
C104	C	1.582241	0.746383	0.500064
N105	N	1.088673	0.079040	0.254958
N106	N	1.588673	0.579040	0.754958
N107	N	1.088710	0.079050	-0.254754
N108	N	1.588710	0.579050	0.245246
C109	C	1.088696	0.079051	0.656248
C110	C	1.588696	0.579051	1.156248
C111	C	1.088686	0.079050	0.544597
C112	C	1.588686	0.579050	1.044597
C113	C	1.088685	0.079046	0.455607
C114	C	1.588685	0.579046	0.955607
C115	C	1.088674	0.079044	0.343948
C116	C	1.588674	0.579044	0.843948
H117	H	1.247572	-0.105958	0.000158
H118	H	1.747572	0.394042	0.500158
C119	C	0.830527	-0.338266	0.000177
C120	C	1.330527	0.161734	0.500177
C121	C	0.826270	-0.303772	0.084327
C122	C	1.326270	0.196228	0.584327
C123	C	0.742834	-0.267299	0.084483
C124	C	1.242834	0.232701	0.584483
H125	H	0.779874	-0.360408	0.000216
H126	H	1.279874	0.139592	0.500216
H127	H	0.827479	-0.314773	-0.056836
H128	H	1.327479	0.185227	0.443164
H129	H	0.829309	-0.327263	0.141326
H130	H	1.329309	0.172737	0.641326
H131	H	0.876903	-0.281618	0.084307
H132	H	1.376903	0.218382	0.584307
H133	H	0.739787	-0.243806	0.027470
H134	H	1.239787	0.256194	0.527470
H135	H	0.692188	-0.289446	0.084519
H136	H	1.192188	0.210554	0.584519
H137	H	0.739938	-0.243887	0.141573
H138	H	1.239938	0.256113	0.641573
C139	C	0.906802	-0.742155	-0.000152
C140	C	1.406802	-0.242155	0.499848
C141	C	0.856380	-0.723661	-0.084329
C142	C	1.356380	-0.223661	0.415671
C143	C	0.771682	-0.746627	-0.084572
C144	C	1.271682	-0.246627	0.415428
H145	H	0.872331	-0.729690	0.056823
H146	H	1.372331	-0.229690	0.556823
H147	H	0.918025	-0.782750	-0.000209
H148	H	1.418025	-0.282750	0.499791
H149	H	0.845154	-0.683075	-0.084263
H150	H	1.345154	-0.183075	0.415737
H151	H	0.890823	-0.736125	-0.141317
H152	H	1.390823	-0.236125	0.358683
H153	H	0.782905	-0.787222	-0.084629
H154	H	1.282905	-0.287222	0.415371
H155	H	0.737219	-0.734161	-0.027593
H156	H	1.237219	-0.234161	0.472407
H157	H	0.737464	-0.734086	-0.141689
H158	H	1.237464	-0.234086	0.358311
H159	H	0.940399	-0.189434	0.000119
H160	H	1.440399	0.310566	0.500119
C161	C	1.260058	-0.646337	0.000039
C162	C	1.760058	-0.146337	0.500039
C163	C	1.332928	-0.690933	0.000024
C164	C	1.832928	-0.190933	0.500024
C165	C	1.417702	-0.668054	-0.000031
C166	C	1.917702	-0.168054	0.499969
H167	H	1.264137	-0.623454	0.057066
H168	H	1.764137	-0.123454	0.557066
H169	H	1.264060	-0.623455	-0.057031
H170	H	1.764060	-0.123455	0.442969
H171	H	1.328928	-0.713805	0.057088
H172	H	1.828928	-0.213805	0.557088
H173	H	1.328880	-0.713819	-0.056999
H174	H	1.828880	-0.213819	0.443001
H175	H	1.421704	-0.645172	-0.057102
H176	H	1.921704	-0.145172	0.442898
H177	H	1.421771	-0.645172	0.056997
H178	H	1.921771	-0.145172	0.556997
H179	H	1.467154	-0.698309	-0.000051
H180	H	1.967154	-0.198309	0.499949
C181	C	0.828113	-0.462297	-0.000147
C182	C	1.328113	0.037703	0.499853
C183	C	0.822557	-0.496007	-0.084302
C184	C	1.322557	0.003993	0.415698
C185	C	0.737958	-0.519088	-0.084505
C186	C	1.237958	-0.019088	0.415495
H187	H	0.778481	-0.432164	-0.000209
H188	H	1.278481	0.067836	0.499791
H189	H	0.824134	-0.485232	0.056863
H190	H	1.324134	0.014768	0.556863
H191	H	0.826527	-0.473073	-0.141297
H192	H	1.326527	0.026927	0.358703
H193	H	0.872169	-0.526149	-0.084257
H194	H	1.372169	-0.026149	0.415743
H195	H	0.733980	-0.542023	-0.027495
H196	H	1.233980	-0.042023	0.472505
H197	H	0.688334	-0.488951	-0.084565
H198	H	1.188334	0.011049	0.415435
H199	H	0.734181	-0.541967	-0.141598
H200	H	1.234181	-0.041967	0.358402
H201	H	0.942496	-0.081657	0.000112
H202	H	1.442496	0.418343	0.500112
H203	H	1.234886	-0.760249	0.000083
H204	H	1.734886	-0.260249	0.500083
C205	C	0.909299	-0.618232	0.000205
C206	C	1.409299	-0.118232	0.500205
C207	C	0.905047	-0.583736	0.084353
C208	C	1.405047	-0.083736	0.584353
C209	C	0.821609	-0.547266	0.084516
C210	C	1.321609	-0.047266	0.584516
H211	H	0.858648	-0.640375	0.000251
H212	H	1.358648	-0.140375	0.500251
H213	H	0.906243	-0.594739	-0.056810
H214	H	1.406243	-0.094739	0.443190
H215	H	0.908094	-0.607226	0.141353
H216	H	1.408094	-0.107226	0.641353
H217	H	0.955679	-0.561581	0.084325
H218	H	1.455679	-0.061581	0.584325
H219	H	0.818554	-0.523773	0.027501
H220	H	1.318554	-0.023773	0.527501
H221	H	0.770965	-0.569414	0.084559
H222	H	1.270965	-0.069414	0.584559
H223	H	0.818717	-0.523853	0.141604
H224	H	1.318717	-0.023853	0.641604
H225	H	1.326355	-0.385915	0.000125
H226	H	1.826355	0.114085	0.500125
C227	C	1.268256	-0.223505	0.000183
C228	C	1.768256	0.276495	0.500183
C229	C	1.342625	-0.190633	0.000228
C230	C	1.842625	0.309367	0.500228
C231	C	1.426254	-0.226920	0.000300
C232	C	1.926254	0.273080	0.500300
H233	H	1.271449	-0.246963	-0.056848
H234	H	1.771449	0.253037	0.443152
H235	H	1.271350	-0.246956	0.057250
H236	H	1.771350	0.253044	0.557250
H237	H	1.339533	-0.167192	-0.056833
H238	H	1.839533	0.332808	0.443167
H239	H	1.339463	-0.167176	0.057254
H240	H	1.839463	0.332824	0.557254
H241	H	1.429348	-0.250371	0.057367
H242	H	1.929348	0.249629	0.557367
H243	H	1.429437	-0.250376	-0.056732
H244	H	1.929437	0.249624	0.443268
H245	H	1.476723	-0.204622	0.000339
H246	H	1.976723	0.295378	0.500339
H247	H	1.324266	-0.493670	0.000107
H248	H	1.824266	0.006330	0.500107
