data_functionalizedCrystal
_audit_creation_method	'MofGen! by Chris Wilmer'
_symmetry_space_group_name_H-M	'P1'
_symmetry_Int_Tables_number	1
_symmetry_cell_setting	triclinic
loop_
_symmetry_equiv_pos_as_xyz
  x,y,z
_cell_length_a	12.759401
_cell_length_b	21.295417
_cell_length_c	12.759401
_cell_angle_alpha	90.015475
_cell_angle_beta	90.000936
_cell_angle_gamma	90.030668
loop_
_atom_site_label
_atom_site_type_symbol
_atom_site_fract_x
_atom_site_fract_y
_atom_site_fract_z
Zn1	Zn	1.605958	-0.250717	0.593925
Zn2	Zn	1.605858	-0.355957	0.418222
Zn3	Zn	1.430314	-0.250706	0.418265
Zn4	Zn	1.430200	-0.355952	0.593864
O5	O	1.518082	-0.303333	0.506069
O6	O	1.752966	-0.264683	0.570626
O7	O	1.582577	-0.341993	0.271207
O8	O	1.453703	-0.162618	0.441610
O9	O	1.752892	-0.342003	0.441538
O10	O	1.582748	-0.162626	0.570667
O11	O	1.453606	-0.264665	0.271238
O12	O	1.283278	-0.264661	0.441550
O13	O	1.453509	-0.341995	0.740893
O14	O	1.283194	-0.341985	0.570562
O15	O	1.582638	-0.264679	0.740938
O16	O	1.582467	-0.444046	0.441478
O17	O	1.453412	-0.444042	0.570521
C18	C	1.245115	-0.303321	0.506055
C19	C	1.128338	-0.303332	0.506074
C20	C	1.073460	-0.343659	0.573139
C21	C	0.963736	-0.343667	0.573150
C22	C	0.963778	-0.263019	0.439022
C23	C	1.073500	-0.263008	0.439017
C24	C	1.073435	-0.390222	0.650573
C25	C	0.963711	-0.390230	0.650585
C26	C	1.517945	-0.466885	0.506011
C27	C	1.517982	-0.536853	0.506021
C28	C	1.585240	-0.569700	0.438897
C29	C	1.585290	-0.635443	0.438921
C30	C	1.518061	-0.668335	0.506057
C31	C	1.450798	-0.635480	0.573194
C32	C	1.450758	-0.569738	0.573176
N33	N	1.426152	-0.771602	0.514062
N34	N	1.426193	-0.834054	0.514073
C35	C	1.518179	-0.866410	0.506117
N36	N	1.610125	-0.833955	0.498130
N37	N	1.610083	-0.771498	0.498114
C38	C	1.518098	-0.739621	0.506085
C39	C	1.585497	-0.970543	0.439016
C40	C	1.585548	-1.036287	0.439047
C41	C	1.451047	-1.036322	0.573314
C42	C	1.451005	-0.970580	0.573289
C43	C	1.518229	-0.937694	0.506134
C44	C	1.792115	-0.303345	0.506084
C45	C	1.908892	-0.303350	0.506090
C46	C	1.518072	-0.303337	0.780102
C47	C	1.518067	-0.303339	0.896879
C48	C	1.518249	-0.139143	0.506150
C49	C	1.518320	-0.069175	0.506185
C50	C	1.450837	-0.343592	0.951719
C51	C	1.450844	-0.343595	1.061443
C52	C	1.585315	-0.263088	1.061477
C53	C	1.585312	-0.263088	0.951755
C54	C	1.373198	-0.390070	0.951700
C55	C	1.373205	-0.390074	1.061424
C56	C	1.518082	-0.303343	1.233102
C57	C	1.518078	-0.303342	1.116325
H58	H	1.640063	-0.662193	0.384261
H59	H	1.291851	-0.377008	1.091210
H60	H	1.396063	-0.662265	0.627859
H61	H	1.103225	-0.377241	0.731983
O62	O	1.270841	-0.366932	0.906625
H63	H	1.275060	-0.367881	0.819751
H64	H	1.107437	-0.436501	0.621279
O65	O	1.132695	-0.219521	0.366671
H66	H	1.076126	-0.191493	0.320033
H67	H	1.396313	-1.063103	0.627983
H68	H	1.394951	-0.438823	0.921902
O69	O	0.904633	-0.219543	0.366672
H70	H	0.819116	-0.226331	0.377930
H71	H	0.929698	-0.372847	0.727941
O72	O	0.924207	-0.454779	0.621503
H73	H	0.991884	-0.486373	0.607245
H74	H	1.639980	-0.542927	0.384218
H75	H	1.395987	-0.542993	0.627838
H76	H	1.396233	-0.943834	0.627943
O77	O	1.658010	-0.935066	0.366604
H78	H	1.704804	-0.968955	0.319944
O79	O	1.657838	-0.219676	1.120672
H80	H	1.704592	-0.191689	1.064101
H81	H	1.640324	-1.063030	0.384389
O82	O	1.411744	-0.451423	1.106479
H83	H	1.410170	-0.448893	1.193354
O84	O	1.657837	-0.219681	0.892601
H85	H	1.704589	-0.191691	0.949196
