data_functionalizedCrystal
_audit_creation_method	'MofGen! by Chris Wilmer'
_symmetry_space_group_name_H-M	'P1'
_symmetry_Int_Tables_number	1
_symmetry_cell_setting	triclinic
loop_
_symmetry_equiv_pos_as_xyz
  x,y,z
_cell_length_a	13.635800
_cell_length_b	19.960909
_cell_length_c	11.102291
_cell_angle_alpha	95.688892
_cell_angle_beta	71.394248
_cell_angle_gamma	122.478459
loop_
_atom_site_label
_atom_site_type_symbol
_atom_site_fract_x
_atom_site_fract_y
_atom_site_fract_z
V1	V	-2.093009	-0.109068	0.385432
O2	O	-2.033500	0.005231	0.389235
O3	O	-2.117995	-0.216254	0.372082
O4	O	-2.080830	-0.107395	0.558420
O5	O	-2.070921	-0.104382	0.201607
V6	V	-2.326892	-0.095396	0.364747
O7	O	-2.240921	-0.139059	0.430807
O8	O	-2.404079	-0.065405	0.319371
O9	O	-2.190303	0.011790	0.378097
O10	O	-2.445100	-0.209695	0.360943
O11	O	-2.407678	-0.100083	0.548572
O12	O	-2.227468	-0.097069	0.191758
V13	V	-1.593009	-0.109068	0.385432
O14	O	-1.533500	0.005231	0.389235
O15	O	-1.617995	-0.216254	0.372082
O16	O	-1.580830	-0.107395	0.558420
O17	O	-1.570921	-0.104382	0.201607
V18	V	-1.826892	-0.095396	0.364747
O19	O	-1.740921	-0.139059	0.430807
O20	O	-1.904079	-0.065405	0.319371
O21	O	-1.690303	0.011790	0.378097
O22	O	-1.945100	-0.209695	0.360943
O23	O	-1.907678	-0.100083	0.548572
O24	O	-1.727468	-0.097069	0.191758
C25	C	-1.552072	-0.242383	0.363237
C26	C	-1.613224	-0.330009	0.353475
C27	C	-1.953706	-0.822027	0.286036
C28	C	-1.896259	-0.739695	0.295230
C29	C	-1.901480	-0.709799	0.415098
C30	C	-1.964145	-0.762239	0.525777
C31	C	-2.021583	-0.844568	0.516582
C32	C	-1.733327	-0.464778	0.454959
C33	C	-1.675884	-0.382442	0.464146
C34	C	-1.608000	-0.359905	0.233598
C35	C	-1.665450	-0.442237	0.224413
C36	C	-1.728103	-0.494669	0.335093
N37	N	-1.842764	-0.625643	0.424498
N38	N	-1.786811	-0.578823	0.325691
C39	C	-2.052072	-0.242383	0.363237
C40	C	-2.113224	-0.330009	0.353475
C41	C	-2.004664	-0.103522	0.600929
C42	C	-2.035673	-0.102863	0.742277
C43	C	-2.087899	0.037915	0.386938
C44	C	-2.016367	0.125540	0.396708
C45	C	-2.135306	-0.100945	0.149243
C46	C	-2.093914	-0.101600	0.007894
C47	C	-1.504664	-0.103522	0.600929
C48	C	-1.535673	-0.102863	0.742277
C49	C	-2.143587	-0.106485	0.814765
C50	C	-2.172706	-0.105850	0.947575
C51	C	-1.985989	-0.097975	0.935395
C52	C	-1.956867	-0.098604	0.802588
C53	C	-2.251390	-0.111035	0.821799
C54	C	-2.280509	-0.110400	0.954608
C55	C	-1.587899	0.037915	0.386938
C56	C	-1.516367	0.125540	0.396708
C57	C	-1.635306	-0.100945	0.149243
C58	C	-1.593914	-0.101600	0.007894
C59	C	-2.235331	-0.375178	0.354841
C60	C	-2.292810	-0.457515	0.345688
C61	C	-2.228177	-0.494679	0.335159
C62	C	-2.106059	-0.449504	0.333796
C63	C	-2.048585	-0.367170	0.342959
C64	C	-1.566754	0.170709	0.395345
C65	C	-1.499547	0.253044	0.404505
C66	C	-1.381958	0.290209	0.415036
C67	C	-1.331568	0.245034	0.416396
C68	C	-1.398771	0.162701	0.407227
C69	C	-1.643587	-0.106485	0.814765
C70	C	-1.672706	-0.105850	0.947575
C71	C	-1.485989	-0.097975	0.935395
C72	C	-1.456867	-0.098604	0.802588
C73	C	-1.751390	-0.111035	0.821799
C74	C	-1.780509	-0.110400	0.954608
H75	H	-1.949452	-0.846362	0.188428
F76	F	-1.839967	-0.187866	0.782190
H77	H	-1.357732	0.125929	0.408349
F78	F	-2.339967	-0.187866	0.782190
F79	F	-2.399857	-0.184892	1.016294
H80	H	-1.968386	-0.737890	0.623376
H81	H	-2.287976	-0.344930	0.363405
F82	F	-1.842009	-0.094744	0.725443
F83	F	-2.422775	-0.505578	0.347134
F84	F	-1.779368	-0.037252	0.999915
H85	H	-2.279630	-0.054434	0.989265
H86	H	-1.421831	-0.094506	0.984516
H87	H	-1.784339	-0.507459	0.545083
F88	F	-1.342009	-0.094744	0.725443
F89	F	-2.289362	-0.582308	0.325407
H90	H	-1.845243	-0.697007	0.205109
F91	F	-1.659897	-0.474049	0.096835
F92	F	-1.541328	-0.304098	0.115814
F93	F	-1.553198	0.301108	0.403059
F94	F	-1.740232	-0.041105	0.767176
H95	H	-1.871817	-0.167395	1.001797
H96	H	-2.053447	-0.479776	0.325223
H97	H	-1.680164	-0.358106	0.561763
H98	H	-1.921831	-0.094506	0.984516
F99	F	-2.088283	-0.900372	0.634375
H100	H	-1.327250	0.357250	0.422501
F101	F	-1.918620	-0.319105	0.341493
H102	H	-2.242860	-0.057534	0.780014
H103	H	-1.235818	0.275306	0.424970
H104	H	-1.662500	0.140461	0.386772
