data_functionalizedCrystal
_audit_creation_method	'MofGen! by Chris Wilmer'
_symmetry_space_group_name_H-M	'P1'
_symmetry_Int_Tables_number	1
_symmetry_cell_setting	triclinic
loop_
_symmetry_equiv_pos_as_xyz
  x,y,z
_cell_length_a	14.971486
_cell_length_b	10.489741
_cell_length_c	14.048226
_cell_angle_alpha	89.993872
_cell_angle_beta	89.998499
_cell_angle_gamma	84.076651
loop_
_atom_site_label
_atom_site_type_symbol
_atom_site_fract_x
_atom_site_fract_y
_atom_site_fract_z
O1	O	1.187893	0.166222	-0.079050
O2	O	0.927606	0.186127	-0.079076
O3	O	1.063672	-0.009492	-0.079057
O4	O	1.051827	0.361841	-0.079070
O5	O	1.063656	-0.009503	0.079264
O6	O	0.927590	0.186116	0.079245
O7	O	1.187876	0.166211	0.079271
Zn8	Zn	1.057730	0.176161	0.104395
Zn9	Zn	1.057752	0.176177	-0.104200
O10	O	1.051810	0.361830	0.079252
C11	C	0.894268	0.185232	0.000081
C12	C	0.794956	0.182564	0.000071
C13	C	0.738385	0.297485	0.000069
C14	C	0.645071	0.294971	0.000083
C15	C	0.608330	0.177534	0.000093
C16	C	0.664909	0.062604	0.000098
C17	C	0.758221	0.065120	0.000091
C18	C	0.470416	0.057369	0.000112
C19	C	0.377098	0.054853	0.000117
C20	C	0.357267	0.287220	0.000104
C21	C	0.450579	0.289736	0.000096
C22	C	0.507151	0.174805	0.000100
C23	C	1.062769	-0.057019	0.000103
C24	C	1.060093	-0.198617	0.000101
C25	C	0.973518	-0.265755	0.000085
C26	C	1.014407	-0.358357	0.078150
C27	C	1.014444	-0.358320	-0.077942
C28	C	1.101017	-0.289354	0.078230
C29	C	1.101042	-0.289308	-0.077933
C30	C	1.141994	-0.381882	0.000151
C31	C	1.221215	0.167106	0.000111
C32	C	1.320527	0.169774	0.000115
C33	C	1.052713	0.409357	0.000090
C34	C	1.055390	0.550955	0.000085
N35	N	1.057722	0.176150	0.246755
N36	N	1.057768	0.176178	-0.246561
C37	C	1.117991	0.089566	0.296582
C38	C	1.117997	0.089565	0.396240
C39	C	1.057738	0.176156	0.446069
C40	C	0.997462	0.262744	0.396235
C41	C	0.997452	0.262738	0.296580
C42	C	0.997488	0.262754	0.603950
C43	C	0.997498	0.262762	0.703612
C44	C	1.118033	0.089581	0.703610
C45	C	1.118023	0.089574	0.603954
C46	C	1.057748	0.176165	0.554127
H47	H	0.347187	-0.040774	0.000127
O48	O	1.176592	0.005341	0.555695
C49	C	1.296183	-0.166381	0.566203
C50	C	1.229889	-0.071073	0.620974
H51	H	1.339303	-0.228169	0.618957
H52	H	1.257198	-0.230282	0.519586
H53	H	1.341169	-0.111179	0.519507
H54	H	1.184887	-0.126171	0.667722
H55	H	1.268930	-0.007174	0.667531
H56	H	1.167073	0.019061	0.436808
O57	O	0.773964	0.411644	-0.000069
C58	C	0.785592	0.610991	-0.082129
C59	C	0.745227	0.481760	-0.082084
H60	H	0.762389	0.667705	-0.148441
H61	H	0.762331	0.667871	-0.015917
H62	H	0.862000	0.593025	-0.082090
H63	H	0.668816	0.499610	-0.082156
H64	H	0.768559	0.424921	-0.148290
H65	H	0.977768	-0.388949	0.144141
H66	H	0.977808	-0.388855	-0.143946
H67	H	1.167110	0.019076	0.744184
H68	H	1.167065	0.019059	0.256018
O69	O	1.144758	-0.252957	0.156957
C70	C	1.269767	-0.150977	0.218434
C71	C	1.220312	-0.192102	0.129198
H72	H	1.330873	-0.101791	0.196023
H73	H	1.222611	-0.081662	0.262227
H74	H	1.292461	-0.239126	0.263125
H75	H	1.197614	-0.104030	0.084435
H76	H	1.267499	-0.261461	0.085477
H77	H	1.213239	-0.432131	0.000202
H78	H	0.634987	-0.033015	0.000120
H79	H	0.948428	0.333272	0.744178
H80	H	0.311201	0.380801	0.000105
H81	H	0.480489	0.385363	0.000079
H82	H	0.948402	0.333261	0.563384
H83	H	1.137650	-0.258682	-0.143927
H84	H	0.804281	-0.028461	0.000092
H85	H	0.948374	0.333242	0.256012
H86	H	0.599014	0.388551	0.000080
H87	H	0.948393	0.333244	0.436812
O88	O	0.525336	-0.054306	-0.000058
C89	C	0.570801	-0.252156	-0.082059
C90	C	0.508568	-0.125726	-0.081988
H91	H	0.557253	-0.309947	-0.148282
H92	H	0.643821	-0.230259	-0.082128
H93	H	0.557359	-0.309902	-0.015770
H94	H	0.521929	-0.067918	-0.148265
H95	H	0.435568	-0.147713	-0.081869
O96	O	0.888586	-0.205587	0.000333
C97	C	0.747008	-0.172375	0.082881
C98	C	0.843171	-0.240574	0.082724
H99	H	0.710256	-0.200657	0.149477
H100	H	0.749789	-0.064178	0.082263
H101	H	0.709767	-0.201872	0.016970
H102	H	0.880468	-0.211182	0.148624
H103	H	0.840326	-0.348757	0.083293
