data_functionalizedCrystal
_audit_creation_method	'MofGen! by Chris Wilmer'
_symmetry_space_group_name_H-M	'P1'
_symmetry_Int_Tables_number	1
_symmetry_cell_setting	triclinic
loop_
_symmetry_equiv_pos_as_xyz
  x,y,z
_cell_length_a	18.050590
_cell_length_b	19.120786
_cell_length_c	18.050582
_cell_angle_alpha	87.534997
_cell_angle_beta	90.000767
_cell_angle_gamma	92.454965
loop_
_atom_site_label
_atom_site_type_symbol
_atom_site_fract_x
_atom_site_fract_y
_atom_site_fract_z
Zn1	Zn	1.122683	-0.279875	-0.406968
Zn2	Zn	1.117303	-0.397324	-0.277476
Zn3	Zn	0.998503	-0.279863	-0.282826
Zn4	Zn	0.993162	-0.397273	-0.401660
O5	O	1.057913	-0.338584	-0.342232
O6	O	1.225893	-0.295481	-0.389772
O7	O	1.101527	-0.381759	-0.174260
O8	O	1.019463	-0.181576	-0.303754
O9	O	1.221940	-0.381770	-0.294635
O10	O	1.110698	-0.181584	-0.394960
O11	O	1.014246	-0.295462	-0.178191
O12	O	0.893871	-0.295412	-0.298608
O13	O	1.010359	-0.381683	-0.506290
O14	O	0.889947	-0.381672	-0.385915
O15	O	1.105518	-0.295431	-0.510189
O16	O	1.096348	-0.495606	-0.289489
O17	O	1.005142	-0.495569	-0.380727
C18	C	0.864963	-0.338536	-0.342267
C19	C	0.782417	-0.338532	-0.342298
C20	C	0.580848	-0.385575	-0.389652
C21	C	0.534340	-0.321532	-0.410818
C22	C	0.631285	-0.338571	-0.342260
C23	C	0.530710	-0.402651	-0.321091
C24	C	0.485298	-0.338615	-0.342224
C25	C	0.585866	-0.274494	-0.363463
C26	C	0.582238	-0.355657	-0.273703
C27	C	0.535754	-0.291570	-0.294846
C28	C	0.715384	-0.338547	-0.342282
C29	C	0.401201	-0.338632	-0.342202
C30	C	1.049602	-0.521073	-0.333967
C31	C	1.046114	-0.599142	-0.330457
C32	C	1.091941	-0.635763	-0.376332
C33	C	1.088661	-0.709118	-0.373034
C34	C	1.039557	-0.745850	-0.323857
C35	C	0.993725	-0.709224	-0.277980
C36	C	0.997002	-0.635871	-0.281282
C37	C	1.027285	-0.967333	-0.311513
C38	C	1.024014	-1.040691	-0.308213
C39	C	1.118949	-1.040580	-0.403269
C40	C	1.122225	-0.967226	-0.406563
C41	C	1.076390	-0.930606	-0.360689
C42	C	1.036205	-0.820831	-0.320483
C43	C	1.079739	-0.855627	-0.364067
C44	C	1.251616	-0.338632	-0.342199
C45	C	1.334161	-0.338653	-0.342184
C46	C	1.057943	-0.338553	-0.535939
C47	C	1.057956	-0.338539	-0.618486
C48	C	1.066277	-0.155382	-0.350546
C49	C	1.069841	-0.077312	-0.354089
C50	C	1.006250	-0.385379	-0.815819
C51	C	1.073231	-0.402560	-0.864416
C52	C	1.057995	-0.338486	-0.769619
C53	C	0.991052	-0.321285	-0.868104
C54	C	1.058027	-0.338435	-0.915606
C55	C	1.125011	-0.355700	-0.817127
C56	C	1.042788	-0.274395	-0.820812
C57	C	1.109817	-0.291552	-0.869388
C58	C	1.057976	-0.338517	-0.685519
C59	C	1.058054	-0.338404	-0.999704
C60	C	1.057927	-0.338564	-0.149281
C61	C	1.058067	-0.338379	-0.066744
H62	H	0.609908	-0.220305	-0.381418
O63	O	0.976243	-1.076266	-0.260424
C64	C	0.882449	-1.068639	-0.166466
C65	C	0.936498	-1.028264	-0.220561
H66	H	0.850313	-1.029848	-0.134211
H67	H	0.842018	-1.102972	-0.198960
H68	H	0.915048	-1.102996	-0.126139
H69	H	0.903961	-0.993869	-0.260900
H70	H	0.976930	-0.993976	-0.188019
H71	H	1.181650	-0.370289	-0.794850
O72	O	0.982689	-0.931738	-0.267054
C73	C	0.886146	-0.848969	-0.260709
C74	C	0.936596	-0.889250	-0.311150
H75	H	0.848878	-0.814596	-0.296339
H76	H	0.850441	-0.887797	-0.225008
H77	H	0.921813	-0.814655	-0.223426
H78	H	0.900986	-0.923565	-0.348477
H79	H	0.972305	-0.850384	-0.346800
O80	O	1.162189	-0.244297	-0.897173
C81	C	1.291911	-0.209008	-0.902512
C82	C	1.232677	-0.262579	-0.871006
H83	H	1.348912	-0.223762	-0.881356
H84	H	1.291280	-0.209008	-0.965667
H85	H	1.279380	-0.154559	-0.883795
H86	H	1.245167	-0.317054	-0.889667
H87	H	1.233321	-0.262518	-0.807855
H88	H	1.086113	-0.456738	-0.883666
O89	O	0.923535	-0.303987	-0.894909
C90	C	0.848149	-0.283896	-1.003289
C91	C	0.924642	-0.303502	-0.973035
H92	H	0.849022	-0.283483	-1.066458
H93	H	0.804062	-0.323959	-0.981269
H94	H	0.834746	-0.229676	-0.984532
H95	H	0.938115	-0.357705	-0.991781
H96	H	0.968685	-0.263394	-0.995051
O97	O	0.501835	-0.467223	-0.299657
C98	C	0.426523	-0.535562	-0.210605
C99	C	0.459159	-0.462392	-0.234797
H100	H	0.392026	-0.531683	-0.158154
H101	H	0.389872	-0.556768	-0.256677
H102	H	0.473563	-0.572416	-0.199049
H103	H	0.412168	-0.425485	-0.246343
H104	H	0.495829	-0.441243	-0.188712
H105	H	1.029885	-0.220233	-0.801546
H106	H	0.962527	-0.425087	-0.792366
H107	H	0.600722	-0.425254	-0.429779
H108	H	0.513276	-0.307095	-0.468780
H109	H	0.953741	-0.739137	-0.237942
H110	H	0.959684	-0.606054	-0.243926
H111	H	0.516023	-0.251793	-0.254755
O112	O	0.607519	-0.372860	-0.204613
C113	C	0.714131	-0.392834	-0.127446
C114	C	0.685601	-0.373318	-0.205723
H115	H	0.777262	-0.393225	-0.128321
H116	H	0.695765	-0.352735	-0.087038
H117	H	0.690475	-0.447045	-0.109039
H118	H	0.709244	-0.319124	-0.224199
H119	H	0.703959	-0.413462	-0.246084
O120	O	1.139658	-0.600193	-0.424170
C121	C	1.233497	-0.607834	-0.518081
C122	C	1.179482	-0.648201	-0.463945
H123	H	1.265720	-0.646631	-0.550242
H124	H	1.200941	-0.573515	-0.558484
H125	H	1.273858	-0.573464	-0.485549
H126	H	1.139109	-0.682610	-0.496415
H127	H	1.212086	-0.682476	-0.423542
H128	H	1.125984	-0.738932	-0.410385
H129	H	1.162209	-0.937320	-0.446607
O130	O	1.163391	-1.076262	-0.447804
C131	C	1.200449	-1.189217	-0.484821
C132	C	1.150066	-1.148897	-0.434350
H133	H	1.189705	-1.247949	-0.473950
H134	H	1.188007	-1.174824	-0.545359
H135	H	1.260981	-1.174720	-0.472480
H136	H	1.089518	-1.163372	-0.446625
H137	H	1.162571	-1.163293	-0.373828
H138	H	1.119717	-0.825717	-0.404110
O139	O	0.988550	-0.856435	-0.272609
C140	C	0.951615	-0.879006	-0.145241
C141	C	1.005622	-0.838627	-0.199375
H142	H	0.965408	-0.864634	-0.086019
H143	H	0.892353	-0.864602	-0.158825
H144	H	0.957134	-0.937720	-0.150803
H145	H	1.000170	-0.779904	-0.193842
H146	H	1.064862	-0.853089	-0.185775
