data_functionalizedCrystal
_audit_creation_method	'MofGen! by Chris Wilmer'
_symmetry_space_group_name_H-M	'P1'
_symmetry_Int_Tables_number	1
_symmetry_cell_setting	triclinic
loop_
_symmetry_equiv_pos_as_xyz
  x,y,z
_cell_length_a	14.971486
_cell_length_b	17.019294
_cell_length_c	13.448316
_cell_angle_alpha	93.885576
_cell_angle_beta	90.001801
_cell_angle_gamma	83.504267
loop_
_atom_site_label
_atom_site_type_symbol
_atom_site_fract_x
_atom_site_fract_y
_atom_site_fract_z
O1	O	1.186692	0.102801	0.091379
O2	O	1.686692	0.602801	0.591379
O3	O	0.926261	0.115111	0.092460
O4	O	1.426261	0.615111	0.592460
O5	O	1.063741	-0.005870	0.082081
O6	O	1.563741	0.494130	0.582081
O7	O	1.049212	0.223782	0.101757
O8	O	1.549212	0.723782	0.601757
O9	O	1.063724	-0.005877	-0.083303
O10	O	1.563724	0.494123	0.416697
O11	O	0.926244	0.115104	-0.072925
O12	O	1.426244	0.615104	0.427075
O13	O	1.186675	0.102793	-0.074006
O14	O	1.686675	0.602793	0.425994
Cu15	Cu	1.056458	0.108948	-0.088566
Cu16	Cu	1.556458	0.608948	0.411434
Cu17	Cu	1.056478	0.108957	0.107020
Cu18	Cu	1.556478	0.608957	0.607020
O19	O	1.049195	0.223775	-0.063628
O20	O	1.549195	0.723775	0.436372
C21	C	0.892929	0.114557	0.009724
C22	C	1.392929	0.614557	0.509724
C23	C	0.793636	0.112907	0.009593
C24	C	1.293636	0.612907	0.509593
C25	C	0.736234	0.183981	0.015680
C26	C	1.236234	0.683981	0.515680
C27	C	0.642939	0.182426	0.015532
C28	C	1.142939	0.682426	0.515532
C29	C	0.607047	0.109797	0.009303
C30	C	1.107047	0.609797	0.509303
C31	C	0.664456	0.038718	0.003212
C32	C	1.164456	0.538718	0.503212
C33	C	0.757750	0.040274	0.003353
C34	C	1.257750	0.540274	0.503353
C35	C	0.470002	0.035480	0.002921
C36	C	0.970002	0.535480	0.502921
C37	C	0.376702	0.033924	0.002782
C38	C	0.876702	0.533924	0.502782
C39	C	0.355190	0.177632	0.015100
C40	C	0.855190	0.677632	0.515100
C41	C	0.448484	0.179188	0.015241
C42	C	0.948484	0.679188	0.515241
C43	C	0.505887	0.108109	0.009152
C44	C	1.005887	0.608109	0.509152
C45	C	1.063181	-0.035263	-0.003127
C46	C	1.563181	0.464737	0.496873
C47	C	1.061528	-0.122836	-0.010622
C48	C	1.561528	0.377164	0.489378
C49	C	1.060763	-0.163969	0.076007
C50	C	1.560763	0.336031	0.576007
C51	C	1.059204	-0.246251	0.068960
C52	C	1.559204	0.253749	0.568960
C53	C	1.058417	-0.287400	-0.024716
C54	C	1.558417	0.212600	0.475284
C55	C	1.059179	-0.246261	-0.111351
C56	C	1.559179	0.253739	0.388649
C57	C	1.060732	-0.163979	-0.104304
C58	C	1.560732	0.336021	0.395696
C59	C	1.053723	-0.535838	-0.050504
C60	C	1.553723	-0.035838	0.449496
C61	C	1.052173	-0.618126	-0.057544
C62	C	1.552173	-0.118126	0.442456
C63	C	1.052196	-0.618111	0.122768
C64	C	1.552196	-0.118111	0.622768
C65	C	1.053754	-0.535828	0.129807
C66	C	1.553754	-0.035828	0.629807
C67	C	1.054512	-0.494695	0.043172
C68	C	1.554512	0.005305	0.543172
C69	C	1.056826	-0.371507	-0.031920
C70	C	1.556826	0.128493	0.468080
C71	C	1.056096	-0.410590	0.050377
C72	C	1.556096	0.089410	0.550377
C73	C	1.220007	0.103348	0.008732
C74	C	1.720007	0.603348	0.508732
C75	C	1.319300	0.104998	0.008870
C76	C	1.819300	0.604998	0.508870
C77	C	1.049754	0.253168	0.021582
C78	C	1.549754	0.753168	0.521582
C79	C	1.051407	0.340741	0.029085
C80	C	1.551407	0.840741	0.529085
N81	N	1.056450	0.108941	-0.226131
N82	N	1.556450	0.608941	0.273869
C83	C	1.117345	0.055393	-0.282765
C84	C	1.617345	0.555393	0.217235
C85	C	1.117351	0.055392	-0.386868
C86	C	1.617351	0.555392	0.113132
C87	C	1.056465	0.108944	-0.434336
C88	C	1.556465	0.608944	0.065664
C89	C	0.995563	0.162496	-0.377694
C90	C	1.495563	0.662496	0.122306
C91	C	0.995554	0.162492	-0.273593
C92	C	1.495554	0.662492	0.226407
C93	C	0.995588	0.162501	-0.594674
C94	C	1.495588	0.662501	-0.094674
C95	C	0.995598	0.162506	-0.698782
C96	C	1.495598	0.662506	-0.198782
C97	C	1.117385	0.055401	-0.707949
C98	C	1.617385	0.555401	-0.207949
C99	C	1.117375	0.055398	-0.603848
C100	C	1.617375	0.555398	-0.103848
C101	C	1.056475	0.108950	-0.547214
C102	C	1.556475	0.608950	-0.047214
N103	N	1.056493	0.108957	0.244584
N104	N	1.556493	0.608957	0.744584
H105	H	0.308448	0.235508	0.020054
H106	H	0.808448	0.735508	0.520054
H107	H	1.166929	0.011788	-0.244125
H108	H	1.666929	0.511788	0.255875
H109	H	1.051527	-0.651627	-0.133830
H110	H	1.551527	-0.151627	0.366170
H111	H	0.945966	0.206095	-0.227482
H112	H	1.445966	0.706095	0.272518
H113	H	1.166935	0.011788	-0.432980
H114	H	1.666935	0.511788	0.067020
C115	C	1.054560	-0.490604	-0.145806
C116	C	1.554560	0.009396	0.354194
N117	N	1.055192	-0.456530	-0.217593
N118	N	1.555192	0.043470	0.282407
H119	H	1.166957	0.011795	-0.565201
H120	H	1.666957	0.511795	-0.065201
C121	C	1.058445	-0.291503	0.164259
C122	C	1.558445	0.208497	0.664259
N123	N	1.057902	-0.325590	0.236042
N124	N	1.557902	0.174410	0.736042
C125	C	0.624972	-0.041175	-0.003641
C126	C	1.124972	0.458825	0.496359
N127	N	0.595233	-0.101352	-0.008800
N128	N	1.095233	0.398648	0.491200
H129	H	1.051577	-0.651609	0.193301
H130	H	1.551577	-0.151609	0.693301
C131	C	1.184373	-0.003510	-0.770249
C132	C	1.684373	0.496490	-0.270249
N133	N	1.234828	-0.047879	-0.817178
N134	N	1.734828	0.452121	-0.317178
H135	H	0.945984	0.206096	-0.416348
H136	H	1.445984	0.706096	0.083652
C137	C	0.928584	0.221403	-0.532379
C138	C	1.428584	0.721403	-0.032379
N139	N	0.878118	0.265768	-0.485458
N140	N	1.378118	0.765768	0.014542
C141	C	0.928615	0.221411	-0.750994
C142	C	1.428615	0.721411	-0.250994
N143	N	0.878162	0.265779	-0.790320
N144	N	1.378162	0.765779	-0.290320
C145	C	0.337223	-0.045971	-0.004072
C146	C	0.837223	0.454029	0.495928
N147	N	0.307488	-0.106150	-0.009234
N148	N	0.807488	0.393850	0.490766
H149	H	0.804487	-0.017602	-0.001604
H150	H	1.304487	0.482398	0.498396
H151	H	1.054396	-0.502330	0.206088
H152	H	1.554396	-0.002330	0.706088
C153	C	0.579800	0.260612	0.022212
C154	C	1.079800	0.760612	0.522212
N155	N	0.532244	0.319506	0.027236
N156	N	1.032244	0.819506	0.527236
H157	H	0.765449	0.243124	0.020753
H158	H	1.265449	0.743124	0.520753
H159	H	1.058533	-0.279771	-0.187624
H160	H	1.558533	0.220229	0.312376
H161	H	1.061342	-0.130488	-0.174846
H162	H	1.561342	0.369512	0.325154
C163	C	1.061629	-0.118713	0.179058
C164	C	1.561629	0.381287	0.679058
N165	N	1.062277	-0.084627	0.256680
N166	N	1.562277	0.415373	0.756680
H167	H	0.477704	0.238329	0.020323
H168	H	0.977704	0.738329	0.520323
H169	H	1.056188	-0.405020	-0.108192
H170	H	1.556188	0.094980	0.391808
H171	H	1.056731	-0.377082	0.126648
H172	H	1.556731	0.122918	0.626648
H173	H	0.516737	-0.022400	-0.002039
H174	H	1.016737	0.477600	0.497961
