data_functionalizedCrystal
_audit_creation_method	'MofGen! by Chris Wilmer'
_symmetry_space_group_name_H-M	'P1'
_symmetry_Int_Tables_number	1
_symmetry_cell_setting	triclinic
loop_
_symmetry_equiv_pos_as_xyz
  x,y,z
_cell_length_a	6.817900
_cell_length_b	15.300992
_cell_length_c	17.329378
_cell_angle_alpha	91.623359
_cell_angle_beta	103.025558
_cell_angle_gamma	104.175078
loop_
_atom_site_label
_atom_site_type_symbol
_atom_site_fract_x
_atom_site_fract_y
_atom_site_fract_z
V1	V	-4.013211	-0.106312	-0.245231
O2	O	-3.997439	0.024071	-0.240319
O3	O	-3.968228	-0.229037	-0.243788
O4	O	-3.957346	-0.096356	-0.352077
O5	O	-4.008397	-0.109528	-0.131280
V6	V	-4.497364	-0.091700	-0.231573
O7	O	-4.273089	-0.138366	-0.275190
O8	O	-4.687683	-0.059647	-0.201613
O9	O	-4.319140	0.031025	-0.233016
O10	O	-4.630532	-0.222084	-0.236484
O11	O	-4.619574	-0.088485	-0.345524
O12	O	-4.330022	-0.101656	-0.124726
C13	C	-3.814302	-0.259215	-0.239980
C14	C	-3.858761	-0.359490	-0.239512
C15	C	-3.844035	-0.399137	-0.167310
C16	C	-3.885829	-0.493357	-0.166874
C17	C	-3.942332	-0.547929	-0.238639
C18	C	-3.957063	-0.508276	-0.310846
C19	C	-3.915285	-0.414058	-0.311282
C20	C	-4.044135	-0.704656	-0.309932
C21	C	-4.085913	-0.798881	-0.309496
C22	C	-4.014679	-0.783955	-0.165523
C23	C	-3.972901	-0.689737	-0.165959
C24	C	-3.987631	-0.650091	-0.238167
C25	C	-3.800419	-0.089966	-0.378113
C26	C	-3.836050	-0.082638	-0.465462
C27	C	-3.894484	-0.160915	-0.517877
C28	C	-3.927971	-0.154028	-0.599951
C29	C	-3.903007	-0.068864	-0.629608
C30	C	-3.844573	0.009419	-0.577187
C31	C	-3.811102	0.002531	-0.495115
C32	C	-4.001994	-0.043978	-0.876843
C33	C	-4.035465	-0.037096	-0.958922
C34	C	-4.118864	-0.200544	-0.981680
C35	C	-4.085377	-0.207425	-0.899605
C36	C	-4.026956	-0.129142	-0.847192
C37	C	-3.937228	-0.061822	-0.713500
C38	C	-3.992751	-0.136185	-0.763301
C39	C	-4.136408	0.061197	-0.236822
C40	C	-4.071188	0.161473	-0.237295
C41	C	-4.150291	-0.108049	-0.098687
C42	C	-4.093899	-0.115373	-0.011336
H43	H	-3.927298	-0.381780	-0.370077
Br44	Br	-4.198194	-0.306780	-1.052817
Br45	Br	-3.896192	-0.615675	-0.068562
H46	H	-3.914801	-0.230265	-0.493737
H47	H	-4.105716	-0.276775	-0.875465
Br48	Br	-3.767331	-0.325084	-0.069908
Br49	Br	-4.064145	-0.650852	-0.407929
Br50	Br	-4.026646	-0.251763	-0.723051
Br51	Br	-4.001580	0.078493	-0.999170
Br52	Br	-3.994666	-0.837759	-0.067527
H53	H	-4.003086	-0.552716	-0.369279
Br54	Br	-3.922530	0.062267	-0.805717
Br55	Br	-3.865873	-0.547161	-0.068882
H56	H	-3.975560	-0.217770	-0.642624
H57	H	-3.824262	0.078762	-0.601341
H58	H	-3.916901	0.007520	-0.737656
H59	H	-4.131917	-0.843311	-0.367934
H60	H	-3.763523	0.066273	-0.452439
