data_functionalizedCrystal
_audit_creation_method	'MofGen! by Chris Wilmer'
_symmetry_space_group_name_H-M	'P1'
_symmetry_Int_Tables_number	1
_symmetry_cell_setting	triclinic
loop_
_symmetry_equiv_pos_as_xyz
  x,y,z
_cell_length_a	15.455313
_cell_length_b	16.992694
_cell_length_c	16.992695
_cell_angle_alpha	89.331777
_cell_angle_beta	87.142836
_cell_angle_gamma	87.134047
loop_
_atom_site_label
_atom_site_type_symbol
_atom_site_fract_x
_atom_site_fract_y
_atom_site_fract_z
O1	O	0.072024	1.047614	-0.170138
O2	O	0.572024	1.547614	0.329862
O3	O	0.072049	0.819213	-0.168308
O4	O	0.572049	1.319213	0.331692
O5	O	0.072030	0.932498	-0.055023
O6	O	0.572030	1.432498	0.444977
O7	O	0.072043	0.934329	-0.283424
O8	O	0.572043	1.434329	0.216576
O9	O	-0.072234	0.938970	-0.048565
O10	O	0.427766	1.438970	0.451435
O11	O	-0.072214	0.825685	-0.161851
O12	O	0.427786	1.325685	0.338149
O13	O	-0.072240	1.054086	-0.163681
O14	O	0.427760	1.554086	0.336319
Cu15	Cu	-0.085399	0.940476	-0.162176
Cu16	Cu	0.414601	1.440476	0.337824
Cu17	Cu	0.085209	0.932823	-0.169813
Cu18	Cu	0.585209	1.432823	0.330187
O19	O	-0.072220	0.940801	-0.276966
O20	O	0.427780	1.440801	0.223034
C21	C	-0.000079	0.793089	-0.162724
C22	C	0.499921	1.293089	0.337276
C23	C	-0.000070	0.705604	-0.155696
C24	C	0.499930	1.205604	0.344304
N25	N	-0.205396	0.945865	-0.156804
N26	N	0.294604	1.445865	0.343196
N27	N	0.205205	0.927440	-0.175179
N28	N	0.705205	1.427440	0.324821
C29	C	-0.000066	0.659613	-0.223514
C30	C	0.499934	1.159613	0.276486
C31	C	-0.000079	0.577412	-0.216904
C32	C	0.499921	1.077412	0.283096
C33	C	-0.000088	0.541204	-0.142476
C34	C	0.499912	1.041204	0.357524
C35	C	-0.000094	0.587202	-0.074653
C36	C	0.499906	1.087202	0.425347
C37	C	-0.000088	0.669401	-0.081263
C38	C	0.499912	1.169401	0.418737
C39	C	-0.000113	0.295891	-0.115081
C40	C	0.499887	0.795891	0.384919
C41	C	-0.000116	0.213686	-0.108476
C42	C	0.499884	0.713686	0.391524
C43	C	-0.000103	0.203902	-0.250728
C44	C	0.499897	0.703902	0.249272
C45	C	-0.000091	0.286103	-0.257331
C46	C	0.499909	0.786103	0.242669
C47	C	-0.000102	0.332093	-0.189508
C48	C	0.499898	0.832093	0.310492
N49	N	-0.000098	0.457183	-0.135719
N50	N	0.499902	0.957183	0.364281
N51	N	-0.000098	0.416114	-0.196266
N52	N	0.499902	0.916114	0.303734
C53	C	0.250591	0.975671	-0.127156
C54	C	0.750591	1.475671	0.372844
C55	C	0.341400	0.971598	-0.131213
C56	C	0.841400	1.471598	0.368787
C57	C	0.386821	0.919290	-0.183288
C58	C	0.886821	1.419290	0.316712
C59	C	0.341429	0.871056	-0.231316
C60	C	0.841429	1.371056	0.268684
C61	C	0.250622	0.875133	-0.227263
C62	C	0.750622	1.375133	0.272737
C63	C	0.658405	0.901709	-0.200779
C64	C	1.158405	1.401709	0.299221
C65	C	0.749219	0.897634	-0.204827
C66	C	1.249219	1.397634	0.295173
C67	C	0.749183	0.998177	-0.104724
C68	C	1.249183	1.498177	0.395276
C69	C	0.658375	1.002247	-0.100673
C70	C	1.158375	1.502247	0.399327
C71	C	0.612990	0.954016	-0.148704
C72	C	1.112990	1.454016	0.351296
N73	N	0.479642	0.915124	-0.187434
N74	N	0.979642	1.415124	0.312566
N75	N	0.520171	0.958187	-0.144561
N76	N	1.020171	1.458187	0.355439
C77	C	-0.000102	0.933378	-0.022434
C78	C	0.499898	1.433378	0.477566
C79	C	-0.000101	0.926350	0.065050
C80	C	0.499899	1.426350	0.565050
C81	C	-0.000109	1.080210	-0.169265
C82	C	0.499891	1.580210	0.330735
C83	C	-0.000113	1.167695	-0.176294
C84	C	0.499887	1.667695	0.323706
C85	C	-0.000087	0.939920	-0.309555
C86	C	0.499913	1.439920	0.190445
C87	C	-0.000082	0.946949	-0.397040
C88	C	0.499918	1.446949	0.102960
C89	C	-0.000109	0.994168	0.111042
C90	C	0.499891	1.494168	0.611042
C91	C	-0.000100	0.987559	0.193242
C92	C	0.499900	1.487559	0.693242
C93	C	-0.000089	0.913131	0.229450
C94	C	0.499911	1.413131	0.729450
C95	C	-0.000078	0.845307	0.183452
C96	C	0.499922	1.345307	0.683452
C97	C	-0.000081	0.851917	0.101253
C98	C	0.499919	1.351917	0.601253
C99	C	-0.000074	0.885735	0.474764
C100	C	0.499926	1.385735	0.974764
C101	C	-0.000074	0.879131	0.556969
C102	C	0.499926	1.379131	1.056969
C103	C	-0.000094	1.021383	0.566753
C104	C	0.499906	1.521383	1.066753
C105	C	-0.000102	1.027987	0.484552
C106	C	0.499898	1.527987	0.984552
C107	C	-0.000087	0.960163	0.438561
C108	C	0.499913	1.460163	0.938561
N109	N	-0.000082	0.906373	0.313472
N110	N	0.499918	1.406373	0.813472
N111	N	-0.000087	0.966921	0.354541
N112	N	0.499913	1.466921	0.854541
H113	H	-0.000058	0.689087	-0.284121
H114	H	0.499942	1.189087	0.215879
C115	C	0.200697	0.822059	-0.280067
C116	C	0.700697	1.322059	0.219933
H117	H	0.240752	0.790311	-0.311652
H118	H	0.740752	1.290311	0.188348
H119	H	0.165269	0.853937	-0.313108
H120	H	0.665269	1.353937	0.186892
H121	H	0.165280	0.789167	-0.248011
H122	H	0.665280	1.289167	0.251989
C123	C	-0.000129	0.173859	-0.026601
C124	C	0.499871	0.673859	0.473399
H125	H	-0.000141	0.213021	0.012846
H126	H	0.499859	0.713021	0.512846
H127	H	0.050178	0.139734	-0.023318
H128	H	0.550178	0.639734	0.476682
H129	H	-0.050444	0.144259	-0.018820
H130	H	0.449556	0.644259	0.481180
C131	C	-0.000059	0.763436	0.223275
C132	C	0.499941	1.263436	0.723275
H133	H	-0.000044	0.723992	0.184108
H134	H	0.499956	1.223992	0.684108
H135	H	-0.050363	0.760152	0.257394
H136	H	0.449637	1.260152	0.757394
H137	H	0.050258	0.755648	0.252879
H138	H	0.550258	1.255648	0.752879
H139	H	0.213615	1.018263	-0.084748
H140	H	0.713615	1.518263	0.415252
C141	C	-0.000118	0.346470	-0.040478
C142	C	0.499882	0.846470	0.459522
H143	H	-0.000116	0.313130	0.004793
H144	H	0.499884	0.813130	0.504793
H145	H	-0.050425	0.381002	-0.037845
H146	H	0.449575	0.881002	0.462155
H147	H	0.050197	0.376475	-0.042349
H148	H	0.550197	0.876475	0.457651
C149	C	0.608418	1.059795	-0.043400
C150	C	1.108418	1.559795	0.456600
H151	H	0.648454	1.087944	-0.015386
H152	H	1.148454	1.587944	0.484614
H153	H	0.572984	1.031088	-0.007201
H154	H	1.072984	1.531088	0.492799
H155	H	0.573003	1.095871	-0.072285
H156	H	1.073003	1.595871	0.427715
C157	C	0.608494	0.848674	-0.253628
C158	C	1.108494	1.348674	0.246372
H159	H	0.648553	0.816939	-0.285221
H160	H	1.148553	1.316939	0.214779
H161	H	0.573089	0.880586	-0.286659
H162	H	1.073089	1.380586	0.213341
H163	H	0.573053	0.815770	-0.221609
H164	H	1.073053	1.315770	0.278391
C165	C	-0.000101	1.062156	0.243832
C166	C	0.499899	1.562156	0.743832
H167	H	-0.000083	1.047562	0.297972
H168	H	0.499917	1.547562	0.797972
H169	H	-0.050411	1.094724	0.234633
H170	H	0.449589	1.594724	0.734633
H171	H	0.050211	1.090200	0.230109
H172	H	0.550211	1.590200	0.730109
C173	C	-0.000103	0.547375	0.007216
C174	C	0.499897	1.047375	0.507216
H175	H	-0.000097	0.491833	0.001441
H176	H	0.499903	0.991833	0.501441
H177	H	-0.050411	0.565120	0.037610
H178	H	0.449589	1.065120	0.537610
H179	H	0.050211	0.560595	0.033102
H180	H	0.550211	1.060595	0.533102
C181	C	-0.000103	1.109857	0.444728
C182	C	0.499897	1.609857	0.944728
H183	H	-0.000098	1.149301	0.483892
H184	H	0.499902	1.649301	0.983892
H185	H	-0.050410	1.117652	0.415119
H186	H	0.449590	1.617652	0.915119
H187	H	0.050212	1.113129	0.410613
H188	H	0.550212	1.613129	0.910613
C189	C	-0.000121	1.076040	0.071220
C190	C	0.499879	1.576040	0.571220
H191	H	-0.000117	1.115482	0.110387
H192	H	0.499883	1.615482	0.610387
H193	H	-0.050430	1.083834	0.041613
H194	H	0.449570	1.583834	0.541613
H195	H	0.050192	1.079317	0.037104
H196	H	0.550192	1.579317	0.537104
H197	H	0.786144	1.037445	-0.065621
H198	H	1.286144	1.537445	0.434379
H199	H	-0.000090	0.706846	-0.026038
H200	H	0.499910	1.206846	0.473962
C201	C	0.799184	0.840088	-0.262105
C202	C	1.299184	1.340088	0.237895
H203	H	0.859765	0.844560	-0.257629
H204	H	1.359765	1.344560	0.242371
H205	H	0.784324	0.852488	-0.314545
H206	H	1.284324	1.352488	0.185455
H207	H	0.784299	0.787705	-0.249461
H208	H	1.284299	1.287705	0.250539
C209	C	0.391321	1.024649	-0.078383
C210	C	0.891321	1.524649	0.421617
H211	H	0.351264	1.056377	-0.046781
H212	H	0.851264	1.556377	0.453219
H213	H	0.426749	1.057546	-0.110414
H214	H	0.926749	1.557546	0.389586
H215	H	0.426738	0.992746	-0.045347
H216	H	0.926738	1.492746	0.454653
C217	C	-0.000072	0.526825	-0.291505
C218	C	0.499928	1.026825	0.208495
H219	H	-0.000055	0.560162	-0.336778
H220	H	0.499945	1.060162	0.163222
H221	H	-0.050383	0.496822	-0.289636
H222	H	0.449617	0.996822	0.210364
H223	H	0.050239	0.492291	-0.294132
H224	H	0.550239	0.992291	0.205868
H225	H	0.378416	0.828468	-0.273721
H226	H	0.878416	1.328468	0.226279
H227	H	-0.000106	1.076601	0.604207
H228	H	0.499894	1.576601	1.104207
H229	H	-0.000073	0.796692	0.063808
H230	H	0.499927	1.296692	0.563808
H231	H	-0.000079	0.818520	0.586447
H232	H	0.499921	1.318520	1.086447
H233	H	-0.000061	0.830508	0.437328
H234	H	0.499939	1.330508	0.937328
H235	H	-0.000096	0.166449	-0.305945
H236	H	0.499904	0.666449	0.194055
C237	C	-0.000093	0.325927	-0.339202
C238	C	0.499907	0.825927	0.160798
H239	H	-0.000103	0.286763	-0.378646
H240	H	0.499897	0.786763	0.121354
H241	H	0.050214	0.355528	-0.346993
H242	H	0.550214	0.855528	0.153007
H243	H	-0.050408	0.360050	-0.342479
H244	H	0.449592	0.860050	0.157521
