data_functionalizedCrystal
_audit_creation_method	'MofGen! by Chris Wilmer'
_symmetry_space_group_name_H-M	'P1'
_symmetry_Int_Tables_number	1
_symmetry_cell_setting	triclinic
loop_
_symmetry_equiv_pos_as_xyz
  x,y,z
_cell_length_a	12.827893
_cell_length_b	12.594516
_cell_length_c	12.827885
_cell_angle_alpha	90.029730
_cell_angle_beta	90.019272
_cell_angle_gamma	90.011786
loop_
_atom_site_label
_atom_site_type_symbol
_atom_site_fract_x
_atom_site_fract_y
_atom_site_fract_z
Zn1	Zn	1.597696	-0.423691	0.590849
Zn2	Zn	1.597601	-0.601707	0.416110
Zn3	Zn	1.422937	-0.423743	0.416123
Zn4	Zn	1.422933	-0.601628	0.590810
O5	O	1.510292	-0.512693	0.503473
O6	O	1.743919	-0.447317	0.567681
O7	O	1.574393	-0.578155	0.269875
O8	O	1.446160	-0.274791	0.439323
O9	O	1.743849	-0.578105	0.439300
O10	O	1.574555	-0.274752	0.567693
O11	O	1.446068	-0.447405	0.269885
O12	O	1.276700	-0.447329	0.439284
O13	O	1.446154	-0.577970	0.737051
O14	O	1.276698	-0.578020	0.567626
O15	O	1.574551	-0.447240	0.737080
O16	O	1.574389	-0.750643	0.439262
O17	O	1.446062	-0.750584	0.567613
C18	C	1.238782	-0.512672	0.503453
C19	C	1.122629	-0.512689	0.503469
C20	C	1.070870	-0.577460	0.566879
C21	C	0.950820	-0.577479	0.566897
C22	C	1.510243	-0.789234	0.503455
C23	C	1.510318	-0.907539	0.503482
C24	C	1.580196	-0.976785	0.433746
C25	C	1.605734	-1.047478	0.529127
C26	C	1.484911	-1.047644	0.408161
C27	C	1.535905	-0.976674	0.598913
C28	C	1.415037	-0.976834	0.477883
C29	C	1.440539	-1.047495	0.573330
C30	C	1.782862	-0.512714	0.503493
C31	C	1.899015	-0.512723	0.503502
C32	C	1.510363	-0.512590	0.776043
C33	C	1.510393	-0.512547	0.892196
C34	C	1.510369	-0.235072	0.503514
C35	C	1.510401	-0.116766	0.503531
C36	C	1.510281	-0.512718	0.231963
C37	C	1.510453	-0.512461	0.115810
C38	C	1.573935	-0.447845	0.943995
C39	C	1.573968	-0.447799	1.064046
H40	H	0.906308	-0.632935	0.621181
H41	H	0.943519	-0.457271	0.449208
C42	C	1.062441	-0.437789	0.430147
H43	H	1.110481	-0.397144	0.390367
H44	H	1.019834	-0.478492	0.384593
H45	H	1.019888	-0.391502	0.470254
H46	H	1.456053	-0.567862	1.071271
C47	C	1.436929	-0.587336	0.952337
H48	H	1.397054	-0.627930	0.904271
H49	H	1.476939	-0.633658	0.994915
H50	H	1.391453	-0.546553	0.994915
C51	C	1.660033	-0.934829	0.354154
H52	H	1.727730	-0.959016	0.372535
H53	H	1.642621	-0.960168	0.286595
H54	H	1.659015	-0.859406	0.354250
C55	C	1.714629	-1.089411	0.558415
H56	H	1.764172	-1.065207	0.508782
H57	H	1.733189	-1.064067	0.625667
H58	H	1.713711	-1.164833	0.558838
C59	C	1.306168	-0.934873	0.448567
H60	H	1.279378	-0.893357	0.504305
H61	H	1.311163	-0.892345	0.387636
H62	H	1.260786	-0.993039	0.435683
H63	H	1.115434	-0.632895	0.621156
H64	H	1.557349	-0.945633	0.679614
H65	H	1.381481	-1.078347	0.632392
H66	H	1.463387	-1.078817	0.327530
C67	C	1.647397	-0.373059	0.883850
H68	H	1.637744	-0.382907	0.811052
H69	H	1.632150	-0.301519	0.901695
H70	H	1.717631	-0.388629	0.901688
H71	H	1.628372	-0.392409	1.108592
