data_functionalizedCrystal
_audit_creation_method	'MofGen! by Chris Wilmer'
_symmetry_space_group_name_H-M	'P1'
_symmetry_Int_Tables_number	1
_symmetry_cell_setting	triclinic
loop_
_symmetry_equiv_pos_as_xyz
  x,y,z
_cell_length_a	16.120490
_cell_length_b	16.120256
_cell_length_c	16.120484
_cell_angle_alpha	84.383827
_cell_angle_beta	89.835900
_cell_angle_gamma	90.129807
loop_
_atom_site_label
_atom_site_type_symbol
_atom_site_fract_x
_atom_site_fract_y
_atom_site_fract_z
Zn1	Zn	1.224989	-0.554790	0.422348
Zn2	Zn	1.224885	-0.422094	0.555028
Zn3	Zn	1.093728	-0.408035	0.408252
Zn4	Zn	1.078881	-0.554030	0.554256
O5	O	1.155621	-0.484737	0.484971
O6	O	1.341011	-0.543389	0.446170
O7	O	1.213656	-0.303596	0.529981
O8	O	1.117397	-0.421936	0.293491
O9	O	1.340935	-0.445898	0.543649
O10	O	1.213834	-0.529756	0.303847
O11	O	1.117296	-0.293266	0.422146
O12	O	0.975723	-0.421199	0.421398
O13	O	1.092093	-0.670765	0.542335
O14	O	0.964815	-0.528462	0.528666
O15	O	1.199438	-0.671323	0.445422
O16	O	1.199260	-0.445162	0.671556
O17	O	1.091992	-0.542095	0.670989
C18	C	0.940182	-0.473223	0.473419
C19	C	0.848014	-0.468318	0.468499
C20	C	0.632819	-0.510182	0.510489
C21	C	0.679266	-0.459362	0.459522
C22	C	0.773166	-0.464347	0.464518
C23	C	0.538911	-0.505198	0.505494
C24	C	1.144121	-0.702131	0.495365
C25	C	1.139220	-0.794771	0.499794
C26	C	1.181177	-1.005935	0.461852
C27	C	1.130247	-0.964378	0.507844
C28	C	1.135241	-0.870000	0.503364
C29	C	1.176183	-1.100321	0.466331
C30	C	1.371901	-0.496297	0.496568
C31	C	1.464067	-0.501223	0.501510
C32	C	1.144025	-0.495091	0.701515
C33	C	1.139139	-0.499552	0.794160
C34	C	1.167127	-0.268189	0.474560
C35	C	1.172201	-0.175546	0.469905
C36	C	1.167283	-0.474362	0.267583
C37	C	1.172253	-0.469941	0.174945
C38	C	1.130221	-0.507715	0.963782
C39	C	1.181168	-0.461781	1.005327
C40	C	1.176206	-0.466323	1.099711
C41	C	1.135182	-0.503174	0.869390
H42	H	0.663573	-0.557429	0.557873
H43	H	1.082882	-0.550447	0.999097
H44	H	0.648510	-0.412110	0.412135
H45	H	1.228526	-0.970635	0.419115
H46	H	1.082889	-0.999679	0.550580
H47	H	1.228510	-0.419045	0.970010
