data_functionalizedCrystal
_audit_creation_method	'MofGen! by Chris Wilmer'
_symmetry_space_group_name_H-M	'P1'
_symmetry_Int_Tables_number	1
_symmetry_cell_setting	triclinic
loop_
_symmetry_equiv_pos_as_xyz
  x,y,z
_cell_length_a	10.489741
_cell_length_b	17.699083
_cell_length_c	16.776229
_cell_angle_alpha	90.001114
_cell_angle_beta	89.993659
_cell_angle_gamma	96.088906
loop_
_atom_site_label
_atom_site_type_symbol
_atom_site_fract_x
_atom_site_fract_y
_atom_site_fract_z
O1	O	0.161296	-1.005134	-0.066176
O2	O	0.182281	-0.784893	-0.066202
O3	O	-0.013903	-0.900025	-0.066184
O4	O	0.357479	-0.890002	-0.066194
O5	O	-0.013915	-0.900009	0.066393
O6	O	0.182269	-0.784877	0.066375
O7	O	0.161284	-1.005118	0.066401
Zn8	Zn	0.171774	-0.894995	0.087437
Zn9	Zn	0.171790	-0.895016	-0.087238
O10	O	0.357467	-0.889986	0.066382
C11	C	0.181523	-0.756683	0.000083
C12	C	0.179267	-0.672650	0.000073
C13	C	-0.061427	-0.899260	0.000104
C14	C	-0.203014	-0.896995	0.000102
N15	N	0.171763	-0.894987	0.206648
C16	C	-0.269793	-0.823740	0.000088
C17	C	-0.362564	-0.858337	0.065459
C18	C	-0.362527	-0.858370	-0.065251
C19	C	-0.293920	-0.931623	0.065528
C20	C	-0.293874	-0.931645	-0.065241
C21	C	-0.386619	-0.966296	0.000146
C22	C	0.404991	-0.890751	0.000093
C23	C	0.546578	-0.893016	0.000089
C24	C	0.162042	-1.033328	0.000114
C25	C	0.164297	-1.117361	0.000119
C26	C	0.294422	-0.624782	0.000070
C27	C	0.292295	-0.545825	0.000080
C28	C	0.175011	-0.514737	0.000088
C29	C	0.059847	-0.562611	0.000094
C30	C	0.061975	-0.641567	0.000089
C31	C	0.051260	-0.244192	0.000114
C32	C	0.049140	-0.165230	0.000116
C33	C	0.281580	-0.148450	0.000105
C34	C	0.283709	-0.227406	0.000100
C35	C	0.168545	-0.275273	0.000110
C36	C	0.170853	-0.360887	0.000100
C37	C	0.172702	-0.429124	0.000092
N38	N	0.171791	-0.895030	-0.206450
C39	C	0.084928	-0.945983	0.248373
C40	C	0.084927	-0.945987	0.331826
C41	C	0.171767	-0.894998	0.373551
C42	C	0.258606	-0.843996	0.331820
C43	C	0.258600	-0.843989	0.248369
C44	C	0.258631	-0.844024	0.668367
C45	C	0.258633	-0.844037	0.751824
C46	C	0.084958	-0.946022	0.751823
C47	C	0.084952	-0.946015	0.668373
C48	C	0.171786	-0.895011	0.626649
C49	C	0.171784	-0.895006	0.536161
C50	C	0.171776	-0.895006	0.464038
H51	H	-0.393005	-0.827335	0.120719
N52	N	-0.066370	-0.293082	0.000101
N53	N	-0.091109	-0.339010	-0.055786
H54	H	-0.174190	-0.373543	-0.055797
N55	N	0.347335	-0.791955	0.794459
N56	N	0.426462	-0.816398	0.841015
H57	H	0.489105	-0.779619	0.871128
N58	N	-0.003816	-0.998070	0.374426
N59	N	-0.121699	-0.996379	0.365086
H60	H	-0.184392	-1.033163	0.395165
N61	N	0.414216	-0.656547	0.000055
N62	N	0.441342	-0.698731	-0.055832
H63	H	0.525950	-0.721164	-0.055841
N64	N	-0.003741	-0.998115	0.794457
N65	N	-0.003734	-0.998116	0.868966
H66	H	-0.066374	-1.034906	0.899075
N67	N	0.347321	-0.791900	0.205758
N68	N	0.465214	-0.793576	0.215067
H69	H	0.527874	-0.756784	0.184974
N70	N	-0.255613	-0.970500	-0.134562
N71	N	-0.140064	-0.978941	-0.145325
H72	H	-0.113038	-1.006379	-0.194289
H73	H	-0.219023	-0.763510	0.000147
H74	H	0.375352	-0.109467	0.000101
H75	H	0.329336	-0.802496	0.634402
N76	N	-0.400664	-0.819470	-0.134574
N77	N	-0.358273	-0.751675	-0.146209
H78	H	-0.385203	-0.724195	-0.195165
N79	N	0.347295	-0.791911	0.374451
N80	N	0.347290	-0.791923	0.448960
H81	H	0.409929	-0.755138	0.479068
H82	H	-0.263669	-0.962585	0.120856
N83	N	-0.003745	-0.998114	0.625765
N84	N	-0.081266	-1.043647	0.663030
H85	H	-0.143910	-1.080445	0.632940
H86	H	0.014218	-0.987507	0.214406
H87	H	0.379213	-0.252713	0.000090
H88	H	-0.046372	-0.139922	0.000123
N89	N	-0.450015	-1.041923	0.000204
N90	N	-0.432374	-1.086022	0.056384
H91	H	-0.477148	-1.139435	0.056428
H92	H	0.386067	-0.506854	0.000077
H93	H	-0.035648	-0.537293	0.000111
H94	H	-0.031796	-0.680540	0.000091
