data_functionalizedCrystal
_audit_creation_method	'MofGen! by Chris Wilmer'
_symmetry_space_group_name_H-M	'P1'
_symmetry_Int_Tables_number	1
_symmetry_cell_setting	triclinic
loop_
_symmetry_equiv_pos_as_xyz
  x,y,z
_cell_length_a	16.625546
_cell_length_b	13.032831
_cell_length_c	13.034356
_cell_angle_alpha	105.184960
_cell_angle_beta	82.786847
_cell_angle_gamma	97.173222
loop_
_atom_site_label
_atom_site_type_symbol
_atom_site_fract_x
_atom_site_fract_y
_atom_site_fract_z
Zn1	Zn	-0.408762	-1.700143	-0.806413
Zn2	Zn	0.091238	-1.200143	-0.306413
Zn3	Zn	-0.558798	-1.677440	-0.628773
Zn4	Zn	-0.058798	-1.177440	-0.128773
Zn5	Zn	-0.408769	-1.499948	-0.606296
Zn6	Zn	0.091231	-0.999948	-0.106296
Zn7	Zn	-0.528336	-1.522474	-0.783828
Zn8	Zn	-0.028336	-1.022474	-0.283828
O9	O	-0.476167	-1.600001	-0.706328
O10	O	0.023833	-1.100001	-0.206328
O11	O	-0.441411	-1.845768	-0.801708
O12	O	0.058589	-1.345768	-0.301708
O13	O	-0.551648	-1.634967	-0.477151
O14	O	-0.051648	-1.134967	0.022849
O15	O	-0.295939	-1.526579	-0.632887
O16	O	0.204061	-1.026579	-0.132887
O17	O	-0.551642	-1.829088	-0.671196
O18	O	-0.051642	-1.329088	-0.171196
O19	O	-0.295934	-1.673661	-0.779913
O20	O	0.204066	-1.173661	-0.279913
O21	O	-0.441423	-1.504564	-0.460637
O22	O	0.058577	-1.004564	0.039363
O23	O	-0.411884	-1.354300	-0.610987
O24	O	0.088116	-0.854300	-0.110987
O25	O	-0.499722	-1.564970	-0.935465
O26	O	0.000278	-1.064970	-0.435465
O27	O	-0.499729	-1.370849	-0.741419
O28	O	0.000271	-0.870849	-0.241419
O29	O	-0.411872	-1.695503	-0.952058
O30	O	0.088128	-1.195503	-0.452058
O31	O	-0.667587	-1.656809	-0.649296
O32	O	-0.167587	-1.156809	-0.149296
O33	O	-0.645206	-1.542956	-0.763215
O34	O	-0.145206	-1.042956	-0.263215
C35	C	-0.452502	-1.324035	-0.671314
C36	C	0.047498	-0.824035	-0.171314
C37	C	-0.442396	-1.205978	-0.656360
C38	C	0.057604	-0.705978	-0.156360
C39	C	-0.685653	-1.599895	-0.706270
C40	C	-0.185653	-1.099895	-0.206270
C41	C	-0.775277	-1.599951	-0.706294
C42	C	-0.275277	-1.099951	-0.206294
C43	C	-0.452399	-1.635282	-0.983380
C44	C	0.047601	-1.135282	-0.483380
C45	C	-0.442270	-1.650317	-1.101444
C46	C	0.057730	-1.150317	-0.601444
C47	C	-1.103459	-1.600151	-0.706428
C48	C	-0.603459	-1.100151	-0.206428
C49	C	-1.012148	-1.600092	-0.706393
C50	C	-0.512148	-1.100092	-0.206393
C51	C	-0.939371	-1.600050	-0.706360
C52	C	-0.439371	-1.100050	-0.206360
C53	C	-0.848054	-1.599993	-0.706327
C54	C	-0.348054	-1.099993	-0.206327
C55	C	-0.265863	-1.600140	-0.706412
C56	C	0.234137	-1.100140	-0.206412
C57	C	-0.176244	-1.600199	-0.706448
C58	C	0.323756	-1.100199	-0.206448
C59	C	-0.499924	-1.877045	-0.741479
C60	C	0.000076	-1.377045	-0.241479
C61	C	-0.510047	-1.995105	-0.756458
C62	C	-0.010047	-1.495105	-0.256458
C63	C	-0.481441	-1.161549	-0.714132
C64	C	0.018559	-0.661549	-0.214132
C65	C	-0.470997	-1.039531	-0.698678
C66	C	0.029003	-0.539531	-0.198678
C67	C	-0.470758	-1.607970	-1.267894
C68	C	0.029242	-1.107970	-0.767894
C69	C	-0.481226	-1.592429	-1.145870
C70	C	0.018774	-1.092429	-0.645870
C71	C	-0.499789	-1.564919	-0.430361
C72	C	0.000211	-1.064919	0.069639
C73	C	-0.509708	-1.550090	-0.312324
C74	C	-0.009708	-1.050090	0.187676
H75	H	-0.522598	-1.213844	-0.775037
H76	H	-0.022598	-0.713844	-0.275037
H77	H	-0.429830	-0.987240	-0.637777
H78	H	0.070170	-0.487240	-0.137777
H79	H	-0.522329	-1.531369	-1.093573
H80	H	-0.022329	-1.031369	-0.593573
H81	H	-0.429665	-1.669034	-1.320196
H82	H	0.070335	-1.169034	-0.820196
H83	H	-0.401173	-1.711383	-1.153740
H84	H	0.098827	-1.211383	-0.653740
H85	H	-0.401232	-1.153684	-0.595463
H86	H	0.098768	-0.653684	-0.095463
H87	H	-0.551205	-1.047396	-0.817370
H88	H	-0.051205	-0.547396	-0.317370
H89	H	-0.550808	-1.489035	-1.260024
H90	H	-0.050808	-0.989035	-0.760024
