data_functionalizedCrystal
_audit_creation_method	'MofGen! by Chris Wilmer'
_symmetry_space_group_name_H-M	'P1'
_symmetry_Int_Tables_number	1
_symmetry_cell_setting	triclinic
loop_
_symmetry_equiv_pos_as_xyz
  x,y,z
_cell_length_a	16.625548
_cell_length_b	16.625545
_cell_length_c	16.625539
_cell_angle_alpha	90.026370
_cell_angle_beta	90.018832
_cell_angle_gamma	90.023896
loop_
_atom_site_label
_atom_site_type_symbol
_atom_site_fract_x
_atom_site_fract_y
_atom_site_fract_z
Zn1	Zn	-1.232644	0.321018	-0.455948
Zn2	Zn	-0.982644	0.571018	-0.205948
Zn3	Zn	-0.732644	0.821018	0.044052
Zn4	Zn	-0.482644	1.071018	0.294052
Zn5	Zn	-1.232552	0.455857	-0.321115
Zn6	Zn	-0.982552	0.705857	-0.071115
Zn7	Zn	-0.732552	0.955857	0.178885
Zn8	Zn	-0.482552	1.205857	0.428885
Zn9	Zn	-1.097814	0.321042	-0.321124
Zn10	Zn	-0.847814	0.571042	-0.071124
Zn11	Zn	-0.597814	0.821042	0.178876
Zn12	Zn	-0.347814	1.071042	0.428876
Zn13	Zn	-1.097772	0.455812	-0.455901
Zn14	Zn	-0.847772	0.705812	-0.205901
Zn15	Zn	-0.597772	0.955812	0.044099
Zn16	Zn	-0.347772	1.205812	0.294099
O17	O	-1.165195	0.388432	-0.388522
O18	O	-0.915195	0.638432	-0.138522
O19	O	-0.665195	0.888432	0.111478
O20	O	-0.415195	1.138432	0.361478
O21	O	-1.345464	0.338914	-0.438078
O22	O	-1.095464	0.588914	-0.188078
O23	O	-0.845464	0.838914	0.061922
O24	O	-0.595464	1.088914	0.311922
O25	O	-1.214657	0.438002	-0.208284
O26	O	-0.964657	0.688002	0.041716
O27	O	-0.714657	0.938002	0.291716
O28	O	-0.464657	1.188002	0.541716
O29	O	-1.115755	0.208206	-0.339032
O30	O	-0.865755	0.458206	-0.089032
O31	O	-0.615755	0.708206	0.160968
O32	O	-0.365755	0.958206	0.410968
O33	O	-1.345396	0.437979	-0.339017
O34	O	-1.095396	0.687979	-0.089017
O35	O	-0.845396	0.937979	0.160983
O36	O	-0.595396	1.187979	0.410983
O37	O	-1.214814	0.208189	-0.438087
O38	O	-0.964814	0.458189	-0.188087
O39	O	-0.714814	0.708189	0.061913
O40	O	-0.464814	0.958189	0.311913
O41	O	-1.115666	0.338954	-0.208291
O42	O	-0.865666	0.588954	0.041709
O43	O	-0.615666	0.838954	0.291709
O44	O	-0.365666	1.088954	0.541709
O45	O	-0.984976	0.338910	-0.338987
O46	O	-0.734976	0.588910	-0.088987
O47	O	-0.484976	0.838910	0.161013
O48	O	-0.234976	1.088910	0.411013
O49	O	-1.115684	0.437903	-0.568740
O50	O	-0.865684	0.687903	-0.318740
O51	O	-0.615684	0.937903	-0.068740
O52	O	-0.365684	1.187903	0.181260
O53	O	-0.984945	0.437926	-0.438007
O54	O	-0.734945	0.687926	-0.188007
O55	O	-0.484945	0.937926	0.061993
O56	O	-0.234945	1.187926	0.311993
O57	O	-1.214774	0.338870	-0.568774
O58	O	-0.964774	0.588870	-0.318774
O59	O	-0.714774	0.838870	-0.068774
O60	O	-0.464774	1.088870	0.181226
O61	O	-1.214617	0.568683	-0.338972
O62	O	-0.964617	0.818683	-0.088972
O63	O	-0.714617	1.068683	0.161028
O64	O	-0.464617	1.318683	0.411028
O65	O	-1.115595	0.568650	-0.437998
O66	O	-0.865595	0.818650	-0.187998
O67	O	-0.615595	1.068650	0.062002
O68	O	-0.365595	1.318650	0.312002
C69	C	-0.955704	0.388416	-0.388493
C70	C	-0.705704	0.638416	-0.138493
C71	C	-0.455704	0.888416	0.111507
C72	C	-0.205704	1.138416	0.361507
C73	C	-0.866083	0.388429	-0.388500
C74	C	-0.616083	0.638429	-0.138500
C75	C	-0.366083	0.888429	0.111500
C76	C	-0.116083	1.138429	0.361500
C77	C	-1.165113	0.597923	-0.388496
C78	C	-0.915113	0.847923	-0.138496
C79	C	-0.665113	1.097923	0.111504
C80	C	-0.415113	1.347923	0.361504
C81	C	-1.165152	0.687544	-0.388512
C82	C	-0.915152	0.937544	-0.138512
C83	C	-0.665152	1.187544	0.111488
C84	C	-0.415152	1.437544	0.361488
C85	C	-0.537908	0.388427	-0.388524
C86	C	-0.287908	0.638427	-0.138524
C87	C	-0.037908	0.888427	0.111476
C88	C	0.212092	1.138427	0.361476
C89	C	-0.629216	0.388425	-0.388515
C90	C	-0.379216	0.638425	-0.138515
C91	C	-0.129216	0.888425	0.111485
C92	C	0.120784	1.138425	0.361485
C93	C	-0.701993	0.388428	-0.388511
C94	C	-0.451993	0.638428	-0.138511
C95	C	-0.201993	0.888428	0.111489
C96	C	0.048007	1.138428	0.361489
C97	C	-0.793307	0.388426	-0.388503
C98	C	-0.543307	0.638426	-0.138503
C99	C	-0.293307	0.888426	0.111497
C100	C	-0.043307	1.138426	0.361497
C101	C	-1.165235	0.388379	-0.598831
C102	C	-0.915235	0.638379	-0.348831
C103	C	-0.665235	0.888379	-0.098831
C104	C	-0.415235	1.138379	0.151169
C105	C	-1.165252	0.388356	-0.688452
C106	C	-0.915252	0.638356	-0.438452
C107	C	-0.665252	0.888356	-0.188452
C108	C	-0.415252	1.138356	0.061548
C109	C	-0.375504	0.388443	-0.388544
C110	C	-0.125504	0.638443	-0.138544
C111	C	0.124496	0.888443	0.111456
C112	C	0.374496	1.138443	0.361456
C113	C	-0.465125	0.388435	-0.388533
C114	C	-0.215125	0.638435	-0.138533
C115	C	0.034875	0.888435	0.111467
C116	C	0.284875	1.138435	0.361467
C117	C	-1.165284	1.015720	-0.388609
C118	C	-0.915284	1.265720	-0.138609
C119	C	-0.665284	1.515720	0.111391
C120	C	-0.415284	1.765720	0.361391
C121	C	-1.165244	0.924411	-0.388584
C122	C	-0.915244	1.174411	-0.138584
C123	C	-0.665244	1.424411	0.111416
C124	C	-0.415244	1.674411	0.361416
C125	C	-1.165217	0.851635	-0.388560
C126	C	-0.915217	1.101635	-0.138560
C127	C	-0.665217	1.351635	0.111440
C128	C	-0.415217	1.601635	0.361440
C129	C	-1.165179	0.760320	-0.388536
C130	C	-0.915179	1.010320	-0.138536
C131	C	-0.665179	1.260320	0.111464
C132	C	-0.415179	1.510320	0.361464
C133	C	-1.165293	1.178123	-0.388575
C134	C	-0.915293	1.428123	-0.138575
C135	C	-0.665293	1.678123	0.111425
C136	C	-0.415293	1.928123	0.361425
C137	C	-1.165317	1.088502	-0.388622
C138	C	-0.915317	1.338502	-0.138622
C139	C	-0.665317	1.588502	0.111378
C140	C	-0.415317	1.838502	0.361378
C141	C	-1.165265	0.388338	-0.761235
C142	C	-0.915265	0.638338	-0.511235
C143	C	-0.665265	0.888338	-0.261235
C144	C	-0.415265	1.138338	-0.011235
C145	C	-1.165284	0.388308	-0.852543
C146	C	-0.915284	0.638308	-0.602543
C147	C	-0.665284	0.888308	-0.352543
C148	C	-0.415284	1.138308	-0.102543
C149	C	-1.165303	0.388280	-0.925320
C150	C	-0.915303	0.638280	-0.675320
C151	C	-0.665303	0.888280	-0.425320
C152	C	-0.415303	1.138280	-0.175320
C153	C	-1.165323	0.388251	-1.016634
C154	C	-0.915323	0.638251	-0.766634
C155	C	-0.665323	0.888251	-0.516634
C156	C	-0.415323	1.138251	-0.266634
C157	C	-1.165202	0.388427	-0.179031
C158	C	-0.915202	0.638427	0.070969
C159	C	-0.665202	0.888427	0.320969
C160	C	-0.415202	1.138427	0.570969
C161	C	-1.165342	0.388222	-0.089411
C162	C	-0.915342	0.638222	0.160589
C163	C	-0.665342	0.888222	0.410589
C164	C	-0.415342	1.138222	0.660589
