data_functionalizedCrystal
_audit_creation_method	'MofGen! by Chris Wilmer'
_symmetry_space_group_name_H-M	'P1'
_symmetry_Int_Tables_number	1
_symmetry_cell_setting	triclinic
loop_
_symmetry_equiv_pos_as_xyz
  x,y,z
_cell_length_a	10.723024
_cell_length_b	15.995350
_cell_length_c	9.798715
_cell_angle_alpha	89.999084
_cell_angle_beta	89.996609
_cell_angle_gamma	83.980122
loop_
_atom_site_label
_atom_site_type_symbol
_atom_site_fract_x
_atom_site_fract_y
_atom_site_fract_z
O1	O	1.655689	0.117435	-0.113475
O2	O	1.292393	0.128675	-0.113479
O3	O	1.483972	0.001224	-0.113475
O4	O	1.464110	0.244886	-0.113478
O5	O	1.483958	0.001224	0.113507
O6	O	1.292379	0.128675	0.113503
O7	O	1.655675	0.117434	0.113507
Zn8	Zn	1.474025	0.123055	0.149544
Zn9	Zn	1.474044	0.123055	-0.149515
O10	O	1.464096	0.244885	0.113504
C11	C	1.245897	0.127857	0.000012
C12	C	1.107374	0.125410	0.000010
C13	C	1.031482	0.196725	0.000008
C14	C	0.888310	0.194197	0.000007
C15	C	1.483144	-0.029975	0.000013
C16	C	1.480682	-0.122940	0.000005
C17	C	1.471842	-0.460738	0.000010
C18	C	1.335403	-0.414088	-0.000501
C19	C	1.337865	-0.317383	0.000011
C20	C	1.476227	-0.293152	0.000007
C21	C	1.543515	-0.333843	0.129623
C22	C	1.540088	-0.430499	0.129732
C23	C	1.542922	-0.430840	-0.128390
C24	C	1.542890	-0.333895	-0.130103
C25	C	1.478712	-0.198441	0.000010
C26	C	1.469360	-0.555450	0.000016
C27	C	1.702171	0.118252	0.000014
C28	C	1.840694	0.120700	0.000007
C29	C	1.464924	0.276085	0.000013
C30	C	1.467386	0.369049	0.000011
N31	N	1.474021	0.123054	0.353643
N32	N	1.474057	0.123049	-0.353615
C33	C	1.554463	0.069305	0.421422
C34	C	1.554483	0.069302	0.578584
H35	H	0.905898	0.059646	-0.000001
H36	H	1.491009	-0.449082	0.226625
H37	H	1.066355	0.062483	-0.000024
O38	O	1.263472	-0.440436	0.121942
H39	H	1.324476	-0.486612	0.183163
O40	O	1.267779	-0.280124	-0.123042
H41	H	1.231814	-0.331174	-0.183452
O42	O	1.672764	-0.472465	0.137561
H43	H	1.726700	-0.453641	0.047988
O44	O	1.263147	-0.439060	-0.123600
H45	H	1.323702	-0.484991	-0.185735
H46	H	1.284604	-0.289825	0.093082
O47	O	1.678160	-0.314355	0.136033
H48	H	1.698595	-0.275365	0.046692
O49	O	1.481608	-0.296610	0.257405
H50	H	1.402926	-0.249137	0.228924
H51	H	1.498320	-0.451636	-0.226631
H52	H	1.405188	0.169072	0.588108
H53	H	1.493694	-0.306929	-0.225989
H54	H	1.405162	0.169065	0.411967
H55	H	1.643790	-0.317954	-0.137932
H56	H	1.072501	0.259651	0.000015
H57	H	0.823099	0.255248	-0.000000
H58	H	1.643518	-0.462023	-0.129264
O59	O	1.645650	0.008345	0.344157
H60	H	1.743032	0.019392	0.371466
H61	H	1.623357	0.023288	0.636871
