data_functionalizedCrystal
_audit_creation_method	'MofGen! by Chris Wilmer'
_symmetry_space_group_name_H-M	'P1'
_symmetry_Int_Tables_number	1
_symmetry_cell_setting	triclinic
loop_
_symmetry_equiv_pos_as_xyz
  x,y,z
_cell_length_a	23.532407
_cell_length_b	22.610064
_cell_length_c	23.532407
_cell_angle_alpha	89.990850
_cell_angle_beta	97.151322
_cell_angle_gamma	90.009934
loop_
_atom_site_label
_atom_site_type_symbol
_atom_site_fract_x
_atom_site_fract_y
_atom_site_fract_z
O1	O	0.755269	0.049117	-0.069133
O2	O	0.589405	0.049135	-0.079137
O3	O	0.677338	0.049114	0.008797
O4	O	0.667335	0.049137	-0.157067
O5	O	0.677313	-0.049255	0.008797
O6	O	0.589380	-0.049234	-0.079137
O7	O	0.755243	-0.049252	-0.069133
Zn8	Zn	0.672307	-0.064862	-0.074135
Zn9	Zn	0.672341	0.064744	-0.074135
O10	O	0.667310	-0.049232	-0.157067
C11	C	0.568176	-0.000048	-0.078882
C12	C	0.504959	-0.000041	-0.078116
N13	N	0.672288	-0.153314	-0.074135
C14	C	0.105856	-0.000061	-0.125350
C15	C	0.046456	-0.000065	-0.124638
O16	O	0.009711	-0.000081	-0.168424
N17	N	0.023830	-0.000071	-0.072362
C18	C	0.060607	-0.000080	-0.020794
O19	O	0.035908	-0.000086	0.023737
C20	C	0.120006	-0.000080	-0.021506
C21	C	0.142629	-0.000068	-0.073785
C22	C	0.128479	-0.000050	-0.177625
C23	C	0.187876	-0.000045	-0.178336
C24	C	0.224649	-0.000052	-0.126772
C25	C	0.202025	-0.000063	-0.074497
C26	C	0.156783	-0.000093	0.030062
C27	C	0.216185	-0.000094	0.029345
C28	C	0.238808	-0.000082	-0.022934
C29	C	0.298194	-0.000065	-0.023643
N30	N	0.320820	-0.000059	-0.075920
C31	C	0.284048	-0.000052	-0.127484
C32	C	-0.064135	-0.000080	-0.019302
C33	C	-0.123533	-0.000075	-0.018589
C34	C	-0.137680	-0.000061	-0.122434
C35	C	-0.078281	-0.000062	-0.123146
C36	C	-0.041509	-0.000074	-0.071578
C37	C	0.408784	-0.000042	-0.128974
C38	C	0.468186	-0.000034	-0.129680
C39	C	0.482329	-0.000051	-0.025836
C40	C	0.422932	-0.000055	-0.025129
C41	C	0.386160	-0.000052	-0.076702
O42	O	0.334974	-0.000052	0.020119
O43	O	0.308755	-0.000054	-0.172007
C44	C	0.706686	-0.561955	-0.108496
C45	C	0.706693	-0.623874	-0.108494
O46	O	0.735916	-0.655892	-0.137705
N47	N	0.672352	-0.654851	-0.074128
C48	C	0.638006	-0.623905	-0.039758
O49	O	0.608797	-0.655939	-0.010527
C50	C	0.638002	-0.561986	-0.039757
C51	C	0.672341	-0.531013	-0.074129
C52	C	0.741022	-0.530981	-0.142864
C53	C	0.741014	-0.469065	-0.142867
C54	C	0.706669	-0.438123	-0.108500
C55	C	0.672333	-0.469097	-0.074131
C56	C	0.603660	-0.531041	-0.005383
C57	C	0.603659	-0.469118	-0.005384
C58	C	0.637998	-0.438144	-0.039757
C59	C	0.637980	-0.376239	-0.039766
N60	N	0.672321	-0.345262	-0.074132
C61	C	0.706666	-0.376204	-0.108498
C62	C	0.638017	-0.753938	-0.039762
C63	C	0.638017	-0.815856	-0.039766
C64	C	0.706705	-0.815821	-0.108502
C65	C	0.706701	-0.753903	-0.108501
C66	C	0.672358	-0.722962	-0.074128
C67	C	0.706646	-0.246177	-0.108501
C68	C	0.706633	-0.184256	-0.108502
C69	C	0.637948	-0.184296	-0.039764
C70	C	0.637958	-0.246212	-0.039765
C71	C	0.672312	-0.277151	-0.074135
O72	O	0.608774	-0.344182	-0.010568
O73	O	0.735875	-0.344163	-0.137719
C74	C	0.776472	-0.000069	-0.069388
C75	C	0.839689	-0.000071	-0.070154
C76	C	0.677071	-0.000072	0.030013
C77	C	0.676305	-0.000076	0.093230
N78	N	0.672364	0.153196	-0.074131
C79	C	0.667577	-0.000045	-0.178283
C80	C	0.668343	-0.000036	-0.241500
C81	C	0.723539	-0.000049	0.492333
C82	C	0.722827	-0.000044	0.551733
O83	O	0.766613	-0.000027	0.588478
N84	N	0.670551	-0.000039	0.574359
C85	C	0.618983	-0.000032	0.537582
O86	O	0.574452	-0.000027	0.562281
C87	C	0.619695	-0.000033	0.478182
C88	C	0.671974	-0.000044	0.455560
C89	C	0.775814	-0.000060	0.469710
C90	C	0.776525	-0.000065	0.410313
C91	C	0.724961	-0.000060	0.373540
C92	C	0.672685	-0.000050	0.396164
C93	C	0.568127	-0.000022	0.441406
C94	C	0.568844	-0.000021	0.382004
C95	C	0.621123	-0.000033	0.359381
C96	C	0.621832	-0.000050	0.299995
N97	N	0.674109	-0.000056	0.277368
C98	C	0.725673	-0.000061	0.314141
C99	C	0.617491	-0.000031	0.662324
C100	C	0.616778	-0.000034	0.721722
C101	C	0.720623	-0.000045	0.735869
C102	C	0.721335	-0.000046	0.676470
C103	C	0.669767	-0.000036	0.639698
C104	C	0.727163	-0.000073	0.189405
C105	C	0.727869	-0.000081	0.130003
C106	C	0.624025	-0.000067	0.115860
C107	C	0.623318	-0.000062	0.175257
C108	C	0.674891	-0.000063	0.212029
O109	O	0.578070	-0.000065	0.263215
O110	O	0.770196	-0.000058	0.289433
H111	H	0.378851	-0.000041	-0.170970
H112	H	0.575693	-0.443929	0.022607
H113	H	-0.059867	-0.000055	-0.165717
O114	O	0.604583	-0.276210	-0.006327
C115	C	0.536429	-0.269698	0.061824
C116	C	0.574204	-0.235658	0.023987
H117	H	0.511849	-0.236927	0.086334
H118	H	0.564597	-0.298663	0.093462
H119	H	0.504844	-0.298713	0.033650
H120	H	0.605794	-0.206612	0.052115
H121	H	0.546001	-0.206731	-0.007655
H122	H	0.763906	-0.000054	0.658056
H123	H	0.770443	-0.000092	0.111587
H124	H	0.512280	-0.000054	0.016146
H125	H	0.609984	-0.159092	-0.011785
O126	O	0.777313	-0.000102	0.225038
C127	C	0.880386	-0.000086	0.232785
C128	C	0.823635	-0.000062	0.192366
H129	H	0.917853	-0.000041	0.206386
H130	H	0.882681	-0.041262	0.260945
H131	H	0.882636	0.041073	0.260952
H132	H	0.821348	-0.041193	0.164163
H133	H	0.821364	0.041141	0.164246
O134	O	0.209752	-0.000067	-0.229171
C135	C	0.189428	-0.000026	-0.332094
C136	C	0.164583	-0.000012	-0.274561
H137	H	0.152922	0.000030	-0.368807
H138	H	0.216854	-0.041204	-0.335064
H139	H	0.216910	0.041131	-0.335001
H140	H	0.137076	-0.041141	-0.271616
H141	H	0.137190	0.041193	-0.271616
H142	H	0.734670	-0.841026	-0.136486
H143	H	0.098544	-0.000046	-0.219617
O144	O	0.827360	-0.000045	0.388437
C145	C	0.930283	-0.000088	0.408760
C146	C	0.872750	-0.000099	0.433606
H147	H	0.966996	-0.000144	0.445267
H148	H	0.933266	0.041088	0.381321
H149	H	0.933177	-0.041246	0.381292
H150	H	0.869817	0.041032	0.461100
H151	H	0.869792	-0.041303	0.461012
O152	O	0.825893	0.000039	0.505448
C153	C	0.885375	0.050969	0.580731
C154	C	0.828641	0.050944	0.540287
H155	H	0.887610	0.092115	0.608917
H156	H	0.922876	0.051001	0.554376
H157	H	0.887624	0.009782	0.608872
H158	H	0.826337	0.092124	0.512138
H159	H	0.791167	0.050882	0.566676
H160	H	0.246123	-0.000104	0.071339
O161	O	0.740029	-0.276134	-0.141942
C162	C	0.808177	-0.269548	-0.210097
C163	C	0.770391	-0.235549	-0.172260
H164	H	0.832743	-0.236750	-0.234610
H165	H	0.780018	-0.298523	-0.241733
H166	H	0.839774	-0.298548	-0.181923
H167	H	0.738789	-0.206517	-0.200388
H168	H	0.798586	-0.206611	-0.140621
O169	O	0.134886	-0.000031	0.080884
C170	C	0.128808	0.050919	0.169855
C171	C	0.153651	0.050918	0.112321
H172	H	0.143959	0.092113	0.195283
H173	H	0.143994	0.009773	0.195349
H174	H	0.080037	0.050890	0.161506
H175	H	0.202422	0.050969	0.120618
H176	H	0.138420	0.092061	0.086845
O177	O	0.604641	-0.845850	-0.006329
C178	C	0.536487	-0.839335	0.061821
C179	C	0.574265	-0.805297	0.023987
H180	H	0.511909	-0.806563	0.086332
H181	H	0.564652	-0.868304	0.093458
H182	H	0.504900	-0.868346	0.033645
H183	H	0.605857	-0.776254	0.052117
H184	H	0.546065	-0.776366	-0.007654
O185	O	-0.173384	0.000045	-0.172541
C186	C	-0.203633	0.050995	-0.261095
C187	C	-0.163176	0.050954	-0.204369
H188	H	-0.195386	0.092144	-0.286849
H189	H	-0.249983	0.051028	-0.251636
H190	H	-0.195454	0.009811	-0.286814
H191	H	-0.171304	0.092131	-0.178622
H192	H	-0.116839	0.050890	-0.213869
H193	H	0.762610	-0.000047	0.765821
H194	H	-0.034198	-0.000084	0.022693
O195	O	0.565944	-0.000004	0.743599
C196	C	0.463020	-0.000028	0.723281
C197	C	0.520552	-0.000053	0.698433
H198	H	0.426306	-0.000081	0.686777
H199	H	0.460059	0.041152	0.750707
H200	H	0.460108	-0.041183	0.750764
H201	H	0.523503	0.041074	0.670924
H202	H	0.523488	-0.041260	0.671040
O203	O	0.517392	-0.000029	0.463467
C204	C	0.470253	0.000037	0.548690
C205	C	0.527754	0.000027	0.523785
H206	H	0.478610	0.000095	0.597460
H207	H	0.444762	-0.041133	0.533568
H208	H	0.444812	0.041202	0.533474
H209	H	0.553241	-0.041110	0.538990
H210	H	0.553201	0.041224	0.538904
O211	O	0.604609	-0.723822	-0.006461
C212	C	0.527688	-0.653980	-0.003572
C213	C	0.565492	-0.688034	-0.041349
H214	H	0.496045	-0.625047	-0.031765
H215	H	0.555831	-0.624947	0.028022
H216	H	0.503174	-0.686775	0.020997
H217	H	0.590013	-0.655281	-0.065955
H218	H	0.537319	-0.717076	-0.072907
H219	H	0.404512	-0.000056	0.017441
H220	H	-0.141947	-0.000076	0.023982
O221	O	0.518696	-0.000038	0.346365
C222	C	0.415622	0.000019	0.338607
C223	C	0.472370	0.000025	0.379031
H224	H	0.378152	0.000083	0.365001
H225	H	0.413303	-0.041159	0.310461
H226	H	0.413403	0.041175	0.310426
H227	H	0.474627	-0.041104	0.407248
H228	H	0.474665	0.041230	0.407137
O229	O	0.570292	-0.561030	0.028062
C230	C	0.502150	-0.554510	0.096224
C231	C	0.539923	-0.520474	0.058382
H232	H	0.477578	-0.521736	0.120739
H233	H	0.530320	-0.583478	0.127859
H234	H	0.470559	-0.583521	0.068055
H235	H	0.571519	-0.491431	0.086506
H236	H	0.511718	-0.491544	0.026744
O237	O	0.572485	-0.000027	0.197142
C238	C	0.469561	-0.000042	0.176833
C239	C	0.527089	-0.000078	0.151979
H240	H	0.432843	-0.000096	0.140331
H241	H	0.466605	0.041142	0.204254
H242	H	0.466647	-0.041193	0.204321
H243	H	0.530041	0.041045	0.124465
H244	H	0.530019	-0.041289	0.124590
H245	H	0.486602	-0.000024	-0.172255
H246	H	0.734595	-0.159040	-0.136494
O247	O	0.774429	-0.439074	-0.176265
C248	C	0.842539	-0.445598	-0.244460
C249	C	0.804728	-0.479631	-0.206654
H250	H	0.867036	-0.478373	-0.269048
H251	H	0.874188	-0.416624	-0.216314
H252	H	0.814347	-0.416593	-0.276038
H253	H	0.832874	-0.508668	-0.175071
H254	H	0.773075	-0.508567	-0.234835
H255	H	0.768992	-0.556167	-0.170850
H256	H	0.734663	-0.728688	-0.136490
H257	H	0.575496	-0.000028	0.632386
H258	H	0.582043	-0.000065	0.085909
