data_functionalizedCrystal
_audit_creation_method	'MofGen! by Chris Wilmer'
_symmetry_space_group_name_H-M	'P1'
_symmetry_Int_Tables_number	1
_symmetry_cell_setting	triclinic
loop_
_symmetry_equiv_pos_as_xyz
  x,y,z
_cell_length_a	15.944545
_cell_length_b	15.944480
_cell_length_c	15.500235
_cell_angle_alpha	87.170713
_cell_angle_beta	87.160912
_cell_angle_gamma	96.516990
loop_
_atom_site_label
_atom_site_type_symbol
_atom_site_fract_x
_atom_site_fract_y
_atom_site_fract_z
O1	O	0.104136	-1.118450	0.071929
O2	O	0.117554	-0.873892	0.071936
O3	O	-0.011431	-1.002852	0.071922
O4	O	0.233121	-0.989491	0.071943
O5	O	-0.003607	-0.995056	-0.071966
O6	O	0.125379	-0.866097	-0.071952
O7	O	0.111961	-1.110655	-0.071958
Cu8	Cu	0.119384	-0.987664	-0.085093
Cu9	Cu	0.110131	-0.996883	0.085071
O10	O	0.240946	-0.981695	-0.071945
C11	C	0.120920	-0.838700	-0.000008
C12	C	0.119281	-0.745451	-0.000005
C13	C	0.195212	-0.509688	0.000003
C14	C	0.158132	-0.455287	-0.070948
C15	C	0.116245	-0.574729	-0.000006
C16	C	0.150398	-0.462977	0.070914
C17	C	0.113318	-0.409818	-0.000003
C18	C	0.079189	-0.521552	-0.071016
C19	C	0.071464	-0.529249	0.070910
C20	C	0.034326	-0.474879	-0.000059
C21	C	0.117933	-0.669729	-0.000009
C22	C	0.111623	-0.314820	-0.000007
C23	C	-0.038813	-0.998400	-0.000023
C24	C	-0.132059	-0.996740	-0.000025
C25	C	-0.402671	-0.911844	-0.000005
C26	C	-0.355954	-0.956618	0.070938
C27	C	-0.467702	-0.990820	-0.000000
C28	C	-0.348266	-0.948954	-0.070924
C29	C	-0.302789	-0.993724	-0.000014
C30	C	-0.422216	-1.035576	0.071002
C31	C	-0.414529	-1.027897	-0.070924
C32	C	-0.367846	-1.072729	0.000037
C33	C	-0.562704	-0.989145	0.000008
C34	C	-0.207790	-0.995406	-0.000016
C35	C	0.268327	-0.986147	0.000002
C36	C	0.361573	-0.987808	0.000010
N37	N	0.125892	-0.981186	-0.204777
C38	C	0.108606	-0.145846	-0.000012
C39	C	0.110279	-0.239091	-0.000003
C40	C	0.158258	-0.948711	-0.749962
C41	C	0.153352	-0.953628	-0.659389
C42	C	0.093808	-1.013207	-0.614103
C43	C	0.039161	-1.067867	-0.659393
C44	C	0.044063	-1.062945	-0.749963
C45	C	0.076147	-1.030923	-0.340638
C46	C	0.071250	-1.035843	-0.250061
C47	C	0.185441	-0.921603	-0.250064
C48	C	0.190341	-0.916689	-0.340636
C49	C	0.135691	-0.971346	-0.385919
C50	C	0.088794	-1.018237	-0.521523
C51	C	0.140702	-0.966311	-0.478496
N52	N	0.103616	-1.003368	0.204755
H53	H	0.194742	-0.423099	-0.130925
H54	H	-0.009325	-1.116375	-0.622515
H55	H	-0.352374	-1.140799	0.000075
H56	H	-0.330272	-0.926514	0.130918
N57	N	-0.011739	-1.118788	-0.796222
N58	N	0.017671	-1.168176	-0.846779
H59	H	-0.021743	-1.207616	-0.879450
N60	N	0.241268	-0.865783	-0.203809
N61	N	0.290689	-0.895173	-0.153290
H62	H	0.330119	-0.855747	-0.120622
H63	H	-0.454296	-1.072158	0.131045
N64	N	0.025566	-0.569693	0.146129
N65	N	-0.050950	-0.561466	0.159479
H66	H	-0.083359	-0.590044	0.212604
H67	H	0.031650	-1.075428	-0.377500
H68	H	-0.418310	-0.843833	0.000066
H69	H	-0.440225	-1.057971	-0.130906
N70	N	-0.307895	-0.903041	-0.146175
N71	N	-0.265351	-0.939713	-0.199304
H72	H	-0.236841	-0.907283	-0.252448
N73	N	0.251152	-0.855813	-0.386887
N74	N	0.227213	-0.800928	-0.437405
H75	H	0.270163	-0.757933	-0.470067
H76	H	-0.033741	-0.459413	-0.000105
H77	H	0.206748	-0.900198	-0.786828
H78	H	0.180502	-0.437287	0.130889
H79	H	0.049125	-0.547128	-0.131059
N80	N	0.027869	-1.079044	-0.475334
N81	N	0.029466	-1.156148	-0.485459
H82	H	-0.013608	-1.199067	-0.452863
N83	N	0.209167	-0.897785	-0.613147
N84	N	0.262328	-0.844594	-0.653592
H85	H	0.301749	-0.805149	-0.620934
H86	H	0.022760	-1.084363	-0.213193
H87	H	0.189179	-0.917799	-0.515371
H88	H	0.263234	-0.525307	-0.000058
