data_functionalizedCrystal
_audit_creation_method	'MofGen! by Chris Wilmer'
_symmetry_space_group_name_H-M	'P1'
_symmetry_Int_Tables_number	1
_symmetry_cell_setting	triclinic
loop_
_symmetry_equiv_pos_as_xyz
  x,y,z
_cell_length_a	29.839134
_cell_length_b	29.839132
_cell_length_c	19.076919
_cell_angle_alpha	92.265092
_cell_angle_beta	87.728549
_cell_angle_gamma	89.959876
loop_
_atom_site_label
_atom_site_type_symbol
_atom_site_fract_x
_atom_site_fract_y
_atom_site_fract_z
Zn1	Zn	0.676515	0.189133	0.398103
Zn2	Zn	0.679456	0.261242	0.280399
Zn3	Zn	0.604412	0.186121	0.280403
Zn4	Zn	0.601343	0.264228	0.398033
O5	O	0.640431	0.225181	0.339234
O6	O	0.739772	0.198709	0.382517
O7	O	0.672016	0.248767	0.181912
O8	O	0.614030	0.123654	0.296047
O9	O	0.741932	0.251688	0.296040
O10	O	0.667004	0.125867	0.382521
O11	O	0.616881	0.193576	0.181915
O12	O	0.541138	0.196470	0.295979
O13	O	0.608800	0.256776	0.496530
O14	O	0.538883	0.253856	0.382402
O15	O	0.664029	0.201604	0.496582
O16	O	0.669040	0.324505	0.295973
O17	O	0.611651	0.326698	0.382398
C18	C	0.523710	0.225161	0.339184
C19	C	0.473776	0.225163	0.339179
C20	C	0.640344	0.341902	0.339192
C21	C	0.640346	0.391837	0.339198
C22	C	0.670333	0.700327	0.294270
C23	C	0.670376	0.888001	0.294286
O24	O	0.695824	0.911285	0.256074
N25	N	0.640478	0.912623	0.339246
C26	C	0.610570	0.890324	0.384209
O27	O	0.585144	0.915574	0.422455
C28	C	0.610530	0.702652	0.384196
C29	C	0.640426	0.678032	0.339227
C30	C	0.700228	0.675707	0.249306
C31	C	0.700215	0.628792	0.249300
C32	C	0.670308	0.606496	0.294257
C33	C	0.640414	0.631116	0.339221
C34	C	0.580624	0.680354	0.429161
C35	C	0.580617	0.633433	0.429155
C36	C	0.610514	0.608813	0.384187
C37	C	0.610494	0.561905	0.384173
N38	N	0.640392	0.537283	0.339213
C39	C	0.670299	0.559578	0.294255
C40	C	0.610592	0.988855	0.384211
C41	C	0.610602	1.035773	0.384214
C42	C	0.670408	1.033446	0.294292
C43	C	0.670397	0.986527	0.294286
C44	C	0.640490	0.964233	0.339251
C45	C	0.670270	0.461052	0.294245
C46	C	0.670254	0.414133	0.294240
C47	C	0.610448	0.416464	0.384165
C48	C	0.610463	0.463379	0.384167
C49	C	0.640378	0.485672	0.339204
O50	O	0.585063	0.538592	0.422370
O51	O	0.695728	0.534321	0.256025
C52	C	0.670346	0.747243	0.294276
C53	C	0.640452	0.771863	0.339240
C54	C	0.610544	0.749568	0.384198
C55	C	0.640461	0.818781	0.339242
C56	C	0.670368	0.841077	0.294285
C57	C	0.700266	0.816454	0.249325
C58	C	0.700253	0.769539	0.249318
C59	C	0.580647	0.774190	0.429158
C60	C	0.580661	0.821105	0.429160
C61	C	0.610568	0.843401	0.384202
C62	C	0.162968	0.255102	0.384179
C63	C	-0.024706	0.255116	0.384211
O64	O	-0.049960	0.280549	0.422442
N65	N	-0.047012	0.225199	0.339287
C66	C	-0.022397	0.195274	0.294357
O67	O	-0.045676	0.169825	0.256152
C68	C	0.165276	0.195259	0.294329
C69	C	0.187580	0.225181	0.339250
C70	C	0.185272	0.285022	0.429097
C71	C	0.232188	0.285020	0.429086
C72	C	0.256799	0.255098	0.384157
C73	C	0.234496	0.225179	0.339239
C74	C	0.189890	0.165332	0.249402
C75	C	0.236812	0.165330	0.249401
C76	C	0.259115	0.195253	0.294322
C77	C	0.306023	0.195256	0.294299
N78	N	0.328329	0.225173	0.339223
C79	C	0.303717	0.255094	0.384152
C80	C	-0.120928	0.195285	0.294373
C81	C	-0.167846	0.195289	0.294379
C82	C	-0.170152	0.255130	0.384234
C83	C	-0.123233	0.255128	0.384224
C84	C	-0.098622	0.225202	0.339296
C85	C	0.402244	0.255088	0.384125
C86	C	0.449164	0.255084	0.384108
C87	C	0.451466	0.195242	0.294255
C88	C	0.404550	0.195247	0.294269
C89	C	0.379940	0.225171	0.339210
O90	O	0.331306	0.169832	0.256094
O91	O	0.327004	0.280533	0.422361
C92	C	0.116052	0.255104	0.384190
C93	C	0.093748	0.225185	0.339272
C94	C	0.118360	0.195264	0.294343
C95	C	0.046830	0.225189	0.339278
C96	C	0.022218	0.255111	0.384207
C97	C	0.044525	0.285028	0.429130
C98	C	0.091440	0.285026	0.429119
C99	C	0.096054	0.165346	0.249420
C100	C	0.049138	0.165351	0.249434
C101	C	0.024526	0.195273	0.294363
C102	C	0.757608	0.225202	0.339286
C103	C	0.807542	0.225210	0.339308
C104	C	0.635744	0.229859	0.522807
C105	C	0.633746	0.231853	0.601034
C106	C	0.640515	1.108004	0.339277
C107	C	0.640509	1.058069	0.339256
C108	C	0.645127	0.220488	0.156376
C109	C	0.647211	0.218368	0.078149
C110	C	0.661561	0.204066	0.637814
C111	C	0.659679	0.205937	0.711317
C112	C	0.629983	0.235599	0.748039
C113	C	0.602165	0.263387	0.711255
C114	C	0.604046	0.261513	0.637753
C115	C	0.621274	0.244282	0.967863
C116	C	0.619396	0.246155	1.041370
C117	C	0.676909	0.188705	1.041427
C118	C	0.678789	0.186835	0.967924
C119	C	0.650970	0.214622	0.931146
N120	N	0.628060	0.237514	0.823171
N121	N	0.652891	0.212704	0.856015
H122	H	0.694599	0.394088	0.257620
C123	C	0.577702	0.964338	0.433698
N124	N	0.552931	0.945873	0.470978
H125	H	0.116089	0.140980	0.212833
H126	H	0.250343	0.309385	0.465667
H127	H	0.595214	0.270310	1.071267
C128	C	0.547756	0.749672	0.478637
N129	N	0.522984	0.731207	0.515912
H130	H	0.724584	0.693855	0.212696
H131	H	0.724616	0.834615	0.212717
C132	C	0.158206	0.317945	0.478520
N133	N	0.137823	0.342749	0.515741
C134	C	0.165367	0.132410	0.199993
N135	N	0.146896	0.107609	0.162777
H136	H	0.471513	0.170882	0.257673
C137	C	-0.192374	0.162375	0.244958
N138	N	-0.210848	0.137580	0.207736
H139	H	0.256848	0.140958	0.212818
C140	C	0.590670	0.274847	0.927417
N141	N	0.567617	0.297869	0.896950
C142	C	0.573448	0.292082	0.597296
N143	N	0.550400	0.315107	0.566825
C144	C	0.703175	0.485568	0.244780
N145	N	0.727956	0.504032	0.207518
H146	H	0.682330	0.183311	0.741259
C147	C	0.577709	1.062850	0.433675
N148	N	0.552935	1.083243	0.470935
H149	H	0.699558	0.166082	1.071380
H150	H	-0.100893	0.170915	0.257784
C151	C	0.703286	0.959450	0.244820
N152	N	0.728061	0.939057	0.207562
H153	H	0.556277	0.700392	0.465776
C154	C	0.569496	0.296011	0.751652
N155	N	0.544888	0.320583	0.782079
C156	C	0.024610	0.132431	0.200016
N157	N	0.006136	0.107633	0.162800
C158	C	0.711452	0.154201	0.927534
N159	N	0.736053	0.129619	0.897113
H160	H	0.724598	0.749496	0.212701
C161	C	-0.197234	0.288042	0.433660
N162	N	-0.217634	0.312827	0.470890
H163	H	0.724561	0.608749	0.212685
C164	C	0.703309	1.057980	0.244842
N165	N	0.728091	1.076461	0.207602
C166	C	0.694228	0.171435	0.597426
N167	N	0.718832	0.146855	0.567008
H168	H	0.109596	0.309391	0.465699
H169	H	0.556264	0.615283	0.465773
H170	H	0.467321	0.279452	0.420688
H171	H	0.586120	0.483426	0.420786
C172	C	0.380015	0.162334	0.244849
N173	N	0.361539	0.137541	0.207629
H174	H	0.556312	0.841147	0.465778
C175	C	0.375180	0.288010	0.433556
N176	N	0.354796	0.312809	0.470784
C177	C	0.577554	0.391929	0.433619
N178	N	0.552780	0.373449	0.470872
H179	H	0.024477	0.309392	0.465711
H180	H	-0.105076	0.279493	0.420804
