data_functionalizedCrystal
_audit_creation_method	'MofGen! by Chris Wilmer'
_symmetry_space_group_name_H-M	'P1'
_symmetry_Int_Tables_number	1
_symmetry_cell_setting	triclinic
loop_
_symmetry_equiv_pos_as_xyz
  x,y,z
_cell_length_a	16.625548
_cell_length_b	19.805405
_cell_length_c	19.805399
_cell_angle_alpha	90.029301
_cell_angle_beta	89.981391
_cell_angle_gamma	89.972522
loop_
_atom_site_label
_atom_site_type_symbol
_atom_site_fract_x
_atom_site_fract_y
_atom_site_fract_z
Zn1	Zn	1.232643	0.269460	-0.382694
Zn2	Zn	1.232541	0.382648	-0.269502
Zn3	Zn	1.097809	0.269480	-0.269521
Zn4	Zn	1.097766	0.382614	-0.382651
O5	O	1.165190	0.326051	-0.326092
O6	O	1.345462	0.284480	-0.367689
O7	O	1.214645	0.367659	-0.174788
O8	O	1.115756	0.174761	-0.284559
O9	O	1.345387	0.367639	-0.284528
O10	O	1.214817	0.174746	-0.367707
O11	O	1.115657	0.284515	-0.174802
O12	O	0.984971	0.284482	-0.284517
O13	O	1.115682	0.367581	-0.477373
O14	O	0.984939	0.367601	-0.367634
O15	O	1.214775	0.284447	-0.477405
O16	O	1.214602	0.477360	-0.284486
O17	O	1.115583	0.477335	-0.367616
C18	C	1.165099	0.501907	-0.326059
C19	C	1.165134	0.577139	-0.326068
C20	C	0.955699	0.326041	-0.326073
C21	C	0.866078	0.326053	-0.326081
C22	C	1.165235	0.326008	-0.502635
C23	C	1.165254	0.325990	-0.577867
C24	C	0.537902	0.326057	-0.326110
C25	C	0.629211	0.326054	-0.326100
C26	C	0.701987	0.326056	-0.326095
C27	C	0.793301	0.326052	-0.326086
C28	C	1.375499	0.326061	-0.326111
C29	C	1.465120	0.326065	-0.326120
C30	C	1.165303	0.149508	-0.326140
C31	C	1.165351	0.074276	-0.326160
C32	C	1.216743	0.612473	-0.282828
C33	C	1.216778	0.683162	-0.282843
C34	C	1.165198	0.718514	-0.326095
C35	C	1.113586	0.683174	-0.369340
C36	C	1.113557	0.612487	-0.369328
C37	C	1.113705	0.968248	-0.369390
C38	C	1.113737	1.038940	-0.369398
C39	C	1.216926	1.038922	-0.282905
C40	C	1.216896	0.968235	-0.282893
C41	C	1.165288	0.932901	-0.326140
C42	C	1.165253	0.856253	-0.326124
C43	C	1.165229	0.795161	-0.326108
C44	C	1.216853	0.282700	-0.613229
C45	C	1.216862	0.282680	-0.683917
C46	C	1.165274	0.325954	-0.719243
C47	C	1.113669	0.369246	-0.683876
C48	C	1.113658	0.369262	-0.613189
C49	C	1.113715	0.369183	-0.968949
C50	C	1.113732	0.369166	-1.039642
C51	C	1.216919	0.282601	-1.039678
C52	C	1.216907	0.282617	-0.968991
C53	C	1.165300	0.325906	-0.933630
C54	C	1.165290	0.325926	-0.856982
C55	C	1.165287	0.325938	-0.795890
C56	C	1.165191	0.326044	-0.150236
C57	C	1.165328	0.325872	-0.075005
H58	H	1.258802	0.711928	-0.247631
H59	H	1.071632	0.404507	-0.584398
C60	C	1.056978	0.416766	-1.078501
C61	C	1.056997	0.416750	-1.156255
C62	C	1.000246	0.464348	-1.195115
C63	C	0.943477	0.511963	-1.156222
C64	C	0.943455	0.511981	-1.078464
C65	C	1.000206	0.464383	-1.039604
H66	H	1.099023	0.381501	-1.185049
H67	H	1.000263	0.464334	-1.252676
H68	H	0.901467	0.547198	-1.184988
H69	H	0.901429	0.547230	-1.049670
H70	H	1.000190	0.464397	-0.982043
C71	C	1.056928	0.416850	-0.722737
C72	C	1.091851	0.469978	-0.771320
C73	C	1.035113	0.517584	-0.810182
C74	C	0.943451	0.512063	-0.800462
C75	C	0.908522	0.458932	-0.751877
C76	C	0.965261	0.411326	-0.713015
H77	H	1.159709	0.474067	-0.778517
H78	H	1.060970	0.556915	-0.846148
H79	H	0.901449	0.547304	-0.829230
H80	H	0.840664	0.454843	-0.744679
H81	H	0.939404	0.371995	-0.677049
C82	C	1.273683	0.234975	-1.078576
C83	C	1.336973	0.264296	-1.127176
C84	C	1.393737	0.216673	-1.166072
C85	C	1.387210	0.139730	-1.156369
C86	C	1.323918	0.110406	-1.107767
C87	C	1.267154	0.158028	-1.068871
H88	H	1.341806	0.321257	-1.134361
H89	H	1.440590	0.238382	-1.202050
H90	H	1.429230	0.104477	-1.185162
H91	H	1.319084	0.053444	-1.100582
H92	H	1.220300	0.136320	-1.032892
C93	C	1.273602	0.235096	-0.574374
C94	C	1.336882	0.264437	-0.525782
C95	C	1.393630	0.216831	-0.486930
C96	C	1.387099	0.139883	-0.496670
C97	C	1.323817	0.110538	-0.545265
C98	C	1.267068	0.158145	-0.584117
H99	H	1.341719	0.321402	-0.518570
H100	H	1.440476	0.238554	-0.450957
H101	H	1.429108	0.104642	-0.467910
H102	H	1.318979	0.053573	-0.552477
H103	H	1.220222	0.136421	-0.620090
H104	H	1.071593	0.711964	-0.404560
C105	C	1.057001	1.077829	-0.416983
C106	C	1.000236	1.038966	-0.464556
C107	C	0.943503	1.077856	-0.512137
C108	C	0.943534	1.155609	-0.512145
C109	C	1.000301	1.194477	-0.464570
C110	C	1.057035	1.155587	-0.416989
H111	H	1.000210	0.981405	-0.464552
H112	H	0.901480	1.049083	-0.547356
H113	H	0.901537	1.184398	-0.547368
H114	H	1.000327	1.252038	-0.464574
H115	H	1.099057	1.184360	-0.381771
H116	H	1.071532	0.583719	-0.404540
H117	H	1.258742	0.583694	-0.247604
C118	C	1.056935	0.929391	-0.416963
C119	C	0.965281	0.939181	-0.411373
C120	C	0.908508	0.900323	-0.458951
C121	C	0.943390	0.851676	-0.512117
C122	C	1.035049	0.841885	-0.517708
C123	C	1.091821	0.880742	-0.470131
H124	H	0.939455	0.975194	-0.372015
H125	H	0.840656	0.907572	-0.454811
H126	H	0.901364	0.822912	-0.547336
H127	H	1.060874	0.805871	-0.557067
H128	H	1.159673	0.873494	-0.474271
C129	C	1.273651	0.235013	-0.930132
C130	C	1.336928	0.264353	-0.881536
C131	C	1.393670	0.216746	-0.842679
C132	C	1.387135	0.139798	-0.852417
C133	C	1.323856	0.110454	-0.901015
C134	C	1.267114	0.158061	-0.939873
H135	H	1.341767	0.321318	-0.874326
H136	H	1.440513	0.238469	-0.806703
H137	H	1.429139	0.104556	-0.823652
H138	H	1.319017	0.053489	-0.908226
H139	H	1.220271	0.136338	-0.975848
H140	H	1.258895	0.939453	-0.247670
H141	H	1.071705	0.404442	-0.940167
H142	H	1.258951	1.067699	-0.247693
H143	H	1.258881	0.247430	-0.712705
