data_functionalizedCrystal
_audit_creation_method	'MofGen! by Chris Wilmer'
_symmetry_space_group_name_H-M	'P1'
_symmetry_Int_Tables_number	1
_symmetry_cell_setting	triclinic
loop_
_symmetry_equiv_pos_as_xyz
  x,y,z
_cell_length_a	19.188930
_cell_length_b	9.065218
_cell_length_c	7.540329
_cell_angle_alpha	89.998312
_cell_angle_beta	90.008296
_cell_angle_gamma	95.919667
loop_
_atom_site_label
_atom_site_type_symbol
_atom_site_fract_x
_atom_site_fract_y
_atom_site_fract_z
O1	O	0.102369	-1.956844	0.147510
O2	O	0.110766	-1.527268	0.147515
O3	O	0.005008	-1.754453	0.147478
O4	O	0.208127	-1.729659	0.147547
O5	O	0.005007	-1.754445	-0.147487
O6	O	0.110765	-1.527260	-0.147450
O7	O	0.102368	-1.956836	-0.147455
Cu8	Cu	0.106567	-1.742048	-0.174385
Cu9	Cu	0.106568	-1.742057	0.174445
O10	O	0.208126	-1.729652	-0.147418
C11	C	-0.021009	-1.753646	-0.000010
C12	C	-0.098533	-1.751236	-0.000025
C13	C	0.109959	-1.472305	0.000032
C14	C	0.107546	-1.308546	0.000033
N15	N	0.106566	-1.742052	-0.419734
C16	C	-0.142421	-1.884540	-0.000035
C17	C	-0.215262	-1.882276	-0.000006
C18	C	-0.244212	-1.746699	-0.000004
C19	C	-0.200314	-1.613377	0.000016
C20	C	-0.127474	-1.615646	0.000006
N21	N	-0.353023	-1.643065	-0.100385
N22	N	-0.422218	-1.640919	-0.100379
C23	C	-0.463674	-1.739858	0.000032
N24	N	-0.433322	-1.841045	0.100414
N25	N	-0.364121	-1.843195	0.100400
C26	C	-0.323194	-1.744225	0.000009
C27	C	-0.586546	-1.870716	0.000056
C28	C	-0.659388	-1.868446	0.000095
C29	C	-0.644438	-1.599544	0.000100
C30	C	-0.571598	-1.601818	0.000078
C31	C	-0.542656	-1.737408	0.000048
C32	C	0.234144	-1.730458	0.000074
C33	C	0.311667	-1.732869	0.000101
C34	C	0.103176	-2.011799	0.000032
C35	C	0.105589	-2.175558	0.000043
N36	N	0.106563	-1.742064	0.419794
H37	H	-0.251003	-1.990832	-0.000007
H38	H	-0.091740	-1.507089	0.000013
H39	H	-0.535863	-1.493266	0.000076
H40	H	-0.223890	-1.502990	0.000022
H41	H	-0.562980	-1.981122	0.000039
H42	H	-0.695122	-1.977004	0.000097
H43	H	-0.668009	-1.489155	0.000111
O44	O	-0.111213	-2.030788	-0.000038
H45	H	-0.078398	-2.038268	-0.120269
