data_functionalizedCrystal
_audit_creation_method	'MofGen! by Chris Wilmer'
_symmetry_space_group_name_H-M	'P1'
_symmetry_Int_Tables_number	1
_symmetry_cell_setting	triclinic
loop_
_symmetry_equiv_pos_as_xyz
  x,y,z
_cell_length_a	18.101397
_cell_length_b	21.295420
_cell_length_c	18.101389
_cell_angle_alpha	89.980946
_cell_angle_beta	89.978953
_cell_angle_gamma	90.016247
loop_
_atom_site_label
_atom_site_type_symbol
_atom_site_fract_x
_atom_site_fract_y
_atom_site_fract_z
Zn1	Zn	-0.294991	0.962365	-0.418721
Zn2	Zn	-0.418816	0.962296	-0.294874
Zn3	Zn	-0.294984	0.857098	-0.294894
Zn4	Zn	-0.418786	0.857076	-0.418674
O5	O	-0.356894	0.909709	-0.356791
O6	O	-0.311432	1.050445	-0.402304
O7	O	-0.402400	0.948322	-0.191243
O8	O	-0.191352	0.871100	-0.311348
O9	O	-0.402406	1.050394	-0.311314
O10	O	-0.191357	0.948439	-0.402323
O11	O	-0.311421	0.871033	-0.191258
O12	O	-0.311391	0.769006	-0.311302
O13	O	-0.402354	0.871062	-0.522313
O14	O	-0.402348	0.768990	-0.402243
O15	O	-0.311402	0.948418	-0.522348
O16	O	-0.522445	0.948300	-0.311268
O17	O	-0.522423	0.870995	-0.402223
C18	C	-0.356866	0.746157	-0.356770
C19	C	-0.356872	0.676189	-0.356778
C20	C	-0.309636	0.176757	-0.404257
C21	C	-0.309630	0.242499	-0.404257
C22	C	-0.356917	0.275350	-0.356808
C23	C	-0.404226	0.242452	-0.309368
C24	C	-0.404235	0.176711	-0.309375
N25	N	-0.362489	0.378546	-0.291962
N26	N	-0.362476	0.440997	-0.291958
C27	C	-0.356892	0.473424	-0.356786
N28	N	-0.351308	0.441041	-0.421620
N29	N	-0.351318	0.378584	-0.421623
C30	C	-0.356912	0.346635	-0.356796
C31	C	-0.309584	0.577600	-0.404226
C32	C	-0.309584	0.643343	-0.404227
C33	C	-0.404175	0.643295	-0.309332
C34	C	-0.404180	0.577552	-0.309337
C35	C	-0.356880	0.544709	-0.356783
C36	C	-0.549305	0.909655	-0.356755
C37	C	-0.631619	0.909689	-0.356764
C38	C	-0.930710	0.909770	-0.356832
C39	C	-0.899368	0.958272	-0.299452
C40	C	-0.813749	0.958440	-0.299600
C41	C	-0.782327	0.909730	-0.356797
C42	C	-0.813349	0.927713	-0.434858
C43	C	-0.898994	0.928088	-0.434546
C44	C	-0.899210	0.843155	-0.336826
C45	C	-0.813560	0.843484	-0.335084
C46	C	-0.698468	0.909706	-0.356783
C47	C	-1.014569	0.909795	-0.356851
C48	C	-0.163732	0.909780	-0.356843
C49	C	-0.081418	0.909810	-0.356865
C50	C	-0.356875	0.909745	-0.549953
C51	C	-0.356867	0.909761	-0.632267
C52	C	-0.356923	1.073899	-0.356812
C53	C	-0.356935	1.143867	-0.356821
C54	C	-0.356729	0.909797	-0.931358
C55	C	-0.413771	0.860960	-0.900011
C56	C	-0.414036	0.861092	-0.814392
C57	C	-0.356798	0.909779	-0.782975
C58	C	-0.377987	0.976104	-0.814073
C59	C	-0.378362	0.975832	-0.899718
C60	C	-0.278370	0.892885	-0.899787
C61	C	-0.278822	0.891410	-0.814137
C62	C	-0.356835	0.909772	-0.699116
C63	C	-0.356693	0.909808	-1.015217
C64	C	-0.356859	0.909709	-0.164380
C65	C	-0.356659	0.909815	-0.082066
H66	H	-0.442693	0.550773	-0.270707
Cl67	Cl	-0.250121	0.684691	-0.463873
Cl68	Cl	-0.465486	0.998622	-0.780965
Cl69	Cl	-0.250179	0.135471	-0.463910
Cl70	Cl	-0.316961	1.033883	-0.931740
H71	H	-0.442683	0.670041	-0.270704
Cl72	Cl	-0.781366	0.941030	-0.210248
H73	H	-0.259065	0.845361	-0.921379
H74	H	-0.919479	0.807017	-0.378619
Cl75	Cl	-0.250161	0.283855	-0.463893
Cl76	Cl	-0.254152	0.816047	-0.782765
Cl77	Cl	-0.931005	0.875909	-0.502796
H78	H	-0.792994	0.893466	-0.478760
Cl79	Cl	-0.780158	1.002049	-0.461466
Cl80	Cl	-0.209720	0.942327	-0.781132
Cl81	Cl	-0.393559	0.785158	-0.781926
Cl82	Cl	-0.932635	0.817896	-0.250467
H83	H	-0.918920	0.976780	-0.451492
H84	H	-0.235870	0.928456	-0.920061
H85	H	-0.442729	0.269203	-0.270737
Cl86	Cl	-0.250125	0.536307	-0.463874
Cl87	Cl	-0.931227	0.941118	-0.209818
Cl88	Cl	-0.463699	0.135361	-0.249733
Cl89	Cl	-0.315860	1.033797	-0.782660
Cl90	Cl	-0.393506	0.784792	-0.931795
Cl91	Cl	-0.932517	1.034042	-0.319651
H92	H	-0.793212	1.007784	-0.312837
H93	H	-0.793291	0.829925	-0.277638
H94	H	-0.792178	0.805402	-0.373816
H95	H	-0.471499	0.872015	-0.921532
H96	H	-0.472118	0.872258	-0.793906
Cl97	Cl	-0.466800	0.997963	-0.930567
