data_functionalizedCrystal
_audit_creation_method	'MofGen! by Chris Wilmer'
_symmetry_space_group_name_H-M	'P1'
_symmetry_Int_Tables_number	1
_symmetry_cell_setting	triclinic
loop_
_symmetry_equiv_pos_as_xyz
  x,y,z
_cell_length_a	15.538191
_cell_length_b	16.992695
_cell_length_c	16.053802
_cell_angle_alpha	92.747646
_cell_angle_beta	88.440717
_cell_angle_gamma	68.970159
loop_
_atom_site_label
_atom_site_type_symbol
_atom_site_fract_x
_atom_site_fract_y
_atom_site_fract_z
O1	O	1.234792	-0.253665	-0.069467
O2	O	0.967205	-0.165027	-0.069456
O3	O	1.099926	-0.323184	-0.069469
O4	O	1.102071	-0.095508	-0.069454
O5	O	1.092619	-0.314505	0.069391
O6	O	0.959898	-0.156348	0.069403
O7	O	1.227485	-0.244986	0.069393
Zn8	Zn	1.092531	-0.199289	0.091445
Zn9	Zn	1.102159	-0.210724	-0.091508
O10	O	1.094764	-0.086829	0.069405
C11	C	0.929154	-0.151414	-0.000025
C12	C	0.826660	-0.123790	-0.000022
C13	C	1.093513	-0.347272	-0.000042
C14	C	1.085279	-0.431973	-0.000053
N15	N	1.085967	-0.191488	0.216306
C16	C	0.518211	-0.398225	-0.000053
C17	C	0.421901	-0.372249	-0.000052
C18	C	0.410457	-0.226140	-0.000042
C19	C	0.506768	-0.252103	-0.000039
C20	C	0.560638	-0.338147	-0.000045
C21	C	0.549194	-0.192025	-0.000032
C22	C	0.645497	-0.217987	-0.000033
C23	C	0.699374	-0.304028	-0.000042
C24	C	0.656941	-0.364109	-0.000047
C25	C	0.495323	-0.105982	-0.000031
C26	C	0.537750	-0.045904	-0.000024
C27	C	0.634054	-0.071865	-0.000019
C28	C	0.687930	-0.157906	-0.000028
C29	C	0.676487	-0.011784	-0.000015
C30	C	0.772790	-0.037746	-0.000016
C31	C	0.784233	-0.183868	-0.000030
C32	C	1.265536	-0.258600	-0.000040
C33	C	1.368031	-0.286224	-0.000049
C34	C	1.101177	-0.062742	-0.000023
C35	C	1.109412	0.021959	-0.000018
C36	C	1.029958	0.094813	-0.000015
C37	C	1.037701	0.174395	-0.000026
C38	C	1.124899	0.181122	-0.000033
C39	C	1.204358	0.108261	-0.000038
C40	C	1.196614	0.028680	-0.000034
C41	C	1.156994	0.415585	-0.000053
C42	C	1.164732	0.495174	-0.000056
C43	C	0.998075	0.561303	-0.000045
C44	C	0.990338	0.481718	-0.000035
C45	C	1.069798	0.408863	-0.000044
N46	N	1.132816	0.262468	-0.000041
N47	N	1.061880	0.327519	-0.000042
N48	N	1.108730	-0.218533	-0.216369
C49	C	1.142463	-0.258772	0.259995
C50	C	1.137881	-0.253310	0.347402
C51	C	1.076806	-0.180561	0.391119
C52	C	1.020304	-0.113272	0.347424
C53	C	1.024882	-0.118737	0.260018
C54	C	1.056806	-0.156710	0.652530
C55	C	1.052233	-0.151249	0.739942
C56	C	1.169810	-0.291288	0.739914
C57	C	1.174387	-0.296745	0.652507
C58	C	1.117881	-0.229458	0.608819
N59	N	1.072123	-0.174975	0.480463
N60	N	1.122560	-0.235047	0.519477
H61	H	0.828097	-0.253933	-0.000030
H62	H	0.973002	0.233712	-0.000026
H63	H	1.224119	-0.355983	0.616914
H64	H	1.261314	-0.030640	-0.000039
Cl65	Cl	1.219252	-0.350232	0.205046
Cl66	Cl	0.585940	-0.506396	-0.000050
H67	H	0.387362	-0.421179	-0.000059
Cl68	Cl	0.953851	-0.034149	0.205096
H69	H	0.493876	0.024153	-0.000022
H70	H	1.215813	-0.346070	0.775492
Cl71	Cl	0.920332	0.086367	0.000001
H72	H	1.002496	-0.092003	0.775532
Cl73	Cl	1.274359	0.503628	-0.000042
Cl74	Cl	0.985775	-0.072121	0.597615
Cl75	Cl	0.342727	-0.117975	-0.000039
H76	H	1.275357	0.113744	-0.000043
Cl77	Cl	1.208905	-0.337898	0.402326
H78	H	0.970571	-0.054039	0.383023
Cl79	Cl	1.256888	0.324006	-0.000057
H80	H	0.777790	-0.325165	-0.000054
Cl81	Cl	0.826131	0.037781	-0.000009
Cl82	Cl	0.724670	-0.472280	-0.000044
H83	H	0.416907	-0.084847	-0.000033
H84	H	0.632612	0.058273	-0.000018
H85	H	0.933383	0.620628	-0.000038
Cl86	Cl	0.880714	0.473268	-0.000028
