data_functionalizedCrystal
_audit_creation_method	'MofGen! by Chris Wilmer'
_symmetry_space_group_name_H-M	'P1'
_symmetry_Int_Tables_number	1
_symmetry_cell_setting	triclinic
loop_
_symmetry_equiv_pos_as_xyz
  x,y,z
_cell_length_a	6.817900
_cell_length_b	19.551786
_cell_length_c	14.858572
_cell_angle_alpha	95.600309
_cell_angle_beta	104.524003
_cell_angle_gamma	101.662645
loop_
_atom_site_label
_atom_site_type_symbol
_atom_site_fract_x
_atom_site_fract_y
_atom_site_fract_z
V1	V	-4.029310	-0.097115	-0.290394
O2	O	-4.026003	0.004214	-0.284422
O3	O	-3.971934	-0.192127	-0.288835
O4	O	-3.986070	-0.095820	-0.416850
O5	O	-4.011769	-0.092760	-0.155521
V6	V	-4.513432	-0.084971	-0.274210
O7	O	-4.289254	-0.123753	-0.325894
O8	O	-4.703686	-0.058333	-0.238710
O9	O	-4.347602	0.010041	-0.275769
O10	O	-4.634136	-0.186300	-0.280182
O11	O	-4.648370	-0.089326	-0.409083
O12	O	-4.333466	-0.086267	-0.147754
C13	C	-3.814584	-0.215283	-0.284364
C14	C	-3.848994	-0.292958	-0.283933
C15	C	-4.056156	-0.842580	-0.195719
C16	C	-4.023806	-0.769595	-0.196115
C17	C	-4.048465	-0.743166	-0.281473
C18	C	-4.105429	-0.789728	-0.366439
C19	C	-4.137758	-0.862711	-0.366040
C20	C	-4.145748	-0.637609	-0.350905
C21	C	-4.113431	-0.564627	-0.351301
C22	C	-3.948746	-0.518061	-0.282707
C23	C	-3.816401	-0.544485	-0.213702
C24	C	-3.848729	-0.617468	-0.213303
C25	C	-4.013414	-0.664029	-0.281915
C26	C	-3.856696	-0.392369	-0.198175
C27	C	-3.824335	-0.319382	-0.198574
C28	C	-3.905980	-0.339517	-0.368902
C29	C	-3.938320	-0.412502	-0.368499
C30	C	-3.913685	-0.438923	-0.283134
C31	C	-3.832615	-0.092432	-0.447658
C32	C	-3.878486	-0.092002	-0.551040
C33	C	-4.046374	-0.090429	-0.929601
C34	C	-3.999654	-0.090867	-0.824273
C35	C	-3.962432	-0.091216	-0.740324
C36	C	-3.915709	-0.091652	-0.634989
C37	C	-4.168293	0.033193	-0.280237
C38	C	-4.113122	0.110868	-0.280675
C39	C	-4.150262	-0.089656	-0.116941
C40	C	-4.083630	-0.090083	-0.013559
H41	H	-4.036088	-0.864087	-0.126208
H42	H	-3.977405	-0.731685	-0.126932
H43	H	-3.740964	-0.638979	-0.157118
C44	C	-4.259014	-0.535563	-0.427193
H45	H	-4.216198	-0.485427	-0.417599
H46	H	-4.252731	-0.553997	-0.487701
H47	H	-4.397944	-0.549325	-0.423085
H48	H	-3.682300	-0.506571	-0.157846
H49	H	-3.777937	-0.281479	-0.129390
H50	H	-3.836622	-0.413882	-0.128665
C51	C	-4.326911	-0.688825	-0.426363
H52	H	-4.401117	-0.662637	-0.467506
H53	H	-4.273100	-0.720056	-0.461373
H54	H	-4.418305	-0.715372	-0.396755
C55	C	-3.932988	-0.310451	-0.462790
H56	H	-3.905549	-0.260316	-0.450861
H57	H	-3.838327	-0.324211	-0.494137
H58	H	-4.071736	-0.328884	-0.501291
H59	H	-3.984719	-0.450406	-0.437680
C60	C	-4.132535	-0.760658	-0.460330
H61	H	-4.105135	-0.710524	-0.448401
H62	H	-4.037906	-0.774406	-0.491706
H63	H	-4.271301	-0.779102	-0.498804
H64	H	-4.184144	-0.900615	-0.435224
