data_functionalizedCrystal
_audit_creation_method	'MofGen! by Chris Wilmer'
_symmetry_space_group_name_H-M	'P1'
_symmetry_Int_Tables_number	1
_symmetry_cell_setting	triclinic
loop_
_symmetry_equiv_pos_as_xyz
  x,y,z
_cell_length_a	16.959455
_cell_length_b	16.120444
_cell_length_c	16.120297
_cell_angle_alpha	84.384883
_cell_angle_beta	87.120459
_cell_angle_gamma	92.923490
loop_
_atom_site_label
_atom_site_type_symbol
_atom_site_fract_x
_atom_site_fract_y
_atom_site_fract_z
Zn1	Zn	1.167696	-0.356814	0.489439
Zn2	Zn	1.667696	0.143186	0.989439
Zn3	Zn	1.167594	-0.489505	0.356752
Zn4	Zn	1.667594	0.010495	0.856752
Zn5	Zn	1.042574	-0.349743	0.349687
Zn6	Zn	1.542574	0.150257	0.849687
Zn7	Zn	1.028419	-0.496538	0.496477
Zn8	Zn	1.528419	0.003462	0.996477
O9	O	1.101571	-0.423150	0.423089
O10	O	1.601571	0.076850	0.923089
O11	O	1.278292	-0.374432	0.471849
O12	O	1.778292	0.125568	0.971849
O13	O	1.156891	-0.465062	0.238853
O14	O	1.656891	0.034938	0.738853
O15	O	1.065138	-0.233716	0.362324
O16	O	1.565138	0.266284	0.862324
O17	O	1.278218	-0.471919	0.374364
O18	O	1.778218	0.028081	0.874364
O19	O	1.157065	-0.238911	0.465000
O20	O	1.657065	0.261089	0.965000
O21	O	1.065039	-0.362380	0.233663
O22	O	1.565039	0.137620	0.733663
O23	O	0.930087	-0.369200	0.369148
O24	O	1.430087	0.130800	0.869148
O25	O	1.041013	-0.483906	0.612505
O26	O	1.541013	0.016094	1.112505
O27	O	0.919687	-0.477050	0.476993
O28	O	1.419687	0.022950	0.976993
O29	O	1.143340	-0.381252	0.607335
O30	O	1.643340	0.118748	1.107335
O31	O	1.143166	-0.607403	0.381188
O32	O	1.643166	-0.107403	0.881188
O33	O	1.040914	-0.612571	0.483843
O34	O	1.540914	-0.112571	0.983843
C35	C	0.896207	-0.423122	0.423068
C36	C	1.396207	0.076878	0.923068
C37	C	0.808349	-0.423131	0.423080
C38	C	1.308349	0.076869	0.923080
C39	C	0.442260	-0.366955	0.367043
C40	C	0.942260	0.133045	0.867043
C41	C	0.431479	-0.479417	0.479186
C42	C	0.931479	0.020583	0.979186
C43	C	0.514026	-0.479405	0.479180
C44	C	1.014026	0.020595	0.979180
C45	C	0.560694	-0.423167	0.423104
C46	C	1.060694	0.076833	0.923104
C47	C	0.524814	-0.366943	0.367034
C48	C	1.024814	0.133057	0.867034
C49	C	0.549912	-0.535634	0.535243
C50	C	1.049912	-0.035634	1.035243
C51	C	0.632463	-0.535625	0.535239
C52	C	1.132463	-0.035625	1.035239
C53	C	0.679132	-0.479383	0.479167
C54	C	1.179132	0.020617	0.979167
C55	C	0.643248	-0.423155	0.423095
C56	C	1.143248	0.076845	0.923095
C57	C	0.689916	-0.366918	0.367019
C58	C	1.189916	0.133082	0.867019
C59	C	0.654033	-0.310686	0.310951
C60	C	1.154033	0.189314	0.810951
C61	C	0.571483	-0.310701	0.310961
C62	C	1.071483	0.189299	0.810961
C63	C	0.761682	-0.479368	0.479156
C64	C	1.261682	0.020632	0.979156
C65	C	0.772470	-0.366906	0.367010
C66	C	1.272470	0.133094	0.867010
C67	C	1.090514	-0.640316	0.434064
C68	C	1.590514	-0.140316	0.934064
C69	C	1.085854	-0.733221	0.438787
C70	C	1.585854	-0.233221	0.938787
C71	C	1.125927	-0.942134	0.398767
C72	C	1.625927	-0.442134	0.898767
C73	C	1.077361	-0.903316	0.447419
C74	C	1.577361	-0.403316	0.947419
C75	C	1.082088	-0.808667	0.442615
C76	C	1.582088	-0.308667	0.942615
C77	C	1.121201	-1.036792	0.403570
C78	C	1.621201	-0.536792	0.903570
C79	C	1.307737	-0.423179	0.423110
C80	C	1.807737	0.076821	0.923110
C81	C	1.395592	-0.423192	0.423119
C82	C	1.895592	0.076808	0.923119
C83	C	1.090609	-0.434152	0.641095
C84	C	1.590609	0.065848	1.141095
C85	C	1.085938	-0.438841	0.733996
C86	C	1.585938	0.061159	1.233996
C87	C	1.112692	-0.205138	0.412089
C88	C	1.612692	0.294862	0.912089
C89	C	1.117431	-0.112234	0.407402
C90	C	1.617431	0.387766	0.907402
C91	C	1.112539	-0.412130	0.205928
C92	C	1.612539	0.087870	0.705928
C93	C	1.117375	-0.407207	0.113015
C94	C	1.617375	0.092793	0.613015
C95	C	1.077381	-0.447382	0.904087
C96	C	1.577381	0.052618	1.404087
C97	C	1.125929	-0.398668	0.942930
C98	C	1.625929	0.101332	1.442930
C99	C	1.121168	-0.403420	1.037574
C100	C	1.621168	0.096580	1.537574
C101	C	1.082141	-0.442631	0.809434
C102	C	1.582141	0.057369	1.309434
H103	H	0.393478	-0.525207	0.524835
H104	H	0.893478	-0.025207	1.024835
O105	O	0.504464	-0.590180	0.589679
O106	O	1.004464	-0.090180	1.089679
C107	C	0.372509	-0.640068	0.639356
C108	C	0.872509	-0.140068	1.139356
C109	C	0.423888	-0.578235	0.577673
C110	C	0.923888	-0.078235	1.077673
H111	H	0.307353	-0.630443	0.629659
H112	H	0.807353	-0.130443	1.129659
H113	H	0.386042	-0.628899	0.706057
H114	H	0.886042	-0.128899	1.206057
H115	H	0.386103	-0.706686	0.627977
H116	H	0.886103	-0.206686	1.127977
H117	H	0.410323	-0.511593	0.588976
H118	H	0.910323	-0.011593	1.088976
H119	H	0.410348	-0.589476	0.510993
H120	H	0.910348	-0.089476	1.010993
O121	O	1.023622	-0.948558	0.501460
O122	O	1.523622	-0.448558	1.001460
C123	C	1.002387	-1.052866	0.619235
C124	C	1.502387	-0.552866	1.119235
C125	C	1.063329	-1.001696	0.558083
C126	C	1.563329	-0.501696	1.058083
H127	H	1.034467	-1.095829	0.665042
H128	H	1.534467	-0.595829	1.165042
H129	H	0.961024	-1.091912	0.582903
H130	H	1.461024	-0.591912	1.082903
H131	H	0.966549	-1.008689	0.655068
H132	H	1.466549	-0.508689	1.155068
H133	H	1.099222	-1.045813	0.522235
H134	H	1.599222	-0.545813	1.022235
H135	H	1.104638	-0.962641	0.594462
H136	H	1.604638	-0.462641	1.094462
H137	H	1.171051	-0.904286	0.353509
H138	H	1.671051	-0.404286	0.853509
O139	O	1.179706	-0.344534	0.897851
O140	O	1.679706	0.155466	1.397851
C141	C	1.226695	-0.201041	0.863817
C142	C	1.726695	0.298959	1.363817
C143	C	1.165735	-0.262250	0.914900
C144	C	1.665735	0.237750	1.414900
H145	H	1.215430	-0.134502	0.877597
H146	H	1.715430	0.365498	1.377597
H147	H	1.220999	-0.206701	0.794404
H148	H	1.720999	0.293299	1.294404
H149	H	1.288827	-0.216619	0.881679
H150	H	1.788827	0.283381	1.381679
H151	H	1.103576	-0.246711	0.897111
H152	H	1.603576	0.253289	1.397111
H153	H	1.171500	-0.256578	0.984302
H154	H	1.671500	0.243422	1.484302
H155	H	1.032246	-0.492654	0.941909
H156	H	1.532246	0.007346	1.441909
H157	H	0.810462	-0.321105	0.321351
H158	H	1.310462	0.178895	0.821351
H159	H	0.692040	-0.264901	0.265290
H160	H	1.192040	0.235099	0.765290
H161	H	0.542260	-0.264920	0.265313
H162	H	1.042260	0.235080	0.765313
H163	H	0.661672	-0.581412	0.580894
H164	H	1.161672	-0.081412	1.080894
O165	O	0.407281	-0.312413	0.312612
O166	O	0.907281	0.187587	0.812612
C167	C	0.284892	-0.262540	0.262961
C168	C	0.784892	0.237460	0.762961
C169	C	0.324402	-0.324368	0.324635
C170	C	0.824402	0.175632	0.824635
H171	H	0.217878	-0.272173	0.272672
H172	H	0.717878	0.227827	0.772672
H173	H	0.303701	-0.273708	0.196257
H174	H	0.803701	0.226292	0.696257
H175	H	0.303855	-0.195920	0.274336
H176	H	0.803855	0.304080	0.774336
H177	H	0.305458	-0.391011	0.313336
H178	H	0.805458	0.108989	0.813336
H179	H	0.305594	-0.313127	0.391318
H180	H	0.805594	0.186873	0.891318
O181	O	0.796411	-0.534015	0.533694
O182	O	1.296411	-0.034015	1.033694
C183	C	0.777002	-0.645604	0.644887
C184	C	1.277002	-0.145604	1.144887
C185	C	0.737571	-0.583746	0.583176
C186	C	1.237571	-0.083746	1.083176
H187	H	0.729448	-0.685840	0.684897
H188	H	1.229448	-0.185840	1.184897
H189	H	0.815372	-0.609544	0.686775
H190	H	1.315372	-0.109544	1.186775
H191	H	0.815388	-0.687263	0.608627
H192	H	1.315388	-0.187263	1.108627
H193	H	0.699146	-0.542072	0.619367
H194	H	1.199146	-0.042072	1.119367
H195	H	0.699248	-0.619858	0.541288
H196	H	1.199248	-0.119858	1.041288
