data_functionalizedCrystal
_audit_creation_method	'MofGen! by Chris Wilmer'
_symmetry_space_group_name_H-M	'P1'
_symmetry_Int_Tables_number	1
_symmetry_cell_setting	triclinic
loop_
_symmetry_equiv_pos_as_xyz
  x,y,z
_cell_length_a	18.101395
_cell_length_b	19.077105
_cell_length_c	19.076919
_cell_angle_alpha	89.923776
_cell_angle_beta	92.272317
_cell_angle_gamma	92.272502
loop_
_atom_site_label
_atom_site_type_symbol
_atom_site_fract_x
_atom_site_fract_y
_atom_site_fract_z
Zn1	Zn	-0.358271	-1.058231	-0.440421
Zn2	Zn	-0.477344	-1.062857	-0.322915
Zn3	Zn	-0.348351	-0.945450	-0.318214
Zn4	Zn	-0.476897	-0.940679	-0.435668
O5	O	-0.415216	-1.001804	-0.379305
O6	O	-0.378405	-1.157176	-0.428790
O7	O	-0.456268	-1.051216	-0.223960
O8	O	-0.246037	-0.960470	-0.334447
O9	O	-0.465887	-1.160575	-0.342459
O10	O	-0.253326	-1.043330	-0.424232
O11	O	-0.361497	-0.964957	-0.220507
O12	O	-0.361064	-0.846486	-0.329838
O13	O	-0.465126	-0.952340	-0.534630
O14	O	-0.455506	-0.842981	-0.416131
O15	O	-0.377972	-1.038704	-0.538122
O16	O	-0.580914	-1.046590	-0.337850
O17	O	-0.580586	-0.956826	-0.420689
C18	C	-0.407161	-0.819237	-0.371959
C19	C	-0.403733	-0.741133	-0.368833
C20	C	-0.607621	-1.001711	-0.379280
C21	C	-0.689937	-1.001735	-0.379296
C22	C	-0.422606	-0.994474	-0.562585
C23	C	-0.425755	-0.991350	-0.640688
C24	C	-0.989036	-1.001887	-0.379340
C25	C	-0.957547	-0.945531	-0.431600
C26	C	-0.871910	-0.945280	-0.431419
C27	C	-0.840650	-1.001811	-0.379319
C28	C	-0.867911	-0.984741	-0.304458
C29	C	-0.953554	-0.984379	-0.304770
C30	C	-0.961424	-1.075459	-0.401293
C31	C	-0.875820	-1.074956	-0.402900
C32	C	-0.756788	-1.001770	-0.379302
C33	C	-1.072898	-1.001927	-0.379351
C34	C	-0.222060	-1.001916	-0.379345
C35	C	-0.139749	-1.001964	-0.379363
C36	C	-0.423303	-1.185084	-0.386679
C37	C	-0.426749	-1.263188	-0.389822
C38	C	-0.451363	-0.702636	-0.412222
C39	C	-0.448133	-0.629249	-0.409288
C40	C	-0.397276	-0.594361	-0.362962
C41	C	-0.349642	-0.632863	-0.319571
C42	C	-0.352869	-0.706248	-0.322509
C43	C	-0.382341	-0.375075	-0.349369
C44	C	-0.379119	-0.301684	-0.346433
C45	C	-0.477610	-0.298076	-0.436152
C46	C	-0.480836	-0.371463	-0.439082
C47	C	-0.433198	-0.409959	-0.395694
N48	N	-0.393975	-0.519348	-0.359960
N49	N	-0.436497	-0.484970	-0.398700
C50	C	-0.381860	-1.034846	-0.679200
C51	C	-0.384816	-1.031902	-0.752586
C52	C	-0.431671	-0.985466	-0.787458
C53	C	-0.475568	-0.941966	-0.748941
C54	C	-0.472608	-0.944906	-0.675556
C55	C	-0.445387	-0.971847	-1.006740
C56	C	-0.448346	-0.968911	-1.080130
C57	C	-0.357593	-1.058847	-1.083770
C58	C	-0.354640	-1.061786	-1.010384
C59	C	-0.398533	-1.018283	-0.971872
N60	N	-0.434696	-0.982458	-0.862471
N61	N	-0.395505	-1.021289	-0.896861
C62	C	-0.407803	-1.009146	-0.196739
C63	C	-0.404451	-1.012406	-0.118642
H64	H	-0.853628	-0.955615	-0.486834
Br65	Br	-0.318274	-1.097875	-0.631881
H66	H	-0.492778	-0.731037	-0.449944
H67	H	-0.321856	-1.094263	-1.115133
Br68	Br	-1.002272	-1.102367	-0.490988
Br69	Br	-0.827220	-0.896229	-0.273595
Br70	Br	-0.539153	-0.878940	-0.796267
H71	H	-0.522250	-0.399864	-0.476804
Br72	Br	-0.512774	-0.577006	-0.468178
H73	H	-0.980878	-0.955734	-0.487188
H74	H	-0.858335	-1.087883	-0.458008
Br75	Br	-0.280614	-0.585515	-0.256705
Br76	Br	-0.542260	-0.245829	-0.495029
Br77	Br	-0.988685	-0.855088	-0.407276
Br78	Br	-0.310103	-0.254336	-0.283550
Br79	Br	-0.511936	-0.905884	-1.127456
H80	H	-0.314080	-0.737591	-0.287181
Br81	Br	-0.317687	-0.427310	-0.290489
Br82	Br	-0.833949	-1.051222	-0.237569
H83	H	-0.349074	-1.067323	-0.783940
Br84	Br	-0.291051	-1.124811	-0.963062
Br85	Br	-0.504956	-0.912805	-0.954483
H86	H	-0.848550	-0.890687	-0.416642
H87	H	-0.970551	-0.930687	-0.286519
Br88	Br	-0.988020	-1.050087	-0.237387
Br89	Br	-0.840756	-1.148249	-0.344485
H90	H	-0.981841	-1.117410	-0.363267
H91	H	-0.508344	-0.909480	-0.644200
