data_functionalizedCrystal
_audit_creation_method	'MofGen! by Chris Wilmer'
_symmetry_space_group_name_H-M	'P1'
_symmetry_Int_Tables_number	1
_symmetry_cell_setting	triclinic
loop_
_symmetry_equiv_pos_as_xyz
  x,y,z
_cell_length_a	25.639239
_cell_length_b	18.215407
_cell_length_c	18.215399
_cell_angle_alpha	90.013852
_cell_angle_beta	89.967555
_cell_angle_gamma	89.965181
loop_
_atom_site_label
_atom_site_type_symbol
_atom_site_fract_x
_atom_site_fract_y
_atom_site_fract_z
Zn1	Zn	-0.208198	-1.124979	-0.416047
Zn2	Zn	-0.295637	-1.124865	-0.292976
Zn3	Zn	-0.208212	-1.001918	-0.293001
Zn4	Zn	-0.295598	-1.001848	-0.416007
O5	O	-0.251911	-1.063403	-0.354508
O6	O	-0.219807	-1.227948	-0.399727
O7	O	-0.284063	-1.108537	-0.189995
O8	O	-0.135045	-1.018320	-0.309350
O9	O	-0.284049	-1.227864	-0.309308
O10	O	-0.135034	-1.108733	-0.399751
O11	O	-0.219831	-1.018209	-0.190013
O12	O	-0.219793	-0.898925	-0.309311
O13	O	-0.283982	-1.018201	-0.518997
O14	O	-0.283996	-0.898873	-0.399684
O15	O	-0.219769	-1.108665	-0.519026
O16	O	-0.368797	-1.108469	-0.309270
O17	O	-0.368768	-1.018089	-0.399660
C18	C	-0.251892	-0.872196	-0.354496
C19	C	-0.251896	-0.790398	-0.354509
C20	C	-0.285387	-0.525332	-0.401500
C21	C	-0.285384	-0.602191	-0.401497
C22	C	-0.218430	-0.602214	-0.307528
C23	C	-0.218437	-0.525357	-0.307529
C24	C	-0.251914	-0.486918	-0.354519
C25	C	-0.251905	-0.640634	-0.354515
C26	C	-0.251901	-0.723968	-0.354511
C27	C	-0.251919	-0.403579	-0.354523
C28	C	-0.387754	-1.063279	-0.354474
C29	C	-0.445868	-1.063293	-0.354484
C30	C	-0.806233	-1.110586	-0.307521
C31	C	-0.860838	-1.110615	-0.307531
O32	O	-0.889077	-1.150696	-0.267565
N33	N	-0.888150	-1.063532	-0.354556
C34	C	-0.860856	-1.016423	-0.401580
O35	O	-0.889101	-0.976379	-0.441580
C36	C	-0.806252	-1.016399	-0.401573
C37	C	-0.778943	-1.063479	-0.354540
C38	C	-0.778924	-1.157663	-0.260492
C39	C	-0.724323	-1.157634	-0.260482
C40	C	-0.697032	-1.110527	-0.307500
C41	C	-0.724342	-1.063450	-0.354529
C42	C	-0.778959	-0.969294	-0.448600
C43	C	-0.724352	-0.969274	-0.448590
C44	C	-0.697042	-1.016355	-0.401556
C45	C	-0.642451	-1.016313	-0.401537
N46	N	-0.615138	-1.063396	-0.354512
C47	C	-0.642429	-1.110503	-0.307494
C48	C	-0.975526	-1.016479	-0.401591
C49	C	-1.030129	-1.016499	-0.401595
C50	C	-1.030107	-1.110691	-0.307547
C51	C	-0.975504	-1.110667	-0.307540
C52	C	-0.948214	-1.063561	-0.354566
C53	C	-0.527764	-1.110436	-0.307474
C54	C	-0.473159	-1.110400	-0.307466
C55	C	-0.473185	-1.016211	-0.401516
C56	C	-0.527786	-1.016243	-0.401522
C57	C	-0.555074	-1.063362	-0.354499
O58	O	-0.614177	-0.976254	-0.441485
O59	O	-0.614177	-1.150547	-0.267507
C60	C	-0.115538	-1.063547	-0.354558
C61	C	-0.057424	-1.063609	-0.354579
C62	C	-0.251869	-1.063438	-0.546461
C63	C	-0.251852	-1.063452	-0.628260
C64	C	-0.251927	-0.255356	-0.354519
C65	C	-0.251923	-0.337155	-0.354525
C66	C	-0.218384	-1.016458	-0.816464
C67	C	-0.218373	-1.016471	-0.893323
C68	C	-0.285257	-1.110534	-0.893293
C69	C	-0.285270	-1.110517	-0.816436
C70	C	-0.251830	-1.063480	-0.778023
C71	C	-0.251807	-1.063510	-0.931739
C72	C	-0.251796	-1.063524	-1.015073
C73	C	-0.251842	-1.063465	-0.694684
C74	C	-0.251915	-1.063410	-0.163301
C75	C	-0.251786	-1.063538	-0.081503
H76	H	-0.312642	-0.633465	-0.439753
H77	H	-0.191178	-0.494079	-0.269268
H78	H	-0.312647	-0.494038	-0.439763
O79	O	-0.185925	-0.639669	-0.261959
C80	C	-0.193104	-0.715743	-0.272020
H81	H	-0.210276	-0.726242	-0.328772
H82	H	-0.153934	-0.744978	-0.267126
H83	H	-0.220908	-0.737526	-0.228299
O84	O	-0.317745	-1.156129	-0.778976
C85	C	-0.310577	-1.146036	-0.702903
H86	H	-0.293449	-1.089257	-0.692417
H87	H	-0.349745	-1.150979	-0.673673
H88	H	-0.282741	-1.189711	-0.681105
H89	H	-0.450925	-1.148739	-0.269163
H90	H	-0.191139	-0.978180	-0.924618
H91	H	-0.702135	-0.930916	-0.486886
H92	H	-0.953271	-1.149004	-0.269242
O93	O	-0.317784	-1.156253	-0.930495
C94	C	-0.347298	-1.197765	-0.880082
H95	H	-0.349117	-1.167606	-0.825295
H96	H	-0.388489	-1.205582	-0.902271
H97	H	-0.328156	-1.253674	-0.871916
O98	O	-0.446750	-0.970391	-0.447219
C99	C	-0.482559	-0.928857	-0.488753
H100	H	-0.521499	-0.926329	-0.458616
H101	H	-0.466811	-0.870867	-0.496566
H102	H	-0.488324	-0.955789	-0.544663
H103	H	-0.549975	-1.148806	-0.269185
O104	O	-0.805348	-1.203449	-0.214744
C105	C	-0.769524	-1.245002	-0.173254
H106	H	-0.730624	-1.214836	-0.170689
H107	H	-0.785313	-1.252893	-0.115274
H108	H	-0.763666	-1.300876	-0.200248
O109	O	-0.697776	-1.203269	-0.214720
C110	C	-0.666231	-1.161398	-0.167149
H111	H	-0.682721	-1.103443	-0.162553
H112	H	-0.665629	-1.188056	-0.110538
H113	H	-0.624837	-1.158838	-0.189887
O114	O	-1.056703	-1.156482	-0.261994
C115	C	-1.110752	-1.146418	-0.272107
H116	H	-1.118181	-1.122212	-0.328855
H117	H	-1.131455	-1.201576	-0.267259
H118	H	-1.126327	-1.107331	-0.228384
H119	H	-0.953310	-0.978113	-0.439883
O120	O	-1.056573	-0.970735	-0.447347
C121	C	-1.020770	-0.929141	-0.488826
H122	H	-0.981826	-0.959267	-0.491388
H123	H	-1.036519	-0.921260	-0.546808
H124	H	-1.015014	-0.873263	-0.461825
H125	H	-0.801185	-0.930953	-0.486896
H126	H	-0.550023	-0.977909	-0.439823
H127	H	-0.191155	-0.978158	-0.785191
