data_functionalizedCrystal
_audit_creation_method	'MofGen! by Chris Wilmer'
_symmetry_space_group_name_H-M	'P1'
_symmetry_Int_Tables_number	1
_symmetry_cell_setting	triclinic
loop_
_symmetry_equiv_pos_as_xyz
  x,y,z
_cell_length_a	19.805407
_cell_length_b	18.101397
_cell_length_c	18.101398
_cell_angle_alpha	90.007564
_cell_angle_beta	90.005356
_cell_angle_gamma	90.020466
loop_
_atom_site_label
_atom_site_type_symbol
_atom_site_fract_x
_atom_site_fract_y
_atom_site_fract_z
Zn1	Zn	1.034669	-0.295006	0.418738
Zn2	Zn	1.368002	0.038328	0.752072
Zn3	Zn	1.701335	0.371661	1.085405
Zn4	Zn	1.034623	-0.418802	0.294891
Zn5	Zn	1.367957	-0.085469	0.628225
Zn6	Zn	1.701290	0.247864	0.961558
Zn7	Zn	0.921511	-0.294979	0.294909
Zn8	Zn	1.254845	0.038354	0.628242
Zn9	Zn	1.588178	0.371687	0.961576
Zn10	Zn	0.921459	-0.418810	0.418689
Zn11	Zn	1.254792	-0.085477	0.752023
Zn12	Zn	1.588125	0.247857	1.085356
O13	O	0.978065	-0.356899	0.356807
O14	O	1.311399	-0.023566	0.690140
O15	O	1.644732	0.309767	1.023474
O16	O	1.129379	-0.311436	0.402323
O17	O	1.462712	0.021898	0.735656
O18	O	1.796046	0.355231	1.068990
O19	O	1.019622	-0.402363	0.191261
O20	O	1.352955	-0.069029	0.524594
O21	O	1.686289	0.264304	0.857927
O22	O	0.936563	-0.191350	0.311363
O23	O	1.269896	0.141984	0.644697
O24	O	1.603230	0.475317	0.978030
O25	O	1.129346	-0.402388	0.311333
O26	O	1.462679	-0.069055	0.644666
O27	O	1.796013	0.264278	0.978000
O28	O	1.019699	-0.191369	0.402340
O29	O	1.353032	0.141964	0.735674
O30	O	1.686366	0.475297	1.069007
O31	O	0.936519	-0.311390	0.191274
O32	O	1.269852	0.021943	0.524607
O33	O	1.603186	0.355276	0.857941
O34	O	0.826788	-0.311398	0.311316
O35	O	1.160121	0.021936	0.644649
O36	O	1.493454	0.355269	0.977982
O37	O	0.936473	-0.402401	0.522329
O38	O	1.269806	-0.069068	0.855662
O39	O	1.603140	0.264265	1.188995
O40	O	0.826749	-0.402376	0.402256
O41	O	1.160082	-0.069042	0.735590
O42	O	1.493416	0.264291	1.068923
O43	O	1.019648	-0.311443	0.522365
O44	O	1.352981	0.021890	0.855698
O45	O	1.686315	0.355224	1.189031
O46	O	1.019571	-0.522436	0.311285
O47	O	1.352904	-0.189103	0.644619
O48	O	1.686237	0.144230	0.977952
O49	O	0.936429	-0.522442	0.402239
O50	O	1.269762	-0.189109	0.735573
O51	O	1.603096	0.144225	1.068906
C52	C	0.802209	-0.356885	0.356783
C53	C	1.135543	-0.023552	0.690116
C54	C	1.468876	0.309782	1.023450
C55	C	0.726977	-0.356897	0.356790
C56	C	1.060311	-0.023564	0.690124
C57	C	1.393644	0.309770	1.023457
C58	C	0.691631	-0.404340	0.404067
C59	C	1.024964	-0.071007	0.737400
C60	C	1.358297	0.262326	1.070733
C61	C	0.620942	-0.404342	0.404077
C62	C	0.954276	-0.071008	0.737410
C63	C	1.287609	0.262325	1.070744
C64	C	0.585602	-0.356903	0.356807
C65	C	0.918935	-0.023569	0.690140
C66	C	1.252269	0.309764	1.023474
C67	C	0.620953	-0.309454	0.309529
C68	C	0.954287	0.023879	0.642862
C69	C	1.287620	0.357213	0.976195
C70	C	0.691641	-0.309450	0.309523
C71	C	1.024974	0.023884	0.642856
C72	C	1.358307	0.357217	0.976189
C73	C	0.335880	-0.309470	0.309553
C74	C	0.669213	0.023863	0.642887
C75	C	1.002547	0.357196	0.976220
C76	C	0.265188	-0.309480	0.309561
C77	C	0.598521	0.023853	0.642895
C78	C	0.931855	0.357187	0.976228
C79	C	0.265182	-0.404363	0.404108
C80	C	0.598515	-0.071029	0.737441
C81	C	0.931849	0.262304	1.070774
C82	C	0.335869	-0.404358	0.404102
C83	C	0.669202	-0.071025	0.737435
C84	C	1.002536	0.262309	1.070768
C85	C	0.371214	-0.356907	0.356826
C86	C	0.704548	-0.023574	0.690160
C87	C	1.037881	0.309760	1.023493
C88	C	0.447863	-0.356905	0.356817
C89	C	0.781196	-0.023572	0.690150
C90	C	1.114530	0.309762	1.023483
C91	C	0.508955	-0.356908	0.356812
C92	C	0.842288	-0.023574	0.690146
C93	C	1.175621	0.309759	1.023479
C94	C	0.978008	-0.549310	0.356771
C95	C	1.311341	-0.215977	0.690104
C96	C	1.644674	0.117357	1.023438
C97	C	0.978045	-0.631624	0.356781
C98	C	1.311378	-0.298291	0.690114
C99	C	1.644711	0.035043	1.023447
C100	C	0.978131	-0.930715	0.356848
C101	C	1.311464	-0.597382	0.690181
C102	C	1.644798	-0.264048	1.023515
C103	C	1.030296	-0.899355	0.299469
C104	C	1.363629	-0.566022	0.632802
C105	C	1.696962	-0.232689	0.966136
C106	C	1.030476	-0.813737	0.299618
C107	C	1.363810	-0.480403	0.632951
C108	C	1.697143	-0.147070	0.966284
C109	C	0.978088	-0.782332	0.356814
C110	C	1.311422	-0.448999	0.690147
C111	C	1.644755	-0.115666	1.023481
C112	C	0.997406	-0.813371	0.434875
C113	C	1.330739	-0.480038	0.768208
C114	C	1.664072	-0.146704	1.101542
C115	C	0.997809	-0.899016	0.434562
C116	C	1.331143	-0.565682	0.767896
C117	C	1.664476	-0.232349	1.101229
C118	C	0.906510	-0.899216	0.336842
C119	C	1.239843	-0.565882	0.670175
C120	C	1.573176	-0.232549	1.003508
C121	C	0.906864	-0.813566	0.335099
C122	C	1.240197	-0.480232	0.668433
C123	C	1.573530	-0.146899	1.001766
C124	C	0.978063	-0.698473	0.356799
C125	C	1.311396	-0.365140	0.690133
C126	C	1.644730	-0.031806	1.023466
C127	C	0.978158	-1.014574	0.356868
C128	C	1.311491	-0.681241	0.690201
C129	C	1.644825	-0.347908	1.023535
C130	C	1.154608	-0.356914	0.356832
C131	C	1.487941	-0.023581	0.690165
C132	C	1.821275	0.309753	1.023498
C133	C	1.229840	-0.356920	0.356842
C134	C	1.563173	-0.023587	0.690175
C135	C	1.896507	0.309746	1.023509
C136	C	0.978060	-0.356926	0.549969
C137	C	1.311393	-0.023593	0.883302
C138	C	1.644726	0.309741	1.216636
C139	C	0.978057	-0.356937	0.632283
C140	C	1.311390	-0.023604	0.965616
C141	C	1.644724	0.309729	1.298950
C142	C	0.978142	-0.163737	0.356859
C143	C	1.311475	0.169596	0.690193
C144	C	1.644809	0.502929	1.023526
C145	C	0.978175	-0.081423	0.356882
C146	C	1.311508	0.251910	0.690215
C147	C	1.644841	0.585243	1.023548
C148	C	0.978052	-0.356926	0.782991
C149	C	1.311385	-0.023592	1.116325
C150	C	1.644719	0.309741	1.449658
C151	C	0.925723	-0.414152	0.814322
C152	C	1.259056	-0.080819	1.147656
C153	C	1.592389	0.252514	1.480989
C154	C	0.925515	-0.413977	0.899941
C155	C	1.258848	-0.080644	1.233274
C156	C	1.592182	0.252689	1.566607
C157	C	0.978047	-0.356915	0.931374
C158	C	1.311380	-0.023582	1.264707
C159	C	1.644714	0.309751	1.598041
C160	C	0.958950	-0.278811	0.900295
C161	C	1.292284	0.054522	1.233628
C162	C	1.625617	0.387856	1.566962
C163	C	0.958573	-0.279148	0.814650
C164	C	1.291907	0.054185	1.147983
C165	C	1.625240	0.387518	1.481317
C166	C	1.049609	-0.377119	0.814559
C167	C	1.382942	-0.043785	1.147893
C168	C	1.716276	0.289548	1.481226
C169	C	1.049223	-0.378834	0.900210
C170	C	1.382556	-0.045501	1.233543
C171	C	1.715889	0.287832	1.566876
C172	C	0.978045	-0.356905	1.015233
C173	C	1.311379	-0.023571	1.348567
C174	C	1.644712	0.309762	1.681900
C175	C	0.978052	-0.356931	0.699132
C176	C	1.311385	-0.023598	1.032465
C177	C	1.644719	0.309736	1.365799
C178	C	0.978060	-0.356896	1.164397
C179	C	1.311393	-0.023562	1.497730
C180	C	1.644726	0.309771	1.831063
C181	C	0.978042	-0.356904	1.082082
C182	C	1.311375	-0.023570	1.415416
C183	C	1.644709	0.309763	1.748749
H184	H	0.592174	-0.270825	0.271044
H185	H	0.925507	0.062508	0.604377
H186	H	1.258840	0.395841	0.937711
H187	H	0.720400	-0.442973	0.442557
H188	H	1.053733	-0.109640	0.775890
H189	H	1.387067	0.223693	1.109224
H190	H	0.720419	-0.270812	0.271029
H191	H	1.053752	0.062521	0.604363
H192	H	1.387086	0.395854	0.937696
H193	H	0.907225	-0.261430	0.921744
H194	H	1.240558	0.071903	1.255078
H195	H	1.573891	0.405236	1.588411
H196	H	1.018393	-0.792752	0.241737
H197	H	1.351726	-0.459419	0.575070
H198	H	1.685060	-0.126085	0.908403
H199	H	1.083530	-0.793199	0.312855
H200	H	1.416863	-0.459865	0.646188
H201	H	1.750197	-0.126532	0.979522
H202	H	0.872491	-0.400590	0.920428
H203	H	1.205824	-0.067256	1.253762
H204	H	1.539157	0.266077	1.587095
Br205	Br	0.877210	-0.935282	0.243614
Br206	Br	1.210544	-0.601948	0.576947
Br207	Br	1.543877	-0.268615	0.910281
Br208	Br	0.936009	-0.779482	0.508050
Br209	Br	1.269343	-0.446148	0.841383
Br210	Br	1.602676	-0.112815	1.174716
Br211	Br	1.083685	-0.777538	0.463603
Br212	Br	1.417018	-0.444205	0.796936
Br213	Br	1.750351	-0.110872	1.130269
H214	H	0.892297	-0.793284	0.277653
H215	H	1.225631	-0.459951	0.610986
H216	H	1.558964	-0.126617	0.944319
Br217	Br	0.572974	-0.468730	0.468242
Br218	Br	0.906308	-0.135397	0.801576
Br219	Br	1.239641	0.197936	1.134909
Br220	Br	1.085065	-0.932231	0.462808
Br221	Br	1.418398	-0.598898	0.796141
Br222	Br	1.751731	-0.265565	1.129474
Br223	Br	0.383828	-0.468746	0.468251
Br224	Br	0.717161	-0.135413	0.801585
Br225	Br	1.050495	0.197920	1.134918
Br226	Br	0.838597	-0.777950	0.399653
Br227	Br	1.171930	-0.444616	0.732987
Br228	Br	1.505264	-0.111283	1.066320
H229	H	0.906274	-0.262065	0.794673
H230	H	1.239607	0.071269	1.128006
H231	H	1.572941	0.404602	1.461340
H232	H	0.867643	-0.919498	0.378633
H233	H	1.200977	-0.586165	0.711967
H234	H	1.534310	-0.252832	1.045300
Br235	Br	0.945381	-0.510494	0.934968
Br236	Br	1.278714	-0.177161	1.268301
Br237	Br	1.612048	0.156172	1.601634
Br238	Br	0.945358	-0.510981	0.779992
Br239	Br	1.278691	-0.177648	1.113326
Br240	Br	1.612025	0.155686	1.446659
H241	H	0.236395	-0.442997	0.442604
H242	H	0.569729	-0.109664	0.775938
H243	H	0.903062	0.223670	1.109271
Br244	Br	1.118241	-0.935141	0.321275
Br245	Br	1.451574	-0.601808	0.654608
Br246	Br	1.784908	-0.268475	0.987941
H247	H	0.873002	-0.400930	0.792798
H248	H	1.206335	-0.067596	1.126132
H249	H	1.539668	0.265737	1.459465
H250	H	0.995043	-0.235042	0.793924
H251	H	1.328376	0.098292	1.127257
H252	H	1.661710	0.431625	1.460591
Br253	Br	0.217226	-0.245095	0.245404
Br254	Br	0.550559	0.088239	0.578738
Br255	Br	0.883893	0.421572	0.912071
H256	H	0.995896	-0.235004	0.920656
H257	H	1.329229	0.098329	1.253989
H258	H	1.662562	0.431662	1.587322
Br259	Br	1.010406	-0.933725	0.202704
Br260	Br	1.343739	-0.600392	0.536037
Br261	Br	1.677072	-0.267058	0.869370
H262	H	0.364650	-0.270838	0.271053
H263	H	0.697983	0.062495	0.604387
H264	H	1.031317	0.395828	0.937720
Br265	Br	0.937224	-0.933596	0.508238
Br266	Br	1.270557	-0.600263	0.841572
Br267	Br	1.603890	-0.266930	1.174905
Br268	Br	1.078663	-0.470443	0.778557
Br269	Br	1.411997	-0.137109	1.111890
Br270	Br	1.745330	0.196224	1.445224
H271	H	1.063627	-0.436315	0.920520
H272	H	1.396960	-0.102982	1.253853
H273	H	1.730293	0.230351	1.587186
Br274	Br	1.117653	-0.314462	0.935873
Br275	Br	1.450986	0.018871	1.269207
Br276	Br	1.784320	0.352205	1.602540
H277	H	1.088594	-0.335436	0.794304
H278	H	1.421927	-0.002103	1.127637
H279	H	1.755260	0.331231	1.460970
