data_functionalizedCrystal
_audit_creation_method	'MofGen! by Chris Wilmer'
_symmetry_space_group_name_H-M	'P1'
_symmetry_Int_Tables_number	1
_symmetry_cell_setting	triclinic
loop_
_symmetry_equiv_pos_as_xyz
  x,y,z
_cell_length_a	14.971486
_cell_length_b	9.730217
_cell_length_c	10.654549
_cell_angle_alpha	90.002171
_cell_angle_beta	84.050523
_cell_angle_gamma	89.996453
loop_
_atom_site_label
_atom_site_type_symbol
_atom_site_fract_x
_atom_site_fract_y
_atom_site_fract_z
O1	O	1.187833	0.114128	0.163654
O2	O	0.927540	0.114165	0.183252
O3	O	1.063669	0.114141	-0.009350
O4	O	1.051704	0.114153	0.356256
O5	O	1.063665	-0.114439	-0.009352
O6	O	0.927536	-0.114415	0.183251
O7	O	1.187829	-0.114452	0.163652
Zn8	Zn	1.057682	-0.150725	0.173451
Zn9	Zn	1.057687	0.150439	0.173453
O10	O	1.051700	-0.114427	0.356254
C11	C	0.894209	-0.000120	0.182375
C12	C	0.794897	-0.000106	0.179748
N13	N	1.057685	-0.356262	0.173449
C14	C	0.738289	-0.000104	0.292897
C15	C	0.644976	-0.000124	0.290422
C16	C	0.608273	-0.000137	0.174796
C17	C	0.664889	-0.000143	0.061639
C18	C	0.758200	-0.000132	0.064116
C19	C	0.470398	-0.000162	0.056485
C20	C	0.377080	-0.000170	0.054007
C21	C	0.357174	-0.000154	0.282791
C22	C	0.450485	-0.000143	0.285267
C23	C	0.507095	-0.000147	0.172109
C24	C	1.178277	-0.356274	0.002949
C25	C	1.238578	-0.428220	-0.082298
C26	C	1.238588	-0.572100	-0.082299
C27	C	1.178286	-0.644037	0.002954
C28	C	1.117985	-0.572091	0.088200
C29	C	1.117984	-0.428208	0.088194
C30	C	0.997390	-0.572078	0.258692
C31	C	0.997384	-0.428199	0.258701
C32	C	0.937089	-0.644015	0.343945
C33	C	0.876790	-0.572069	0.429199
C34	C	0.876784	-0.428181	0.429197
C35	C	0.937082	-0.356252	0.343948
C36	C	1.221161	-0.000163	0.164529
C37	C	1.320472	-0.000168	0.167156
C38	C	1.062788	-0.000148	-0.056139
C39	C	1.060157	-0.000143	-0.195554
N40	N	1.057692	0.355975	0.173446
C41	C	1.217996	-0.000172	-0.487232
C42	C	1.300625	-0.000187	-0.436581
C43	C	1.303100	-0.000185	-0.305590
C44	C	1.222938	-0.000173	-0.225244
C45	C	1.140310	-0.000159	-0.275895
C46	C	1.137843	-0.000156	-0.406891
C47	C	0.977528	-0.000128	-0.246205
C48	C	0.975051	-0.000120	-0.377196
C49	C	0.897366	-0.000116	-0.165859
C50	C	0.814736	-0.000092	-0.216510
C51	C	0.812264	-0.000092	-0.347510
C52	C	0.892423	-0.000105	-0.427847
C53	C	1.052582	-0.000136	0.403044
C54	C	1.055213	-0.000132	0.542459
H55	H	0.768165	-0.000093	0.387053
Cl56	Cl	1.226052	-0.000192	-0.060569
Cl57	Cl	0.496625	-0.000113	0.430627
H58	H	0.311078	-0.000158	0.374928
Cl59	Cl	0.900478	-0.000118	-0.001183
Cl60	Cl	1.314392	-0.662549	-0.189473
H61	H	1.370383	-0.000204	-0.264352
H62	H	0.804290	-0.000133	-0.028022
H63	H	1.178283	-0.239120	0.002951
Cl64	Cl	0.937094	-0.824894	0.343941
H65	H	0.598889	-0.000121	0.382559
Cl66	Cl	1.314380	-0.337783	-0.189472
H67	H	0.890418	-0.000097	-0.534509
Cl68	Cl	0.937083	-0.175374	0.343942
H69	H	0.827693	-0.630649	0.498600
Cl70	Cl	0.541562	-0.000169	-0.085774
H71	H	0.347200	-0.000182	-0.040145
H72	H	0.634998	-0.000173	-0.032505
H73	H	0.827675	-0.369610	0.498611
Cl74	Cl	1.214891	-0.000215	-0.651909
H75	H	1.178290	-0.761192	0.002937
Cl76	Cl	1.401394	-0.000216	-0.537591
Cl77	Cl	0.713973	-0.000086	-0.115501
H78	H	0.744978	-0.000094	-0.388740
