data_functionalizedCrystal
_audit_creation_method	'MofGen! by Chris Wilmer'
_symmetry_space_group_name_H-M	'P1'
_symmetry_Int_Tables_number	1
_symmetry_cell_setting	triclinic
loop_
_symmetry_equiv_pos_as_xyz
  x,y,z
_cell_length_a	13.635800
_cell_length_b	11.168121
_cell_length_c	17.982968
_cell_angle_alpha	85.739329
_cell_angle_beta	102.451960
_cell_angle_gamma	71.491504
loop_
_atom_site_label
_atom_site_type_symbol
_atom_site_fract_x
_atom_site_fract_y
_atom_site_fract_z
V1	V	2.020431	-0.175887	0.237555
O2	O	2.000881	0.007235	0.233026
O3	O	2.008810	-0.347585	0.235936
O4	O	1.993525	-0.173716	0.341158
O5	O	2.016271	-0.167837	0.127076
V6	V	2.260965	-0.153921	0.224340
O7	O	2.153751	-0.224073	0.266543
O8	O	2.352743	-0.105735	0.195352
O9	O	2.160983	0.017776	0.225958
O10	O	2.339213	-0.337043	0.228869
O11	O	2.323823	-0.161971	0.334818
O12	O	2.176267	-0.156092	0.120737
V13	V	2.520431	-0.175887	0.237555
O14	O	2.500881	0.007235	0.233026
O15	O	2.508810	-0.347585	0.235936
O16	O	2.493525	-0.173716	0.341158
O17	O	2.516271	-0.167837	0.127076
V18	V	2.760965	-0.153921	0.224340
O19	O	2.653751	-0.224073	0.266543
O20	O	2.852743	-0.105735	0.195352
O21	O	2.660983	0.017776	0.225958
O22	O	2.839213	-0.337043	0.228869
O23	O	2.823823	-0.161971	0.334818
O24	O	2.676267	-0.156092	0.120737
C25	C	1.934458	-0.389424	0.232190
C26	C	1.965581	-0.529792	0.231558
C27	C	2.066352	-0.598501	0.234889
C28	C	2.098522	-0.743579	0.234235
C29	C	1.914960	-0.167636	0.366410
C30	C	1.933687	-0.166996	0.451106
C31	C	2.067007	0.059609	0.229702
C32	C	2.025502	0.199976	0.230340
C33	C	2.086504	-0.162177	0.095481
C34	C	2.057396	-0.162810	0.010784
C35	C	2.434458	-0.389424	0.232190
C36	C	2.465581	-0.529792	0.231558
C37	C	2.414960	-0.167636	0.366410
C38	C	2.433687	-0.166996	0.451106
C39	C	2.033909	-0.173023	0.494778
C40	C	2.051498	-0.172422	0.574358
C41	C	1.968867	-0.165802	0.610267
C42	C	1.868637	-0.159771	0.566588
C43	C	1.851046	-0.160363	0.487008
C44	C	1.939575	-0.157380	0.887525
C45	C	1.957175	-0.156791	0.967112
C46	C	2.140028	-0.169438	0.974875
C47	C	2.122437	-0.170031	0.895295
C48	C	2.022207	-0.163993	0.851624
C49	C	2.003134	-0.164642	0.765333
C50	C	1.987941	-0.165161	0.696556
C51	C	2.567007	0.059609	0.229702
C52	C	2.525502	0.199976	0.230340
C53	C	2.586504	-0.162177	0.095481
C54	C	2.557396	-0.162810	0.010784
C55	C	2.533913	-0.173011	0.494764
C56	C	2.551519	-0.172394	0.574344
C57	C	2.468900	-0.165771	0.610265
C58	C	2.368665	-0.159752	0.566601
C59	C	2.351058	-0.160360	0.487022
C60	C	2.457783	-0.169418	-0.025118
C61	C	2.430414	-0.169998	-0.104700
C62	C	2.502663	-0.163978	-0.148379
C63	C	2.602283	-0.157365	-0.112472
C64	C	2.629647	-0.156776	-0.032892
C65	C	2.566352	-0.598501	0.234889
C66	C	2.598522	-0.743579	0.234235
H67	H	2.128810	-0.549921	0.238230
H68	H	2.349294	-0.175382	-0.133924
H69	H	2.439172	-0.740966	0.227485
H70	H	2.184846	-0.802642	0.237079
H71	H	2.628810	-0.549921	0.238230
H72	H	2.269443	-0.155465	0.451481
H73	H	2.189727	-0.175427	0.866064
H74	H	2.633142	-0.177300	0.609885
H75	H	1.939172	-0.740966	0.227485
H76	H	1.889880	-0.151398	0.996345
H77	H	2.601198	-0.178408	0.465528
H78	H	2.684846	-0.802642	0.237079
H79	H	1.903126	-0.578374	0.228226
H80	H	2.133105	-0.177323	0.609912
H81	H	2.101201	-0.178422	0.465548
H82	H	2.483251	-0.165277	0.675064
H83	H	2.221640	-0.174349	1.010442
H84	H	2.480373	-0.164474	-0.213176
H85	H	2.403126	-0.578374	0.228226
H86	H	2.398940	-0.174320	0.010436
H87	H	1.801357	-0.154374	0.595830
H88	H	1.857975	-0.152508	0.851981
H89	H	2.301402	-0.154360	0.595861
H90	H	1.769429	-0.155424	0.451448
H91	H	2.661100	-0.152460	-0.148047
H92	H	2.710765	-0.151402	-0.003666
