data_functionalizedCrystal
_audit_creation_method	'MofGen! by Chris Wilmer'
_symmetry_space_group_name_H-M	'P1'
_symmetry_Int_Tables_number	1
_symmetry_cell_setting	triclinic
loop_
_symmetry_equiv_pos_as_xyz
  x,y,z
_cell_length_a	19.188925
_cell_length_b	19.188924
_cell_length_c	16.776229
_cell_angle_alpha	89.991276
_cell_angle_beta	89.991906
_cell_angle_gamma	83.142256
loop_
_atom_site_label
_atom_site_type_symbol
_atom_site_fract_x
_atom_site_fract_y
_atom_site_fract_z
O1	O	0.926148	0.087151	-0.066309
O2	O	0.722835	0.098890	-0.066307
O3	O	0.830361	-0.008636	-0.066299
O4	O	0.818622	0.194677	-0.066317
O5	O	0.830347	-0.008642	0.066278
O6	O	0.722821	0.098883	0.066269
O7	O	0.926133	0.087145	0.066268
Zn8	Zn	0.824475	0.093013	0.087318
Zn9	Zn	0.824494	0.093022	-0.087357
O10	O	0.818608	0.194670	0.066259
C11	C	0.696817	0.098507	-0.000019
C12	C	0.619313	0.097368	-0.000018
C13	C	0.057541	0.152832	-0.000025
C14	C	0.130364	0.153908	-0.000029
C15	C	0.175300	0.090816	-0.000022
C16	C	0.147408	0.026642	-0.000031
C17	C	0.074586	0.025568	-0.000034
N18	N	0.295974	0.045137	0.045112
N19	N	0.365151	0.046163	0.045117
C20	C	0.394709	0.094050	-0.000013
N21	N	0.352476	0.140884	-0.045138
N22	N	0.283292	0.139861	-0.045140
C23	C	0.254264	0.091974	-0.000018
C24	C	0.501557	0.159387	-0.000014
C25	C	0.574381	0.160461	-0.000024
C26	C	0.591424	0.033193	-0.000017
C27	C	0.518600	0.032121	-0.000016
C28	C	0.473671	0.095220	-0.000011
C29	C	0.829975	-0.034650	-0.000010
C30	C	0.828836	-0.112155	-0.000008
C31	C	0.828312	-0.148550	-0.072275
C32	C	0.827232	-0.221373	-0.072281
C33	C	0.826690	-0.257799	-0.000016
C34	C	0.827210	-0.221395	0.072262
C35	C	0.828283	-0.148572	0.072266
N36	N	0.864732	-0.377466	0.053770
N37	N	0.863715	-0.446644	0.053761
C38	C	0.823456	-0.477208	-0.000023
N39	N	0.784262	-0.435982	-0.053811
N40	N	0.785283	-0.366798	-0.053804
C41	C	0.825526	-0.336763	-0.000012
C42	C	0.821760	-0.592566	-0.072302
C43	C	0.820676	-0.665390	-0.072305
C44	C	0.820661	-0.665411	0.072239
C45	C	0.821738	-0.592588	0.072240
C46	C	0.822291	-0.556170	-0.000033
C47	C	0.952151	0.087528	-0.000023
C48	C	1.029656	0.088667	-0.000029
C49	C	0.818994	0.220684	-0.000032
C50	C	0.820133	0.298189	-0.000039
N51	N	0.824467	0.093007	0.206529
N52	N	0.824507	0.093022	-0.206569
C53	C	0.872094	0.045414	0.248250
C54	C	0.872098	0.045413	0.331702
C55	C	0.824478	0.093009	0.373432
C56	C	0.776846	0.140604	0.331705
C57	C	0.776839	0.140601	0.248255
C58	C	0.776871	0.140618	0.668252
C59	C	0.776883	0.140619	0.751709
C60	C	0.872130	0.045430	0.751700
C61	C	0.872123	0.045427	0.668249
C62	C	0.824489	0.093019	0.626530
C63	C	0.824485	0.093018	0.536041
C64	C	0.824485	0.093014	0.463919
H65	H	0.495897	-0.020129	-0.000015
H66	H	0.738056	0.179355	0.214286
C67	C	0.828911	-0.108493	-0.151776
C68	C	0.890264	-0.066543	-0.171656
C69	C	0.890861	-0.026485	-0.251157
C70	C	0.830105	-0.028377	-0.310778
C71	C	0.768747	-0.070329	-0.290899
C72	C	0.768150	-0.110387	-0.211398
H73	H	0.935244	-0.065140	-0.127520
H74	H	0.936282	0.004571	-0.265873
H75	H	0.830547	0.001276	-0.369629
H76	H	0.723768	-0.071732	-0.335035
H77	H	0.722729	-0.141443	-0.196682
C78	C	0.008122	0.222241	-0.000026
C79	C	0.011118	0.274891	-0.068869
C80	C	-0.038301	0.344301	-0.068870
C81	C	-0.090717	0.361059	-0.000029
C82	C	-0.093716	0.308407	0.068819
C83	C	-0.044296	0.238998	0.068821
H84	H	0.049922	0.262487	-0.119834
H85	H	-0.036081	0.383277	-0.119837
H86	H	-0.127301	0.412440	-0.000031
H87	H	-0.132519	0.320812	0.119784
H88	H	-0.046516	0.200021	0.119787
C89	C	0.924524	-0.006929	0.797592
C90	C	0.924535	-0.006936	0.889385
C91	C	0.976930	-0.059292	0.935274
C92	C	1.029313	-0.111642	0.889371
C93	C	1.029304	-0.111638	0.797574
C94	C	0.976909	-0.059281	0.751684
H95	H	0.885756	0.031819	0.923370
H96	H	0.976936	-0.059295	1.003229
H97	H	1.068099	-0.150399	0.923342
H98	H	1.068083	-0.150392	0.763589
H99	H	0.976903	-0.059279	0.683729
C100	C	0.161048	0.224494	-0.000018
C101	C	0.111629	0.293899	-0.000011
C102	C	0.142310	0.364484	0.000002
C103	C	0.222412	0.365664	0.000009
C104	C	0.271837	0.296257	0.000003
C105	C	0.241155	0.225672	-0.000010
H106	H	0.052328	0.293027	-0.000017
H107	H	0.105723	0.415864	0.000007
H108	H	0.245125	0.417915	0.000019
H109	H	0.331137	0.297128	0.000008
H110	H	0.277743	0.174292	-0.000015
C111	C	0.924505	-0.006930	0.622346
C112	C	0.923581	-0.086436	0.633836
C113	C	0.975961	-0.138796	0.587933
C114	C	1.029264	-0.111650	0.530541
C115	C	1.030190	-0.032140	0.519048
C116	C	0.977810	0.020220	0.564951
H117	H	0.884120	-0.106534	0.676324
H118	H	0.975275	-0.197654	0.596441
H119	H	1.068039	-0.150410	0.496561
H120	H	1.069651	-0.012041	0.476561
H121	H	0.978496	0.079078	0.556443
H122	H	0.738102	0.179379	0.785684
C123	C	0.724482	0.192972	0.622364
C124	C	0.672122	0.245349	0.668261
C125	C	0.619733	0.297706	0.622366
C126	C	0.619702	0.297685	0.530574
C127	C	0.672064	0.245306	0.484671
C128	C	0.724454	0.192949	0.530566
H129	H	0.672143	0.245367	0.736216
H130	H	0.580971	0.336481	0.656347
H131	H	0.580920	0.336443	0.496600
H132	H	0.672044	0.245288	0.416716
H133	H	0.763216	0.154174	0.496585
H134	H	0.183999	-0.024728	-0.000027
H135	H	0.738069	0.179356	0.365686
H136	H	0.464973	0.210766	-0.000012
C137	C	0.605054	0.231049	-0.000013
C138	C	0.652765	0.249274	0.068834
C139	C	0.683437	0.319864	0.068848
C140	C	0.666398	0.372230	0.000014
C141	C	0.618684	0.354006	-0.068838
C142	C	0.588013	0.283416	-0.068852
H143	H	0.665380	0.210509	0.119794
H144	H	0.718757	0.333354	0.119818
H145	H	0.689103	0.424485	0.000025
H146	H	0.606069	0.392771	-0.119798
H147	H	0.552692	0.269926	-0.119822
C148	C	0.640843	-0.036212	-0.000012
C149	C	0.637851	-0.088863	0.068831
C150	C	0.687274	-0.158270	0.068832
C151	C	0.739690	-0.175026	-0.000010
C152	C	0.742684	-0.122373	-0.068858
C153	C	0.693261	-0.052966	-0.068859
H154	H	0.599048	-0.076460	0.119797
H155	H	0.685057	-0.197247	0.119799
H156	H	0.776276	-0.226405	-0.000009
H157	H	0.781487	-0.134776	-0.119824
H158	H	0.695478	-0.013989	-0.119826
C159	C	0.826662	-0.261420	-0.151780
C160	C	0.827271	-0.221363	-0.231276
C161	C	0.826703	-0.261408	-0.310774
C162	C	0.825526	-0.341510	-0.310776
C163	C	0.824917	-0.381571	-0.231277
C164	C	0.825485	-0.341526	-0.151779
H165	H	0.828142	-0.162062	-0.231277
H166	H	0.827153	-0.231751	-0.369624
H167	H	0.825105	-0.371153	-0.369626
H168	H	0.824045	-0.440871	-0.231277
H169	H	0.825034	-0.371183	-0.092929
H170	H	0.828706	-0.118939	0.131116
H171	H	0.820246	-0.695021	-0.131157
H172	H	0.051883	-0.026685	-0.000038
H173	H	0.826767	-0.251057	0.131101
H174	H	0.822207	-0.562913	-0.131152
C175	C	0.924478	-0.006944	0.202351
C176	C	0.897362	-0.060276	0.145000
C177	C	0.949746	-0.112637	0.099105
C178	C	1.029246	-0.111666	0.110560
C179	C	1.056367	-0.058332	0.167914
C180	C	1.003983	-0.005971	0.213809
H181	H	0.838507	-0.060997	0.136518
H182	H	0.929669	-0.152119	0.056648
H183	H	1.068024	-0.150427	0.076586
H184	H	1.115221	-0.057611	0.176396
H185	H	1.024059	0.033511	0.256267
C186	C	0.822328	-0.552550	0.151737
C187	C	0.821734	-0.592613	0.231230
C188	C	0.822324	-0.552576	0.310731
C189	C	0.823507	-0.472474	0.310739
C190	C	0.824100	-0.432406	0.231243
C191	C	0.823511	-0.472444	0.151742
H192	H	0.820859	-0.651913	0.231227
H193	H	0.821884	-0.582237	0.369579
H194	H	0.823943	-0.442836	0.369590
H195	H	0.824976	-0.373107	0.231246
H196	H	0.823950	-0.442783	0.092894
H197	H	0.820214	-0.695068	0.131080
H198	H	0.910879	0.006659	0.365671
