data_functionalizedCrystal
_audit_creation_method	'MofGen! by Chris Wilmer'
_symmetry_space_group_name_H-M	'P1'
_symmetry_Int_Tables_number	1
_symmetry_cell_setting	triclinic
loop_
_symmetry_equiv_pos_as_xyz
  x,y,z
_cell_length_a	9.065218
_cell_length_b	10.268362
_cell_length_c	9.065218
_cell_angle_alpha	89.996569
_cell_angle_beta	85.015919
_cell_angle_gamma	89.993259
loop_
_atom_site_label
_atom_site_type_symbol
_atom_site_fract_x
_atom_site_fract_y
_atom_site_fract_z
O1	O	-1.960401	0.108361	-0.216359
O2	O	-1.460401	0.608361	0.283641
O3	O	-1.531117	0.108349	-0.234105
O4	O	-1.031117	0.608349	0.265895
O5	O	-1.754632	0.108352	-0.010590
O6	O	-1.254632	0.608352	0.489410
O7	O	-1.736886	0.108357	-0.439875
O8	O	-1.236886	0.608357	0.060125
O9	O	-1.754613	-0.108248	-0.010580
O10	O	-1.254613	0.391752	0.489420
O11	O	-1.531097	-0.108252	-0.234096
O12	O	-1.031097	0.391748	0.265904
O13	O	-1.960382	-0.108240	-0.216350
O14	O	-1.460382	0.391760	0.283650
Cu15	Cu	-1.745737	-0.128023	-0.225222
Cu16	Cu	-1.245737	0.371977	0.274778
Cu17	Cu	-1.745761	0.128132	-0.225233
Cu18	Cu	-1.245761	0.628132	0.274767
O19	O	-1.736866	-0.108243	-0.439865
O20	O	-1.236866	0.391757	0.060135
C21	C	-1.476120	0.000047	-0.232395
C22	C	-0.976120	0.500047	0.267605
C23	C	-1.312277	0.000042	-0.227295
C24	C	-0.812277	0.500042	0.272705
N25	N	-1.745732	-0.308189	-0.225213
N26	N	-1.245732	0.191811	0.274787
C27	C	-1.745753	-0.573860	-0.225230
C28	C	-1.245753	-0.073860	0.274770
C29	C	-1.745737	-0.426022	-0.225225
C30	C	-1.245737	0.073978	0.274775
C31	C	-1.015378	0.000057	-0.218060
C32	C	-0.515378	0.500057	0.281940
C33	C	-1.179221	0.000046	-0.223159
C34	C	-0.679221	0.500046	0.276841
C35	C	-1.752917	0.000054	0.044402
C36	C	-1.252917	0.500054	0.544402
C37	C	-1.747817	0.000060	0.208244
C38	C	-1.247817	0.500060	0.708244
N39	N	-1.745778	0.308298	-0.225230
N40	N	-1.245778	0.808298	0.274770
C41	C	-1.738581	0.000058	-0.494856
C42	C	-1.238581	0.500058	0.005144
C43	C	-1.743681	0.000060	-0.658699
C44	C	-1.243681	0.500060	-0.158699
