data_functionalizedCrystal
_audit_creation_method	'MofGen! by Chris Wilmer'
_symmetry_space_group_name_H-M	'P1'
_symmetry_Int_Tables_number	1
_symmetry_cell_setting	triclinic
loop_
_symmetry_equiv_pos_as_xyz
  x,y,z
_cell_length_a	33.510554
_cell_length_b	33.509711
_cell_length_c	33.506470
_cell_angle_alpha	60.004186
_cell_angle_beta	60.008358
_cell_angle_gamma	59.994760
loop_
_atom_site_label
_atom_site_type_symbol
_atom_site_fract_x
_atom_site_fract_y
_atom_site_fract_z
O1	O	0.055430	-0.583081	0.487524
O2	O	0.020931	-0.453975	0.392819
O3	O	0.102693	-0.535652	0.392731
O4	O	-0.026332	-0.501404	0.487613
O5	O	0.129823	-0.508526	0.419767
O6	O	0.048062	-0.426850	0.419856
O7	O	0.082561	-0.555956	0.514561
Cu8	Cu	0.067789	-0.488926	0.469677
Cu9	Cu	0.035703	-0.521005	0.437703
O10	O	0.000799	-0.474279	0.514649
N11	N	0.090357	-0.466366	0.492168
N12	N	0.013139	-0.543569	0.415212
C13	C	0.143028	-0.279707	0.544737
C14	C	0.143165	-0.413746	0.678712
C15	C	0.143043	-0.413725	0.544739
C16	C	0.277090	-0.413694	0.544637
C17	C	0.157791	-0.323929	0.559462
C18	C	0.157869	-0.398994	0.634489
C19	C	0.232865	-0.398963	0.559407
C20	C	0.157801	-0.398982	0.559463
C21	C	0.124237	-0.223419	0.525994
C22	C	0.124262	-0.432490	0.525997
C23	C	0.176583	-0.380217	0.578205
C24	C	0.358938	-0.399566	0.501510
C25	C	0.410104	-0.416609	0.484423
C26	C	0.410135	-0.499402	0.515995
C27	C	0.358969	-0.482358	0.533084
C28	C	0.136554	-0.197822	0.475693
C29	C	0.119469	-0.146653	0.458657
C30	C	0.077755	-0.146680	0.542223
C31	C	0.094840	-0.197850	0.559260
C32	C	0.073954	-0.420144	0.538396
C33	C	0.056884	-0.437203	0.521352
C34	C	0.140427	-0.478952	0.479524
C35	C	0.157498	-0.461894	0.496561
C36	C	0.074158	-0.420182	0.760618
C37	C	0.057149	-0.437256	0.811786
C38	C	0.140732	-0.479014	0.811717
C39	C	0.157740	-0.461942	0.760547
C40	C	0.124452	-0.432525	0.734999
C41	C	0.333372	-0.432439	0.525839
C42	C	-0.020612	-0.577650	0.170305
C43	C	-0.020943	-0.788098	0.380897
C44	C	-0.020912	-0.577638	0.380991
C45	C	-0.231336	-0.577418	0.380585
C46	C	-0.129735	-0.611383	0.346870
C47	C	-0.054722	-0.611464	0.347017
C48	C	-0.073450	-0.630202	0.328195
C49	C	-0.087616	-0.712029	0.371239
C50	C	-0.070599	-0.763199	0.388315
C51	C	0.012191	-0.763282	0.356872
C52	C	-0.004828	-0.712113	0.339795
C53	C	-0.155381	-0.623711	0.397158
C54	C	-0.206547	-0.606601	0.414133
C55	C	-0.206417	-0.564839	0.330529
C56	C	-0.155251	-0.581949	0.313554
C57	C	-0.067051	-0.561160	0.334643
C58	C	-0.050026	-0.544131	0.351759
C59	C	-0.008343	-0.627704	0.393612
C60	C	-0.025368	-0.644736	0.376502
C61	C	-0.066922	-0.561168	0.246303
C62	C	-0.049794	-0.544141	0.195134
C63	C	-0.008048	-0.627719	0.195183
C64	C	-0.025175	-0.644745	0.246352
C65	C	-0.054614	-0.611468	0.271911
C66	C	-0.054732	-0.686488	0.346980
C67	C	-0.002117	-0.558258	0.114025
C68	C	-0.002879	-0.844379	0.399940
C69	C	-0.002504	-0.558243	0.399473
C70	C	-0.287615	-0.558285	0.398601
N71	N	0.434975	-0.466279	0.491900
O72	O	0.591199	-0.470749	0.375150
O73	O	0.591395	-0.565767	0.504116
O74	O	0.591311	-0.565550	0.422329
O75	O	0.591283	-0.470966	0.456937
O76	O	0.510024	-0.538522	0.449509
O77	O	0.510108	-0.538739	0.531297
O78	O	0.509913	-0.443721	0.402330
Cu79	Cu	0.502588	-0.488762	0.469295
Cu80	Cu	0.598719	-0.520726	0.437151
O81	O	0.509997	-0.443938	0.484117
N82	N	0.666332	-0.543209	0.414541
N83	N	0.090323	-0.121809	0.492157
O84	O	-0.026342	0.034503	0.487582
O85	O	0.102626	0.034543	0.392540
O86	O	0.020797	0.034507	0.392812
O87	O	0.055487	0.034539	0.487310
O88	O	0.047933	-0.046785	0.419900
O89	O	0.129763	-0.046749	0.419628
O90	O	0.000794	-0.046789	0.514670
Cu91	Cu	0.067756	-0.054192	0.469623
Cu92	Cu	0.035664	0.041946	0.437588
O93	O	0.082623	-0.046753	0.514399
N94	N	0.013091	0.109564	0.415054
N95	N	0.090671	-0.466416	0.836606
O96	O	0.086120	-0.583065	0.992910
O97	O	-0.008880	-0.454051	0.992954
O98	O	-0.008658	-0.535864	0.992931
O99	O	0.085897	-0.501252	0.992933
O100	O	0.018407	-0.508749	0.911642
O101	O	0.018185	-0.426936	0.911665
O102	O	0.113185	-0.555949	0.911621
Cu103	Cu	0.068156	-0.488967	0.904221
Cu104	Cu	0.036148	-0.521034	1.000355
O105	O	0.112963	-0.474136	0.911644
N106	N	0.013633	-0.543590	1.067970
C107	C	0.031262	-0.424144	0.393290
C108	C	0.132513	-0.525291	0.393180
C109	C	0.072229	-0.585787	0.514090
C110	C	-0.029022	-0.484640	0.514200
C111	C	0.550775	-0.565338	0.533954
C112	C	0.550672	-0.565070	0.432670
C113	C	0.550530	-0.444149	0.372492
C114	C	0.550635	-0.444418	0.473776
C115	C	0.132408	-0.005998	0.392963
C116	C	0.031106	-0.006142	0.393333
C117	C	-0.029021	-0.006147	0.514213
C118	C	0.072314	-0.006104	0.513878
C119	C	-0.008430	-0.424240	0.952316
C120	C	-0.008150	-0.525550	0.952271
C121	C	0.112735	-0.585760	0.952260
C122	C	0.112461	-0.484444	0.952286
H123	H	0.016194	-0.427197	0.832639
C124	C	0.550378	-0.403823	0.322480
N125	N	0.550238	-0.373441	0.284818
C126	C	-0.079067	-0.006133	0.554512
N127	N	-0.116765	-0.006112	0.584862
C128	C	0.550620	-0.404276	0.483779
N129	N	0.550606	-0.374041	0.491315
H130	H	0.550826	-0.595166	0.570996
C131	C	0.082351	-0.006095	0.553988
N132	N	0.089911	-0.006089	0.584199
C133	C	-0.048264	-0.535538	0.952223
N134	N	-0.078478	-0.543060	0.952186
C135	C	-0.048723	-0.374184	0.952332
N136	N	-0.079072	-0.336481	0.952344
H137	H	0.142562	-0.622811	0.952240
C138	C	0.182576	-0.535148	0.352928
N139	N	0.220284	-0.542573	0.322611
H140	H	0.142166	-0.477036	0.952281
H141	H	0.023675	-0.006147	0.363643
C142	C	-0.127038	-0.568388	0.258232
N143	N	-0.105789	-0.558173	0.216563
C144	C	0.082187	-0.635891	0.554275
N145	N	0.089687	-0.673630	0.584542
C146	C	-0.079085	-0.474783	0.554451
N147	N	-0.116793	-0.467358	0.584769
H148	H	0.550685	-0.594783	0.425263
H149	H	-0.227429	-0.616637	0.455084
H150	H	0.167840	-0.502959	0.832516
C151	C	0.037535	-0.387795	0.732519
N152	N	0.009951	-0.363394	0.711355
C153	C	0.213069	-0.475520	0.732371
N154	N	0.254742	-0.485745	0.711149
C155	C	0.182340	-0.005674	0.352552
N156	N	0.219949	-0.005429	0.322114
H157	H	0.023891	-0.387055	0.363546
H158	H	0.046887	-0.396202	0.562361
H159	H	0.160490	-0.218637	0.448603
H160	H	0.015920	-0.427139	0.531437
H161	H	0.167497	-0.502899	0.455559
H162	H	0.198463	-0.471942	0.486461
H163	H	0.338156	-0.509129	0.552896
H164	H	0.430920	-0.389838	0.464614
C165	C	0.438290	-0.554315	0.523966
N166	N	0.459498	-0.595676	0.529971
H167	H	0.129496	-0.125810	0.417697
C168	C	0.330782	-0.344652	0.493542
N169	N	0.309577	-0.303290	0.487539
H170	H	0.084809	-0.218687	0.600218
C171	C	-0.063347	-0.488804	0.166973
N172	N	-0.073555	-0.447125	0.145760
C173	C	0.045436	-0.118553	0.578818
N174	N	0.021096	-0.097369	0.606382
H175	H	0.015913	-0.654818	0.174378
C176	C	-0.099307	-0.524558	0.274415
N177	N	-0.123698	-0.496984	0.295589
H178	H	-0.090949	-0.534065	0.310634
C179	C	-0.063585	-0.488795	0.338147
N180	N	-0.073796	-0.447116	0.327892
C181	C	0.023965	-0.664308	0.426025
N182	N	0.048305	-0.691880	0.450434
C183	C	-0.011631	-0.700081	0.274518
N184	N	-0.001430	-0.741760	0.295731
H185	H	-0.015331	-0.685697	0.386578
H186	H	0.021953	-0.691318	0.320042
H187	H	0.052828	-0.784146	0.351024
H188	H	-0.097376	-0.783993	0.408060
H189	H	-0.128252	-0.691169	0.377093
H190	H	-0.134607	-0.647683	0.424287
H191	H	-0.227194	-0.540877	0.303400
