data_functionalizedCrystal
_audit_creation_method	'MofGen! by Chris Wilmer'
_symmetry_space_group_name_H-M	'P1'
_symmetry_Int_Tables_number	1
_symmetry_cell_setting	triclinic
loop_
_symmetry_equiv_pos_as_xyz
  x,y,z
_cell_length_a	10.654550
_cell_length_b	14.750779
_cell_length_c	10.654550
_cell_angle_alpha	102.766773
_cell_angle_beta	84.484931
_cell_angle_gamma	77.230523
loop_
_atom_site_label
_atom_site_type_symbol
_atom_site_fract_x
_atom_site_fract_y
_atom_site_fract_z
O1	O	1.640840	0.079755	0.203386
O2	O	1.275355	0.079773	0.220198
O3	O	1.466503	0.079758	0.029051
O4	O	1.449692	0.079771	0.394534
O5	O	1.520538	-0.079897	-0.024978
O6	O	1.329390	-0.079882	0.166169
O7	O	1.694875	-0.079899	0.149357
Zn8	Zn	1.520712	-0.105239	0.149185
Zn9	Zn	1.449518	0.105113	0.220371
O10	O	1.503727	-0.079884	0.340504
C11	C	1.255574	-0.000052	0.191950
C12	C	1.116129	-0.000046	0.188261
N13	N	1.569309	-0.248799	0.100602
C14	C	1.036643	-0.000044	0.300803
C15	C	0.905627	-0.000061	0.297320
C16	C	0.933596	-0.000076	0.068746
C17	C	1.064611	-0.000066	0.072227
C18	C	1.265206	-0.600593	0.404574
C19	C	1.299269	-0.701094	0.370538
C20	C	1.468566	-0.701071	0.201340
C21	C	1.434513	-0.600567	0.235357
C22	C	1.332833	-0.550336	0.336976
C23	C	1.502140	-0.550310	0.167760
C24	C	1.468094	-0.449815	0.201779
C25	C	1.366421	-0.399577	0.303396
C26	C	1.298787	-0.449841	0.370995
C27	C	1.603826	-0.600543	0.066148
C28	C	1.671453	-0.550286	-0.001450
C29	C	1.637401	-0.449789	0.032563
C30	C	1.535728	-0.399551	0.134180
C31	C	1.705034	-0.399525	-0.035036
C32	C	1.670988	-0.299030	-0.001017
C33	C	1.501682	-0.299056	0.168199
C34	C	1.714655	-0.000072	0.177606
C35	C	1.854099	-0.000072	0.181297
C36	C	1.492286	-0.000069	-0.044762
C37	C	1.488594	-0.000067	-0.184204
N38	N	1.400931	0.248672	0.268944
C39	C	1.601137	-0.000072	-0.263692
C40	C	1.597656	-0.000061	-0.394708
C41	C	1.369081	-0.000043	-0.366739
C42	C	1.372560	-0.000048	-0.235723
C43	C	1.477943	-0.000055	0.414318
C44	C	1.481634	-0.000051	0.553762
H45	H	1.078586	-0.000035	0.395282
H46	H	1.244191	-0.742009	0.425595
H47	H	1.280907	-0.000041	-0.170999
H48	H	1.695618	-0.000087	-0.221749
H49	H	1.274611	-0.000028	-0.408702
H50	H	1.689300	-0.000063	-0.459422
H51	H	0.840915	-0.000062	0.388963
H52	H	1.418875	-0.258156	0.250938
H53	H	0.891635	-0.000099	-0.025727
C54	C	1.152050	-0.000064	-0.051574
H55	H	1.102601	-0.000063	-0.121173
H56	H	1.222596	-0.055734	-0.073805
H57	H	1.184880	0.055623	-0.036119
H58	H	1.215980	-0.408940	0.453734
C59	C	1.328964	-0.289034	0.340826
H60	H	1.258730	-0.266318	0.411033
H61	H	1.303378	-0.266297	0.268094
H62	H	1.401678	-0.266289	0.366470
H63	H	1.551358	-0.741980	0.118604
C64	C	1.153357	-0.545332	0.516351
H65	H	1.117955	-0.589655	0.551745
H66	H	1.087414	-0.506132	0.483953
H67	H	1.185716	-0.506127	0.582328
H68	H	1.631546	-0.682372	0.038458
C69	C	1.783287	-0.605540	-0.113231
H70	H	1.818689	-0.561213	-0.148614
H71	H	1.750935	-0.644750	-0.179198
H72	H	1.849247	-0.644735	-0.080833
C73	C	1.816877	-0.454782	-0.146808
H74	H	1.852283	-0.410456	-0.182191
H75	H	1.784535	-0.493996	-0.212778
H76	H	1.882831	-0.493972	-0.114399
C77	C	1.745370	-0.243743	-0.075375
H78	H	1.810793	-0.288052	-0.140776
H79	H	1.784754	-0.204532	-0.016438
H80	H	1.686449	-0.204548	-0.114808
