data_functionalizedCrystal
_audit_creation_method	'MofGen! by Chris Wilmer'
_symmetry_space_group_name_H-M	'P1'
_symmetry_Int_Tables_number	1
_symmetry_cell_setting	triclinic
loop_
_symmetry_equiv_pos_as_xyz
  x,y,z
_cell_length_a	19.077105
_cell_length_b	19.121063
_cell_length_c	19.076919
_cell_angle_alpha	94.606347
_cell_angle_beta	90.076224
_cell_angle_gamma	90.263052
loop_
_atom_site_label
_atom_site_type_symbol
_atom_site_fract_x
_atom_site_fract_y
_atom_site_fract_z
Zn1	Zn	1.043169	-0.339734	-0.454309
Zn2	Zn	1.543169	0.160266	0.045691
Zn3	Zn	1.042790	-0.452646	-0.341419
Zn4	Zn	1.542790	0.047354	0.158581
Zn5	Zn	0.930805	-0.330327	-0.331718
Zn6	Zn	1.430805	0.169673	0.168282
Zn7	Zn	0.920631	-0.452222	-0.454155
Zn8	Zn	1.420631	0.047778	0.045845
O9	O	0.984349	-0.393732	-0.395400
O10	O	1.484349	0.106268	0.104600
O11	O	1.141268	-0.358826	-0.443459
O12	O	1.641268	0.141174	0.056541
O13	O	1.032035	-0.432660	-0.241647
O14	O	1.532035	0.067340	0.258353
O15	O	0.950127	-0.233307	-0.343985
O16	O	1.450127	0.266693	0.156015
O17	O	1.140989	-0.441782	-0.360519
O18	O	1.640989	0.058218	0.139481
O19	O	1.032681	-0.240219	-0.434052
O20	O	1.532681	0.259781	0.065948
O21	O	0.949760	-0.342793	-0.234520
O22	O	1.449760	0.157207	0.265480
O23	O	0.831307	-0.342382	-0.343835
O24	O	1.331307	0.157618	0.156165
O25	O	0.932786	-0.441060	-0.552660
O26	O	1.432786	0.058940	-0.052660
O27	O	0.823831	-0.431938	-0.433788
O28	O	1.323831	0.068062	0.066212
O29	O	1.022815	-0.358416	-0.552774
O30	O	1.522815	0.141584	-0.052774
O31	O	1.022169	-0.550857	-0.360369
O32	O	1.522169	-0.050857	0.139631
O33	O	0.932419	-0.550546	-0.443195
O34	O	1.432419	-0.050546	0.056805
C35	C	0.802120	-0.386094	-0.387742
C36	C	1.302120	0.113906	0.112258
C37	C	0.724160	-0.382844	-0.384484
C38	C	1.224160	0.117156	0.115516
C39	C	0.683661	-0.428009	-0.429719
C40	C	1.183661	0.071991	0.070281
C41	C	0.610410	-0.424946	-0.426660
C42	C	1.110410	0.075054	0.073340
C43	C	0.577659	-0.376721	-0.378362
C44	C	1.077659	0.123279	0.121638
C45	C	0.618164	-0.331551	-0.333125
C46	C	1.118164	0.168449	0.166875
C47	C	0.691414	-0.334611	-0.336188
C48	C	1.191414	0.165389	0.163812
C49	C	0.359002	-0.362559	-0.364190
C50	C	0.859002	0.137441	0.135810
C51	C	0.285746	-0.359503	-0.361130
C52	C	0.785746	0.140497	0.138870
C53	C	0.277998	-0.452898	-0.454666
C54	C	0.777998	0.047102	0.045334
C55	C	0.351249	-0.455957	-0.457722
C56	C	0.851249	0.044043	0.042278
C57	C	0.391747	-0.410784	-0.412487
C58	C	0.891747	0.089216	0.087513
N59	N	0.502785	-0.373590	-0.375233
N60	N	1.002785	0.126410	0.124767
N61	N	0.466620	-0.413912	-0.415620
N62	N	0.966620	0.086088	0.084380
C63	C	0.976167	-0.576182	-0.402834
C64	C	1.476167	-0.076182	0.097166
C65	C	0.972730	-0.654239	-0.406041
C66	C	1.472730	-0.154239	0.093959
C67	C	1.017877	-0.691052	-0.364463
C68	C	1.517877	-0.191052	0.135537
C69	C	1.014648	-0.764395	-0.367483
C70	C	1.514648	-0.264395	0.132517
C71	C	0.966269	-0.800923	-0.412078
C72	C	1.466269	-0.300923	0.087922
C73	C	0.921120	-0.764105	-0.453660
C74	C	1.421120	-0.264105	0.046340
C75	C	0.924353	-0.690764	-0.450644
C76	C	1.424353	-0.190764	0.049356
C77	C	0.954173	-1.022359	-0.423346
C78	C	1.454173	-0.522359	0.076654
C79	C	0.950942	-1.095705	-0.426358
C80	C	1.450942	-0.595705	0.073642
C81	C	1.044471	-1.095990	-0.340181
C82	C	1.544471	-0.595990	0.159819
C83	C	1.047697	-1.022647	-0.337165
C84	C	1.547697	-0.522647	0.162835
C85	C	1.002551	-0.985836	-0.378750
C86	C	1.502551	-0.485836	0.121250
C87	C	0.962966	-0.875891	-0.415164
C88	C	1.462966	-0.375891	0.084836
C89	C	1.005857	-0.910869	-0.375667
C90	C	1.505857	-0.410869	0.124333
C91	C	1.167289	-0.401401	-0.403088
C92	C	1.667289	0.098599	0.096912
C93	C	1.245247	-0.404669	-0.406365
C94	C	1.745247	0.095331	0.093635
C95	C	0.976708	-0.400740	-0.578967
C96	C	1.476708	0.099260	-0.078967
C97	C	0.973452	-0.403726	-0.657192
C98	C	1.473452	0.096274	-0.157192
C99	C	0.992581	-0.210571	-0.387953
C100	C	1.492581	0.289429	0.112047
C101	C	0.996089	-0.132518	-0.384780
C102	C	1.496089	0.367482	0.115220
C103	C	1.018793	-0.362103	-0.694003
C104	C	1.518793	0.137897	-0.194003
C105	C	1.015725	-0.364906	-0.767503
C106	C	1.515725	0.135094	-0.267503
C107	C	0.967319	-0.409336	-0.804192
C108	C	1.467319	0.090664	-0.304192
C109	C	0.921973	-0.450962	-0.767376
C110	C	1.421973	0.049038	-0.267376
C111	C	0.925038	-0.448154	-0.693877
C112	C	1.425038	0.051846	-0.193877
C113	C	0.953123	-0.422342	-1.024005
C114	C	1.453123	0.077658	-0.524005
C115	C	0.950063	-0.425148	-1.097510
C116	C	1.450063	0.074852	-0.597510
C117	C	1.043814	-0.339090	-1.097632
C118	C	1.543814	0.160910	-0.597632
C119	C	1.046877	-0.336290	-1.024131
C120	C	1.546877	0.163710	-0.524131
C121	C	1.001529	-0.377913	-0.987321
C122	C	1.501529	0.122087	-0.487321
N123	N	0.964183	-0.412204	-0.879321
N124	N	1.464183	0.087796	-0.379321
N125	N	1.004662	-0.375041	-0.912193
N126	N	1.504662	0.124959	-0.412193
C127	C	0.992003	-0.386702	-0.212547
C128	C	1.492003	0.113298	0.287453
C129	C	0.995403	-0.383524	-0.134320
C130	C	1.495403	0.116476	0.365680
H131	H	0.377909	-0.495228	-0.497049
H132	H	0.877909	0.004772	0.002951
C133	C	0.860134	-0.507671	-1.031276
C134	C	1.360134	-0.007671	-0.531276
C135	C	0.903268	-0.468084	-0.983549
C136	C	1.403268	0.031916	-0.483549
H137	H	0.829354	-0.535910	-1.006297
H138	H	1.329354	-0.035910	-0.506297
H139	H	0.833501	-0.477041	-1.057578
H140	H	1.333501	0.022959	-0.557578
H141	H	0.888295	-0.536918	-1.062315
H142	H	1.388295	-0.036918	-0.562315
H143	H	0.875107	-0.438833	-0.952513
H144	H	1.375107	0.061167	-0.452513
H145	H	0.929903	-0.498717	-0.957236
H146	H	1.429903	0.001283	-0.457236
C147	C	0.852541	-1.174673	-0.435494
C148	C	1.352541	-0.674673	0.064506
C149	C	0.897760	-1.135856	-0.475382
C150	C	1.397760	-0.635856	0.024618
H151	H	0.819707	-1.199455	-0.465758
H152	H	1.319707	-0.699455	0.034242
H153	H	0.878964	-1.207092	-0.411168
H154	H	1.378964	-0.707092	0.088832
H155	H	0.828276	-1.143794	-0.402513
H156	H	1.328276	-0.643794	0.097487
H157	H	0.922028	-1.166736	-0.508361
H158	H	1.422028	-0.666736	-0.008361
H159	H	0.871333	-1.103434	-0.499720
H160	H	1.371333	-0.603434	0.000280
C161	C	1.082379	-0.222479	-1.116858
C162	C	1.582379	0.277521	-0.616858
C163	C	1.093654	-0.293334	-1.138092
C164	C	1.593654	0.206666	-0.638092
H165	H	1.113152	-0.194230	-1.141834
H166	H	1.613152	0.305770	-0.641834
H167	H	1.035219	-0.210693	-1.126507
H168	H	1.535219	0.289307	-0.626507
H169	H	1.091132	-0.214460	-1.067833
H170	H	1.591132	0.285540	-0.567833
H171	H	1.084896	-0.301355	-1.187116
H172	H	1.584896	0.198645	-0.687116
H173	H	1.140825	-0.305124	-1.128448
H174	H	1.640825	0.194876	-0.628448
H175	H	1.045250	-0.881126	-0.339361
H176	H	1.545250	-0.381126	0.160639
H177	H	0.910642	-0.461330	-1.127379
H178	H	1.410642	0.038670	-0.627379
H179	H	0.917412	-0.992393	-0.457205
H180	H	1.417412	-0.492393	0.042795
H181	H	1.086296	-0.300112	-0.994264
H182	H	1.586296	0.199888	-0.494264
C183	C	0.277697	-0.545513	-0.547435
C184	C	0.777697	-0.045513	-0.047435
C185	C	0.233481	-0.502541	-0.504395
C186	C	0.733481	-0.002541	-0.004395
H187	H	0.250213	-0.576162	-0.578136
H188	H	0.750213	-0.076162	-0.078136
H189	H	0.306520	-0.517179	-0.574348
H190	H	0.806520	-0.017179	-0.074348
H191	H	0.306336	-0.572351	-0.519009
H192	H	0.806336	-0.072351	-0.019009
H193	H	0.204846	-0.475699	-0.532821
H194	H	0.704846	0.024301	-0.032821
H195	H	0.204646	-0.530878	-0.477480
H196	H	0.704646	-0.030878	0.022520
H197	H	0.391967	-0.325781	-0.327352
H198	H	0.891967	0.174219	0.172648
C199	C	0.833230	-0.604777	-0.452996
C200	C	1.333230	-0.104777	0.047004
C201	C	0.874726	-0.650297	-0.496347
C202	C	1.374726	-0.150297	0.003653
H203	H	0.802597	-0.579793	-0.481216
H204	H	1.302597	-0.079793	0.018784
H205	H	0.806440	-0.631129	-0.422370
H206	H	1.306440	-0.131129	0.077630
H207	H	0.862512	-0.572529	-0.426009
H208	H	1.362512	-0.072529	0.073991
H209	H	0.845444	-0.682548	-0.523331
H210	H	1.345444	-0.182548	-0.023331
H211	H	0.901519	-0.623942	-0.526985
H212	H	1.401519	-0.123942	-0.026985
C213	C	0.494682	-0.461721	-0.463503
C214	C	0.994682	0.038279	0.036497
C215	C	0.565892	-0.474593	-0.476383
C216	C	1.065892	0.025407	0.023617
H217	H	0.467201	-0.492369	-0.494206
H218	H	0.967201	0.007631	0.005794
H219	H	0.484181	-0.469617	-0.416119
H220	H	0.984181	0.030383	0.083881
H221	H	0.484371	-0.414448	-0.471461
H222	H	0.984371	0.085552	0.028539
H223	H	0.576205	-0.521865	-0.468420
H224	H	1.076205	-0.021865	0.031580
H225	H	0.576398	-0.466703	-0.523778
H226	H	1.076398	0.033297	-0.023778
H227	H	1.087091	-0.992907	-0.300852
H228	H	1.587091	-0.492907	0.199148
H229	H	0.259084	-0.320225	-0.321804
H230	H	0.759084	0.179775	0.178196
H231	H	0.881732	-0.793853	-0.489974
H232	H	1.381732	-0.293853	0.010026
C233	C	0.509320	-0.285390	-0.286898
C234	C	1.009320	0.214610	0.213102
C235	C	0.582166	-0.278538	-0.280037
C236	C	1.082166	0.221462	0.219963
H237	H	0.487099	-0.252663	-0.254120
H238	H	0.987099	0.247337	0.245880
H239	H	0.495818	-0.276492	-0.333279
H240	H	0.995818	0.223508	0.166721
H241	H	0.495638	-0.331660	-0.277936
H242	H	0.995638	0.168340	0.222064
H243	H	0.595848	-0.232269	-0.289004
H244	H	1.095848	0.267731	0.210996
H245	H	0.595674	-0.287430	-0.233645
H246	H	1.095674	0.212570	0.266355
C247	C	0.904535	-0.548170	-0.853457
C248	C	1.404535	-0.048170	-0.353457
C249	C	0.868764	-0.499802	-0.807702
C250	C	1.368764	0.000198	-0.307702
H251	H	0.871685	-0.578325	-0.878348
H252	H	1.371685	-0.078325	-0.378348
H253	H	0.931093	-0.523782	-0.885897
H254	H	1.431093	-0.023782	-0.385897
H255	H	0.935079	-0.575214	-0.827153
H256	H	1.435079	-0.075214	-0.327153
H257	H	0.838224	-0.472754	-0.834007
H258	H	1.338224	0.027246	-0.334007
H259	H	0.842194	-0.524192	-0.775258
H260	H	1.342194	-0.024192	-0.275258
C261	C	0.832081	-0.533520	-0.701136
C262	C	1.332081	-0.033520	-0.201136
C263	C	0.875210	-0.493921	-0.653413
C264	C	1.375210	0.006079	-0.153413
H265	H	0.801323	-0.561779	-0.676154
H266	H	1.301323	-0.061779	-0.176154
H267	H	0.805425	-0.502897	-0.727424
H268	H	1.305425	-0.002897	-0.227424
H269	H	0.860248	-0.562748	-0.732187
H270	H	1.360248	-0.062748	-0.232187
H271	H	0.847043	-0.464689	-0.622364
H272	H	1.347043	0.035311	-0.122364
H273	H	0.901868	-0.524547	-0.627113
H274	H	1.401868	-0.024547	-0.127113
C275	C	1.110003	-0.698707	-0.279588
C276	C	1.610003	-0.198707	0.220412
C277	C	1.071057	-0.650903	-0.315442
C278	C	1.571057	-0.150903	0.184558
H279	H	1.142838	-0.673922	-0.249329
H280	H	1.642838	-0.173922	0.250671
H281	H	1.079325	-0.725042	-0.252540
H282	H	1.579325	-0.225042	0.247460
H283	H	1.134268	-0.729572	-0.312584
H284	H	1.634268	-0.229572	0.187416
H285	H	1.046787	-0.620042	-0.282447
H286	H	1.546787	-0.120042	0.217553
H287	H	1.101739	-0.624557	-0.342492
H288	H	1.601739	-0.124557	0.157508
H289	H	0.923575	-0.905641	-0.451472
H290	H	1.423575	-0.405641	0.048528
H291	H	1.058212	-0.325924	-0.664136
H292	H	1.558212	0.174076	-0.164136
C293	C	0.668637	-0.520010	-0.521874
C294	C	1.168637	-0.020010	-0.021874
C295	C	0.719657	-0.481018	-0.482813
C296	C	1.219657	0.018982	0.017187
H297	H	0.690859	-0.552731	-0.554656
H298	H	1.190859	-0.052731	-0.054656
H299	H	0.640140	-0.544458	-0.491065
H300	H	1.140140	-0.044458	0.008935
H301	H	0.640317	-0.489282	-0.546400
H302	H	1.140317	0.010718	-0.046400
H303	H	0.747974	-0.511745	-0.458282
H304	H	1.247974	-0.011745	0.041718
H305	H	0.748166	-0.456568	-0.513625
H306	H	1.248166	0.043432	-0.013625
C307	C	1.135605	-1.181960	-0.337843
C308	C	1.635605	-0.681960	0.162157
C309	C	1.094106	-1.136451	-0.294482
C310	C	1.594106	-0.636451	0.205518
H311	H	1.166254	-1.206933	-0.309630
H312	H	1.666254	-0.706933	0.190370
H313	H	1.106329	-1.214210	-0.364821
H314	H	1.606329	-0.714210	0.135179
H315	H	1.162383	-1.155595	-0.368477
H316	H	1.662383	-0.655595	0.131523
H317	H	1.067323	-1.162816	-0.263851
H318	H	1.567323	-0.662816	0.236149
H319	H	1.123385	-1.104196	-0.267491
H320	H	1.623385	-0.604196	0.232509
H321	H	1.052648	-0.331013	-0.797471
H322	H	1.552648	0.168987	-0.297471
C323	C	0.691720	-0.241998	-0.243414
C324	C	1.191720	0.258002	0.256586
C325	C	0.735933	-0.284970	-0.286458
C326	C	1.235933	0.215030	0.213542
H327	H	0.719206	-0.211355	-0.212710
H328	H	1.219206	0.288645	0.287290
H329	H	0.663083	-0.215162	-0.271833
H330	H	1.163083	0.284838	0.228167
H331	H	0.662895	-0.270338	-0.216498
H332	H	1.162895	0.229662	0.283502
H333	H	0.764756	-0.256630	-0.313378
H334	H	1.264756	0.243370	0.186622
H335	H	0.764583	-0.311809	-0.258036
H336	H	1.264583	0.188191	0.241964
H337	H	1.051411	-0.794364	-0.333625
H338	H	1.551411	-0.294364	0.166375
