data_functionalizedCrystal
_audit_creation_method	'MofGen! by Chris Wilmer'
_symmetry_space_group_name_H-M	'P1'
_symmetry_Int_Tables_number	1
_symmetry_cell_setting	triclinic
loop_
_symmetry_equiv_pos_as_xyz
  x,y,z
_cell_length_a	18.426585
_cell_length_b	14.628931
_cell_length_c	14.628931
_cell_angle_alpha	90.000000
_cell_angle_beta	60.002031
_cell_angle_gamma	59.999229
loop_
_atom_site_label
_atom_site_type_symbol
_atom_site_fract_x
_atom_site_fract_y
_atom_site_fract_z
Zr1	Zr	0.794352	0.880612	-0.119925
O2	O	0.945750	0.734650	-0.265878
O3	O	0.642953	0.925357	-0.075187
O4	O	0.794351	0.925357	-0.265885
O5	O	0.794352	0.734651	0.075252
O6	O	0.794352	1.075788	-0.265885
O7	O	0.794351	0.734651	-0.075180
O8	O	0.523527	1.075789	0.075239
O9	O	1.065177	0.734649	-0.265872
O10	O	0.705226	1.056705	-0.056101
O11	O	0.705226	0.944440	0.056165
O12	O	0.883478	0.944439	-0.168358
O13	O	0.883478	0.832173	-0.056092
Zr14	Zr	0.794353	1.120532	0.119996
Zr15	Zr	0.794352	1.120533	-0.119925
Zr16	Zr	0.794352	0.880611	0.119997
Zr17	Zr	0.984823	0.880610	-0.119916
Zr18	Zr	0.603881	1.120534	0.119987
O19	O	0.945752	1.075787	0.075259
O20	O	0.945751	1.075787	-0.265878
O21	O	0.945751	0.734650	0.075259
O22	O	0.642954	1.266494	0.265950
O23	O	0.642953	1.266494	-0.075187
O24	O	0.642953	0.925357	0.265950
O25	O	0.794353	1.266493	-0.075180
O26	O	0.794353	1.075787	0.265957
O27	O	0.794353	0.925356	0.265957
O28	O	0.794353	1.266493	0.075251
O29	O	1.065177	0.925355	-0.265872
O30	O	0.523527	1.075789	0.265944
O31	O	0.523528	1.266494	0.265944
O32	O	0.523527	1.266495	0.075239
O33	O	1.065177	0.734649	-0.075167
O34	O	1.065178	0.925355	-0.075167
O35	O	0.705226	1.056705	0.168430
O36	O	0.705226	1.168971	0.056164
O37	O	0.883479	1.056704	-0.056093
O38	O	0.883479	0.944439	0.056173
C39	C	0.794352	0.700467	0.000036
C40	C	0.794351	0.598614	0.000036
C41	C	0.556102	1.000573	0.000025
C42	C	0.475241	1.000574	0.000021
C43	C	0.882777	0.497513	-0.055651
C44	C	0.882778	0.392242	-0.055652
C45	C	0.179132	1.000568	0.000054
C46	C	0.261519	1.000567	0.000047
C47	C	0.327185	1.000570	0.000036
C48	C	0.409575	1.000571	0.000031
C49	C	1.032603	1.000570	0.000047
C50	C	1.113463	1.000570	0.000051
C51	C	0.794352	1.000572	-0.300069
C52	C	0.794351	1.000573	-0.401922
C53	C	0.794353	1.300677	0.000035
C54	C	0.794353	1.402530	0.000035
C55	C	0.882777	0.944881	-0.503018
C56	C	0.882778	0.944880	-0.608289
C57	C	0.794353	1.000572	0.300141
C58	C	0.794353	1.000571	0.401993
C59	C	0.556102	1.300678	0.000024
C60	C	0.475242	1.402532	0.000020
C61	C	0.556102	1.000573	0.300129
C62	C	0.475242	1.000573	0.401978
C63	C	0.556103	1.300678	0.300129
C64	C	0.475243	1.402531	0.401978
C65	C	1.032602	0.700466	-0.300057
C66	C	1.113461	0.598613	-0.401906
C67	C	1.032602	0.700466	0.000048
C68	C	1.113462	0.598612	0.000051
C69	C	1.032602	1.000571	-0.300058
C70	C	1.113462	1.000571	-0.401907
C71	C	0.437269	1.391762	-0.058593
C72	C	0.361303	1.487455	-0.058619
C73	C	0.323307	1.593916	-0.000025
C74	C	0.361287	1.604684	0.058590
C75	C	0.437257	1.508992	0.058609
C76	C	0.437270	1.059175	0.508419
C77	C	0.361304	1.059171	0.604126
C78	C	0.323307	1.000571	0.593390
C79	C	0.361287	0.941963	0.486938
C80	C	0.437256	0.941961	0.391234
C81	C	0.437271	1.508974	0.391206
C82	C	0.361305	1.604685	0.486894
C83	C	0.323308	1.593951	0.593354
C84	C	0.361288	1.487497	0.604124
C85	C	0.437258	1.391788	0.508437
C86	C	1.151443	0.492170	-0.391134
C87	C	1.227432	0.396459	-0.486823
C88	C	1.265433	0.407193	-0.593282
C89	C	1.227448	0.513647	-0.604052
C90	C	1.151466	0.609356	-0.508365
C91	C	1.151443	0.609382	0.058655
C92	C	1.227430	0.513689	0.058654
C93	C	1.265429	0.407228	0.000057
C94	C	1.227445	0.396460	-0.058554
C95	C	1.151465	0.492152	-0.058559
C96	C	1.151435	1.059181	-0.391135
C97	C	1.227402	1.059203	-0.486824
C98	C	1.265399	1.000606	-0.593283
C99	C	1.227418	0.941994	-0.604053
C100	C	1.151448	0.941979	-0.508365
H101	H	0.958479	0.488893	-0.103330
Br102	Br	1.008965	0.247687	-0.135108
H103	H	1.327298	0.329318	0.000070
Br104	Br	1.279025	0.251967	-0.138071
Br105	Br	0.668167	1.080056	-0.387545
H106	H	1.258318	1.106931	-0.478033
Br107	Br	1.368504	1.000636	-0.723135
H108	H	0.330340	1.478773	0.690816
H109	H	1.120539	0.894246	-0.517152
H110	H	0.718645	0.489257	0.047718
Br111	Br	0.309775	1.138719	0.748582
Br112	Br	0.309706	1.749177	0.138110
Br113	Br	1.099892	0.753854	0.138186
H114	H	0.958483	0.897193	-0.695016
H115	H	0.261449	1.671892	0.671260
H116	H	0.261448	1.000582	0.671328
Br117	Br	0.309775	1.749144	0.472252
H118	H	0.718645	1.048248	-0.511283
H119	H	1.258367	0.894286	-0.690745
H120	H	0.468197	1.517735	0.304529
Br121	Br	0.488778	1.247333	0.523076
H122	H	1.120541	0.696024	-0.517149
H123	H	0.468206	1.305084	-0.106321
H124	H	1.120543	0.483367	-0.106278
Br125	Br	0.488777	0.862426	0.246782
H126	H	0.330338	0.894253	0.478213
H127	H	0.958479	0.897207	-0.511635
H128	H	1.258344	0.522479	0.106386
H129	H	1.120510	1.106898	-0.304459
H130	H	0.330389	1.478665	-0.106350
H131	H	0.718649	0.607235	0.047704
Br132	Br	0.220203	1.723774	-0.000062
H133	H	0.468165	1.517777	0.106346
H134	H	1.120507	0.483408	-0.304458
Br135	Br	0.488816	1.138718	0.523021
Br136	Br	1.278965	0.252000	-0.472180
Br137	Br	1.368554	0.277290	-0.723135
Br138	Br	1.279030	0.528196	-0.748543
