data_functionalizedCrystal
_audit_creation_method	'MofGen! by Chris Wilmer'
_symmetry_space_group_name_H-M	'P1'
_symmetry_Int_Tables_number	1
_symmetry_cell_setting	triclinic
loop_
_symmetry_equiv_pos_as_xyz
  x,y,z
_cell_length_a	12.827893
_cell_length_b	16.959453
_cell_length_c	12.827885
_cell_angle_alpha	89.966028
_cell_angle_beta	89.980728
_cell_angle_gamma	90.019958
loop_
_atom_site_label
_atom_site_type_symbol
_atom_site_fract_x
_atom_site_fract_y
_atom_site_fract_z
Zn1	Zn	1.597636	-0.314644	-0.590818
Zn2	Zn	1.597516	-0.446843	-0.416066
Zn3	Zn	1.422878	-0.314682	-0.416092
Zn4	Zn	1.422849	-0.446784	-0.590766
O5	O	1.510220	-0.380738	-0.503435
O6	O	1.743856	-0.332189	-0.567648
O7	O	1.574312	-0.429352	-0.269833
O8	O	1.446122	-0.204066	-0.439303
O9	O	1.743768	-0.429315	-0.439258
O10	O	1.574516	-0.204038	-0.567673
O11	O	1.446006	-0.332254	-0.269852
O12	O	1.276638	-0.332197	-0.439252
O13	O	1.446073	-0.429215	-0.737009
O14	O	1.276617	-0.429252	-0.567584
O15	O	1.574488	-0.332132	-0.737047
O16	O	1.574284	-0.557446	-0.439207
O17	O	1.445957	-0.557403	-0.567559
C18	C	1.238710	-0.380723	-0.503416
C19	C	1.122557	-0.380736	-0.503432
C20	C	1.510133	-0.586105	-0.503397
C21	C	1.510191	-0.673961	-0.503416
C22	C	1.070789	-0.428836	-0.566837
C23	C	0.950739	-0.428850	-0.566855
C24	C	1.577160	-1.045364	-0.570404
C25	C	1.443571	-1.045510	-0.436622
C26	C	1.443532	-0.962964	-0.436598
C27	C	1.510307	-0.921614	-0.503479
C28	C	1.577121	-0.962810	-0.570384
C29	C	1.376712	-0.921762	-0.369701
C30	C	1.376670	-0.839211	-0.369675
C31	C	1.443451	-0.797860	-0.436552
C32	C	1.510269	-0.839061	-0.503459
C33	C	1.577044	-0.797711	-0.570341
C34	C	1.643867	-0.838910	-0.637243
C35	C	1.643903	-0.921459	-0.637261
C36	C	1.443416	-0.715311	-0.436534
C37	C	1.577005	-0.715157	-0.570321
C38	C	1.782790	-0.380754	-0.503456
C39	C	1.898943	-0.380761	-0.503465
C40	C	1.510291	-0.380662	-0.776006
C41	C	1.510321	-0.380630	-0.892159
C42	C	1.510336	-0.174570	-0.503497
C43	C	1.510385	-0.086714	-0.503523
C44	C	1.573872	-0.332581	-0.943963
C45	C	1.573905	-0.332546	-1.064013
C46	C	1.510209	-0.380757	-0.231926
C47	C	1.510381	-0.380567	-0.115773
H48	H	1.115346	-0.470004	-0.621110
H49	H	1.628252	-0.291467	-0.899437
H50	H	1.455974	-0.421708	-1.071230
C51	C	1.647412	-0.276970	-1.124188
C52	C	1.647340	-0.277014	-1.244233
C53	C	1.720850	-0.221435	-1.304410
C54	C	1.794432	-0.165812	-1.244541
C55	C	1.794507	-0.165765	-1.124489
C56	C	1.720997	-0.221344	-1.064312
H57	H	1.592868	-0.318192	-1.288558
H58	H	1.720794	-0.221470	-1.393281
H59	H	1.848849	-0.124669	-1.289087
H60	H	1.848979	-0.124587	-1.080164
H61	H	1.721053	-0.221309	-0.975441
C62	C	0.890606	-0.484487	-0.640193
C63	C	0.770561	-0.484422	-0.640107
C64	C	0.710426	-0.540060	-0.713448
C65	C	0.770337	-0.595764	-0.786875
C66	C	0.890389	-0.595832	-0.786964
C67	C	0.950524	-0.540193	-0.713623
H68	H	0.726205	-0.443185	-0.585749
H69	H	0.621555	-0.540010	-0.713382
H70	H	0.725821	-0.636951	-0.841167
H71	H	0.934745	-0.637069	-0.841322
H72	H	1.039395	-0.540243	-0.713690
H73	H	1.455930	-0.421736	-0.936685
H74	H	0.943455	-0.339581	-0.449175
C75	C	1.062375	-0.325113	-0.430112
C76	C	0.987351	-0.263157	-0.475619
C77	C	0.927173	-0.207533	-0.402296
C78	C	0.942019	-0.213864	-0.283467
C79	C	1.017046	-0.275823	-0.237954
C80	C	1.077224	-0.331447	-0.311276
H81	H	0.976359	-0.258468	-0.563589
H82	H	0.871633	-0.161667	-0.435988
H83	H	0.897471	-0.172688	-0.229189
H84	H	1.028038	-0.280512	-0.149984
H85	H	1.132764	-0.377313	-0.277584
H86	H	1.322345	-0.955435	-0.315253
H87	H	1.631386	-0.681495	-0.624780
C88	C	1.370126	-1.090995	-0.363054
C89	C	1.378723	-1.079715	-0.244260
C90	C	1.305279	-1.125205	-0.170686
C91	C	1.223238	-1.181975	-0.215905
C92	C	1.214638	-1.193258	-0.334705
C93	C	1.288082	-1.147768	-0.408279
H94	H	1.439458	-1.037688	-0.210781
H95	H	1.311647	-1.116852	-0.082742
H96	H	1.168871	-1.215650	-0.161441
H97	H	1.153903	-1.235285	-0.368185
H98	H	1.281715	-1.156120	-0.496223
C99	C	1.717317	-0.793419	-0.710812
C100	C	1.799347	-0.736644	-0.665584
C101	C	1.872794	-0.691149	-0.739150
C102	C	1.864211	-0.702430	-0.857945
C103	C	1.782177	-0.759207	-0.903179
C104	C	1.708730	-0.804702	-0.829613
H105	H	1.805704	-0.728291	-0.577640
H106	H	1.933521	-0.649119	-0.705664
H107	H	1.918581	-0.668752	-0.912403
H108	H	1.775820	-0.767560	-0.991124
H109	H	1.648004	-0.846733	-0.863099
H110	H	1.698306	-0.955011	-0.691731
H111	H	1.322260	-0.805672	-0.315199
C112	C	1.650659	-1.090679	-0.643998
C113	C	1.732758	-1.147411	-0.598805
C114	C	1.806255	-1.192727	-0.672400
C115	C	1.797654	-1.181312	-0.791188
C116	C	1.715552	-1.124577	-0.836387
C117	C	1.642054	-1.079261	-0.762792
H118	H	1.739128	-1.155863	-0.510866
H119	H	1.867033	-1.234726	-0.638940
H120	H	1.852061	-1.214858	-0.845668
H121	H	1.709182	-1.116125	-0.924326
H122	H	1.581277	-1.037262	-0.796252
C123	C	1.369918	-0.669990	-0.362952
C124	C	1.378507	-0.681404	-0.244163
C125	C	1.305007	-0.636083	-0.170577
C126	C	1.222917	-0.579348	-0.215779
C127	C	1.214325	-0.567931	-0.334574
C128	C	1.287825	-0.613252	-0.408161
H129	H	1.439278	-0.723405	-0.210697
H130	H	1.311368	-0.644534	-0.082636
H131	H	1.168508	-0.545798	-0.161305
H132	H	1.153554	-0.525930	-0.368041
H133	H	1.281464	-0.604801	-0.496101
