data_functionalizedCrystal
_audit_creation_method	'MofGen! by Chris Wilmer'
_symmetry_space_group_name_H-M	'P1'
_symmetry_Int_Tables_number	1
_symmetry_cell_setting	triclinic
loop_
_symmetry_equiv_pos_as_xyz
  x,y,z
_cell_length_a	10.540539
_cell_length_b	10.654559
_cell_length_c	9.130313
_cell_angle_alpha	89.999532
_cell_angle_beta	90.000859
_cell_angle_gamma	84.507088
loop_
_atom_site_label
_atom_site_type_symbol
_atom_site_fract_x
_atom_site_fract_y
_atom_site_fract_z
O1	O	0.178351	1.667890	-0.121800
O2	O	0.195326	1.302419	-0.121800
O3	O	0.002129	1.493493	-0.121798
O4	O	0.371548	1.476817	-0.121802
O5	O	0.002134	1.493490	0.121801
O6	O	0.195331	1.302417	0.121799
O7	O	0.178356	1.667888	0.121799
Cu8	Cu	0.186844	1.485152	0.144041
Cu9	Cu	0.186838	1.485155	-0.144043
O10	O	0.371553	1.476814	0.121797
C11	C	0.194080	1.255620	-0.000001
C12	C	0.190343	1.116176	-0.000001
C13	C	0.073080	1.064595	0.000004
C14	C	0.069577	0.933571	-0.000007
C15	C	0.300611	0.905720	-0.000022
C16	C	0.304112	1.036741	-0.000022
C17	C	-0.060306	1.080673	0.000018
C18	C	-0.063809	0.949650	0.000007
C19	C	-0.045171	1.492241	-0.000001
C20	C	-0.186118	1.488499	-0.000009
C21	C	-0.369498	1.345128	-0.000556
C22	C	-0.222881	1.348921	-0.000008
C23	C	-0.247794	1.555669	0.139098
C24	C	-0.394337	1.550905	0.139215
C25	C	-0.394862	1.553747	-0.137803
C26	C	-0.247881	1.555032	-0.139642
C27	C	0.418853	1.478066	-0.000003
C28	C	0.559800	1.481807	-0.000005
C29	C	0.179602	1.714687	-0.000004
C30	C	0.183339	1.854131	-0.000013
N31	N	0.186848	1.485159	0.346664
N32	N	0.186824	1.485157	-0.346665
C33	C	0.101329	1.569788	0.423317
C34	C	0.101314	1.569785	0.576654
C35	C	0.272346	1.400519	0.576671
C36	C	0.272355	1.400517	0.423337
C37	C	0.002589	1.667517	0.423308
C38	C	0.002574	1.667513	0.576645
H39	H	-0.106295	0.914006	-0.105173
F40	F	-0.431175	1.486013	0.275127
F41	F	-0.457082	1.682109	0.147479
H42	H	0.399599	1.078732	-0.000050
F43	F	0.043018	1.786707	0.361138
H44	H	-0.398082	1.289993	-0.100312
H45	H	-0.089634	1.636968	0.624192
F46	F	0.421685	0.821171	-0.000046
F47	F	0.030997	1.793669	0.631048
H48	H	-0.094985	1.646040	0.381689
H49	H	-0.426403	1.508573	-0.243237
H50	H	-0.110574	1.122404	-0.101921
H51	H	-0.100600	1.126299	0.105201
F52	F	-0.131993	0.911232	0.133245
H53	H	-0.181105	1.295696	0.099875
F54	F	-0.167172	1.279839	-0.130345
H55	H	-0.399685	1.290215	0.098641
F56	F	-0.192095	1.494680	0.274407
H57	H	-0.207009	1.505885	-0.242549
F58	F	0.363358	1.310431	0.341758
H59	H	-0.225474	1.658171	0.144270
F60	F	-0.216260	1.688043	-0.150631
F61	F	-0.456634	1.685520	-0.139029
H62	H	0.341963	1.331605	0.639115
