data_functionalizedCrystal
_audit_creation_method	'MofGen! by Chris Wilmer'
_symmetry_space_group_name_H-M	'P1'
_symmetry_Int_Tables_number	1
_symmetry_cell_setting	triclinic
loop_
_symmetry_equiv_pos_as_xyz
  x,y,z
_cell_length_a	10.489741
_cell_length_b	9.198806
_cell_length_c	10.489716
_cell_angle_alpha	89.999142
_cell_angle_beta	95.465845
_cell_angle_gamma	89.998741
loop_
_atom_site_label
_atom_site_type_symbol
_atom_site_fract_x
_atom_site_fract_y
_atom_site_fract_z
O1	O	1.694037	-0.120788	-0.179967
O2	O	1.322840	-0.120809	-0.196860
O3	O	1.516901	-0.120804	-0.002814
O4	O	1.499976	-0.120794	-0.374013
O5	O	1.516886	0.120981	-0.002813
O6	O	1.322824	0.120976	-0.196859
O7	O	1.694022	0.120997	-0.179966
Cu8	Cu	1.508422	0.143063	-0.188413
Cu9	Cu	1.508440	-0.142876	-0.188414
O10	O	1.499960	0.120991	-0.374013
C11	C	1.275301	0.000080	-0.195584
C12	C	1.133672	0.000071	-0.191767
N13	N	1.508418	0.344177	-0.188412
N14	N	1.508454	-0.343990	-0.188405
C15	C	1.065542	0.000082	-0.068301
C16	C	0.973418	-0.119126	-0.126625
C17	C	0.973437	0.119255	-0.126654
C18	C	1.043413	-0.119235	-0.250142
C19	C	1.043441	0.119253	-0.250154
C20	C	0.951344	0.000016	-0.308568
C21	C	1.741561	0.000104	-0.181243
C22	C	1.883190	0.000103	-0.185060
C23	C	1.515622	0.000084	0.044719
C24	C	1.511817	0.000071	0.186350
C25	C	1.589899	0.416377	-0.106578
C26	C	1.589918	0.583789	-0.106573
C27	C	1.501240	0.000100	-0.421545
C28	C	1.505044	0.000104	-0.563176
C29	C	1.630822	0.000091	0.284024
C30	C	1.567945	-0.119121	0.361384
C31	C	1.567902	0.119260	0.361349
C32	C	1.448990	-0.119240	0.261845
C33	C	1.448965	0.119248	0.261804
C34	C	1.386000	0.000007	0.339115
H35	H	1.115241	-0.000070	0.033196
N36	N	1.082057	-0.245832	-0.315609
N37	N	1.000091	-0.335984	-0.359357
H38	H	1.027384	-0.425396	-0.405588
H39	H	1.398787	-0.220136	0.218541
H40	H	0.942415	-0.219912	-0.074384
H41	H	0.901911	-0.000047	-0.410172
H42	H	1.438696	0.593931	-0.258475
H43	H	1.659639	0.354252	-0.036514
N44	N	1.082367	0.245703	-0.315629
N45	N	1.060305	0.369397	-0.273559
H46	H	1.087798	0.458715	-0.319792
H47	H	1.438669	0.406303	-0.258465
N48	N	1.256044	-0.000089	0.369755
N49	N	1.183191	-0.102544	0.333363
H50	H	1.091409	-0.102619	0.355003
N51	N	0.934575	0.245675	-0.061078
N52	N	0.975715	0.266877	0.053188
H53	H	0.948273	0.356154	0.099512
H54	H	1.398765	0.220034	0.218286
H55	H	1.734335	-0.000024	0.259347
H56	H	1.618187	-0.219903	0.404879
N57	N	1.630956	0.245685	0.415879
N58	N	1.746680	0.266897	0.402760
H59	H	1.791222	0.356179	0.441270
N60	N	1.677416	0.661660	-0.018653
N61	N	1.674270	0.644765	0.099243
H62	H	1.736067	0.699762	0.161344
