data_functionalizedCrystal
_audit_creation_method	'MofGen! by Chris Wilmer'
_symmetry_space_group_name_H-M	'P1'
_symmetry_Int_Tables_number	1
_symmetry_cell_setting	triclinic
loop_
_symmetry_equiv_pos_as_xyz
  x,y,z
_cell_length_a	6.817900
_cell_length_b	9.582889
_cell_length_c	12.200875
_cell_angle_alpha	91.576692
_cell_angle_beta	107.143593
_cell_angle_gamma	111.207298
loop_
_atom_site_label
_atom_site_type_symbol
_atom_site_fract_x
_atom_site_fract_y
_atom_site_fract_z
V1	V	-4.108301	-0.207395	-0.357451
V2	V	-3.608301	0.292605	0.142549
O3	O	-4.053185	0.009616	-0.350862
O4	O	-3.553185	0.509616	0.149138
O5	O	-4.098767	-0.410894	-0.354798
O6	O	-3.598767	0.089106	0.145202
O7	O	-4.077439	-0.204359	-0.513442
O8	O	-3.577439	0.295641	-0.013442
O9	O	-4.074661	-0.198349	-0.191120
O10	O	-3.574661	0.301651	0.308880
V11	V	-4.584621	-0.181420	-0.337581
V12	V	-4.084621	0.318580	0.162419
O13	O	-4.385362	-0.264374	-0.401035
O14	O	-3.885362	0.235626	0.098965
O15	O	-4.757758	-0.124441	-0.293997
O16	O	-4.257758	0.375559	0.206003
O17	O	-4.370948	0.022078	-0.340234
O18	O	-3.870948	0.522078	0.159766
O19	O	-4.757134	-0.398432	-0.344170
O20	O	-4.257134	0.101568	0.155830
O21	O	-4.735658	-0.190467	-0.503912
O22	O	-4.235658	0.309533	-0.003912
O23	O	-4.392277	-0.184457	-0.181590
O24	O	-3.892277	0.315543	0.318410
C25	C	-3.952656	-0.460498	-0.349105
C26	C	-3.452656	0.039502	0.150895
C27	C	-4.026264	-0.626861	-0.347976
C28	C	-3.526264	-0.126861	0.152024
C29	C	-3.925448	-0.197040	-0.551470
C30	C	-3.425448	0.302960	-0.051470
C31	C	-3.981755	-0.195903	-0.678992
C32	C	-3.481755	0.304097	-0.178992
C33	C	-4.084806	-0.193825	-0.912469
C34	C	-3.584806	0.306175	-0.412469
C35	C	-4.027453	-0.194981	-0.782546
C36	C	-3.527453	0.305019	-0.282546
C37	C	-4.180403	0.071674	-0.345923
C38	C	-3.680403	0.571674	0.154077
C39	C	-4.086034	0.238036	-0.347060
C40	C	-3.586034	0.738036	0.152940
C41	C	-4.207610	-0.191781	-0.143556
C42	C	-3.707610	0.308219	0.356444
C43	C	-4.130540	-0.192910	-0.016032
C44	C	-3.630540	0.307090	0.483968
