data_functionalizedCrystal
_audit_creation_method	'MofGen! by Chris Wilmer'
_symmetry_space_group_name_H-M	'P1'
_symmetry_Int_Tables_number	1
_symmetry_cell_setting	triclinic
loop_
_symmetry_equiv_pos_as_xyz
  x,y,z
_cell_length_a	14.586319
_cell_length_b	19.288864
_cell_length_c	19.288865
_cell_angle_alpha	83.136245
_cell_angle_beta	89.990984
_cell_angle_gamma	89.982652
loop_
_atom_site_label
_atom_site_type_symbol
_atom_site_fract_x
_atom_site_fract_y
_atom_site_fract_z
O1	O	0.076545	-0.921347	-0.086647
O2	O	0.409878	-0.588014	0.246687
O3	O	0.743211	-0.254681	0.580020
O4	O	0.076483	-0.719087	-0.098336
O5	O	0.409817	-0.385753	0.234998
O6	O	0.743150	-0.052420	0.568331
O7	O	0.076498	-0.826061	0.008639
O8	O	0.409831	-0.492728	0.341972
O9	O	0.743164	-0.159395	0.675306
O10	O	0.076531	-0.814373	-0.193621
O11	O	0.409864	-0.481039	0.139712
O12	O	0.743197	-0.147706	0.473045
O13	O	-0.075983	-0.826054	0.008641
O14	O	0.257350	-0.492721	0.341974
O15	O	0.590684	-0.159387	0.675307
O16	O	-0.075997	-0.719079	-0.098334
O17	O	0.257336	-0.385746	0.234999
O18	O	0.590669	-0.052413	0.568333
O19	O	-0.075936	-0.921340	-0.086645
O20	O	0.257397	-0.588007	0.246688
O21	O	0.590731	-0.254673	0.580021
Cu22	Cu	-0.089889	-0.820209	-0.092489
Cu23	Cu	0.243444	-0.486876	0.240844
Cu24	Cu	0.576777	-0.153542	0.574177
Cu25	Cu	0.090437	-0.820218	-0.092491
Cu26	Cu	0.423770	-0.486884	0.240842
Cu27	Cu	0.757104	-0.153551	0.574175
O28	O	-0.075950	-0.814365	-0.193620
O29	O	0.257383	-0.481032	0.139713
O30	O	0.590716	-0.147699	0.473047
C31	C	0.000235	-0.693207	-0.097959
C32	C	0.333568	-0.359873	0.235375
C33	C	0.666902	-0.026540	0.568708
C34	C	0.000211	-0.616103	-0.096830
C35	C	0.333544	-0.282770	0.236504
C36	C	0.666877	0.050564	0.569837
N37	N	-0.216721	-0.820208	-0.092488
N38	N	0.116612	-0.486875	0.240846
N39	N	0.449946	-0.153541	0.574179
C40	C	0.000255	-0.825682	0.034516
C41	C	0.333588	-0.492348	0.367850
C42	C	0.666921	-0.159015	0.701183
C43	C	0.000246	-0.824553	0.111620
C44	C	0.333579	-0.491219	0.444953
C45	C	0.666913	-0.157886	0.778287
C46	C	-0.451721	-0.867592	-0.045135
C47	C	-0.118388	-0.534259	0.288198
C48	C	0.214945	-0.200925	0.621532
C49	C	-0.547702	-0.867594	-0.045133
C50	C	-0.214369	-0.534261	0.288200
C51	C	0.118964	-0.200927	0.621533
C52	C	-0.547725	-0.772835	-0.139842
C53	C	-0.214391	-0.439502	0.193491
C54	C	0.118942	-0.106169	0.526824
C55	C	-0.451745	-0.772831	-0.139840
C56	C	-0.118412	-0.439497	0.193493
C57	C	0.214922	-0.106164	0.526826
C58	C	-0.403746	-0.820213	-0.092487
C59	C	-0.070413	-0.486879	0.240846
C60	C	0.262921	-0.153546	0.574179
C61	C	-0.595707	-0.820220	-0.092488
C62	C	-0.262373	-0.486886	0.240845
C63	C	0.070960	-0.153553	0.574179
C64	C	-0.699774	-0.820221	-0.092486
C65	C	-0.366440	-0.486888	0.240847
C66	C	-0.033107	-0.153555	0.574180
C67	C	-0.299672	-0.820210	-0.092488
C68	C	0.033661	-0.486877	0.240846
C69	C	0.366995	-0.153544	0.574179
N70	N	0.217269	-0.820224	-0.092488
N71	N	0.550602	-0.486891	0.240846
N72	N	0.883935	-0.153558	0.574179
C73	C	0.000315	-0.947220	-0.087022
C74	C	0.333648	-0.613887	0.246311
C75	C	0.666981	-0.280553	0.579645
C76	C	0.000345	-1.024324	-0.088151
C77	C	0.333678	-0.690990	0.245182
C78	C	0.667011	-0.357657	0.578516
C79	C	0.000235	-0.571407	-0.159598
C80	C	0.333569	-0.238073	0.173736
C81	C	0.666902	0.095260	0.507069
C82	C	0.000245	-0.498960	-0.158537
C83	C	0.333579	-0.165626	0.174796
C84	C	0.666912	0.167707	0.508130
C85	C	0.000249	-0.471212	-0.094705
C86	C	0.333582	-0.137879	0.238629
C87	C	0.666916	0.195455	0.571962
C88	C	0.000219	-0.515918	-0.031929
C89	C	0.333553	-0.182585	0.301405
C90	C	0.666886	0.150748	0.634738
C91	C	0.000200	-0.588364	-0.032991
C92	C	0.333534	-0.255030	0.300342
C93	C	0.666867	0.078303	0.633676
C94	C	0.053693	-0.362953	-0.044526
C95	C	0.387026	-0.029619	0.288807
C96	C	0.720359	0.303714	0.622141
C97	C	0.053717	-0.290508	-0.043466
C98	C	0.387051	0.042825	0.289867
C99	C	0.720384	0.376158	0.623200
C100	C	0.000304	-0.247767	-0.091425
C101	C	0.333637	0.085567	0.241908
C102	C	0.666971	0.418900	0.575242
C103	C	-0.053122	-0.277477	-0.140456
C104	C	0.280211	0.055857	0.192878
C105	C	0.613544	0.389190	0.526211
C106	C	-0.053141	-0.349922	-0.141518
C107	C	0.280192	-0.016589	0.191815
C108	C	0.613525	0.316745	0.525149
C109	C	0.000269	-0.392658	-0.093546
C110	C	0.333603	-0.059325	0.239788
C111	C	0.666936	0.274009	0.573121
C112	C	0.000338	-0.124514	-0.153047
C113	C	0.333671	0.208819	0.180286
C114	C	0.667005	0.542152	0.513619
C115	C	0.000342	-0.052066	-0.151984
C116	C	0.333676	0.281267	0.181349
C117	C	0.667009	0.614600	0.514683
C118	C	0.000326	-0.069026	-0.025374
C119	C	0.333659	0.264307	0.307960
C120	C	0.666992	0.597640	0.641293
C121	C	0.000312	-0.141473	-0.026439
C122	C	0.333646	0.191860	0.306894
C123	C	0.666979	0.525194	0.640228
C124	C	0.000323	-0.169212	-0.090278
C125	C	0.333656	0.164121	0.243056
C126	C	0.666989	0.497455	0.576389
C127	C	0.000295	-0.814745	-0.219497
C128	C	0.333628	-0.481412	0.113836
C129	C	0.666962	-0.148078	0.447169
C130	C	0.000309	-0.815874	-0.296601
C131	C	0.333643	-0.482541	0.036733
C132	C	0.666976	-0.149207	0.370066
C133	C	0.000261	-0.887321	0.156316
C134	C	0.333594	-0.553987	0.489650
C135	C	0.666927	-0.220654	0.822983
C136	C	0.000275	-0.886260	0.228763
C137	C	0.333608	-0.552927	0.562097
C138	C	0.666941	-0.219593	0.895430
C139	C	0.000256	-0.822428	0.256511
C140	C	0.333589	-0.489094	0.589844
C141	C	0.666923	-0.155761	0.923178
C142	C	0.000247	-0.759652	0.211805
C143	C	0.333580	-0.426318	0.545138
C144	C	0.666913	-0.092985	0.878471
C145	C	0.000242	-0.760714	0.139359
C146	C	0.333575	-0.427381	0.472693
C147	C	0.666908	-0.094047	0.806026
C148	C	-0.053170	-0.772246	0.364799
C149	C	0.280163	-0.438912	0.698132
C150	C	0.613497	-0.105579	1.031465
C151	C	-0.053171	-0.771186	0.437243
C152	C	0.280163	-0.437852	0.770577
C153	C	0.613496	-0.104519	1.103910
C154	C	0.000276	-0.819148	0.479956
C155	C	0.333609	-0.485815	0.813290
C156	C	0.666942	-0.152481	1.146623
C157	C	0.053711	-0.868182	0.450218
C158	C	0.387044	-0.534849	0.783551
C159	C	0.720377	-0.201515	1.116884
C160	C	0.053706	-0.869245	0.377772
C161	C	0.387039	-0.535911	0.711106
C162	C	0.720372	-0.202578	1.044439
C163	C	0.000262	-0.821269	0.335065
C164	C	0.333595	-0.487935	0.668398
C165	C	0.666929	-0.154602	1.001732
C166	C	0.000307	-0.880770	0.603209
C167	C	0.333640	-0.547437	0.936542
C168	C	0.666973	-0.214104	1.269875
C169	C	0.000327	-0.879707	0.675657
C170	C	0.333660	-0.546374	1.008990
C171	C	0.666993	-0.213040	1.342323
C172	C	0.000289	-0.753097	0.658697
C173	C	0.333623	-0.419763	0.992030
C174	C	0.666956	-0.086430	1.325363
C175	C	0.000279	-0.754162	0.586250
C176	C	0.333612	-0.420829	0.919583
C177	C	0.666945	-0.087495	1.252917
C178	C	0.000283	-0.818000	0.558511
C179	C	0.333616	-0.484667	0.891844
C180	C	0.666950	-0.151334	1.225177
H181	H	-0.412643	-0.906172	-0.006577
H182	H	-0.079309	-0.572839	0.326757
H183	H	0.254024	-0.239506	0.660090
Br184	Br	-0.612869	-0.708535	-0.204106
Br185	Br	-0.279536	-0.375201	0.129227
Br186	Br	0.053797	-0.041868	0.462561
Br187	Br	0.126249	-0.933280	0.508177
Br188	Br	0.459583	-0.599946	0.841510
Br189	Br	0.792916	-0.266613	1.174843
H190	H	-0.412681	-0.734245	-0.178400
H191	H	-0.079348	-0.400912	0.154933
H192	H	0.253986	-0.067579	0.488266
Br193	Br	0.000273	-0.438288	-0.243728
Br194	Br	0.333607	-0.104955	0.089606
Br195	Br	0.666940	0.228378	0.422939
H196	H	0.000357	-0.015674	-0.203099
H197	H	0.333691	0.317659	0.130234
H198	H	0.667024	0.650992	0.463567
Br199	Br	-0.612810	-0.931893	0.019136
Br200	Br	-0.279477	-0.598560	0.352469
Br201	Br	0.053856	-0.265227	0.685803
Br202	Br	-0.125694	-0.704645	0.477596
Br203	Br	0.207639	-0.371312	0.810930
Br204	Br	0.540972	-0.037979	1.144263
H205	H	0.000246	-0.593987	-0.211580
H206	H	0.333579	-0.260654	0.121753
H207	H	0.666912	0.072680	0.455087
H208	H	0.000315	-0.932751	0.580622
H209	H	0.333648	-0.599418	0.913956
H210	H	0.666981	-0.266085	1.247289
Br211	Br	-0.125647	-0.390242	-0.208054
Br212	Br	0.207687	-0.056909	0.125280
Br213	Br	0.541020	0.276424	0.458613
Br214	Br	-0.125614	-0.219479	-0.205550
Br215	Br	0.207719	0.113854	0.127784
Br216	Br	0.541052	0.447188	0.461117
Br217	Br	0.000215	-0.478263	0.054702
Br218	Br	0.333548	-0.144930	0.388035
Br219	Br	0.666882	0.188404	0.721368
Br220	Br	0.000165	-0.649027	0.052201
Br221	Br	0.333498	-0.315694	0.385534
Br222	Br	0.666831	0.017639	0.718867
H223	H	0.000290	-0.937375	0.265162
H224	H	0.333624	-0.604041	0.598495
H225	H	0.666957	-0.270708	0.931829
H226	H	0.000333	-0.147101	-0.205028
H227	H	0.333667	0.186233	0.128305
H228	H	0.667000	0.519566	0.461638
H229	H	0.097216	-0.909168	0.353562
H230	H	0.430549	-0.575835	0.686895
H231	H	0.763883	-0.242502	1.020229
Br232	Br	0.000315	-0.031377	0.061257
Br233	Br	0.333649	0.301956	0.394591
Br234	Br	0.666982	0.635289	0.727924
Br235	Br	0.000281	-0.202136	0.058751
Br236	Br	0.333614	0.131197	0.392084
Br237	Br	0.666948	0.464530	0.725418
Br238	Br	0.126236	-0.250193	0.023065
Br239	Br	0.459569	0.083140	0.356399
Br240	Br	0.792903	0.416473	0.689732
H241	H	0.097194	-0.397748	-0.005471
H242	H	0.430527	-0.064415	0.327863
H243	H	0.763860	0.268919	0.661196
Br244	Br	0.000292	-0.973958	0.118673
Br245	Br	0.333625	-0.640625	0.452006
Br246	Br	0.666959	-0.307291	0.785340
Br247	Br	0.000356	-0.964900	0.736319
Br248	Br	0.333689	-0.631566	1.069652
Br249	Br	0.667023	-0.298233	1.402986
Br250	Br	0.000273	-0.666466	0.696346
Br251	Br	0.333606	-0.333132	1.029679
Br252	Br	0.666940	0.000201	1.363012
Br253	Br	0.000258	-0.668972	0.525587
Br254	Br	0.333591	-0.335639	0.858920
Br255	Br	0.666925	-0.002305	1.192253
Br256	Br	-0.125711	-0.707148	0.306838
Br257	Br	0.207622	-0.373815	0.640171
Br258	Br	0.540956	-0.040481	0.973504
Br259	Br	0.000233	-0.673021	0.249460
Br260	Br	0.333566	-0.339688	0.582793
Br261	Br	0.666900	-0.006355	0.916126
H262	H	0.000230	-0.709599	0.102967
H263	H	0.333563	-0.376266	0.436300
H264	H	0.666896	-0.042932	0.769633
