data_functionalizedCrystal
_audit_creation_method	'MofGen! by Chris Wilmer'
_symmetry_space_group_name_H-M	'P1'
_symmetry_Int_Tables_number	1
_symmetry_cell_setting	triclinic
loop_
_symmetry_equiv_pos_as_xyz
  x,y,z
_cell_length_a	12.759401
_cell_length_b	21.295417
_cell_length_c	12.759393
_cell_angle_alpha	90.037048
_cell_angle_beta	90.019596
_cell_angle_gamma	90.029979
loop_
_atom_site_label
_atom_site_type_symbol
_atom_site_fract_x
_atom_site_fract_y
_atom_site_fract_z
Zn1	Zn	1.606157	-0.250574	0.593935
Zn2	Zn	1.606002	-0.355856	0.418235
Zn3	Zn	1.430456	-0.250605	0.418274
Zn4	Zn	1.430401	-0.355810	0.593876
O5	O	1.518254	-0.303211	0.506080
O6	O	1.753157	-0.264546	0.570636
O7	O	1.582673	-0.341927	0.271219
O8	O	1.453850	-0.162512	0.441617
O9	O	1.753043	-0.341897	0.441550
O10	O	1.582937	-0.162489	0.570674
O11	O	1.453700	-0.264599	0.271248
O12	O	1.283427	-0.264555	0.441560
O13	O	1.453758	-0.341818	0.740905
O14	O	1.283388	-0.341848	0.570574
O15	O	1.582885	-0.264501	0.740948
O16	O	1.582621	-0.443939	0.441493
O17	O	1.453608	-0.443905	0.570536
C18	C	1.245287	-0.303200	0.506065
C19	C	1.128510	-0.303210	0.506084
C20	C	0.963924	-0.343528	0.573163
C21	C	1.073648	-0.343521	0.573152
C22	C	1.073642	-0.262909	0.439015
C23	C	0.963920	-0.262920	0.439021
C24	C	1.518120	-0.466763	0.506027
C25	C	1.518159	-0.536731	0.506039
C26	C	1.585336	-0.569529	0.573287
C27	C	1.585373	-0.635271	0.573313
C28	C	1.518244	-0.668214	0.506072
C29	C	1.451054	-0.635408	0.438819
C30	C	1.451011	-0.569667	0.438803
N31	N	1.510303	-0.771482	0.414126
N32	N	1.510350	-0.833933	0.414144
C33	C	1.518367	-0.866288	0.506119
N34	N	1.526356	-0.833833	0.598077
N35	N	1.526315	-0.771375	0.598057
C36	C	1.518282	-0.739499	0.506083
C37	C	1.585588	-0.970371	0.573401
C38	C	1.585617	-1.036115	0.573429
C39	C	1.451304	-1.036251	0.438926
C40	C	1.451268	-0.970508	0.438908
C41	C	1.518416	-0.937573	0.506144
C42	C	1.792287	-0.303223	0.506095
C43	C	1.909064	-0.303228	0.506101
C44	C	1.518333	-0.303151	0.780113
C45	C	1.518366	-0.303125	0.896890
C46	C	1.518417	-0.139021	0.506156
C47	C	1.518486	-0.069053	0.506189
C48	C	1.518236	-0.303226	0.233112
C49	C	1.518406	-0.303075	0.116336
C50	C	1.585607	-0.262860	0.951776
C51	C	1.585625	-0.262833	1.061500
C52	C	1.451157	-0.343341	1.061443
C53	C	1.451135	-0.343365	0.951720
H54	H	0.919252	-0.230102	0.384406
F55	F	1.657200	-0.219982	1.119909
F56	F	1.656795	-0.534480	0.644852
F57	F	1.132029	-0.386415	0.644526
H58	H	1.118320	-0.230090	0.384402
F59	F	1.379769	-0.935601	0.367331
H60	H	1.640068	-0.661980	0.628087
H61	H	1.640260	-0.943554	0.628153
F62	F	0.905545	-0.386429	0.644553
F63	F	1.379856	-1.071306	0.367365
F64	F	1.379605	-0.670469	0.367262
F65	F	1.379559	-0.386220	0.893303
F66	F	1.379508	-0.534760	0.367226
H67	H	1.640321	-1.062818	0.628195
F68	F	1.379613	-0.386167	1.119806
H69	H	1.640348	-0.230093	0.907136
