data_functionalizedCrystal
_audit_creation_method	'MofGen! by Chris Wilmer'
_symmetry_space_group_name_H-M	'P1'
_symmetry_Int_Tables_number	1
_symmetry_cell_setting	triclinic
loop_
_symmetry_equiv_pos_as_xyz
  x,y,z
_cell_length_a	10.686220
_cell_length_b	18.215405
_cell_length_c	18.215399
_cell_angle_alpha	90.030551
_cell_angle_beta	94.351112
_cell_angle_gamma	85.593045
loop_
_atom_site_label
_atom_site_type_symbol
_atom_site_fract_x
_atom_site_fract_y
_atom_site_fract_z
Zn1	Zn	1.929037	0.206568	-0.329900
Zn2	Zn	2.429037	0.706568	0.170100
Zn3	Zn	1.928880	0.329646	-0.206835
Zn4	Zn	2.428880	0.829646	0.293165
Zn5	Zn	1.718027	0.216044	-0.216277
Zn6	Zn	2.218027	0.716044	0.283723
Zn7	Zn	1.717968	0.339053	-0.339285
Zn8	Zn	2.217968	0.839053	0.160715
O9	O	1.823478	0.272828	-0.273074
O10	O	2.323478	0.772828	0.226926
O11	O	2.105592	0.214991	-0.305696
O12	O	2.605592	0.714991	0.194304
O13	O	1.900868	0.314606	-0.105105
O14	O	2.400868	0.814606	0.394895
O15	O	1.746108	0.111799	-0.231373
O16	O	2.246108	0.611799	0.268627
O17	O	2.105476	0.305416	-0.215281
O18	O	2.605476	0.805416	0.284719
O19	O	1.901136	0.104836	-0.314851
O20	O	2.401136	0.604836	0.185149
O21	O	1.745956	0.231143	-0.112042
O22	O	2.245956	0.731143	0.387958
O23	O	1.541443	0.240265	-0.240473
O24	O	2.041443	0.740265	0.259527
O25	O	1.746008	0.321450	-0.441023
O26	O	2.246008	0.821450	0.058977
O27	O	1.541400	0.330639	-0.330847
O28	O	2.041400	0.830639	0.169153
O29	O	1.901079	0.224113	-0.434128
O30	O	2.401079	0.724113	0.065872
O31	O	1.900812	0.433882	-0.224381
O32	O	2.400812	0.933882	0.275619
O33	O	1.745856	0.440794	-0.321692
O34	O	2.245856	0.940794	0.178308
C35	C	1.823345	0.464040	-0.273045
C36	C	2.323345	0.964040	0.226955
C37	C	1.823403	0.545836	-0.273052
C38	C	2.323403	1.045836	0.226948
C39	C	1.495638	0.287502	-0.287703
C40	C	1.995638	0.787502	0.212297
C41	C	1.355386	0.293797	-0.293979
C42	C	1.855386	0.793797	0.206021
C43	C	1.823555	0.272774	-0.465024
C44	C	2.323555	0.772774	0.034976
C45	C	1.823588	0.272751	-0.546821
C46	C	2.323588	0.772751	-0.046821
C47	C	2.152598	0.258097	-0.258389
C48	C	2.652598	0.758097	0.241611
C49	C	2.292850	0.251820	-0.252130
C50	C	2.792850	0.751820	0.247870
C51	C	1.823646	0.080867	-0.273119
C52	C	2.323646	0.580867	0.226881
C53	C	1.823718	-0.000935	-0.273137
C54	C	2.323718	0.499065	0.226863
C55	C	1.904278	0.730398	-0.222460
C56	C	2.404278	1.230398	0.277540
C57	C	1.904334	0.807255	-0.222476
C58	C	2.404334	1.307255	0.277524
C59	C	1.742839	0.814498	-0.323734
C60	C	2.242839	1.314498	0.176266
C61	C	1.742790	0.737643	-0.323722
C62	C	2.242790	1.237643	0.176278
C63	C	1.823508	0.695595	-0.273081
C64	C	2.323508	1.195595	0.226919
C65	C	1.823613	0.849306	-0.273108
C66	C	2.323613	1.349306	0.226892
C67	C	1.823674	0.932637	-0.273125
C68	C	2.323674	1.432637	0.226875
C69	C	1.823449	0.612259	-0.273064
C70	C	2.323449	1.112259	0.226936
C71	C	1.904362	0.222022	-0.731425
C72	C	2.404362	0.722022	-0.231425
C73	C	1.904377	0.222000	-0.808283
C74	C	2.404377	0.722000	-0.308283
C75	C	1.742902	0.323361	-0.815452
C76	C	2.242902	0.823361	-0.315452
C77	C	1.742882	0.323379	-0.738595
C78	C	2.242882	0.823379	-0.238595
C79	C	1.823619	0.272711	-0.696584
C80	C	2.323619	0.772711	-0.196584
C81	C	1.823654	0.272670	-0.850298
C82	C	2.323654	0.772670	-0.350298
C83	C	1.823670	0.272647	-0.933631
C84	C	2.323670	0.772647	-0.433631
C85	C	1.823602	0.272733	-0.613245
C86	C	2.323602	0.772733	-0.113245
C87	C	1.823474	0.272825	-0.081868
C88	C	2.323474	0.772825	0.418132
C89	C	1.823686	0.272630	-0.000060
C90	C	2.323686	0.772630	0.499940
H91	H	1.346607	0.211067	-0.211500
H92	H	1.846607	0.711067	0.288500
H93	H	1.970108	0.835588	-0.181257
H94	H	2.470108	1.335588	0.318743
H95	H	1.970124	0.180723	-0.836647
H96	H	2.470124	0.680723	-0.336647
H97	H	1.301623	0.334558	-0.334607
H98	H	1.801623	0.834558	0.165393
O99	O	1.991347	0.685043	-0.167852
O100	O	2.491347	1.185043	0.332148
H101	H	2.047531	0.722159	-0.132661
H102	H	2.547531	1.222159	0.367339
O103	O	1.655757	0.859849	-0.378340
O104	O	2.155757	1.359849	0.121660
H105	H	1.669344	0.919139	-0.369837
H106	H	2.169344	1.419139	0.130163
H107	H	1.677122	0.364656	-0.710227
H108	H	2.177122	0.864656	-0.210227
O109	O	1.991433	0.167374	-0.686108
O110	O	2.491433	0.667374	-0.186108
H111	H	1.969834	0.110578	-0.701834
H112	H	2.469834	0.610578	-0.201834
O113	O	1.655651	0.700097	-0.378311
O114	O	2.155651	1.200097	0.121689
H115	H	1.599512	0.742246	-0.413517
H116	H	2.099512	1.242246	0.086483
O117	O	1.655825	0.378011	-0.860763
O118	O	2.155825	0.878011	-0.360763
H119	H	1.669409	0.369488	-0.920060
H120	H	2.169409	0.869488	-0.420060
