data_functionalizedCrystal
_audit_creation_method	'MofGen! by Chris Wilmer'
_symmetry_space_group_name_H-M	'P1'
_symmetry_Int_Tables_number	1
_symmetry_cell_setting	triclinic
loop_
_symmetry_equiv_pos_as_xyz
  x,y,z
_cell_length_a	6.817900
_cell_length_b	14.125469
_cell_length_c	16.305550
_cell_angle_alpha	95.884114
_cell_angle_beta	103.455250
_cell_angle_gamma	100.398878
loop_
_atom_site_label
_atom_site_type_symbol
_atom_site_fract_x
_atom_site_fract_y
_atom_site_fract_z
V1	V	-4.010572	-0.133925	-0.262704
O2	O	-4.014497	0.005600	-0.258038
O3	O	-3.946712	-0.264747	-0.260584
O4	O	-3.962176	-0.132231	-0.377425
O5	O	-3.998925	-0.127833	-0.140389
V6	V	-4.496202	-0.117193	-0.248113
O7	O	-4.267207	-0.170628	-0.294709
O8	O	-4.689764	-0.080489	-0.216107
O9	O	-4.336856	0.013629	-0.250232
O10	O	-4.609674	-0.256718	-0.252778
O11	O	-4.625245	-0.123285	-0.370428
O12	O	-4.321392	-0.118886	-0.133392
C13	C	-3.787951	-0.296627	-0.256357
C14	C	-3.817025	-0.403578	-0.255389
C15	C	-3.870323	-0.599398	-0.253629
C16	C	-4.055817	-0.651731	-0.257190
C17	C	-4.085475	-0.760692	-0.256211
C18	C	-3.840658	-0.490427	-0.254608
C19	C	-3.807677	-0.127589	-0.405397
C20	C	-3.849289	-0.127070	-0.499180
C21	C	-4.000611	-0.125059	-0.839931
C22	C	-3.765262	-0.119090	-0.799017
C23	C	-3.721959	-0.120028	-0.701520
C24	C	-3.925537	-0.126056	-0.670880
C25	C	-4.081450	-0.221074	-0.721274
C26	C	-4.123376	-0.220536	-0.818825
C27	C	-4.065699	-0.036771	-0.794304
C28	C	-4.017858	-0.036019	-0.696463
C29	C	-3.883121	-0.126623	-0.575341
C30	C	-4.043036	-0.124499	-0.935471
C31	C	-4.158957	0.045504	-0.254457
C32	C	-4.109122	0.152455	-0.255431
C33	C	-4.139232	-0.123532	-0.105415
C34	C	-4.076859	-0.124046	-0.011631
H35	H	-3.667157	-0.050450	-0.811548
H36	H	-4.192349	-0.614702	-0.260973
H37	H	-3.712748	-0.182521	-0.830374
H38	H	-3.733802	-0.636425	-0.249844
H39	H	-3.603457	-0.051711	-0.666663
O40	O	-3.634098	-0.196688	-0.681952
C41	C	-3.769493	-0.284127	-0.725709
H42	H	-3.934239	-0.272223	-0.742700
H43	H	-3.759138	-0.343253	-0.683222
H44	H	-3.724587	-0.307610	-0.786587
O45	O	-4.329579	-0.230602	-0.852326
C46	C	-4.404072	-0.315515	-0.913392
H47	H	-4.271610	-0.335383	-0.938374
H48	H	-4.527930	-0.301909	-0.968554
H49	H	-4.472914	-0.377915	-0.882629
H50	H	-3.905037	0.034261	-0.662257
O51	O	-4.070727	-0.300163	-0.854963
C52	C	-3.915025	-0.270188	-0.896243
H53	H	-3.920500	-0.193932	-0.912430
H54	H	-3.940847	-0.322944	-0.957411
H55	H	-3.757828	-0.269453	-0.852270
H56	H	-4.233687	-0.228922	-0.702342
H57	H	-4.237352	-0.040300	-0.821111
O58	O	-4.005902	-0.300766	-0.700876
C59	C	-3.975923	-0.302800	-0.612604
H60	H	-3.957985	-0.226075	-0.578215
H61	H	-3.830778	-0.331337	-0.587367
H62	H	-4.114757	-0.352630	-0.600851
O63	O	-3.966473	0.049036	-0.810510
C64	C	-3.836692	0.030568	-0.863426
H65	H	-3.797395	-0.043800	-0.856559
H66	H	-3.688670	0.089151	-0.843860
H67	H	-3.919063	0.031417	-0.932647
O68	O	-4.193588	-0.034691	-0.670862
C69	C	-4.237082	-0.115512	-0.629037
H70	H	-4.159321	-0.175042	-0.650655
H71	H	-4.411003	-0.144454	-0.645502
H72	H	-4.176099	-0.092396	-0.557134
