data_functionalizedCrystal
_audit_creation_method	'MofGen! by Chris Wilmer'
_symmetry_space_group_name_H-M	'P1'
_symmetry_Int_Tables_number	1
_symmetry_cell_setting	triclinic
loop_
_symmetry_equiv_pos_as_xyz
  x,y,z
_cell_length_a	19.188905
_cell_length_b	19.188925
_cell_length_c	8.140239
_cell_angle_alpha	89.996842
_cell_angle_beta	89.990158
_cell_angle_gamma	83.138552
loop_
_atom_site_label
_atom_site_type_symbol
_atom_site_fract_x
_atom_site_fract_y
_atom_site_fract_z
O1	O	0.926153	0.087084	-0.136883
O2	O	0.722839	0.098836	-0.136827
O3	O	0.830365	-0.008697	-0.136847
O4	O	0.818626	0.194616	-0.136862
O5	O	0.830359	-0.008698	0.136380
O6	O	0.722833	0.098835	0.136401
O7	O	0.926147	0.087082	0.136344
Zn8	Zn	0.824489	0.092958	0.179753
Zn9	Zn	0.824496	0.092960	-0.180235
O10	O	0.818620	0.194615	0.136365
C11	C	0.696824	0.098458	-0.000206
C12	C	0.619319	0.097324	-0.000184
C13	C	0.829982	-0.034708	-0.000235
C14	C	0.828843	-0.112213	-0.000238
C15	C	0.582930	0.096780	-0.149124
C16	C	0.510107	0.095707	-0.149145
C17	C	0.473676	0.095164	-0.000216
C18	C	0.510073	0.095712	0.148744
C19	C	0.582894	0.096792	0.148760
N20	N	0.364654	0.053735	0.110620
N21	N	0.295478	0.052707	0.110594
C22	C	0.254270	0.091911	-0.000256
N23	N	0.284853	0.132173	-0.111105
N24	N	0.354037	0.133197	-0.111084
C25	C	0.394714	0.093993	-0.000217
C26	C	0.138917	0.090205	-0.149228
C27	C	0.066092	0.089136	-0.149243
C28	C	0.066061	0.089134	0.148650
C29	C	0.138884	0.090210	0.148660
C30	C	0.175308	0.090742	-0.000284
C31	C	0.884308	-0.673988	-0.000294
C32	C	0.885384	-0.601165	-0.000280
C33	C	0.822291	-0.556225	-0.000263
C34	C	0.758117	-0.584113	-0.000218
C35	C	0.757043	-0.656935	-0.000217
N36	N	0.776617	-0.435540	-0.093250
N37	N	0.777642	-0.366363	-0.093255
C38	C	0.825525	-0.336816	-0.000265
N39	N	0.872356	-0.379061	0.092710
N40	N	0.871332	-0.448245	0.092708
C41	C	0.823450	-0.477261	-0.000264
C42	C	0.890863	-0.229973	-0.000282
C43	C	0.891937	-0.157148	-0.000257
C44	C	0.764668	-0.140097	-0.000212
C45	C	0.763596	-0.212921	-0.000221
C46	C	0.826695	-0.257855	-0.000263
C47	C	0.952161	0.087461	-0.000280
C48	C	1.029666	0.088594	-0.000313
C49	C	0.819003	0.220627	-0.000251
C50	C	0.820142	0.298131	-0.000259
N51	N	0.824489	0.092957	0.425436
N52	N	0.824502	0.092956	-0.425918
H53	H	0.612583	0.097214	-0.270406
N54	N	0.472937	0.095151	-0.301305
N55	N	0.505467	0.095627	-0.434274
H56	H	0.479219	0.095233	-0.541739
N57	N	0.028844	0.088594	0.300765
N58	N	-0.036175	0.087639	0.300734
H59	H	-0.062464	0.087263	0.408169
N60	N	0.691502	-0.685429	-0.000210
N61	N	0.690552	-0.750450	-0.000222
H62	H	0.644263	-0.770576	-0.000222
H63	H	0.036465	0.088698	-0.270533
N64	N	0.693670	-0.538210	-0.000245
N65	N	0.650947	-0.540634	-0.115408
H66	H	0.605429	-0.508214	-0.115426
N67	N	0.948762	-0.719882	-0.000277
N68	N	0.962360	-0.762415	0.114905
H69	H	1.007882	-0.794829	0.114927
N70	N	0.472852	0.095164	0.300856
N71	N	0.407834	0.094200	0.300823
H72	H	0.381546	0.093817	0.408258
N73	N	0.176048	0.090760	0.300816
N74	N	0.143516	0.090276	0.433780
H75	H	0.169762	0.090666	0.541249
N76	N	0.700225	-0.094192	-0.000210
N77	N	0.686628	-0.051650	-0.115376
H78	H	0.641114	-0.019225	-0.115370
H79	H	0.937637	-0.578460	-0.000308
N80	N	0.620069	0.097328	0.300908
N81	N	0.667293	0.048721	0.334152
H82	H	0.693549	0.049097	0.441609
H83	H	0.942242	-0.266560	-0.000316
N84	N	0.957490	-0.128678	-0.000275
N85	N	1.013820	-0.168808	-0.000309
H86	H	1.060119	-0.148702	-0.000321
H87	H	0.711345	-0.235621	-0.000204
H88	H	0.168575	0.090646	-0.270507
