data_functionalizedCrystal
_audit_creation_method	'MofGen! by Chris Wilmer'
_symmetry_space_group_name_H-M	'P1'
_symmetry_Int_Tables_number	1
_symmetry_cell_setting	triclinic
loop_
_symmetry_equiv_pos_as_xyz
  x,y,z
_cell_length_a	13.262522
_cell_length_b	13.339070
_cell_length_c	11.295675
_cell_angle_alpha	84.800785
_cell_angle_beta	109.992919
_cell_angle_gamma	99.428816
loop_
_atom_site_label
_atom_site_type_symbol
_atom_site_fract_x
_atom_site_fract_y
_atom_site_fract_z
O1	O	1.461909	0.097275	0.572445
O2	O	1.155531	0.118895	0.473229
O3	O	1.273557	-0.038545	0.511447
O4	O	1.343882	0.254715	0.534227
O5	O	1.263162	-0.024779	0.310036
O6	O	1.145135	0.132661	0.271818
O7	O	1.451513	0.111041	0.371034
Cu8	Cu	1.297375	0.123108	0.303036
Cu9	Cu	1.309669	0.106828	0.541227
O10	O	1.333487	0.268481	0.332816
C11	C	1.110319	0.125833	0.359566
C12	C	0.991086	0.125985	0.320954
C13	C	0.929411	0.133562	0.193018
C14	C	0.817384	0.133695	0.156730
C15	C	0.767022	0.126260	0.248375
C16	C	0.828698	0.118690	0.376313
C17	C	0.940735	0.118548	0.412604
C18	C	0.778346	0.111246	0.467961
C19	C	0.840023	0.103676	0.595899
C20	C	0.952049	0.103536	0.632184
C21	C	1.002410	0.110971	0.540540
C22	C	0.666309	0.111388	0.431669
C23	C	0.677634	0.096374	0.651255
C24	C	0.789661	0.096241	0.687543
C25	C	1.256480	-0.069137	0.406896
C26	C	1.221072	-0.180802	0.395434
C27	C	1.496394	-0.550553	0.484592
C28	C	1.529665	-0.445639	0.495356
C29	C	1.452520	-0.379424	0.470377
C30	C	1.342097	-0.418134	0.434632
C31	C	1.308822	-0.523058	0.423858
C32	C	1.264948	-0.351930	0.409642
C33	C	1.154525	-0.390640	0.373897
C34	C	1.121256	-0.495554	0.363126
C35	C	1.198401	-0.561768	0.388105
C36	C	1.298223	-0.247006	0.420416
C37	C	1.110651	-0.219511	0.359681
C38	C	1.077380	-0.324426	0.348918
C39	C	1.496725	0.104103	0.484700
C40	C	1.615959	0.103951	0.523320
N41	N	1.288735	0.134557	0.135507
C42	C	1.350564	0.299073	0.437370
C43	C	1.385973	0.410737	0.448840
N44	N	1.318315	0.095371	0.708758
C45	C	1.226484	0.217154	0.928366
C46	C	1.233020	0.208471	1.055142
C47	C	1.337915	0.069319	1.089087
C48	C	1.331380	0.078002	0.962311
C49	C	1.275664	0.151922	0.881954
C50	C	1.269135	0.160609	0.755178
C51	C	1.374023	0.021453	0.789123
C52	C	1.380559	0.012771	0.915899
H53	H	1.093632	0.110866	0.570079
C54	C	1.441824	-0.068552	1.004298
N55	N	1.487966	-0.129808	1.070878
C56	C	1.651126	-0.403065	0.534675
N57	N	1.742616	-0.370999	0.564294
H58	H	1.047832	-0.165599	0.339335
H59	H	1.414072	-0.031660	0.751323
H60	H	0.987471	-0.355958	0.319813
C61	C	0.598480	0.119726	0.290941
N62	N	0.547392	0.126012	0.184936
C63	C	0.749552	0.142044	0.016004
N64	N	0.698460	0.148341	-0.089999
C65	C	1.178964	0.280263	1.106204
N66	N	1.138261	0.334352	1.144667
H67	H	0.970425	0.139607	0.118415
H68	H	1.559193	-0.604472	0.504916
H69	H	1.388129	-0.215499	0.449519
C70	C	1.019887	0.095187	0.772919
N71	N	1.070980	0.088896	0.878921
H72	H	1.479616	-0.293999	0.479142
C73	C	1.161807	-0.677181	0.376253
N74	N	1.134247	-0.764112	0.367320
H75	H	1.031342	-0.527067	0.334011
H76	H	1.223772	0.220801	0.689753
C77	C	0.622241	0.088197	0.752072
N78	N	0.580512	0.082037	0.827999
H79	H	1.181127	0.277349	0.862941
H80	H	1.383269	0.009128	1.154526
H81	H	0.839894	0.090077	0.791713
H82	H	0.675804	0.126370	0.218821
