data_functionalizedCrystal
_audit_creation_method	'MofGen! by Chris Wilmer'
_symmetry_space_group_name_H-M	'P1'
_symmetry_Int_Tables_number	1
_symmetry_cell_setting	triclinic
loop_
_symmetry_equiv_pos_as_xyz
  x,y,z
_cell_length_a	12.759401
_cell_length_b	19.121063
_cell_length_c	12.759393
_cell_angle_alpha	87.595965
_cell_angle_beta	90.020938
_cell_angle_gamma	92.470439
loop_
_atom_site_label
_atom_site_type_symbol
_atom_site_fract_x
_atom_site_fract_y
_atom_site_fract_z
Zn1	Zn	1.588334	-0.279551	0.611809
Zn2	Zn	1.580690	-0.397017	0.443603
Zn3	Zn	1.412630	-0.279588	0.436146
Zn4	Zn	1.405092	-0.396968	0.619238
O5	O	1.496686	-0.338281	0.527699
O6	O	1.734340	-0.295138	0.589508
O7	O	1.558352	-0.381476	0.295595
O8	O	1.442291	-0.181299	0.453218
O9	O	1.728724	-0.381440	0.465928
O10	O	1.571380	-0.181271	0.582277
O11	O	1.434879	-0.295201	0.290117
O12	O	1.264609	-0.295154	0.460422
O13	O	1.429444	-0.381356	0.765271
O14	O	1.259071	-0.381393	0.594938
O15	O	1.564071	-0.295090	0.759813
O16	O	1.551042	-0.495295	0.473132
O17	O	1.422032	-0.495259	0.602169
C18	C	1.223720	-0.338272	0.527678
C19	C	1.106942	-0.338286	0.527694
C20	C	1.049220	-0.383259	0.597636
C21	C	0.939495	-0.383261	0.597657
C22	C	0.945226	-0.293316	0.457786
C23	C	1.054948	-0.293311	0.457771
C24	C	1.484918	-0.520761	0.539289
C25	C	1.479980	-0.598827	0.544282
C26	C	1.544881	-0.635498	0.479500
C27	C	1.540243	-0.708849	0.484203
C28	C	1.470697	-0.745528	0.553682
C29	C	1.405794	-0.708852	0.618471
C30	C	1.410438	-0.635502	0.613773
C31	C	1.453316	-0.966997	0.571229
C32	C	1.448675	-1.040352	0.575920
C33	C	1.583126	-1.040344	0.441653
C34	C	1.587759	-0.966993	0.436957
C35	C	1.522860	-0.930323	0.501749
C36	C	1.465952	-0.820504	0.558488
C37	C	1.527611	-0.855348	0.496948
C38	C	1.770719	-0.338290	0.527721
C39	C	1.887495	-0.338294	0.527731
C40	C	1.496769	-0.338214	0.801728
C41	C	1.496805	-0.338185	0.918503
C42	C	1.508529	-0.155088	0.516087
C43	C	1.513576	-0.077023	0.511139
C44	C	1.496667	-0.338298	0.254733
C45	C	1.496848	-0.338128	0.137946
C46	C	1.566910	-0.293259	0.970524
C47	C	1.566930	-0.293229	1.080246
C48	C	1.426735	-0.383056	1.085917
C49	C	1.426711	-0.383083	0.976196
H50	H	0.902879	-0.256700	0.400855
H51	H	1.091550	-0.419879	0.654575
O52	O	1.358802	-0.426746	1.142016
C53	C	1.415697	-0.472086	1.208384
H54	H	1.498155	-0.476436	1.175606
H55	H	1.374203	-0.526134	1.213049
H56	H	1.420741	-0.450350	1.290164
O57	O	0.883306	-0.426984	0.665452
C58	C	0.816902	-0.472312	0.608411
H59	H	0.802022	-0.447475	0.527280
H60	H	0.739160	-0.481763	0.651797
H61	H	0.855827	-0.524349	0.600033
O62	O	1.358570	-0.426794	0.925823
C63	C	1.296698	-0.466409	1.000269
H64	H	1.339588	-0.468827	1.078645
H65	H	1.281906	-0.521752	0.972068
H66	H	1.218572	-0.440682	1.010294
O67	O	1.634928	-0.249608	1.130943
C68	C	1.619937	-0.259219	1.240158
H69	H	1.537373	-0.282215	1.256587
H70	H	1.630469	-0.206598	1.278518
H71	H	1.679843	-0.296612	1.273683
H72	H	1.101948	-0.256684	0.400816
H73	H	1.601508	-0.605639	0.422919
O74	O	1.595015	-0.819690	0.429343
C75	C	1.537907	-0.777318	0.358748
H76	H	1.453763	-0.799477	0.353609
H77	H	1.575991	-0.776500	0.277872
H78	H	1.537786	-0.721714	0.387677
H79	H	1.409326	-0.850376	0.615056
O80	O	1.603325	-0.744362	0.421165
C81	C	1.665715	-0.696260	0.358847
H82	H	1.625990	-0.644001	0.351827
H83	H	1.675617	-0.717491	0.277438
H84	H	1.745989	-0.688391	0.396882
H85	H	1.644389	-0.937130	0.380382
H86	H	1.635965	-1.070208	0.388904
H87	H	1.392055	-1.070214	0.632517
H88	H	1.400470	-0.937146	0.623984
H89	H	1.349173	-0.738721	0.675047
H90	H	1.357590	-0.605645	0.666526
O91	O	1.635027	-0.249576	0.914638
C92	C	1.696924	-0.209929	0.984088
H93	H	1.654064	-0.207478	1.062139
H94	H	1.711701	-0.154599	0.948883
H95	H	1.775057	-0.235648	0.997401
