data_functionalizedCrystal
_audit_creation_method	'MofGen! by Chris Wilmer'
_symmetry_space_group_name_H-M	'P1'
_symmetry_Int_Tables_number	1
_symmetry_cell_setting	triclinic
loop_
_symmetry_equiv_pos_as_xyz
  x,y,z
_cell_length_a	19.188930
_cell_length_b	19.188924
_cell_length_c	14.750779
_cell_angle_alpha	77.399495
_cell_angle_beta	102.584925
_cell_angle_gamma	83.143372
loop_
_atom_site_label
_atom_site_type_symbol
_atom_site_fract_x
_atom_site_fract_y
_atom_site_fract_z
O1	O	0.910881	0.102421	-0.080135
O2	O	1.410881	0.602421	0.419865
O3	O	0.707582	0.114143	-0.080069
O4	O	1.207582	0.614143	0.419931
O5	O	0.815103	0.006624	-0.080093
O6	O	1.315103	0.506624	0.419907
O7	O	0.803360	0.209940	-0.080112
O8	O	1.303360	0.709940	0.419888
O9	O	0.845498	-0.023767	0.079551
O10	O	1.345498	0.476233	0.579551
O11	O	0.737977	0.083752	0.079574
O12	O	1.237977	0.583752	0.579574
O13	O	0.941276	0.072030	0.079509
O14	O	1.441276	0.572030	0.579509
Zn15	Zn	0.844452	0.073066	0.104889
Zn16	Zn	1.344452	0.573066	0.604889
Zn17	Zn	0.804406	0.113107	-0.105449
Zn18	Zn	1.304406	0.613107	0.394551
O19	O	0.833755	0.179549	0.079532
O20	O	1.333755	0.679549	0.579532
C21	C	0.696770	0.098566	-0.000239
C22	C	1.196770	0.598566	0.499761
C23	C	0.619270	0.097421	-0.000214
C24	C	1.119270	0.597421	0.499786
C25	C	0.574341	0.160516	-0.000235
C26	C	1.074341	0.660516	0.499765
C27	C	0.501515	0.159446	-0.000245
C28	C	1.001515	0.659446	0.499755
C29	C	0.473618	0.095281	-0.000254
C30	C	0.973618	0.595281	0.499746
C31	C	0.518559	0.032177	-0.000228
C32	C	1.018559	0.532177	0.499772
C33	C	0.591385	0.033247	-0.000208
C34	C	1.091385	0.533247	0.499792
N35	N	0.355288	0.056584	-0.054622
N36	N	0.855288	0.556584	0.445378
N37	N	0.286106	0.055573	-0.054643
N38	N	0.786106	0.555573	0.445357
C39	C	0.254199	0.092054	-0.000312
C40	C	0.754199	0.592054	0.499688
N41	N	0.294084	0.129598	0.054028
N42	N	0.794084	0.629598	0.554028
N43	N	0.363272	0.130613	0.054045
N44	N	0.863272	0.630613	0.554045
C45	C	0.394652	0.094114	-0.000275
C46	C	0.894652	0.594114	0.499725
C47	C	0.130303	0.153994	-0.000343
C48	C	0.630303	0.653994	0.499657
C49	C	0.057477	0.152920	-0.000348
C50	C	0.557477	0.652920	0.499652
C51	C	0.074521	0.025651	-0.000340
C52	C	0.574521	0.525651	0.499660
C53	C	0.147347	0.026725	-0.000326
C54	C	0.647347	0.526725	0.499674
C55	C	0.175232	0.090899	-0.000332
C56	C	0.675232	0.590899	0.499668
C57	C	0.829921	-0.034582	-0.000270
C58	C	1.329921	0.465418	0.499730
C59	C	0.828783	-0.112088	-0.000267
C60	C	1.328783	0.387912	0.499733
C61	C	0.811683	-0.131920	-0.087289
C62	C	1.311683	0.368080	0.412711
C63	C	0.810602	-0.204742	-0.087296
C64	C	1.310602	0.295258	0.412704
C65	C	0.826635	-0.257730	-0.000276
C66	C	1.326635	0.242270	0.499724
C67	C	0.843734	-0.237891	0.086758
C68	C	1.343734	0.262109	0.586758
C69	C	0.844807	-0.165069	0.086762
C70	C	1.344807	0.334931	0.586762
N71	N	0.877012	-0.389721	0.064479
N72	N	1.377012	0.110279	0.564479
N73	N	0.875992	-0.458897	0.064469
N74	N	1.375992	0.041103	0.564469
C75	C	0.823400	-0.477138	-0.000284
C76	C	1.323400	0.022862	0.499716
N77	N	0.771871	-0.423588	-0.065041
N78	N	1.271871	0.076412	0.434959
N79	N	0.772894	-0.354405	-0.065033
N80	N	1.272894	0.145595	0.434967
C81	C	0.825473	-0.336695	-0.000271
C82	C	1.325473	0.163305	0.499729
C83	C	0.805126	-0.575931	-0.087319
C84	C	1.305126	-0.075931	0.412681
C85	C	0.804041	-0.648754	-0.087323
C86	C	1.304041	-0.148754	0.412677
C87	C	0.837180	-0.681902	0.086733
C88	C	1.337180	-0.181902	0.586733
C89	C	0.838257	-0.609080	0.086734
C90	C	1.338257	-0.109080	0.586734
C91	C	0.822233	-0.556098	-0.000295
C92	C	1.322233	-0.056098	0.499705
C93	C	0.952087	0.087608	-0.000323
C94	C	1.452087	0.587608	0.499677
C95	C	1.029586	0.088755	-0.000355
C96	C	1.529586	0.588755	0.499645
C97	C	0.818936	0.220756	-0.000293
C98	C	1.318936	0.720756	0.499707
C99	C	0.820073	0.298263	-0.000302
C100	C	1.320073	0.798263	0.499698
N101	N	0.871788	0.045738	0.248438
N102	N	1.371788	0.545738	0.748438
N103	N	0.777075	0.140430	-0.248999
N104	N	1.277075	0.640430	0.251001
C105	C	0.700730	0.216721	0.600293
C106	C	1.200730	0.716721	1.100293
C107	C	0.719891	0.197576	0.700788
C108	C	1.219891	0.697576	1.200788
C109	C	0.815120	0.102403	0.700731
C110	C	1.315120	0.602403	1.200731
C111	C	0.795965	0.121538	0.600234
C112	C	1.295965	0.621538	1.100234
C113	C	0.738771	0.178697	0.550023
C114	C	1.238771	0.678697	1.050023
C115	C	0.834006	0.083514	0.549963
C116	C	1.334006	0.583514	1.049963
C117	C	0.814855	0.102650	0.449475
C118	C	1.314855	0.602650	0.949475
C119	C	0.757664	0.159809	0.399257
C120	C	1.257664	0.659809	0.899257
C121	C	0.719620	0.197833	0.449535
C122	C	1.219620	0.697833	0.949535
C123	C	0.891203	0.026358	0.600175
C124	C	1.391203	0.526358	1.100175
C125	C	0.929244	-0.011665	0.549905
C126	C	1.429244	0.488335	1.049905
C127	C	0.910090	0.007467	0.449415
C128	C	1.410090	0.507467	0.949415
C129	C	0.852899	0.064626	0.399197
C130	C	1.352899	0.564626	0.899197
C131	C	0.948134	-0.030557	0.399137
C132	C	1.448134	0.469443	0.899137
C133	C	0.928983	-0.011422	0.298649
C134	C	1.428983	0.488578	0.798649
C135	C	0.833748	0.083762	0.298709
C136	C	1.333748	0.583762	0.798709
H137	H	0.597040	0.212771	-0.000242
H138	H	1.097040	0.712771	0.499758
C139	C	0.487871	-0.038404	-0.000238
C140	C	0.987871	0.461596	0.499762
N141	N	0.464757	-0.091569	-0.000244
N142	N	0.964757	0.408431	0.499756
C143	C	0.452081	0.228860	-0.000280
C144	C	0.952081	0.728860	0.499720
N145	N	0.414849	0.281144	-0.000310
N146	N	0.914849	0.781144	0.499690
C147	C	0.196769	-0.042684	-0.000314
C148	C	0.696769	0.457316	0.499686
N149	N	0.233995	-0.094966	-0.000303
N150	N	0.733995	0.405034	0.499697
C151	C	0.857076	-0.587265	0.182466
C152	C	1.357076	-0.087265	0.682466
N153	N	0.871250	-0.570834	0.254576
N154	N	1.371250	-0.070834	0.754576
C155	C	0.640808	-0.036165	-0.000191
C156	C	1.140808	0.463835	0.499809
N157	N	0.678035	-0.088446	-0.000182
N158	N	1.178035	0.411554	0.499818
H159	H	0.153011	0.206245	-0.000334
H160	H	0.653011	0.706245	0.499666
H161	H	0.654152	0.263261	0.559410
H162	H	1.154152	0.763261	1.059410
H163	H	0.688909	0.228545	0.741714
H164	H	1.188909	0.728545	1.241714
H165	H	0.020897	0.204301	-0.000359
H166	H	0.520897	0.704301	0.499641
H167	H	0.051797	-0.026582	-0.000407
H168	H	0.551797	0.473418	0.499593
H169	H	0.792074	-0.532790	-0.158183
H170	H	1.292074	-0.032790	0.341817
H171	H	0.850229	-0.725045	0.157586
H172	H	1.350229	-0.225045	0.657586
C173	C	0.770802	0.146613	0.243472
C174	C	1.270802	0.646613	0.743472
N175	N	0.723385	0.193942	0.201867
N176	N	1.223385	0.693942	0.701867
H177	H	0.856786	-0.281038	0.157610
H178	H	1.356786	0.218962	0.657610
H179	H	0.798633	-0.088786	-0.158155
H180	H	1.298633	0.411214	0.341845
H181	H	0.861690	0.055864	0.741624
H182	H	1.361690	0.555864	1.241624
C183	C	0.656674	0.260684	0.394297
C184	C	1.156674	0.760684	0.894297
N185	N	0.609257	0.308014	0.352692
N186	N	1.109257	0.808014	0.852692
C187	C	0.912268	0.005309	0.710716
C188	C	1.412268	0.505309	1.210716
N189	N	0.928132	-0.010545	0.793976
N190	N	1.428132	0.489455	1.293976
C191	C	0.992154	-0.074542	0.605148
C192	C	1.492154	0.425458	1.105148
N193	N	1.039538	-0.121904	0.646756
N194	N	1.539538	0.378096	1.146756
H195	H	0.994707	-0.077093	0.440032
H196	H	1.494707	0.422907	0.940032
C197	C	0.791786	-0.226563	-0.183030
C198	C	1.291786	0.273437	0.316970
N199	N	0.777613	-0.242997	-0.255138
N200	N	1.277613	0.257003	0.244862
C201	C	0.970827	-0.053251	0.243348
C202	C	1.470827	0.446749	0.743348
N203	N	1.002347	-0.084757	0.201696
N204	N	1.502347	0.415243	0.701696
H205	H	0.790112	-0.664897	-0.158189
H206	H	1.290112	-0.164897	0.341811
C207	C	0.863623	-0.143255	0.182497
C208	C	1.363623	0.356745	0.682497
N209	N	0.877798	-0.126823	0.254606
N210	N	1.377798	0.373177	0.754606
H211	H	0.742074	0.175391	0.317433
H212	H	1.242074	0.675391	0.817433
