data_functionalizedCrystal
_audit_creation_method	'MofGen! by Chris Wilmer'
_symmetry_space_group_name_H-M	'P1'
_symmetry_Int_Tables_number	1
_symmetry_cell_setting	triclinic
loop_
_symmetry_equiv_pos_as_xyz
  x,y,z
_cell_length_a	8.559649
_cell_length_b	13.596369
_cell_length_c	14.519731
_cell_angle_alpha	89.993029
_cell_angle_beta	103.266241
_cell_angle_gamma	90.005227
loop_
_atom_site_label
_atom_site_type_symbol
_atom_site_fract_x
_atom_site_fract_y
_atom_site_fract_z
O1	O	2.120036	0.081774	0.031278
O2	O	1.654975	0.081781	-0.016339
O3	O	1.899818	0.081768	0.142590
O4	O	1.875193	0.081787	-0.127652
O5	O	1.899794	-0.081815	0.142596
O6	O	1.654950	-0.081802	-0.016334
O7	O	2.120012	-0.081809	0.031283
Zn8	Zn	1.887477	-0.107778	0.007476
Zn9	Zn	1.887509	0.107750	0.007468
O10	O	1.875168	-0.081796	-0.127646
C11	C	1.595443	-0.000010	-0.019945
C12	C	1.418095	-0.000008	-0.030686
N13	N	1.887467	-0.254870	0.007482
C14	C	1.887507	-0.656161	0.007467
C15	C	1.887491	-0.544509	0.007468
C16	C	1.887488	-0.455519	0.007474
C17	C	1.887470	-0.343860	0.007476
C18	C	2.179543	-0.000016	0.034889
C19	C	2.356891	-0.000012	0.045630
C20	C	1.898652	-0.000023	0.176870
C21	C	1.895194	-0.000024	0.279002
N22	N	1.887532	0.254842	0.007470
C23	C	1.876334	-0.000003	-0.161925
C24	C	1.879792	0.000004	-0.264057
C25	C	1.892385	-0.000022	0.361944
C26	C	1.888874	-0.000014	0.466001
C27	C	1.886088	-0.000008	0.548940
C28	C	1.882578	-0.000002	0.653003
H29	H	1.334809	0.000002	-0.104247
H30	H	1.440168	-0.000012	0.119186
