data_functionalizedCrystal
_audit_creation_method	'MofGen! by Chris Wilmer'
_symmetry_space_group_name_H-M	'P1'
_symmetry_Int_Tables_number	1
_symmetry_cell_setting	triclinic
loop_
_symmetry_equiv_pos_as_xyz
  x,y,z
_cell_length_a	19.288840
_cell_length_b	27.731996
_cell_length_c	17.766277
_cell_angle_alpha	89.987644
_cell_angle_beta	89.983415
_cell_angle_gamma	82.873701
loop_
_atom_site_label
_atom_site_type_symbol
_atom_site_fract_x
_atom_site_fract_y
_atom_site_fract_z
O1	O	0.920972	0.060244	-0.062730
O2	O	0.718656	0.068391	-0.062705
O3	O	0.826116	-0.006063	-0.062702
O4	O	0.813512	0.134697	-0.062733
O5	O	0.826098	-0.006066	0.062487
O6	O	0.718637	0.068387	0.062484
O7	O	0.920953	0.060240	0.062459
Cu8	Cu	0.819794	0.064313	0.073902
Cu9	Cu	0.819816	0.064318	-0.074148
O10	O	0.813493	0.134693	0.062456
C11	C	0.692772	0.068129	-0.000107
C12	C	0.615672	0.067348	-0.000097
C13	C	0.579481	0.066975	-0.068339
C14	C	0.507039	0.066236	-0.068348
C15	C	0.470793	0.065860	-0.000111
C16	C	0.506992	0.066236	0.068140
C17	C	0.579432	0.066980	0.068147
C18	C	0.361649	0.036367	0.052164
C19	C	0.289211	0.035620	0.052154
C20	C	0.247364	0.063568	-0.000130
C21	C	0.277965	0.092256	-0.052417
C22	C	0.350404	0.093000	-0.052410
C23	C	0.392244	0.065054	-0.000111
C24	C	0.132623	0.062394	-0.068387
C25	C	0.060179	0.061658	-0.068393
C26	C	0.060134	0.061653	0.068097
C27	C	0.132576	0.062394	0.068101
C28	C	0.168816	0.062762	-0.000143
C29	C	0.825848	-0.024073	-0.000105
C30	C	0.825068	-0.077731	-0.000097
C31	C	0.820172	-0.410460	-0.068374
C32	C	0.817210	-0.612127	-0.068386
O33	O	0.816806	-0.638197	-0.126423
N34	N	0.816832	-0.637347	-0.000147
C35	C	0.817190	-0.612147	0.068101
O36	O	0.816793	-0.638225	0.126143
C37	C	0.820146	-0.410481	0.068113
C38	C	0.820532	-0.385264	-0.000131
C39	C	0.820556	-0.385243	-0.136612
C40	C	0.821300	-0.334829	-0.136608
C41	C	0.821660	-0.309633	-0.068366
C42	C	0.821276	-0.334850	-0.000127
C43	C	0.820499	-0.385281	0.136360
C44	C	0.821237	-0.334861	0.136357
C45	C	0.821622	-0.309644	0.068113
C46	C	0.822380	-0.259241	0.068119
N47	N	0.822758	-0.234020	-0.000120
C48	C	0.822398	-0.259217	-0.068363
C49	C	0.815639	-0.718025	0.068090
C50	C	0.814901	-0.768442	0.068087
C51	C	0.814920	-0.768418	-0.068401
C52	C	0.815663	-0.718001	-0.068397
C53	C	0.816017	-0.692805	-0.000150
C54	C	0.823961	-0.153345	-0.068350
C55	C	0.824708	-0.102927	-0.068340
C56	C	0.824686	-0.102955	0.068148
C57	C	0.823942	-0.153369	0.068138
C58	C	0.823578	-0.178562	-0.000117
O59	O	0.822776	-0.233139	0.126125
O60	O	0.822779	-0.233128	-0.126396
C61	C	0.819428	-0.460873	-0.068377
C62	C	0.819043	-0.486090	-0.000139
C63	C	0.819403	-0.460894	0.068104
C64	C	0.818305	-0.536507	-0.000142
C65	C	0.817945	-0.561703	-0.068384
C66	C	0.818323	-0.536483	-0.136624
C67	C	0.819068	-0.486070	-0.136620
C68	C	0.819025	-0.486114	0.136343
C69	C	0.818282	-0.536528	0.136334
C70	C	0.817922	-0.561724	0.068091
C71	C	0.946838	0.060502	-0.000140
C72	C	1.023937	0.061283	-0.000156
C73	C	0.813761	0.152703	-0.000143
C74	C	0.814541	0.206362	-0.000155
N75	N	0.819783	0.064310	0.178032
N76	N	0.819832	0.064317	-0.178278
C77	C	0.867382	0.031358	0.217421
C78	C	0.867386	0.031356	0.296222
C79	C	0.819798	0.064314	0.335633
C80	C	0.772190	0.097268	0.296235
C81	C	0.772183	0.097266	0.217435
C82	C	0.810212	0.108358	0.460462
C83	C	0.810224	0.108360	0.539261
C84	C	0.819816	0.064319	0.578679
C85	C	0.829411	0.020274	0.539289
C86	C	0.829404	0.020272	0.460489
C87	C	0.819800	0.064319	0.421079
C88	C	0.867422	0.031362	0.703513
C89	C	0.867421	0.031359	0.782317
C90	C	0.772229	0.097276	0.782328
C91	C	0.772226	0.097275	0.703526
C92	C	0.819827	0.064318	0.664124
H93	H	0.264303	0.012257	0.094725
H94	H	0.733422	0.124100	0.185364
H95	H	0.477475	0.065931	0.123699
C96	C	0.619244	0.067386	0.143222
N97	N	0.649231	0.067691	0.199770
H98	H	0.814628	-0.788941	-0.123966
C99	C	0.719840	0.133520	0.339588
N100	N	0.680406	0.160824	0.372242
H101	H	0.815975	-0.697472	-0.123968
H102	H	0.820260	-0.405752	-0.192186
H103	H	0.608984	0.067275	-0.123909
H104	H	0.395716	0.013607	0.094744
H105	H	0.825024	-0.082398	-0.123915
H106	H	0.906180	0.004523	0.814387
C107	C	0.814484	-0.796175	0.143161
N108	N	0.814165	-0.817062	0.199709
H109	H	0.733479	0.124109	0.814415
H110	H	0.477567	0.065933	-0.123921
H111	H	0.375316	0.116361	-0.094982
C112	C	0.919776	-0.004894	0.660168
N113	N	0.959209	-0.032204	0.627522
H114	H	0.823661	-0.173851	-0.123929
H115	H	0.817974	-0.557056	0.191911
C116	C	0.231937	0.123005	-0.109931
N117	N	0.197266	0.146165	-0.153248
C118	C	0.799664	0.156811	0.582582
N119	N	0.791705	0.193305	0.615210
H120	H	0.821611	-0.314302	-0.192180
H121	H	0.162131	0.062699	-0.123955
C122	C	0.816033	-0.690316	0.143172
N123	N	0.816333	-0.669449	0.199725
H124	H	0.030713	0.061357	-0.123966
C125	C	0.823525	-0.181109	0.143210
N126	N	0.823205	-0.201999	0.199755
H127	H	0.820187	-0.405804	0.191932
C128	C	0.172388	0.062798	0.143174
N129	N	0.202375	0.063102	0.199722
H130	H	0.733470	0.124109	0.671454
H131	H	0.821515	-0.314348	0.191933
C132	C	0.819486	-0.458337	-0.211695
N133	N	0.819800	-0.437452	-0.268245
C134	C	0.020267	0.061240	0.143159
N135	N	-0.009765	0.060931	0.199697
H136	H	0.824982	-0.082432	0.123709
C137	C	0.817925	-0.564208	-0.211691
N138	N	0.817621	-0.585093	-0.268228
H139	H	0.819319	-0.465605	0.191916
C140	C	0.919757	-0.004891	0.339558
N141	N	0.959206	-0.032190	0.372197
C142	C	0.919737	-0.004900	0.174082
N143	N	0.959169	-0.032211	0.141439
C144	C	0.839948	-0.028177	0.417163
N145	N	0.847886	-0.064670	0.384530
H146	H	0.802389	0.144224	0.428374
H147	H	0.837221	-0.015589	0.571382
