data_functionalizedCrystal
_audit_creation_method	'MofGen! by Chris Wilmer'
_symmetry_space_group_name_H-M	'P1'
_symmetry_Int_Tables_number	1
_symmetry_cell_setting	triclinic
loop_
_symmetry_equiv_pos_as_xyz
  x,y,z
_cell_length_a	17.077404
_cell_length_b	18.215405
_cell_length_c	18.215399
_cell_angle_alpha	89.969449
_cell_angle_beta	89.980408
_cell_angle_gamma	90.025110
loop_
_atom_site_label
_atom_site_type_symbol
_atom_site_fract_x
_atom_site_fract_y
_atom_site_fract_z
Zn1	Zn	1.200044	-0.292987	-0.416098
Zn2	Zn	1.199947	-0.416059	-0.293026
Zn3	Zn	1.068776	-0.293011	-0.293046
Zn4	Zn	1.068740	-0.416017	-0.416051
O5	O	1.134377	-0.354519	-0.354555
O6	O	1.309878	-0.309321	-0.399783
O7	O	1.182521	-0.399763	-0.190044
O8	O	1.086245	-0.190024	-0.309397
O9	O	1.309807	-0.399740	-0.309363
O10	O	1.182688	-0.190006	-0.399802
O11	O	1.086150	-0.309361	-0.190059
O12	O	0.958924	-0.309321	-0.309352
O13	O	1.086183	-0.399670	-0.519042
O14	O	0.958898	-0.399693	-0.399723
O15	O	1.182652	-0.309280	-0.519076
O16	O	1.182486	-0.519037	-0.309318
O17	O	1.086088	-0.519007	-0.399704
C18	C	0.930429	-0.354505	-0.354535
C19	C	0.843179	-0.354517	-0.354544
C20	C	0.802196	-0.401645	-0.401525
C21	C	0.720215	-0.401647	-0.401537
C22	C	0.679220	-0.354524	-0.354563
C23	C	0.720209	-0.307391	-0.307580
C24	C	0.802188	-0.307386	-0.307572
C25	C	0.549339	-0.307405	-0.307598
C26	C	0.467354	-0.307411	-0.307604
C27	C	0.467366	-0.401666	-0.401562
C28	C	0.549345	-0.401661	-0.401554
C29	C	0.590329	-0.354529	-0.354570
C30	C	1.134294	-0.545725	-0.354520
C31	C	1.134330	-0.627524	-0.354529
C32	C	1.184642	-0.815709	-0.307552
C33	C	1.184677	-0.892568	-0.307570
C34	C	1.084212	-0.892576	-0.401612
C35	C	1.084181	-0.815719	-0.401597
C36	C	1.134395	-0.777287	-0.354563
C37	C	1.134461	-0.931003	-0.354595
C38	C	1.134499	-1.014337	-0.354615
C39	C	1.134359	-0.693948	-0.354544
C40	C	1.339121	-0.354533	-0.354576
C41	C	1.426371	-0.354538	-0.354585
C42	C	1.134425	-0.354468	-0.546508
C43	C	1.134445	-0.354446	-0.628307
C44	C	1.134481	-0.162566	-0.354607
C45	C	1.134526	-0.080767	-0.354629
C46	C	1.184694	-0.307336	-0.816520
C47	C	1.184704	-0.307315	-0.893379
C48	C	1.084251	-0.401442	-0.893332
C49	C	1.084238	-0.401459	-0.816475
C50	C	1.134464	-0.354408	-0.778071
C51	C	1.134486	-0.354369	-0.931787
C52	C	1.134496	-0.354346	-1.015121
C53	C	1.134454	-0.354429	-0.694732
C54	C	1.134374	-0.354516	-0.163349
C55	C	1.134506	-0.354330	-0.081551
H56	H	0.686850	-0.440023	-0.439793
O57	O	1.233461	-0.778296	-0.261971
C58	C	1.284128	-0.733783	-0.303908
H59	H	1.256400	-0.722247	-0.359651
H60	H	1.294648	-0.679752	-0.273929
H61	H	1.342306	-0.763354	-0.312054
H62	H	1.043328	-0.923876	-0.439904
O63	O	1.233510	-0.929777	-0.261832
C64	C	1.277835	-0.879372	-0.220333
H65	H	1.245660	-0.824613	-0.217745
H66	H	1.286255	-0.901614	-0.162361
H67	H	1.337432	-0.871130	-0.247332
H68	H	0.433993	-0.440040	-0.439820
H69	H	1.043264	-0.784434	-0.439882
O70	O	1.233502	-0.261558	-0.779328
C71	C	1.277850	-0.220020	-0.829749
H72	H	1.245707	-0.217461	-0.884531
H73	H	1.286247	-0.162041	-0.807563
H74	H	1.337456	-0.246968	-0.837926
H75	H	0.582721	-0.440037	-0.439800
O76	O	1.035552	-0.447224	-0.779039
C77	C	1.080214	-0.494778	-0.734587
H78	H	1.139714	-0.468827	-0.723095
H79	H	1.048228	-0.504648	-0.680530
H80	H	1.088814	-0.549311	-0.764189
H81	H	0.433978	-0.269030	-0.269363
H82	H	1.225605	-0.268984	-0.924681
O83	O	0.842102	-0.447319	-0.447192
C84	C	0.889545	-0.405476	-0.494808
H85	H	0.901838	-0.349672	-0.468952
H86	H	0.947185	-0.435462	-0.504613
H87	H	0.857979	-0.397460	-0.549363
O88	O	1.035541	-0.447126	-0.930753
C89	C	1.046309	-0.437006	-1.006835
H90	H	1.106903	-0.412904	-1.017350
H91	H	1.040962	-0.492124	-1.036026
H92	H	0.999773	-0.397809	-1.028650
H93	H	0.582705	-0.269019	-0.269344
O94	O	0.680473	-0.261651	-0.261849
C95	C	0.700449	-0.277648	-0.188468
H96	H	0.759960	-0.305930	-0.186884
H97	H	0.703256	-0.224492	-0.155567
H98	H	0.654284	-0.315456	-0.163616
H99	H	0.835556	-0.269006	-0.269319
