data_functionalizedCrystal
_audit_creation_method	'MofGen! by Chris Wilmer'
_symmetry_space_group_name_H-M	'P1'
_symmetry_Int_Tables_number	1
_symmetry_cell_setting	triclinic
loop_
_symmetry_equiv_pos_as_xyz
  x,y,z
_cell_length_a	21.395364
_cell_length_b	19.805405
_cell_length_c	19.805407
_cell_angle_alpha	90.010665
_cell_angle_beta	90.004597
_cell_angle_gamma	90.041677
loop_
_atom_site_label
_atom_site_type_symbol
_atom_site_fract_x
_atom_site_fract_y
_atom_site_fract_z
Zn1	Zn	0.957753	-0.269315	0.382707
Zn2	Zn	1.291086	0.064018	0.716040
Zn3	Zn	1.624420	0.397351	1.049374
Zn4	Zn	0.957699	-0.382472	0.269521
Zn5	Zn	1.291033	-0.049139	0.602854
Zn6	Zn	1.624366	0.284194	0.936187
Zn7	Zn	0.853005	-0.269332	0.269534
Zn8	Zn	1.186338	0.064001	0.602867
Zn9	Zn	1.519671	0.397335	0.936200
Zn10	Zn	0.852945	-0.382497	0.382669
Zn11	Zn	1.186278	-0.049164	0.716003
Zn12	Zn	1.519611	0.284169	1.049336
O13	O	0.905350	-0.325904	0.326108
O14	O	1.238684	0.007429	0.659441
O15	O	1.572017	0.340762	0.992774
O16	O	1.045424	-0.284308	0.367703
O17	O	1.378757	0.049025	0.701036
O18	O	1.712091	0.382358	1.034370
O19	O	0.943814	-0.367461	0.174806
O20	O	1.277147	-0.034127	0.508139
O21	O	1.610481	0.299206	0.841473
O22	O	0.866947	-0.174613	0.284567
O23	O	1.200281	0.158720	0.617901
O24	O	1.533614	0.492053	0.951234
O25	O	1.045384	-0.367444	0.284546
O26	O	1.378718	-0.034111	0.617879
O27	O	1.712051	0.299222	0.951212
O28	O	0.943906	-0.174601	0.367716
O29	O	1.277239	0.158732	0.701049
O30	O	1.610572	0.492066	1.034382
O31	O	0.866895	-0.284337	0.174815
O32	O	1.200229	0.048996	0.508149
O33	O	1.533562	0.382330	0.841482
O34	O	0.765319	-0.284361	0.284531
O35	O	1.098652	0.048972	0.617864
O36	O	1.431985	0.382305	0.951198
O37	O	0.866845	-0.367487	0.477391
O38	O	1.200178	-0.034154	0.810724
O39	O	1.533512	0.299180	1.144058
O40	O	0.765275	-0.367503	0.367651
O41	O	1.098608	-0.034170	0.700985
O42	O	1.431941	0.299163	1.034318
O43	O	0.943847	-0.284333	0.477419
O44	O	1.277181	0.049001	0.810752
O45	O	1.610514	0.382334	1.144085
O46	O	0.943756	-0.477192	0.284509
O47	O	1.277089	-0.143859	0.617842
O48	O	1.610423	0.189474	0.951176
O49	O	0.866793	-0.477211	0.367639
O50	O	1.200126	-0.143877	0.700972
O51	O	1.533460	0.189456	1.034305
C52	C	0.742563	-0.325937	0.326089
C53	C	1.075896	0.007396	0.659422
C54	C	1.409229	0.340729	0.992755
C55	C	0.672922	-0.325968	0.326097
C56	C	1.006255	0.007366	0.659430
C57	C	1.339588	0.340699	0.992763
C58	C	0.640251	-0.282750	0.369464
C59	C	0.973585	0.050584	0.702797
C60	C	1.306918	0.383917	1.036130
C61	C	0.574816	-0.282732	0.369466
C62	C	0.908149	0.050602	0.702800
C63	C	1.241483	0.383935	1.036133
C64	C	0.542053	-0.325944	0.326109
C65	C	0.875387	0.007390	0.659442
C66	C	1.208720	0.340723	0.992776
C67	C	0.574731	-0.369165	0.282734
C68	C	0.908065	-0.035831	0.616067
C69	C	1.241398	0.297502	0.949400
C70	C	0.640166	-0.369177	0.282727
C71	C	0.973499	-0.035843	0.616061
C72	C	1.306832	0.297490	0.949394
C73	C	0.438335	-0.386897	0.320668
C74	C	0.771668	-0.053564	0.654002
C75	C	1.105001	0.279769	0.987335
C76	C	0.372902	-0.386887	0.320679
C77	C	0.706235	-0.053553	0.654013
C78	C	1.039568	0.279780	0.987346
C79	C	0.340232	-0.325906	0.326124
C80	C	0.673566	0.007427	0.659457
C81	C	1.006899	0.340760	0.992791
C82	C	0.373004	-0.264935	0.331572
C83	C	0.706338	0.068398	0.664905
C84	C	1.039671	0.401731	0.998239
C85	C	0.438439	-0.264947	0.331566
C86	C	0.771772	0.068386	0.664899
C87	C	1.105105	0.401719	0.998233
C88	C	0.471101	-0.325935	0.326110
C89	C	0.804434	0.007398	0.659444
C90	C	1.137768	0.340731	0.992777
C91	C	0.236610	-0.282665	0.369496
C92	C	0.569943	0.050668	0.702830
C93	C	0.903276	0.384001	1.036163
C94	C	0.171173	-0.282646	0.369494
C95	C	0.504506	0.050687	0.702827
C96	C	0.837840	0.384020	1.036161
C97	C	0.171090	-0.369085	0.282765
C98	C	0.504423	-0.035752	0.616098
C99	C	0.837756	0.297581	0.949432
C100	C	0.236525	-0.369098	0.282763
C101	C	0.569859	-0.035765	0.616097
C102	C	0.903192	0.297568	0.949430
C103	C	0.269281	-0.325889	0.326133
C104	C	0.602615	0.007444	0.659466
C105	C	0.935948	0.340777	0.992799
C106	C	0.905279	-0.501760	0.326083
C107	C	1.238612	-0.168427	0.659417
C108	C	1.571946	0.164906	0.992750
C109	C	0.905306	-0.576992	0.326095
C110	C	1.238639	-0.243659	0.659429
C111	C	1.571972	0.089674	0.992762
C112	C	0.945354	-0.612272	0.369425
C113	C	1.278688	-0.278939	0.702758
C114	C	1.612021	0.054395	1.036091
C115	C	0.945377	-0.682960	0.369437
C116	C	1.278710	-0.349627	0.702770
C117	C	1.612044	-0.016294	1.036104
C118	C	0.905354	-0.718368	0.326117
C119	C	1.238687	-0.385035	0.659450
C120	C	1.572020	-0.051701	0.992783
C121	C	0.865301	-0.683083	0.282786
C122	C	1.198634	-0.349750	0.616119
C123	C	1.531968	-0.016417	0.949452
C124	C	0.865276	-0.612396	0.282777
C125	C	1.198609	-0.279063	0.616110
C126	C	1.531942	0.054270	0.949444
C127	C	0.865401	-0.968157	0.282820
C128	C	1.198735	-0.634823	0.616154
C129	C	1.532068	-0.301490	0.949487
C130	C	0.865431	-1.038849	0.282831
C131	C	1.198765	-0.705515	0.616164
C132	C	1.532098	-0.372182	0.949498
C133	C	0.945503	-1.038721	0.369480
C134	C	1.278836	-0.705387	0.702814
C135	C	1.612169	-0.372054	1.036147
C136	C	0.945478	-0.968034	0.369472
C137	C	1.278811	-0.634700	0.702805
C138	C	1.612144	-0.301367	1.036138
C139	C	0.905423	-0.932755	0.326144
C140	C	1.238756	-0.599422	0.659477
C141	C	1.572089	-0.266089	0.992810
C142	C	0.905398	-0.856107	0.326131
C143	C	1.238731	-0.522773	0.659465
C144	C	1.572064	-0.189440	0.992798
C145	C	0.905381	-0.795015	0.326125
C146	C	1.238715	-0.461682	0.659458
C147	C	1.572048	-0.128348	0.992792
C148	C	1.068774	-0.325872	0.326127
C149	C	1.402107	0.007462	0.659461
C150	C	1.735440	0.340795	0.992794
C151	C	1.138415	-0.325858	0.326135
C152	C	1.471748	0.007475	0.659469
C153	C	1.805082	0.340809	0.992802
C154	C	0.905346	-0.325911	0.502650
C155	C	1.238679	0.007422	0.835984
C156	C	1.572012	0.340756	1.169317
C157	C	0.905343	-0.325914	0.577882
C158	C	1.238677	0.007420	0.911216
C159	C	1.572010	0.340753	1.244549
C160	C	0.905439	-0.149362	0.326147
C161	C	1.238772	0.183972	0.659480
C162	C	1.572106	0.517305	0.992814
C163	C	0.905477	-0.074130	0.326164
C164	C	1.238810	0.259204	0.659497
C165	C	1.572144	0.592537	0.992831
C166	C	0.945437	-0.282611	1.039689
C167	C	1.278770	0.050723	1.373022
C168	C	1.612104	0.384056	1.706356
C169	C	0.945439	-0.282614	0.969000
C170	C	1.278772	0.050720	1.302334
C171	C	1.612106	0.384053	1.635667
C172	C	0.905348	-0.325908	0.933644
C173	C	1.238682	0.007425	1.266977
C174	C	1.572015	0.340758	1.600311
C175	C	0.865257	-0.369207	0.968980
C176	C	1.198591	-0.035874	1.302313
C177	C	1.531924	0.297459	1.635647
C178	C	0.865259	-0.369207	1.039667
C179	C	1.198592	-0.035874	1.373000
C180	C	1.531926	0.297459	1.706334
C181	C	0.865251	-0.369210	0.683907
C182	C	1.198584	-0.035876	1.017240
C183	C	1.531917	0.297457	1.350573
C184	C	0.865251	-0.369205	0.613214
C185	C	1.198584	-0.035872	0.946548
C186	C	1.531917	0.297462	1.279881
C187	C	0.945430	-0.282616	0.613240
C188	C	1.278764	0.050717	0.946573
C189	C	1.612097	0.384050	1.279907
C190	C	0.945432	-0.282616	0.683927
C191	C	1.278765	0.050717	1.017261
C192	C	1.612099	0.384051	1.350594
C193	C	0.905344	-0.325917	0.719257
C194	C	1.238677	0.007416	1.052590
C195	C	1.572011	0.340749	1.385923
C196	C	0.905343	-0.325914	0.795905
C197	C	1.238676	0.007419	1.129239
C198	C	1.572010	0.340752	1.462572
C199	C	0.905345	-0.325908	0.856997
C200	C	1.238679	0.007425	1.190330
C201	C	1.572012	0.340758	1.523664
C202	C	0.905349	-0.325912	1.150252
C203	C	1.238683	0.007422	1.483585
C204	C	1.572016	0.340755	1.816918
C205	C	0.905348	-0.325905	1.075020
C206	C	1.238681	0.007428	1.408353
C207	C	1.572015	0.340762	1.741686
H208	H	0.465119	-0.215302	0.336000
H209	H	0.798452	0.118031	0.669333
H210	H	1.131785	0.451364	1.002666
F211	F	0.822579	-0.415288	0.575587
F212	F	1.155912	-0.081955	0.908920
F213	F	1.489246	0.251379	1.242254
F214	F	0.988108	-0.236534	0.931402
F215	F	1.321441	0.096799	1.264735
F216	F	1.654774	0.430132	1.598069
H217	H	0.346224	-0.436533	0.316246
H218	H	0.679557	-0.103200	0.649580
H219	H	1.012890	0.230134	0.982913
H220	H	0.346407	-0.215279	0.336006
H221	H	0.679740	0.118054	0.669339
H222	H	1.013073	0.451387	1.002673
F223	F	0.822592	-0.415288	1.077268
F224	F	1.155925	-0.081955	1.410602
F225	F	1.489259	0.251378	1.743935
F226	F	0.988077	-0.930354	0.415577
F227	F	1.321411	-0.597021	0.748910
F228	F	1.654744	-0.263687	1.082244
F229	F	0.822587	-0.415297	0.721498
F230	F	1.155921	-0.081964	1.054831
F231	F	1.489254	0.251369	1.388165
H232	H	0.977993	-0.711682	0.404715
H233	H	1.311327	-0.378348	0.738048
H234	H	1.644660	-0.045015	1.071381
H235	H	0.978076	-0.247359	0.712711
H236	H	1.311409	0.085975	1.046044
H237	H	1.644742	0.419308	1.379378
F238	F	0.136403	-0.236642	0.415651
F239	F	0.469737	0.096691	0.748984
F240	F	0.803070	0.430024	1.082318
H241	H	0.144415	-0.404269	0.247462
H242	H	0.477748	-0.070936	0.580796
H243	H	0.811082	0.262397	0.914129
F244	F	0.473097	-0.451805	0.314865
F245	F	0.806430	-0.118471	0.648199
F246	F	1.139764	0.214862	0.981532
F247	F	0.539862	-0.415152	0.236587
F248	F	0.873196	-0.081818	0.569921
F249	F	1.206529	0.251515	0.903254
H250	H	0.978115	-1.067453	0.404763
H251	H	1.311449	-0.734119	0.738096
H252	H	1.644782	-0.400786	1.071429
H253	H	0.832837	-1.067676	0.247553
H254	H	1.166170	-0.734342	0.580886
H255	H	1.499503	-0.401009	0.914220
F256	F	0.271473	-0.236675	0.415649
F257	F	0.604807	0.096658	0.748982
F258	F	0.938140	0.429991	1.082316
F259	F	0.674937	-0.415176	0.236566
F260	F	1.008270	-0.081842	0.569900
F261	F	1.341603	0.251491	0.903233
H262	H	0.977948	-0.583448	0.404698
H263	H	1.311282	-0.250114	0.738031
H264	H	1.644615	0.083219	1.071365
H265	H	0.832618	-0.404462	0.940187
H266	H	1.165951	-0.071128	1.273520
H267	H	1.499284	0.262205	1.606854
F268	F	0.822767	-0.930620	0.236712
F269	F	1.156100	-0.597286	0.570045
F270	F	1.489433	-0.263953	0.903378
H271	H	0.978079	-0.247351	1.068471
H272	H	1.311413	0.085983	1.401804
H273	H	1.644746	0.419316	1.735138
H274	H	0.832711	-0.711918	0.247516
H275	H	1.166044	-0.378585	0.580849
H276	H	1.499377	-0.045251	0.914183
F277	F	0.271297	-0.415095	0.236603
F278	F	0.604630	-0.081762	0.569937
F279	F	0.937963	0.251571	0.903270
F280	F	0.988096	-0.236529	0.575634
F281	F	1.321429	0.096804	0.908968
F282	F	1.654762	0.430137	1.242301
F283	F	0.675109	-0.236762	0.415620
F284	F	1.008442	0.096572	0.748954
F285	F	1.341776	0.429905	1.082287
F286	F	0.822650	-0.574849	0.236661
F287	F	1.155983	-0.241516	0.569994
F288	F	1.489316	0.091817	0.903327
H289	H	0.548211	-0.247535	0.404780
H290	H	0.881544	0.085798	0.738113
H291	H	1.214877	0.419132	1.071446
