data_functionalizedCrystal
_audit_creation_method	'MofGen! by Chris Wilmer'
_symmetry_space_group_name_H-M	'P1'
_symmetry_Int_Tables_number	1
_symmetry_cell_setting	triclinic
loop_
_symmetry_equiv_pos_as_xyz
  x,y,z
_cell_length_a	19.121112
_cell_length_b	19.120786
_cell_length_c	12.827885
_cell_angle_alpha	92.476068
_cell_angle_beta	92.459544
_cell_angle_gamma	89.915581
loop_
_atom_site_label
_atom_site_type_symbol
_atom_site_fract_x
_atom_site_fract_y
_atom_site_fract_z
Zn1	Zn	1.059876	-0.324883	0.637404
Zn2	Zn	1.054782	-0.442140	0.454878
Zn3	Zn	0.942634	-0.319908	0.455557
Zn4	Zn	0.937605	-0.437081	0.622467
O5	O	0.998724	-0.381003	0.542577
O6	O	1.157305	-0.344637	0.619158
O7	O	1.039878	-0.425961	0.308728
O8	O	0.962423	-0.222458	0.486214
O9	O	1.153563	-0.430785	0.485058
O10	O	1.048560	-0.226113	0.619816
O11	O	0.957483	-0.336157	0.309227
O12	O	0.843862	-0.331252	0.471731
O13	O	0.953851	-0.422163	0.770689
O14	O	0.840167	-0.417339	0.594359
O15	O	1.043684	-0.339731	0.781662
O16	O	1.035002	-0.539579	0.470574
O17	O	0.948912	-0.535862	0.593701
C18	C	0.816576	-0.373207	0.531499
C19	C	0.738652	-0.369889	0.526783
C20	C	0.298025	-0.348836	0.496918
C21	C	0.371243	-0.351958	0.501354
C22	C	0.405941	-0.398413	0.567305
C23	C	0.367418	-0.441745	0.628832
C24	C	0.294201	-0.438619	0.624400
C25	C	0.626912	-0.410094	0.583878
C26	C	0.700134	-0.413218	0.588302
C27	C	0.703954	-0.323430	0.460826
C28	C	0.630736	-0.320311	0.456396
C29	C	0.592219	-0.363640	0.517927
C30	C	0.480782	-0.401607	0.571839
C31	C	0.517380	-0.360442	0.513398
C32	C	0.990877	-0.563160	0.530467
C33	C	0.987585	-0.641090	0.525326
C34	C	1.030851	-0.679543	0.592522
C35	C	1.027754	-0.752767	0.587692
C36	C	0.981394	-0.787536	0.515661
C37	C	0.938123	-0.749078	0.448462
C38	C	0.941216	-0.675855	0.453297
C39	C	0.969808	-1.008528	0.497584
C40	C	0.966719	-1.081756	0.492752
C41	C	1.056350	-1.085440	0.631984
C42	C	1.059443	-1.012216	0.636809
C43	C	1.016169	-0.973764	0.569613
C44	C	0.978229	-0.862382	0.510721
C45	C	1.019331	-0.898919	0.574559
C46	C	1.181583	-0.388830	0.553698
C47	C	1.259507	-0.392166	0.558438
C48	C	0.998775	-0.380938	0.815154
C49	C	0.998796	-0.380910	0.931311
C50	C	1.006621	-0.198136	0.554757
C51	C	1.009986	-0.120209	0.559948
C52	C	0.998716	-0.381019	0.271065
C53	C	0.998839	-0.380855	0.154931
C54	C	1.043253	-0.340112	0.988526
C55	C	1.043276	-0.340083	1.108580
H56	H	0.489126	-0.322616	0.459706
H57	H	0.735323	-0.288154	0.410733
Cl58	Cl	0.879834	-0.792788	0.357917
Cl59	Cl	0.886821	-0.627514	0.368819
H60	H	1.081340	-0.305156	1.157763
H61	H	0.395675	-0.479567	0.682535
Cl62	Cl	0.245778	-0.493090	0.701747
H63	H	0.402601	-0.316678	0.451254
H64	H	1.081294	-0.305203	0.948632
Cl65	Cl	1.082140	-0.801104	0.672185
H66	H	1.091581	-1.116755	0.686692
H67	H	0.960778	-0.415788	1.105754
H68	H	0.728383	-0.451048	0.642013
H69	H	0.940484	-0.890700	0.452070
H70	H	1.068606	-0.651239	0.651173
Cl71	Cl	0.587121	-0.261903	0.373491
Cl72	Cl	0.524408	-0.460019	0.654726
Cl73	Cl	0.254412	-0.290436	0.413998
H74	H	0.595560	-0.445378	0.633977
H75	H	0.960748	-0.415812	0.971205
H76	H	1.097193	-0.983908	0.695462
Cl77	Cl	0.908436	-1.125465	0.402187
H78	H	0.934574	-0.977226	0.442869
Cl79	Cl	1.077607	-0.855207	0.665115
