data_functionalizedCrystal
_audit_creation_method	'MofGen! by Chris Wilmer'
_symmetry_space_group_name_H-M	'P1'
_symmetry_Int_Tables_number	1
_symmetry_cell_setting	triclinic
loop_
_symmetry_equiv_pos_as_xyz
  x,y,z
_cell_length_a	12.594516
_cell_length_b	12.759401
_cell_length_c	12.759393
_cell_angle_alpha	90.019837
_cell_angle_beta	89.970826
_cell_angle_gamma	89.982423
loop_
_atom_site_label
_atom_site_type_symbol
_atom_site_fract_x
_atom_site_fract_y
_atom_site_fract_z
Zn1	Zn	-0.423635	-1.606245	-0.594038
Zn2	Zn	-0.601655	-1.606135	-0.418366
Zn3	Zn	-0.423696	-1.430547	-0.418373
Zn4	Zn	-0.601577	-1.430532	-0.594003
O5	O	-0.512641	-1.518365	-0.506195
O6	O	-0.447258	-1.753252	-0.570746
O7	O	-0.578106	-1.582804	-0.271345
O8	O	-0.274742	-1.453906	-0.441693
O9	O	-0.578048	-1.753171	-0.441680
O10	O	-0.274698	-1.582991	-0.570754
O11	O	-0.447360	-1.453800	-0.271351
O12	O	-0.447285	-1.283524	-0.441659
O13	O	-0.577915	-1.453880	-0.741029
O14	O	-0.577973	-1.283513	-0.570694
O15	O	-0.447182	-1.582976	-0.741054
O16	O	-0.750590	-1.582789	-0.441646
O17	O	-0.750533	-1.453773	-0.570686
C18	C	-0.512628	-1.245397	-0.506174
C19	C	-0.512648	-1.128621	-0.506190
C20	C	-0.789182	-1.518296	-0.506185
C21	C	-0.907487	-1.518363	-0.506215
C22	C	-0.512533	-1.518438	-0.780228
C23	C	-0.512487	-1.518469	-0.897005
C24	C	-0.976748	-1.448184	-0.576351
C25	C	-1.047619	-1.422585	-0.480484
C26	C	-1.047415	-1.544058	-0.602099
C27	C	-0.976800	-1.492713	-0.410297
C28	C	-0.976590	-1.614230	-0.531977
C29	C	-1.047429	-1.588667	-0.436044
C30	C	-0.235020	-1.518463	-0.506228
C31	C	-0.116714	-1.518504	-0.506242
C32	C	-0.512655	-1.792398	-0.506216
C33	C	-0.512661	-1.909175	-0.506226
C34	C	-0.580801	-1.073780	-0.573272
C35	C	-0.580805	-0.964056	-0.573293
C36	C	-0.444500	-0.964023	-0.439140
C37	C	-0.444491	-1.073745	-0.439125
C38	C	-0.444395	-1.451321	-0.951869
C39	C	-0.444363	-1.451346	-1.061594
C40	C	-0.580517	-1.585676	-1.061579
C41	C	-0.580554	-1.585645	-0.951857
C42	C	-0.512671	-1.518352	-0.233228
C43	C	-0.512417	-1.518524	-0.116451
H44	H	-1.078841	-1.341578	-0.458716
O45	O	-0.940136	-1.466765	-0.313472
C46	C	-0.985007	-1.419191	-0.136113
C47	C	-1.026674	-1.448590	-0.245705
H48	H	-1.054951	-1.404467	-0.081298
H49	H	-0.934557	-1.486076	-0.104038
H50	H	-0.934652	-1.345185	-0.141893
H51	H	-1.077074	-1.522568	-0.240014
H52	H	-1.077066	-1.381644	-0.277738
O53	O	-0.378432	-1.127139	-0.373904
C54	C	-0.363939	-1.250913	-0.232029
C55	C	-0.438867	-1.190528	-0.305834
H56	H	-0.412771	-1.302161	-0.176961
H57	H	-0.308357	-1.302388	-0.280296
H58	H	-0.315209	-1.192827	-0.184141
H59	H	-0.487666	-1.248539	-0.353737
H60	H	-0.494379	-1.139038	-0.257507
O61	O	-0.647111	-1.127134	-0.638274
C62	C	-0.790779	-1.251033	-0.652166
C63	C	-0.715769	-1.190662	-0.578427
H64	H	-0.846293	-1.302426	-0.603810
H65	H	-0.839566	-1.193032	-0.700098
H66	H	-0.741949	-1.302392	-0.707195
H67	H	-0.764517	-1.139301	-0.523334
H68	H	-0.666979	-1.248720	-0.530568
H69	H	-1.078268	-1.648075	-0.376676
O70	O	-0.378254	-1.385962	-0.898748
C71	C	-0.243171	-1.252761	-0.910348
C72	C	-0.318037	-1.326716	-0.970634
H73	H	-0.194450	-1.204857	-0.968442
H74	H	-0.292004	-1.197725	-0.858997
H75	H	-0.187579	-1.301015	-0.858962
H76	H	-0.373643	-1.278547	-1.022077
H77	H	-0.269138	-1.381755	-1.021919
H78	H	-0.388916	-1.396666	-1.106259
H79	H	-1.078434	-1.565733	-0.683176
O80	O	-0.646528	-1.650898	-1.115027
C81	C	-0.706858	-1.710436	-1.284053
C82	C	-0.632029	-1.636533	-1.223658
H83	H	-0.695178	-1.698832	-1.371892
H84	H	-0.688180	-1.795176	-1.262566
H85	H	-0.792677	-1.691957	-1.262401
H86	H	-0.546185	-1.654916	-1.245277
H87	H	-0.650798	-1.551814	-1.245150
H88	H	-0.636301	-0.919410	-0.627920
H89	H	-0.636007	-1.640328	-0.907185
O90	O	-0.378452	-0.910664	-0.373883
C91	C	-0.363966	-0.786667	-0.232125
C92	C	-0.438886	-0.847046	-0.305947
H93	H	-0.412795	-0.735200	-0.177195
H94	H	-0.315266	-0.844663	-0.184100
H95	H	-0.308356	-0.735380	-0.280487
H96	H	-0.494560	-0.898334	-0.257666
H97	H	-0.487511	-0.788993	-0.353976
O98	O	-0.939842	-1.377329	-0.647137
C99	C	-0.935355	-1.323183	-0.827993
C100	C	-0.977244	-1.403487	-0.747942
H101	H	-0.965559	-1.344315	-0.909515
H102	H	-0.964574	-1.241526	-0.805928
H103	H	-0.844844	-1.324298	-0.827802
H104	H	-1.067752	-1.402466	-0.748092
H105	H	-0.947944	-1.485106	-0.770037
O106	O	-0.939385	-1.710816	-0.558180
C107	C	-0.933139	-1.847058	-0.688871
C108	C	-0.975326	-1.737656	-0.659324
H109	H	-0.962199	-1.868801	-0.770637
H110	H	-0.842630	-1.846272	-0.687921
H111	H	-0.963418	-1.907128	-0.629883
H112	H	-0.945126	-1.677525	-0.718283
H113	H	-1.065834	-1.738528	-0.660241
