data_functionalizedCrystal
_audit_creation_method	'MofGen! by Chris Wilmer'
_symmetry_space_group_name_H-M	'P1'
_symmetry_Int_Tables_number	1
_symmetry_cell_setting	triclinic
loop_
_symmetry_equiv_pos_as_xyz
  x,y,z
_cell_length_a	17.699083
_cell_length_b	17.699083
_cell_length_c	16.776229
_cell_angle_alpha	90.007545
_cell_angle_beta	89.994534
_cell_angle_gamma	96.716985
loop_
_atom_site_label
_atom_site_type_symbol
_atom_site_fract_x
_atom_site_fract_y
_atom_site_fract_z
O1	O	1.004078	-0.095713	-0.066258
O2	O	1.337412	0.237620	0.267075
O3	O	1.670745	0.570954	0.600408
O4	O	0.783700	-0.108165	-0.066267
O5	O	1.117033	0.225168	0.267066
O6	O	1.450367	0.558501	0.600400
O7	O	0.900116	0.008250	-0.066256
O8	O	1.233449	0.341583	0.267078
O9	O	1.566782	0.674917	0.600411
O10	O	0.887663	-0.212128	-0.066270
O11	O	1.220996	0.121205	0.267063
O12	O	1.554330	0.454538	0.600397
O13	O	0.900100	0.008257	0.066321
O14	O	1.233433	0.341590	0.399654
O15	O	1.566767	0.674924	0.732988
O16	O	0.783685	-0.108158	0.066309
O17	O	1.117018	0.225175	0.399643
O18	O	1.450351	0.558508	0.732976
O19	O	1.004063	-0.095706	0.066318
O20	O	1.337396	0.237627	0.399651
O21	O	1.670730	0.570961	0.732985
Zn22	Zn	0.893871	-0.101931	0.087363
Zn23	Zn	1.227205	0.231402	0.420696
Zn24	Zn	1.560538	0.564736	0.754030
Zn25	Zn	0.893892	-0.101940	-0.087312
Zn26	Zn	1.227225	0.231393	0.246021
Zn27	Zn	1.560558	0.564726	0.579354
O28	O	0.887648	-0.212121	0.066306
O29	O	1.220981	0.121212	0.399640
O30	O	1.554314	0.454545	0.732973
C31	C	0.899662	0.036451	0.000033
C32	C	1.232995	0.369784	0.333366
C33	C	1.566328	0.703117	0.666699
C34	C	0.898323	0.120469	0.000033
C35	C	1.231656	0.453802	0.333366
C36	C	1.564990	0.787135	0.666700
C37	C	0.755495	-0.107716	0.000020
C38	C	1.088829	0.225618	0.333353
C39	C	1.422162	0.558951	0.666687
C40	C	0.671477	-0.106377	0.000017
C41	C	1.004811	0.226956	0.333350
C42	C	1.338144	0.560290	0.666684
C43	C	1.032268	-0.096156	0.000029
C44	C	1.365601	0.237178	0.333362
C45	C	1.698934	0.570511	0.666696
C46	C	1.116286	-0.097494	0.000027
C47	C	1.449619	0.235839	0.333360
C48	C	1.782953	0.569172	0.666694
C49	C	1.164907	-0.029161	0.000029
C50	C	1.498240	0.304173	0.333362
C51	C	1.831573	0.637506	0.666695
C52	C	1.243850	-0.030423	0.000031
C53	C	1.577183	0.302910	0.333364
C54	C	1.910517	0.636244	0.666698
C55	C	1.274171	-0.100020	0.000026
C56	C	1.607504	0.233314	0.333360
C57	C	1.940838	0.566647	0.666693
C58	C	1.225544	-0.168358	0.000027
C59	C	1.558877	0.164975	0.333360
C60	C	1.892210	0.498308	0.666694
C61	C	1.146602	-0.167095	0.000030
C62	C	1.479935	0.166238	0.333363
C63	C	1.813269	0.499572	0.666697
C64	C	1.543907	-0.173453	0.000015
C65	C	1.877240	0.159880	0.333348
C66	C	2.210573	0.493213	0.666682
C67	C	1.622855	-0.174711	0.000010
C68	C	1.956188	0.158622	0.333343
C69	C	2.289521	0.491955	0.666676
C70	C	1.641155	-0.036781	0.000016
C71	C	1.974488	0.296552	0.333349
C72	C	2.307822	0.629885	0.666683
C73	C	1.562213	-0.035518	0.000019
C74	C	1.895547	0.297815	0.333353
C75	C	2.228880	0.631148	0.666686
C76	C	1.513593	-0.103857	0.000024
C77	C	1.846926	0.229477	0.333358
C78	C	2.180260	0.562810	0.666691
C79	C	1.427994	-0.102487	0.000023
C80	C	1.761327	0.230846	0.333356
C81	C	2.094660	0.564180	0.666690
C82	C	1.359769	-0.101390	0.000022
C83	C	1.693102	0.231943	0.333355
C84	C	2.026435	0.565277	0.666688
C85	C	0.888102	-0.240322	0.000016
C86	C	1.221435	0.093011	0.333350
C87	C	1.554768	0.426345	0.666683
C88	C	0.889440	-0.324340	0.000011
C89	C	1.222773	0.008993	0.333344
C90	C	1.556107	0.342327	0.666677
N91	N	0.893863	-0.101924	0.206574
N92	N	1.227196	0.231409	0.539908
N93	N	1.560530	0.564743	0.873241
C94	C	0.966656	0.169090	0.000037
C95	C	1.299990	0.502423	0.333370
C96	C	1.633323	0.835756	0.666704
C97	C	0.965394	0.248033	0.000030
C98	C	1.298727	0.581366	0.333363
C99	C	1.632061	0.914700	0.666696
C100	C	0.895798	0.278354	0.000025
C101	C	1.229131	0.611687	0.333358
C102	C	1.562464	0.945020	0.666691
C103	C	0.827459	0.229727	0.000018
C104	C	1.160792	0.563060	0.333352
C105	C	1.494126	0.896393	0.666685
C106	C	0.828722	0.150785	0.000020
C107	C	1.162055	0.484118	0.333353
C108	C	1.495389	0.817451	0.666686
C109	C	0.822364	0.548090	0.000012
C110	C	1.155697	0.881423	0.333345
C111	C	1.489030	1.214756	0.666678
C112	C	0.821106	0.627038	0.000013
C113	C	1.154439	0.960371	0.333346
C114	C	1.487773	1.293704	0.666679
C115	C	0.959036	0.645338	0.000022
C116	C	1.292369	0.978671	0.333355
C117	C	1.625703	1.312004	0.666688
C118	C	0.960299	0.566396	0.000023
C119	C	1.293632	0.899729	0.333356
C120	C	1.626966	1.233063	0.666690
C121	C	0.891961	0.517776	0.000013
C122	C	1.225294	0.851109	0.333346
C123	C	1.558627	1.184442	0.666679
C124	C	0.893330	0.432177	0.000019
C125	C	1.226664	0.765510	0.333352
C126	C	1.559997	1.098843	0.666686
C127	C	0.894427	0.363951	0.000024
C128	C	1.227761	0.697285	0.333357
C129	C	1.561094	1.030618	0.666691
N130	N	0.893906	-0.101941	-0.206523
N131	N	1.227239	0.231392	0.126810
N132	N	1.560573	0.564725	0.460143
C133	C	0.945428	-0.050396	0.248297
C134	C	1.278761	0.282937	0.581630
C135	C	1.612094	0.616270	0.914963
C136	C	0.945432	-0.050396	0.331749
C137	C	1.278765	0.282938	0.665082
C138	C	1.612098	0.616271	0.998415
C139	C	0.893875	-0.101927	0.373477
C140	C	1.227208	0.231406	0.706811
C141	C	1.560541	0.564740	1.040144
C142	C	0.842305	-0.153457	0.331749
C143	C	1.175638	0.179876	0.665082
C144	C	1.508971	0.513210	0.998416
C145	C	0.842297	-0.153454	0.248298
C146	C	1.175631	0.179880	0.581632
C147	C	1.508964	0.513213	0.914965
C148	C	0.842332	-0.153472	0.668296
C149	C	1.175665	0.179861	1.001630
C150	C	1.508999	0.513195	1.334963
C151	C	0.842345	-0.153473	0.751753
C152	C	1.175678	0.179860	1.085086
C153	C	1.509011	0.513194	1.418419
C154	C	0.945466	-0.050414	0.751747
C155	C	1.278800	0.282919	1.085080
C156	C	1.612133	0.616252	1.418413
C157	C	0.945459	-0.050411	0.668296
C158	C	1.278792	0.282923	1.001629
C159	C	1.612126	0.616256	1.334963
C160	C	0.893887	-0.101938	0.626575
C161	C	1.227220	0.231396	0.959908
C162	C	1.560554	0.564729	1.293242
C163	C	0.893882	-0.101937	0.536087
C164	C	1.227215	0.231397	0.869420
C165	C	1.560549	0.564730	1.202753
C166	C	0.893882	-0.101932	0.463964
C167	C	1.227216	0.231401	0.797297
C168	C	1.560549	0.564735	1.130631
H169	H	1.140226	0.027513	0.000028
H170	H	1.473560	0.360846	0.333361
H171	H	1.806893	0.694179	0.666694
H172	H	0.987457	-0.008456	0.785725
H173	H	1.320790	0.324878	1.119058
H174	H	1.654124	0.658211	1.452391
F175	F	0.755992	0.099039	0.000013
F176	F	1.089326	0.432372	0.333347
F177	F	1.422659	0.765705	0.666680
F178	F	0.787467	-0.208322	0.796162
F179	F	1.120800	0.125012	1.129495
F180	F	1.454134	0.458345	1.462829
F181	F	1.000311	0.004446	0.376153
F182	F	1.333645	0.337780	0.709486
F183	F	1.666978	0.671113	1.042820
F184	F	0.753389	0.261998	0.000004
F185	F	1.086722	0.595332	0.333337
F186	F	1.420056	0.928665	0.666670
H187	H	0.800342	-0.195428	0.634334
H188	H	1.133675	0.137905	0.967667
H189	H	1.467008	0.471238	1.301000
F190	F	1.040732	0.136828	0.000050
F191	F	1.374065	0.470161	0.333383
F192	F	1.707398	0.803494	0.666717
F193	F	1.000335	0.004433	0.623889
F194	F	1.333669	0.337766	0.957222
F195	F	1.667002	0.671099	1.290555
F196	F	0.747028	0.659305	0.000006
F197	F	1.080362	0.992638	0.333339
F198	F	1.413695	1.325971	0.666673
H199	H	1.647538	-0.231388	0.000009
H200	H	1.980872	0.101945	0.333343
H201	H	2.314205	0.435278	0.666676
H202	H	0.800322	-0.195412	0.365729
H203	H	1.133655	0.137921	0.699063
H204	H	1.466989	0.471254	1.032396
H205	H	0.800308	-0.195412	0.214329
H206	H	1.133641	0.137922	0.547662
H207	H	1.466974	0.471255	0.880996
F208	F	1.031768	0.697089	0.000030
F209	F	1.365102	1.030423	0.333363
F210	F	1.698435	1.363756	0.666697
F211	F	1.295593	0.042307	0.000037
F212	F	1.628927	0.375640	0.333370
F213	F	1.962260	0.708974	0.666704
H214	H	0.987414	-0.008437	0.214327
H215	H	1.320748	0.324896	0.547660
H216	H	1.654081	0.658230	0.880993
H217	H	1.021038	0.287618	0.000035
H218	H	1.354372	0.620951	0.333368
H219	H	1.687705	0.954284	0.666701
H220	H	1.537531	0.021154	0.000019
H221	H	1.870864	0.354487	0.333353
H222	H	2.204197	0.687821	0.666686
F223	F	1.692907	0.035951	0.000016
F224	F	2.026240	0.369284	0.333349
F225	F	2.359573	0.702618	0.666682
H226	H	0.766718	0.508512	0.000003
H227	H	1.100052	0.841845	0.333337
H228	H	1.433385	1.175179	0.666670
H229	H	1.504329	-0.229099	0.000015
H230	H	1.837662	0.104234	0.333348
H231	H	2.170996	0.437568	0.666682
H232	H	1.250237	-0.225025	0.000028
H233	H	1.583570	0.108308	0.333361
H234	H	1.916904	0.441642	0.666695
F235	F	1.094856	-0.239825	0.000033
F236	F	1.428189	0.093508	0.333366
F237	F	1.761522	0.426842	0.666699
H238	H	1.016971	0.541714	0.000031
H239	H	1.350305	0.875047	0.333365
H240	H	1.683638	1.208380	0.666698
