data_functionalizedCrystal
_audit_creation_method	'MofGen! by Chris Wilmer'
_symmetry_space_group_name_H-M	'P1'
_symmetry_Int_Tables_number	1
_symmetry_cell_setting	triclinic
loop_
_symmetry_equiv_pos_as_xyz
  x,y,z
_cell_length_a	14.971506
_cell_length_b	8.559649
_cell_length_c	14.048226
_cell_angle_alpha	89.995035
_cell_angle_beta	89.993237
_cell_angle_gamma	76.700526
loop_
_atom_site_label
_atom_site_type_symbol
_atom_site_fract_x
_atom_site_fract_y
_atom_site_fract_z
O1	O	1.172499	0.208355	-0.079163
O2	O	0.910376	0.233253	-0.079162
O3	O	1.064531	-0.011751	-0.079162
O4	O	1.018344	0.453359	-0.079163
O5	O	1.064515	-0.011765	0.079160
O6	O	0.910360	0.233239	0.079159
O7	O	1.172483	0.208340	0.079159
Zn8	Zn	1.041419	0.220787	0.104296
Zn9	Zn	1.041440	0.220806	-0.104299
O10	O	1.018329	0.453344	0.079158
C11	C	0.877121	0.232127	-0.000002
C12	C	0.778058	0.228772	-0.000002
C13	C	1.068023	-0.071281	-0.000003
C14	C	1.078442	-0.248640	-0.000008
C15	C	0.330689	0.359908	-0.000012
C16	C	0.423771	0.363047	-0.000016
C17	C	0.490965	0.219097	-0.000011
C18	C	0.465074	0.071999	-0.000012
C19	C	0.371992	0.068862	-0.000015
C20	C	0.659083	0.078549	-0.000004
C21	C	0.752171	0.081686	0.000000
C22	C	0.710862	0.372734	-0.000006
C23	C	0.617780	0.369596	-0.000008
C24	C	0.591895	0.222498	-0.000007
C25	C	1.205738	0.209467	-0.000004
C26	C	1.304802	0.212821	-0.000010
C27	C	1.014836	0.512874	-0.000003
C28	C	1.004418	0.690233	-0.000004
N29	N	1.041412	0.220773	0.246656
N30	N	1.041455	0.220808	-0.246660
C31	C	1.109688	0.112330	0.296475
C32	C	1.109694	0.112329	0.396133
C33	C	1.041427	0.220780	0.445970
C34	C	0.973145	0.329228	0.396144
C35	C	0.973136	0.329220	0.296489
C36	C	0.973170	0.329240	0.603859
C37	C	0.973179	0.329251	0.703521
C38	C	1.109728	0.112349	0.703503
C39	C	1.109719	0.112341	0.603847
C40	C	1.041437	0.220792	0.554028
H41	H	0.275983	0.477129	-0.000009
F42	F	1.171703	-0.357591	0.000003
F43	F	1.182352	-0.003093	0.243444
H44	H	0.731941	0.492507	-0.000006
F45	F	0.911161	-0.200823	-0.000002
F46	F	0.451317	0.519597	-0.000023
F47	F	1.182359	-0.003089	0.449153
H48	H	1.165310	0.024040	0.563269
F49	F	0.823683	-0.071521	-0.000000
H50	H	1.165325	0.024045	0.744071
H51	H	0.917589	0.417561	0.744094
H52	H	0.917565	0.417547	0.563300
H53	H	0.350918	-0.050911	-0.000015
H54	H	0.917556	0.417526	0.436728
F55	F	0.631537	-0.078011	0.000001
H56	H	0.519791	-0.045206	-0.000014
H57	H	0.563072	0.486813	-0.000006
F58	F	0.900465	0.444636	0.243470
