data_functionalizedCrystal
_audit_creation_method	'MofGen! by Chris Wilmer'
_symmetry_space_group_name_H-M	'P1'
_symmetry_Int_Tables_number	1
_symmetry_cell_setting	triclinic
loop_
_symmetry_equiv_pos_as_xyz
  x,y,z
_cell_length_a	16.992694
_cell_length_b	14.519709
_cell_length_c	15.455313
_cell_angle_alpha	92.669068
_cell_angle_beta	87.142206
_cell_angle_gamma	87.174184
loop_
_atom_site_label
_atom_site_type_symbol
_atom_site_fract_x
_atom_site_fract_y
_atom_site_fract_z
O1	O	1.044092	0.191795	-0.072025
O2	O	0.815805	0.189648	-0.072051
O3	O	0.936001	0.056918	-0.072029
O4	O	0.923896	0.324525	-0.072046
O5	O	0.929127	0.064474	0.072232
O6	O	0.808932	0.197205	0.072210
O7	O	1.037219	0.199352	0.072236
Cu8	Cu	0.922447	0.198968	0.085395
Cu9	Cu	0.930576	0.190031	-0.085210
O10	O	0.917023	0.332082	0.072215
C11	C	0.783152	0.190666	0.000077
C12	C	0.696097	0.182430	0.000067
C13	C	0.645968	0.261890	0.000063
C14	C	0.564170	0.254147	0.000075
C15	C	0.532502	0.166943	0.000086
C16	C	0.582638	0.087478	0.000093
C17	C	0.664434	0.095222	0.000087
C18	C	0.288859	0.134847	0.000111
C19	C	0.207056	0.127109	0.000115
C20	C	0.188594	0.293779	0.000099
C21	C	0.270393	0.301515	0.000087
C22	C	0.320520	0.222050	0.000099
N23	N	0.448892	0.159027	0.000096
N24	N	0.404129	0.229968	0.000095
C25	C	0.932000	0.026296	0.000101
C26	C	0.930309	-0.076207	0.000102
C27	C	0.924087	-0.451550	0.000078
C28	C	0.925815	-0.347118	0.000085
C29	C	0.927198	-0.263882	0.000091
C30	C	0.928926	-0.159443	0.000096
C31	C	1.069872	0.198333	0.000107
C32	C	1.156927	0.206569	0.000111
C33	C	0.921024	0.362704	0.000082
C34	C	0.922715	0.465206	0.000076
N35	N	0.916736	0.205254	0.205390
N36	N	0.936294	0.183739	-0.205204
C37	C	0.967817	0.148889	0.250793
C38	C	0.963505	0.153651	0.341600
C39	C	0.908115	0.214784	0.387002
C40	C	0.857028	0.271151	0.341593
C41	C	0.861337	0.266383	0.250787
C42	C	0.889516	0.235339	0.658581
C43	C	0.885212	0.240104	0.749392
C44	C	0.991689	0.122602	0.749393
C45	C	0.995996	0.117844	0.658586
C46	C	0.944907	0.174208	0.613185
N47	N	0.903708	0.219655	0.479822
N48	N	0.949311	0.169331	0.520367
H49	H	0.556847	0.016475	0.000114
H50	H	0.147771	0.358475	0.000091
H51	H	0.181276	0.056094	0.000123
H52	H	0.329663	0.070141	0.000121
H53	H	0.811924	0.320923	0.378565
N54	N	1.027555	0.082955	0.201815
H55	H	1.082475	0.098540	0.217605
H56	H	1.017614	0.017677	0.217647
N57	N	0.806248	0.327179	0.201809
H58	H	0.773269	0.287369	0.164148
H59	H	0.770555	0.366624	0.244401
H60	H	0.296170	0.372525	0.000069
N61	N	0.834426	0.296145	0.609622
H62	H	0.845556	0.283852	0.545207
H63	H	0.778030	0.282192	0.625506
N64	N	0.680121	0.355945	0.000041
H65	H	0.635949	0.405107	0.000041
H66	H	0.711118	0.365594	0.053516
H67	H	1.005099	0.107754	0.378567
H68	H	0.523358	0.318852	0.000071
H69	H	1.033283	0.076712	0.786368
N70	N	0.718505	0.009520	0.000098
H71	H	0.686034	-0.046899	0.000105
H72	H	0.755388	0.006297	-0.053381
H73	H	1.041099	0.068065	0.621621
H74	H	0.840105	0.289889	0.786355
