data_functionalizedCrystal
_audit_creation_method	'MofGen! by Chris Wilmer'
_symmetry_space_group_name_H-M	'P1'
_symmetry_Int_Tables_number	1
_symmetry_cell_setting	triclinic
loop_
_symmetry_equiv_pos_as_xyz
  x,y,z
_cell_length_a	12.837943
_cell_length_b	13.339070
_cell_length_c	11.295483
_cell_angle_alpha	95.212346
_cell_angle_beta	85.461227
_cell_angle_gamma	105.229117
loop_
_atom_site_label
_atom_site_type_symbol
_atom_site_fract_x
_atom_site_fract_y
_atom_site_fract_z
O1	O	1.458416	0.264173	-0.098995
O2	O	1.152768	0.250811	-0.099002
O3	O	1.270513	0.106847	-0.098996
O4	O	1.340670	0.408137	-0.099001
O5	O	1.260165	0.119470	0.099055
O6	O	1.142420	0.263434	0.099048
O7	O	1.448068	0.276796	0.099056
Cu8	Cu	1.294299	0.271267	0.117135
Cu9	Cu	1.306537	0.256339	-0.117082
O10	O	1.330322	0.420760	0.099049
C11	C	1.107675	0.252608	0.000022
C12	C	0.988726	0.239146	0.000019
C13	C	0.794315	0.400986	0.000033
C14	C	0.682553	0.388342	0.000031
C15	C	0.653436	0.201215	0.000022
C16	C	0.765199	0.213859	0.000024
C17	C	0.835635	0.313748	0.000028
C18	C	0.947400	0.326391	0.000021
C19	C	0.918281	0.139265	0.000020
C20	C	0.806518	0.126621	0.000018
C21	C	1.253488	0.074327	0.000027
C22	C	1.218164	-0.041381	0.000022
C23	C	1.492830	-0.379696	0.000029
C24	C	1.526022	-0.270983	0.000041
C25	C	1.449060	-0.213577	0.000036
C26	C	1.338901	-0.264895	0.000019
C27	C	1.305705	-0.373618	0.000017
C28	C	1.261935	-0.207499	0.000024
C29	C	1.151776	-0.258817	0.000007
C30	C	1.118585	-0.367530	0.000004
C31	C	1.195547	-0.424936	0.000009
C32	C	1.295131	-0.098776	0.000026
C33	C	1.108006	-0.092698	0.000014
C34	C	1.074814	-0.201411	0.000002
C35	C	1.493161	0.274998	0.000029
C36	C	1.612110	0.288460	0.000024
C37	C	1.347347	0.453280	0.000023
C38	C	1.382672	0.568987	0.000021
N39	N	1.285699	0.281767	0.281871
N40	N	1.315142	0.245832	-0.281818
C41	C	1.377032	0.170190	0.531166
C42	C	1.370543	0.178133	0.655829
C43	C	1.266225	0.305590	0.655863
C44	C	1.272714	0.297647	0.531200
C45	C	1.328121	0.229946	0.468856
C46	C	1.334616	0.222009	0.344190
C47	C	1.230293	0.349460	0.344227
C48	C	1.223804	0.357403	0.468890
H49	H	0.851666	0.482319	0.000035
N50	N	0.999772	-0.422880	-0.000017
H51	H	0.990423	-0.500461	-0.000017
H52	H	0.960876	-0.397873	0.073399
H53	H	0.951934	0.068229	0.000008
N54	N	1.423310	0.113694	0.723035
H55	H	1.366627	0.066968	0.774769
H56	H	1.459399	0.069671	0.664541
H57	H	1.555480	-0.426445	0.000043
N58	N	1.206453	0.378591	0.723116
H59	H	1.209761	0.374547	0.811544
H60	H	1.241129	0.452213	0.701336
N61	N	1.164040	0.430414	0.536135
H62	H	1.167348	0.426378	0.624565
H63	H	1.198725	0.504032	0.514346
N64	N	1.177543	0.413925	0.277022
H65	H	1.190063	0.398625	0.188588
H66	H	1.097307	0.395968	0.298825
H67	H	0.648916	0.459381	0.000039
N68	N	1.436785	0.097183	0.463894
H69	H	1.514785	0.117878	0.485561
H70	H	1.402056	0.023551	0.485609
N71	N	0.956000	-0.256760	0.000003
H72	H	0.924708	-0.241191	-0.073415
H73	H	0.946740	-0.334322	0.000049
H74	H	0.596064	0.119897	0.000117
N75	N	1.024997	-0.030785	0.000005
H76	H	0.982152	-0.053050	-0.073414
H77	H	0.974552	-0.043715	0.073470
N78	N	1.023364	0.434126	0.000030
H79	H	1.066548	0.448218	0.073447
H80	H	1.074150	0.438803	-0.073436
N81	N	1.159740	-0.542194	-0.000002
H82	H	1.192317	-0.574249	-0.073420
H83	H	1.184644	-0.564813	0.073463
H84	H	1.384823	-0.057004	0.000040
N85	N	0.730546	0.018890	0.000029
H86	H	0.653474	0.024116	0.000034
H87	H	0.747555	-0.024436	-0.073392
N88	N	1.394364	0.148993	0.276927
H89	H	1.472362	0.169681	0.298599
H90	H	1.359624	0.075365	0.298646
H91	H	1.476092	-0.125058	0.000046
N92	N	1.644826	-0.215634	0.000065
H93	H	1.688545	-0.268494	0.000066
H94	H	1.666517	-0.175333	-0.073350
