data_functionalizedCrystal
_audit_creation_method	'MofGen! by Chris Wilmer'
_symmetry_space_group_name_H-M	'P1'
_symmetry_Int_Tables_number	1
_symmetry_cell_setting	triclinic
loop_
_symmetry_equiv_pos_as_xyz
  x,y,z
_cell_length_a	17.699104
_cell_length_b	11.295483
_cell_length_c	17.699083
_cell_angle_alpha	94.085816
_cell_angle_beta	96.712734
_cell_angle_gamma	94.098192
loop_
_atom_site_label
_atom_site_type_symbol
_atom_site_fract_x
_atom_site_fract_y
_atom_site_fract_z
O1	O	1.009175	0.099051	-0.090679
O2	O	1.509175	0.599051	0.409321
O3	O	0.788798	0.099049	-0.103115
O4	O	1.288798	0.599049	0.396885
O5	O	0.905212	0.099040	0.013291
O6	O	1.405212	0.599040	0.513291
O7	O	0.892761	0.099060	-0.207085
O8	O	1.392761	0.599060	0.292915
O9	O	0.894987	-0.099010	0.003083
O10	O	1.394987	0.400990	0.503083
O11	O	0.778573	-0.099001	-0.113323
O12	O	1.278573	0.400999	0.386677
O13	O	0.998950	-0.098999	-0.100887
O14	O	1.498950	0.401001	0.399113
Cu15	Cu	0.887828	-0.117083	-0.108038
Cu16	Cu	1.387828	0.382917	0.391962
Cu17	Cu	0.899920	0.117134	-0.095965
Cu18	Cu	1.399920	0.617134	0.404035
O19	O	0.882536	-0.098990	-0.217294
O20	O	1.382536	0.401010	0.282706
C21	C	0.755489	0.000023	-0.107771
C22	C	1.255489	0.500023	0.392229
C23	C	0.671472	0.000022	-0.106426
C24	C	1.171472	0.500022	0.393574
N25	N	0.879329	-0.281819	-0.116528
N26	N	1.379329	0.218181	0.383472
C27	C	0.146602	0.000040	-0.167169
C28	C	0.646602	0.500040	0.332831
C29	C	0.225546	0.000044	-0.168428
C30	C	0.725546	0.500044	0.331572
C31	C	0.274163	0.000037	-0.100093
C32	C	0.774163	0.500037	0.399907
C33	C	0.243833	0.000039	-0.030494
C34	C	0.743833	0.500039	0.469506
C35	C	0.164891	0.000044	-0.029236
C36	C	0.664891	0.500044	0.470764
C37	C	0.562198	0.000020	-0.035568
C38	C	1.062198	0.500020	0.464432
C39	C	0.641145	0.000012	-0.036832
C40	C	1.141145	0.500012	0.463168
C41	C	0.622853	0.000020	-0.174761
C42	C	1.122853	0.500020	0.325239
C43	C	0.543911	0.000025	-0.173502
C44	C	1.043911	0.500025	0.326498
C45	C	0.513588	0.000033	-0.103903
C46	C	1.013588	0.500033	0.396097
C47	C	0.427988	0.000032	-0.102539
C48	C	0.927988	0.500032	0.397461
C49	C	0.359761	0.000030	-0.101457
C50	C	0.859761	0.500030	0.398543
C51	C	0.969609	-0.531116	-0.026304
C52	C	1.469609	-0.031116	0.473696
C53	C	0.963191	-0.655779	-0.032726
C54	C	1.463191	-0.155779	0.467274
C55	C	0.860072	-0.655811	-0.135790
C56	C	1.360072	-0.155811	0.364210
C57	C	0.866490	-0.531148	-0.129368
C58	C	1.366490	-0.031148	0.370632
C59	C	0.921261	-0.468804	-0.074624
C60	C	1.421261	0.031196	0.425376
C61	C	0.927682	-0.344139	-0.068206
C62	C	1.427682	0.155861	0.431794
C63	C	0.824560	-0.344173	-0.171266
C64	C	1.324560	0.155827	0.328734
C65	C	0.818142	-0.468836	-0.177688
C66	C	1.318142	0.031164	0.322312
C67	C	1.032259	0.000029	-0.096231
C68	C	1.532259	0.500029	0.403769
C69	C	1.116277	0.000039	-0.097576
C70	C	1.616277	0.500039	0.402424
C71	C	0.899653	0.000014	0.036384
C72	C	1.399653	0.500014	0.536384
C73	C	0.898315	0.000014	0.120402
C74	C	1.398315	0.500014	0.620402
N75	N	0.908425	0.281869	-0.087468
N76	N	1.408425	0.781869	0.412532
C77	C	0.888095	0.000038	-0.240386
C78	C	1.388095	0.500038	0.259614
C79	C	0.889434	0.000047	-0.324404
C80	C	1.389434	0.500047	0.175596
C81	C	0.966648	0.000013	0.169018
C82	C	1.466648	0.500013	0.669018
C83	C	0.965386	0.000024	0.247962
C84	C	1.465386	0.500024	0.747962
C85	C	0.895790	0.000026	0.278288
C86	C	1.395790	0.500026	0.778288
C87	C	0.827452	0.000031	0.229666
C88	C	1.327452	0.500031	0.729666
C89	C	0.828715	0.000029	0.150724
C90	C	1.328715	0.500029	0.650724
C91	C	0.822358	0.000041	0.548030
C92	C	1.322358	0.500041	1.048030
C93	C	0.821100	0.000039	0.626978
C94	C	1.321100	0.500039	1.126978
C95	C	0.959028	0.000035	0.645268
C96	C	1.459028	0.500035	1.145268
C97	C	0.960291	0.000033	0.566326
C98	C	1.460291	0.500033	1.066326
C99	C	0.891954	0.000044	0.517711
C100	C	1.391954	0.500044	1.017711
C101	C	0.893323	0.000035	0.432112
C102	C	1.393323	0.500035	0.932112
C103	C	0.894420	0.000027	0.363886
C104	C	1.394420	0.500027	0.863886
H105	H	0.107022	0.000037	-0.222816
H106	H	0.607022	0.500037	0.277184
H107	H	0.785194	-0.293425	-0.210614
H108	H	1.285194	0.206575	0.289386
H109	H	1.023320	0.000003	0.144333
H110	H	1.523320	0.500003	0.644333
H111	H	0.773547	-0.519611	-0.222258
H112	H	1.273547	-0.019611	0.277742
N113	N	1.032741	0.000043	0.697700
N114	N	1.532741	0.500043	1.197700
H115	H	1.059317	-0.073378	0.684179
H116	H	1.559317	0.426622	1.184179
H117	H	1.021327	0.000095	0.752294
H118	H	1.521327	0.500095	1.252294
H119	H	0.283424	0.000040	0.025146
H120	H	0.783424	0.500040	0.525146
H121	H	0.140202	0.000045	0.027435
H122	H	0.640202	0.500045	0.527435
H123	H	0.250233	0.000056	-0.225097
H124	H	0.750233	0.500056	0.274903
H125	H	0.770787	0.000041	0.254364
H126	H	1.270787	0.500041	0.754364
H127	H	1.014210	-0.480355	0.018266
H128	H	1.514210	0.019645	0.518266
N129	N	0.986755	-0.276892	-0.009167
N130	N	1.486755	0.223108	0.490833
H131	H	1.016408	-0.335288	0.020470
H132	H	1.516408	0.164712	0.520470
H133	H	0.960505	-0.225180	0.026921
H134	H	1.460505	0.274820	0.526921
H135	H	1.002560	-0.706509	0.006622
H136	H	1.502560	-0.206509	0.506622
N137	N	0.755015	0.000037	0.098285
N138	N	1.255015	0.500037	0.598285
H139	H	0.710734	0.000038	0.129474
H140	H	1.210734	0.500038	0.629474
H141	H	0.748741	-0.073381	0.061350
H142	H	1.248741	0.426619	0.561350
N143	N	0.655555	0.000036	-0.249832
N144	N	1.155555	0.500036	0.250168
H145	H	0.634027	-0.073379	-0.283546
H146	H	1.134027	0.426621	0.216454
H147	H	0.712939	0.000085	-0.240201
H148	H	1.212939	0.500085	0.259799
N149	N	0.801010	-0.723081	-0.194830
N150	N	1.301010	-0.223081	0.305170
H151	H	0.810746	-0.701389	-0.247421
H152	H	1.310746	-0.201389	0.252579
H153	H	0.748450	-0.701390	-0.185003
H154	H	1.248450	-0.201390	0.314997
N155	N	1.035354	0.000021	0.533616
N156	N	1.535354	0.500021	1.033616
H157	H	1.078452	0.000023	0.576394
H158	H	1.578452	0.500023	1.076394
H159	H	1.042672	0.073439	0.505041
H160	H	1.542672	0.573439	1.005041
H161	H	1.021029	0.000020	0.287542
H162	H	1.521029	0.500020	0.787542
H163	H	0.764423	0.000039	0.651666
H164	H	1.264423	0.500039	1.151666
H165	H	0.766713	0.000049	0.508457
H166	H	1.266713	0.500049	1.008457
H167	H	0.680729	0.000009	0.018818
H168	H	1.180729	0.500009	0.518818
N169	N	0.491491	-0.000021	-0.247221
N170	N	0.991491	0.499979	0.252779
H171	H	0.505018	0.073383	-0.273823
H172	H	1.005018	0.573383	0.226177
H173	H	0.436892	-0.000081	-0.235823
H174	H	0.936892	0.499919	0.264177
N175	N	0.529498	0.000020	0.039495
N176	N	1.029498	0.500020	0.539495
H177	H	0.572277	0.000007	0.082590
H178	H	1.072277	0.500007	0.582590
H179	H	0.493350	-0.073399	0.039236
H180	H	0.993350	0.426601	0.539236
