data_functionalizedCrystal
_audit_creation_method	'MofGen! by Chris Wilmer'
_symmetry_space_group_name_H-M	'P1'
_symmetry_Int_Tables_number	1
_symmetry_cell_setting	triclinic
loop_
_symmetry_equiv_pos_as_xyz
  x,y,z
_cell_length_a	14.853567
_cell_length_b	14.044220
_cell_length_c	13.930277
_cell_angle_alpha	89.994760
_cell_angle_beta	89.995755
_cell_angle_gamma	88.411904
loop_
_atom_site_label
_atom_site_type_symbol
_atom_site_fract_x
_atom_site_fract_y
_atom_site_fract_z
O1	O	1.206174	0.123767	-0.079767
O2	O	0.944883	0.138510	-0.079784
O3	O	1.071607	-0.006851	-0.079766
O4	O	1.079450	0.269128	-0.079785
O5	O	1.071587	-0.006854	0.079896
O6	O	0.944863	0.138507	0.079878
O7	O	1.206155	0.123764	0.079895
Zn8	Zn	1.075506	0.131135	0.105236
Zn9	Zn	1.075532	0.131139	-0.105125
O10	O	1.079431	0.269125	0.079877
C11	C	0.911231	0.137841	0.000045
C12	C	0.810989	0.135839	0.000039
C13	C	1.068163	-0.042172	0.000065
C14	C	1.057921	-0.147411	0.000066
C15	C	0.390944	0.041029	0.000067
C16	C	0.383345	0.213721	0.000054
C17	C	0.477528	0.215604	0.000051
C18	C	0.528423	0.130197	0.000054
C19	C	0.485135	0.042908	0.000061
C20	C	0.520822	0.302891	0.000035
C21	C	0.615011	0.304777	0.000031
C22	C	0.665908	0.219369	0.000041
C23	C	0.622615	0.132077	0.000048
C24	C	0.673510	0.046670	0.000052
C25	C	0.630218	-0.040623	0.000066
C26	C	0.536032	-0.042499	0.000071
C27	C	0.760094	0.221246	0.000036
C28	C	0.767702	0.048550	0.000046
C29	C	1.039197	-0.340097	0.000051
C30	C	1.111836	-0.397635	0.000052
C31	C	1.101418	-0.504852	0.000044
C32	C	1.049614	-0.232870	0.000059
C33	C	1.239806	0.124433	0.000064
C34	C	1.340048	0.126435	0.000064
C35	C	1.082874	0.304446	0.000044
C36	C	1.093116	0.409685	0.000037
N37	N	1.075495	0.131132	0.248802
N38	N	1.075549	0.131135	-0.248691
C39	C	1.019414	0.195480	0.701064
C40	C	1.131673	0.066791	0.701049
C41	C	1.131663	0.066788	0.600553
C42	C	1.075527	0.131133	0.550308
C43	C	1.019403	0.195481	0.600559
C44	C	1.187792	0.002448	0.550295
C45	C	1.187784	0.002443	0.449793
C46	C	1.131644	0.066784	0.399546
C47	C	1.075517	0.131134	0.449803
C48	C	1.019382	0.195479	0.399558
C49	C	0.963249	0.259825	0.449813
C50	C	0.963263	0.259822	0.550312
C51	C	1.131630	0.066787	0.299047
C52	C	1.019371	0.195480	0.299053
H53	H	0.671670	-0.110161	0.000062
C54	C	1.205247	-0.356086	0.000222
C55	C	1.251944	-0.386848	0.082359
C56	C	1.337995	-0.348598	0.082546
H57	H	1.200062	-0.288520	0.000278
H58	H	1.237136	-0.376853	-0.055422
H59	H	1.220062	-0.366075	0.137989
H60	H	1.257153	-0.454408	0.082321
H61	H	1.369885	-0.369366	0.026902
H62	H	1.332802	-0.281034	0.082600
H63	H	1.369693	-0.369472	0.138270
H64	H	0.969191	-0.371358	0.000044
C65	C	0.344065	-0.053811	-0.000071
C66	C	0.369287	-0.105455	-0.082200
C67	C	0.326129	-0.192830	-0.082354
H68	H	0.280674	-0.042839	-0.000115
H69	H	0.361087	-0.089034	0.055579
H70	H	0.352259	-0.070240	-0.137835
H71	H	0.432671	-0.116453	-0.082174
H72	H	0.343151	-0.228053	-0.026705
H73	H	0.262740	-0.181848	-0.082395
H74	H	0.343242	-0.227885	-0.138073
C75	C	0.958391	0.265449	0.244678
C76	C	0.909256	0.321810	0.310202
C77	C	0.853081	0.386284	0.260148
H78	H	0.918038	0.231387	0.205477
H79	H	0.993974	0.305030	0.205487
H80	H	0.873675	0.282234	0.349377
H81	H	0.949584	0.355893	0.349406
H82	H	0.888665	0.425866	0.220957
H83	H	0.812735	0.352214	0.220949
H84	H	0.819743	0.424538	0.304598
H85	H	0.917547	0.312219	0.408892
C86	C	0.489146	-0.137335	-0.000075
C87	C	0.514371	-0.188976	-0.082204
C88	C	0.471202	-0.276346	-0.082370
H89	H	0.425756	-0.126353	-0.000127
H90	H	0.506157	-0.172563	0.055574
H91	H	0.497354	-0.153756	-0.137840
H92	H	0.577754	-0.199983	-0.082170
H93	H	0.488213	-0.311574	-0.026721
H94	H	0.407814	-0.265354	-0.082420
H95	H	0.488318	-0.311399	-0.138089
C96	C	0.327976	0.306370	-0.000100
C97	C	0.273669	0.310326	-0.082229
C98	C	0.222638	0.395657	-0.082395
H99	H	0.367139	0.358705	-0.000152
H100	H	0.291021	0.309228	0.055550
H101	H	0.310621	0.307478	-0.137864
H102	H	0.234489	0.258012	-0.082194
H103	H	0.185682	0.398515	-0.026745
H104	H	0.261808	0.447985	-0.082444
H105	H	0.185779	0.398349	-0.138113
C106	C	0.958525	0.265490	0.755494
C107	C	0.980613	0.358676	0.731019
C108	C	0.924532	0.423192	0.781130
H109	H	0.966509	0.256410	0.822560
H110	H	0.897510	0.255131	0.739008
H111	H	1.041613	0.369030	0.747512
H112	H	0.972624	0.367786	0.663962
H113	H	0.863517	0.412834	0.764644
H114	H	0.932520	0.414104	0.848194
H115	H	0.939505	0.486426	0.764524
C116	C	1.192599	-0.003172	0.244658
C117	C	1.241750	-0.059533	0.310171
C118	C	1.297918	-0.124001	0.260104
H119	H	1.232941	0.030895	0.205436
H120	H	1.157009	-0.042753	0.205487
H121	H	1.277337	-0.019956	0.349326
H122	H	1.201432	-0.093620	0.349395
H123	H	1.262328	-0.163583	0.220933
H124	H	1.338254	-0.089927	0.220884
H125	H	1.331267	-0.162256	0.304547
C126	C	0.902174	0.329569	0.604828
C127	C	0.812332	0.314006	0.580429
C128	C	0.756034	0.378230	0.630645
H129	H	0.916926	0.392901	0.588393
H130	H	0.910165	0.320346	0.671886
H131	H	0.804345	0.323237	0.513386
H132	H	0.797552	0.250688	0.596866
H133	H	0.764025	0.369006	0.697702
H134	H	0.770794	0.441557	0.614206
H135	H	0.695070	0.367673	0.614104
C136	C	0.465450	0.395538	-0.000117
C137	C	0.411133	0.399486	-0.082239
C138	C	0.360098	0.484814	-0.082403
H139	H	0.504609	0.447875	-0.000177
H140	H	0.428501	0.398395	0.055537
H141	H	0.448079	0.396638	-0.137879
H142	H	0.371956	0.347169	-0.082197
H143	H	0.323148	0.487671	-0.026749
H144	H	0.399264	0.537144	-0.082460
H145	H	0.323232	0.487500	-0.138117
C146	C	0.661842	0.399644	0.000074
C147	C	0.597109	0.474035	0.000095
C148	C	0.640218	0.561440	0.000152
H149	H	0.698429	0.404107	-0.055588
H150	H	0.698399	0.404015	0.055775
H151	H	0.560568	0.469666	-0.055600
H152	H	0.560519	0.469604	0.055753
H153	H	0.676775	0.565811	0.055853
H154	H	0.676803	0.565893	-0.055511
H155	H	0.596304	0.611924	0.000175
H156	H	1.233489	-0.049952	0.408882
C157	C	1.192460	-0.003174	0.755654
C158	C	1.139764	-0.061305	0.813351
C159	C	1.195728	-0.125780	0.863663
H160	H	1.232752	0.030890	0.794926
H161	H	1.225868	-0.041557	0.711367
H162	H	1.106372	-0.022927	0.857633
H163	H	1.099474	-0.095389	0.774103
H164	H	1.229135	-0.164162	0.819376
H165	H	1.236017	-0.091708	0.902930
H166	H	1.159982	-0.165235	0.902809
C167	C	0.822910	-0.044211	-0.000150
C168	C	0.802305	-0.096750	-0.082298
C169	C	0.853154	-0.182199	-0.082518
H170	H	0.809083	-0.080110	0.055467
H171	H	0.885215	-0.030632	-0.000211
H172	H	0.740015	-0.110331	-0.082228
H173	H	0.816137	-0.060879	-0.137928
H174	H	0.915459	-0.168620	-0.082579
H175	H	0.839323	-0.218090	-0.026897
H176	H	0.839187	-0.217853	-0.138258
C177	C	0.807263	0.315914	-0.000027
C178	C	0.900641	0.299282	-0.000050
C179	C	0.944121	0.386473	-0.000118
H180	H	0.790368	0.351159	0.055631
H181	H	0.790321	0.351091	-0.055731
H182	H	0.917576	0.264120	0.055649
H183	H	0.917563	0.264052	-0.055704
H184	H	0.927179	0.421650	-0.055823
H185	H	0.927219	0.421711	0.055541
H186	H	1.007482	0.375200	-0.000143
H187	H	1.233501	-0.049936	0.591208
