data_functionalizedCrystal
_audit_creation_method	'MofGen! by Chris Wilmer'
_symmetry_space_group_name_H-M	'P1'
_symmetry_Int_Tables_number	1
_symmetry_cell_setting	triclinic
loop_
_symmetry_equiv_pos_as_xyz
  x,y,z
_cell_length_a	14.044191
_cell_length_b	17.038272
_cell_length_c	13.101039
_cell_angle_alpha	93.604737
_cell_angle_beta	86.337551
_cell_angle_gamma	92.151666
loop_
_atom_site_label
_atom_site_type_symbol
_atom_site_fract_x
_atom_site_fract_y
_atom_site_fract_z
O1	O	1.277888	0.185616	-0.085166
O2	O	1.001367	0.178769	-0.085179
O3	O	1.137984	0.068263	-0.085165
O4	O	1.141271	0.296123	-0.085181
O5	O	1.128183	0.076206	0.085264
O6	O	0.991566	0.186712	0.085250
O7	O	1.268087	0.193559	0.085263
Zn8	Zn	1.128270	0.191397	0.112315
Zn9	Zn	1.141184	0.180931	-0.112232
O10	O	1.131470	0.304066	0.085248
C11	C	0.960911	0.179746	0.000034
C12	C	0.854965	0.170812	0.000029
C13	C	0.608470	0.217839	0.000036
C14	C	0.660990	0.154492	0.000039
C15	C	0.768928	0.163575	0.000033
C16	C	0.500523	0.208758	0.000041
C17	C	1.130094	0.042897	0.000050
C18	C	1.121174	-0.044520	0.000049
C19	C	1.203063	-0.088904	0.000054
C20	C	1.194677	-0.171042	0.000044
C21	C	1.104402	-0.208794	0.000036
C22	C	1.022508	-0.164405	0.000028
C23	C	1.030895	-0.082269	0.000031
C24	C	1.074773	-0.456626	0.000021
C25	C	1.066392	-0.538768	0.000021
C26	C	1.238562	-0.545400	0.000035
C27	C	1.246941	-0.463261	0.000043
C28	C	1.165047	-0.418879	0.000030
C29	C	1.095828	-0.292752	0.000029
C30	C	1.173622	-0.334923	0.000030
C31	C	1.308543	0.192582	0.000048
C32	C	1.414490	0.201516	0.000046
C33	C	1.139361	0.329431	0.000032
C34	C	1.148280	0.416848	0.000026
N35	N	1.119464	0.198539	0.265563
N36	N	1.149997	0.173783	-0.265479
C37	C	1.107484	0.208264	0.474604
C38	C	1.161974	0.164061	0.525486
C39	C	1.155308	0.169472	0.641804
C40	C	1.114149	0.202854	0.358276
H41	H	0.644567	0.278888	0.000029
H42	H	1.055832	0.250168	0.518396
Br43	Br	1.325584	-0.037676	0.000079
H44	H	0.624896	0.093435	-0.000029
Br45	Br	1.305817	-0.231274	0.000050
H46	H	1.247125	-0.304183	0.000014
H47	H	1.320452	-0.432529	0.000050
H48	H	1.213631	0.122155	0.481689
H49	H	1.305235	-0.581544	0.000043
Br50	Br	0.963630	-0.396404	-0.000004
Br51	Br	0.899991	-0.215640	0.000000
Br52	Br	0.943867	-0.590003	0.000021
H53	H	1.022325	-0.323499	0.000025
Br54	Br	0.919757	-0.022033	0.000016
