data_functionalizedCrystal
_audit_creation_method	'MofGen! by Chris Wilmer'
_symmetry_space_group_name_H-M	'P1'
_symmetry_Int_Tables_number	1
_symmetry_cell_setting	triclinic
loop_
_symmetry_equiv_pos_as_xyz
  x,y,z
_cell_length_a	21.395364
_cell_length_b	21.395361
_cell_length_c	21.395355
_cell_angle_alpha	90.021511
_cell_angle_beta	90.025298
_cell_angle_gamma	90.047409
loop_
_atom_site_label
_atom_site_type_symbol
_atom_site_fract_x
_atom_site_fract_y
_atom_site_fract_z
Zn1	Zn	-0.957859	0.249232	-0.354261
Zn2	Zn	-0.957762	0.353992	-0.249478
Zn3	Zn	-0.853074	0.249263	-0.249496
Zn4	Zn	-0.853043	0.354006	-0.354217
O5	O	-0.905435	0.301623	-0.301863
O6	O	-1.045524	0.263110	-0.340372
O7	O	-0.943847	0.340106	-0.161802
O8	O	-0.867028	0.161581	-0.263420
O9	O	-1.045453	0.340076	-0.263388
O10	O	-0.944013	0.161558	-0.340390
O11	O	-0.866933	0.263162	-0.161816
O12	O	-0.765392	0.263176	-0.263377
O13	O	-0.866975	0.340101	-0.441901
O14	O	-0.765370	0.340131	-0.340315
O15	O	-0.943983	0.263124	-0.441933
O16	O	-0.943817	0.441672	-0.263346
O17	O	-0.866881	0.441682	-0.340297
C18	C	-0.742647	0.301659	-0.301843
C19	C	-0.673006	0.301689	-0.301850
C20	C	-0.640352	0.261679	-0.341997
C21	C	-0.574917	0.261664	-0.341998
C22	C	-0.542137	0.301671	-0.301859
C23	C	-0.574799	0.341683	-0.261705
C24	C	-0.640233	0.341692	-0.261700
C25	C	-0.438413	0.358099	-0.296818
C26	C	-0.372980	0.358090	-0.296827
C27	C	-0.340317	0.301642	-0.301871
C28	C	-0.373094	0.245200	-0.306919
C29	C	-0.438528	0.245210	-0.306914
C30	C	-0.471185	0.301665	-0.301860
C31	C	-0.236711	0.261613	-0.342021
C32	C	-0.171274	0.261597	-0.342019
C33	C	-0.171157	0.341622	-0.261728
C34	C	-0.236593	0.341632	-0.261728
C35	C	-0.269365	0.301629	-0.301878
C36	C	-0.905352	0.464411	-0.301828
C37	C	-0.905374	0.534052	-0.301834
C38	C	-0.905487	0.301610	-0.465286
C39	C	-0.905509	0.301605	-0.534928
C40	C	-0.068858	0.301596	-0.301880
C41	C	-0.138499	0.301604	-0.301879
C42	C	-0.905535	0.138200	-0.301912
C43	C	-0.905577	0.068558	-0.301932
C44	C	-0.945470	0.566739	-0.261807
C45	C	-0.945499	0.632174	-0.261821
C46	C	-0.905421	0.664920	-0.301856
C47	C	-0.865322	0.632226	-0.341891
C48	C	-0.865298	0.566791	-0.341880
C49	C	-0.849006	0.768652	-0.306765
C50	C	-0.849029	0.834085	-0.306771
C51	C	-0.905494	0.866741	-0.301892
C52	C	-0.961938	0.833956	-0.296994
C53	C	-0.961915	0.768522	-0.296983
C54	C	-0.905442	0.735873	-0.301872
C55	C	-0.945625	0.970380	-0.261878
C56	C	-0.945655	1.035817	-0.261896
C57	C	-0.865473	1.035867	-0.341963
C58	C	-0.865448	0.970432	-0.341948
C59	C	-0.905523	0.937692	-0.301902
C60	C	-0.945605	0.261521	-0.567659
C61	C	-0.945604	0.261494	-0.633094
C62	C	-0.905514	0.301562	-0.665796
C63	C	-0.865410	0.341649	-0.633057
C64	C	-0.865407	0.341670	-0.567623
C65	C	-0.900538	0.357979	-0.769459
C66	C	-0.900545	0.357959	-0.834892
C67	C	-0.905518	0.301496	-0.867617
C68	C	-0.910497	0.245052	-0.834901
C69	C	-0.910494	0.245073	-0.769467
C70	C	-0.905512	0.301543	-0.736748
C71	C	-0.945615	0.261380	-0.971300
C72	C	-0.945610	0.261352	-1.036737
C73	C	-0.865419	0.341512	-1.036699
C74	C	-0.865421	0.341534	-0.971263
C75	C	-0.905522	0.301469	-0.938568
C76	C	-0.905419	0.301591	-0.139075
C77	C	-0.905518	0.301419	-0.069435
H78	H	-0.263179	0.374215	-0.229039
H79	H	-0.144469	0.374196	-0.229047
Cl80	Cl	-0.681285	0.391993	-0.211224
H81	H	-0.667032	0.229104	-0.374689
Cl82	Cl	-0.815035	0.929337	-0.392268
Cl83	Cl	-0.814941	0.673391	-0.392223
Cl84	Cl	-0.814887	0.525697	-0.392204
Cl85	Cl	-0.996015	0.211150	-0.526559
H86	H	-0.144689	0.229013	-0.374710
Cl87	Cl	-1.032870	0.727309	-0.290832
H88	H	-0.978254	0.228850	-0.659749
H89	H	-1.007918	0.860543	-0.293022
Cl90	Cl	-0.894304	0.428970	-0.728325
Cl91	Cl	-0.331781	0.429046	-0.290491
H92	H	-0.803022	0.742070	-0.310740
Cl93	Cl	-0.996004	0.929219	-0.211535
H94	H	-0.914547	0.199115	-0.742833
H95	H	-0.914547	0.199075	-0.861545
H96	H	-0.978103	0.540084	-0.229201
Cl97	Cl	-0.996071	1.076910	-0.211576
H98	H	-0.548106	0.374256	-0.229023
Cl99	Cl	-0.479732	0.174258	-0.313256
H100	H	-0.832843	1.062528	-0.374563
H101	H	-0.978265	0.228753	-0.944679
H102	H	-0.832774	0.374179	-0.944614
Cl103	Cl	-0.996031	0.210966	-1.077885
H104	H	-0.832770	0.374130	-1.063324
Cl105	Cl	-0.894291	0.428916	-0.876013
H106	H	-0.832766	0.374270	-0.659687
H107	H	-0.832753	0.374310	-0.540974
H108	H	-0.548325	0.229080	-0.374689
H109	H	-0.346501	0.199235	-0.311026
H110	H	-0.263396	0.229036	-0.374710
Cl111	Cl	-0.479469	0.429068	-0.290467
H112	H	-0.803068	0.860773	-0.310753
H113	H	-0.978152	0.658793	-0.229226
