data_functionalizedCrystal
_audit_creation_method	'MofGen! by Chris Wilmer'
_symmetry_space_group_name_H-M	'P1'
_symmetry_Int_Tables_number	1
_symmetry_cell_setting	triclinic
loop_
_symmetry_equiv_pos_as_xyz
  x,y,z
_cell_length_a	18.050591
_cell_length_b	19.121063
_cell_length_c	18.050582
_cell_angle_alpha	92.414363
_cell_angle_beta	89.978183
_cell_angle_gamma	92.465257
loop_
_atom_site_label
_atom_site_type_symbol
_atom_site_fract_x
_atom_site_fract_y
_atom_site_fract_z
Zn1	Zn	1.122683	-0.279729	-0.432630
Zn2	Zn	1.117295	-0.397174	-0.313729
Zn3	Zn	0.998500	-0.279733	-0.308441
Zn4	Zn	0.993155	-0.397136	-0.437863
O5	O	1.057909	-0.338443	-0.373165
O6	O	1.225892	-0.295323	-0.416880
O7	O	1.101519	-0.381613	-0.209104
O8	O	1.019465	-0.181448	-0.320512
O9	O	1.221934	-0.381609	-0.329524
O10	O	1.110702	-0.181445	-0.411752
O11	O	1.014241	-0.295330	-0.205218
O12	O	0.893867	-0.295292	-0.325586
O13	O	1.010356	-0.381543	-0.541092
O14	O	0.889940	-0.381548	-0.420672
O15	O	1.105519	-0.295285	-0.537248
O16	O	1.096336	-0.495454	-0.334599
O17	O	1.005131	-0.495425	-0.425799
C18	C	0.864958	-0.338417	-0.373123
C19	C	0.782412	-0.338422	-0.373124
C20	C	1.049589	-0.520924	-0.381357
C21	C	1.046098	-0.598990	-0.384886
C22	C	0.585077	-0.291463	-0.321528
C23	C	0.532768	-0.355523	-0.306137
C24	C	0.631280	-0.338444	-0.373158
C25	C	0.536507	-0.274406	-0.388548
C26	C	0.485294	-0.338459	-0.373190
C27	C	0.580057	-0.402538	-0.357733
C28	C	0.583802	-0.321378	-0.440174
C29	C	0.531513	-0.385482	-0.424811
C30	C	0.715379	-0.338434	-0.373138
C31	C	0.401197	-0.338475	-0.373210
C32	C	1.091980	-0.635657	-0.339100
C33	C	1.088701	-0.709008	-0.342423
C34	C	1.039535	-0.745691	-0.391530
C35	C	0.993651	-0.709019	-0.437321
C36	C	0.996935	-0.635669	-0.434000
C37	C	1.027248	-0.967161	-0.403932
C38	C	1.023966	-1.040516	-0.407247
C39	C	1.119017	-1.040501	-0.312350
C40	C	1.122293	-0.967149	-0.309031
C41	C	1.076412	-0.930483	-0.354825
C42	C	1.036181	-0.820668	-0.394926
C43	C	1.079771	-0.855508	-0.351432
C44	C	1.251613	-0.338470	-0.373208
C45	C	1.334158	-0.338481	-0.373227
C46	C	1.057942	-0.338409	-0.566870
C47	C	1.057956	-0.338395	-0.649415
C48	C	1.066281	-0.155250	-0.364958
C49	C	1.069849	-0.077183	-0.361461
C50	C	1.006256	-0.385226	-0.900328
C51	C	0.991005	-0.321164	-0.848053
C52	C	1.058024	-0.338292	-0.946531
C53	C	1.073207	-0.402402	-0.851726
C54	C	1.057989	-0.338346	-0.800548
C55	C	1.042740	-0.274195	-0.895342
C56	C	1.124971	-0.355477	-0.899021
C57	C	1.109747	-0.291370	-0.846766
C58	C	1.058042	-0.338262	-1.030628
C59	C	1.057971	-0.338369	-0.716452
C60	C	1.057920	-0.338426	-0.180213
C61	C	1.058059	-0.338242	-0.097659
H62	H	0.608524	-0.251775	-0.277822
Br63	Br	0.495448	-0.379603	-0.211701
H64	H	0.996149	-0.850543	-0.434907
Br65	Br	1.189030	-0.917370	-0.242394
Br66	Br	0.492650	-0.451785	-0.497612
H67	H	1.086064	-0.456596	-0.832473
H68	H	0.517242	-0.220251	-0.401527
H69	H	0.599192	-0.456716	-0.344666
H70	H	0.606210	-0.306912	-0.496816
Br71	Br	0.933270	-0.451259	-0.939412
H72	H	0.953623	-0.738892	-0.477307
H73	H	1.132013	-0.605794	-0.299109
H74	H	1.156373	-1.070362	-0.275069
Br75	Br	1.150977	-0.758768	-0.280287
H76	H	0.934375	-0.306647	-0.825690
H77	H	0.983939	-1.070382	-0.447248
H78	H	0.959573	-0.605815	-0.471285
Br79	Br	0.964980	-0.917410	-0.466081
H80	H	1.119804	-0.825638	-0.311452
H81	H	1.029819	-0.219985	-0.914504
Br82	Br	1.182695	-0.225183	-0.807906
H83	H	1.181583	-0.370012	-0.921400
