data_functionalizedCrystal
_audit_creation_method	'MofGen! by Chris Wilmer'
_symmetry_space_group_name_H-M	'P1'
_symmetry_Int_Tables_number	1
_symmetry_cell_setting	triclinic
loop_
_symmetry_equiv_pos_as_xyz
  x,y,z
_cell_length_a	12.759401
_cell_length_b	12.759394
_cell_length_c	12.759393
_cell_angle_alpha	89.970474
_cell_angle_beta	89.980324
_cell_angle_gamma	90.014282
loop_
_atom_site_label
_atom_site_type_symbol
_atom_site_fract_x
_atom_site_fract_y
_atom_site_fract_z
Zn1	Zn	1.606273	-0.418204	-0.593992
Zn2	Zn	2.106273	0.081796	-0.093992
Zn3	Zn	1.606166	-0.593919	-0.418315
Zn4	Zn	2.106166	-0.093919	0.081685
Zn5	Zn	1.430571	-0.418256	-0.418331
Zn6	Zn	1.930571	0.081744	0.081669
Zn7	Zn	1.430566	-0.593843	-0.593956
Zn8	Zn	1.930566	-0.093843	-0.093956
O9	O	1.518394	-0.506055	-0.506148
O10	O	2.018394	-0.006055	-0.006148
O11	O	1.753279	-0.441523	-0.570696
O12	O	2.253279	0.058477	-0.070696
O13	O	1.582831	-0.570671	-0.271296
O14	O	2.082831	-0.070671	0.228704
O15	O	1.453925	-0.271228	-0.441654
O16	O	1.953925	0.228772	0.058346
O17	O	1.753201	-0.570620	-0.441627
O18	O	2.253201	-0.070620	0.058373
O19	O	1.583012	-0.271190	-0.570712
O20	O	2.083012	0.228810	-0.070712
O21	O	1.453822	-0.441612	-0.271308
O22	O	1.953822	0.058388	0.228692
O23	O	1.283549	-0.441538	-0.441620
O24	O	1.783549	0.058462	0.058380
O25	O	1.453916	-0.570490	-0.740982
O26	O	1.953916	-0.070490	-0.240982
O27	O	1.283545	-0.570541	-0.570651
O28	O	1.783545	-0.070541	-0.070651
O29	O	1.583007	-0.441448	-0.741008
O30	O	2.083007	0.058552	-0.241008
O31	O	1.582826	-0.740930	-0.441592
O32	O	2.082826	-0.240930	0.058408
O33	O	1.453813	-0.740874	-0.570635
O34	O	1.953813	-0.240874	-0.070635
C35	C	1.245427	-0.506037	-0.506134
C36	C	1.745427	-0.006037	-0.006134
C37	C	1.128650	-0.506055	-0.506152
C38	C	1.628650	-0.006055	-0.006152
C39	C	1.073829	-0.438955	-0.573462
C40	C	1.573829	0.061045	-0.073462
C41	C	0.964105	-0.438966	-0.573469
C42	C	1.464105	0.061034	-0.073469
C43	C	0.964032	-0.573185	-0.438853
C44	C	1.464032	-0.073185	0.061147
C45	C	1.073754	-0.573168	-0.438842
C46	C	1.573754	-0.073168	0.061158
C47	C	1.518336	-0.779023	-0.506131
C48	C	2.018336	-0.279023	-0.006131
C49	C	1.518407	-0.895800	-0.506159
C50	C	2.018407	-0.395800	-0.006159
C51	C	1.652724	-0.895601	-0.640647
C52	C	2.152724	-0.395601	-0.140647
C53	C	1.719916	-0.950363	-0.707899
C54	C	2.219916	-0.450363	-0.207899
C55	C	1.719979	-1.060084	-0.707922
C56	C	2.219979	-0.560084	-0.207922
C57	C	1.652840	-1.115047	-0.640687
C58	C	2.152840	-0.615047	-0.140687
C59	C	1.585648	-1.060285	-0.573435
C60	C	2.085648	-0.560285	-0.073435
C61	C	1.585595	-0.950561	-0.573418
C62	C	2.085595	-0.450561	-0.073418
C63	C	1.451326	-1.060484	-0.438954
C64	C	1.951326	-0.560484	0.061046
C65	C	1.451268	-0.950762	-0.438924
C66	C	1.951268	-0.450762	0.061076
C67	C	1.384187	-1.115446	-0.371720
C68	C	1.884187	-0.615446	0.128280
C69	C	1.316999	-1.060685	-0.304461
C70	C	1.816999	-0.560685	0.195539
C71	C	1.316940	-0.950956	-0.304440
C72	C	1.816940	-0.450956	0.195560
C73	C	1.384076	-0.896001	-0.371672
C74	C	1.884076	-0.396001	0.128328
C75	C	1.792427	-0.506074	-0.506164
C76	C	2.292427	-0.006074	-0.006164
C77	C	1.909204	-0.506082	-0.506171
C78	C	2.409204	-0.006082	-0.006171
C79	C	1.518473	-0.505955	-0.780182
C80	C	2.018473	-0.005955	-0.280182
C81	C	1.518506	-0.505912	-0.896959
C82	C	2.018506	-0.005912	-0.396959
C83	C	1.518481	-0.232022	-0.506189
C84	C	2.018481	0.267978	-0.006189
C85	C	1.518518	-0.115245	-0.506206
C86	C	2.018518	0.384755	-0.006206
C87	C	1.585729	-0.438709	-0.951836
C88	C	2.085729	0.061291	-0.451836
C89	C	1.585746	-0.438664	-1.061560
C90	C	2.085746	0.061336	-0.561560
C91	C	1.451316	-0.573033	-1.061520
C92	C	1.951316	-0.073033	-0.561520
C93	C	1.451294	-0.573072	-0.951798
C94	C	1.951294	-0.073072	-0.451798
C95	C	1.518376	-0.506080	-0.233181
C96	C	2.018376	-0.006080	0.266819
C97	C	1.518546	-0.505827	-0.116405
C98	C	2.018546	-0.005827	0.383595
H99	H	0.919475	-0.384325	-0.628278
H100	H	1.419475	0.115675	-0.128278
O101	O	1.378753	-0.645537	-0.892613
O102	O	1.878753	-0.145537	-0.392613
H103	H	1.396726	-0.727998	-0.913644
H104	H	1.896726	-0.227998	-0.413644
O105	O	1.133035	-0.366561	-0.646052
O106	O	1.633035	0.133439	-0.146052
H107	H	1.218543	-0.377826	-0.634745
H108	H	1.718543	0.122174	-0.134745
H109	H	1.396596	-0.627714	-1.106183
H110	H	1.896596	-0.127714	-0.606183
H111	H	1.774578	-0.905603	-0.762643
H112	H	2.274578	-0.405603	-0.262643
H113	H	1.262335	-1.105444	-0.249729
H114	H	1.762335	-0.605444	0.250271
H115	H	1.118390	-0.627810	-0.384024
H116	H	1.618390	-0.127810	0.115976
H117	H	1.640454	-0.384020	-0.907189
H118	H	2.140454	0.115980	-0.407189
H119	H	0.919323	-0.627827	-0.384053
H120	H	1.419323	-0.127827	0.115947
O121	O	1.652663	-0.777259	-0.640607
O122	O	2.152663	-0.277259	-0.140607
H123	H	1.631378	-0.748278	-0.719824
H124	H	2.131378	-0.248278	-0.219824
O125	O	1.792448	-1.119159	-0.780453
O126	O	2.292448	-0.619159	-0.280453
H127	H	1.839128	-1.062513	-0.827197
H128	H	2.339128	-0.562513	-0.327197
O129	O	1.652968	-1.233390	-0.640641
O130	O	2.152968	-0.733390	-0.140641
H131	H	1.710996	-1.262235	-0.698674
H132	H	2.210996	-0.762235	-0.198674
H133	H	1.384239	-1.204787	-0.371747
H134	H	1.884239	-0.704787	0.128253
H135	H	1.262221	-0.906375	-0.249679
H136	H	1.762221	-0.406375	0.250321
H137	H	1.384039	-0.806659	-0.371658
H138	H	1.884039	-0.306659	0.128342
H139	H	1.640484	-0.383939	-1.106236
H140	H	2.140484	0.116061	-0.606236
