data_functionalizedCrystal
_audit_creation_method	'MofGen! by Chris Wilmer'
_symmetry_space_group_name_H-M	'P1'
_symmetry_Int_Tables_number	1
_symmetry_cell_setting	triclinic
loop_
_symmetry_equiv_pos_as_xyz
  x,y,z
_cell_length_a	12.594516
_cell_length_b	12.594517
_cell_length_c	11.169409
_cell_angle_alpha	89.976516
_cell_angle_beta	89.968646
_cell_angle_gamma	90.015853
loop_
_atom_site_label
_atom_site_type_symbol
_atom_site_fract_x
_atom_site_fract_y
_atom_site_fract_z
Zn1	Zn	-0.423662	1.627290	-0.678668
Zn2	Zn	-0.601688	1.627174	-0.477988
Zn3	Zn	-0.423723	1.449287	-0.477990
Zn4	Zn	-0.601598	1.449276	-0.678621
O5	O	-0.512668	1.538256	-0.578317
O6	O	-0.447289	1.776220	-0.652067
O7	O	-0.578144	1.603533	-0.310039
O8	O	-0.274769	1.472952	-0.504631
O9	O	-0.578084	1.776135	-0.504628
O10	O	-0.274724	1.603730	-0.652068
O11	O	-0.447394	1.472840	-0.310040
O12	O	-0.447307	1.300340	-0.504584
O13	O	-0.577931	1.472933	-0.846577
O14	O	-0.577990	1.300331	-0.651987
O15	O	-0.447202	1.603720	-0.846612
O16	O	-0.750622	1.603522	-0.504582
O17	O	-0.750556	1.472821	-0.651986
C18	C	-0.512646	1.261716	-0.578281
C19	C	-0.512663	1.143410	-0.578295
C20	C	-0.441487	1.074130	-0.498275
C21	C	-0.538578	1.003319	-0.468759
C22	C	-0.415619	1.003423	-0.607832
C23	C	-0.609805	1.074156	-0.548721
C24	C	-0.486781	1.074267	-0.687845
C25	C	-0.583939	1.003487	-0.658370
C26	C	-0.789209	1.538187	-0.578305
C27	C	-0.907514	1.538254	-0.578340
C28	C	-0.976770	1.467159	-0.658456
C29	C	-1.047644	1.441222	-0.548941
C30	C	-1.047439	1.564288	-0.687874
C31	C	-0.976830	1.512266	-0.468767
C32	C	-0.976619	1.635377	-0.607773
C33	C	-1.047461	1.609477	-0.498183
C34	C	-0.235047	1.538356	-0.578355
C35	C	-0.116741	1.538398	-0.578371
C36	C	-0.512549	1.538338	-0.891359
C37	C	-0.512499	1.538373	-1.024759
C38	C	-0.512690	1.815877	-0.578353
C39	C	-0.512699	1.934183	-0.578368
C40	C	-0.512708	1.538236	-0.266492
C41	C	-0.512459	1.538408	-0.133093
H42	H	-0.691913	1.105097	-0.523667
Cl43	Cl	-0.676996	0.955892	-0.762897
H44	H	-1.078865	1.359154	-0.524072
H45	H	-0.464837	1.105455	-0.780429
H46	H	-1.078455	1.586250	-0.780493
H47	H	-1.078304	1.669661	-0.430366
Cl48	Cl	-0.928415	1.762057	-0.646251
H49	H	-0.560492	0.972157	-0.376146
Cl50	Cl	-0.348646	1.122027	-0.393676
H51	H	-0.333546	0.972297	-0.632742
H52	H	-0.945730	1.406929	-0.726110
H53	H	-0.945942	1.490209	-0.376123
