data_functionalizedCrystal
_audit_creation_method	'MofGen! by Chris Wilmer'
_symmetry_space_group_name_H-M	'P1'
_symmetry_Int_Tables_number	1
_symmetry_cell_setting	triclinic
loop_
_symmetry_equiv_pos_as_xyz
  x,y,z
_cell_length_a	27.731994
_cell_length_b	17.019311
_cell_length_c	15.500227
_cell_angle_alpha	83.285249
_cell_angle_beta	87.187648
_cell_angle_gamma	96.989552
loop_
_atom_site_label
_atom_site_type_symbol
_atom_site_fract_x
_atom_site_fract_y
_atom_site_fract_z
O1	O	-0.056904	1.053639	-0.150424
O2	O	-0.065290	0.822993	-0.133241
O3	O	0.009291	0.945502	-0.142381
O4	O	-0.131485	0.931130	-0.141284
O5	O	0.004783	0.938068	0.002062
O6	O	-0.069798	0.815559	0.011203
O7	O	-0.061412	1.046205	-0.005981
Cu8	Cu	-0.066017	0.930203	0.015800
Cu9	Cu	-0.060685	0.938995	-0.155021
O10	O	-0.135993	0.923696	0.003159
C11	C	-0.067314	0.789778	-0.058822
C12	C	-0.066624	0.701882	-0.052274
C13	C	-0.062860	0.204556	-0.011295
C14	C	-0.063508	0.287143	-0.017449
C15	C	-0.061371	0.332490	-0.099263
C16	C	-0.058591	0.295245	-0.174929
C17	C	-0.057946	0.212658	-0.168774
C18	C	-0.063199	0.582050	-0.121785
C19	C	-0.063842	0.664643	-0.127934
C20	C	-0.068760	0.656535	0.029547
C21	C	-0.068112	0.573948	0.035694
C22	C	-0.065335	0.536709	-0.039971
C23	C	-0.062032	0.416908	-0.105555
C24	C	-0.064677	0.452292	-0.033679
C25	C	-0.151747	0.927708	-0.069081
C26	C	-0.205405	0.928596	-0.069137
C27	C	-0.535673	0.938245	-0.148329
C28	C	-0.737337	0.941623	-0.148593
O29	O	-0.761320	0.945540	-0.215590
N30	N	-0.765009	0.937990	-0.069889
C31	C	-0.742263	0.933518	0.008887
O32	O	-0.770427	0.930513	0.075823
C33	C	-0.540601	0.930146	0.009150
C34	C	-0.512931	0.933771	-0.069559
C35	C	-0.508004	0.941871	-0.227031
C36	C	-0.457591	0.941022	-0.226964
C37	C	-0.434849	0.936548	-0.148194
C38	C	-0.462518	0.932922	-0.069492
C39	C	-0.517855	0.925679	0.087924
C40	C	-0.467435	0.924839	0.087983
C41	C	-0.439766	0.928464	0.009274
C42	C	-0.389363	0.927599	0.009345
N43	N	-0.361691	0.931232	-0.069359
C44	C	-0.384433	0.935706	-0.148129
C45	C	-0.848139	0.935287	0.008743
C46	C	-0.898554	0.936128	0.008678
C47	C	-0.893624	0.944235	-0.148802
C48	C	-0.843208	0.943388	-0.148736
C49	C	-0.820466	0.938920	-0.069961
C50	C	-0.278564	0.933923	-0.147982
C51	C	-0.228148	0.933070	-0.147907
C52	C	-0.233082	0.924968	0.009572
C53	C	-0.283494	0.925816	0.009499
C54	C	-0.306233	0.930297	-0.069285
O55	O	-0.365347	0.923692	0.076307
O56	O	-0.356259	0.938728	-0.215056
C57	C	-0.586086	0.939094	-0.148396
C58	C	-0.613756	0.935468	-0.069693
C59	C	-0.591013	0.930994	0.009077
C60	C	-0.664171	0.936310	-0.069759
C61	C	-0.686914	0.940784	-0.148528
C62	C	-0.659241	0.944417	-0.227233
C63	C	-0.608829	0.943568	-0.227166
C64	C	-0.618686	0.927361	0.087781
C65	C	-0.669098	0.928209	0.087707
C66	C	-0.691841	0.932684	0.008938
C67	C	0.025045	0.941490	-0.070142
C68	C	0.078703	0.940603	-0.070092
C69	C	-0.059388	1.079421	-0.080402
C70	C	-0.060078	1.167316	-0.086955
N71	N	-0.069766	0.924026	0.135946
N72	N	-0.056932	0.945179	-0.275168
C73	C	-0.038175	0.975955	0.177348
C74	C	-0.041015	0.971290	0.268269
C75	C	-0.075449	0.914699	0.317785
C76	C	-0.107041	0.862765	0.276377
C77	C	-0.104199	0.867426	0.185458
C78	C	-0.085682	0.897906	0.592505
C79	C	-0.088523	0.893250	0.683430
C80	C	-0.022496	1.001775	0.675315
C81	C	-0.019659	1.006435	0.584395
C82	C	-0.051249	0.954497	0.542995
C83	C	-0.078354	0.909931	0.410721
C84	C	-0.048342	0.959262	0.450061
H85	H	-0.060291	0.453839	-0.172169
C86	C	-0.197711	0.937085	-0.234499
N87	N	-0.174788	0.940120	-0.299719
H88	H	-0.820683	0.946338	-0.212827
H89	H	-0.010138	1.022040	0.137037
C90	C	-0.065212	0.154681	0.078708
N91	N	-0.066986	0.117117	0.146501
C92	C	-0.066566	0.328103	0.065784
N93	N	-0.068868	0.358954	0.128478
C94	C	-0.823130	0.930361	0.095409
N95	N	-0.804296	0.926645	0.160686
C96	C	-0.144914	0.800506	0.330849
N97	N	-0.173441	0.753612	0.371877
C98	C	-0.126403	0.830990	0.737897
N99	N	-0.154933	0.784099	0.778922
H100	H	-0.020304	1.005336	0.409742
C101	C	-0.918650	0.949163	-0.235451
N102	N	-0.937501	0.952882	-0.300711
H103	H	-0.055682	0.182339	-0.230384
C104	C	-0.116227	0.847677	0.465199
N105	N	-0.144751	0.800784	0.506235
H106	H	-0.921080	0.933161	0.072772
H107	H	-0.111405	0.855618	0.558804
H108	H	-0.015291	1.013574	0.301978
H109	H	-0.600174	0.923720	0.151926
H110	H	-0.129923	0.825139	0.151750
H111	H	-0.540374	0.922736	0.152017
C112	C	-0.684267	0.949344	-0.313880
N113	N	-0.703119	0.953060	-0.379140
H114	H	-0.069842	0.537034	0.102316
C115	C	0.018223	1.068685	0.529933
N116	N	0.046757	1.115573	0.488913
C117	C	-0.056239	0.345130	-0.264926
N118	N	-0.054465	0.382703	-0.332713
C119	C	-0.071836	0.697500	0.112773
N120	N	-0.074160	0.728354	0.175463
C121	C	-0.303570	0.938845	-0.234648
N122	N	-0.322405	0.942547	-0.299925
C123	C	-0.313932	0.921824	0.096082
N124	N	-0.336854	0.918826	0.161298
C125	C	-0.442423	0.919920	0.174644
N126	N	-0.423585	0.916211	0.239918
C127	C	-0.699529	0.924219	0.174300
N128	N	-0.722448	0.921221	0.239519
H129	H	-0.526515	0.945517	-0.291179
H130	H	-0.586304	0.946520	-0.291259
H131	H	-0.062106	0.701562	-0.194560
H132	H	-0.066419	0.415367	0.032934
C133	C	-0.208055	0.920043	0.096215
N134	N	-0.189203	0.916339	0.161475
H135	H	-0.435067	0.943980	-0.291057
H136	H	-0.060935	0.551741	-0.183397
C137	C	0.012255	1.058896	0.720864
N138	N	0.038432	1.101918	0.755171
