data_functionalizedCrystal
_audit_creation_method	'MofGen! by Chris Wilmer'
_symmetry_space_group_name_H-M	'P1'
_symmetry_Int_Tables_number	1
_symmetry_cell_setting	triclinic
loop_
_symmetry_equiv_pos_as_xyz
  x,y,z
_cell_length_a	17.917603
_cell_length_b	12.478028
_cell_length_c	17.917567
_cell_angle_alpha	120.114978
_cell_angle_beta	89.758519
_cell_angle_gamma	54.266557
loop_
_atom_site_label
_atom_site_type_symbol
_atom_site_fract_x
_atom_site_fract_y
_atom_site_fract_z
Zr1	Zr	0.681765	1.180058	0.136850
O2	O	0.546393	1.427539	0.272214
O3	O	0.734323	0.932573	0.084295
O4	O	0.726938	1.157479	0.247696
O5	O	0.547024	1.220444	-0.007502
O6	O	0.856775	1.139674	0.240936
O7	O	0.553779	1.202632	0.108813
O8	O	0.869986	0.737357	-0.051359
O9	O	0.533813	1.622761	0.284793
O10	O	0.840273	1.021080	0.070196
O11	O	0.738336	1.047661	-0.011563
O12	O	0.729641	1.312460	0.180821
O13	O	0.627705	1.339041	0.099063
Zr14	Zr	0.878067	1.180068	-0.059440
Zr15	Zr	0.888840	1.151660	0.126068
Zr16	Zr	0.670993	1.208466	-0.048658
Zr17	Zr	0.661701	1.491415	0.156913
Zr18	Zr	0.898131	0.868711	-0.079503
O19	O	0.825509	1.427553	-0.006885
O20	O	0.840826	1.387161	0.256883
O21	O	0.531076	1.467931	0.008446
O22	O	1.013439	0.932586	-0.194804
O23	O	1.028757	0.892194	0.068964
O24	O	0.719006	0.972965	-0.179473
O25	O	1.012808	1.139681	0.084911
O26	O	0.832895	1.202646	-0.170286
O27	O	0.703058	1.220452	-0.163526
O28	O	1.006054	1.157493	-0.031403
O29	O	0.698410	1.600189	0.276223
O30	O	0.861423	0.759937	-0.198813
O31	O	1.026020	0.737364	-0.207384
O32	O	1.034582	0.714784	-0.059930
O33	O	0.525250	1.645341	0.137340
O34	O	0.689847	1.622769	0.128769
O35	O	0.830191	1.047666	-0.103412
O36	O	0.932128	1.021085	-0.021653
O37	O	0.821496	1.312464	0.088972
O38	O	0.719560	1.339045	0.007213
C39	C	0.805013	0.790603	0.013609
C40	C	0.813531	0.658424	0.005092
C41	C	0.520898	1.215584	0.052192
C42	C	0.432989	1.227640	0.056769
C43	C	0.272057	1.249661	0.065129
C44	C	0.287768	1.110471	0.012284
C45	C	0.198220	1.122724	0.016935
C46	C	0.361611	1.237412	0.060479
C47	C	1.038935	1.144541	0.025218
C48	C	1.126843	1.132486	0.020641
C49	C	0.793391	1.144529	0.270747
C50	C	0.797964	1.132469	0.349500
C51	C	0.754819	1.569523	0.063801
C52	C	0.746302	1.701702	0.072318
C53	C	0.753485	1.249657	0.583691
C54	C	0.806331	1.110464	0.493712
C55	C	0.801675	1.122712	0.413466
C56	C	0.758141	1.237412	0.663946
C57	C	0.766438	1.215593	0.806662
C58	C	0.761855	1.227644	0.727906
C59	C	1.064032	0.755081	0.000122
C60	C	1.160458	0.610847	-0.012972
C61	C	0.791538	0.826137	-0.218433
C62	C	0.795483	0.706017	-0.305703
C63	C	1.050557	0.790615	-0.231920
C64	C	1.142410	0.658440	-0.323767
C65	C	0.509275	1.569510	0.309329
C66	C	0.417423	1.701685	0.401177
C67	C	0.495801	1.605044	0.077287
C68	C	0.399374	1.749279	0.090382
C69	C	0.768294	1.533989	0.295842
C70	C	0.764350	1.654108	0.383113
C71	C	1.157794	0.543109	0.028830
C72	C	1.248389	0.407601	0.016546
C73	C	1.341647	0.339825	-0.037548
C74	C	1.344308	0.407576	-0.079351
C75	C	1.253714	0.543089	-0.067061
C76	C	0.845282	0.649612	-0.394638
C77	C	0.848983	0.536766	-0.476643
C78	C	0.802890	0.480318	-0.469712
C79	C	0.753085	0.536736	-0.380768
C80	C	0.749378	0.649589	-0.298763
C81	C	1.238764	0.582493	-0.324223
C82	C	1.325076	0.458316	-0.410516
C83	C	1.315034	0.410080	-0.496352
C84	C	1.218670	0.486040	-0.495893
C85	C	1.132359	0.610223	-0.409601
C86	C	0.321068	1.777647	0.401634
C87	C	0.234753	1.901863	0.487929
C88	C	0.244795	1.950106	0.573765
C89	C	0.341159	1.874138	0.573306
C90	C	0.427472	1.749933	0.487013
C91	C	0.402038	1.817028	0.048588
C92	C	0.311442	1.952568	0.060895
C93	C	0.218184	2.020347	0.114992
C94	C	0.215523	1.952592	0.156791
C95	C	0.306118	1.817062	0.144489
C96	C	0.810453	1.710519	0.376151
C97	C	0.806766	1.823366	0.458141
C98	C	0.756970	1.879809	0.547093
C99	C	0.710865	1.823386	0.554053
C100	C	0.714559	1.710532	0.472062
H101	H	0.877614	0.520235	-0.058984
C102	C	1.249824	0.635541	-0.229812
H103	H	1.184627	0.720370	-0.178346
H104	H	1.281394	0.678299	-0.221987
H105	H	1.290272	0.540673	-0.230856
H106	H	1.246202	0.352455	0.050589
H107	H	0.805916	0.388426	-0.536493
H108	H	0.889543	0.490843	-0.549058
C109	C	0.865237	1.648445	0.278314
H110	H	0.892172	1.698202	0.285923
H111	H	0.818488	1.679499	0.251145
H112	H	0.918873	1.529329	0.237519
H113	H	0.844309	1.869294	0.452457
H114	H	0.156297	1.963697	0.488284
H115	H	0.715558	0.490760	-0.375138
C116	C	0.396786	0.937057	-0.053548
H117	H	0.443538	0.951466	-0.048070
H118	H	0.404669	0.882629	-0.117586
H119	H	0.409414	0.870103	-0.035581
H120	H	0.708830	0.695498	-0.226352
H121	H	1.403532	0.396480	-0.410873
H122	H	1.415407	0.229480	-0.047549
H123	H	1.420251	0.352373	-0.123394
C124	C	1.055223	0.617646	0.088341
H125	H	1.066625	0.557894	0.111482
H126	H	1.019933	0.607986	0.049713
H127	H	1.015837	0.733047	0.140564
H128	H	0.191360	1.378017	0.113861
C129	C	0.659735	0.888360	0.158879
H130	H	0.618704	0.897788	0.199915
H131	H	0.619506	0.950104	0.137766
H132	H	0.687593	0.932344	0.192372
C133	C	0.310007	1.724604	0.307223
H134	H	0.375206	1.639743	0.255755
H135	H	0.269571	1.819464	0.308265
H136	H	0.278426	1.681859	0.299400
C137	C	0.149849	2.086722	0.668683
H138	H	0.169622	2.104590	0.719744
H139	H	0.115107	2.051133	0.668000
H140	H	0.106246	2.188743	0.676866
C141	C	1.256658	0.617569	-0.113061
H142	H	1.325176	0.557774	-0.147044
H143	H	1.221258	0.732966	-0.064843
H144	H	1.225373	0.607877	-0.155696
H145	H	0.855068	0.982099	0.476944
C146	C	0.352193	1.927204	0.667729
H147	H	0.286984	2.012040	0.719180
H148	H	0.383768	1.969957	0.675572
H149	H	0.392622	1.832343	0.666694
C150	C	0.533458	1.666367	0.486521
H151	H	0.527068	1.712883	0.550003
H152	H	0.564926	1.686120	0.459063
H153	H	0.573761	1.548536	0.450207
C154	C	0.752905	2.003959	0.637276
H155	H	0.787488	2.029478	0.620382
H156	H	0.784551	1.954431	0.666726
H157	H	0.684160	2.104588	0.680348
C158	C	0.895973	0.711707	-0.402279
H159	H	0.926144	0.661958	-0.466994
H160	H	0.946720	0.680663	-0.379108
H161	H	0.846310	0.830824	-0.365463
H162	H	0.704748	1.378012	0.600457
H163	H	1.385322	0.308959	-0.566610
C164	C	0.118539	2.169422	0.128514
H165	H	0.133491	2.200044	0.095864
H166	H	0.078275	2.262617	0.194430
H167	H	0.082386	2.137552	0.103566
C168	C	0.656083	1.885500	0.651904
H169	H	0.660481	1.960805	0.699732
H170	H	0.687167	1.791946	0.651370
H171	H	0.586787	1.942110	0.664987
H172	H	0.677011	1.664616	0.477744
H173	H	0.477965	1.761854	0.004532
H174	H	0.313629	2.007712	0.026851
C175	C	0.112936	2.027151	0.216286
H176	H	0.059371	2.117555	0.217611
H177	H	0.106011	2.067476	0.279402
H178	H	0.110131	1.942412	0.188530
C179	C	1.207638	0.432952	-0.590318
H180	H	1.272847	0.348100	-0.641770
H181	H	1.167197	0.527788	-0.589297
H182	H	1.176077	0.390172	-0.598149
C183	C	1.026374	0.693746	-0.409107
H184	H	0.976399	0.774624	-0.345425
H185	H	1.023106	0.610268	-0.445230
H186	H	1.014225	0.747902	-0.436354
C187	C	0.303176	1.742533	0.190453
H188	H	0.234657	1.802308	0.224422
H189	H	0.334469	1.752172	0.233079
H190	H	0.338568	1.627139	0.142209
