data_functionalizedCrystal
_audit_creation_method	'MofGen! by Chris Wilmer'
_symmetry_space_group_name_H-M	'P1'
_symmetry_Int_Tables_number	1
_symmetry_cell_setting	triclinic
loop_
_symmetry_equiv_pos_as_xyz
  x,y,z
_cell_length_a	27.732048
_cell_length_b	11.792241
_cell_length_c	10.268362
_cell_angle_alpha	90.000374
_cell_angle_beta	89.989776
_cell_angle_gamma	96.581964
loop_
_atom_site_label
_atom_site_type_symbol
_atom_site_fract_x
_atom_site_fract_y
_atom_site_fract_z
O1	O	0.066248	-1.504790	-0.108189
O2	O	0.566248	-1.004790	0.391811
O3	O	0.073076	-1.174230	-0.108221
O4	O	0.573076	-0.674230	0.391779
O5	O	-0.000675	-1.349776	-0.108179
O6	O	0.499325	-0.849776	0.391821
O7	O	0.139999	-1.329243	-0.108231
O8	O	0.639999	-0.829243	0.391769
O9	O	-0.000678	-1.349761	0.108421
O10	O	0.499322	-0.849761	0.608421
O11	O	0.073073	-1.174215	0.108379
O12	O	0.573073	-0.674215	0.608379
O13	O	0.066245	-1.504775	0.108411
O14	O	0.566245	-1.004775	0.608411
Cu15	Cu	0.069659	-1.339493	0.128173
Cu16	Cu	0.569659	-0.839493	0.628173
Cu17	Cu	0.069662	-1.339511	-0.127983
Cu18	Cu	0.569662	-0.839511	0.372017
O19	O	0.139996	-1.329228	0.108370
O20	O	0.639996	-0.829228	0.608370
C21	C	0.072645	-1.131945	0.000075
C22	C	0.572645	-0.631945	0.500075
C23	C	0.071362	-1.005973	0.000064
C24	C	0.571362	-0.505973	0.500064
C25	C	-0.018686	-1.349338	0.000124
C26	C	0.481314	-0.849338	0.500124
C27	C	-0.072348	-1.348040	0.000135
C28	C	0.427652	-0.848040	0.500135
N29	N	0.069656	-1.339489	0.308339
N30	N	0.569656	-0.839489	0.808339
C31	C	-0.410609	-1.443606	0.000077
C32	C	0.089391	-0.943606	0.500077
C33	C	-0.612297	-1.438790	0.000059
C34	C	-0.112297	-0.938790	0.500059
O35	O	-0.643045	-1.526178	0.000010
O36	O	-0.143045	-1.026178	0.500010
N37	N	-0.632024	-1.334698	0.000050
N38	N	-0.132024	-0.834698	0.500050
C39	C	-0.601327	-1.231803	0.000037
C40	C	-0.101327	-0.731803	0.500037
O41	O	-0.622734	-1.143157	0.000016
O42	O	-0.122734	-0.643157	0.500016
C43	C	-0.399640	-1.236620	0.000046
C44	C	0.100360	-0.736620	0.500046
C45	C	-0.379915	-1.340718	0.000069
C46	C	0.120085	-0.840718	0.500069
C47	C	-0.390884	-1.547695	0.000098
C48	C	0.109116	-1.047695	0.500098
C49	C	-0.340465	-1.548898	0.000110
C50	C	0.159535	-1.048898	0.500110
C51	C	-0.309771	-1.446011	0.000101
C52	C	0.190229	-0.946011	0.500101
C53	C	-0.329496	-1.341921	0.000080
C54	C	0.170504	-0.841921	0.500080
C55	C	-0.368943	-1.133726	0.000024
C56	C	0.131057	-0.633726	0.500024
C57	C	-0.318519	-1.134940	0.000023
C58	C	0.181481	-0.634940	0.500023
C59	C	-0.298794	-1.239038	0.000045
C60	C	0.201206	-0.739038	0.500045
C61	C	-0.248384	-1.240237	0.000083
C62	C	0.251616	-0.740237	0.500083
N63	N	-0.228656	-1.344328	0.000092
N64	N	0.271344	-0.844328	0.500092
C65	C	-0.259350	-1.447215	0.000101
C66	C	0.240650	-0.947215	0.500101
C67	C	-0.707215	-1.229282	0.000035
C68	C	-0.207215	-0.729282	0.500035
C69	C	-0.757637	-1.228077	0.000035
C70	C	-0.257637	-0.728077	0.500035
C71	C	-0.768603	-1.435065	0.000054
C72	C	-0.268603	-0.935065	0.500054
C73	C	-0.718181	-1.436268	0.000063
C74	C	-0.218181	-0.936268	0.500063
C75	C	-0.687488	-1.333374	0.000044
C76	C	-0.187488	-0.833374	0.500044
C77	C	-0.153466	-1.449733	0.000127
C78	C	0.346534	-0.949733	0.500127
C79	C	-0.103042	-1.450927	0.000144
C80	C	0.396958	-0.950927	0.500144
C81	C	-0.092080	-1.243941	0.000118
C82	C	0.407920	-0.743941	0.500118
C83	C	-0.142500	-1.242746	0.000108
C84	C	0.357500	-0.742746	0.500108
C85	C	-0.173192	-1.345652	0.000108
C86	C	0.326808	-0.845652	0.500108
O87	O	-0.217607	-1.152896	0.000117
O88	O	0.282393	-0.652896	0.500117
O89	O	-0.237933	-1.535849	0.000093
O90	O	0.262067	-1.035849	0.500093
C91	C	-0.461028	-1.442403	0.000066
C92	C	0.038972	-0.942403	0.500066
C93	C	-0.480753	-1.338313	0.000045
C94	C	0.019247	-0.838313	0.500045
C95	C	-0.450060	-1.235426	0.000036
C96	C	0.049940	-0.735426	0.500036
C97	C	-0.531175	-1.337108	0.000045
C98	C	-0.031175	-0.837108	0.500045
C99	C	-0.561868	-1.439996	0.000054
C100	C	-0.061868	-0.939996	0.500054
C101	C	-0.542141	-1.544087	0.000063
C102	C	-0.042141	-1.044087	0.500063
C103	C	-0.491722	-1.545290	0.000074
C104	C	0.008278	-1.045290	0.500074
C105	C	-0.469787	-1.131334	0.000027
C106	C	0.030213	-0.631334	0.500027
C107	C	-0.520207	-1.130140	0.000017
C108	C	-0.020207	-0.630140	0.500017
C109	C	-0.550900	-1.233027	0.000026
C110	C	-0.050900	-0.733027	0.500026
C111	C	0.158007	-1.329667	0.000063
C112	C	0.658007	-0.829667	0.500063
C113	C	0.211669	-1.330965	0.000044
C114	C	0.711669	-0.830965	0.500044
C115	C	0.066676	-1.547059	0.000112
C116	C	0.566676	-1.047059	0.500112
C117	C	0.067959	-1.673032	0.000114
C118	C	0.567959	-1.173032	0.500114
C119	C	0.069001	-0.775336	0.000103
C120	C	0.569001	-0.275336	0.500103
C121	C	0.070313	-0.903679	0.000082
C122	C	0.570313	-0.403679	0.500082
N123	N	0.069661	-1.339525	-0.308148
N124	N	0.569661	-0.839525	0.191852
C125	C	0.069661	-1.339506	0.574009
C126	C	0.569661	-0.839506	1.074009
C127	C	0.069660	-1.339493	0.426171
C128	C	0.569660	-0.839493	0.926171
H129	H	-0.086985	-1.535700	0.000165
H130	H	0.413015	-1.035700	0.500165
N131	N	-0.573499	-1.649185	0.000043
N132	N	-0.073499	-1.149185	0.500043
N133	N	-0.571537	-1.718615	-0.091259
N134	N	-0.071537	-1.218615	0.408741
H135	H	-0.593686	-1.792836	-0.091281
H136	H	-0.093686	-1.292836	0.408719
H137	H	-0.158560	-1.157981	0.000126
H138	H	0.341440	-0.657981	0.500126
H139	H	-0.415870	-1.631483	0.000100
H140	H	0.084130	-1.131483	0.500100
N141	N	-0.060715	-1.138859	0.000120
N142	N	0.439285	-0.638859	0.500120
N143	N	-0.015698	-1.139961	0.000126
N144	N	0.484302	-0.639961	0.500126
H145	H	0.006455	-1.065747	0.000121
H146	H	0.506455	-0.565747	0.500121
N147	N	-0.698043	-1.542611	0.000092
N148	N	-0.198043	-1.042611	0.500092
N149	N	-0.725459	-1.634461	0.000110
N150	N	-0.225459	-1.134461	0.500110
H151	H	-0.711240	-1.709572	0.000130
H152	H	-0.211240	-1.209572	0.500130
N153	N	-0.184820	-1.554837	0.000124
N154	N	0.315180	-1.054837	0.500124
N155	N	-0.214172	-1.577280	-0.091177
N156	N	0.285828	-1.077280	0.408823
H157	H	-0.236316	-1.651508	-0.091172
H158	H	0.263684	-1.151508	0.408828
H159	H	-0.324410	-1.633666	0.000122
H160	H	0.175590	-1.133666	0.500122
N161	N	-0.799953	-1.540175	0.000068
N162	N	-0.299953	-1.040175	0.500068
N163	N	-0.798005	-1.609611	0.091368
N164	N	-0.298005	-1.109611	0.591368
H165	H	-0.820147	-1.683842	0.091371
H166	H	-0.320147	-1.183842	0.591371
N167	N	-0.777774	-1.121733	0.000043
N168	N	-0.277774	-0.621733	0.500043
N169	N	-0.750357	-1.029883	0.000036
N170	N	-0.250357	-0.529883	0.500036
H171	H	-0.764577	-0.954773	0.000037
H172	H	-0.264577	-0.454773	0.500037
H173	H	-0.384994	-1.048958	-0.000001
H174	H	0.115006	-0.548958	0.499999
H175	H	-0.444801	-1.047549	0.000017
H176	H	0.055199	-0.547549	0.500017
N177	N	-0.287174	-1.029821	-0.000012
N178	N	0.212826	-0.529821	0.499988
N179	N	-0.304797	-0.936893	-0.000039
N180	N	0.195203	-0.436893	0.499961
H181	H	-0.282661	-0.862653	-0.000065
H182	H	0.217339	-0.362653	0.499935
N183	N	-0.675873	-1.124160	0.000015
N184	N	-0.175873	-0.624160	0.500015
N185	N	-0.693500	-1.031237	0.000010
N186	N	-0.193500	-0.531237	0.500010
H187	H	-0.671367	-0.956992	0.000001
H188	H	-0.171367	-0.456992	0.500001
N189	N	-0.471585	-1.651635	0.000102
N190	N	0.028415	-1.151635	0.500102
N191	N	-0.499004	-1.743482	0.000111
N192	N	0.000996	-1.243482	0.500111
H193	H	-0.484786	-1.818595	0.000130
H194	H	0.015214	-1.318595	0.500130
H195	H	-0.536261	-1.045364	0.000010
H196	H	-0.036261	-0.545364	0.500010
