data_functionalizedCrystal
_audit_creation_method	'MofGen! by Chris Wilmer'
_symmetry_space_group_name_H-M	'P1'
_symmetry_Int_Tables_number	1
_symmetry_cell_setting	triclinic
loop_
_symmetry_equiv_pos_as_xyz
  x,y,z
_cell_length_a	15.995292
_cell_length_b	19.188930
_cell_length_c	15.072220
_cell_angle_alpha	89.993728
_cell_angle_beta	89.986330
_cell_angle_gamma	83.306699
loop_
_atom_site_label
_atom_site_type_symbol
_atom_site_fract_x
_atom_site_fract_y
_atom_site_fract_z
O1	O	1.110697	0.089798	-0.073817
O2	O	1.610697	0.589798	0.426183
O3	O	0.866875	0.100954	-0.073814
O4	O	1.366875	0.600954	0.426186
O5	O	0.995822	-0.006263	-0.073798
O6	O	1.495822	0.493737	0.426202
O7	O	0.981750	0.197015	-0.073833
O8	O	1.481750	0.697015	0.426167
O9	O	0.995790	-0.006257	0.073767
O10	O	1.495790	0.493743	0.573767
O11	O	0.866843	0.100960	0.073751
O12	O	1.366843	0.600960	0.573751
O13	O	1.110666	0.089804	0.073748
O14	O	1.610666	0.589804	0.573748
Zn15	Zn	0.988749	0.095383	0.097179
Zn16	Zn	1.488749	0.595383	0.597179
Zn17	Zn	0.988791	0.095375	-0.097245
Zn18	Zn	1.488791	0.595375	0.402755
O19	O	0.981718	0.197021	0.073732
O20	O	1.481718	0.697021	0.573732
C21	C	0.835665	0.100503	-0.000031
C22	C	1.335665	0.600503	0.499969
C23	C	0.742717	0.099142	-0.000030
C24	C	1.242717	0.599142	0.499970
C25	C	0.404997	0.094138	-0.000039
C26	C	0.904997	0.594138	0.499961
C27	C	0.428026	0.171524	-0.000382
C28	C	0.928026	0.671524	0.499618
C29	C	0.524696	0.172995	-0.000045
C30	C	1.024696	0.672995	0.499955
C31	C	0.572543	0.096621	-0.000035
C32	C	1.072543	0.596621	0.499965
C33	C	0.543565	0.057935	0.084236
C34	C	1.043565	0.557935	0.584236
C35	C	0.446778	0.057003	0.084303
C36	C	0.946778	0.557003	0.584303
C37	C	0.446965	0.055416	-0.083506
C38	C	0.946965	0.555416	0.416494
C39	C	0.543447	0.058284	-0.084617
C40	C	1.043447	0.558284	0.415383
C41	C	0.667234	0.098020	-0.000030
C42	C	1.167234	0.598020	0.499970
C43	C	0.310306	0.092736	-0.000038
C44	C	0.810306	0.592736	0.499962
C45	C	0.995351	-0.032272	-0.000013
C46	C	1.495351	0.467728	0.499987
C47	C	0.993983	-0.109780	-0.000006
C48	C	1.493983	0.390220	0.499994
C49	C	1.069645	-0.154524	-0.000002
C50	C	1.569645	0.345476	0.499998
C51	C	1.068360	-0.227351	-0.000016
C52	C	1.568360	0.272649	0.499984
C53	C	0.991408	-0.255430	-0.000016
C54	C	1.491408	0.244570	0.499984
C55	C	0.915736	-0.210676	-0.000025
C56	C	1.415736	0.289324	0.499975
C57	C	0.917023	-0.137851	-0.000019
C58	C	1.417023	0.362149	0.499981
N59	N	0.932577	-0.363573	0.050204
N60	N	1.432577	0.136427	0.550204
N61	N	0.931359	-0.432754	0.050200
N62	N	1.431359	0.067246	0.550200
C63	C	0.987524	-0.474848	-0.000034
C64	C	1.487524	0.025152	0.499966
N65	N	1.044967	-0.445148	-0.050254
N66	N	1.544967	0.054852	0.449746
N67	N	1.046187	-0.375961	-0.050247
N68	N	1.546187	0.124039	0.449753
C69	C	0.990003	-0.334396	-0.000022
C70	C	1.490003	0.165604	0.499978
C71	C	1.061798	-0.598560	-0.000047
C72	C	1.561798	-0.098560	0.499953
C73	C	1.060510	-0.671388	-0.000067
C74	C	1.560510	-0.171388	0.499933
C75	C	0.907884	-0.654711	-0.000066
C76	C	1.407884	-0.154711	0.499934
C77	C	0.909174	-0.581885	-0.000056
C78	C	1.409174	-0.081885	0.499944
C79	C	0.986134	-0.553814	-0.000042
C80	C	1.486134	-0.053814	0.499958
C81	C	1.141875	0.090255	-0.000037
C82	C	1.641875	0.590255	0.499963
C83	C	1.234823	0.091616	-0.000044
C84	C	1.734823	0.591616	0.499956
C85	C	0.982190	0.223030	-0.000055
C86	C	1.482190	0.723030	0.499945
C87	C	0.983558	0.300538	-0.000068
C88	C	1.483558	0.800538	0.499932
N89	N	0.988727	0.095388	0.229867
N90	N	1.488727	0.595388	0.729867
N91	N	0.988820	0.095365	-0.229934
N92	N	1.488820	0.595365	0.270066
C93	C	0.988789	0.095372	0.589069
C94	C	1.488789	0.595372	1.089069
C95	C	0.919562	0.152550	0.551453
C96	C	1.419562	0.652550	1.051453
C97	C	0.919719	0.152758	0.448628
C98	C	1.419719	0.652758	0.948628
C99	C	0.988757	0.095380	0.410865
C100	C	1.488757	0.595380	0.910865
C101	C	1.076067	0.111276	0.448152
C102	C	1.576067	0.611276	0.948152
C103	C	1.075678	0.111683	0.551010
C104	C	1.575678	0.611683	1.051010
C105	C	0.971488	0.022129	0.551182
C106	C	1.471488	0.522129	1.051182
C107	C	0.969481	0.022618	0.448319
C108	C	1.469481	0.522618	0.948319
C109	C	0.988745	0.095383	0.310152
C110	C	1.488745	0.595383	0.810152
C111	C	0.988808	0.095371	0.689782
C112	C	1.488808	0.595371	1.189782
H113	H	0.543624	0.203288	-0.060456
H114	H	1.043624	0.703288	0.439544
H115	H	0.909219	0.006840	0.577176
H116	H	1.409219	0.506840	1.077176
C117	C	0.570502	0.094239	0.168951
C118	C	1.070502	0.594239	0.668951
N119	N	0.590787	0.121589	0.232756
N120	N	1.090787	0.621589	0.732756
H121	H	0.905257	0.010554	0.423950
H122	H	1.405257	0.510554	0.923950
H123	H	0.930740	0.207111	0.424004
H124	H	1.430740	0.707111	0.924004
C125	C	1.096314	0.183849	0.583397
C126	C	1.596314	0.683849	1.083397
N127	N	1.111851	0.238209	0.607787
N128	N	1.611851	0.738209	1.107787
C129	C	0.588256	-0.017031	-0.091477
C130	C	1.088256	0.482969	0.408523
N131	N	0.622004	-0.073761	-0.096636
N132	N	1.122004	0.426239	0.403364
C133	C	1.039689	-0.035354	0.584050
C134	C	1.539689	0.464646	1.084050
N135	N	1.091060	-0.078645	0.608812
N136	N	1.591060	0.421355	1.108812
H137	H	0.399933	0.201349	-0.060816
H138	H	0.899933	0.701349	0.439184
C139	C	0.831088	-0.241564	-0.000018
C140	C	1.331088	0.258436	0.499982
N141	N	0.767330	-0.264829	-0.000014
N142	N	1.267330	0.235171	0.499986
C143	C	0.934240	0.225566	0.586346
C144	C	1.434240	0.725566	1.086346
N145	N	0.945299	0.280561	0.612627
N146	N	1.445299	0.780561	1.112627
H147	H	1.128787	0.071679	0.575891
H148	H	1.628787	0.571679	1.075891
H149	H	1.129975	-0.263789	-0.000017
H150	H	1.629975	0.236211	0.499983
C151	C	0.388664	0.211601	0.080793
C152	C	0.888664	0.711601	0.580793
N153	N	0.359017	0.241785	0.141936
N154	N	0.859017	0.741785	0.641936
C155	C	0.833785	-0.088630	-0.000021
C156	C	1.333785	0.411370	0.499979
N157	N	0.771088	-0.051555	-0.000020
N158	N	1.271088	0.448445	0.499980
C159	C	1.146455	-0.567680	-0.000045
C160	C	1.646455	-0.067680	0.499955
N161	N	1.210218	-0.544423	-0.000047
N162	N	1.710218	-0.044423	0.499953
C163	C	1.033215	-0.037555	0.413616
C164	C	1.533215	0.462445	0.913616
N165	N	1.081232	-0.082875	0.387486
N166	N	1.581232	0.417125	0.887486
H167	H	0.854444	0.143237	0.576218
H168	H	1.354444	0.643237	1.076218
C169	C	0.408698	0.088169	-0.169797
C170	C	0.908698	0.588169	0.330203
N171	N	0.379876	0.112847	-0.234787
N172	N	0.879876	0.612847	0.265213
H173	H	1.122126	-0.707819	-0.000069
H174	H	1.622126	-0.207819	0.499931
H175	H	0.561927	0.086451	-0.146959
H176	H	1.061927	0.586451	0.353041
C177	C	1.154303	-0.123651	0.000006
C178	C	1.654303	0.376349	0.500006
N179	N	1.218068	-0.100396	0.000009
N180	N	1.718068	0.399604	0.500009
H181	H	1.128800	0.070739	0.423689
H182	H	1.628800	0.570739	0.923689
C183	C	0.825939	-0.532664	-0.000055
C184	C	1.325939	-0.032664	0.499945
N185	N	0.763242	-0.495590	-0.000057
N186	N	1.263242	0.004410	0.499943
C187	C	0.832028	0.139979	0.414570
C188	C	1.332028	0.639979	0.914570
N189	N	0.765974	0.130358	0.388923
N190	N	1.265974	0.630358	0.888923
H191	H	0.542974	0.203480	0.060456
H192	H	1.042974	0.703480	0.560456
C193	C	0.823236	-0.685594	-0.000069
C194	C	1.323236	-0.185594	0.499931
N195	N	0.759476	-0.708858	-0.000074
N196	N	1.259476	-0.208858	0.499926
H197	H	0.433180	-0.001546	-0.084068
H198	H	0.933180	0.498454	0.415932
H199	H	0.419849	0.083800	0.147289
H200	H	0.919849	0.583800	0.647289
C201	C	0.586923	-0.017981	0.088503
C202	C	1.086923	0.482019	0.588503
N203	N	0.619591	-0.075158	0.091723
N204	N	1.119591	0.424842	0.591723
C205	C	0.427398	-0.019648	0.089489
C206	C	0.927398	0.480352	0.589489
N207	N	0.412805	-0.077381	0.093400
N208	N	0.912805	0.422619	0.593400
H209	H	1.091726	0.164083	0.422374
H210	H	1.591726	0.664083	0.922374
