data_functionalizedCrystal
_audit_creation_method	'MofGen! by Chris Wilmer'
_symmetry_space_group_name_H-M	'P1'
_symmetry_Int_Tables_number	1
_symmetry_cell_setting	triclinic
loop_
_symmetry_equiv_pos_as_xyz
  x,y,z
_cell_length_a	10.654541
_cell_length_b	14.971482
_cell_length_c	14.048226
_cell_angle_alpha	89.994098
_cell_angle_beta	90.003604
_cell_angle_gamma	95.951732
loop_
_atom_site_label
_atom_site_type_symbol
_atom_site_fract_x
_atom_site_fract_y
_atom_site_fract_z
O1	O	-0.163637	1.187839	-0.079142
O2	O	-0.183240	0.927544	-0.079146
O3	O	0.009365	1.063677	-0.079145
O4	O	-0.356243	1.051706	-0.079144
O5	O	0.009377	1.063661	0.079177
O6	O	-0.183229	0.927528	0.079175
O7	O	-0.163626	1.187822	0.079179
Zn8	Zn	-0.173425	1.057672	0.104314
Zn9	Zn	-0.173440	1.057694	-0.104281
O10	O	-0.356231	1.051689	0.079177
C11	C	-0.182359	0.894207	0.000014
C12	C	-0.179734	0.794895	0.000012
C13	C	-0.178492	0.748235	0.086314
C14	C	-0.176005	0.654923	0.086315
C15	C	-0.174771	0.608272	0.000013
C16	C	-0.176009	0.654939	-0.086295
C17	C	-0.178487	0.748250	-0.086295
C18	C	-0.170849	0.460449	-0.086289
C19	C	-0.168374	0.367132	-0.086290
C20	C	-0.168368	0.367122	0.086321
C21	C	-0.170845	0.460433	0.086321
C22	C	-0.172086	0.507093	0.000012
C23	C	-0.403025	1.052576	0.000017
C24	C	-0.542441	1.055204	0.000017
C25	C	-0.572161	0.892421	0.000026
C26	C	-0.652517	0.812268	0.000034
C27	C	-0.783508	0.814743	0.000034
C28	C	-0.834145	0.897380	0.000023
C29	C	-0.753789	0.977533	0.000015
C30	C	-0.622797	0.975049	0.000018
C31	C	-0.724070	1.140315	-0.000000
C32	C	-0.593078	1.137842	0.000006
C33	C	-0.774707	1.222953	-0.000011
C34	C	-0.694351	1.303108	-0.000012
C35	C	-0.563352	1.300629	-0.000011
C36	C	-0.512722	1.217995	-0.000002
C37	C	0.056160	1.062790	0.000014
C38	C	0.195575	1.060162	0.000008
C39	C	-0.164507	1.221160	0.000017
C40	C	-0.167132	1.320471	0.000012
N41	N	-0.173414	1.057664	0.246675
N42	N	-0.173442	1.057710	-0.246642
C43	C	-0.088164	1.117963	0.296493
C44	C	-0.088163	1.117969	0.396151
C45	C	-0.173420	1.057680	0.445988
C46	C	-0.258675	0.997374	0.396162
C47	C	-0.258668	0.997365	0.296507
C48	C	-0.258684	0.997400	0.603877
C49	C	-0.258692	0.997411	0.703539
C50	C	-0.088179	1.118004	0.703521
C51	C	-0.088172	1.117995	0.603865
C52	C	-0.173429	1.057690	0.554047
H53	H	-0.171858	0.498413	0.156596
O54	O	-0.430876	0.889756	0.000040
H55	H	-0.402743	0.853972	-0.064485
O56	O	-0.174537	0.604562	0.179371
H57	H	-0.258882	0.554555	0.183532
H58	H	-0.018756	1.167091	0.563288
O59	O	-0.748959	1.392232	-0.000031
H60	H	-0.807925	1.397258	0.064496
H61	H	-0.167358	0.329126	0.156597
O62	O	0.003790	1.183044	0.757245
H63	H	-0.010522	1.172916	0.834915
H64	H	-0.328086	0.948262	0.255945
O65	O	-0.597906	0.723138	0.000058
H66	H	-0.493319	0.734878	0.000070
O67	O	-0.167035	0.316810	-0.179369
H68	H	-0.168296	0.364932	-0.239385
H69	H	-0.328116	0.948316	0.744112
O70	O	-0.870189	0.728296	0.000050
H71	H	-0.812979	0.670417	0.000065
H72	H	-0.171860	0.498437	-0.156571
O73	O	-0.476682	1.387081	-0.000013
H74	H	-0.533905	1.444953	-0.000013
O75	O	-0.179824	0.798589	-0.179374
H76	H	-0.264884	0.773249	-0.220761
O77	O	-0.371439	1.215325	-0.000002
H78	H	-0.349733	1.144399	-0.000001
H79	H	-0.174995	0.616950	-0.156564
H80	H	-0.018743	1.167061	0.255923
O81	O	-0.975428	0.900056	0.000026
H82	H	-1.022797	0.830438	0.000038
H83	H	-0.881368	1.224962	-0.000018
O84	O	-0.350642	0.932364	0.550138
H85	H	-0.409940	0.890450	0.601533
O86	O	0.003762	1.183021	0.449888
H87	H	0.063028	1.224955	0.398491
H88	H	-0.179508	0.786210	0.156591
H89	H	-0.328088	0.948281	0.436746
