data_functionalizedCrystal
_audit_creation_method	'MofGen! by Chris Wilmer'
_symmetry_space_group_name_H-M	'P1'
_symmetry_Int_Tables_number	1
_symmetry_cell_setting	triclinic
loop_
_symmetry_equiv_pos_as_xyz
  x,y,z
_cell_length_a	18.215405
_cell_length_b	18.215407
_cell_length_c	18.215399
_cell_angle_alpha	89.979405
_cell_angle_beta	90.026474
_cell_angle_gamma	89.978057
loop_
_atom_site_label
_atom_site_type_symbol
_atom_site_fract_x
_atom_site_fract_y
_atom_site_fract_z
Zn1	Zn	-0.292993	-1.125087	0.416138
Zn2	Zn	0.207007	-0.625087	0.916138
Zn3	Zn	-0.416065	-1.125001	0.293075
Zn4	Zn	0.083935	-0.625001	0.793075
Zn5	Zn	-0.293016	-1.002019	0.293084
Zn6	Zn	0.206984	-0.502019	0.793084
Zn7	Zn	-0.416023	-1.001991	0.416099
Zn8	Zn	0.083977	-0.501991	0.916099
O9	O	-0.354524	-1.063525	0.354599
O10	O	0.145476	-0.563525	0.854599
O11	O	-0.309327	-1.228060	0.399827
O12	O	0.190673	-0.728060	0.899827
O13	O	-0.399769	-1.108663	0.190092
O14	O	0.100231	-0.608663	0.690092
O15	O	-0.190029	-1.018392	0.309428
O16	O	0.309971	-0.518392	0.809428
O17	O	-0.399747	-1.227997	0.309413
O18	O	0.100253	-0.727997	0.809413
O19	O	-0.190012	-1.108809	0.399835
O20	O	0.309988	-0.608809	0.899835
O21	O	-0.309366	-1.018309	0.190099
O22	O	0.190634	-0.518309	0.690099
O23	O	-0.309325	-0.899031	0.309389
O24	O	0.190675	-0.399031	0.809389
O25	O	-0.399675	-1.018344	0.519088
O26	O	0.100325	-0.518344	1.019088
O27	O	-0.399697	-0.899011	0.399767
O28	O	0.100303	-0.399011	0.899767
O29	O	-0.309286	-1.108782	0.519117
O30	O	0.190714	-0.608782	1.019117
O31	O	-0.519043	-1.108636	0.309374
O32	O	-0.019043	-0.608636	0.809374
O33	O	-0.519012	-1.018261	0.399759
O34	O	-0.019012	-0.518261	0.899759
C35	C	-0.354510	-0.872318	0.354575
C36	C	0.145490	-0.372318	0.854575
C37	C	-0.354521	-0.790519	0.354583
C38	C	0.145479	-0.290519	0.854583
C39	C	-0.401650	-0.602334	0.401581
C40	C	0.098350	-0.102334	0.901581
C41	C	-0.401652	-0.525475	0.401589
C42	C	0.098348	-0.025475	0.901589
C43	C	-0.307402	-0.525467	0.307620
C44	C	0.192598	-0.025467	0.807620
C45	C	-0.307397	-0.602324	0.307616
C46	C	0.192603	-0.102324	0.807616
C47	C	-0.354526	-0.640756	0.354595
C48	C	0.145474	-0.140756	0.854595
C49	C	-0.354532	-0.487040	0.354608
C50	C	0.145468	0.012960	0.854608
C51	C	-0.354533	-0.403706	0.354616
C52	C	0.145467	0.096294	0.854616
C53	C	-0.354524	-0.724095	0.354588
C54	C	0.145476	-0.224095	0.854588
C55	C	-0.545730	-1.063456	0.354577
C56	C	-0.045730	-0.563456	0.854577
C57	C	-0.627529	-1.063495	0.354593
C58	C	-0.127529	-0.563495	0.854593
C59	C	-0.892520	-1.110619	0.401740
C60	C	-0.392520	-0.610619	0.901740
C61	C	-0.815662	-1.110594	0.401728
C62	C	-0.315662	-0.610594	0.901728
C63	C	-0.815787	-1.016525	0.307501
C64	C	-0.315787	-0.516525	0.807501
C65	C	-0.892644	-1.016553	0.307509
C66	C	-0.392644	-0.516553	0.807509
C67	C	-0.931009	-1.063599	0.354633
C68	C	-0.431009	-0.563599	0.854633
C69	C	-0.777293	-1.063546	0.354613
C70	C	-0.277293	-0.563546	0.854613
C71	C	-0.693959	-1.063519	0.354601
C72	C	-0.193959	-0.563519	0.854601
C73	C	-1.014348	-1.063628	0.354644
C74	C	-0.514348	-0.563628	0.854644
C75	C	-0.162571	-1.063613	0.354637
C76	C	0.337429	-0.563613	0.854637
C77	C	-0.080772	-1.063651	0.354653
C78	C	0.419228	-0.563651	0.854653
C79	C	-0.354473	-1.063569	0.546552
C80	C	0.145527	-0.563569	1.046552
C81	C	-0.354452	-1.063588	0.628351
C82	C	0.145548	-0.563588	1.128351
C83	C	-0.354537	-0.255477	0.354620
C84	C	0.145463	0.244523	0.854620
C85	C	-0.354536	-0.337276	0.354620
C86	C	0.145464	0.162724	0.854620
C87	C	-0.354522	-1.063522	0.163393
C88	C	0.145478	-0.563522	0.663393
C89	C	-0.354336	-1.063646	0.081594
C90	C	0.145664	-0.563646	0.581594
C91	C	-0.307342	-1.110696	0.816561
C92	C	0.192658	-0.610696	1.316561
C93	C	-0.307321	-1.110705	0.893420
C94	C	0.192679	-0.610705	1.393420
C95	C	-0.401448	-1.016533	0.893379
C96	C	0.098552	-0.516533	1.393379
C97	C	-0.401465	-1.016521	0.816521
C98	C	0.098535	-0.516521	1.316521
C99	C	-0.354413	-1.063607	0.778115
C100	C	0.145587	-0.563607	1.278115
C101	C	-0.354375	-1.063627	0.931831
C102	C	0.145625	-0.563627	1.431831
C103	C	-0.354352	-1.063637	1.015164
C104	C	0.145648	-0.563637	1.515164
C105	C	-0.354435	-1.063597	0.694776
C106	C	0.145565	-0.563597	1.194776
H107	H	-0.440024	-0.633623	0.439837
H108	H	0.059976	-0.133623	0.939837
H109	H	-0.268990	-1.149049	0.924720
H110	H	0.231010	-0.649049	1.424720
O111	O	-0.256589	-1.161477	0.775140
O112	O	0.243411	-0.661477	1.275140
H113	H	-0.289537	-1.198906	0.740131
H114	H	0.210463	-0.698906	1.240131
H115	H	-0.439757	-0.978199	0.924658
H116	H	0.060243	-0.478199	1.424658
O117	O	-0.934165	-0.965836	0.256700
O118	O	-0.434165	-0.465836	0.756700
H119	H	-0.894577	-0.933109	0.223939
H120	H	-0.394577	-0.433109	0.723939
H121	H	-0.439795	-0.978170	0.785217
H122	H	0.060205	-0.478170	1.285217
O123	O	-0.774146	-1.161308	0.452535
O124	O	-0.274146	-0.661308	0.952535
H125	H	-0.739130	-1.198761	0.419624
H126	H	-0.239130	-0.698761	0.919624
O127	O	-0.256568	-0.643776	0.256938
O128	O	0.243432	-0.143776	0.756938
H129	H	-0.289462	-0.678772	0.219446
H130	H	0.210538	-0.178772	0.719446
H131	H	-0.440025	-0.494196	0.439851
H132	H	0.059975	0.005804	0.939851
O133	O	-0.256596	-0.484017	0.256926
O134	O	0.243404	0.015983	0.756926
H135	H	-0.264528	-0.424118	0.264809
H136	H	0.235472	0.075882	0.764809
O137	O	-0.774409	-0.965781	0.256678
O138	O	-0.274409	-0.465781	0.756678
H139	H	-0.739408	-0.928298	0.289574
H140	H	-0.239408	-0.428298	0.789574
O141	O	-0.933904	-1.161365	0.452556
O142	O	-0.433904	-0.661365	0.952556
H143	H	-0.894224	-1.194061	0.485305
H144	H	-0.394224	-0.694061	0.985305
