data_functionalizedCrystal
_audit_creation_method	'MofGen! by Chris Wilmer'
_symmetry_space_group_name_H-M	'P1'
_symmetry_Int_Tables_number	1
_symmetry_cell_setting	triclinic
loop_
_symmetry_equiv_pos_as_xyz
  x,y,z
_cell_length_a	16.625547
_cell_length_b	18.050590
_cell_length_c	16.625539
_cell_angle_alpha	90.028092
_cell_angle_beta	90.021309
_cell_angle_gamma	90.018489
loop_
_atom_site_label
_atom_site_type_symbol
_atom_site_fract_x
_atom_site_fract_y
_atom_site_fract_z
Zn1	Zn	1.232674	-0.295673	0.455992
Zn2	Zn	1.232595	-0.419867	0.321155
Zn3	Zn	1.097845	-0.295695	0.321162
Zn4	Zn	1.097816	-0.419826	0.455935
O5	O	1.165233	-0.357765	0.388561
O6	O	1.345496	-0.312156	0.438126
O7	O	1.214699	-0.403421	0.208323
O8	O	1.115775	-0.191767	0.339074
O9	O	1.345438	-0.403400	0.339062
O10	O	1.214834	-0.191751	0.438133
O11	O	1.115698	-0.312193	0.208329
O12	O	0.985008	-0.312153	0.339019
O13	O	1.115726	-0.403330	0.568775
O14	O	0.984987	-0.403351	0.438036
O15	O	1.214806	-0.312116	0.568817
O16	O	1.214671	-0.523786	0.339007
O17	O	1.115650	-0.523756	0.438029
C18	C	0.955742	-0.357751	0.388523
C19	C	0.866121	-0.357762	0.388526
C20	C	0.793338	-0.357764	0.388536
C21	C	0.702030	-0.357768	0.388556
C22	C	0.629253	-0.357774	0.388576
C23	C	0.537939	-0.357780	0.388596
C24	C	1.165171	-0.550717	0.388529
C25	C	1.165218	-0.633263	0.388542
C26	C	1.219178	-0.832703	0.334769
C27	C	1.238871	-0.882036	0.408360
C28	C	1.165264	-0.784393	0.388574
C29	C	1.145653	-0.882142	0.315016
C30	C	1.165309	-0.930378	0.388599
C31	C	1.184994	-0.832639	0.462204
C32	C	1.091742	-0.832741	0.368810
C33	C	1.111407	-0.882051	0.442452
C34	C	1.165239	-0.700295	0.388559
C35	C	1.165333	-1.014475	0.388622
C36	C	1.375541	-0.357780	0.388600
C37	C	1.465163	-0.357786	0.388616
C38	C	1.165272	-0.357716	0.598870
C39	C	1.165289	-0.357695	0.688491
C40	C	1.165317	-0.164059	0.388611
C41	C	1.165353	-0.081514	0.388632
C42	C	1.165240	-0.357760	0.179070
C43	C	1.165379	-0.357572	0.089449
C44	C	1.165302	-0.357679	0.761274
C45	C	1.165321	-0.357651	0.852582
C46	C	1.165340	-0.357625	0.925359
C47	C	1.165360	-0.357598	1.016673
H48	H	1.264787	-0.811034	0.289314
N49	N	1.316888	-0.909236	0.429317
N50	N	1.376301	-0.893439	0.386579
H51	H	1.431400	-0.912661	0.401364
N52	N	1.124803	-0.909404	0.236965
N53	N	1.058570	-0.892737	0.206329
H54	H	1.043849	-0.911988	0.151204
H55	H	1.065833	-0.903583	0.488017
H56	H	1.201538	-0.810987	0.524475
H57	H	1.029565	-0.811069	0.352056
