data_functionalizedCrystal
_audit_creation_method	'MofGen! by Chris Wilmer'
_symmetry_space_group_name_H-M	'P1'
_symmetry_Int_Tables_number	1
_symmetry_cell_setting	triclinic
loop_
_symmetry_equiv_pos_as_xyz
  x,y,z
_cell_length_a	13.897449
_cell_length_b	17.077402
_cell_length_c	13.897441
_cell_angle_alpha	90.032043
_cell_angle_beta	89.981404
_cell_angle_gamma	89.975837
loop_
_atom_site_label
_atom_site_type_symbol
_atom_site_fract_x
_atom_site_fract_y
_atom_site_fract_z
Zn1	Zn	1.474647	0.312464	-0.545365
Zn2	Zn	1.974647	0.812464	-0.045365
Zn3	Zn	1.474533	0.443744	-0.384060
Zn4	Zn	1.974533	0.943744	0.115940
Zn5	Zn	1.313343	0.312499	-0.384083
Zn6	Zn	1.813343	0.812499	0.115917
Zn7	Zn	1.313304	0.443695	-0.545312
Zn8	Zn	1.813304	0.943695	-0.045312
O9	O	1.393957	0.378100	-0.464705
O10	O	1.893957	0.878100	0.035295
O11	O	1.609614	0.329884	-0.523980
O12	O	2.109614	0.829884	-0.023980
O13	O	1.453119	0.426369	-0.249081
O14	O	1.953119	0.926369	0.250919
O15	O	1.334804	0.202647	-0.405510
O16	O	1.834804	0.702647	0.094490
O17	O	1.609530	0.426335	-0.405469
O18	O	2.109530	0.926335	0.094531
O19	O	1.453314	0.202622	-0.524003
O20	O	1.953314	0.702622	-0.024003
O21	O	1.334693	0.329944	-0.249098
O22	O	1.834693	0.829944	0.250902
O23	O	1.178356	0.329896	-0.405459
O24	O	1.678356	0.829896	0.094541
O25	O	1.334738	0.426251	-0.680301
O26	O	1.834738	0.926251	-0.180301
O27	O	1.178327	0.426285	-0.523913
O28	O	1.678327	0.926285	-0.023913
O29	O	1.453277	0.329837	-0.680340
O30	O	1.953277	0.829837	-0.180340
O31	O	1.453081	0.553584	-0.405418
O32	O	1.953081	1.053584	0.094582
O33	O	1.334627	0.553548	-0.523890
O34	O	1.834627	1.053548	-0.023890
C35	C	1.143342	0.378090	-0.464683
C36	C	1.643342	0.878090	0.035317
C37	C	1.036128	0.378104	-0.464696
C38	C	1.536128	0.878104	0.035304
C39	C	1.393864	0.582048	-0.464667
C40	C	1.893864	1.082048	0.035333
C41	C	1.393912	0.669298	-0.464682
C42	C	1.893912	1.169298	0.035318
C43	C	1.394016	0.378034	-0.716298
C44	C	1.894016	0.878034	-0.216298
C45	C	1.394041	0.378006	-0.823512
C46	C	1.894041	0.878006	-0.323512
C47	C	0.839833	0.378107	-0.464722
C48	C	1.339833	0.878107	0.035278
C49	C	0.949066	0.378103	-0.464705
C50	C	1.449066	0.878103	0.035295
C51	C	1.645550	0.378111	-0.464728
C52	C	2.145550	0.878111	0.035272
C53	C	1.752764	0.378116	-0.464737
C54	C	2.252764	0.878116	0.035263
C55	C	1.394076	0.173356	-0.464765
C56	C	1.894076	0.673356	0.035235
C57	C	1.394127	0.086106	-0.464790
C58	C	1.894127	0.586106	0.035210
C59	C	1.455654	0.710281	-0.403060
C60	C	1.955654	1.210281	0.096940
C61	C	1.455701	0.792261	-0.403085
C62	C	1.955701	1.292261	0.096915
C63	C	1.394001	0.833257	-0.464727
C64	C	1.894001	1.333257	0.035273
C65	C	1.332256	0.792269	-0.526356
C66	C	1.832256	1.292269	-0.026356
C67	C	1.332214	0.710290	-0.526336
C68	C	1.832214	1.210290	-0.026336
C69	C	1.332345	0.963139	-0.526393
C70	C	1.832345	1.463139	-0.026393
C71	C	1.332385	1.045123	-0.526412
C72	C	1.832385	1.545123	-0.026412
C73	C	1.455832	1.045110	-0.403142
C74	C	1.955832	1.545110	0.096858
C75	C	1.455791	0.963131	-0.403122
C76	C	1.955791	1.463131	0.096878
C77	C	1.394044	0.922148	-0.464749
C78	C	1.894044	1.422148	0.035251
C79	C	1.394061	0.377984	-0.910582
C80	C	1.894061	0.877984	-0.410582
C81	C	1.394088	0.377949	-1.019815
C82	C	1.894088	0.877949	-0.519815
C83	C	1.393953	0.378109	-0.214091
C84	C	1.893953	0.878109	0.285909
C85	C	1.394115	0.377916	-0.106877
C86	C	1.894115	0.877916	0.393123
H87	H	1.505977	0.825626	-0.352905
H88	H	2.005977	1.325626	0.147095
O89	O	1.265737	0.918936	-0.592854
O90	O	1.765737	1.418936	-0.092854
H91	H	1.282231	0.934615	-0.668579
H92	H	1.782231	1.434615	-0.168579
H93	H	1.281939	0.676922	-0.576516
H94	H	1.781939	1.176922	-0.076516
H95	H	1.282161	1.078500	-0.576625
H96	H	1.782161	1.578500	-0.076625
H97	H	1.506112	1.078483	-0.352966
H98	H	2.006112	1.578483	0.147034
O99	O	1.522340	0.918909	-0.336642
O100	O	2.022340	1.418909	0.163358
H101	H	1.565292	0.961178	-0.293800
H102	H	2.065292	1.461178	0.206200
O103	O	1.265698	0.836487	-0.592831
O104	O	1.765698	1.336487	-0.092831
H105	H	1.308853	0.873788	-0.641948
H106	H	1.808853	1.373788	-0.141948
H107	H	1.505894	0.676907	-0.352860
H108	H	2.005894	1.176907	0.147140
