data_functionalizedCrystal
_audit_creation_method	'MofGen! by Chris Wilmer'
_symmetry_space_group_name_H-M	'P1'
_symmetry_Int_Tables_number	1
_symmetry_cell_setting	triclinic
loop_
_symmetry_equiv_pos_as_xyz
  x,y,z
_cell_length_a	12.759401
_cell_length_b	12.759399
_cell_length_c	12.759393
_cell_angle_alpha	90.031980
_cell_angle_beta	90.020980
_cell_angle_gamma	90.015378
loop_
_atom_site_label
_atom_site_type_symbol
_atom_site_fract_x
_atom_site_fract_y
_atom_site_fract_z
Zn1	Zn	1.606252	-0.418197	0.594048
Zn2	Zn	1.606145	-0.593916	0.418367
Zn3	Zn	1.430554	-0.418252	0.418380
Zn4	Zn	1.430542	-0.593835	0.594001
O5	O	1.518373	-0.506050	0.506199
O6	O	1.753259	-0.441517	0.570758
O7	O	1.582813	-0.570671	0.271347
O8	O	1.453911	-0.271224	0.441708
O9	O	1.753181	-0.570617	0.441686
O10	O	1.582996	-0.271183	0.570770
O11	O	1.453807	-0.441611	0.271357
O12	O	1.283532	-0.441533	0.441662
O13	O	1.453890	-0.570480	0.741028
O14	O	1.283522	-0.570533	0.570690
O15	O	1.582983	-0.441439	0.741063
O16	O	1.582801	-0.740926	0.441640
O17	O	1.453786	-0.740867	0.570677
C18	C	1.245406	-0.506031	0.506173
C19	C	1.128629	-0.506048	0.506186
C20	C	1.073723	-0.573164	0.438892
C21	C	0.963999	-0.573182	0.438920
C22	C	0.964098	-0.438960	0.573539
C23	C	1.073820	-0.438948	0.573516
C24	C	0.814007	-0.697059	0.401197
C25	C	0.759096	-0.764165	0.333887
C26	C	0.794645	-0.780170	0.231337
C27	C	0.885103	-0.729054	0.196077
C28	C	0.940008	-0.661940	0.263382
C29	C	0.904461	-0.645955	0.365947
C30	C	1.223814	-0.315070	0.611227
C31	C	1.278721	-0.247950	0.678528
C32	C	1.243173	-0.231934	0.781079
C33	C	1.152712	-0.283031	0.816335
C34	C	1.097805	-0.350151	0.749035
C35	C	1.133360	-0.366169	0.646484
C36	C	1.518309	-0.779017	0.506175
C37	C	1.518378	-0.895794	0.506200
C38	C	1.585633	-0.950652	0.439086
C39	C	1.585700	-1.060376	0.439122
C40	C	1.451249	-1.060375	0.573387
C41	C	1.451187	-0.950653	0.573356
C42	C	1.709709	-1.210255	0.401736
C43	C	1.776955	-1.265116	0.334607
C44	C	1.793120	-1.229578	0.232097
C45	C	1.742023	-1.139180	0.196696
C46	C	1.674770	-1.084324	0.263820
C47	C	1.658625	-1.119861	0.366345
C48	C	1.327177	-0.800772	0.610730
C49	C	1.259917	-0.745914	0.677850
C50	C	1.243742	-0.781450	0.780362
C51	C	1.294820	-0.871852	0.815759
C52	C	1.362079	-0.926710	0.748639
C53	C	1.378256	-0.891166	0.646128
C54	C	1.792407	-0.506070	0.506226
C55	C	1.909183	-0.506078	0.506237
C56	C	1.518447	-0.505944	0.780232
C57	C	1.518478	-0.505899	0.897009
C58	C	1.518467	-0.232017	0.506246
C59	C	1.518506	-0.115240	0.506266
C60	C	1.518361	-0.506080	0.233231
C61	C	1.518533	-0.505829	0.116455
C62	C	1.585707	-0.438701	0.951891
C63	C	1.585732	-0.438663	1.061615
C64	C	1.451297	-0.573030	1.061566
C65	C	1.451267	-0.573062	0.951844
C66	C	1.663325	-0.361128	0.951920
C67	C	1.663350	-0.361090	1.061644
H68	H	1.118345	-0.627803	0.384070
H69	H	1.188970	-0.736775	0.835009
H70	H	1.755182	-1.110258	0.113218
F71	F	1.277605	-0.909676	0.924864
F72	F	1.114872	-0.265980	0.925481
F73	F	0.922920	-0.746076	0.086921
H74	H	1.396543	-1.105054	0.628061
H75	H	0.685444	-0.805782	0.362605
F76	F	1.344394	-0.762940	0.501625
F77	F	1.831333	-1.361322	0.372286
F78	F	1.374947	-0.193495	0.640972
H79	H	1.634237	-0.283782	1.095691
F80	F	1.261659	-0.332120	0.502081
H81	H	1.847874	-1.274254	0.177440
F82	F	1.764324	-0.399249	0.907431
H83	H	1.696565	-1.239192	0.485212
F84	F	1.036265	-0.607528	0.225857
F85	F	0.736200	-0.851588	0.159701
H86	H	0.919459	-0.384328	0.628354
H87	H	1.024138	-0.391746	0.777745
H88	H	1.640345	-0.905989	0.384405
H89	H	1.287882	-0.177267	0.835870
F90	F	1.205526	-0.649720	0.640162
H91	H	1.641557	-0.279764	0.922164
F92	F	0.776176	-0.680045	0.510350
H93	H	1.396520	-0.627777	0.907163
F94	F	1.379770	-0.644505	1.119934
F95	F	1.620386	-0.988126	0.226148
F96	F	1.416442	-1.022924	0.786315
F97	F	1.769707	-0.389562	1.100576
