data_functionalizedCrystal
_audit_creation_method	'MofGen! by Chris Wilmer'
_symmetry_space_group_name_H-M	'P1'
_symmetry_Int_Tables_number	1
_symmetry_cell_setting	triclinic
loop_
_symmetry_equiv_pos_as_xyz
  x,y,z
_cell_length_a	15.944545
_cell_length_b	15.944493
_cell_length_c	7.540329
_cell_angle_alpha	90.002283
_cell_angle_beta	89.999825
_cell_angle_gamma	83.485608
loop_
_atom_site_label
_atom_site_type_symbol
_atom_site_fract_x
_atom_site_fract_y
_atom_site_fract_z
O1	O	1.114503	0.108309	-0.147344
O2	O	0.869950	0.121671	-0.147370
O3	O	0.998930	-0.007289	-0.147371
O4	O	0.985523	0.237268	-0.147343
O5	O	0.998923	-0.007290	0.147594
O6	O	0.869942	0.121669	0.147595
O7	O	1.114496	0.108307	0.147621
Cu8	Cu	0.992218	0.114988	0.174541
Cu9	Cu	0.992227	0.114990	-0.174290
O10	O	0.985515	0.237266	0.147622
C11	C	0.838652	0.121116	0.000109
C12	C	0.745406	0.119456	0.000098
C13	C	0.474791	0.034560	0.000107
C14	C	0.525361	0.075489	0.145549
C15	C	0.409764	0.113535	0.000127
C16	C	0.525349	0.075512	-0.145263
C17	C	0.574677	0.116440	0.000110
C18	C	0.459105	0.154443	0.145690
C19	C	0.459090	0.154454	-0.145253
C20	C	0.509626	0.195442	0.000224
C21	C	0.314762	0.111859	0.000139
C22	C	0.669676	0.118122	0.000111
C23	C	0.998378	-0.038584	0.000104
C24	C	0.996735	-0.131833	0.000081
C25	C	1.072656	-0.367594	0.000123
C26	C	1.031719	-0.418161	-0.145314
C27	C	0.993691	-0.302554	0.000102
C28	C	1.031693	-0.418138	0.145499
C29	C	0.990757	-0.467463	0.000131
C30	C	0.952775	-0.351892	-0.145454
C31	C	0.952761	-0.351866	0.145489
C32	C	0.911766	-0.402400	0.000017
C33	C	0.995384	-0.207554	0.000085
C34	C	0.989058	-0.562460	0.000136
C35	C	1.145793	0.108862	0.000138
C36	C	1.239039	0.110522	0.000138
C37	C	0.986067	0.268562	0.000143
C38	C	0.987710	0.361811	0.000154
N39	N	0.992218	0.114986	0.419889
N40	N	0.992234	0.114985	-0.419638
H41	H	0.459152	-0.033454	0.000240
H42	H	0.919450	-0.323071	-0.268541
O43	O	0.424846	0.194122	0.292735
C44	C	0.459452	0.152660	0.445630
H45	H	0.523233	0.116455	0.411731
H46	H	0.414975	0.106743	0.495770
C47	C	0.392840	0.262771	0.632340
C48	C	0.471181	0.218309	0.590708
H49	H	0.400072	0.303266	0.721836
H50	H	0.369522	0.290704	0.529333
H51	H	0.355784	0.224498	0.674113
H52	H	0.508232	0.256581	0.548916
H53	H	0.494505	0.190385	0.693712
H54	H	0.843695	-0.417864	-0.000070
O55	O	0.912885	-0.317255	0.291983
C56	C	0.843695	-0.259548	0.239844
H57	H	0.822925	-0.275944	0.100629
H58	H	0.863014	-0.192865	0.240377
C59	C	0.795582	-0.244308	0.541216
C60	C	0.770068	-0.264449	0.370234
H61	H	0.750167	-0.247327	0.621649
H62	H	0.842199	-0.283183	0.576345
H63	H	0.811682	-0.188739	0.541635
H64	H	0.753979	-0.320020	0.369813
H65	H	0.723447	-0.225583	0.335108
O66	O	0.559861	0.035567	0.292101
C67	C	0.542462	-0.049181	0.291602
H68	H	0.529393	-0.069228	0.150072
H69	H	0.484799	-0.055638	0.377783
C70	C	0.635057	-0.081328	0.539654
C71	C	0.619012	-0.105953	0.365821
H72	H	0.682274	-0.116349	0.585443
H73	H	0.646777	-0.024232	0.539995
H74	H	0.586998	-0.086710	0.611450
H75	H	0.667066	-0.100561	0.294025
H76	H	0.607302	-0.163050	0.365470
H77	H	1.065070	-0.447107	-0.268264
O78	O	0.528057	0.276655	0.000639
C79	C	0.493987	0.317977	0.154159
H80	H	0.484756	0.269202	0.260841
H81	H	0.430545	0.355027	0.120852
C82	C	0.566274	0.438858	0.091708
C83	C	0.554944	0.378952	0.222742
H84	H	0.603872	0.476474	0.134011
H85	H	0.589225	0.411021	-0.011725
H86	H	0.513401	0.469724	0.063965
H87	H	0.607814	0.348080	0.250467
H88	H	0.532002	0.406786	0.326182
O89	O	1.153801	-0.348953	-0.000386
C90	C	1.195137	-0.382881	-0.154010
H91	H	1.146358	-0.392219	-0.260621
H92	H	1.232363	-0.446249	-0.120833
C93	C	1.315809	-0.310258	-0.091684
C94	C	1.255898	-0.321720	-0.222631
H95	H	1.353293	-0.272534	-0.134010
H96	H	1.287962	-0.287403	0.011819
H97	H	1.346822	-0.363070	-0.064048
H98	H	1.224880	-0.268911	-0.250248
H99	H	1.283742	-0.344565	-0.326141
O100	O	1.071604	-0.452708	0.292001
C101	C	1.139862	-0.511549	0.239802
H102	H	1.160430	-0.496044	0.099922
H103	H	1.119520	-0.577819	0.241959
C104	C	1.188858	-0.526296	0.540625
C105	C	1.214124	-0.507247	0.368827
H106	H	1.234665	-0.523646	0.620217
H107	H	1.142869	-0.486656	0.575795
H108	H	1.171906	-0.581519	0.542398
H109	H	1.231066	-0.452021	0.367052
H110	H	1.260118	-0.546878	0.333660
H111	H	0.554276	0.042146	-0.268216
H112	H	0.430139	0.187779	-0.268210
