data_functionalizedCrystal
_audit_creation_method	'MofGen! by Chris Wilmer'
_symmetry_space_group_name_H-M	'P1'
_symmetry_Int_Tables_number	1
_symmetry_cell_setting	triclinic
loop_
_symmetry_equiv_pos_as_xyz
  x,y,z
_cell_length_a	19.288864
_cell_length_b	17.766277
_cell_length_c	19.288857
_cell_angle_alpha	89.991474
_cell_angle_beta	96.865323
_cell_angle_gamma	90.023209
loop_
_atom_site_label
_atom_site_type_symbol
_atom_site_fract_x
_atom_site_fract_y
_atom_site_fract_z
O1	O	0.921351	0.062839	-0.086649
O2	O	1.421351	0.562839	0.413351
O3	O	0.719090	0.062788	-0.098338
O4	O	1.219090	0.562788	0.401662
O5	O	0.826067	0.062806	0.008637
O6	O	1.326067	0.562806	0.508637
O7	O	0.814373	0.062821	-0.193624
O8	O	1.314373	0.562821	0.306376
O9	O	0.826049	-0.062382	0.008643
O10	O	1.326049	0.437618	0.508643
O11	O	0.719071	-0.062400	-0.098332
O12	O	1.219071	0.437600	0.401668
O13	O	0.921332	-0.062349	-0.086644
O14	O	1.421332	0.437651	0.413356
Cu15	Cu	0.820200	-0.073806	-0.092488
Cu16	Cu	1.320200	0.426194	0.407512
Cu17	Cu	0.820222	0.074244	-0.092494
Cu18	Cu	1.320222	0.574244	0.407506
O19	O	0.814354	-0.062367	-0.193619
O20	O	1.314354	0.437633	0.306381
C21	C	0.693204	0.000187	-0.097959
C22	C	1.193204	0.500187	0.402041
C23	C	0.616100	0.000167	-0.096830
C24	C	1.116100	0.500167	0.403170
N25	N	0.820189	-0.177936	-0.092483
N26	N	1.320189	0.322064	0.407517
C27	C	0.571402	0.000184	-0.159598
C28	C	1.071402	0.500184	0.340402
C29	C	0.498955	0.000192	-0.158537
C30	C	0.998955	0.500192	0.341463
C31	C	0.471210	0.000199	-0.094705
C32	C	0.971210	0.500199	0.405295
C33	C	0.515917	0.000178	-0.031929
C34	C	1.015917	0.500178	0.468071
C35	C	0.588363	0.000162	-0.032991
C36	C	1.088363	0.500162	0.467009
C37	C	0.362955	0.044080	-0.044528
C38	C	0.862955	0.544080	0.455472
C39	C	0.290511	0.044100	-0.043468
C40	C	0.790511	0.544100	0.456532
C41	C	0.247764	0.000244	-0.091425
C42	C	0.747764	0.500244	0.408575
C43	C	0.277469	-0.043622	-0.140455
C44	C	0.777469	0.456378	0.359545
C45	C	0.349914	-0.043638	-0.141517
C46	C	0.849914	0.456362	0.358483
C47	C	0.392656	0.000216	-0.093546
C48	C	0.892656	0.500216	0.406454
C49	C	0.124510	0.000269	-0.153048
C50	C	0.624510	0.500269	0.346952
C51	C	0.052062	0.000272	-0.151984
C52	C	0.552062	0.500272	0.348016
C53	C	0.069026	0.000266	-0.025374
C54	C	0.569026	0.500266	0.474626
C55	C	0.141472	0.000255	-0.026439
C56	C	0.641472	0.500255	0.473561
C57	C	0.169210	0.000260	-0.090278
C58	C	0.669210	0.500260	0.409722
C59	C	0.867574	-0.217315	-0.045137
C60	C	1.367574	0.282685	0.454863
C61	C	0.867578	-0.296117	-0.045134
C62	C	1.367578	0.203883	0.454866
C63	C	0.820204	-0.335537	-0.092488
C64	C	1.320204	0.164463	0.407512
C65	C	0.772810	-0.296148	-0.139837
C66	C	1.272810	0.203852	0.360163
C67	C	0.772803	-0.217348	-0.139834
C68	C	1.272803	0.282652	0.360166
C69	C	0.810903	-0.460371	-0.155776
C70	C	1.310903	0.039629	0.344224
C71	C	0.810915	-0.539170	-0.155780
C72	C	1.310915	-0.039170	0.344220
C73	C	0.820222	-0.578583	-0.092496
C74	C	1.320222	-0.078583	0.407504
C75	C	0.829532	-0.539187	-0.029207
C76	C	1.329532	-0.039187	0.470793
C77	C	0.829525	-0.460387	-0.029204
C78	C	1.329525	0.039613	0.470796
C79	C	0.820206	-0.420982	-0.092496
C80	C	1.320206	0.079018	0.407504
C81	C	0.867614	-0.703408	-0.045144
C82	C	1.367614	-0.203408	0.454856
C83	C	0.867614	-0.782211	-0.045139
C84	C	1.367614	-0.282211	0.454861
C85	C	0.772849	-0.782241	-0.139849
C86	C	1.272849	-0.282241	0.360151
C87	C	0.772846	-0.703439	-0.139847
C88	C	1.272846	-0.203439	0.360153
C89	C	0.820233	-0.664027	-0.092495
C90	C	1.320233	-0.164027	0.407505
C91	C	0.947218	0.000253	-0.087022
C92	C	1.447218	0.500253	0.412978
C93	C	1.024321	0.000278	-0.088151
C94	C	1.524321	0.500278	0.411849
C95	C	0.825683	0.000211	0.034516
C96	C	1.325683	0.500211	0.534516
C97	C	0.824556	0.000209	0.111620
C98	C	1.324556	0.500209	0.611620
N99	N	0.820238	0.178375	-0.092493
N100	N	1.320238	0.678375	0.407507
C101	C	0.814739	0.000229	-0.219498
C102	C	1.314739	0.500229	0.280502
C103	C	0.815866	0.000237	-0.296602
C104	C	1.315866	0.500237	0.203398
C105	C	0.824040	0.068449	0.147828
C106	C	1.324040	0.568449	0.647828
C107	C	0.822971	0.068454	0.220274
C108	C	1.322971	0.568454	0.720274
C109	C	0.822432	0.000215	0.256511
C110	C	1.322432	0.500215	0.756511
C111	C	0.822944	-0.068034	0.220295
C112	C	1.322944	0.431966	0.720295
C113	C	0.824006	-0.068037	0.147849
C114	C	1.324006	0.431963	0.647849
C115	C	0.861426	-0.052050	0.376745
C116	C	1.361426	0.447950	0.876745
C117	C	0.860369	-0.052044	0.449190
C118	C	1.360369	0.447956	0.949190
C119	C	0.819155	0.000223	0.479957
C120	C	1.319155	0.500223	0.979957
C121	C	0.779007	0.052496	0.438272
C122	C	1.279007	0.552496	0.938272
C123	C	0.780069	0.052493	0.365827
C124	C	1.280069	0.552493	0.865827
C125	C	0.821281	0.000211	0.335066
C126	C	1.321281	0.500211	0.835066
C127	C	0.817479	0.068474	0.594719
C128	C	1.317479	0.568474	1.094719
C129	C	0.816406	0.068476	0.667166
C130	C	1.316406	0.568476	1.167166
C131	C	0.816386	-0.068014	0.667186
C132	C	1.316386	0.431986	1.167186
C133	C	0.817452	-0.068014	0.594740
C134	C	1.317452	0.431986	1.094740
C135	C	0.818002	0.000232	0.558511
C136	C	1.318002	0.500232	1.058511
H137	H	0.462555	0.000204	-0.209652
H138	H	0.962555	0.500204	0.290348
O139	O	0.003846	0.000283	-0.219688
O140	O	0.503846	0.500283	0.280312
H141	H	0.013704	0.051313	-0.250244
H142	H	0.513704	0.551313	0.249756
O143	O	0.800884	-0.581651	-0.224042
O144	O	1.300884	-0.081651	0.275958
H145	H	0.753625	-0.617588	-0.225760
H146	H	1.253625	-0.117588	0.274240
H147	H	0.824486	0.124020	0.118335
H148	H	1.324486	0.624020	0.618335
O149	O	0.736759	0.108862	0.320869
O150	O	1.236759	0.608862	0.820869
H151	H	0.771557	0.144173	0.292455
H152	H	1.271557	0.644173	0.792455
H153	H	0.374097	-0.079358	-0.181436
H154	H	0.874097	0.420642	0.318564
H155	H	0.147095	0.000262	-0.205029
H156	H	0.647095	0.500262	0.294971
H157	H	0.893062	-0.094605	0.483125
H158	H	1.393062	0.405395	0.983125
H159	H	0.734273	-0.814336	-0.178403
H160	H	1.234273	-0.314336	0.321597
H161	H	0.906157	-0.185228	-0.006579
H162	H	1.406157	0.314772	0.493421
O163	O	0.485995	0.000179	0.036920
O164	O	0.985995	0.500179	0.536920
H165	H	0.504000	0.051193	0.067075
H166	H	1.004000	0.551193	0.567075
O167	O	0.815843	0.142079	0.706227
O168	O	1.315843	0.642079	1.206227
H169	H	0.768020	0.145328	0.732881
H170	H	1.268020	0.645328	1.232881
O171	O	0.231376	-0.090934	-0.192183
O172	O	0.731376	0.409066	0.307817
H173	H	0.176011	-0.083564	-0.183204
H174	H	0.676011	0.416436	0.316796
H175	H	0.177867	0.000245	0.024674
H176	H	0.677867	0.500245	0.524674
H177	H	0.266331	0.079822	-0.003548
H178	H	0.766331	0.579822	0.496452
H179	H	0.894987	-0.094617	0.351701
H180	H	1.394987	0.405383	0.851701
H181	H	0.734236	-0.328248	-0.178393
H182	H	1.234236	0.171752	0.321607
H183	H	0.906198	-0.814274	-0.006581
H184	H	1.406198	-0.314274	0.493419
O185	O	0.839500	-0.417822	0.039015
O186	O	1.339500	0.082178	0.539015
H187	H	0.890775	-0.432853	0.068114
H188	H	1.390775	0.067147	0.568114
O189	O	0.039112	0.000273	0.043477
O190	O	0.539112	0.500273	0.543477
H191	H	-0.018773	0.000291	0.033672
H192	H	0.481227	0.500291	0.533672
H193	H	0.397755	0.079797	-0.005473
H194	H	0.897755	0.579797	0.494527
O195	O	0.734545	0.108872	0.471442
O196	O	1.234545	0.608872	0.971442
H197	H	0.740541	0.100088	0.528820
H198	H	1.240541	0.600088	1.028820
O199	O	0.839565	-0.581682	0.039057
O200	O	1.339565	-0.081682	0.539057
H201	H	0.837997	-0.643095	0.028426
H202	H	1.337997	-0.143095	0.528426
H203	H	0.624757	0.000149	0.018124
H204	H	1.124757	0.500149	0.518124
O205	O	0.800862	-0.417855	-0.224031
O206	O	1.300862	0.082145	0.275969
H207	H	0.843226	-0.432938	-0.255690
H208	H	1.343226	0.067062	0.244310
H209	H	0.817923	0.124044	0.565220
H210	H	1.317923	0.624044	1.065220
O211	O	0.721746	-0.660958	-0.190920
O212	O	1.221746	-0.160958	0.309080
H213	H	0.688807	-0.701605	-0.223854
H214	H	1.188807	-0.201605	0.276146
O215	O	0.918695	-0.338605	0.005926
O216	O	1.418695	0.161395	0.505926
H217	H	0.951648	-0.297961	0.038848
H218	H	1.451648	0.202039	0.538848
O219	O	0.918712	-0.660890	0.005933
O220	O	1.418712	-0.160890	0.505933
H221	H	0.951655	-0.701515	0.038866
H222	H	1.451655	-0.201515	0.538866
H223	H	0.734215	-0.185285	-0.178389
H224	H	1.234215	0.314715	0.321611
H225	H	0.822547	0.124025	0.249759
H226	H	1.322547	0.624025	0.749759
O227	O	0.815810	-0.141618	0.706259
O228	O	1.315810	0.358382	1.206259
H229	H	0.814990	-0.130153	0.762720
H230	H	1.314990	0.369847	1.262720
H231	H	0.817878	-0.123583	0.565260
H232	H	1.317878	0.376417	1.065260
H233	H	0.822503	-0.123594	0.249803
H234	H	1.322503	0.376406	0.749803
O235	O	0.824575	-0.141644	0.108795
O236	O	1.324575	0.358356	0.608795
H237	H	0.777039	-0.174385	0.116365
H238	H	1.277039	0.325615	0.616365
O239	O	0.601322	0.000168	-0.228449
O240	O	1.101322	0.500168	0.271551
H241	H	0.558064	0.000169	-0.271918
H242	H	1.058064	0.500169	0.228082
