data_functionalizedCrystal
_audit_creation_method	'MofGen! by Chris Wilmer'
_symmetry_space_group_name_H-M	'P1'
_symmetry_Int_Tables_number	1
_symmetry_cell_setting	triclinic
loop_
_symmetry_equiv_pos_as_xyz
  x,y,z
_cell_length_a	6.817900
_cell_length_b	17.982968
_cell_length_c	17.982865
_cell_angle_alpha	95.931086
_cell_angle_beta	77.549768
_cell_angle_gamma	77.548040
loop_
_atom_site_label
_atom_site_type_symbol
_atom_site_fract_x
_atom_site_fract_y
_atom_site_fract_z
V1	V	4.009934	-0.237878	-0.106128
O2	O	4.003034	-0.233013	0.004366
O3	O	3.956501	-0.236574	-0.209729
O4	O	3.956505	-0.341477	-0.104818
O5	O	4.003030	-0.127384	-0.101271
V6	V	4.494865	-0.224622	-0.092874
O7	O	4.268102	-0.266954	-0.135203
O8	O	4.686894	-0.195546	-0.063799
O9	O	4.325092	-0.225926	0.010726
O10	O	4.619162	-0.229487	-0.203368
O11	O	4.619166	-0.335116	-0.097731
O12	O	4.325088	-0.121023	-0.094184
C13	C	3.800440	-0.232905	-0.234974
C14	C	3.838005	-0.232530	-0.319670
C15	C	4.032248	-0.160348	-0.828451
C16	C	3.996952	-0.160711	-0.748872
C17	C	4.015589	-0.230699	-0.720179
C18	C	4.069507	-0.300329	-0.771071
C19	C	4.104788	-0.299965	-0.850649
C20	C	3.927220	-0.301797	-0.450142
C21	C	3.891939	-0.302156	-0.370558
C22	C	3.819383	-0.162543	-0.348365
C23	C	3.854664	-0.162179	-0.427943
C24	C	3.908568	-0.231808	-0.478827
C25	C	3.946837	-0.231414	-0.565117
C26	C	3.977336	-0.231094	-0.633892
C27	C	3.800444	-0.366718	-0.101149
C28	C	3.838010	-0.451412	-0.100764
C29	C	4.037393	-0.495095	-0.104400
C30	C	4.072679	-0.574675	-0.104037
C31	C	3.908581	-0.610571	-0.100043
C32	C	3.709180	-0.566882	-0.096404
C33	C	3.673894	-0.487303	-0.096761
C34	C	3.851477	-0.887814	-0.094961
C35	C	3.886780	-0.967399	-0.094606
C36	C	4.250261	-0.975186	-0.102237
C37	C	4.214976	-0.895607	-0.102595
C38	C	4.015577	-0.851925	-0.098951
C39	C	3.977318	-0.765635	-0.099343
C40	C	3.946840	-0.696860	-0.099657
C41	C	4.144495	-0.229593	0.035968
C42	C	4.086167	-0.229973	0.120663
C43	C	4.144491	-0.095778	-0.097855
C44	C	4.086163	-0.011083	-0.098237
H45	H	3.971115	-0.358494	-0.491563
C46	C	4.152641	-0.044828	-0.837694
C47	C	4.011758	-0.083412	-0.859983
H48	H	4.139973	0.002673	-0.857155
H49	H	4.289577	-0.075888	-0.857793
H50	H	4.123892	-0.035089	-0.783017
H51	H	4.040517	-0.093156	-0.914661
H52	H	3.874791	-0.052345	-0.839888
H53	H	4.412623	-1.010762	-0.105200
H54	H	3.689134	-0.852261	-0.092022
H55	H	4.235031	-0.610238	-0.106994
C56	C	3.553623	-0.974809	-0.022145
C57	C	3.706388	-1.006858	-0.090206
H58	H	3.442273	-0.999174	-0.019428
H59	H	3.504068	-0.921171	-0.021841
H60	H	3.610923	-0.982359	0.020993
H61	H	3.649092	-0.999303	-0.133344
H62	H	3.755946	-1.060509	-0.090517
H63	H	3.511528	-0.451734	-0.093781
H64	H	4.348607	-0.866386	-0.105851
H65	H	4.084667	-0.357314	-0.747703
H66	H	3.953055	-0.104016	-0.707443
H67	H	3.575568	-0.596114	-0.093147
H68	H	3.839494	-0.105188	-0.451299
C69	C	3.967157	-0.440132	-0.400484
C70	C	3.912406	-0.379092	-0.339017
H71	H	3.979778	-0.487625	-0.381010
H72	H	4.095670	-0.439535	-0.433553
H73	H	3.863130	-0.434637	-0.428569
H74	H	4.016442	-0.384584	-0.310936
H75	H	3.783877	-0.379690	-0.305936
C76	C	3.733047	-0.101095	-0.216520
C77	C	3.760099	-0.086002	-0.292429
H78	H	3.696442	-0.053842	-0.181991
H79	H	3.858426	-0.132272	-0.210530
H80	H	3.625899	-0.127395	-0.205556
H81	H	3.867258	-0.059707	-0.303395
H82	H	3.634705	-0.054812	-0.298422
H83	H	4.148687	-0.356661	-0.892080
H84	H	4.171029	-0.465876	-0.107658
