data_functionalizedCrystal
_audit_creation_method	'MofGen! by Chris Wilmer'
_symmetry_space_group_name_H-M	'P1'
_symmetry_Int_Tables_number	1
_symmetry_cell_setting	triclinic
loop_
_symmetry_equiv_pos_as_xyz
  x,y,z
_cell_length_a	14.044202
_cell_length_b	12.503572
_cell_length_c	14.044190
_cell_angle_alpha	86.160597
_cell_angle_beta	86.807761
_cell_angle_gamma	86.162225
loop_
_atom_site_label
_atom_site_type_symbol
_atom_site_fract_x
_atom_site_fract_y
_atom_site_fract_z
O1	O	-1.282214	0.089288	0.225155
O2	O	-0.948881	0.422621	0.558489
O3	O	-0.615548	0.755955	0.891822
O4	O	-1.005542	0.089301	0.216840
O5	O	-0.672209	0.422635	0.550173
O6	O	-0.338876	0.755968	0.883506
O7	O	-1.139721	0.089274	0.082662
O8	O	-0.806387	0.422607	0.415996
O9	O	-0.473054	0.755940	0.749329
O10	O	-1.148036	0.089316	0.359333
O11	O	-0.814703	0.422649	0.692666
O12	O	-0.481369	0.755982	1.025999
O13	O	-1.129631	-0.089366	0.092772
O14	O	-0.796298	0.243967	0.426105
O15	O	-0.462965	0.577300	0.759438
O16	O	-0.995453	-0.089339	0.226949
O17	O	-0.662120	0.243995	0.560282
O18	O	-0.328786	0.577328	0.893616
O19	O	-1.272125	-0.089352	0.235265
O20	O	-0.938791	0.243981	0.568598
O21	O	-0.605458	0.577315	0.901931
Cu22	Cu	-1.132868	-0.105656	0.232030
Cu23	Cu	-0.799534	0.227677	0.565363
Cu24	Cu	-0.466201	0.561010	0.898696
Cu25	Cu	-1.144800	0.105606	0.220075
Cu26	Cu	-0.811466	0.438939	0.553408
Cu27	Cu	-0.478133	0.772273	0.886741
O28	O	-1.137946	-0.089324	0.369442
O29	O	-0.804613	0.244009	0.702775
O30	O	-0.471280	0.577342	1.036109
C31	C	-0.964876	-0.000017	0.218257
C32	C	-0.631542	0.333316	0.551591
C33	C	-0.298209	0.666649	0.884924
C34	C	-0.858733	-0.000013	0.207409
C35	C	-0.525399	0.333320	0.540742
C36	C	-0.192066	0.666654	0.874076
C37	C	-0.613276	-0.000015	0.264508
C38	C	-0.279942	0.333319	0.597841
C39	C	0.053391	0.666652	0.931174
C40	C	-0.664399	-0.000025	0.187592
C41	C	-0.331065	0.333309	0.520926
C42	C	0.002268	0.666642	0.854259
C43	C	-0.772536	-0.000018	0.198621
C44	C	-0.439203	0.333315	0.531954
C45	C	-0.105869	0.666648	0.865288
C46	C	-0.505128	-0.000021	0.253480
C47	C	-0.171795	0.333312	0.586814
C48	C	0.161538	0.666645	0.920147
N49	N	-1.124482	-0.254247	0.240439
N50	N	-0.791149	0.079086	0.573772
N51	N	-0.457816	0.412420	0.907105
C52	C	-1.112148	-0.473360	0.252816
C53	C	-0.778814	-0.140026	0.586149
C54	C	-0.445481	0.193307	0.919483
C55	C	-1.165524	-0.526698	0.199284
C56	C	-0.832190	-0.193364	0.532618
C57	C	-0.498857	0.139969	0.865951
C58	C	-1.158661	-0.648620	0.206171
C59	C	-0.825327	-0.315286	0.539505
C60	C	-0.491994	0.018047	0.872838
C61	C	-1.119010	-0.351427	0.245930
C62	C	-0.785676	-0.018094	0.579263
C63	C	-0.452343	0.315240	0.912597
C64	C	-0.312792	-0.000031	0.233845
C65	C	0.020542	0.333303	0.567178
C66	C	0.353875	0.666636	0.900511
C67	C	-0.418936	-0.000026	0.244687
C68	C	-0.085602	0.333307	0.578020
C69	C	0.247731	0.666640	0.911353
C70	C	-1.131039	-0.000049	0.052095
C71	C	-0.797706	0.333284	0.385428
C72	C	-0.464373	0.666617	0.718762
C73	C	-1.120192	-0.000058	-0.054048
C74	C	-0.786858	0.333275	0.279285
C75	C	-0.453525	0.666609	0.612619
N76	N	-1.153192	0.254196	0.211659
N77	N	-0.819859	0.587530	0.544992
N78	N	-0.486525	0.920863	0.878326
C79	C	-1.177294	-0.000019	-0.299507
C80	C	-0.843961	0.333315	0.033827
C81	C	-0.510628	0.666648	0.367160
C82	C	-1.100378	-0.000022	-0.248384
C83	C	-0.767044	0.333311	0.084950
C84	C	-0.433711	0.666644	0.418283
C85	C	-1.111405	-0.000042	-0.140245
C86	C	-0.778071	0.333291	0.193088
C87	C	-0.444738	0.666624	0.526421
C88	C	-1.166269	0.000001	-0.407655
C89	C	-0.832935	0.333334	-0.074322
C90	C	-0.499602	0.666668	0.259012
C91	C	-1.146628	0.000001	0.400009
C92	C	-0.813295	0.333334	0.733342
C93	C	-0.479961	0.666668	1.066676
C94	C	-1.157476	0.000017	0.506152
C95	C	-0.824143	0.333350	0.839485
C96	C	-0.490810	0.666684	1.172818
H97	H	-0.650719	-0.000000	0.338634
H98	H	-0.317386	0.333333	0.671967
H99	H	0.015947	0.666666	1.005301
Br100	Br	-0.601991	-0.000046	0.064032
Br101	Br	-0.268658	0.333288	0.397365
Br102	Br	0.064675	0.666621	0.730698
H103	H	-1.026245	-0.000013	-0.285830
H104	H	-0.692912	0.333321	0.047503
H105	H	-0.359579	0.666654	0.380837
Br106	Br	-1.250717	-0.450198	0.114714
Br107	Br	-0.917384	-0.116865	0.448047
Br108	Br	-0.584050	0.216468	0.781380
Br109	Br	-1.027397	-0.549860	0.337821
Br110	Br	-0.694064	-0.216526	0.671155
Br111	Br	-0.360731	0.116807	1.004488
H112	H	-1.251420	-0.000033	-0.262062
H113	H	-0.918087	0.333300	0.071271
H114	H	-0.584754	0.666633	0.404605
