data_functionalizedCrystal
_audit_creation_method	'MofGen! by Chris Wilmer'
_symmetry_space_group_name_H-M	'P1'
_symmetry_Int_Tables_number	1
_symmetry_cell_setting	triclinic
loop_
_symmetry_equiv_pos_as_xyz
  x,y,z
_cell_length_a	12.594516
_cell_length_b	12.759401
_cell_length_c	12.759393
_cell_angle_alpha	89.981287
_cell_angle_beta	89.971057
_cell_angle_gamma	90.019697
loop_
_atom_site_label
_atom_site_type_symbol
_atom_site_fract_x
_atom_site_fract_y
_atom_site_fract_z
Zn1	Zn	-0.423647	1.606218	-0.594032
Zn2	Zn	-0.601663	1.606105	-0.418357
Zn3	Zn	-0.423704	1.430524	-0.418367
Zn4	Zn	-0.601589	1.430498	-0.593994
O5	O	-0.512651	1.518336	-0.506187
O6	O	-0.447269	1.753224	-0.570740
O7	O	-0.578111	1.582777	-0.271337
O8	O	-0.274750	1.453888	-0.441689
O9	O	-0.578056	1.753141	-0.441672
O10	O	-0.274709	1.582970	-0.570749
O11	O	-0.447365	1.453778	-0.271344
O12	O	-0.447293	1.283499	-0.441653
O13	O	-0.577929	1.453844	-0.741020
O14	O	-0.577984	1.283480	-0.570685
O15	O	-0.447197	1.582945	-0.741048
O16	O	-0.750599	1.582753	-0.441635
O17	O	-0.750544	1.453735	-0.570675
C18	C	-0.512638	1.245369	-0.506166
C19	C	-0.512658	1.128592	-0.506182
C20	C	-0.580812	1.073748	-0.573264
C21	C	-0.580816	0.964024	-0.573285
C22	C	-0.444508	0.963998	-0.439134
C23	C	-0.444500	1.073720	-0.439119
C24	C	-0.619008	0.814121	-0.697146
C25	C	-0.687179	0.759273	-0.764218
C26	C	-0.791053	0.794864	-0.780169
C27	C	-0.826776	0.885301	-0.729032
C28	C	-0.758610	0.940143	-0.661952
C29	C	-0.654722	0.904554	-0.646021
C30	C	-0.406319	1.223625	-0.315256
C31	C	-0.338158	1.278469	-0.248170
C32	C	-0.234283	1.242881	-0.232208
C33	C	-0.198563	1.152440	-0.283327
C34	C	-0.266724	1.097596	-0.350413
C35	C	-0.370598	1.133192	-0.366376
C36	C	-0.789192	1.518257	-0.506173
C37	C	-0.907497	1.518320	-0.506202
C38	C	-1.047523	1.448204	-0.576351
C39	C	-0.976608	1.543984	-0.602124
C40	C	-0.976840	1.422548	-0.480475
C41	C	-1.047368	1.614323	-0.532064
C42	C	-1.047606	1.492822	-0.410370
C43	C	-0.976723	1.588669	-0.436107
C44	C	-0.235030	1.518444	-0.506225
C45	C	-0.116724	1.518490	-0.506241
C46	C	-0.512548	1.518404	-0.780221
C47	C	-0.512505	1.518433	-0.896997
C48	C	-0.512665	1.792369	-0.506209
C49	C	-0.512670	1.909146	-0.506218
C50	C	-0.580546	1.451233	-0.951847
C51	C	-0.580506	1.451270	-1.061571
C52	C	-0.444376	1.585711	-1.061587
C53	C	-0.444421	1.585678	-0.951865
C54	C	-0.705969	1.413726	-1.211508
C55	C	-0.774000	1.346510	-1.266361
C56	C	-0.790349	1.243978	-1.230746
C57	C	-0.738652	1.208642	-1.140280
C58	C	-0.670612	1.275853	-1.085433
C59	C	-0.654283	1.378399	-1.121046
C60	C	-0.318957	1.623211	-0.801925
C61	C	-0.250912	1.690418	-0.747076
C62	C	-0.234552	1.792951	-0.782689
C63	C	-0.286231	1.828284	-0.873159
C64	C	-0.354276	1.761077	-0.928008
C65	C	-0.370638	1.658545	-0.892387
C66	C	-0.512676	1.518329	-0.233220
C67	C	-0.512420	1.518503	-0.116444
H68	H	-0.658083	0.685639	-0.805855
H69	H	-0.534423	0.785141	-0.684176
F70	F	-0.756043	1.099506	-1.102391
F71	F	-1.088157	1.370705	-0.653925
H72	H	-1.078813	1.471149	-0.329334
H73	H	-0.396352	1.789852	-1.001677
F74	F	-0.371975	0.905590	-0.367762
H75	H	-0.113987	1.123451	-0.270314
H76	H	-0.237630	1.023959	-0.392043
H77	H	-0.178791	1.287540	-0.177572
F78	F	-0.936339	1.316591	-0.452011
F79	F	-0.516919	1.261434	-0.332137
H80	H	-0.945834	1.648103	-0.376800
F81	F	-0.937339	0.923164	-0.746000
H82	H	-0.208824	1.661638	-0.673416
H83	H	-0.635977	1.396471	-0.907177
F84	F	-0.615594	1.238252	-0.989158
F85	F	-0.862753	1.172443	-1.289129
H86	H	-0.816092	1.375290	-1.340020
F87	F	-0.688587	1.522859	-1.249411
H88	H	-0.945425	1.565629	-0.683184
F89	F	-0.371918	1.657271	-1.119990
F90	F	-0.268822	1.937413	-0.911063
F91	F	-0.162123	1.864474	-0.724313
H92	H	-0.332277	1.539721	-0.772917
H93	H	-0.636308	1.118422	-0.627874
H94	H	-0.846558	0.750199	-0.834782
F95	F	-0.796624	1.036385	-0.607528
H96	H	-0.367250	1.352111	-0.206546
F97	F	-1.087691	1.720312	-0.560649
