data_functionalizedCrystal
_audit_creation_method	'MofGen! by Chris Wilmer'
_symmetry_space_group_name_H-M	'P1'
_symmetry_Int_Tables_number	1
_symmetry_cell_setting	triclinic
loop_
_symmetry_equiv_pos_as_xyz
  x,y,z
_cell_length_a	16.992694
_cell_length_b	16.992700
_cell_length_c	7.540329
_cell_angle_alpha	89.989176
_cell_angle_beta	90.002664
_cell_angle_gamma	90.667698
loop_
_atom_site_label
_atom_site_type_symbol
_atom_site_fract_x
_atom_site_fract_y
_atom_site_fract_z
O1	O	1.050847	0.166915	-0.147307
O2	O	1.384181	0.500249	0.186026
O3	O	1.717514	0.833582	0.519360
O4	O	0.822447	0.165084	-0.147359
O5	O	1.155781	0.498417	0.185975
O6	O	1.489114	0.831751	0.519308
O7	O	0.935733	0.051800	-0.147288
O8	O	1.269066	0.385133	0.186045
O9	O	1.602399	0.718466	0.519379
O10	O	0.937562	0.280200	-0.147378
O11	O	1.270895	0.613533	0.185956
O12	O	1.604229	0.946866	0.519289
O13	O	0.935726	0.051798	0.147677
O14	O	1.269059	0.385131	0.481010
O15	O	1.602392	0.718464	0.814344
O16	O	0.822440	0.165082	0.147606
O17	O	1.155773	0.498415	0.480940
O18	O	1.489107	0.831749	0.814273
O19	O	1.050840	0.166913	0.147658
O20	O	1.384173	0.500247	0.480991
O21	O	1.717507	0.833580	0.814325
Cu22	Cu	0.936639	0.165998	0.174565
Cu23	Cu	1.269973	0.499331	0.507898
Cu24	Cu	1.603306	0.832664	0.841231
Cu25	Cu	0.936648	0.166000	-0.174266
Cu26	Cu	1.269981	0.499333	0.159068
Cu27	Cu	1.603315	0.832667	0.492401
O28	O	0.937555	0.280198	0.147587
O29	O	1.270888	0.613531	0.480921
O30	O	1.604221	0.946864	0.814254
C31	C	0.793084	0.162727	0.000118
C32	C	1.126417	0.496061	0.333451
C33	C	1.459750	0.829394	0.666784
C34	C	0.705599	0.155699	0.000100
C35	C	1.038932	0.489032	0.333433
C36	C	1.372266	0.822365	0.666767
C37	C	0.933374	0.022439	0.000202
C38	C	1.266707	0.355772	0.333535
C39	C	1.600040	0.689105	0.666868
C40	C	0.926346	-0.065046	0.000223
C41	C	1.259679	0.268287	0.333557
C42	C	1.593012	0.601621	0.666890
C43	C	0.659608	0.223517	0.000075
C44	C	0.992941	0.556850	0.333408
C45	C	1.326274	0.890183	0.666742
C46	C	0.577407	0.216908	0.000102
C47	C	0.910740	0.550241	0.333435
C48	C	1.244074	0.883574	0.666769
C49	C	0.541199	0.142480	0.000142
C50	C	0.874533	0.475813	0.333475
C51	C	1.207866	0.809147	0.666808
C52	C	0.587197	0.074657	0.000172
C53	C	0.920530	0.407990	0.333505
C54	C	1.253864	0.741324	0.666839
C55	C	0.669396	0.081267	0.000158
C56	C	1.002729	0.414600	0.333491
C57	C	1.336063	0.747933	0.666824
C58	C	0.295885	0.115086	0.000200
C59	C	0.629218	0.448419	0.333533
C60	C	0.962552	0.781752	0.666866
C61	C	0.213680	0.108481	0.000209
C62	C	0.547013	0.441814	0.333542
C63	C	0.880347	0.775148	0.666875
C64	C	0.203896	0.250732	0.000142
C65	C	0.537229	0.584066	0.333475
C66	C	0.870562	0.917399	0.666809
C67	C	0.286097	0.257335	0.000117
C68	C	0.619430	0.590669	0.333450
C69	C	0.952763	0.924002	0.666784
C70	C	0.332087	0.189512	0.000157
C71	C	0.665420	0.522846	0.333490
C72	C	0.998754	0.856179	0.666823
N73	N	0.457177	0.135723	0.000164
N74	N	0.790510	0.469056	0.333497
N75	N	1.123844	0.802390	0.666830
N76	N	0.416108	0.196270	0.000147
N77	N	0.749441	0.529604	0.333481
N78	N	1.082774	0.862937	0.666814
C79	C	0.879124	-0.556965	0.000051
C80	C	1.212457	-0.223631	0.333384
C81	C	1.545791	0.109702	0.666718
C82	C	0.885734	-0.474764	0.000070
C83	C	1.219067	-0.141431	0.333403
C84	C	1.552400	0.191903	0.666736
C85	C	0.960162	-0.438557	0.000111
C86	C	1.293495	-0.105224	0.333444
C87	C	1.626828	0.228110	0.666777
C88	C	1.027984	-0.484555	0.000115
C89	C	1.361318	-0.151222	0.333448
C90	C	1.694651	0.182112	0.666782
C91	C	1.021374	-0.566754	0.000083
C92	C	1.354707	-0.233421	0.333417
C93	C	1.688041	0.099913	0.666750
C94	C	0.987558	-0.193243	0.000196
C95	C	1.320891	0.140090	0.333529
C96	C	1.654225	0.473424	0.666863
C97	C	0.994163	-0.111038	0.000233
C98	C	1.327497	0.222295	0.333566
C99	C	1.660830	0.555629	0.666899
C100	C	0.851912	-0.101253	0.000184
C101	C	1.185245	0.232081	0.333518
C102	C	1.518579	0.565414	0.666851
C103	C	0.845308	-0.183454	0.000163
C104	C	1.178642	0.149880	0.333497
C105	C	1.511975	0.483213	0.666830
C106	C	0.913131	-0.229445	0.000158
C107	C	1.246464	0.103889	0.333492
C108	C	1.579798	0.437222	0.666825
N109	N	0.966919	-0.354535	0.000136
N110	N	1.300253	-0.021201	0.333469
N111	N	1.633586	0.312132	0.666802
N112	N	0.906372	-0.313465	0.000121
N113	N	1.239706	0.019868	0.333454
N114	N	1.573039	0.353202	0.666787
C115	C	1.080204	0.169270	0.000177
C116	C	1.413537	0.502603	0.333511
C117	C	1.746871	0.835937	0.666844
C118	C	1.167688	0.176299	0.000184
C119	C	1.501022	0.509632	0.333517
C120	C	1.834355	0.842966	0.666850
C121	C	0.939914	0.309559	0.000094
C122	C	1.273247	0.642892	0.333427
C123	C	1.606580	0.976226	0.666760
C124	C	0.946942	0.397043	0.000060
C125	C	1.280275	0.730377	0.333394
C126	C	1.613608	1.063710	0.666727
N127	N	0.936639	0.165996	0.419913
N128	N	1.269972	0.499329	0.753247
N129	N	1.603306	0.832663	1.086580
N130	N	0.936654	0.165996	-0.419614
N131	N	1.269988	0.499329	-0.086281
N132	N	1.603321	0.832662	0.247053
H133	H	0.689081	0.284123	0.000041
H134	H	1.022415	0.617457	0.333375
H135	H	1.355748	0.950790	0.666708
H136	H	0.184203	0.047870	0.000239
H137	H	0.517536	0.381203	0.333573
H138	H	0.850869	0.714537	0.666906
H139	H	1.076598	-0.604200	0.000084
H140	H	1.409932	-0.270867	0.333417
H141	H	1.743265	0.062466	0.666750
H142	H	1.088585	-0.455069	0.000152
H143	H	1.421919	-0.121736	0.333485
H144	H	1.755252	0.211598	0.666818
H145	H	0.539964	0.272132	0.000079
H146	H	0.873297	0.605466	0.333413
H147	H	1.206630	0.938799	0.666746
F148	F	0.718343	0.009085	0.000191
F149	F	1.051677	0.342419	0.333524
F150	F	1.385010	0.675752	0.666858
H151	H	0.333321	0.059859	0.000234
H152	H	0.666654	0.393192	0.333567
H153	H	0.999988	0.726525	0.666900
F154	F	0.766092	-0.221982	0.000116
F155	F	1.099425	0.111352	0.333449
F156	F	1.432759	0.444685	0.666782
F157	F	0.324625	0.336551	0.000065
F158	F	0.657959	0.669885	0.333399
F159	F	0.991292	1.003218	0.666732
H160	H	0.818517	-0.586438	0.000038
H161	H	1.151850	-0.253105	0.333371
H162	H	1.485184	0.080229	0.666705
H163	H	0.166442	0.305950	0.000113
H164	H	0.499775	0.639283	0.333446
H165	H	0.833108	0.972616	0.666780
F166	F	0.548660	-0.004555	0.000226
F167	F	0.881993	0.328778	0.333559
F168	F	1.215326	0.662112	0.666892
F169	F	0.813552	-0.425819	0.000046
F170	F	1.146886	-0.092486	0.333379
F171	F	1.480219	0.240848	0.666712
H172	H	1.054774	-0.081561	0.000267
H173	H	1.388108	0.251772	0.333601
H174	H	1.721441	0.585105	0.666934
F175	F	0.779736	-0.052300	0.000182
F176	F	1.113069	0.281033	0.333515
F177	F	1.446402	0.614366	0.666848
F178	F	1.059742	-0.242180	0.000204
F179	F	1.393075	0.091154	0.333538
F180	F	1.726409	0.424487	0.666871
