data_functionalizedCrystal
_audit_creation_method	'MofGen! by Chris Wilmer'
_symmetry_space_group_name_H-M	'P1'
_symmetry_Int_Tables_number	1
_symmetry_cell_setting	triclinic
loop_
_symmetry_equiv_pos_as_xyz
  x,y,z
_cell_length_a	18.050591
_cell_length_b	18.050589
_cell_length_c	18.050583
_cell_angle_alpha	89.968090
_cell_angle_beta	89.979141
_cell_angle_gamma	90.024669
loop_
_atom_site_label
_atom_site_type_symbol
_atom_site_fract_x
_atom_site_fract_y
_atom_site_fract_z
Zn1	Zn	1.135301	-0.295677	-0.420031
Zn2	Zn	1.468634	0.037657	-0.086698
Zn3	Zn	1.801967	0.370990	0.246636
Zn4	Zn	1.135209	-0.419890	-0.295850
Zn5	Zn	1.468542	-0.086556	0.037483
Zn6	Zn	1.801876	0.246777	0.370816
Zn7	Zn	1.011117	-0.295710	-0.295845
Zn8	Zn	1.344451	0.037623	0.037489
Zn9	Zn	1.677784	0.370957	0.370822
Zn10	Zn	1.011068	-0.419822	-0.419988
Zn11	Zn	1.344401	-0.086488	-0.086655
Zn12	Zn	1.677734	0.246845	0.246678
O13	O	1.073174	-0.357774	-0.357929
O14	O	1.406507	-0.024441	-0.024595
O15	O	1.739840	0.308892	0.308738
O16	O	1.239213	-0.312168	-0.403578
O17	O	1.572546	0.021165	-0.070245
O18	O	1.905880	0.354499	0.263088
O19	O	1.118730	-0.403459	-0.191925
O20	O	1.452064	-0.070126	0.141408
O21	O	1.785397	0.263207	0.474742
O22	O	1.027650	-0.191781	-0.312334
O23	O	1.360983	0.141552	0.021000
O24	O	1.694316	0.474886	0.354333
O25	O	1.239146	-0.403427	-0.312343
O26	O	1.572479	-0.070093	0.020990
O27	O	1.905812	0.263240	0.354323
O28	O	1.118887	-0.191756	-0.403573
O29	O	1.452220	0.141577	-0.070239
O30	O	1.785553	0.474910	0.263094
O31	O	1.027561	-0.312225	-0.191921
O32	O	1.360894	0.021108	0.141413
O33	O	1.694227	0.354441	0.474746
O34	O	0.907186	-0.312159	-0.312292
O35	O	1.240520	0.021174	0.021041
O36	O	1.573853	0.354507	0.354374
O37	O	1.027565	-0.403311	-0.523919
O38	O	1.360899	-0.069978	-0.190585
O39	O	1.694232	0.263356	0.142748
O40	O	0.907150	-0.403344	-0.403500
O41	O	1.240483	-0.070010	-0.070167
O42	O	1.573816	0.263323	0.263166
O43	O	1.118838	-0.312102	-0.523950
O44	O	1.452172	0.021231	-0.190617
O45	O	1.785505	0.354565	0.142717
O46	O	1.118682	-0.523805	-0.312302
O47	O	1.452016	-0.190472	0.021031
O48	O	1.785349	0.142862	0.354364
O49	O	1.027476	-0.523755	-0.403506
O50	O	1.360810	-0.190422	-0.070173
O51	O	1.694143	0.142912	0.263161
C52	C	0.880222	-0.357748	-0.357891
C53	C	1.213555	-0.024415	-0.024558
C54	C	1.546888	0.308918	0.308775
C55	C	0.797676	-0.357755	-0.357893
C56	C	1.131009	-0.024422	-0.024560
C57	C	1.464342	0.308912	0.308774
C58	C	0.548848	-0.308118	-0.308412
C59	C	0.882182	0.025216	0.024922
C60	C	1.215515	0.358549	0.358255
C61	C	0.598282	-0.290020	-0.376186
C62	C	0.931615	0.043313	-0.042853
C63	C	1.264948	0.376646	0.290480
C64	C	0.500555	-0.357793	-0.357954
C65	C	0.833889	-0.024460	-0.024621
C66	C	1.167222	0.308874	0.308713
C67	C	0.598204	-0.375836	-0.290153
C68	C	0.931537	-0.042503	0.043180
C69	C	1.264870	0.290830	0.376514
C70	C	0.646540	-0.357772	-0.357920
C71	C	0.979874	-0.024439	-0.024587
C72	C	1.313207	0.308894	0.308746
C73	C	0.548901	-0.339661	-0.425765
C74	C	0.882235	-0.006327	-0.092431
C75	C	1.215568	0.327006	0.240902
C76	C	0.548819	-0.425508	-0.339686
C77	C	0.882152	-0.092175	-0.006352
C78	C	1.215486	0.241158	0.326981
C79	C	0.598230	-0.407437	-0.407507
C80	C	0.931563	-0.074103	-0.074174
C81	C	1.264897	0.259230	0.259159
C82	C	0.416457	-0.357803	-0.357972
C83	C	0.749790	-0.024469	-0.024639
C84	C	1.083124	0.308864	0.308694
C85	C	0.730637	-0.357763	-0.357910
C86	C	1.063970	-0.024429	-0.024577
C87	C	1.397304	0.308904	0.308757
C88	C	1.073084	-0.550727	-0.357916
C89	C	1.406417	-0.217393	-0.024583
C90	C	1.739751	0.115940	0.308750
C91	C	1.073114	-0.633272	-0.357936
C92	C	1.406447	-0.299939	-0.024602
C93	C	1.739780	0.033394	0.308731
C94	C	1.023565	-0.832723	-0.407515
C95	C	1.356898	-0.499389	-0.074182
C96	C	1.690231	-0.166056	0.259152
C97	C	1.005465	-0.882172	-0.339746
C98	C	1.338799	-0.548839	-0.006413
C99	C	1.672132	-0.215505	0.326920
C100	C	1.073187	-0.784403	-0.357945
C101	C	1.406520	-0.451069	-0.024612
C102	C	1.739853	-0.117736	0.308721
C103	C	1.091322	-0.882035	-0.425722
C104	C	1.424656	-0.548702	-0.092389
C105	C	1.757989	-0.215369	0.240945
C106	C	1.073256	-0.930388	-0.357961
C107	C	1.406589	-0.597054	-0.024627
C108	C	1.739922	-0.263721	0.308706
C109	C	1.055052	-0.832765	-0.290141
C110	C	1.388385	-0.499431	0.043193
C111	C	1.721718	-0.166098	0.376526
C112	C	1.140940	-0.832624	-0.376162
C113	C	1.474273	-0.499290	-0.042829
C114	C	1.807607	-0.165957	0.290504
C115	C	1.122867	-0.882050	-0.308347
C116	C	1.456200	-0.548717	0.024986
C117	C	1.789533	-0.215384	0.358320
C118	C	1.073145	-0.700304	-0.357938
C119	C	1.406478	-0.366971	-0.024604
C120	C	1.739812	-0.033638	0.308729
C121	C	1.073297	-1.014484	-0.357961
C122	C	1.406631	-0.681151	-0.024628
C123	C	1.739964	-0.347818	0.308706
C124	C	1.266879	-0.357801	-0.357966
C125	C	1.600213	-0.024468	-0.024633
C126	C	1.933546	0.308865	0.308700
C127	C	1.349425	-0.357813	-0.357982
C128	C	1.682758	-0.024479	-0.024649
C129	C	2.016092	0.308854	0.308684
C130	C	1.073207	-0.357695	-0.551634
C131	C	1.406540	-0.024362	-0.218301
C132	C	1.739873	0.308972	0.115032
C133	C	1.073221	-0.357661	-0.634180
C134	C	1.406554	-0.024328	-0.300847
C135	C	1.739887	0.309005	0.032487
C136	C	1.073284	-0.164069	-0.357957
C137	C	1.406617	0.169265	-0.024624
C138	C	1.739951	0.502598	0.308709
C139	C	1.073331	-0.081523	-0.357969
C140	C	1.406664	0.251810	-0.024636
C141	C	1.739998	0.585144	0.308697
C142	C	1.122905	-0.308038	-0.833648
C143	C	1.456238	0.025295	-0.500315
C144	C	1.789571	0.358629	-0.166981
C145	C	1.055171	-0.289858	-0.883036
C146	C	1.388504	0.043476	-0.549702
C147	C	1.721838	0.376809	-0.216369
C148	C	1.073250	-0.357649	-0.785311
C149	C	1.406584	-0.024315	-0.451977
C150	C	1.739917	0.309018	-0.118644
C151	C	1.141011	-0.375782	-0.883005
C152	C	1.474345	-0.042449	-0.549671
C153	C	1.807678	0.290885	-0.216338
C154	C	1.073285	-0.357635	-0.931296
C155	C	1.406618	-0.024302	-0.597962
C156	C	1.739952	0.309032	-0.264629
C157	C	1.005481	-0.339433	-0.833611
C158	C	1.338814	-0.006100	-0.500278
C159	C	1.672147	0.327233	-0.166944
C160	C	1.091367	-0.425389	-0.833576
C161	C	1.424700	-0.092056	-0.500242
C162	C	1.758033	0.241278	-0.166909
C163	C	1.023586	-0.407234	-0.882941
C164	C	1.356920	-0.073901	-0.549608
C165	C	1.690253	0.259432	-0.216274
C166	C	1.073231	-0.357655	-0.701212
C167	C	1.406565	-0.024321	-0.367879
C168	C	1.739898	0.309012	-0.034546
C169	C	1.073296	-0.357629	-1.015392
C170	C	1.406630	-0.024296	-0.682059
C171	C	1.739963	0.309038	-0.348726
C172	C	1.073184	-0.357800	-0.164976
C173	C	1.406517	-0.024466	0.168357
C174	C	1.739850	0.308867	0.501690
C175	C	1.073314	-0.357624	-0.082431
C176	C	1.406647	-0.024291	0.250902
C177	C	1.739980	0.309042	0.584236
H178	H	0.619775	-0.449437	-0.449438
H179	H	0.953108	-0.116104	-0.116104
H180	H	1.286442	0.217230	0.217229
H181	H	0.981562	-0.449183	-0.904449
H182	H	1.314895	-0.115849	-0.571115
H183	H	1.648228	0.217484	-0.237782
H184	H	1.106634	-0.903678	-0.483034
H185	H	1.439967	-0.570345	-0.149701
H186	H	1.773301	-0.237012	0.183633
H187	H	1.039674	-0.811211	-0.232813
H188	H	1.373007	-0.477878	0.100520
H189	H	1.706341	-0.144544	0.433853
Br190	Br	0.634306	-0.401287	-0.194611
Br191	Br	0.967639	-0.067954	0.138722
Br192	Br	1.300973	0.265379	0.472056
Br193	Br	0.512707	-0.238067	-0.238691
Br194	Br	0.846041	0.095267	0.094642
Br195	Br	1.179374	0.428600	0.427976
Br196	Br	0.910016	-0.918443	-0.314064
Br197	Br	1.243349	-0.585110	0.019269
Br198	Br	1.576683	-0.251777	0.352602
H199	H	1.164860	-0.903573	-0.266386
H200	H	1.498193	-0.570239	0.066948
H201	H	1.831527	-0.236906	0.400281
Br202	Br	1.236365	-0.796322	-0.401873
Br203	Br	1.569699	-0.462989	-0.068540
Br204	Br	1.903032	-0.129656	0.264794
H205	H	0.619995	-0.232744	-0.391637
H206	H	0.953328	0.100590	-0.058304
H207	H	1.286661	0.433923	0.275030
H208	H	0.527334	-0.324324	-0.483105
H209	H	0.860668	0.009009	-0.149772
H210	H	1.194001	0.342343	0.183561
Br211	Br	1.192782	-0.238073	-0.797569
Br212	Br	1.526116	0.095260	-0.464236
Br213	Br	1.859449	0.428593	-0.130902
H214	H	1.039859	-0.232565	-0.904761
H215	H	1.373192	0.100768	-0.571428
H216	H	1.706525	0.434101	-0.238095
H217	H	0.981539	-0.811063	-0.449375
H218	H	1.314873	-0.477730	-0.116042
H219	H	1.648206	-0.144397	0.217292
Br220	Br	0.512576	-0.520942	-0.313915
Br221	Br	0.845909	-0.187609	0.019418
Br222	Br	1.179242	0.145724	0.352752
H223	H	0.948174	-0.324024	-0.812005
H224	H	1.281508	0.009310	-0.478672
H225	H	1.614841	0.342643	-0.145339
Br226	Br	1.116922	-0.520855	-0.797336
Br227	Br	1.450255	-0.187521	-0.464003
Br228	Br	1.783588	0.145812	-0.130670
Br229	Br	1.236497	-0.401357	-0.919169
Br230	Br	1.569830	-0.068023	-0.585835
Br231	Br	1.903163	0.265310	-0.252502
