data_functionalizedCrystal
_audit_creation_method	'MofGen! by Chris Wilmer'
_symmetry_space_group_name_H-M	'P1'
_symmetry_Int_Tables_number	1
_symmetry_cell_setting	triclinic
loop_
_symmetry_equiv_pos_as_xyz
  x,y,z
_cell_length_a	9.065218
_cell_length_b	15.186229
_cell_length_c	9.065218
_cell_angle_alpha	89.997568
_cell_angle_beta	94.984115
_cell_angle_gamma	90.004035
loop_
_atom_site_label
_atom_site_type_symbol
_atom_site_fract_x
_atom_site_fract_y
_atom_site_fract_z
O1	O	1.960400	0.073227	-0.216356
O2	O	1.531116	0.073228	-0.234102
O3	O	1.754631	0.073226	-0.010587
O4	O	1.736885	0.073229	-0.439872
O5	O	1.754614	-0.073232	-0.010581
O6	O	1.531098	-0.073229	-0.234097
O7	O	1.960383	-0.073230	-0.216350
Zn8	Zn	1.745738	-0.096483	-0.225223
Zn9	Zn	1.745761	0.096481	-0.225230
O10	O	1.736867	-0.073228	-0.439866
C11	C	1.476120	-0.000001	-0.232394
C12	C	1.312277	-0.000000	-0.227294
N13	N	1.745733	-0.228176	-0.225217
C14	C	1.844747	-0.546095	-0.126278
C15	C	1.844742	-0.453906	-0.126279
C16	C	1.646759	-0.453914	-0.324174
C17	C	1.646771	-0.546102	-0.324179
C18	C	1.745763	-0.592190	-0.225223
C19	C	1.745747	-0.407812	-0.225218
C20	C	1.745742	-0.307856	-0.225219
C21	C	1.745771	-0.692153	-0.225223
C22	C	2.015378	0.000000	-0.218059
C23	C	2.179221	0.000005	-0.223158
C24	C	1.752917	-0.000002	0.044403
C25	C	1.747817	0.000003	0.208245
N26	N	1.745777	0.228173	-0.225224
C27	C	1.738582	0.000001	-0.494855
C28	C	1.743681	0.000003	-0.658698
H29	H	1.925354	-0.583618	-0.045704
O30	O	1.550646	-0.409005	-0.420142
C31	C	1.462932	-0.266989	-0.507890
C32	C	1.571841	-0.317735	-0.399107
H33	H	1.480050	-0.193188	-0.490943
H34	H	1.344466	-0.285063	-0.487018
H35	H	1.483722	-0.285157	-0.626330
H36	H	1.551185	-0.299593	-0.280626
H37	H	1.690269	-0.299656	-0.420108
H38	H	1.925345	-0.416378	-0.045711
H39	H	1.566167	-0.583635	-0.404759
