data_functionalizedCrystal
_audit_creation_method	'MofGen! by Chris Wilmer'
_symmetry_space_group_name_H-M	'P1'
_symmetry_Int_Tables_number	1
_symmetry_cell_setting	triclinic
loop_
_symmetry_equiv_pos_as_xyz
  x,y,z
_cell_length_a	16.956984
_cell_length_b	23.532357
_cell_length_c	16.053802
_cell_angle_alpha	92.543277
_cell_angle_beta	87.610701
_cell_angle_gamma	79.440855
loop_
_atom_site_label
_atom_site_type_symbol
_atom_site_fract_x
_atom_site_fract_y
_atom_site_fract_z
O1	O	1.061232	0.021048	-0.069436
O2	O	1.561232	0.521048	0.430564
O3	O	0.828911	0.041051	-0.069440
O4	O	1.328911	0.541051	0.430560
O5	O	0.952097	-0.052186	-0.069421
O6	O	1.452097	0.447814	0.430579
O7	O	0.938046	0.114285	-0.069455
O8	O	1.438046	0.614285	0.430545
O9	O	0.945316	-0.047074	0.069437
O10	O	1.445316	0.452926	0.569437
O11	O	0.822130	0.046163	0.069418
O12	O	1.322130	0.546163	0.569418
O13	O	1.054451	0.026160	0.069422
O14	O	1.554451	0.526160	0.569422
Zn15	Zn	0.937214	0.036973	0.091467
Zn16	Zn	1.437214	0.536973	0.591467
Zn17	Zn	0.946148	0.030238	-0.091485
Zn18	Zn	1.446148	0.530238	0.408515
O19	O	0.931265	0.119397	0.069403
O20	O	1.431265	0.619397	0.569403
C21	C	0.795804	0.044631	-0.000011
C22	C	1.295804	0.544631	0.499989
C23	C	0.707259	0.047676	-0.000012
C24	C	1.207259	0.547676	0.499988
C25	C	0.675590	-0.003239	0.000000
C26	C	1.175590	0.496761	0.500000
C27	C	0.592392	-0.000375	-0.000006
C28	C	1.092392	0.499625	0.499994
C29	C	0.540863	0.053406	-0.000019
C30	C	1.040863	0.553406	0.499981
C31	C	0.572537	0.104326	-0.000033
C32	C	1.072537	0.604326	0.499967
C33	C	0.655734	0.101460	-0.000033
C34	C	1.155734	0.601460	0.499967
C35	C	0.290975	0.067589	-0.000028
C36	C	0.790975	0.567589	0.499972
C37	C	0.207773	0.070450	-0.000026
C38	C	0.707773	0.570450	0.499974
C39	C	0.227633	-0.034251	0.000000
C40	C	0.727633	0.465749	0.500000
C41	C	0.310831	-0.037111	0.000006
C42	C	0.810831	0.462889	0.500006
C43	C	0.342498	0.013808	-0.000013
C44	C	0.842498	0.513808	0.499987
N45	N	0.455821	0.056336	-0.000023
N46	N	0.955821	0.556336	0.499977
N47	N	0.427539	0.010878	-0.000015
N48	N	0.927539	0.510878	0.499985
C49	C	0.948355	-0.070831	0.000011
C50	C	1.448355	0.429169	0.500011
C51	C	0.947298	-0.134004	0.000019
C52	C	1.447298	0.365996	0.500019
C53	C	0.944361	-0.528518	-0.075718
C54	C	1.444361	-0.028518	0.424282
C55	C	0.943357	-0.587874	-0.075723
C56	C	1.443357	-0.087874	0.424277
O57	O	0.945954	-0.620937	-0.140095
O58	O	1.445954	-0.120937	0.359905
N59	N	0.939163	-0.614778	-0.000032
N60	N	1.439163	-0.114778	0.499968
C61	C	0.935965	-0.582320	0.075668
C62	C	1.435965	-0.082320	0.575668
O63	O	0.932305	-0.610653	0.140048
O64	O	1.432305	-0.110653	0.640048
C65	C	0.936964	-0.522964	0.075672
C66	C	1.436964	-0.022964	0.575672
C67	C	0.941166	-0.496065	-0.000024
C68	C	1.441166	0.003935	0.499976
C69	C	0.948563	-0.501619	-0.151407
C70	C	1.448563	-0.001619	0.348593
C71	C	0.949568	-0.442267	-0.151402
C72	C	1.449568	0.057733	0.348598
C73	C	0.946373	-0.409814	-0.075708
C74	C	1.446373	0.090186	0.424292
C75	C	0.942172	-0.436713	-0.000018
C76	C	1.442172	0.063287	0.499982
C77	C	0.933760	-0.490507	0.151371
C78	C	1.433760	0.009493	0.651371
C79	C	0.934758	-0.431147	0.151368
C80	C	1.434758	0.068853	0.651368
C81	C	0.938961	-0.404248	0.075673
C82	C	1.438961	0.095752	0.575673
C83	C	0.939982	-0.344908	0.075681
C84	C	1.439982	0.155092	0.575681
N85	N	0.944176	-0.318005	-0.000009
N86	N	1.444176	0.181995	0.499991
C87	C	0.947372	-0.350458	-0.075704
C88	C	1.447372	0.149542	0.424296
C89	C	0.933867	-0.706972	0.075654
C90	C	1.433867	-0.206972	0.575654
C91	C	0.932874	-0.766327	0.075651
C92	C	1.432874	-0.266327	0.575651
C93	C	0.940264	-0.771878	-0.075740
C94	C	1.440264	-0.271878	0.424260
C95	C	0.941263	-0.712522	-0.075736
C96	C	1.441263	-0.212522	0.424264
C97	C	0.938061	-0.680069	-0.000037
C98	C	1.438061	-0.180069	0.499963
C99	C	0.949484	-0.225814	-0.075687
C100	C	1.449484	0.274186	0.424313
C101	C	0.950493	-0.166457	-0.075676
C102	C	1.450493	0.333543	0.424324
C103	C	0.943098	-0.160911	0.075715
C104	C	1.443098	0.339089	0.575715
C105	C	0.942094	-0.220264	0.075703
C106	C	1.442094	0.279736	0.575703
C107	C	0.945284	-0.252714	-0.000004
C108	C	1.445284	0.247286	0.499996
O109	O	0.937384	-0.311808	0.140021
O110	O	1.437384	0.188192	0.640021
O111	O	0.951021	-0.322115	-0.140073
O112	O	1.451021	0.177885	0.359927
C113	C	1.087558	0.022580	-0.000009
C114	C	1.587558	0.522580	0.499991
C115	C	1.176104	0.019534	-0.000014
C116	C	1.676104	0.519534	0.499986
C117	C	0.935007	0.138042	-0.000031
C118	C	1.435007	0.638042	0.499969
C119	C	0.936065	0.201215	-0.000044
C120	C	1.436065	0.701215	0.499956
N121	N	0.931123	0.041570	0.216326
N122	N	1.431123	0.541570	0.716326
N123	N	0.952245	0.025637	-0.216344
N124	N	1.452245	0.525637	0.283656
C125	C	0.983558	0.001909	0.260028
C126	C	1.483558	0.501909	0.760028
C127	C	0.979305	0.005130	0.347434
C128	C	1.479305	0.505130	0.847434
C129	C	0.922620	0.048013	0.391137
C130	C	1.422620	0.548013	0.891137
C131	C	0.870180	0.087675	0.347428
C132	C	1.370180	0.587675	0.847428
C133	C	0.874430	0.084452	0.260024
C134	C	1.374430	0.584452	0.760024
C135	C	0.904055	0.062076	0.652543
C136	C	1.404055	0.562076	1.152543
C137	C	0.899810	0.065297	0.739954
C138	C	1.399810	0.565297	1.239954
C139	C	1.008935	-0.017249	0.739954
C140	C	1.508935	0.482751	1.239954
C141	C	1.013183	-0.020467	0.652548
C142	C	1.513183	0.479533	1.152548
C143	C	0.960740	0.019194	0.608847
C144	C	1.460740	0.519194	1.108847
N145	N	0.918273	0.051306	0.480480
N146	N	1.418273	0.551306	0.980480
N147	N	0.965084	0.015897	0.519505
N148	N	1.465084	0.515897	1.019505
H149	H	0.566612	-0.041836	0.000003
H150	H	1.066612	0.458164	0.500003
H151	H	0.930339	-0.512397	0.213010
H152	H	1.430339	-0.012397	0.713010
C153	C	1.066612	-0.060877	0.788031
C154	C	1.566612	0.439123	1.288031
N155	N	1.110054	-0.093741	0.824244
N156	N	1.610054	0.406259	1.324244
H157	H	0.853648	0.100220	0.775533
H158	H	1.353648	0.600220	1.275533
C159	C	0.931239	-0.395452	0.234646
C160	C	1.431239	0.104548	0.734646
N161	N	0.928591	-0.368569	0.297371
N162	N	1.428591	0.131431	0.797371
C163	C	0.846468	0.105772	0.604484
C164	C	1.346468	0.605772	1.104484
N165	N	0.803128	0.138712	0.568283
N166	N	1.303128	0.638712	1.068283
H167	H	0.201841	-0.075707	0.000006
H168	H	0.701841	0.424293	0.500006
C169	C	0.807818	0.134842	0.395504
C170	C	1.307818	0.634842	0.895504
N171	N	0.760846	0.170369	0.431714
N172	N	1.260846	0.670369	0.931714
H173	H	0.831731	0.116746	0.224443
H174	H	1.331731	0.616746	0.724443
H175	H	0.938679	-0.242167	0.137341
H176	H	1.438679	0.257833	0.637341
H177	H	0.717539	-0.047034	0.000014
H178	H	1.217539	0.452966	0.500014
C179	C	0.151093	0.129616	-0.000055
C180	C	0.651093	0.629616	0.499945
N181	N	0.108402	0.174177	-0.000080
N182	N	0.608402	0.674177	0.499920
H183	H	0.316748	0.109051	-0.000049
H184	H	0.816748	0.609051	0.499951
C185	C	0.367507	-0.096275	0.000020
C186	C	0.867507	0.403725	0.500020
N187	N	0.410195	-0.140837	0.000033
N188	N	0.910195	0.359163	0.500033
H189	H	0.530576	0.148115	-0.000049
H190	H	1.030576	0.648115	0.499951
H191	H	0.681517	0.142922	-0.000039
H192	H	1.181517	0.642922	0.499961
H193	H	0.940500	-0.134478	0.137343
H194	H	1.440500	0.365522	0.637343
C195	C	0.954182	-0.412685	-0.234674
C196	C	1.454182	0.087315	0.265326
N197	N	0.957654	-0.390407	-0.297398
N198	N	1.457654	0.109593	0.202602
C199	C	0.952113	-0.537313	-0.234684
C200	C	1.452113	-0.037313	0.265316
N201	N	0.954805	-0.564197	-0.297414
N202	N	1.454805	-0.064197	0.202586
H203	H	0.953917	-0.144559	-0.137318
H204	H	1.453917	0.355441	0.362682
H205	H	1.059341	-0.055385	0.616967
H206	H	1.559341	0.444615	1.116967
H207	H	1.029720	-0.033008	0.224451
H208	H	1.529720	0.466992	0.724451
C209	C	0.953008	-0.261502	-0.158970
C210	C	1.453008	0.238498	0.341030
N211	N	0.955671	-0.288384	-0.221698
N212	N	1.455671	0.211616	0.278302
C213	C	1.036969	-0.038513	0.395502
C214	C	1.536969	0.461487	0.895502
N215	N	1.080396	-0.071391	0.431707
N216	N	1.580396	0.428609	0.931707
H217	H	0.942863	-0.798311	-0.137374
H218	H	1.442863	-0.298311	0.362626
C219	C	0.945879	-0.682938	-0.159006
C220	C	1.445879	-0.182938	0.340994
N221	N	0.949352	-0.660658	-0.221729
N222	N	1.449352	-0.160658	0.278271
H223	H	0.931261	-0.680552	0.137301
H224	H	1.431261	-0.180552	0.637301
C225	C	0.928259	-0.795910	0.158922
C226	C	1.428259	-0.295910	0.658922
N227	N	0.924776	-0.818189	0.221644
N228	N	1.424776	-0.318189	0.721644
