data_functionalizedCrystal
_audit_creation_method	'MofGen! by Chris Wilmer'
_symmetry_space_group_name_H-M	'P1'
_symmetry_Int_Tables_number	1
_symmetry_cell_setting	triclinic
loop_
_symmetry_equiv_pos_as_xyz
  x,y,z
_cell_length_a	10.967916
_cell_length_b	10.967829
_cell_length_c	10.065875
_cell_angle_alpha	86.921207
_cell_angle_beta	86.879757
_cell_angle_gamma	92.751242
loop_
_atom_site_label
_atom_site_type_symbol
_atom_site_fract_x
_atom_site_fract_y
_atom_site_fract_z
O1	O	-1.622283	0.210052	0.218652
O2	O	-1.122283	0.710052	0.718652
O3	O	-1.272393	0.213492	0.135550
O4	O	-0.772393	0.713492	0.635550
O5	O	-1.449084	0.036852	0.218656
O6	O	-0.949084	0.536852	0.718656
O7	O	-1.445592	0.386692	0.135546
O8	O	-0.945592	0.886692	0.635546
O9	O	-1.415398	0.070676	0.429766
O10	O	-0.915398	0.570676	0.929766
O11	O	-1.238707	0.247316	0.346660
O12	O	-0.738707	0.747316	0.846660
O13	O	-1.588597	0.243876	0.429762
O14	O	-1.088597	0.743876	0.929762
Zn15	Zn	-1.408303	0.250966	0.421729
Zn16	Zn	-0.908303	0.750966	0.921729
Zn17	Zn	-1.452687	0.206401	0.143583
Zn18	Zn	-0.952687	0.706401	0.643583
O19	O	-1.411906	0.420516	0.346656
O20	O	-0.911906	0.920516	0.846656
C21	C	-1.210631	0.227598	0.231200
C22	C	-0.710631	0.727598	0.731200
C23	C	-1.076786	0.219223	0.201690
C24	C	-0.576786	0.719223	0.701690
C25	C	-0.999663	0.233011	0.297895
C26	C	-0.499663	0.733011	0.797895
C27	C	-0.861327	0.224355	0.267397
C28	C	-0.361327	0.724355	0.767397
C29	C	-1.429442	0.008851	0.334114
C30	C	-0.929442	0.508851	0.834114
C31	C	-1.421087	-0.124977	0.363619
C32	C	-0.921087	0.375023	0.863619
C33	C	-1.434812	-0.202158	0.267411
C34	C	-0.934812	0.297842	0.767411
C35	C	-1.426177	-0.340477	0.297904
C36	C	-0.926177	0.159523	0.797904
C37	C	-0.650359	0.229770	0.334110
C38	C	-0.150359	0.729770	0.834110
C39	C	-0.784205	0.238145	0.363615
C40	C	-0.284205	0.738145	0.863615
C41	C	-1.431548	0.448517	0.231195
C42	C	-0.931548	0.948517	0.731195
C43	C	-1.439905	0.582343	0.201682
C44	C	-0.939905	1.082343	0.701682
N45	N	-1.378022	0.281381	0.611559
N46	N	-0.878022	0.781381	1.111559
N47	N	-1.482977	0.175978	-0.046242
N48	N	-0.982977	0.675978	0.453758
C49	C	-1.442143	0.216975	0.709568
C50	C	-0.942143	0.716975	1.209568
C51	C	-1.418847	0.240393	0.855748
C52	C	-0.918847	0.740393	1.355748
H53	H	-0.820584	0.256355	0.468566
H54	H	-0.320584	0.756355	0.968566
H55	H	-1.514282	0.144494	0.685259
H56	H	-1.014282	0.644494	1.185259
Cl57	Cl	-1.393063	-0.181046	0.525644
Cl58	Cl	-0.893063	0.318954	1.025644
Cl59	Cl	-1.307449	0.352292	0.893263
Cl60	Cl	-0.807449	0.852292	1.393263
H61	H	-0.824947	0.206138	0.162448
H62	H	-0.324947	0.706138	0.662448
Cl63	Cl	-1.594638	0.064340	0.916247
Cl64	Cl	-1.094638	0.564340	1.416247
H65	H	-1.305874	0.353852	0.635869
H66	H	-0.805874	0.853852	1.135869
H67	H	-1.036050	0.251217	0.402839
H68	H	-0.536050	0.751217	0.902839
H69	H	-1.452951	-0.165834	0.162468
H70	H	-0.952951	0.334166	0.662468
Cl71	Cl	-1.020621	0.191094	0.039664
Cl72	Cl	-0.520621	0.691094	0.539664
H73	H	-1.408024	-0.376794	0.402850
H74	H	-0.908024	0.123206	0.902850
Cl75	Cl	-1.467874	-0.361592	0.039634
Cl76	Cl	-0.967874	0.138408	0.539634
