data_functionalizedCrystal
_audit_creation_method	'MofGen! by Chris Wilmer'
_symmetry_space_group_name_H-M	'P1'
_symmetry_Int_Tables_number	1
_symmetry_cell_setting	triclinic
loop_
_symmetry_equiv_pos_as_xyz
  x,y,z
_cell_length_a	25.639239
_cell_length_b	19.805407
_cell_length_c	19.805384
_cell_angle_alpha	89.930859
_cell_angle_beta	89.900224
_cell_angle_gamma	90.040626
loop_
_atom_site_label
_atom_site_type_symbol
_atom_site_fract_x
_atom_site_fract_y
_atom_site_fract_z
Zn1	Zn	-0.207769	1.035004	-0.382730
Zn2	Zn	0.292231	1.535004	0.117270
Zn3	Zn	-0.295312	1.034798	-0.269540
Zn4	Zn	0.204688	1.534798	0.230460
Zn5	Zn	-0.207895	0.921722	-0.269553
Zn6	Zn	0.292105	1.421722	0.230447
Zn7	Zn	-0.295178	0.921758	-0.382685
Zn8	Zn	0.204822	1.421758	0.117315
O9	O	-0.251538	0.978320	-0.326127
O10	O	0.248462	1.478320	0.173873
O11	O	-0.219385	1.129693	-0.367729
O12	O	0.280615	1.629693	0.132271
O13	O	-0.283824	1.019697	-0.174824
O14	O	0.216176	1.519697	0.325176
O15	O	-0.134713	0.936820	-0.284591
O16	O	0.365287	1.436820	0.215409
O17	O	-0.283702	1.129542	-0.284568
O18	O	0.216298	1.629542	0.215432
O19	O	-0.134620	1.020048	-0.367742
O20	O	0.365380	1.520048	0.132258
O21	O	-0.219599	0.936621	-0.174834
O22	O	0.280401	1.436621	0.325166
O23	O	-0.219470	0.827010	-0.284547
O24	O	0.280530	1.327010	0.215453
O25	O	-0.283475	0.936881	-0.477408
O26	O	0.216525	1.436881	0.022592
O27	O	-0.283597	0.827036	-0.367664
O28	O	0.216403	1.327036	0.132336
O29	O	-0.219256	1.020083	-0.477441
O30	O	0.280744	1.520083	0.022559
O31	O	-0.368459	1.019732	-0.284524
O32	O	0.131541	1.519732	0.215476
O33	O	-0.368361	0.936682	-0.367651
O34	O	0.131639	1.436682	0.132349
C35	C	-0.251533	0.802464	-0.326103
C36	C	0.248467	1.302464	0.173897
C37	C	-0.251543	0.727232	-0.326108
C38	C	0.248457	1.227232	0.173892
C39	C	-0.218111	0.265524	-0.369521
C40	C	0.281889	0.765524	0.130479
C41	C	-0.218112	0.336212	-0.369516
C42	C	0.281888	0.836212	0.130484
C43	C	-0.251546	0.371471	-0.326149
C44	C	0.248454	0.871471	0.173851
C45	C	-0.284986	0.336037	-0.282788
C46	C	0.215014	0.836037	0.217212
C47	C	-0.284987	0.265350	-0.282797
C48	C	0.215013	0.765350	0.217203
C49	C	-0.284982	0.621110	-0.282752
C50	C	0.215018	1.121110	0.217248
C51	C	-0.284977	0.691803	-0.282745
C52	C	0.215023	1.191803	0.217255
C53	C	-0.218107	0.691972	-0.369472
C54	C	0.281893	1.191972	0.130528
C55	C	-0.218108	0.621285	-0.369481
C56	C	0.281892	1.121285	0.130519
C57	C	-0.251549	0.585858	-0.326123
C58	C	0.248451	1.085858	0.173877
C59	C	-0.251548	0.509210	-0.326130
C60	C	0.248452	1.009210	0.173870
C61	C	-0.251545	0.448118	-0.326138
C62	C	0.248455	0.948118	0.173862
C63	C	-0.387381	0.978207	-0.326096
C64	C	0.112619	1.478207	0.173904
C65	C	-0.445495	0.978220	-0.326105
C66	C	0.054505	1.478220	0.173895
C67	C	-0.805896	1.021678	-0.282916
C68	C	-0.305896	1.521678	0.217084
C69	C	-0.860501	1.021704	-0.282925
C70	C	-0.360501	1.521704	0.217075
O71	O	-0.888770	1.058535	-0.246170
O72	O	-0.388770	1.558535	0.253830
N73	N	-0.887777	0.978439	-0.326172
N74	N	-0.387777	1.478439	0.173828
C75	C	-0.860447	0.935151	-0.369417
C76	C	-0.360447	1.435151	0.130583
O77	O	-0.888662	0.898354	-0.406203
O78	O	-0.388662	1.398354	0.093797
C79	C	-0.805844	0.935128	-0.369411
C80	C	-0.305844	1.435128	0.130589
C81	C	-0.778570	0.978391	-0.326157
C82	C	-0.278570	1.478391	0.173843
C83	C	-0.778622	1.064937	-0.239666
C84	C	-0.278622	1.564937	0.260334
C85	C	-0.724022	1.064910	-0.239656
C86	C	-0.224022	1.564910	0.260344
C87	C	-0.696695	1.021623	-0.282897
C88	C	-0.196695	1.521623	0.217103
C89	C	-0.723969	0.978364	-0.326147
C90	C	-0.223969	1.478364	0.173853
C91	C	-0.778514	0.891844	-0.412659
C92	C	-0.278514	1.391844	0.087341
C93	C	-0.723907	0.891825	-0.412649
C94	C	-0.223907	1.391825	0.087351
C95	C	-0.696633	0.935088	-0.369395
C96	C	-0.196633	1.435088	0.130605
C97	C	-0.642042	0.935049	-0.369377
C98	C	-0.142042	1.435049	0.130623
N99	N	-0.614765	0.978314	-0.326131
N100	N	-0.114765	1.478314	0.173869
C101	C	-0.642092	1.021601	-0.282891
C102	C	-0.142092	1.521601	0.217109
C103	C	-0.975118	0.935202	-0.369427
C104	C	-0.475118	1.435202	0.130573
C105	C	-1.029720	0.935220	-0.369431
C106	C	-0.529720	1.435220	0.130569
C107	C	-1.029770	1.021774	-0.282940
C108	C	-0.529770	1.521774	0.217060
C109	C	-0.975167	1.021752	-0.282934
C110	C	-0.475167	1.521752	0.217066
C111	C	-0.947841	0.978466	-0.326181
C112	C	-0.447841	1.478466	0.173819
C113	C	-0.527427	1.021540	-0.282873
C114	C	-0.027427	1.521540	0.217127
C115	C	-0.472822	1.021507	-0.282865
C116	C	0.027178	1.521507	0.217135
C117	C	-0.472777	0.934955	-0.369358
C118	C	0.027223	1.434955	0.130642
C119	C	-0.527377	0.934985	-0.369364
C120	C	-0.027377	1.434985	0.130636
C121	C	-0.554701	0.978283	-0.326119
C122	C	-0.054701	1.478283	0.173881
O123	O	-0.613738	0.898239	-0.406116
O124	O	-0.113738	1.398239	0.093884
O125	O	-0.613870	1.058398	-0.246117
O126	O	-0.113870	1.558398	0.253883
C127	C	-0.115165	0.978453	-0.326173
C128	C	0.384835	1.478453	0.173827
C129	C	-0.057051	0.978510	-0.326193
C130	C	0.442949	1.478510	0.173807
C131	C	-0.251336	0.978509	-0.502670
C132	C	0.248664	1.478509	-0.002670
C133	C	-0.251250	0.978589	-0.577903
C134	C	0.248750	1.478589	-0.077903
C135	C	-0.251544	1.154863	-0.326152
C136	C	0.248456	1.654863	0.173848
C137	C	-0.251547	1.230095	-0.326163
C138	C	0.248453	1.730095	0.173837
C139	C	-0.251702	0.978172	-0.150271
C140	C	0.248298	1.478172	0.349729
C141	C	-0.251641	0.978223	-0.075039
C142	C	0.248359	1.478223	0.424961
C143	C	-0.218420	0.934681	-0.039732
C144	C	0.281580	1.434681	0.460268
C145	C	-0.218362	0.934735	0.030957
C146	C	0.281638	1.434735	0.530957
C147	C	-0.251528	0.978328	0.066337
C148	C	0.248472	1.478328	0.566337
C149	C	-0.284751	1.021874	0.031024
C150	C	0.215249	1.521874	0.531024
C151	C	-0.284806	1.021823	-0.039663
C152	C	0.215194	1.521823	0.460337
C153	C	-0.284530	1.022082	0.316097
C154	C	0.215470	1.522082	0.816097
C155	C	-0.284474	1.022128	0.386789
C156	C	0.215526	1.522128	0.886789
C157	C	-0.218087	0.934993	0.386716
C158	C	0.281913	1.434993	0.886716
C159	C	-0.218142	0.934942	0.316029
C160	C	0.281858	1.434942	0.816029
C161	C	-0.251362	0.978491	0.280723
C162	C	0.248638	1.478491	0.780723
C163	C	-0.251423	0.978433	0.204075
C164	C	0.248577	1.478433	0.704075
C165	C	-0.251470	0.978383	0.142983
C166	C	0.248530	1.478383	0.642983
H167	H	-0.312210	0.592274	-0.247446
H168	H	0.187790	1.092274	0.252554
O169	O	-0.317393	0.230858	-0.240644
O170	O	0.182607	0.730858	0.259356
C171	C	-0.287626	0.189949	-0.196990
C172	C	0.212374	0.689949	0.303010
H173	H	-0.248004	0.179426	-0.220954
H174	H	0.251996	0.679426	0.279046
H175	H	-0.308925	0.140211	-0.187878
H176	H	0.191075	0.640211	0.312122
H177	H	-0.281880	0.217128	-0.146840
H178	H	0.218120	0.717128	0.353160
O179	O	-0.316765	1.064446	0.421085
O180	O	0.183235	1.564446	0.921085
C181	C	-0.368971	1.050078	0.404038
C182	C	0.131029	1.550078	0.904038
H183	H	-0.370243	1.024037	0.352767
H184	H	0.129757	1.524037	0.852767
H185	H	-0.392141	1.099125	0.401614
H186	H	0.107859	1.599125	0.901614
H187	H	-0.386746	1.015455	0.443949
H188	H	0.113254	1.515455	0.943949
H189	H	-0.701661	0.856577	-0.447869
H190	H	-0.201661	1.356577	0.052131
O191	O	-0.317510	0.725949	-0.240598
O192	O	0.182490	1.225949	0.259402
C193	C	-0.347018	0.679523	-0.202320
C194	C	0.152982	1.179523	0.297680
H195	H	-0.348831	0.629169	-0.230044
H196	H	0.151169	1.129169	0.269956
H197	H	-0.388212	0.699906	-0.195009
H198	H	0.111788	1.199906	0.304991
H199	H	-0.327875	0.671955	-0.150957
H200	H	0.172125	1.171955	0.349043
H201	H	-0.190879	0.720826	-0.404778
H202	H	0.309121	1.220826	0.095222
H203	H	-0.450617	1.056736	-0.247640
H204	H	0.049383	1.556736	0.252360
O205	O	-0.186000	0.892521	0.281635
O206	O	0.314000	1.392521	0.781635
C207	C	-0.216044	0.849038	0.240927
C208	C	0.283956	1.349038	0.740927
H209	H	-0.257229	0.845224	0.262383
H210	H	0.242771	1.345224	0.762383
H211	H	-0.197427	0.796789	0.240162
H212	H	0.302573	1.296789	0.740162
H213	H	-0.217768	0.869939	0.187319
H214	H	0.282232	1.369939	0.687319
O215	O	-0.185705	0.231202	-0.411683
O216	O	0.314295	0.731202	0.088317
C217	C	-0.215477	0.190358	-0.455345
C218	C	0.284523	0.690358	0.044655
H219	H	-0.255098	0.179700	-0.431380
H220	H	0.244902	0.679700	0.068620
H221	H	-0.194181	0.140682	-0.464474
H222	H	0.305819	0.640682	0.035526
H223	H	-0.221225	0.217663	-0.505487
H224	H	0.278775	0.717663	-0.005487
O225	O	-0.186176	0.892427	-0.074172
O226	O	0.313824	1.392427	0.425828
C227	C	-0.152216	0.930647	-0.115243
C228	C	0.347784	1.430647	0.384757
H229	H	-0.170377	0.982087	-0.125868
H230	H	0.329623	1.482087	0.374132
H231	H	-0.145402	0.902981	-0.164921
H232	H	0.354598	1.402981	0.335079
H233	H	-0.113408	0.937776	-0.088153
H234	H	0.386592	1.437776	0.411847
H235	H	-0.311582	1.057540	0.287359
H236	H	0.188418	1.557540	0.787359
H237	H	-0.549668	1.056798	-0.247660
H238	H	-0.049668	1.556798	0.252340
H239	H	-0.952963	1.056980	-0.247713
H240	H	-0.452963	1.556980	0.252287
O241	O	-0.317490	0.370361	-0.240755
O242	O	0.182510	0.870361	0.259245
C243	C	-0.351268	0.411260	-0.279208
C244	C	0.148732	0.911260	0.220792
H245	H	-0.332829	0.421933	-0.330543
H246	H	0.167171	0.921933	0.169457
H247	H	-0.358271	0.460925	-0.251615
H248	H	0.141729	0.960925	0.248385
H249	H	-0.390016	0.383995	-0.286557
H250	H	0.109984	0.883995	0.213443
H251	H	-0.311753	1.057371	0.059836
H252	H	0.188247	1.557371	0.559836
O253	O	-0.317103	1.064025	-0.074037
O254	O	0.182897	1.564025	0.425963
C255	C	-0.351128	1.025748	-0.114720
C256	C	0.148872	1.525748	0.385280
H257	H	-0.332984	0.974291	-0.125275
H258	H	0.167016	1.474291	0.374725
H259	H	-0.358016	1.053342	-0.164456
H260	H	0.141984	1.553342	0.335544
H261	H	-0.389894	1.018660	-0.087328
H262	H	0.110106	1.518660	0.412672
H263	H	-0.701819	1.100140	-0.204437
H264	H	-0.201819	1.600140	0.295563
H265	H	-0.549585	0.899760	-0.404587
H266	H	-0.049585	1.399760	0.095413
H267	H	-0.191035	0.899536	0.415471
H268	H	0.308965	1.399536	0.915471
H269	H	-1.052029	1.057023	-0.247733
H270	H	-0.552029	1.557023	0.252267
O271	O	-0.185654	0.370550	-0.411726
O272	O	0.314346	0.870550	0.088274
C273	C	-0.197087	0.353366	-0.479163
C274	C	0.302913	0.853366	0.020837
H275	H	-0.217189	0.302028	-0.480525
H276	H	0.282811	0.802028	0.019475
H277	H	-0.159351	0.351017	-0.509595
H278	H	0.340649	0.851017	-0.009595
H279	H	-0.223964	0.393157	-0.501899
H280	H	0.276036	0.893157	-0.001899
O281	O	-0.185686	0.587067	-0.411706
O282	O	0.314314	1.087067	0.088294
C283	C	-0.197109	0.604433	-0.479135
C284	C	0.302891	1.104433	0.020865
H285	H	-0.238877	0.623834	-0.482450
H286	H	0.261123	1.123834	0.017550
H287	H	-0.192610	0.557995	-0.512591
H288	H	0.307390	1.057995	-0.012591
H289	H	-0.169077	0.645512	-0.496889
H290	H	0.330923	1.145512	0.003111
O291	O	-0.805082	1.107009	-0.197593
O292	O	-0.305082	1.607009	0.302407
C293	C	-0.769289	1.145193	-0.159438
C294	C	-0.269289	1.645193	0.340562
H295	H	-0.730394	1.117446	-0.157076
H296	H	-0.230394	1.617446	0.342924
H297	H	-0.785127	1.152404	-0.106113
H298	H	-0.285127	1.652404	0.393887
H299	H	-0.763405	1.196604	-0.184269
H300	H	-0.263405	1.696604	0.315731
O301	O	-1.056130	0.893168	-0.411506
O302	O	-0.556130	1.393168	0.088494
C303	C	-1.020295	0.854947	-0.449653
C304	C	-0.520295	1.354947	0.050347
H305	H	-0.981346	0.882656	-0.452011
H306	H	-0.481346	1.382656	0.047989
H307	H	-1.035996	0.847745	-0.502979
H308	H	-0.535996	1.347745	-0.002979
H309	H	-1.014565	0.803533	-0.424815
H310	H	-0.514565	1.303533	0.075185
O311	O	-0.948518	0.893110	-0.411340
O312	O	-0.448518	1.393110	0.088660
C313	C	-0.917034	0.849356	-0.372760
C314	C	-0.417034	1.349356	0.127240
H315	H	-0.908901	0.873213	-0.321490
H316	H	-0.408901	1.373213	0.178510
H317	H	-0.878609	0.840269	-0.400321
H318	H	-0.378609	1.340269	0.099679
H319	H	-0.938133	0.799208	-0.365273
H320	H	-0.438133	1.299208	0.134727
O321	O	-0.804919	0.849799	-0.454743
O322	O	-0.304919	1.349799	0.045257
C323	C	-0.769080	0.811586	-0.492892
C324	C	-0.269080	1.311586	0.007108
H325	H	-0.730133	0.839299	-0.495243
H326	H	-0.230133	1.339299	0.004757
H327	H	-0.784778	0.804390	-0.546220
H328	H	-0.284778	1.304390	-0.046220
H329	H	-0.763349	0.760169	-0.468060
H330	H	-0.263349	1.260169	0.031940
H331	H	-0.450519	0.899709	-0.404562
H332	H	0.049481	1.399709	0.095438
O333	O	-0.186074	0.892375	0.065149
O334	O	0.313926	1.392375	0.565149
C335	C	-0.156805	0.853898	0.018764
C336	C	0.343195	1.353898	0.518764
H337	H	-0.178275	0.851697	-0.031541
H338	H	0.321725	1.351697	0.468459
H339	H	-0.151509	0.800539	0.039274
H340	H	0.348491	1.300539	0.539274
H341	H	-0.116965	0.878343	0.011053
H342	H	0.383035	1.378343	0.511053
