data_functionalizedCrystal
_audit_creation_method	'MofGen! by Chris Wilmer'
_symmetry_space_group_name_H-M	'P1'
_symmetry_Int_Tables_number	1
_symmetry_cell_setting	triclinic
loop_
_symmetry_equiv_pos_as_xyz
  x,y,z
_cell_length_a	10.723024
_cell_length_b	9.130313
_cell_length_c	10.723024
_cell_angle_alpha	90.000784
_cell_angle_beta	84.467869
_cell_angle_gamma	89.999939
loop_
_atom_site_label
_atom_site_type_symbol
_atom_site_fract_x
_atom_site_fract_y
_atom_site_fract_z
O1	O	1.657182	-0.121786	0.175020
O2	O	1.294029	-0.121790	0.191773
O3	O	1.483982	-0.121783	0.001820
O4	O	1.467229	-0.121794	0.364973
O5	O	1.483979	0.121816	0.001829
O6	O	1.294026	0.121808	0.191782
O7	O	1.657179	0.121813	0.175028
Cu8	Cu	1.475602	0.144053	0.183406
Cu9	Cu	1.475606	-0.144031	0.183396
O10	O	1.467226	0.121805	0.364981
C11	C	1.247528	0.000008	0.190558
C12	C	1.108974	0.000007	0.186911
N13	N	1.475609	0.346676	0.183412
C14	C	1.033991	0.000002	0.293198
C15	C	0.890788	0.000001	0.289431
C16	C	1.559741	0.423331	0.099331
C17	C	1.559738	0.576668	0.099318
C18	C	1.391464	0.576681	0.267479
C19	C	1.391463	0.423347	0.267484
C20	C	1.643887	0.346661	0.015259
C21	C	1.728027	0.423316	-0.068829
C22	C	1.728024	0.576653	-0.068841
C23	C	1.643879	0.653334	0.015233
C24	C	1.703680	0.000011	0.176243
C25	C	1.842234	0.000003	0.179891
N26	N	1.475606	0.653347	0.183393
C27	C	1.482762	0.000015	-0.044675
C28	C	1.479114	0.000010	-0.183229
C29	C	1.585401	0.000009	-0.258212
C30	C	1.581634	0.000004	-0.401415
C31	C	1.468447	0.000004	0.411477
C32	C	1.472094	-0.000000	0.550031
H33	H	1.075814	0.000008	0.386984
H34	H	0.906659	-0.000003	0.088896
Cl35	Cl	0.791315	-0.000016	0.429921
Cl36	Cl	1.044415	0.000021	0.042105
H37	H	1.679187	0.000019	-0.216390
H38	H	1.643900	0.221806	0.015264
Cl39	Cl	1.285695	0.673080	0.373169
H40	H	1.796528	0.360874	-0.137286
H41	H	1.672624	0.000010	-0.465848
H42	H	1.796525	0.639064	-0.137316
Cl43	Cl	1.331599	0.000012	-0.350504
Cl44	Cl	1.334308	-0.000007	-0.247788
Cl45	Cl	1.643870	0.846103	0.015200
H46	H	1.322954	0.360933	0.335950
