data_functionalizedCrystal
_audit_creation_method	'MofGen! by Chris Wilmer'
_symmetry_space_group_name_H-M	'P1'
_symmetry_Int_Tables_number	1
_symmetry_cell_setting	triclinic
loop_
_symmetry_equiv_pos_as_xyz
  x,y,z
_cell_length_a	19.805407
_cell_length_b	18.101396
_cell_length_c	19.805399
_cell_angle_alpha	89.975513
_cell_angle_beta	90.017803
_cell_angle_gamma	89.965660
loop_
_atom_site_label
_atom_site_type_symbol
_atom_site_fract_x
_atom_site_fract_y
_atom_site_fract_z
Zn1	Zn	1.034686	0.294900	0.382702
Zn2	Zn	1.368019	0.628233	0.716036
Zn3	Zn	1.701352	0.961566	1.049369
Zn4	Zn	1.034580	0.418743	0.269520
Zn5	Zn	1.367913	0.752077	0.602853
Zn6	Zn	1.701246	1.085410	0.936187
Zn7	Zn	0.921500	0.294914	0.269530
Zn8	Zn	1.254834	0.628248	0.602864
Zn9	Zn	1.588167	0.961581	0.936197
Zn10	Zn	0.921443	0.418698	0.382670
Zn11	Zn	1.254776	0.752032	0.716004
Zn12	Zn	1.588110	1.085365	1.049337
O13	O	0.978052	0.356814	0.326106
O14	O	1.311385	0.690147	0.659439
O15	O	1.644719	1.023481	0.992772
O16	O	1.129388	0.311341	0.367697
O17	O	1.462722	0.644674	0.701031
O18	O	1.796055	0.978007	1.034364
O19	O	1.019559	0.402342	0.174805
O20	O	1.352892	0.735676	0.508138
O21	O	1.686226	1.069009	0.841471
O22	O	0.936583	0.191280	0.284560
O23	O	1.269916	0.524613	0.617894
O24	O	1.603250	0.857946	0.951227
O25	O	1.129310	0.402328	0.284543
O26	O	1.462644	0.735661	0.617876
O27	O	1.795977	1.068995	0.951210
O28	O	1.019740	0.191269	0.367707
O29	O	1.353073	0.524602	0.701041
O30	O	1.686407	0.857936	1.034374
O31	O	0.936480	0.311366	0.174812
O32	O	1.269814	0.644699	0.508146
O33	O	1.603147	0.978032	0.841479
O34	O	0.826776	0.311322	0.284529
O35	O	1.160110	0.644655	0.617863
O36	O	1.493443	0.977989	0.951196
O37	O	0.936485	0.402251	0.477391
O38	O	1.269819	0.735584	0.810724
O39	O	1.603152	1.068918	1.144058
O40	O	0.826734	0.402265	0.367653
O41	O	1.160067	0.735599	0.700986
O42	O	1.493401	1.068932	1.034320
O43	O	1.019684	0.311297	0.477415
O44	O	1.353018	0.644630	0.810748
O45	O	1.686351	0.977964	1.144081
O46	O	1.019503	0.522370	0.284512
O47	O	1.352837	0.855704	0.617845
O48	O	1.686170	1.189037	0.951179
O49	O	0.936382	0.522337	0.367643
O50	O	1.269716	0.855670	0.700976
O51	O	1.603049	1.189004	1.034310
C52	C	0.802196	0.356791	0.326089
C53	C	1.135529	0.690124	0.659423
C54	C	1.468863	1.023457	0.992756
C55	C	0.726964	0.356799	0.326098
C56	C	1.060297	0.690132	0.659432
C57	C	1.393631	1.023465	0.992765
C58	C	0.691661	0.309505	0.369463
C59	C	1.024995	0.642839	0.702796
C60	C	1.358328	0.976172	1.036129
C61	C	0.620973	0.309509	0.369465
C62	C	0.954306	0.642843	0.702799
C63	C	1.287639	0.976176	1.036132
C64	C	0.585589	0.356811	0.326106
C65	C	0.918922	0.690144	0.659440
C66	C	1.252255	1.023477	0.992773
C67	C	0.620896	0.404106	0.282737
C68	C	0.954230	0.737440	0.616071
C69	C	1.287563	1.070773	0.949404
C70	C	0.691584	0.404098	0.282732
C71	C	1.024917	0.737431	0.616065
C72	C	1.358250	1.070765	0.949398
C73	C	0.335823	0.404139	0.282758
C74	C	0.669156	0.737473	0.616091
C75	C	1.002490	1.070806	0.949425
C76	C	0.265131	0.404146	0.282768
C77	C	0.598464	0.737479	0.616102
C78	C	0.931798	1.070812	0.949435
C79	C	0.265212	0.309551	0.369492
C80	C	0.598546	0.642884	0.702825
C81	C	0.931879	0.976217	1.036158
C82	C	0.335899	0.309543	0.369486
C83	C	0.669233	0.642876	0.702819
C84	C	1.002566	0.976209	1.036153
C85	C	0.371201	0.356835	0.326115
C86	C	0.704535	0.690168	0.659448
C87	C	1.037868	1.023502	0.992781
C88	C	0.447850	0.356829	0.326111
C89	C	0.781183	0.690162	0.659445
C90	C	1.114516	1.023496	0.992778
C91	C	0.508941	0.356821	0.326113
C92	C	0.842275	0.690154	0.659446
C93	C	1.175608	1.023487	0.992779
C94	C	0.977943	0.549225	0.326088
C95	C	1.311277	0.882558	0.659421
C96	C	1.644610	1.215891	0.992754
C97	C	0.977959	0.631539	0.326103
C98	C	1.311292	0.964872	0.659436
C99	C	1.644626	1.298205	0.992769
C100	C	0.978079	0.930630	0.326142
C101	C	1.311412	1.263963	0.659475
C102	C	1.644746	1.597296	0.992809
C103	C	0.925906	0.899314	0.378575
C104	C	1.259239	1.232648	0.711909
C105	C	1.592573	1.565981	1.045242
C106	C	0.925666	0.813696	0.378411
C107	C	1.258999	1.147030	0.711744
C108	C	1.592333	1.480363	1.045077
C109	C	0.978019	0.782247	0.326123
C110	C	1.311353	1.115580	0.659456
C111	C	1.644686	1.448914	0.992790
C112	C	0.958706	0.813394	0.254789
C113	C	1.292039	1.146728	0.588123
C114	C	1.625372	1.480061	0.921456
C115	C	0.958361	0.899040	0.255104
C116	C	1.291695	1.232373	0.588437
C117	C	1.625028	1.565706	0.921771
C118	C	1.049683	0.898978	0.344414
C119	C	1.383017	1.232311	0.677748
C120	C	1.716350	1.565644	1.011081
C121	C	1.049270	0.813327	0.345978
C122	C	1.382604	1.146660	0.679311
C123	C	1.715937	1.479993	1.012645
C124	C	0.977987	0.698388	0.326108
C125	C	1.311320	1.031721	0.659441
C126	C	1.644654	1.365054	0.992775
C127	C	0.978110	1.014489	0.326152
C128	C	1.311443	1.347822	0.659486
C129	C	1.644777	1.681156	0.992819
C130	C	1.154595	0.356838	0.326123
C131	C	1.487928	0.690171	0.659456
C132	C	1.821262	1.023504	0.992789
C133	C	1.229827	0.356848	0.326130
C134	C	1.563160	0.690181	0.659463
C135	C	1.896493	1.023515	0.992796
C136	C	0.978090	0.356767	0.502648
C137	C	1.311423	0.690101	0.835982
C138	C	1.644757	1.023434	1.169315
C139	C	0.978106	0.356747	0.577881
C140	C	1.311440	0.690081	0.911214
C141	C	1.644773	1.023414	1.244547
C142	C	0.978156	1.163652	0.326141
C143	C	1.311489	1.496985	0.659474
C144	C	1.644823	1.830319	0.992808
C145	C	0.978140	1.081338	0.326163
C146	C	1.311473	1.414671	0.659496
C147	C	1.644806	1.748005	0.992829
C148	C	0.978053	0.356807	0.150250
C149	C	1.311387	0.690140	0.483583
C150	C	1.644720	1.023474	0.816916
C151	C	0.978168	0.356618	0.075018
C152	C	1.311502	0.689952	0.408351
C153	C	1.644835	1.023285	0.741685
C154	C	1.021429	0.309385	0.613238
C155	C	1.354762	0.642719	0.946571
C156	C	1.688096	0.976052	1.279905
C157	C	1.021436	0.309364	0.683926
C158	C	1.354769	0.642697	1.017260
C159	C	1.688103	0.976030	1.350593
C160	C	0.978123	0.356709	0.719256
C161	C	1.311456	0.690042	1.052590
C162	C	1.644790	1.023375	1.385923
C163	C	0.934796	0.404073	0.683894
C164	C	1.268129	0.737406	1.017227
C165	C	1.601462	1.070740	1.350560
C166	C	0.934786	0.404090	0.613207
C167	C	1.268119	0.737424	0.946540
C168	C	1.601452	1.070757	1.279873
C169	C	0.934834	0.404004	0.968967
C170	C	1.268167	0.737337	1.302301
C171	C	1.601501	1.070671	1.635634
C172	C	0.934849	0.403985	1.039659
C173	C	1.268182	0.737318	1.372993
C174	C	1.601515	1.070651	1.706326
C175	C	1.021484	0.309278	1.039687
C176	C	1.354817	0.642611	1.373020
C177	C	1.688151	0.975944	1.706354
C178	C	1.021474	0.309295	0.969000
C179	C	1.354807	0.642628	1.302333
C180	C	1.688141	0.975961	1.635667
C181	C	0.978145	0.356656	0.933644
C182	C	1.311478	0.689989	1.266977
C183	C	1.644811	1.023323	1.600310
C184	C	0.978137	0.356678	0.856995
C185	C	1.311470	0.690011	1.190329
C186	C	1.644803	1.023344	1.523662
C187	C	0.978134	0.356691	0.795903
C188	C	1.311467	0.690025	1.129237
C189	C	1.644801	1.023358	1.462570
H190	H	0.364557	0.442648	0.247443
H191	H	0.697891	0.775982	0.580776
H192	H	1.031224	1.109315	0.914110
H193	H	0.873154	0.920898	0.366624
H194	H	1.206487	1.254231	0.699958
H195	H	1.539821	1.587564	1.033291
H196	H	0.720466	0.270989	0.404772
H197	H	1.053799	0.604322	0.738106
H198	H	1.387133	0.937656	1.071439
H199	H	0.592232	0.271000	0.404778
H200	H	0.925566	0.604333	0.738112
H201	H	1.258899	0.937666	1.071445
F202	F	1.005870	0.926121	0.202296
F203	F	1.339204	1.259455	0.535629
F204	F	1.672537	1.592788	0.868963
F205	F	0.889947	0.925235	0.234873
F206	F	1.223280	1.258568	0.568206
F207	F	1.556613	1.591902	0.901539
F208	F	1.067533	0.258997	0.575644
F209	F	1.400866	0.592330	0.908977
F210	F	1.734199	0.925664	1.242310
F211	F	0.891019	0.785443	0.234194
F212	F	1.224353	1.118776	0.567527
F213	F	1.557686	1.452110	0.900861
F214	F	0.856298	0.786994	0.362593
F215	F	1.189631	1.120327	0.695926
F216	F	1.522965	1.453661	1.029260
H217	H	1.056746	0.270744	0.940238
H218	H	1.390080	0.604077	1.273571
H219	H	1.723413	0.937411	1.606905
H220	H	1.090203	0.791915	0.310571
H221	H	1.423536	1.125248	0.643905
H222	H	1.756869	1.458581	0.977238
F223	F	1.006817	0.786771	0.202331
F224	F	1.340150	1.120105	0.535665
F225	F	1.673483	1.453438	0.868998
H226	H	0.899527	0.442619	0.712665
H227	H	1.232860	0.775953	1.045998
H228	H	1.566194	1.109286	1.379332
H229	H	0.364706	0.271027	0.404795
H230	H	0.698039	0.604361	0.738129
H231	H	1.031372	0.937694	1.071462
H232	H	1.067287	0.920529	0.395545
H233	H	1.400621	1.253862	0.728878
H234	H	1.733954	1.587195	1.062211
H235	H	1.088555	0.919228	0.306225
H236	H	1.421888	1.252561	0.639559
H237	H	1.755221	1.585895	0.972892
H238	H	1.056715	0.270799	0.712711
H239	H	1.390049	0.604132	1.046045
H240	H	1.723382	0.937465	1.379378
F241	F	1.067598	0.258869	1.077321
F242	F	1.400931	0.592202	1.410655
F243	F	1.734264	0.925535	1.743988
H244	H	0.899575	0.442540	1.068423
H245	H	1.232908	0.775874	1.401756
H246	H	1.566242	1.109207	1.735090
F247	F	0.941535	0.926177	0.447937
F248	F	1.274868	1.259510	0.781270
F249	F	1.608202	1.592843	1.114604
F250	F	0.227636	0.259215	0.415650
F251	F	0.560969	0.592549	0.748983
F252	F	0.894303	0.925882	1.082317
H253	H	0.899562	0.442579	0.940189
H254	H	1.232895	0.775913	1.273522
H255	H	1.566229	1.109246	1.606855
H256	H	0.236323	0.442666	0.247458
H257	H	0.569656	0.775999	0.580791
H258	H	0.902990	1.109333	0.914124
F259	F	0.583236	0.454444	0.236588
F260	F	0.916569	0.787778	0.569921
F261	F	1.249903	1.121111	0.903254
F262	F	0.729155	0.454435	0.236578
F263	F	1.062489	0.787768	0.569911
F264	F	1.395822	1.121101	0.903245
F265	F	0.941458	0.786166	0.447546
F266	F	1.274792	1.119499	0.780880
F267	F	1.608125	1.452832	1.114213
F268	F	1.068309	0.786716	0.414596
F269	F	1.401642	1.120049	0.747930
F270	F	1.734976	1.453382	1.081263
F271	F	0.888674	0.454498	0.575577
F272	F	1.222008	0.787831	0.908910
F273	F	1.555341	1.121164	1.242244
