data_functionalizedCrystal
_audit_creation_method	'MofGen! by Chris Wilmer'
_symmetry_space_group_name_H-M	'P1'
_symmetry_Int_Tables_number	1
_symmetry_cell_setting	triclinic
loop_
_symmetry_equiv_pos_as_xyz
  x,y,z
_cell_length_a	23.532361
_cell_length_b	27.732048
_cell_length_c	22.010155
_cell_angle_alpha	89.999275
_cell_angle_beta	89.995873
_cell_angle_gamma	82.736162
loop_
_atom_site_label
_atom_site_type_symbol
_atom_site_fract_x
_atom_site_fract_y
_atom_site_fract_z
O1	O	0.755156	0.058565	-0.050471
O2	O	1.255156	0.558565	0.449529
O3	O	0.589271	0.067079	-0.050486
O4	O	1.089271	0.567079	0.449514
O5	O	0.677365	-0.007568	-0.050466
O6	O	1.177365	0.492432	0.449534
O7	O	0.667061	0.133211	-0.050491
O8	O	1.167061	0.633211	0.449509
O9	O	0.677349	-0.007557	0.050584
O10	O	1.177349	0.492443	0.550584
O11	O	0.589255	0.067090	0.050564
O12	O	1.089255	0.567090	0.550564
O13	O	0.755140	0.058576	0.050580
O14	O	1.255140	0.558576	0.550580
Cu15	Cu	0.672196	0.062834	0.059799
Cu16	Cu	1.172196	0.562834	0.559799
Cu17	Cu	0.672215	0.062821	-0.059705
Cu18	Cu	1.172215	0.562821	0.440295
O19	O	0.667045	0.133222	0.050560
O20	O	1.167045	0.633222	0.550560
C21	C	0.568046	0.066871	0.000037
C22	C	1.068046	0.566871	0.500037
C23	C	0.504829	0.066230	0.000032
C24	C	1.004829	0.566230	0.500032
C25	C	0.231600	0.063420	-0.055047
C26	C	0.731600	0.563420	0.444953
C27	C	0.290999	0.064027	-0.055048
C28	C	0.790999	0.564027	0.444952
O29	O	0.321731	0.064319	-0.101893
O30	O	0.821731	0.564319	0.398107
N31	N	0.320695	0.064339	0.000034
N32	N	0.820695	0.564339	0.500034
C33	C	0.290991	0.064040	0.055122
C34	C	0.790991	0.564040	0.555122
O35	O	0.321704	0.064361	0.101974
O36	O	0.821704	0.564361	0.601974
C37	C	0.231594	0.063430	0.055123
C38	C	0.731594	0.563430	0.555123
C39	C	0.201900	0.063122	0.000037
C40	C	0.701900	0.563122	0.500037
C41	C	0.201906	0.063112	-0.110128
C42	C	0.701906	0.563112	0.389872
C43	C	0.142512	0.062506	-0.110127
C44	C	0.642512	0.562506	0.389873
C45	C	0.112811	0.062208	-0.055043
C46	C	0.612811	0.562208	0.444957
C47	C	0.142505	0.062516	0.000039
C48	C	0.642505	0.562516	0.500039
C49	C	0.201891	0.063127	0.110211
C50	C	0.701891	0.563127	0.610211
C51	C	0.142490	0.062517	0.110207
C52	C	0.642490	0.562517	0.610207
C53	C	0.112796	0.062209	0.055121
C54	C	0.612796	0.562209	0.555121
C55	C	0.053410	0.061613	0.055124
C56	C	0.553410	0.561613	0.555124
N57	N	0.023714	0.061300	0.000042
N58	N	0.523714	0.561300	0.500042
C59	C	0.053414	0.061598	-0.055042
C60	C	0.553414	0.561598	0.444958
C61	C	0.415728	0.065321	0.055116
C62	C	0.915728	0.565321	0.555116
C63	C	0.475123	0.065935	0.055116
C64	C	0.975123	0.565935	0.555116
C65	C	0.475127	0.065920	-0.055055
C66	C	0.975127	0.565920	0.444945
C67	C	0.415731	0.065310	-0.055054
C68	C	0.915731	0.565310	0.444946
C69	C	0.386032	0.065008	0.000033
C70	C	0.886032	0.565008	0.500033
C71	C	-0.071318	0.060326	-0.055034
C72	C	0.428682	0.560326	0.444966
C73	C	-0.130718	0.059722	-0.055027
C74	C	0.369282	0.559722	0.444973
C75	C	-0.130717	0.059734	0.055143
C76	C	0.369283	0.559734	0.555143
C77	C	-0.071323	0.060341	0.055137
C78	C	0.428677	0.560341	0.555137
C79	C	-0.041624	0.060635	0.000043
C80	C	0.458376	0.560635	0.500043
O81	O	0.022640	0.061319	0.101945
O82	O	0.522640	0.561319	0.601945
O83	O	0.022695	0.061270	-0.101886
O84	O	0.522695	0.561270	0.398114
C85	C	0.677141	-0.025570	0.000060
C86	C	1.177141	0.474430	0.500060
C87	C	0.676490	-0.079225	0.000065
C88	C	1.176490	0.420775	0.500065
C89	C	0.724448	-0.417973	0.000039
C90	C	1.224448	0.082027	0.500039
C91	C	0.722031	-0.619636	0.000030
C92	C	1.222031	-0.119636	0.500030
O93	O	0.765885	-0.650831	0.000007
O94	O	1.265885	-0.150831	0.500007
N95	N	0.669795	-0.638833	0.000026
N96	N	1.169795	-0.138833	0.500026
C97	C	0.618158	-0.607611	0.000020
C98	C	1.118158	-0.107611	0.500020
O99	O	0.573673	-0.628566	0.000009
O100	O	1.073673	-0.128566	0.500009
C101	C	0.620576	-0.405949	0.000024
C102	C	1.120576	0.094051	0.500024
C103	C	0.672815	-0.386755	0.000034
C104	C	1.172815	0.113245	0.500034
C105	C	0.776683	-0.398779	0.000048
C106	C	1.276683	0.101221	0.500048
C107	C	0.777287	-0.348366	0.000054
C108	C	1.277287	0.151634	0.500054
C109	C	0.725655	-0.317148	0.000050
C110	C	1.225655	0.182852	0.500050
C111	C	0.673419	-0.336342	0.000040
C112	C	1.173419	0.163658	0.500040
C113	C	0.568940	-0.374727	0.000013
C114	C	1.068940	0.125273	0.500013
C115	C	0.569549	-0.324309	0.000013
C116	C	1.069549	0.175691	0.500013
C117	C	0.621789	-0.305115	0.000023
C118	C	1.121789	0.194885	0.500023
C119	C	0.622391	-0.254711	0.000041
C120	C	1.122391	0.245289	0.500041
N121	N	0.674627	-0.235514	0.000045
N122	N	1.174627	0.264486	0.500045
C123	C	0.726259	-0.266733	0.000050
C124	C	1.226259	0.233267	0.500050
C125	C	0.616893	-0.713486	0.000018
C126	C	1.116893	-0.213486	0.500018
C127	C	0.616289	-0.763902	0.000018
C128	C	1.116289	-0.263902	0.500018
C129	C	0.720162	-0.775924	0.000028
C130	C	1.220162	-0.275924	0.500028
C131	C	0.720765	-0.725508	0.000032
C132	C	1.220765	-0.225508	0.500032
C133	C	0.669130	-0.694290	0.000023
C134	C	1.169130	-0.194290	0.500023
C135	C	0.727523	-0.160862	0.000062
C136	C	1.227523	0.339138	0.500062
C137	C	0.728122	-0.110444	0.000070
C138	C	1.228122	0.389556	0.500070
C139	C	0.624249	-0.098426	0.000057
C140	C	1.124249	0.401574	0.500057
C141	C	0.623650	-0.148839	0.000052
C142	C	1.123650	0.351161	0.500052
C143	C	0.675291	-0.180056	0.000053
C144	C	1.175291	0.319944	0.500053
O145	O	0.578560	-0.223488	0.000057
O146	O	1.078560	0.276512	0.500057
O147	O	0.770738	-0.245768	0.000046
O148	O	1.270738	0.254232	0.500046
C149	C	0.723844	-0.468386	0.000033
C150	C	1.223844	0.031614	0.500033
C151	C	0.671608	-0.487580	0.000023
C152	C	1.171608	0.012420	0.500023
C153	C	0.619976	-0.456362	0.000019
C154	C	1.119976	0.043638	0.500019
C155	C	0.671004	-0.537996	0.000023
C156	C	1.171004	-0.037996	0.500023
C157	C	0.722636	-0.569214	0.000028
C158	C	1.222636	-0.069214	0.500028
C159	C	0.774873	-0.550018	0.000032
C160	C	1.274873	-0.050018	0.500032
C161	C	0.775476	-0.499605	0.000037
C162	C	1.275476	0.000395	0.500037
C163	C	0.567740	-0.475559	0.000015
C164	C	1.067740	0.024441	0.500015
C165	C	0.567140	-0.525972	0.000010
C166	C	1.067140	-0.025972	0.500010
C167	C	0.618772	-0.557190	0.000014
C168	C	1.118772	-0.057190	0.500014
C169	C	0.776364	0.058784	0.000055
C170	C	1.276364	0.558784	0.500055
C171	C	0.839581	0.059425	0.000056
C172	C	1.339581	0.559425	0.500056
C173	C	0.667269	0.151224	0.000032
C174	C	1.167269	0.651224	0.500032
C175	C	0.667921	0.204880	0.000023
C176	C	1.167921	0.704880	0.500023
N177	N	0.672187	0.062843	0.143851
N178	N	1.172187	0.562843	0.643851
N179	N	0.672228	0.062808	-0.143758
N180	N	1.172228	0.562808	0.356242
C181	C	0.711225	0.029772	0.563639
C182	C	1.211225	0.529772	1.063639
C183	C	0.711228	0.029768	0.627247
C184	C	1.211228	0.529768	1.127247
O185	O	0.744397	0.001657	0.660146
O186	O	1.244397	0.501657	1.160146
N187	N	0.672214	0.062811	0.659058
N188	N	1.172214	0.562811	1.159058
C189	C	0.633192	0.095855	0.627259
C190	C	1.133192	0.595855	1.127259
O191	O	0.600008	0.123959	0.660157
O192	O	1.100008	0.623959	1.160157
C193	C	0.633187	0.095855	0.563652
C194	C	1.133187	0.595855	1.063652
C195	C	0.672207	0.062814	0.531844
C196	C	1.172207	0.562814	1.031844
C197	C	0.750241	-0.003267	0.531831
C198	C	1.250241	0.496733	1.031831
C199	C	0.750239	-0.003263	0.468228
C200	C	1.250239	0.496737	0.968228
C201	C	0.711221	0.029780	0.436433
C202	C	1.211221	0.529780	0.936433
C203	C	0.672205	0.062819	0.468241
C204	C	1.172205	0.562819	0.968241
C205	C	0.594162	0.128897	0.531854
C206	C	1.094162	0.628897	1.031854
C207	C	0.594160	0.128894	0.468243
C208	C	1.094160	0.628894	0.968243
C209	C	0.633180	0.095854	0.436435
C210	C	1.133180	0.595854	0.936435
C211	C	0.633184	0.095865	0.372843
C212	C	1.133184	0.595865	0.872843
N213	N	0.672198	0.062823	0.341031
N214	N	1.172198	0.562823	0.841031
C215	C	0.711216	0.029781	0.372826
C216	C	1.211216	0.529781	0.872826
C217	C	0.633205	0.095850	0.760836
C218	C	1.133205	0.595850	1.260836
C219	C	0.633212	0.095852	0.824442
C220	C	1.133212	0.595852	1.324442
C221	C	0.711247	0.029765	0.824426
C222	C	1.211247	0.529765	1.324426
C223	C	0.711242	0.029766	0.760819
C224	C	1.211242	0.529766	1.260819
C225	C	0.672218	0.062808	0.729025
C226	C	1.172218	0.562808	1.229025
C227	C	0.711209	0.029792	0.239255
C228	C	1.211209	0.529792	0.739255
C229	C	0.711205	0.029800	0.175646
C230	C	1.211205	0.529800	0.675646
C231	C	0.633168	0.095885	0.175668
C232	C	1.133168	0.595885	0.675668
C233	C	0.633174	0.095879	0.239271
C234	C	1.133174	0.595879	0.739271
C235	C	0.672196	0.062828	0.271063
C236	C	1.172196	0.562828	0.771063
O237	O	0.600031	0.123961	0.339903
O238	O	1.100031	0.623961	0.839903
O239	O	0.744390	0.001677	0.339920
O240	O	1.244390	0.501677	0.839920
H241	H	0.118341	0.062253	-0.154984
H242	H	0.618341	0.562253	0.345016
Br243	Br	0.515446	0.066327	-0.129812
Br244	Br	1.015446	0.566327	0.370188
H245	H	0.574843	-0.688072	0.000011
H246	H	1.074843	-0.188072	0.500011
Br247	Br	-0.171014	0.059307	-0.129792
Br248	Br	0.328986	0.559307	0.370208
H249	H	0.818731	-0.424193	0.000050
H250	H	1.318731	0.075807	0.500050
H251	H	0.118312	0.062275	0.155067
H252	H	0.618312	0.562275	0.655067
H253	H	0.226058	0.063376	0.155068
H254	H	0.726058	0.563376	0.655068
Br255	Br	0.764201	-0.015078	0.867590
Br256	Br	1.264201	0.484922	1.367590
Br257	Br	0.242203	0.063514	-0.184895
Br258	Br	0.742203	0.563514	0.315105
H259	H	-0.047146	0.060601	0.099993
H260	H	0.452854	0.560601	0.599993
Br261	Br	0.541204	0.173740	0.575009
Br262	Br	1.041204	0.673740	1.075009
Br263	Br	-0.171037	0.059333	0.129896
Br264	Br	0.328963	0.559333	0.629896
Br265	Br	0.764199	-0.015077	0.717658
Br266	Br	1.264199	0.484923	1.217658
H267	H	0.763304	-0.709884	0.000040
H268	H	1.263304	-0.209884	0.500040
Br269	Br	0.799023	-0.084399	0.000085
Br270	Br	1.299023	0.415601	0.500085
Br271	Br	0.541193	0.173739	0.425098
Br272	Br	1.041193	0.673739	0.925098
H273	H	0.391558	0.065060	-0.099910
H274	H	0.891558	0.565060	0.400090
Br275	Br	0.580224	0.140728	0.282438
Br276	Br	1.080224	0.640728	0.782438
H277	H	0.601401	0.122790	0.149770
H278	H	1.101401	0.622790	0.649770
Br279	Br	0.580264	0.140703	0.867603
Br280	Br	1.080264	0.640703	1.367603
Br281	Br	0.803201	-0.048117	0.574971
Br282	Br	1.303201	0.451883	1.074971
Br283	Br	0.797608	-0.203220	0.000061
Br284	Br	1.297608	0.296780	0.500061
H285	H	0.499294	0.066193	0.099973
H286	H	0.999294	0.566193	0.599973
H287	H	0.573750	-0.779524	0.000020
H288	H	1.073750	-0.279524	0.500020
H289	H	0.525694	-0.450145	0.000010
H290	H	1.025694	0.049855	0.500010
H291	H	-0.047145	0.060566	-0.099896
H292	H	0.452855	0.560566	0.400104
Br293	Br	0.764166	-0.015042	0.132481
Br294	Br	1.264166	0.484958	0.632481
H295	H	0.601428	0.122761	0.734953
H296	H	1.101428	0.622761	1.234953
Br297	Br	0.790233	-0.818302	0.000032
Br298	Br	1.290233	-0.318302	0.500032
Br299	Br	0.375428	0.064918	0.129885
Br300	Br	0.875428	0.564918	0.629885
Br301	Br	0.848188	-0.322326	0.000051
Br302	Br	1.348188	0.177674	0.500051
H303	H	0.526401	-0.390345	0.000001
H304	H	1.026401	0.109655	0.500001
H305	H	0.582212	-0.072999	0.000056
H306	H	1.082212	0.427001	0.500056
Br307	Br	0.552753	-0.174889	0.000052
Br308	Br	1.052753	0.325111	0.500052
Br309	Br	0.499468	-0.281944	-0.000002
Br310	Br	0.999468	0.218056	0.499998
Br311	Br	0.764169	-0.015063	0.282391
Br312	Br	1.264169	0.484937	0.782391
Br313	Br	0.496236	-0.552013	0.000001
Br314	Br	0.996236	-0.052013	0.500001
H315	H	0.818015	-0.483982	0.000046
H316	H	1.318015	0.016018	0.500046
Br317	Br	0.844944	-0.592396	0.000043
Br318	Br	1.344944	-0.092396	0.500043
H319	H	0.782011	-0.030169	0.442333
H320	H	1.282011	0.469831	0.942333
