data_functionalizedCrystal
_audit_creation_method	'MofGen! by Chris Wilmer'
_symmetry_space_group_name_H-M	'P1'
_symmetry_Int_Tables_number	1
_symmetry_cell_setting	triclinic
loop_
_symmetry_equiv_pos_as_xyz
  x,y,z
_cell_length_a	21.295418
_cell_length_b	25.639233
_cell_length_c	21.295417
_cell_angle_alpha	89.979137
_cell_angle_beta	90.046319
_cell_angle_gamma	89.967403
loop_
_atom_site_label
_atom_site_type_symbol
_atom_site_fract_x
_atom_site_fract_y
_atom_site_fract_z
Zn1	Zn	0.962287	-0.295880	-0.250420
Zn2	Zn	1.462287	0.204120	0.249580
Zn3	Zn	0.962209	-0.208441	-0.355671
Zn4	Zn	1.462209	0.291559	0.144329
Zn5	Zn	0.857030	-0.208428	-0.250448
Zn6	Zn	1.357030	0.291572	0.249552
Zn7	Zn	0.856979	-0.295815	-0.355684
Zn8	Zn	1.356979	0.204185	0.144316
O9	O	0.909626	-0.252141	-0.303056
O10	O	1.409626	0.247859	0.196944
O11	O	1.050366	-0.284314	-0.264364
O12	O	1.550366	0.215686	0.235636
O13	O	0.948246	-0.135274	-0.341719
O14	O	1.448246	0.364726	0.158281
O15	O	0.871046	-0.220051	-0.162355
O16	O	1.371046	0.279949	0.337645
O17	O	1.050309	-0.220073	-0.341691
O18	O	1.550309	0.279927	0.158309
O19	O	0.948378	-0.284301	-0.162334
O20	O	1.448378	0.215699	0.337666
O21	O	0.870972	-0.135265	-0.264412
O22	O	1.370972	0.364735	0.235588
O23	O	0.768934	-0.219988	-0.264426
O24	O	1.268934	0.280012	0.235574
O25	O	0.870959	-0.368989	-0.341715
O26	O	1.370959	0.131011	0.158285
O27	O	0.768896	-0.284191	-0.341742
O28	O	1.268896	0.215809	0.158258
O29	O	0.948328	-0.369037	-0.264378
O30	O	1.448328	0.130963	0.235622
O31	O	0.948197	-0.220010	-0.443762
O32	O	1.448197	0.279990	0.056238
O33	O	0.870884	-0.284203	-0.443772
O34	O	1.370884	0.215797	0.056228
C35	C	0.746075	-0.252081	-0.303089
C36	C	1.246075	0.247919	0.196911
C37	C	0.676107	-0.252068	-0.303118
C38	C	1.176107	0.247932	0.196882
C39	C	0.643237	-0.285448	-0.343430
C40	C	1.143237	0.214552	0.156570
C41	C	0.577494	-0.285472	-0.343415
C42	C	1.077494	0.214528	0.156585
C43	C	0.544624	-0.252105	-0.303094
C44	C	1.044624	0.247895	0.196906
C45	C	0.577502	-0.218723	-0.262774
C46	C	1.077502	0.281277	0.237226
C47	C	0.643243	-0.218704	-0.262786
C48	C	1.143243	0.281296	0.237214
N49	N	0.441359	-0.206376	-0.298166
N50	N	0.941359	0.293624	0.201834
N51	N	0.378907	-0.206395	-0.298158
N52	N	0.878907	0.293605	0.201842
C53	C	0.346549	-0.252161	-0.303054
C54	C	0.846549	0.247839	0.196946
N55	N	0.379002	-0.297908	-0.307970
N56	N	0.879002	0.202092	0.192030
N57	N	0.441459	-0.297888	-0.307981
N58	N	0.941459	0.202112	0.192019
C59	C	0.473339	-0.252122	-0.303076
C60	C	0.973339	0.247878	0.196924
C61	C	0.242394	-0.285569	-0.343351
C62	C	0.742394	0.214431	0.156649
C63	C	0.176650	-0.285594	-0.343331
C64	C	0.676650	0.214406	0.156669
C65	C	0.176659	-0.218840	-0.262694
C66	C	0.676659	0.281160	0.237306
C67	C	0.242402	-0.218820	-0.262710
C68	C	0.742402	0.281180	0.237290
C69	C	0.275265	-0.252184	-0.303042
C70	C	0.775265	0.247816	0.196958
C71	C	0.909647	-0.388514	-0.303045
C72	C	1.409647	0.111486	0.196955
C73	C	0.909655	-0.446628	-0.303040
C74	C	1.409655	0.053372	0.196960
C75	C	0.949992	-0.807022	-0.262651
C76	C	1.449992	-0.307022	0.237349
C77	C	0.950000	-0.861626	-0.262634
C78	C	1.450000	-0.361626	0.237366
O79	O	0.984245	-0.889889	-0.228367
O80	O	1.484245	-0.389889	0.271633
N81	N	0.909725	-0.888911	-0.302892
N82	N	1.409725	-0.388911	0.197108
C83	C	0.869434	-0.861589	-0.343167
C84	C	1.369434	-0.361589	0.156833
O85	O	0.835177	-0.889810	-0.377408
O86	O	1.335177	-0.389810	0.122592
C87	C	0.869424	-0.806985	-0.343181
C88	C	1.369424	-0.306985	0.156819
C89	C	0.909706	-0.779703	-0.302924
C90	C	1.409706	-0.279703	0.197076
C91	C	0.990271	-0.779740	-0.222397
C92	C	1.490271	-0.279740	0.277603
C93	C	0.990264	-0.725140	-0.222415
C94	C	1.490264	-0.225140	0.277585
C95	C	0.949978	-0.697821	-0.262688
C96	C	1.449978	-0.197821	0.237312
C97	C	0.909699	-0.725103	-0.302942
C98	C	1.409699	-0.225103	0.197058
C99	C	0.829131	-0.779664	-0.383452
C100	C	1.329131	-0.279664	0.116548
C101	C	0.829123	-0.725057	-0.383462
C102	C	1.329123	-0.225057	0.116538
C103	C	0.869406	-0.697775	-0.343204
C104	C	1.369406	-0.197775	0.156796
C105	C	0.869406	-0.643184	-0.343233
C106	C	1.369406	-0.143184	0.156767
N107	N	0.909682	-0.615899	-0.302974
N108	N	1.409682	-0.115899	0.197026
C109	C	0.949968	-0.643218	-0.262701
C110	C	1.449968	-0.143218	0.237299
C111	C	0.869459	-0.976259	-0.343134
C112	C	1.369459	-0.476259	0.156866
C113	C	0.869472	-1.030862	-0.343124
C114	C	1.369472	-0.530862	0.156876
C115	C	0.950037	-1.030896	-0.262590
C116	C	1.450037	-0.530896	0.237410
C117	C	0.950026	-0.976292	-0.262603
C118	C	1.450026	-0.476292	0.237397
C119	C	0.909734	-0.948975	-0.302875
C120	C	1.409734	-0.448975	0.197125
C121	C	0.949950	-0.528552	-0.262744
C122	C	1.449950	-0.028552	0.237256
C123	C	0.949941	-0.473947	-0.262767
C124	C	1.449941	0.026053	0.237233
C125	C	0.869374	-0.473918	-0.343299
C126	C	1.369374	0.026082	0.156701
C127	C	0.869385	-0.528518	-0.343278
C128	C	1.369385	-0.028518	0.156722
C129	C	0.909675	-0.555834	-0.302995
C130	C	1.409675	-0.055834	0.197005
O131	O	0.835177	-0.614886	-0.377480
O132	O	1.335177	-0.114886	0.122520
O133	O	0.984213	-0.614989	-0.228460
O134	O	1.484213	-0.114989	0.271540
C135	C	1.073817	-0.252202	-0.303023
C136	C	1.573817	0.247798	0.196977
C137	C	1.143785	-0.252228	-0.303009
C138	C	1.643785	0.247772	0.196991
C139	C	0.909544	-0.252112	-0.466608
C140	C	1.409544	0.247888	0.033392
C141	C	0.909566	-0.252117	-0.536576
C142	C	1.409566	0.247883	-0.036576
C143	C	0.909642	-0.116299	-0.303021
C144	C	1.409642	0.383701	0.196979
C145	C	0.909756	-0.058185	-0.302849
C146	C	1.409756	0.441815	0.197151
C147	C	0.949858	-0.218726	-0.569416
C148	C	1.449858	0.281274	-0.069416
C149	C	0.949888	-0.218738	-0.635158
C150	C	1.449888	0.281262	-0.135158
C151	C	0.909614	-0.252135	-0.668058
C152	C	1.409614	0.247865	-0.168058
C153	C	0.869319	-0.285533	-0.635210
C154	C	1.369319	0.214467	-0.135210
C155	C	0.869295	-0.285524	-0.569468
C156	C	1.369295	0.214476	-0.069468
N157	N	0.854546	-0.256101	-0.771340
N158	N	1.354546	0.243899	-0.271340
N159	N	0.854570	-0.256107	-0.833791
N160	N	1.354570	0.243893	-0.333791
C161	C	0.909684	-0.252165	-0.866133
C162	C	1.409684	0.247835	-0.366133
N163	N	0.964774	-0.248208	-0.833663
N164	N	1.464774	0.251792	-0.333663
N165	N	0.964749	-0.248200	-0.771206
N166	N	1.464749	0.251800	-0.271206
C167	C	0.909636	-0.252149	-0.739343
C168	C	1.409636	0.247851	-0.239343
C169	C	0.950012	-0.218785	-0.970259
C170	C	1.450012	0.281215	-0.470259
C171	C	0.950043	-0.218801	-1.036002
C172	C	1.450043	0.281199	-0.536002
C173	C	0.869468	-0.285593	-1.036052
C174	C	1.369468	0.214407	-0.536052
C175	C	0.869443	-0.285580	-0.970310
C176	C	1.369443	0.214420	-0.470310
C177	C	0.909714	-0.252174	-0.937417
C178	C	1.409714	0.247826	-0.437417
C179	C	0.909726	-0.252182	-0.138866
C180	C	1.409726	0.247818	0.361134
C181	C	0.909769	-0.252199	-0.068897
C182	C	1.409769	0.247801	0.431103
H183	H	0.550727	-0.312656	-0.376241
H184	H	1.050727	0.187344	0.123759
O185	O	0.989217	-0.949768	-0.223583
O186	O	1.489217	-0.449768	0.276417
C187	C	1.074172	-0.888126	-0.215096
C188	C	1.574172	-0.388126	0.284904
C189	C	1.029840	-0.918138	-0.259363
C190	C	1.529840	-0.418138	0.240637
H191	H	1.107018	-0.862537	-0.244006
H192	H	1.607018	-0.362537	0.255994
H193	H	1.103012	-0.917011	-0.186322
H194	H	1.603012	-0.417011	0.313678
H195	H	1.045270	-0.862583	-0.182179
H196	H	1.545270	-0.362583	0.317821
H197	H	1.058693	-0.943681	-0.292318
H198	H	1.558693	-0.443681	0.207682
H199	H	1.000998	-0.889224	-0.288093
H200	H	1.500998	-0.389224	0.211907
H201	H	0.269153	-0.312739	-0.376189
H202	H	0.769153	0.187261	0.123811
H203	H	0.149897	-0.191675	-0.229861
H204	H	0.649897	0.308325	0.270139
H205	H	0.149889	-0.312779	-0.376157
H206	H	0.649889	0.187221	0.123843
O207	O	0.830209	-0.317943	-0.537467
O208	O	1.330209	0.182057	-0.037467
C209	C	0.794434	-0.347503	-0.436211
C210	C	1.294434	0.152497	0.063789
C211	C	0.838742	-0.310772	-0.472375
C212	C	1.338742	0.189228	0.027625
H213	H	0.801308	-0.341710	-0.383578
H214	H	1.301308	0.158290	0.116422
H215	H	0.805460	-0.389687	-0.449046
H216	H	1.305460	0.110313	0.050954
H217	H	0.743695	-0.338277	-0.449242
H218	H	1.243695	0.161723	0.050758
H219	H	0.889496	-0.319951	-0.459364
H220	H	1.389496	0.180049	0.040636
H221	H	0.827662	-0.268598	-0.459537
H222	H	1.327662	0.231402	0.040463
O223	O	0.830176	-0.318024	-0.667068
O224	O	1.330176	0.181976	-0.167068
C225	C	0.750233	-0.384252	-0.660181
C226	C	1.250233	0.115748	-0.160181
C227	C	0.794538	-0.347487	-0.624025
C228	C	1.294538	0.152513	-0.124025
H229	H	0.721399	-0.408074	-0.625396
H230	H	1.221399	0.091926	-0.125396
H231	H	0.779092	-0.411658	-0.690892
H232	H	1.279092	0.088342	-0.190892
H233	H	0.717374	-0.360209	-0.691029
H234	H	1.217374	0.139791	-0.191029
H235	H	0.827406	-0.371487	-0.593142
H236	H	1.327406	0.128513	-0.093142
H237	H	0.765640	-0.320079	-0.593353
H238	H	1.265640	0.179921	-0.093353
O239	O	0.989218	-0.186456	-1.068003
O240	O	1.489218	0.313544	-0.568003
C241	C	1.025061	-0.156950	-1.169257
C242	C	1.525061	0.343050	-0.669257
C243	C	0.980639	-0.193586	-1.133095
C244	C	1.480639	0.306414	-0.633095
H245	H	1.018131	-0.162694	-1.221891
H246	H	1.518131	0.337306	-0.721891
H247	H	1.075796	-0.166239	-1.156270
H248	H	1.575796	0.333761	-0.656270
H249	H	1.014112	-0.114762	-1.156376
H250	H	1.514112	0.385238	-0.656376
H251	H	0.991532	-0.235786	-1.145956
H252	H	1.491532	0.264214	-0.645956
H253	H	0.929918	-0.184252	-1.146085
H254	H	1.429918	0.315748	-0.646085
O255	O	0.545548	-0.186251	-0.223699
O256	O	1.045548	0.313749	0.276301
C257	C	0.471233	-0.115711	-0.215094
C258	C	0.971233	0.384289	0.284906
C259	C	0.507390	-0.152444	-0.259422
C260	C	1.007390	0.347556	0.240578
H261	H	0.440364	-0.088376	-0.243958
H262	H	0.940364	0.411624	0.256042
H263	H	0.505996	-0.091811	-0.186296
H264	H	1.005996	0.408189	0.313704
H265	H	0.440539	-0.139783	-0.182203
H266	H	0.940539	0.360217	0.317797
H267	H	0.538086	-0.128413	-0.292351
H268	H	1.038086	0.371587	0.207649
H269	H	0.472594	-0.176347	-0.288176
H270	H	0.972594	0.323653	0.211824
H271	H	0.836676	-1.053070	-0.375912
H272	H	1.336676	-0.553070	0.124088
O273	O	0.274237	-0.186341	-0.223535
O274	O	0.774237	0.313659	0.276465
C275	C	0.267306	-0.120157	-0.143526
C276	C	0.767306	0.379843	0.356474
C277	C	0.231174	-0.156904	-0.187874
C278	C	0.731174	0.343096	0.312126
H279	H	0.232506	-0.096356	-0.114673
H280	H	0.732506	0.403644	0.385327
H281	H	0.298008	-0.092730	-0.172353
H282	H	0.798008	0.407270	0.327647
H283	H	0.298161	-0.144212	-0.110687
H284	H	0.798161	0.355788	0.389313
H285	H	0.200286	-0.132891	-0.220722
H286	H	0.700286	0.367109	0.279278
H287	H	0.200512	-0.184333	-0.159008
H288	H	0.700512	0.315667	0.340992
O289	O	0.830325	-0.318085	-1.067906
O290	O	1.330325	0.181915	-0.567906
C291	C	0.750379	-0.384310	-1.061017
C292	C	1.250379	0.115690	-0.561017
C293	C	0.794685	-0.347545	-1.024862
C294	C	1.294685	0.152455	-0.524862
H295	H	0.721543	-0.408130	-1.026232
H296	H	1.221543	0.091870	-0.526232
H297	H	0.779238	-0.411719	-1.091725
H298	H	1.279238	0.088281	-0.591725
H299	H	0.717522	-0.360267	-1.091868
H300	H	1.217522	0.139733	-0.591868
H301	H	0.827550	-0.371545	-0.993977
H302	H	1.327550	0.128455	-0.493977
H303	H	0.765786	-0.320134	-0.994193
H304	H	1.265786	0.179866	-0.494193
O305	O	0.988952	-0.186208	-0.537536
O306	O	1.488952	0.313792	-0.037536
C307	C	1.019556	-0.097300	-0.517417
C308	C	1.519556	0.402700	-0.017417
C309	C	0.975251	-0.134066	-0.553572
C310	C	1.475251	0.365934	-0.053572
H311	H	1.008485	-0.055135	-0.530359
H312	H	1.508485	0.444865	-0.030359
H313	H	1.070320	-0.106494	-0.530295
H314	H	1.570320	0.393506	-0.030295
H315	H	1.012633	-0.103054	-0.464791
H316	H	1.512633	0.396946	0.035209
H317	H	0.982118	-0.128332	-0.606207
H318	H	1.482118	0.371668	-0.106207
H319	H	0.924503	-0.124862	-0.540642
H320	H	1.424503	0.375138	-0.040642
H321	H	0.670005	-0.191521	-0.229957
H322	H	1.170005	0.308479	0.270043
O323	O	0.989108	-0.186323	-0.667006
O324	O	1.489108	0.313677	-0.167006
C325	C	1.096203	-0.161059	-0.687073
C326	C	1.596203	0.338941	-0.187073
C327	C	1.051863	-0.197794	-0.650954
C328	C	1.551863	0.302206	-0.150954
H329	H	1.146950	-0.170327	-0.674118
H330	H	1.646950	0.329673	-0.174118
H331	H	1.085222	-0.118879	-0.674178
H332	H	1.585222	0.381121	-0.174178
H333	H	1.089258	-0.166800	-0.739705
H334	H	1.589258	0.333200	-0.239705
H335	H	1.058783	-0.192099	-0.598314
H336	H	1.558783	0.307901	-0.098314
H337	H	1.062855	-0.239960	-0.663902
H338	H	1.562855	0.260040	-0.163902
H339	H	0.836647	-0.954020	-0.375932
H340	H	1.336647	-0.454020	0.124068
H341	H	0.982805	-0.191585	-0.943476
H342	H	1.482805	0.308415	-0.443476
O343	O	0.989092	-0.447527	-0.223599
O344	O	1.489092	0.052473	0.276401
C345	C	1.069029	-0.453334	-0.143745
C346	C	1.569029	0.046666	0.356255
C347	C	1.024715	-0.483316	-0.188060
C348	C	1.524715	0.016684	0.311940
H349	H	1.097851	-0.482256	-0.115009
H350	H	1.597851	0.017744	0.384991
H351	H	1.040176	-0.427776	-0.110801
H352	H	1.540176	0.072224	0.389199
H353	H	1.101898	-0.427766	-0.172656
H354	H	1.601898	0.072234	0.327344
H355	H	0.991837	-0.508912	-0.159199
H356	H	1.491837	-0.008912	0.340801
H357	H	1.053607	-0.508841	-0.221006
H358	H	1.553607	-0.008841	0.278994
H359	H	0.982756	-0.550787	-0.229939
H360	H	1.482756	-0.050787	0.270061
O361	O	0.830387	-0.318068	-0.938378
O362	O	1.330387	0.181932	-0.438378
C363	C	0.821827	-0.388618	-0.864090
C364	C	1.321827	0.111382	-0.364090
C365	C	0.866131	-0.351863	-0.900224
C366	C	1.366131	0.148137	-0.400224
H367	H	0.850708	-0.415943	-0.833224
H368	H	1.350708	0.084057	-0.333224
H369	H	0.793057	-0.412528	-0.898867
H370	H	1.293057	0.087472	-0.398867
H371	H	0.788908	-0.364563	-0.833394
H372	H	1.288908	0.135437	-0.333394
H373	H	0.899087	-0.375877	-0.930921
H374	H	1.399087	0.124123	-0.430921
H375	H	0.894856	-0.327951	-0.865413
H376	H	1.394856	0.172049	-0.365413
H377	H	1.023065	-0.702932	-0.189632
H378	H	1.523065	-0.202932	0.310368
O379	O	0.675062	-0.317909	-0.382624
O380	O	1.175062	0.182091	0.117376
C381	C	0.668112	-0.384096	-0.462632
C382	C	1.168112	0.115904	0.037368
C383	C	0.631991	-0.347368	-0.418269
C384	C	1.131991	0.152632	0.081731
H385	H	0.633305	-0.407915	-0.491472
H386	H	1.133305	0.092085	0.008528
H387	H	0.698931	-0.411507	-0.433817
H388	H	1.198931	0.088493	0.066183
H389	H	0.698850	-0.360024	-0.495482
H390	H	1.198850	0.139976	0.004518
H391	H	0.601219	-0.371398	-0.385410
H392	H	1.101219	0.128602	0.114590
H393	H	0.601212	-0.319956	-0.447122
H394	H	1.101212	0.180044	0.052878
H395	H	1.023077	-0.801977	-0.189598
H396	H	1.523077	-0.301977	0.310402
H397	H	0.982838	-1.053148	-0.229796
H398	H	1.482838	-0.553148	0.270204
O399	O	0.790027	-0.806095	-0.422646
O400	O	1.290027	-0.306095	0.077354
C401	C	0.759416	-0.822777	-0.529728
C402	C	1.259416	-0.322777	-0.029728
C403	C	0.803735	-0.792806	-0.485407
C404	C	1.303735	-0.292806	0.014593
H405	H	0.770491	-0.812053	-0.580480
H406	H	1.270491	-0.312053	-0.080480
H407	H	0.708656	-0.812005	-0.518730
H408	H	1.208656	-0.312005	-0.018730
H409	H	0.766318	-0.866497	-0.522780
H410	H	1.266318	-0.366497	-0.022780
H411	H	0.796888	-0.749080	-0.492330
H412	H	1.296888	-0.249080	0.007670
H413	H	0.854478	-0.803622	-0.496416
H414	H	1.354478	-0.303622	0.003584
O415	O	0.790074	-0.698461	-0.422616
O416	O	1.290074	-0.198461	0.077384
C417	C	0.781550	-0.636826	-0.507652
C418	C	1.281550	-0.136826	-0.007652
C419	C	0.825839	-0.666905	-0.463340
C420	C	1.325839	-0.166905	0.036660
H421	H	0.810449	-0.611314	-0.540597
H422	H	1.310449	-0.111314	-0.040597
H423	H	0.748660	-0.611216	-0.478801
H424	H	1.248660	-0.111216	0.021199
H425	H	0.752749	-0.665715	-0.536393
H426	H	1.252749	-0.165715	-0.036393
H427	H	0.854682	-0.638053	-0.434589
H428	H	1.354682	-0.138053	0.065411
H429	H	0.858688	-0.692523	-0.492227
H430	H	1.358688	-0.192523	0.007773
O431	O	0.830201	-0.554942	-0.382407
O432	O	1.330201	-0.054942	0.117593
C433	C	0.750318	-0.549139	-0.462315
C434	C	1.250318	-0.049139	0.037685
C435	C	0.794656	-0.519154	-0.418027
C436	C	1.294656	-0.019154	0.081973
H437	H	0.721578	-0.520217	-0.491134
H438	H	1.221578	-0.020217	0.008866
H439	H	0.717378	-0.574675	-0.433442
H440	H	1.217378	-0.074675	0.066558
H441	H	0.779210	-0.574728	-0.495187
H442	H	1.279210	-0.074728	0.004813
H443	H	0.765815	-0.493536	-0.385146
H444	H	1.265815	0.006464	0.114854
H445	H	0.827597	-0.493651	-0.446939
H446	H	1.327597	0.006349	0.053061
H447	H	0.836576	-0.451665	-0.376090
H448	H	1.336576	0.048335	0.123910
