data_functionalizedCrystal
_audit_creation_method	'MofGen! by Chris Wilmer'
_symmetry_space_group_name_H-M	'P1'
_symmetry_Int_Tables_number	1
_symmetry_cell_setting	triclinic
loop_
_symmetry_equiv_pos_as_xyz
  x,y,z
_cell_length_a	12.759401
_cell_length_b	16.959454
_cell_length_c	16.959447
_cell_angle_alpha	89.973264
_cell_angle_beta	89.986359
_cell_angle_gamma	90.021600
loop_
_atom_site_label
_atom_site_type_symbol
_atom_site_fract_x
_atom_site_fract_y
_atom_site_fract_z
Zn1	Zn	1.606151	-0.314634	-0.446914
Zn2	Zn	1.606048	-0.446826	-0.314744
Zn3	Zn	1.430473	-0.314669	-0.314753
Zn4	Zn	1.430426	-0.446778	-0.446884
O5	O	1.518275	-0.380727	-0.380824
O6	O	1.753159	-0.332175	-0.429390
O7	O	1.582734	-0.429330	-0.204134
O8	O	1.453840	-0.204054	-0.332301
O9	O	1.753083	-0.429296	-0.332285
O10	O	1.582910	-0.204028	-0.429399
O11	O	1.453740	-0.332235	-0.204141
O12	O	1.283445	-0.332188	-0.332272
O13	O	1.453759	-0.429213	-0.557499
O14	O	1.283411	-0.429248	-0.429348
O15	O	1.582865	-0.332128	-0.557521
O16	O	1.582689	-0.557431	-0.332256
O17	O	1.453660	-0.557395	-0.429339
C18	C	1.245307	-0.380717	-0.380808
C19	C	1.128531	-0.380732	-0.380820
C20	C	1.073678	-0.431348	-0.431288
C21	C	0.963954	-0.431351	-0.431304
C22	C	0.963944	-0.330120	-0.330377
C23	C	1.073667	-0.330114	-0.330366
C24	C	1.518187	-0.586093	-0.380810
C25	C	1.518245	-0.673950	-0.380831
C26	C	1.451186	-1.045437	-0.431369
C27	C	1.585655	-1.045414	-0.330359
C28	C	1.585619	-0.962868	-0.330351
C29	C	1.518364	-0.921602	-0.380853
C30	C	1.451145	-0.962883	-0.431362
C31	C	1.652828	-0.921581	-0.279838
C32	C	1.652793	-0.839030	-0.279828
C33	C	1.585543	-0.797763	-0.330334
C34	C	1.518323	-0.839049	-0.380846
C35	C	1.451068	-0.797784	-0.431347
C36	C	1.383852	-0.839068	-0.481863
C37	C	1.383895	-0.921616	-0.481868
C38	C	1.585500	-0.715215	-0.330329
C39	C	1.451027	-0.715230	-0.431340
C40	C	1.792308	-0.380737	-0.380840
C41	C	1.909084	-0.380741	-0.380847
C42	C	1.518318	-0.380661	-0.586992
C43	C	1.518337	-0.380633	-0.674849
C44	C	1.518392	-0.174558	-0.380855
C45	C	1.518441	-0.086702	-0.380868
C46	C	1.451243	-0.431098	-1.046315
C47	C	1.585682	-0.330002	-1.046334
C48	C	1.585654	-0.330019	-0.963788
C49	C	1.518421	-0.380577	-0.922502
C50	C	1.451215	-0.431118	-0.963762
C51	C	1.652865	-0.279484	-0.922521
C52	C	1.652840	-0.279500	-0.839970
C53	C	1.585601	-0.330054	-0.798683
C54	C	1.518393	-0.380597	-0.839948
C55	C	1.451160	-0.431155	-0.798662
C56	C	1.383945	-0.481694	-0.839926
C57	C	1.383976	-0.481673	-0.922475
C58	C	1.585570	-0.330075	-0.716135
C59	C	1.451132	-0.431175	-0.716109
C60	C	1.518291	-0.380735	-0.175457
C61	C	1.518476	-0.380540	-0.087601
H62	H	1.396263	-0.681637	-0.472468
C63	C	1.659434	-0.669806	-0.274766
N64	N	1.715128	-0.635605	-0.232915
H65	H	1.329208	-0.522862	-0.806300
H66	H	1.118345	-0.472563	-0.472373
H67	H	1.707576	-0.955185	-0.238716
H68	H	1.640405	-1.079017	-0.289238
C69	C	1.377303	-0.486683	-1.091705
N70	N	1.321609	-0.528548	-1.125894
C71	C	1.726725	-0.793625	-0.224255
N72	N	1.782409	-0.759426	-0.182395
H73	H	0.919298	-0.472566	-0.472401
H74	H	1.329088	-0.805460	-0.522979
H75	H	1.329171	-0.955237	-0.522995
C76	C	1.310041	-0.537257	-0.967870
N77	N	1.254353	-0.579121	-1.002066
C78	C	1.377166	-0.486792	-0.670701
N79	N	1.321455	-0.528684	-0.636500
H80	H	1.640425	-0.288845	-1.079953
C81	C	1.726805	-0.223866	-0.967940
N82	N	1.782492	-0.181967	-1.002154
C83	C	1.726766	-0.223898	-0.794588
N84	N	1.782443	-0.182014	-0.760405
H85	H	1.640298	-0.288929	-0.682541
C86	C	1.134008	-0.274430	-0.274844
N87	N	1.179457	-0.232489	-0.233028
C88	C	0.903584	-0.274447	-0.274876
N89	N	0.858121	-0.232515	-0.233069
C90	C	1.377248	-1.090849	-0.486931
N91	N	1.321555	-1.125055	-0.528779
