data_functionalizedCrystal
_audit_creation_method	'MofGen! by Chris Wilmer'
_symmetry_space_group_name_H-M	'P1'
_symmetry_Int_Tables_number	1
_symmetry_cell_setting	triclinic
loop_
_symmetry_equiv_pos_as_xyz
  x,y,z
_cell_length_a	21.295420
_cell_length_b	21.295417
_cell_length_c	19.805399
_cell_angle_alpha	89.969157
_cell_angle_beta	89.981220
_cell_angle_gamma	90.028757
loop_
_atom_site_label
_atom_site_type_symbol
_atom_site_fract_x
_atom_site_fract_y
_atom_site_fract_z
Zn1	Zn	0.962319	-0.250653	-0.382690
Zn2	Zn	0.962232	-0.355922	-0.269495
Zn3	Zn	0.857053	-0.250667	-0.269516
Zn4	Zn	0.857011	-0.355885	-0.382644
O5	O	0.909654	-0.303282	-0.326086
O6	O	1.050396	-0.264627	-0.367685
O7	O	0.948261	-0.341981	-0.174781
O8	O	0.871070	-0.162576	-0.284557
O9	O	1.050333	-0.341967	-0.284521
O10	O	0.948409	-0.162566	-0.367705
O11	O	0.870986	-0.264651	-0.174797
O12	O	0.768958	-0.264615	-0.284512
O13	O	0.870999	-0.341905	-0.477366
O14	O	0.768927	-0.341918	-0.367626
O15	O	0.948368	-0.264591	-0.477400
O16	O	0.948220	-0.444006	-0.284476
O17	O	0.870915	-0.443980	-0.367606
C18	C	0.746102	-0.303265	-0.326067
C19	C	0.676134	-0.303273	-0.326075
C20	C	0.176677	-0.343608	-0.369322
C21	C	0.242419	-0.343608	-0.369315
C22	C	0.275294	-0.303296	-0.326107
C23	C	0.242422	-0.262993	-0.282892
C24	C	0.176681	-0.262998	-0.282895
N25	N	0.378536	-0.248179	-0.321019
N26	N	0.440987	-0.248176	-0.321019
C27	C	0.473369	-0.303278	-0.326093
N28	N	0.440941	-0.358385	-0.331179
N29	N	0.378483	-0.358388	-0.331182
C30	C	0.346580	-0.303286	-0.326099
C31	C	0.577519	-0.343583	-0.369295
C32	C	0.643263	-0.343584	-0.369283
C33	C	0.643265	-0.262963	-0.282864
C34	C	0.577522	-0.262967	-0.282872
C35	C	0.544653	-0.303277	-0.326091
C36	C	0.909571	-0.466834	-0.326049
C37	C	0.909593	-0.536802	-0.326055
C38	C	0.949882	-0.569661	-0.282814
C39	C	0.949911	-0.635404	-0.282829
C40	C	0.909641	-0.668284	-0.326079
C41	C	0.869350	-0.635416	-0.369328
C42	C	0.869326	-0.569675	-0.369317
N43	N	0.854574	-0.771548	-0.331232
N44	N	0.854598	-0.834000	-0.331239
C45	C	0.909712	-0.866359	-0.326117
N46	N	0.964801	-0.833907	-0.320975
N47	N	0.964776	-0.771450	-0.320964
C48	C	0.909663	-0.739569	-0.326096
C49	C	0.950036	-0.970504	-0.282890
C50	C	0.950066	-1.036248	-0.282910
C51	C	0.869499	-1.036259	-0.369406
C52	C	0.869474	-0.970517	-0.369389
C53	C	0.909741	-0.937643	-0.326128
C54	C	1.073844	-0.303299	-0.326106
C55	C	1.143812	-0.303307	-0.326115
C56	C	0.909689	-0.303242	-0.502629
C57	C	0.909704	-0.303225	-0.577861
C58	C	0.909754	-0.139092	-0.326139
C59	C	0.909796	-0.069123	-0.326161
C60	C	0.949991	-0.262966	-0.613224
C61	C	0.949997	-0.262948	-0.683913
C62	C	0.909720	-0.303192	-0.719237
C63	C	0.869428	-0.343453	-0.683869
C64	C	0.869419	-0.343468	-0.613182
C65	C	0.869464	-0.343395	-0.968942
C66	C	0.869477	-0.343378	-1.039634
C67	C	0.950042	-0.262875	-1.039673
C68	C	0.950033	-0.262889	-0.968986
C69	C	0.909739	-0.303148	-0.933624
C70	C	0.909732	-0.303166	-0.856976
C71	C	0.909730	-0.303178	-0.795884
C72	C	0.909655	-0.303276	-0.150230
C73	C	0.909762	-0.303116	-0.074999
H74	H	0.550756	-0.376406	-0.404486
N75	N	0.678713	-0.387059	-0.415881
H76	H	0.647913	-0.412593	-0.443259
H77	H	0.706015	-0.361470	-0.447249
N78	N	0.993449	-0.219532	-0.722064
H79	H	0.967886	-0.190352	-0.751394
H80	H	1.018961	-0.194081	-0.688925
N81	N	0.542075	-0.219495	-0.236271
H82	H	0.553539	-0.174529	-0.246870
H83	H	0.495452	-0.225667	-0.242848
N84	N	0.825862	-0.534234	-0.415954
H85	H	0.796696	-0.507004	-0.388410
H86	H	0.851459	-0.506949	-0.447331
H87	H	0.836676	-0.376152	-1.068393
N88	N	0.826015	-0.386811	-0.930792
H89	H	0.796860	-0.361223	-0.901470
H90	H	0.800539	-0.412302	-0.963927
N91	N	0.993478	-0.219486	-0.930886
H92	H	1.019001	-0.193978	-0.964015
H93	H	0.967867	-0.190359	-0.901562
N94	N	0.993361	-0.670863	-0.236188
H95	H	1.038331	-0.659382	-0.246734
H96	H	0.983548	-0.659450	-0.187835
H97	H	0.836665	-0.943760	-0.404598
H98	H	0.149919	-0.376433	-0.404512
N99	N	0.993465	-0.935042	-0.236235
H100	H	1.018997	-0.965837	-0.208846
H101	H	1.022570	-0.907719	-0.263809
H102	H	0.836607	-0.376245	-0.584390
H103	H	0.982878	-1.063001	-0.247700
H104	H	0.982792	-0.230196	-0.584468
H105	H	0.982849	-0.230092	-1.068473
H106	H	0.836713	-1.063029	-0.404623
N107	N	0.277877	-0.387077	-0.415917
H108	H	0.247079	-0.412614	-0.443296
H109	H	0.305174	-0.361483	-0.447285
N110	N	0.277876	-0.219515	-0.236286
H111	H	0.324510	-0.225626	-0.242841
H112	H	0.266406	-0.174571	-0.246907
N113	N	0.141229	-0.219530	-0.236291
H114	H	0.172028	-0.193993	-0.208915
H115	H	0.113976	-0.190432	-0.263901
H116	H	0.670031	-0.230143	-0.247681
N117	N	0.825971	-0.386847	-0.721965
H118	H	0.832086	-0.380727	-0.772111
H119	H	0.835727	-0.431812	-0.709601
H120	H	0.836563	-0.662192	-0.404543
N121	N	0.993320	-0.534205	-0.236166
H122	H	1.018851	-0.565002	-0.208778
H123	H	1.022426	-0.506891	-0.263749
