data_functionalizedCrystal
_audit_creation_method	'MofGen! by Chris Wilmer'
_symmetry_space_group_name_H-M	'P1'
_symmetry_Int_Tables_number	1
_symmetry_cell_setting	triclinic
loop_
_symmetry_equiv_pos_as_xyz
  x,y,z
_cell_length_a	10.654558
_cell_length_b	9.730223
_cell_length_c	10.654551
_cell_angle_alpha	89.999594
_cell_angle_beta	84.486873
_cell_angle_gamma	89.999600
loop_
_atom_site_label
_atom_site_type_symbol
_atom_site_fract_x
_atom_site_fract_y
_atom_site_fract_z
O1	O	1.667829	0.114265	0.176443
O2	O	1.302352	0.114271	0.193238
O3	O	1.493492	0.114265	0.002102
O4	O	1.476688	0.114271	0.367579
O5	O	1.493490	-0.114315	0.002107
O6	O	1.302349	-0.114309	0.193243
O7	O	1.667826	-0.114315	0.176448
Zn8	Zn	1.485088	-0.150604	0.184846
Zn9	Zn	1.485090	0.150560	0.184840
O10	O	1.476686	-0.114309	0.367584
C11	C	1.255553	-0.000018	0.192005
C12	C	1.116110	-0.000015	0.188309
N13	N	1.485095	-0.356140	0.184850
C14	C	0.919573	0.124584	0.183111
C15	C	1.050595	0.124585	0.186573
C16	C	1.050597	-0.124625	0.186571
C17	C	0.919578	-0.124625	0.183100
C18	C	0.854063	0.249193	0.181387
C19	C	0.919568	0.373803	0.183123
C20	C	1.050590	0.373804	0.186584
C21	C	1.116108	0.249195	0.188311
C22	C	1.569754	-0.428069	0.100244
C23	C	1.569750	-0.571952	0.100228
C24	C	1.400425	-0.571965	0.269437
C25	C	1.400423	-0.428084	0.269445
C26	C	1.654425	-0.356125	0.015648
C27	C	1.739092	-0.428054	-0.068964
C28	C	1.739089	-0.571937	-0.068979
C29	C	1.654419	-0.643891	0.015618
C30	C	1.714625	-0.000023	0.177681
C31	C	1.854068	-0.000016	0.181377
C32	C	1.492257	-0.000023	-0.044694
C33	C	1.488565	-0.000016	-0.184137
N34	N	1.485093	0.356097	0.184826
C35	C	1.486833	0.124584	-0.249644
C36	C	1.483353	0.124585	-0.380664
C37	C	1.483342	-0.124625	-0.380661
C38	C	1.486813	-0.124625	-0.249641
C39	C	1.405163	0.274285	-0.550742
C40	C	1.403453	0.398892	-0.616255
C41	C	1.478047	0.508901	-0.582715
C42	C	1.554381	0.494309	-0.483667
C43	C	1.556103	0.369700	-0.418162
C44	C	1.481480	0.259695	-0.451696
C45	C	1.565013	-0.274316	-0.079563
C46	C	1.566743	-0.398926	-0.014056
C47	C	1.492157	-0.508947	-0.047595
C48	C	1.415841	-0.494368	-0.146649
C49	C	1.414111	-0.369758	-0.212156
C50	C	1.488695	-0.259737	-0.178608
C51	C	1.477921	-0.000018	0.414380
C52	C	1.481614	-0.000015	0.553823
H53	H	0.747378	0.249205	0.178572
H54	H	0.866240	-0.226086	0.181712
H55	H	1.481918	-0.226077	-0.434011
H56	H	1.654438	-0.238968	0.015656
H57	H	1.808021	-0.369462	-0.137847
Cl58	Cl	1.132937	0.530454	0.188750
Cl59	Cl	1.652056	0.351348	-0.293652
H60	H	1.222797	0.249206	0.191122
H61	H	1.808019	-0.630500	-0.137882
Cl62	Cl	0.837208	0.530445	0.180923
Cl63	Cl	1.293994	-0.662421	0.375784
H64	H	1.103952	-0.226076	0.187979
H65	H	1.654415	-0.761050	0.015590
Cl66	Cl	1.475910	0.665540	-0.665092
Cl67	Cl	1.307488	0.417236	-0.740765
Cl68	Cl	1.489027	0.281234	-0.167299
Cl69	Cl	1.293987	-0.337657	0.375807
H70	H	1.351963	-0.357893	-0.292809
Cl71	Cl	1.322079	-0.632686	-0.188825
H72	H	1.615131	0.583889	-0.456377
H73	H	1.344405	0.184720	-0.578049
H74	H	1.493583	-0.610415	0.005745
Cl75	Cl	1.658809	-0.136011	-0.037412
Cl76	Cl	1.662700	-0.417260	0.110460
