data_functionalizedCrystal
_audit_creation_method	'MofGen! by Chris Wilmer'
_symmetry_space_group_name_H-M	'P1'
_symmetry_Int_Tables_number	1
_symmetry_cell_setting	triclinic
loop_
_symmetry_equiv_pos_as_xyz
  x,y,z
_cell_length_a	12.594517
_cell_length_b	16.625546
_cell_length_c	16.625539
_cell_angle_alpha	89.969603
_cell_angle_beta	90.020900
_cell_angle_gamma	89.977732
loop_
_atom_site_label
_atom_site_type_symbol
_atom_site_fract_x
_atom_site_fract_y
_atom_site_fract_z
Zn1	Zn	1.627215	0.321004	0.455905
Zn2	Zn	1.627087	0.455848	0.321067
Zn3	Zn	1.449220	0.321032	0.321084
Zn4	Zn	1.449181	0.455798	0.455856
O5	O	1.538176	0.388421	0.388478
O6	O	1.776144	0.338901	0.438031
O7	O	1.603456	0.437996	0.208237
O8	O	1.472901	0.208196	0.338996
O9	O	1.776050	0.437969	0.338967
O10	O	1.603673	0.208176	0.438048
O11	O	1.472778	0.338948	0.208250
O12	O	1.300269	0.338900	0.338949
O13	O	1.472835	0.437885	0.568695
O14	O	1.300241	0.437912	0.437965
O15	O	1.603636	0.338853	0.568731
O16	O	1.603418	0.568673	0.338919
O17	O	1.472711	0.568637	0.437948
C18	C	1.538075	0.597912	0.388444
C19	C	1.538129	0.687533	0.388457
C20	C	1.261635	0.388404	0.388454
C21	C	1.143329	0.388417	0.388463
C22	C	1.538245	0.388361	0.598787
C23	C	1.538275	0.388335	0.688408
C24	C	1.074061	0.334491	0.334711
C25	C	1.003239	0.408038	0.314872
C26	C	1.003352	0.314905	0.408316
C27	C	1.074066	0.462003	0.368586
C28	C	1.074185	0.368821	0.462064
C29	C	1.003395	0.442419	0.442253
C30	C	1.815797	0.388437	0.388502
C31	C	1.934102	0.388445	0.388513
C32	C	1.538306	0.178112	0.388530
C33	C	1.538361	0.088491	0.388552
C34	C	1.538315	1.015708	0.388541
C35	C	1.538260	0.924400	0.388520
C36	C	1.538221	0.851623	0.388498
C37	C	1.538168	0.760309	0.388478
C38	C	1.538168	0.388422	0.178987
C39	C	1.538345	0.388221	0.089367
C40	C	1.538324	0.388245	1.016584
C41	C	1.538307	0.388272	0.925276
C42	C	1.538300	0.388290	0.852499
C43	C	1.538282	0.388317	0.761185
H44	H	0.972079	0.424631	0.252651
C45	C	0.898644	0.201133	0.368184
C46	C	0.961421	0.230967	0.430960
H47	H	0.872767	0.149309	0.382159
H48	H	0.840491	0.236410	0.359211
H49	H	0.940109	0.197433	0.320612
H50	H	0.919953	0.234672	0.478532
H51	H	1.019582	0.195680	0.439943
H52	H	1.104999	0.524201	0.351746
C53	C	1.080138	0.293723	0.196265
C54	C	1.115959	0.272988	0.273276
H55	H	1.106010	0.255758	0.158339
H56	H	1.004729	0.293649	0.195526
H57	H	1.105399	0.345822	0.182699
H58	H	1.090691	0.220891	0.286845
H59	H	1.191384	0.273054	0.274017
C60	C	1.047684	0.542391	0.540876
C61	C	0.961762	0.504067	0.503644
H62	H	1.021977	0.580454	0.578769
H63	H	1.090177	0.503532	0.567714
H64	H	1.089160	0.569190	0.501393
H65	H	0.920290	0.477262	0.543127
H66	H	0.919251	0.542932	0.476805
C67	C	1.080667	0.269333	0.566679
C68	C	1.116297	0.346393	0.546034
H69	H	1.106674	0.255481	0.618517
H70	H	1.005260	0.268699	0.567192
H71	H	1.105920	0.231557	0.528336
H72	H	1.091037	0.384171	0.584374
H73	H	1.191720	0.347034	0.545527
