data_functionalizedCrystal
_audit_creation_method	'MofGen! by Chris Wilmer'
_symmetry_space_group_name_H-M	'P1'
_symmetry_Int_Tables_number	1
_symmetry_cell_setting	triclinic
loop_
_symmetry_equiv_pos_as_xyz
  x,y,z
_cell_length_a	14.908783
_cell_length_b	14.908520
_cell_length_c	14.908308
_cell_angle_alpha	83.639235
_cell_angle_beta	90.211273
_cell_angle_gamma	96.791586
loop_
_atom_site_label
_atom_site_type_symbol
_atom_site_fract_x
_atom_site_fract_y
_atom_site_fract_z
Zn1	Zn	1.325980	-0.317645	0.605030
Zn2	Zn	1.825980	0.182355	1.105030
Zn3	Zn	1.325877	-0.460296	0.462395
Zn4	Zn	1.825877	0.039704	0.962395
Zn5	Zn	1.184353	-0.316662	0.445949
Zn6	Zn	1.684353	0.183338	0.945949
Zn7	Zn	1.165844	-0.477686	0.604959
Zn8	Zn	1.665844	0.022314	1.104959
O9	O	1.250514	-0.393072	0.529583
O10	O	1.750514	0.106928	1.029583
O11	O	1.452212	-0.329701	0.593023
O12	O	1.952212	0.170299	1.093023
O13	O	1.314807	-0.433553	0.333974
O14	O	1.814807	0.066447	0.833974
O15	O	1.210929	-0.189703	0.460198
O16	O	1.710929	0.310297	0.960198
O17	O	1.452137	-0.434506	0.488229
O18	O	1.952137	0.065494	0.988229
O19	O	1.314982	-0.190425	0.577075
O20	O	1.814982	0.309575	1.077075
O21	O	1.210830	-0.328026	0.321891
O22	O	1.710830	0.171974	0.821891
O23	O	1.055652	-0.344889	0.460128
O24	O	1.555652	0.155111	0.960128
O25	O	1.179384	-0.464145	0.731208
O26	O	1.679384	0.035855	1.231208
O27	O	1.042054	-0.463192	0.576952
O28	O	1.542054	0.036808	1.076952
O29	O	1.297035	-0.346564	0.731260
O30	O	1.797035	0.153436	1.231260
O31	O	1.296860	-0.589691	0.488159
O32	O	1.796860	-0.089691	0.988159
O33	O	1.179284	-0.602468	0.592900
O34	O	1.679284	-0.102468	1.092900
C35	C	1.016119	-0.405822	0.516749
C36	C	1.516119	0.094178	1.016749
C37	C	0.915841	-0.411299	0.511280
C38	C	1.415841	0.088701	1.011280
C39	C	0.727464	-0.312628	0.610312
C40	C	1.227464	0.187372	1.110312
C41	C	0.633244	-0.317772	0.605177
C42	C	1.133244	0.182228	1.105177
C43	C	0.633180	-0.426725	0.495871
C44	C	1.133180	0.073275	0.995871
C45	C	0.727400	-0.421581	0.501006
C46	C	1.227400	0.078419	1.001006
C47	C	0.774539	-0.364532	0.558229
C48	C	1.274539	0.135468	1.058229
C49	C	0.868760	-0.359394	0.563369
C50	C	1.368760	0.140606	1.063369
C51	C	0.868694	-0.468341	0.454059
C52	C	1.368694	0.031659	0.954059
C53	C	0.774474	-0.473485	0.448924
C54	C	1.274474	0.026515	0.948924
C55	C	1.236076	-0.629032	0.542328
C56	C	1.736076	-0.129032	1.042328
C57	C	1.229980	-0.729974	0.547814
C58	C	1.729980	-0.229974	1.047814
C59	C	1.341070	-0.906289	0.449158
C60	C	1.841070	-0.406289	0.949158
C61	C	1.335345	-1.001133	0.454310
C62	C	1.835345	-0.501133	0.954310
C63	C	1.212812	-1.014508	0.563277
C64	C	1.712812	-0.514508	1.063277
C65	C	1.218536	-0.919664	0.558124
C66	C	1.718536	-0.419664	1.058124
C67	C	1.282666	-0.865558	0.501062
C68	C	1.782666	-0.365558	1.001062
C69	C	1.288386	-0.770712	0.495905
C70	C	1.788386	-0.270712	0.995905
C71	C	1.165857	-0.784088	0.604875
C72	C	1.665857	-0.284088	1.104875
C73	C	1.160133	-0.878932	0.610028
C74	C	1.660133	-0.378932	1.110028
C75	C	1.485824	-0.380273	0.542468
C76	C	1.985824	0.119727	1.042468
C77	C	1.586099	-0.374819	0.547959
C78	C	2.086099	0.125181	1.047959
C79	C	1.236156	-0.407404	0.764882
C80	C	1.736156	0.092596	1.264882
C81	C	1.230038	-0.413511	0.865152
C82	C	1.730038	0.086489	1.365152
C83	C	1.265031	-0.156190	0.516810
C84	C	1.765031	0.343810	1.016810
C85	C	1.271218	-0.055245	0.511367
C86	C	1.771218	0.444755	1.011367
C87	C	1.264871	-0.378727	0.295199
C88	C	1.764871	0.121273	0.795199
C89	C	1.271180	-0.372355	0.194925
C90	C	1.771180	0.127645	0.694925
C91	C	1.341049	-0.302529	1.053626
C92	C	1.841049	0.197471	1.553626
C93	C	1.335303	-0.308264	1.147839
C94	C	1.835303	0.191736	1.647839
C95	C	1.212797	-0.430712	1.147792
C96	C	1.712797	0.069288	1.647792
C97	C	1.218542	-0.424977	1.053579
C98	C	1.718542	0.075023	1.553579
C99	C	1.282672	-0.360884	1.006499
C100	C	1.782672	0.139116	1.506499
C101	C	1.288421	-0.355154	0.912285
C102	C	1.788421	0.144846	1.412285
C103	C	1.165911	-0.477597	0.912240
C104	C	1.665911	0.022403	1.412240
C105	C	1.160165	-0.483332	1.006452
C106	C	1.660165	0.016668	1.506452
H107	H	0.594785	-0.473160	0.449272
H108	H	1.094785	0.026840	0.949272
H109	H	1.340639	-0.302968	0.873955
H110	H	1.840639	0.197032	1.373955
N111	N	1.398276	-0.245331	1.198668
N112	N	1.898276	0.254669	1.698668
H113	H	1.384907	-0.258688	1.265496
H114	H	1.884907	0.241312	1.765496
H115	H	1.389211	-0.180232	1.177932
H116	H	1.889211	0.319768	1.677932
H117	H	1.393270	-0.250347	1.015294
H118	H	1.893270	0.249653	1.515294
N119	N	1.143600	-0.499800	1.198574
N120	N	1.643600	0.000200	1.698574
H121	H	1.148810	-0.494563	1.265406
H122	H	1.648810	0.005437	1.765406
H123	H	1.154640	-0.562911	1.186397
H124	H	1.654640	-0.062911	1.686397
H125	H	1.107951	-0.535512	1.044797
H126	H	1.607951	-0.035512	1.544797
N127	N	1.398331	-1.045074	0.398330
N128	N	1.898331	-0.545074	0.898330
H129	H	1.462921	-1.025854	0.415024
H130	H	1.962921	-0.525854	0.915024
H131	H	1.389226	-1.025424	0.332222
H132	H	1.889226	-0.525424	0.832222
H133	H	0.736082	-0.519929	0.402332
H134	H	1.236082	-0.019929	0.902332
N135	N	1.102918	-0.540516	0.861405
N136	N	1.602918	-0.040516	1.361405
H137	H	1.061417	-0.581979	0.905528
H138	H	1.561417	-0.081979	1.405528
H139	H	1.139432	-0.578175	0.826583
H140	H	1.639432	-0.078175	1.326583
N141	N	0.919606	-0.297870	0.625088
N142	N	1.419606	0.202130	1.125088
H143	H	0.875484	-0.265769	0.657301
H144	H	1.375484	0.234231	1.157301
H145	H	0.963499	-0.251421	0.588290
H146	H	1.463499	0.248579	1.088290
H147	H	1.340602	-0.726660	0.449439
H148	H	1.840602	-0.226660	0.949439
N149	N	1.143653	-1.072871	0.624823
N150	N	1.643653	-0.572871	1.124823
H151	H	1.148894	-1.139134	0.620210
H152	H	1.648894	-0.639134	1.120210
H153	H	1.081089	-1.059012	0.606300
H154	H	1.581089	-0.559012	1.106300
H155	H	0.594920	-0.275504	0.647585
H156	H	1.094920	0.224496	1.147585
N157	N	0.778313	-0.251112	0.672037
N158	N	1.278313	0.248888	1.172037
H159	H	0.734193	-0.219015	0.704256
H160	H	1.234193	0.280985	1.204256
H161	H	0.822206	-0.204660	0.635243
H162	H	1.322206	0.295340	1.135243
N163	N	0.919459	-0.524333	0.397878
N164	N	1.419459	-0.024333	0.897878
H165	H	0.953748	-0.566570	0.438883
H166	H	1.453748	-0.066570	0.938883
H167	H	0.963301	-0.482632	0.356266
H168	H	1.463301	0.017368	0.856266
N169	N	1.410226	-0.847920	0.387613
N170	N	1.910226	-0.347920	0.887613
H171	H	1.399203	-0.861293	0.323280
H172	H	1.899203	-0.361293	0.823280
H173	H	1.472795	-0.861732	0.406173
H174	H	1.972795	-0.361732	0.906173
N175	N	1.090968	-0.937291	0.671572
N176	N	1.590968	-0.437291	1.171572
H177	H	1.096203	-1.003555	0.666961
H178	H	1.596203	-0.503555	1.166961
H179	H	1.028408	-0.923425	0.653044
H180	H	1.528408	-0.423425	1.153044
N181	N	1.102854	-0.740158	0.660856
N182	N	1.602854	-0.240158	1.160856
H183	H	1.116207	-0.671864	0.648933
H184	H	1.616207	-0.171864	1.148933
H185	H	1.111906	-0.759861	0.726963
H186	H	1.611906	-0.259861	1.226963
