data_functionalizedCrystal
_audit_creation_method	'MofGen! by Chris Wilmer'
_symmetry_space_group_name_H-M	'P1'
_symmetry_Int_Tables_number	1
_symmetry_cell_setting	triclinic
loop_
_symmetry_equiv_pos_as_xyz
  x,y,z
_cell_length_a	15.944551
_cell_length_b	16.992695
_cell_length_c	15.455313
_cell_angle_alpha	87.152573
_cell_angle_beta	87.314344
_cell_angle_gamma	92.916520
loop_
_atom_site_label
_atom_site_type_symbol
_atom_site_fract_x
_atom_site_fract_y
_atom_site_fract_z
O1	O	1.124762	-0.097694	-0.072217
O2	O	0.881048	-0.110162	-0.072200
O3	O	1.001928	0.010214	-0.072202
O4	O	1.003882	-0.218070	-0.072215
O5	O	0.995013	0.003359	0.072061
O6	O	0.874133	-0.117018	0.072062
O7	O	1.117848	-0.104549	0.072045
Cu8	Cu	0.995359	-0.111409	0.085226
Cu9	Cu	1.003536	-0.103302	-0.085381
O10	O	0.996968	-0.224926	0.072047
C11	C	0.846262	-0.113073	-0.000067
C12	C	0.752911	-0.111521	-0.000060
C13	C	0.995957	0.035999	-0.000070
C14	C	0.988457	0.123044	-0.000070
C15	C	1.152634	-0.101639	-0.000090
C16	C	1.245984	-0.103190	-0.000102
C17	C	1.466093	-0.181515	-0.000087
C18	C	1.528083	-0.141764	-0.071213
C19	C	1.416898	-0.105998	-0.000090
C20	C	1.521243	-0.148505	0.071018
C21	C	1.581992	-0.108716	-0.000074
C22	C	1.477661	-0.066223	-0.071274
C23	C	1.470812	-0.072978	0.071021
C24	C	1.532781	-0.033171	-0.000122
C25	C	1.321791	-0.104434	-0.000099
C26	C	1.677097	-0.110273	-0.000070
C27	C	1.002939	-0.250711	-0.000086
C28	C	1.010439	-0.337755	-0.000092
N29	N	0.989614	-0.117111	0.205222
C30	C	1.060822	0.173281	-0.000074
C31	C	1.053770	0.255068	-0.000082
C32	C	0.974352	0.286617	-0.000079
C33	C	0.901982	0.236374	-0.000078
C34	C	0.909035	0.154588	-0.000076
C35	C	0.945121	0.530216	-0.000089
C36	C	0.938074	0.612008	-0.000088
C37	C	1.089863	0.630697	-0.000094
C38	C	1.096909	0.548909	-0.000087
C39	C	1.024538	0.498673	-0.000090
N40	N	0.967142	0.370216	-0.000085
N41	N	1.031749	0.415076	-0.000091
N42	N	1.009288	-0.097594	-0.205376
C43	C	1.040988	-0.065989	0.250615
C44	C	1.036652	-0.070309	0.341423
C45	C	0.980944	-0.125754	0.386836
C46	C	0.929565	-0.176877	0.341436
C47	C	0.933897	-0.172554	0.250630
C48	C	0.962241	-0.144394	0.658417
C49	C	0.957913	-0.148716	0.749230
C50	C	1.065000	-0.042145	0.749211
C51	C	1.069331	-0.037830	0.658403
C52	C	1.017948	-0.088951	0.613011
N53	N	0.976512	-0.130172	0.479656
N54	N	1.022377	-0.084529	0.520192
H55	H	1.436995	-0.244194	-0.000162
C56	C	1.184273	0.514214	-0.000103
C57	C	1.242332	0.529619	0.074798
C58	C	1.329699	0.494927	0.074782
C59	C	1.359007	0.444830	-0.000135
C60	C	1.300948	0.429423	-0.075041
C61	C	1.213581	0.464115	-0.075025
H62	H	1.220636	0.566706	0.130260
H63	H	1.372678	0.506332	0.130232
H64	H	1.423681	0.419149	-0.000146
H65	H	1.322643	0.392336	-0.130503
H66	H	1.170602	0.452710	-0.130475
H67	H	0.837318	0.262067	-0.000081
C68	C	1.130605	0.023162	0.608446
C69	C	1.122613	0.111860	0.620941
C70	C	1.183889	0.172849	0.570981
C71	C	1.253157	0.145140	0.508526
C72	C	1.261152	0.056438	0.496028
C73	C	1.199876	-0.004551	0.545988
H74	H	1.071334	0.132375	0.667176
H75	H	1.177970	0.238512	0.580232
H76	H	1.298517	0.190288	0.471542
H77	H	1.312431	0.035923	0.449793
H78	H	1.205795	-0.070215	0.536737
C79	C	1.436819	-0.033725	0.152262
C80	C	1.387482	0.041542	0.142583
C81	C	1.353486	0.080787	0.223832
C82	C	1.368827	0.044765	0.314760
C83	C	1.418166	-0.030505	0.324442
C84	C	1.452162	-0.069750	0.243193
H85	H	1.376124	0.068210	0.075270
H86	H	1.316962	0.136507	0.216664
H87	H	1.343661	0.073817	0.374905
H88	H	1.429524	-0.057174	0.391755
H89	H	1.488686	-0.125471	0.250361
C90	C	0.868285	-0.237869	0.391385
C91	C	0.863557	-0.242669	0.491268
C92	C	0.802278	-0.303664	0.541215
C93	C	0.745726	-0.359860	0.491277
C94	C	0.750452	-0.355062	0.391388
C95	C	0.811731	-0.294066	0.341442
H96	H	0.905421	-0.201068	0.528240
H97	H	0.798780	-0.307215	0.615159
H98	H	0.700363	-0.405012	0.528250
H99	H	0.708587	-0.396663	0.354417
H100	H	0.815229	-0.290515	0.267498
C101	C	0.829432	0.099323	-0.000071
C102	C	0.769444	0.106414	-0.074980
C103	C	0.689840	0.051150	-0.074979
C104	C	0.670224	-0.011205	-0.000070
C105	C	0.730213	-0.018299	0.074845
C106	C	0.809818	0.036966	0.074845
H107	H	0.783964	0.152575	-0.130437
H108	H	0.645432	0.056401	-0.130436
H109	H	0.611296	-0.052115	-0.000069
H110	H	0.715693	-0.064460	0.130303
H111	H	0.854226	0.031714	0.130302
C112	C	1.169466	0.685958	-0.000101
C113	C	1.181904	0.741203	0.074805
C114	C	1.261512	0.796464	0.074794
C115	C	1.328681	0.796481	-0.000123
C116	C	1.316245	0.741235	-0.075034
C117	C	1.236638	0.685973	-0.075023
H118	H	1.132180	0.741192	0.130268
H119	H	1.270717	0.837361	0.130249
H120	H	1.387611	0.837389	-0.000131
H121	H	1.365970	0.741245	-0.130497
H122	H	1.227432	0.645076	-0.130478
H123	H	1.553222	-0.170848	-0.131346
C124	C	1.547379	-0.195527	0.152254
C125	C	1.641156	-0.205004	0.167546
C126	C	1.667289	-0.252033	0.248777
C127	C	1.599644	-0.289585	0.314714
C128	C	1.505860	-0.280109	0.299423
C129	C	1.479727	-0.233080	0.218193
H130	H	1.691237	-0.177205	0.118734
H131	H	1.736714	-0.259047	0.260095
H132	H	1.618989	-0.324399	0.374845
H133	H	1.455779	-0.307909	0.348236
H134	H	1.410302	-0.226066	0.206875
C135	C	1.148184	0.138581	-0.000076
C136	C	1.206236	0.153986	0.074829
C137	C	1.293600	0.119289	0.074824
C138	C	1.322912	0.069187	-0.000086
C139	C	1.264859	0.053780	-0.074997
C140	C	1.177495	0.088477	-0.074992
H141	H	1.184538	0.191076	0.130287
H142	H	1.336574	0.130694	0.130279
H143	H	1.387584	0.043502	-0.000090
H144	H	1.286557	0.016689	-0.130455
H145	H	1.134520	0.077071	-0.130447
H146	H	1.086355	-0.020844	0.213646
C147	C	1.451672	-0.019248	-0.152605
C148	C	1.476572	-0.046254	-0.243485
C149	C	1.450580	0.000716	-0.324815
C150	C	1.399689	0.074692	-0.315265
C151	C	1.374786	0.101701	-0.224381
C152	C	1.400777	0.054731	-0.143051
H153	H	1.514248	-0.101018	-0.250558
H154	H	1.469016	-0.019278	-0.392094
H155	H	1.380448	0.109462	-0.375471
H156	H	1.337110	0.156465	-0.217308
H157	H	1.382342	0.074725	-0.075772
H158	H	1.106833	-0.000524	0.786177
C159	C	0.896627	-0.209708	0.799182
C160	C	0.840108	-0.265936	0.749250
C161	C	0.778827	-0.326926	0.799201
C162	C	0.774064	-0.331689	0.899084
C163	C	0.830585	-0.275458	0.949022
C164	C	0.891866	-0.214468	0.899071
H165	H	0.843632	-0.262412	0.675305
H166	H	0.736987	-0.368552	0.762232
H167	H	0.728700	-0.376837	0.936060
H168	H	0.827061	-0.278982	1.022967
H169	H	0.933707	-0.172843	0.936039
H170	H	1.561728	0.029570	-0.000154
H171	H	0.886192	0.489324	-0.000092
H172	H	1.112698	0.295968	-0.000083
H173	H	0.873399	0.637691	-0.000072
H174	H	0.892062	-0.214181	0.213671
H175	H	1.078484	-0.028681	0.378382
H176	H	0.920404	-0.186021	0.621466
