data_functionalizedCrystal
_audit_creation_method	'MofGen! by Chris Wilmer'
_symmetry_space_group_name_H-M	'P1'
_symmetry_Int_Tables_number	1
_symmetry_cell_setting	triclinic
loop_
_symmetry_equiv_pos_as_xyz
  x,y,z
_cell_length_a	14.971486
_cell_length_b	16.992695
_cell_length_c	14.048226
_cell_angle_alpha	89.993436
_cell_angle_beta	89.998499
_cell_angle_gamma	87.141176
loop_
_atom_site_label
_atom_site_type_symbol
_atom_site_fract_x
_atom_site_fract_y
_atom_site_fract_z
O1	O	1.194127	0.102190	-0.079052
O2	O	0.934587	0.114427	-0.079078
O3	O	1.063316	-0.005835	-0.079057
O4	O	1.065397	0.222452	-0.079072
O5	O	1.063299	-0.005842	0.079264
O6	O	0.934570	0.114420	0.079244
O7	O	1.194110	0.102183	0.079270
Zn8	Zn	1.064337	0.108300	0.104394
Zn9	Zn	1.064359	0.108310	-0.104201
O10	O	1.065380	0.222445	0.079249
C11	C	0.901215	0.113876	0.000080
C12	C	0.801803	0.112236	0.000070
C13	C	0.749541	0.182887	0.000067
C14	C	0.656133	0.181341	0.000081
C15	C	0.614988	0.109144	0.000092
C16	C	0.667257	0.038488	0.000098
C17	C	0.760663	0.040034	0.000091
C18	C	0.472568	0.035269	0.000111
C19	C	0.379155	0.033723	0.000117
C20	C	0.368038	0.176577	0.000102
C21	C	0.461445	0.178123	0.000094
C22	C	0.513707	0.107466	0.000099
C23	C	1.060631	-0.035054	0.000103
C24	C	1.052644	-0.122105	0.000102
C25	C	1.129708	-0.172274	0.000111
C26	C	1.122198	-0.254067	0.000101
C27	C	1.037623	-0.285691	0.000089
C28	C	0.960553	-0.235517	0.000078
C29	C	0.968064	-0.153724	0.000081
C30	C	1.006493	-0.529318	0.000073
C31	C	0.998988	-0.611117	0.000073
C32	C	1.160634	-0.629662	0.000094
C33	C	1.168138	-0.547867	0.000103
C34	C	1.091068	-0.497700	0.000087
N35	N	1.029945	-0.369297	0.000082
N36	N	1.098747	-0.414095	0.000087
C37	C	1.227482	0.102733	0.000110
C38	C	1.326894	0.104373	0.000114
C39	C	1.068066	0.251664	0.000087
C40	C	1.076053	0.338715	0.000082
N41	N	1.064328	0.108293	0.246754
N42	N	1.064375	0.108310	-0.246562
C43	C	1.121350	0.055063	0.296581
C44	C	1.121356	0.055063	0.396239
C45	C	1.064344	0.108297	0.446068
C46	C	1.007316	0.161529	0.396234
C47	C	1.007306	0.161526	0.296578
C48	C	1.007342	0.161535	0.603948
C49	C	1.007353	0.161540	0.703611
C50	C	1.121393	0.055072	0.703609
C51	C	1.121383	0.055068	0.603953
C52	C	1.064355	0.108302	0.554126
H53	H	0.803213	-0.017497	0.000093
C54	C	0.256543	0.257716	-0.081281
C55	C	0.310597	0.254246	0.000099
H56	H	0.221077	0.305662	-0.081283
H57	H	0.293210	0.255350	-0.136484
H58	H	0.218674	0.214495	-0.081258
H59	H	0.348472	0.297464	0.000072
H60	H	0.273926	0.256620	0.055316
C61	C	1.296091	-0.670665	0.081495
C62	C	1.245346	-0.684808	0.000103
H63	H	1.348388	-0.704714	0.081497
H64	H	1.312664	-0.617433	0.081491
H65	H	1.261639	-0.680270	0.136695
H66	H	1.279796	-0.675197	-0.055099
H67	H	1.228775	-0.738052	0.000097
C68	C	1.164252	-0.080607	0.734292
C69	C	1.184082	-0.003446	0.758369
H70	H	1.202961	-0.116728	0.768096
H71	H	1.103957	-0.089212	0.750642
H72	H	1.172405	-0.088213	0.667807
H73	H	1.175923	0.004161	0.824853
H74	H	1.244391	0.005162	0.742025
H75	H	0.930114	-0.636861	0.000079
H76	H	1.167811	0.011725	0.563383
C77	C	0.894596	0.266754	0.693608
C78	C	0.944667	0.220041	0.758385
H79	H	0.855890	0.302863	0.727426
H80	H	0.933829	0.295028	0.654734
H81	H	0.860100	0.234049	0.654743
H82	H	0.979168	0.252745	0.797246
H83	H	0.905429	0.191764	0.797275
H84	H	0.960871	0.204870	0.256010
H85	H	0.960891	0.204871	0.436810
H86	H	0.783034	0.241679	0.000057
C87	C	0.399521	-0.107328	0.000147
C88	C	0.333926	-0.045637	0.000134
H89	H	0.371596	-0.156321	0.000163
H90	H	0.435720	-0.103759	-0.055061
H91	H	0.435723	-0.103749	0.055360
H92	H	0.297728	-0.049213	-0.055082
H93	H	0.297712	-0.049208	0.055348
C94	C	0.995540	0.268219	0.491853
C95	C	0.944659	0.220050	0.549172
H96	H	0.956843	0.304340	0.458032
H97	H	1.034783	0.296480	0.530720
H98	H	1.029488	0.236503	0.447922
H99	H	0.910715	0.251766	0.593107
H100	H	0.905400	0.191787	0.510301
C101	C	1.133177	-0.051636	0.508314
C102	C	1.184043	-0.003449	0.451002
H103	H	1.171881	-0.087763	0.542114
H104	H	1.099233	-0.019937	0.552253
H105	H	1.093928	-0.079896	0.469437
H106	H	1.223287	0.024815	0.489880
H107	H	1.218002	-0.035152	0.407058
H108	H	0.613586	0.238873	0.000077
H109	H	0.494942	0.236912	0.000077
H110	H	0.515117	-0.022267	0.000116
C111	C	0.820448	-0.244889	0.081439
C112	C	0.867583	-0.270271	0.000061
H113	H	0.763049	-0.266340	0.081425
H114	H	0.852415	-0.262115	0.136644
H115	H	0.813902	-0.188995	0.081428
H116	H	0.874135	-0.326165	0.000076
H117	H	0.835609	-0.253049	-0.055157
H118	H	0.943737	-0.488481	0.000060
C119	C	1.282730	-0.264183	0.000145
C120	C	1.206910	-0.309212	0.000121
H121	H	1.335029	-0.298229	0.000164
H122	H	1.282310	-0.231892	-0.055061
H123	H	1.282276	-0.231898	0.055359
H124	H	1.207360	-0.341493	-0.055097
H125	H	1.207330	-0.341517	0.055333
C126	C	0.568668	-0.046122	-0.081279
C127	C	0.622033	-0.040874	0.000107
H128	H	0.540755	-0.095121	-0.081276
H129	H	0.524177	-0.004272	-0.081272
H130	H	0.604885	-0.042547	-0.136483
H131	H	0.585814	-0.044444	0.055313
H132	H	0.666529	-0.082737	0.000110
C133	C	1.308242	-0.538487	-0.081267
C134	C	1.261107	-0.513112	0.000114
H135	H	1.365636	-0.517026	-0.081257
H136	H	1.314794	-0.594372	-0.081262
H137	H	1.276266	-0.521257	-0.136475
H138	H	1.293080	-0.530347	0.055323
H139	H	1.254559	-0.457215	0.000118
C140	C	0.882747	-0.050977	-0.081319
C141	C	0.883352	-0.098576	0.000071
H142	H	0.830444	-0.016936	-0.081329
H143	H	0.934185	-0.020442	-0.081304
H144	H	0.883185	-0.083276	-0.136521
H145	H	0.882921	-0.066278	0.055274
H146	H	0.831900	-0.129114	0.000065
C147	C	1.234066	-0.050181	0.306600
C148	C	1.184019	-0.003456	0.241815
H149	H	1.272750	-0.086313	0.272789
H150	H	1.268577	-0.017491	0.345455
H151	H	1.194810	-0.078436	0.345483
H152	H	1.223276	0.024804	0.202936
H153	H	1.149506	-0.036150	0.202943
H154	H	1.198578	-0.146533	0.000126
