data_functionalizedCrystal
_audit_creation_method	'MofGen! by Chris Wilmer'
_symmetry_space_group_name_H-M	'P1'
_symmetry_Int_Tables_number	1
_symmetry_cell_setting	triclinic
loop_
_symmetry_equiv_pos_as_xyz
  x,y,z
_cell_length_a	14.908571
_cell_length_b	25.639239
_cell_length_c	14.908308
_cell_angle_alpha	93.262277
_cell_angle_beta	90.175053
_cell_angle_gamma	86.734636
loop_
_atom_site_label
_atom_site_type_symbol
_atom_site_fract_x
_atom_site_fract_y
_atom_site_fract_z
Zn1	Zn	1.345148	-0.272845	-0.587542
Zn2	Zn	1.353683	-0.355542	-0.437170
Zn3	Zn	1.203468	-0.262803	-0.428541
Zn4	Zn	1.194711	-0.354921	-0.578822
O5	O	1.274253	-0.311528	-0.508019
O6	O	1.472104	-0.288277	-0.574855
O7	O	1.340994	-0.339297	-0.310201
O8	O	1.222355	-0.190974	-0.449671
O9	O	1.478375	-0.349035	-0.464378
O10	O	1.326446	-0.198352	-0.566488
O11	O	1.230632	-0.271162	-0.303862
O12	O	1.076483	-0.270560	-0.441216
O13	O	1.207430	-0.347976	-0.705803
O14	O	1.070049	-0.338239	-0.551626
O15	O	1.317955	-0.287675	-0.712209
O16	O	1.332503	-0.428620	-0.455922
O17	O	1.215707	-0.428164	-0.559993
C18	C	1.040642	-0.303242	-0.494539
C19	C	0.940701	-0.299711	-0.488793
C20	C	0.746258	-0.363649	-0.592813
C21	C	0.652355	-0.360332	-0.587418
C22	C	0.658987	-0.289761	-0.472613
C23	C	0.752891	-0.293077	-0.478008
C24	C	0.796523	-0.330022	-0.538109
C25	C	0.890429	-0.333341	-0.543499
C26	C	0.897060	-0.262767	-0.428700
C27	C	0.803156	-0.259451	-0.423304
C28	C	1.274104	-0.447364	-0.507969
C29	C	1.274121	-0.505479	-0.507982
C30	C	1.335213	-0.866081	-0.453936
C31	C	1.335247	-0.920687	-0.453950
O32	O	1.387035	-0.949120	-0.407943
N33	N	1.274407	-0.947774	-0.508087
C34	C	1.213536	-0.920253	-0.562222
O35	O	1.161791	-0.948307	-0.608272
C36	C	1.213506	-0.865649	-0.562212
C37	C	1.274344	-0.838564	-0.508064
C38	C	1.396046	-0.838996	-0.399793
C39	C	1.396010	-0.784393	-0.399778
C40	C	1.335142	-0.756876	-0.453906
C41	C	1.274309	-0.783961	-0.508048
C42	C	1.152640	-0.838129	-0.616350
C43	C	1.152616	-0.783521	-0.616336
C44	C	1.213454	-0.756436	-0.562188
C45	C	1.213404	-0.701842	-0.562161
N46	N	1.274244	-0.674754	-0.508024
C47	C	1.335113	-0.702272	-0.453896
C48	C	1.213603	-1.034927	-0.562239
C49	C	1.213627	-1.089530	-0.562245
C50	C	1.335339	-1.089960	-0.453974
C51	C	1.335310	-1.035355	-0.453964
C52	C	1.274442	-1.007839	-0.508102
C53	C	1.335033	-0.587603	-0.453867
C54	C	1.334989	-0.532996	-0.453854
C55	C	1.213280	-0.532571	-0.562128
C56	C	1.213320	-0.587173	-0.562138
C57	C	1.274204	-0.614688	-0.508005
O58	O	1.161645	-0.673375	-0.608147
O59	O	1.386857	-0.674211	-0.407862
C60	C	1.508776	-0.319846	-0.521552
C61	C	1.608716	-0.323390	-0.527319
C62	C	1.260764	-0.318877	-0.742543
C63	C	1.255015	-0.322008	-0.842483
C64	C	1.274426	-0.175163	-0.508090
C65	C	1.274499	-0.117052	-0.508120
C66	C	1.359301	-0.265089	-1.036954
C67	C	1.353903	-0.268030	-1.130857
C68	C	1.238817	-0.330827	-1.124193
C69	C	1.244215	-0.327887	-1.030291
C70	C	1.304460	-0.295017	-0.986674
C71	C	1.309862	-0.292079	-0.892770
C72	C	1.194772	-0.354874	-0.886108
C73	C	1.189374	-0.357814	-0.980011
C74	C	1.287741	-0.304171	-0.274410
C75	C	1.293664	-0.300899	-0.174480
H76	H	0.937996	-0.235387	-0.384154
O77	O	1.093511	-0.864352	-0.669037
C78	C	0.972766	-0.858137	-0.776400
C79	C	1.039698	-0.828377	-0.716786
H80	H	0.929229	-0.829064	-0.815006
H81	H	1.011271	-0.886587	-0.825895
H82	H	0.928205	-0.880796	-0.732376
H83	H	1.084277	-0.805689	-0.760738
H84	H	1.001138	-0.799959	-0.667285
H85	H	0.611432	-0.387713	-0.631965
O86	O	1.093610	-0.756776	-0.669028
C87	C	1.074399	-0.698454	-0.789661
C88	C	1.141321	-0.728724	-0.730068
H89	H	1.112947	-0.675758	-0.839014
H90	H	1.030938	-0.727174	-0.828428
H91	H	1.029758	-0.669990	-0.745608
H92	H	1.186021	-0.757189	-0.774055
H93	H	1.184719	-0.699974	-0.691294
H94	H	1.163784	-0.609227	-0.606233
O95	O	1.394178	-0.506769	-0.401230
C96	C	1.514866	-0.512966	-0.293801
C97	C	1.447900	-0.542730	-0.353366
H98	H	1.558305	-0.542026	-0.255073
H99	H	1.559519	-0.490336	-0.337782
H100	H	1.476298	-0.484489	-0.244401
H101	H	1.486394	-0.571233	-0.402775
H102	H	1.403248	-0.565325	-0.309329
H103	H	0.623445	-0.259678	-0.423687
H104	H	0.767618	-0.229369	-0.374374
O105	O	1.180221	-0.362762	-1.166427
C106	C	1.066678	-0.424762	-1.149922
C107	C	1.132983	-0.388608	-1.101978
H108	H	1.028482	-0.445677	-1.097837
H109	H	1.017106	-0.400489	-1.191152
H110	H	1.105413	-0.454915	-1.196283
H111	H	1.094323	-0.358449	-1.055572
H112	H	1.182554	-0.412916	-1.060805
H113	H	1.384905	-1.112374	-0.409903
O114	O	1.130908	-0.389814	-1.022288
C115	C	1.085549	-0.478105	-1.048510
C116	C	1.151807	-0.441921	-1.000564
H117	H	1.102434	-0.520242	-1.030979
H118	H	1.014104	-0.465821	-1.025850
H119	H	1.091095	-0.475037	-1.124256
H120	H	1.146341	-0.444970	-0.924810
H121	H	1.223224	-0.454215	-1.023296
H122	H	1.163719	-0.510158	-0.606196
H123	H	1.358918	-0.265316	-0.857259
H124	H	0.781785	-0.393734	-0.641745
O125	O	1.394273	-0.614352	-0.401422
C126	C	1.516404	-0.679857	-0.396444
C127	C	1.449378	-0.649596	-0.455944
H128	H	1.560962	-0.708366	-0.440498
H129	H	1.559934	-0.651133	-0.357777
H130	H	1.477887	-0.702501	-0.346992
H131	H	1.487823	-0.626950	-0.505447
H132	H	1.405849	-0.678346	-0.494547
O133	O	1.417803	-0.233209	-0.994440
C134	C	1.477091	-0.200830	-0.852727
C135	C	1.410811	-0.236964	-0.900758
H136	H	1.471447	-0.203846	-0.776977
H137	H	1.548543	-0.213162	-0.875301
H138	H	1.460305	-0.158699	-0.870351
H139	H	1.427514	-0.279106	-0.883157
H140	H	1.339378	-0.224588	-0.878181
O141	O	1.455204	-0.758170	-0.347164
C142	C	1.575904	-0.764378	-0.239751
C143	C	1.508922	-0.794137	-0.299306
H144	H	1.619340	-0.793443	-0.201028
H145	H	1.620559	-0.741754	-0.283739
H146	H	1.537351	-0.735898	-0.190346
H147	H	1.547402	-0.822644	-0.348719
H148	H	1.464268	-0.816726	-0.255262
O149	O	1.141533	-0.383895	-0.837128
C150	C	1.098891	-0.407227	-0.689516
C151	C	1.159215	-0.374321	-0.744874
H152	H	1.113179	-0.399506	-0.614919
H153	H	1.025321	-0.396053	-0.703729
H154	H	1.113560	-0.450516	-0.708929
H155	H	1.144625	-0.331023	-0.725494
H156	H	1.232766	-0.385539	-0.730656
O157	O	1.455316	-0.865737	-0.347372
C158	C	1.577508	-0.931207	-0.342459
C159	C	1.510417	-0.900967	-0.401922
H160	H	1.622062	-0.959706	-0.386537
H161	H	1.621036	-0.902468	-0.303825
H162	H	1.539045	-0.953861	-0.292978
H163	H	1.548807	-0.878312	-0.451454
H164	H	1.466890	-0.929733	-0.440493
O165	O	1.394373	-1.009099	-0.401242
C166	C	1.446894	-0.989137	-0.250847
C167	C	1.379965	-1.018906	-0.310452
H168	H	1.435256	-0.997047	-0.177430
H169	H	1.518495	-1.002905	-0.270807
H170	H	1.436438	-0.945387	-0.260181
H171	H	1.390339	-1.062661	-0.301150
H172	H	1.308389	-1.005095	-0.290478
O173	O	0.932672	-0.369241	-0.601958
C174	C	0.916179	-0.438905	-0.715228
C175	C	0.868228	-0.398265	-0.649074
H176	H	0.864099	-0.462389	-0.753326
H177	H	0.957438	-0.417995	-0.764900
H178	H	0.962513	-0.466443	-0.676380
H179	H	0.821850	-0.370715	-0.687847
H180	H	0.827026	-0.419209	-0.599403
O181	O	1.407269	-0.238942	-1.179566
C182	C	1.521949	-0.176321	-1.176259
C183	C	1.461577	-0.209246	-1.120990
H184	H	1.565859	-0.152295	-1.128924
H185	H	1.566471	-0.203342	-1.222901
H186	H	1.478156	-0.148921	-1.217878
H187	H	1.505300	-0.236649	-1.079318
H188	H	1.417049	-0.182194	-1.074404
H189	H	1.164029	-1.012526	-0.606321
O190	O	1.154489	-1.115758	-0.614920
C191	C	1.033729	-1.109551	-0.722268
C192	C	1.100666	-1.079786	-0.662665
H193	H	0.990183	-1.080480	-0.760871
H194	H	1.072231	-1.138000	-0.771765
H195	H	0.989177	-1.132210	-0.678235
H196	H	1.145235	-1.057097	-0.706626
H197	H	1.062108	-1.051368	-0.613162
