data_functionalizedCrystal
_audit_creation_method	'MofGen! by Chris Wilmer'
_symmetry_space_group_name_H-M	'P1'
_symmetry_Int_Tables_number	1
_symmetry_cell_setting	triclinic
loop_
_symmetry_equiv_pos_as_xyz
  x,y,z
_cell_length_a	25.639242
_cell_length_b	13.032721
_cell_length_c	13.032268
_cell_angle_alpha	76.710373
_cell_angle_beta	97.154173
_cell_angle_gamma	82.798787
loop_
_atom_site_label
_atom_site_type_symbol
_atom_site_fract_x
_atom_site_fract_y
_atom_site_fract_z
Zn1	Zn	0.725996	0.499229	-0.654459
Zn2	Zn	0.725938	0.654313	-0.499407
Zn3	Zn	0.651284	0.476708	-0.476853
Zn4	Zn	0.625835	0.676767	-0.676914
O5	O	0.682263	0.576754	-0.576908
O6	O	0.799149	0.519829	-0.633933
O7	O	0.726662	0.611932	-0.347799
O8	O	0.671869	0.331067	-0.481576
O9	O	0.799107	0.633769	-0.520017
O10	O	0.726759	0.347613	-0.612063
O11	O	0.671813	0.481446	-0.331228
O12	O	0.574747	0.503219	-0.503349
O13	O	0.628495	0.672037	-0.822551
O14	O	0.556050	0.650201	-0.650333
O15	O	0.702083	0.541601	-0.806054
O16	O	0.701985	0.805920	-0.541790
O17	O	0.628440	0.822416	-0.672203
C18	C	0.662458	0.852709	-0.611904
C19	C	0.654030	0.970768	-0.626911
C20	C	0.546429	0.576703	-0.576831
C21	C	0.488315	0.576710	-0.576826
C22	C	0.662457	0.611836	-0.853915
C23	C	0.654016	0.626786	-0.971958
C24	C	0.118214	0.653393	-0.653393
C25	C	0.063608	0.653402	-0.653410
O26	O	0.027099	0.718540	-0.718443
N27	N	0.046017	0.576792	-0.576981
C28	C	0.083036	0.500163	-0.500536
O29	O	0.063060	0.435001	-0.435529
C30	C	0.137641	0.500150	-0.500524
C31	C	0.155228	0.576771	-0.576952
C32	C	0.135801	0.730007	-0.729815
C33	C	0.190404	0.729999	-0.729796
C34	C	0.227418	0.653378	-0.653355
C35	C	0.209830	0.576764	-0.576933
C36	C	0.174659	0.423517	-0.424085
C37	C	0.229267	0.423510	-0.424080
C38	C	0.246854	0.500131	-0.500507
C39	C	0.301447	0.500134	-0.500472
N40	N	0.319037	0.576743	-0.576901
C41	C	0.282023	0.653365	-0.653343
C42	C	-0.031638	0.500193	-0.500568
C43	C	-0.086242	0.500209	-0.500575
C44	C	-0.105667	0.653448	-0.653451
C45	C	-0.051062	0.653435	-0.653439
C46	C	-0.014048	0.576803	-0.576998
C47	C	0.396692	0.653344	-0.653296
C48	C	0.451300	0.653332	-0.653268
C49	C	0.470720	0.500091	-0.500396
C50	C	0.416117	0.500106	-0.500420
C51	C	0.379104	0.576737	-0.576880
O52	O	0.337986	0.435026	-0.435476
O53	O	0.302007	0.718508	-0.718347
C54	C	0.818628	0.576806	-0.576987
C55	C	0.876738	0.576828	-0.577020
C56	C	0.702159	0.299725	-0.541799
C57	C	0.710637	0.181672	-0.526838
C58	C	0.686686	1.015212	-0.569124
C59	C	0.677976	1.137232	-0.584633
C60	C	0.686663	0.568914	-1.016423
C61	C	0.677940	0.584364	-1.138427
C62	C	0.702028	0.541732	-0.300970
C63	C	0.710591	0.526483	-0.182889
H64	H	0.465616	0.715730	-0.715505
H65	H	-0.036747	0.715826	-0.715674
C66	C	0.756565	1.112158	-0.445537
C67	C	0.785012	1.176813	-0.395250
C68	C	0.827328	1.112817	-0.320362
H69	H	0.743025	1.063051	-0.393669
H70	H	0.779521	1.074008	-0.480725
H71	H	0.762060	1.214946	-0.360063
H72	H	0.798564	1.225920	-0.447090
H73	H	0.850283	1.074667	-0.355550
H74	H	0.813783	1.063713	-0.268502
H75	H	0.846636	1.156677	-0.286241
H76	H	0.619606	0.687763	-1.024212
H77	H	0.643570	1.189514	-0.645596
C78	C	0.632011	0.665704	-1.207903
C79	C	0.603575	0.716083	-1.143234
C80	C	0.561259	0.791008	-1.207197
H81	H	0.645550	0.717523	-1.257064
H82	H	0.609049	0.630527	-1.245987
H83	H	0.626533	0.751260	-1.105169
H84	H	0.590024	0.664292	-1.094075
H85	H	0.538297	0.755831	-1.245280
H86	H	0.574802	0.842820	-1.256355
H87	H	0.541957	0.825193	-1.163328
H88	H	0.619626	1.023053	-0.687870
H89	H	0.366561	0.715742	-0.715559
C90	C	0.209388	0.813237	-0.812906
C91	C	0.165277	0.880313	-0.879863
C92	C	0.182739	0.956996	-0.956451
H93	H	0.230264	0.854411	-0.778201
H94	H	0.230274	0.778575	-0.854160
H95	H	0.144399	0.914972	-0.838614
H96	H	0.144396	0.839169	-0.914592
H97	H	0.203626	0.922334	-0.997706
H98	H	0.203616	0.998162	-0.921737
H99	H	0.152813	1.002510	-1.001897
H100	H	0.160350	0.361126	-0.361847
C101	C	0.732474	0.487520	-0.946613
C102	C	0.712284	0.411440	-0.874274
C103	C	0.754471	0.336452	-0.809940
H104	H	0.751855	0.453098	-0.990193
H105	H	0.755403	0.522685	-0.908444
H106	H	0.689364	0.376278	-0.912439
H107	H	0.692908	0.445830	-0.830670
H108	H	0.777400	0.371618	-0.771771
H109	H	0.773849	0.302039	-0.853529
H110	H	0.740778	0.284829	-0.760844
H111	H	0.744999	0.465488	-1.130638
C112	C	0.095536	0.813088	-0.812759
C113	C	0.043946	0.796708	-0.796448
C114	C	0.006843	0.873223	-0.872844
H115	H	0.100423	0.882487	-0.806208
H116	H	0.100472	0.806687	-0.882203
H117	H	0.039012	0.803118	-0.727021
H118	H	0.039042	0.727323	-0.803008
H119	H	0.011779	0.866823	-0.942288
H120	H	0.011735	0.942618	-0.866287
H121	H	-0.028165	0.862114	-0.861793
C122	C	-0.145944	0.736512	-0.736399
C123	C	-0.197527	0.720095	-0.720063
C124	C	-0.234644	0.796579	-0.796458
H125	H	-0.141070	0.805923	-0.729866
H126	H	-0.141011	0.730105	-0.805843
H127	H	-0.202458	0.726511	-0.650637
H128	H	-0.202418	0.650699	-0.726606
H129	H	-0.229711	0.790172	-0.865901
H130	H	-0.229765	0.865985	-0.789918
H131	H	-0.269647	0.785444	-0.785391
H132	H	-0.100556	0.437826	-0.438330
H133	H	0.259402	0.361100	-0.361836
H134	H	-0.001503	0.437790	-0.438313
C135	C	0.396982	0.417075	-0.417349
C136	C	0.366189	0.468454	-0.356784
C137	C	0.348560	0.391989	-0.280255
H138	H	0.376065	0.375992	-0.452095
H139	H	0.426831	0.371443	-0.371757
H140	H	0.336344	0.514068	-0.402370
H141	H	0.387094	0.509532	-0.322014
H142	H	0.378410	0.346357	-0.234662
H143	H	0.327646	0.350911	-0.315010
H144	H	0.327669	0.426839	-0.239146
C145	C	0.510997	0.416957	-0.417529
C146	C	0.562579	0.433338	-0.433902
C147	C	0.599697	0.356761	-0.357601
H148	H	0.506107	0.423266	-0.348050
H149	H	0.506079	0.347582	-0.424160
H150	H	0.567495	0.502695	-0.427262
H151	H	0.567486	0.427018	-0.503366
H152	H	0.594779	0.287386	-0.364231
H153	H	0.594802	0.363077	-0.288126
H154	H	0.634699	0.367859	-0.368705
H155	H	0.721094	0.962930	-0.508172
