data_functionalizedCrystal
_audit_creation_method	'MofGen! by Chris Wilmer'
_symmetry_space_group_name_H-M	'P1'
_symmetry_Int_Tables_number	1
_symmetry_cell_setting	triclinic
loop_
_symmetry_equiv_pos_as_xyz
  x,y,z
_cell_length_a	15.944551
_cell_length_b	27.731996
_cell_length_c	14.421503
_cell_angle_alpha	89.998301
_cell_angle_beta	89.996859
_cell_angle_gamma	83.060063
loop_
_atom_site_label
_atom_site_type_symbol
_atom_site_fract_x
_atom_site_fract_y
_atom_site_fract_z
O1	O	1.113694	0.062335	-0.077027
O2	O	0.869041	0.070021	-0.077052
O3	O	0.998989	-0.004187	-0.077019
O4	O	0.983746	0.136544	-0.077061
O5	O	0.998967	-0.004176	0.077204
O6	O	0.869020	0.070032	0.077171
O7	O	1.113672	0.062346	0.077196
Cu8	Cu	0.991344	0.066190	0.091265
Cu9	Cu	0.991369	0.066177	-0.091122
O10	O	0.983725	0.136555	0.077163
C11	C	0.837741	0.069708	0.000057
C12	C	0.744508	0.068751	0.000048
C13	C	0.998665	-0.022190	0.000096
C14	C	0.997722	-0.075851	0.000105
C15	C	0.530298	0.020467	0.000081
C16	C	0.468988	0.042883	-0.075966
C17	C	0.573805	0.067021	0.000060
C18	C	0.468989	0.042905	0.076086
C19	C	0.408915	0.065346	0.000075
C20	C	0.513723	0.089450	-0.076050
C21	C	0.513730	0.089465	0.076071
C22	C	0.452437	0.111915	0.000005
C23	C	0.668794	0.067984	0.000050
C24	C	0.313926	0.064385	0.000078
C25	C	0.991800	-0.408599	-0.084008
C26	C	0.988218	-0.610273	-0.084024
O27	O	0.987729	-0.636350	-0.155521
N28	N	0.987762	-0.635486	0.000042
C29	C	0.988195	-0.610277	0.084118
O30	O	0.987716	-0.636349	0.155622
C31	C	0.991771	-0.408603	0.084134
C32	C	0.992236	-0.383394	0.000062
C33	C	0.992264	-0.383389	-0.168073
C34	C	0.993164	-0.332974	-0.168068
C35	C	0.993600	-0.307769	-0.083998
C36	C	0.993135	-0.332979	0.000067
C37	C	0.992198	-0.383395	0.168210
C38	C	0.993089	-0.332973	0.168206
C39	C	0.993555	-0.307764	0.084134
C40	C	0.994471	-0.257358	0.084142
N41	N	0.994928	-0.232145	0.000076
C42	C	0.994492	-0.257350	-0.083994
C43	C	0.986320	-0.716158	0.084104
C44	C	0.985428	-0.766576	0.084101
C45	C	0.985449	-0.766569	-0.084043
C46	C	0.986348	-0.716150	-0.084038
C47	C	0.986776	-0.690945	0.000038
C48	C	0.996382	-0.151475	-0.083977
C49	C	0.997286	-0.101056	-0.083965
C50	C	0.997260	-0.101068	0.084178
C51	C	0.996361	-0.151483	0.084166
C52	C	0.995919	-0.176685	0.000081
O53	O	0.994951	-0.231249	0.155601
O54	O	0.994952	-0.231268	-0.155487
C55	C	0.990900	-0.459014	-0.084013
C56	C	0.990436	-0.484224	0.000052
C57	C	0.990872	-0.459019	0.084122
C58	C	0.989544	-0.534642	0.000048
C59	C	0.989108	-0.559847	-0.084022
C60	C	0.989564	-0.534634	-0.168088
C61	C	0.990464	-0.484219	-0.168083
C62	C	0.990415	-0.484232	0.168189
C63	C	0.989516	-0.534647	0.168177
C64	C	0.989080	-0.559852	0.084107
C65	C	1.144973	0.062660	0.000085
C66	C	1.238206	0.063616	0.000087
C67	C	0.984049	0.154558	0.000046
C68	C	0.984992	0.208218	0.000031
N69	N	0.991332	0.066199	0.219547
N70	N	0.991388	0.066165	-0.219403
C71	C	0.931234	0.100498	0.469185
C72	C	1.007008	0.109882	0.530992
C73	C	0.991353	0.066188	0.408708
C74	C	0.915598	0.056815	0.530995
C75	C	0.991366	0.066178	0.591430
C76	C	1.067165	0.075594	0.469154
C77	C	0.975705	0.022507	0.469152
C78	C	1.051534	0.031873	0.530931
C79	C	0.991344	0.066195	0.303447
C80	C	0.991383	0.066170	0.696689
H81	H	0.564149	-0.018169	-0.000002
O82	O	0.839200	0.047270	0.563354
C83	C	0.735574	-0.009157	0.567156
C84	C	0.822118	0.001580	0.530468
H85	H	0.721729	-0.046093	0.540567
H86	H	0.736483	-0.009460	0.646200
H87	H	0.684410	0.020154	0.541810
H88	H	0.873330	-0.027719	0.555746
H89	H	0.821138	0.001900	0.451426
H90	H	0.989213	-0.555165	-0.236541
O91	O	0.993672	-0.308447	-0.249686
C92	C	1.067259	-0.256890	-0.347268
C93	C	1.066859	-0.284668	-0.254825
H94	H	1.126416	-0.237649	-0.351445
H95	H	1.066808	-0.283524	-0.407430
H96	H	1.008807	-0.228903	-0.351339
H97	H	1.125301	-0.312655	-0.250664
H98	H	1.067267	-0.258005	-0.194707
H99	H	1.020256	0.146817	0.558155
O100	O	0.537405	0.112883	-0.152809
C101	C	0.652391	0.140098	-0.238902
C102	C	0.625686	0.113542	-0.151945
H103	H	0.723765	0.140649	-0.238222
H104	H	0.633651	0.120383	-0.303651
H105	H	0.619507	0.178957	-0.239175
H106	H	0.658556	0.074683	-0.151581
H107	H	0.644410	0.133295	-0.087235
O108	O	0.537315	0.113006	0.152731
C109	C	0.522977	0.187561	0.240266
C110	C	0.496178	0.160960	0.153413
H111	H	0.489744	0.226340	0.240836
H112	H	0.504793	0.167702	0.305084
H113	H	0.594293	0.188341	0.239143
H114	H	0.424866	0.160173	0.154446
H115	H	0.514424	0.180828	0.088633
H116	H	0.991906	-0.403905	-0.236537
O117	O	0.445443	0.019347	0.152758
C118	C	0.458659	-0.055497	0.239362
C119	C	0.485406	-0.028869	0.152512
H120	H	0.490943	-0.094487	0.239182
H121	H	0.477978	-0.036063	0.304193
H122	H	0.387196	-0.055660	0.238974
H123	H	0.556865	-0.028698	0.152810
H124	H	0.466025	-0.048311	0.087720
H125	H	0.449151	0.023188	-0.140247
H126	H	0.418760	0.150591	-0.000049
O127	O	0.986858	-0.691633	0.165721
C128	C	1.060684	-0.640221	0.263349
C129	C	1.060165	-0.667962	0.170877
H130	H	1.119955	-0.621085	0.267557
H131	H	1.002339	-0.612163	0.267574
H132	H	1.060166	-0.666912	0.323411
H133	H	1.060712	-0.641308	0.110763
H134	H	1.118505	-0.696027	0.166734
H135	H	0.997667	-0.080533	-0.152429
H136	H	0.996019	-0.171989	-0.152447
H137	H	0.986725	-0.695627	-0.152497
H138	H	0.985095	-0.787099	-0.152496
H139	H	0.989144	-0.555169	0.236643
H140	H	0.985062	-0.787099	0.152560
H141	H	0.990771	-0.463715	0.236650
H142	H	0.991820	-0.403912	0.236670
H143	H	0.993426	-0.312453	0.236672
O144	O	0.995880	-0.175898	0.165914
C145	C	0.996000	-0.170582	0.332689
C146	C	0.996537	-0.142876	0.240176
H147	H	0.996549	-0.143897	0.392753
H148	H	0.936756	-0.189742	0.336948
H149	H	1.054366	-0.198628	0.336848
H150	H	0.938212	-0.114807	0.235954
H151	H	1.055819	-0.123750	0.235956
H152	H	0.997618	-0.080537	0.152626
H153	H	0.880445	0.129536	0.442074
O154	O	0.990872	-0.459805	-0.249834
C155	C	0.990848	-0.465141	-0.416607
C156	C	0.990368	-0.492844	-0.324086
H157	H	0.990459	-0.491842	-0.476664
H158	H	0.932448	-0.437125	-0.420886
H159	H	1.050059	-0.445948	-0.420761
H160	H	0.931196	-0.512067	-0.319870
H161	H	1.048807	-0.520833	-0.319846
H162	H	1.131249	0.083561	0.442105
O163	O	1.112363	-0.002697	0.563037
C164	C	1.260914	-0.031881	0.567736
C165	C	1.192112	0.007304	0.531330
H166	H	1.325405	-0.023815	0.542099
H167	H	1.260185	-0.031847	0.646783
H168	H	1.248073	-0.069017	0.541224
H169	H	1.204906	0.044459	0.557773
H170	H	1.192858	0.007227	0.452283
O171	O	0.959922	-0.021519	0.436556
C172	C	0.942904	-0.070929	0.302003
C173	C	0.960821	-0.021051	0.338796
H174	H	0.943607	-0.070564	0.222961
H175	H	0.993509	-0.100276	0.328404
H176	H	0.878266	-0.078862	0.327417
H177	H	1.025433	-0.013072	0.313398
H178	H	0.910165	0.008268	0.312403
