data_functionalizedCrystal
_audit_creation_method	'MofGen! by Chris Wilmer'
_symmetry_space_group_name_H-M	'P1'
_symmetry_Int_Tables_number	1
_symmetry_cell_setting	triclinic
loop_
_symmetry_equiv_pos_as_xyz
  x,y,z
_cell_length_a	14.971482
_cell_length_b	10.967829
_cell_length_c	14.048226
_cell_angle_alpha	77.865708
_cell_angle_beta	89.994098
_cell_angle_gamma	84.173805
loop_
_atom_site_label
_atom_site_type_symbol
_atom_site_fract_x
_atom_site_fract_y
_atom_site_fract_z
O1	O	1.187825	0.162598	-0.105819
O2	O	0.927529	0.182076	-0.109018
O3	O	1.063678	-0.009306	-0.077618
O4	O	1.051675	0.353980	-0.137219
O5	O	1.063661	-0.009317	0.080705
O6	O	0.927512	0.182065	0.049305
O7	O	1.187808	0.162586	0.052505
Zn8	Zn	1.057658	0.172324	0.076042
Zn9	Zn	1.057679	0.172339	-0.132556
O10	O	1.051659	0.353968	0.021104
C11	C	0.894191	0.181201	-0.029715
C12	C	0.794880	0.178593	-0.029288
C13	C	0.748220	0.177358	0.057216
C14	C	0.654908	0.174888	0.057623
C15	C	0.608257	0.173661	-0.028478
C16	C	0.654924	0.174891	-0.114989
C17	C	0.748235	0.177353	-0.115393
C18	C	0.460435	0.169764	-0.114141
C19	C	0.367117	0.167305	-0.113738
C20	C	0.367107	0.167299	0.058874
C21	C	0.460418	0.169760	0.058470
C22	C	0.507079	0.170993	-0.028041
C23	C	1.062795	-0.055803	0.009169
C24	C	1.060179	-0.194332	0.031890
C25	C	1.059021	-0.256081	-0.039997
C26	C	1.056316	-0.399259	-0.016515
C27	C	1.221146	0.163462	-0.026801
C28	C	1.320457	0.166070	-0.027234
C29	C	1.052542	0.400466	-0.065685
C30	C	1.055158	0.538995	-0.088413
N31	N	1.057649	0.172313	0.218404
N32	N	1.057695	0.172340	-0.274917
C33	C	1.117955	0.087604	0.282121
C34	C	1.117961	0.087603	0.381779
C35	C	1.057665	0.172319	0.417717
C36	C	0.997352	0.257032	0.353993
C37	C	0.997343	0.257025	0.254338
C38	C	0.997378	0.257041	0.561706
C39	C	0.997389	0.257049	0.661367
C40	C	1.117997	0.087619	0.689146
C41	C	1.117987	0.087612	0.589491
C42	C	1.057675	0.172327	0.525774
H43	H	0.786195	0.178367	0.127328
H44	H	1.055300	-0.452386	0.062420
Br45	Br	1.060726	-0.167540	-0.171556
H46	H	1.059162	-0.247465	0.110820
Br47	Br	1.056801	-0.372460	-0.219980
H48	H	0.616923	0.173862	0.128067
Br49	Br	0.915520	0.372008	0.475235
Br50	Br	0.303784	0.165631	0.176281
H51	H	1.167089	0.018637	0.560231
H52	H	0.329137	0.166307	-0.183849
H53	H	1.167059	0.018624	0.252867
Br54	Br	1.199851	-0.027344	0.775621
H55	H	0.498398	0.170767	0.128579
Br56	Br	1.199803	-0.027365	0.468255
H57	H	0.948288	0.326032	0.690622
H58	H	0.948253	0.326004	0.383260
Br59	Br	0.915489	0.371985	0.167866
H60	H	0.616935	0.173884	-0.185092
Br61	Br	0.523760	0.171431	-0.231550
H62	H	0.786225	0.178361	-0.185834
