data_functionalizedCrystal
_audit_creation_method	'MofGen! by Chris Wilmer'
_symmetry_space_group_name_H-M	'P1'
_symmetry_Int_Tables_number	1
_symmetry_cell_setting	triclinic
loop_
_symmetry_equiv_pos_as_xyz
  x,y,z
_cell_length_a	6.817900
_cell_length_b	15.301048
_cell_length_c	10.992410
_cell_angle_alpha	93.553746
_cell_angle_beta	108.764651
_cell_angle_gamma	104.176180
loop_
_atom_site_label
_atom_site_type_symbol
_atom_site_fract_x
_atom_site_fract_y
_atom_site_fract_z
V1	V	-4.090839	-0.124759	-0.400989
O2	O	-4.073501	0.005995	-0.392948
O3	O	-4.045410	-0.247377	-0.398639
O4	O	-4.068791	-0.122840	-0.575695
O5	O	-4.049958	-0.119403	-0.214666
V6	V	-4.570667	-0.109120	-0.378656
O7	O	-4.360202	-0.159066	-0.449979
O8	O	-4.751501	-0.074812	-0.329666
O9	O	-4.392889	0.013498	-0.381006
O10	O	-4.705402	-0.239874	-0.386696
O11	O	-4.728944	-0.114475	-0.564979
O12	O	-4.369508	-0.111039	-0.203949
C13	C	-3.890281	-0.277268	-0.392414
C14	C	-3.934600	-0.377509	-0.391657
C15	C	-4.067063	-0.796404	-0.270651
C16	C	-4.025415	-0.702217	-0.271370
C17	C	-4.063001	-0.668004	-0.389433
C18	C	-4.142220	-0.727983	-0.506783
C19	C	-4.183852	-0.822167	-0.506062
C20	C	-4.055448	-0.531671	-0.508277
C21	C	-4.013818	-0.437481	-0.508998
C22	C	-3.897011	-0.411722	-0.273585
C23	C	-3.938643	-0.505906	-0.272864
C24	C	-4.017863	-0.565878	-0.390215
C25	C	-3.920104	-0.118408	-0.618266
C26	C	-3.983381	-0.117651	-0.761092
C27	C	-3.851799	-0.110747	-0.956193
C28	C	-3.786031	-0.111909	-0.807714
C29	C	-4.164714	-0.206560	-0.838478
C30	C	-4.229176	-0.205773	-0.987042
C31	C	-4.139245	-0.033613	-0.948464
C32	C	-4.068615	-0.033192	-0.799450
C33	C	-4.211360	0.043385	-0.387227
C34	C	-4.146280	0.143625	-0.387993
C35	C	-4.181536	-0.115473	-0.161372
C36	C	-4.097498	-0.116226	-0.018545
H37	H	-3.832501	-0.362887	-0.178033
O38	O	-4.054877	-0.400704	-0.636438
H39	H	-4.175864	-0.361942	-0.647097
H40	H	-4.409727	-0.213505	-1.029698
H41	H	-3.960919	-0.653391	-0.175819
H42	H	-4.172808	-0.700119	-0.602911
O43	O	-4.257076	-0.031791	-0.756342
H44	H	-4.390441	-0.094889	-0.803402
H45	H	-3.908050	-0.533759	-0.176728
O46	O	-4.026502	-0.833296	-0.143305
H47	H	-4.068771	-0.908864	-0.162513
H48	H	-4.119941	-0.580499	-0.603837
O49	O	-3.605287	-0.027228	-0.736764
H50	H	-3.461506	-0.047156	-0.678346
H51	H	-3.815724	-0.170105	-1.004374
H52	H	-4.248350	-0.870996	-0.601614
O53	O	-3.712522	-0.025495	-0.980878
H54	H	-3.816920	0.013883	-1.037857
O55	O	-3.695334	-0.191627	-0.775078
H56	H	-3.698353	-0.229504	-0.865411
O57	O	-4.088520	-0.289627	-0.804850
H58	H	-4.048939	-0.291379	-0.699034
H59	H	-4.317623	-0.036845	-0.989315
H60	H	-4.313699	-0.213972	-0.809698
O61	O	-4.192965	-0.288615	-1.048607
H62	H	-4.129664	-0.328858	-0.972197
H63	H	-4.048999	0.033902	-0.968608
H64	H	-3.937702	0.032579	-0.746883
