data_functionalizedCrystal
_audit_creation_method	'MofGen! by Chris Wilmer'
_symmetry_space_group_name_H-M	'P1'
_symmetry_Int_Tables_number	1
_symmetry_cell_setting	triclinic
loop_
_symmetry_equiv_pos_as_xyz
  x,y,z
_cell_length_a	18.215407
_cell_length_b	12.827892
_cell_length_c	18.215387
_cell_angle_alpha	90.084384
_cell_angle_beta	89.944679
_cell_angle_gamma	89.985226
loop_
_atom_site_label
_atom_site_type_symbol
_atom_site_fract_x
_atom_site_fract_y
_atom_site_fract_z
Zn1	Zn	1.125386	0.415461	-0.416104
Zn2	Zn	1.125229	0.590413	-0.293053
Zn3	Zn	1.002237	0.415679	-0.293057
Zn4	Zn	1.002301	0.590153	-0.416083
O5	O	1.063789	0.502926	-0.354574
O6	O	1.228350	0.438686	-0.399788
O7	O	1.108822	0.567435	-0.190069
O8	O	1.018612	0.269414	-0.309390
O9	O	1.228234	0.567223	-0.309383
O10	O	1.109089	0.269254	-0.399792
O11	O	1.018460	0.439059	-0.190072
O12	O	0.899262	0.438806	-0.309369
O13	O	1.018721	0.566779	-0.519070
O14	O	0.899308	0.566991	-0.399756
O15	O	1.109151	0.438433	-0.519086
O16	O	1.108884	0.736615	-0.309363
O17	O	1.018569	0.736423	-0.399752
C18	C	0.872582	0.502894	-0.354561
C19	C	0.790783	0.502906	-0.354573
C20	C	0.602648	0.436114	-0.401722
C21	C	0.525790	0.436123	-0.401724
C22	C	0.525681	0.569768	-0.307440
C23	C	0.602538	0.569753	-0.307434
C24	C	0.641020	0.502928	-0.354579
C25	C	0.487304	0.502952	-0.354587
C26	C	0.403970	0.502962	-0.354590
C27	C	0.724359	0.502916	-0.354576
C28	C	1.063736	0.774436	-0.354571
C29	C	1.063781	0.890589	-0.354594
C30	C	1.108523	0.942434	-0.309918
C31	C	1.108571	1.062485	-0.309941
C32	C	1.255741	0.502959	-0.354588
C33	C	1.337540	0.502974	-0.354593
C34	C	1.063961	0.502553	-0.546528
C35	C	1.064034	0.502393	-0.628327
C36	C	1.063855	1.230356	-0.354603
C37	C	1.063868	1.114203	-0.354637
C38	C	1.063659	0.503224	-0.163368
C39	C	1.063729	0.503089	-0.081569
C40	C	1.110649	0.435382	0.183287
C41	C	1.110597	0.435497	0.106428
C42	C	1.017108	0.570103	0.106823
C43	C	1.017157	0.569982	0.183681
C44	C	1.063932	0.502623	0.221910
C45	C	1.063830	0.502859	0.068194
C46	C	1.063773	0.502985	-0.015139
C47	C	1.063989	0.502495	0.305249
H48	H	0.633978	0.381697	-0.440108
H49	H	0.633781	0.624162	-0.269041
O50	O	0.971696	0.635157	0.221237
C51	C	0.872494	0.650072	0.308235
C52	C	0.923920	0.576152	0.265735
H53	H	0.833865	0.602397	0.344234
H54	H	0.839005	0.698225	0.267743
H55	H	0.906582	0.704335	0.344230
H56	H	0.889888	0.521825	0.229739
H57	H	0.957412	0.528072	0.306267
O58	O	0.971610	0.635574	0.069800
C59	C	0.878923	0.769123	0.078305
C60	C	0.930399	0.695008	0.120323
H61	H	0.845602	0.817210	0.119135
H62	H	0.840140	0.721645	0.042316
H63	H	0.912964	0.823436	0.042348
H64	H	0.896418	0.640680	0.156319
H65	H	0.969184	0.742552	0.156266
H66	H	0.494551	0.381715	-0.440111
H67	H	1.148637	0.380741	0.074984
O68	O	0.488184	0.634652	-0.261719
C69	C	0.369733	0.693866	-0.219912
C70	C	0.412104	0.620346	-0.271740
H71	H	0.308215	0.682309	-0.227985
H72	H	0.384797	0.778152	-0.232740
H73	H	0.384828	0.675511	-0.160598
H74	H	0.397032	0.638606	-0.331071
H75	H	0.397036	0.536081	-0.258848
H76	H	1.146798	0.897946	-0.271654
O77	O	1.018203	1.061143	-0.400376
C78	C	0.982533	1.027223	-0.525504
C79	C	1.034282	1.087407	-0.473787
H80	H	0.995525	1.048419	-0.584868
H81	H	0.923173	1.048742	-0.512609
H82	H	0.990626	0.939885	-0.517316
H83	H	1.026255	1.174760	-0.481946
H84	H	1.093623	1.065802	-0.486695
O85	O	1.154271	1.115826	-0.264399
C86	C	1.195963	1.284118	-0.222875
C87	C	1.144168	1.223837	-0.274488
H88	H	1.187802	1.371454	-0.231003
H89	H	1.255317	1.262674	-0.235865
H90	H	1.183080	1.262841	-0.163501
H91	H	1.156985	1.245081	-0.333878
H92	H	1.084830	1.245286	-0.261434
O93	O	1.018020	0.943541	-0.400212
C94	C	0.892873	0.977250	-0.435782
C95	C	0.944615	0.917203	-0.384083
H96	H	0.833514	0.955995	-0.422750
H97	H	0.905719	0.955668	-0.495157
H98	H	0.901085	1.064610	-0.427680
H99	H	0.936432	0.829830	-0.392120
H100	H	0.931757	0.938873	-0.324728
H101	H	1.148735	0.380531	0.214411
