data_functionalizedCrystal
_audit_creation_method	'MofGen! by Chris Wilmer'
_symmetry_space_group_name_H-M	'P1'
_symmetry_Int_Tables_number	1
_symmetry_cell_setting	triclinic
loop_
_symmetry_equiv_pos_as_xyz
  x,y,z
_cell_length_a	17.639181
_cell_length_b	16.120444
_cell_length_c	17.639252
_cell_angle_alpha	97.791046
_cell_angle_beta	92.148843
_cell_angle_gamma	81.120728
loop_
_atom_site_label
_atom_site_type_symbol
_atom_site_fract_x
_atom_site_fract_y
_atom_site_fract_z
Zn1	Zn	1.227326	-0.545563	0.224539
Zn2	Zn	1.195760	-0.703433	0.106333
Zn3	Zn	1.075108	-0.534851	0.122688
Zn4	Zn	1.096450	-0.650348	0.256042
O5	O	1.148661	-0.608549	0.177400
O6	O	1.328404	-0.593204	0.188830
O7	O	1.157613	-0.698804	0.003224
O8	O	1.099578	-0.421867	0.129860
O9	O	1.305212	-0.709191	0.101984
O10	O	1.211412	-0.429737	0.204689
O11	O	1.068970	-0.574947	0.015240
O12	O	0.972674	-0.523473	0.160407
O13	O	1.135954	-0.618714	0.357142
O14	O	0.988354	-0.608328	0.258381
O15	O	1.232107	-0.541729	0.333997
O16	O	1.178308	-0.810796	0.132531
O17	O	1.105346	-0.771795	0.242522
C18	C	0.953220	-0.558978	0.214588
C19	C	0.869612	-0.537788	0.230516
C20	C	0.534228	-0.769706	0.056417
C21	C	0.455668	-0.749783	0.071390
C22	C	0.479840	-0.629151	0.161975
C23	C	0.558403	-0.649062	0.147007
C24	C	0.585591	-0.719341	0.094228
C25	C	0.609766	-0.598696	0.184818
C26	C	0.688323	-0.618608	0.169854
C27	C	0.715517	-0.688886	0.117079
C28	C	0.664148	-0.739253	0.079264
C29	C	0.582578	-0.528421	0.237600
C30	C	0.633940	-0.478055	0.275411
C31	C	0.712498	-0.497964	0.260444
C32	C	0.739693	-0.568241	0.207669
C33	C	0.763868	-0.447597	0.298259
C34	C	0.842425	-0.467509	0.283295
C35	C	0.818250	-0.588153	0.192705
C36	C	1.140741	-0.820962	0.189183
C37	C	1.137427	-0.911846	0.194235
C38	C	1.166071	-1.138028	0.151317
C39	C	1.131392	-1.078252	0.203465
C40	C	1.134751	-0.985656	0.198328
C41	C	1.162713	-1.230634	0.156453
C42	C	1.344865	-0.658314	0.140068
C43	C	1.428476	-0.679520	0.124160
C44	C	1.189932	-0.575495	0.373630
C45	C	1.207520	-0.561410	0.457251
C46	C	1.156636	-0.395309	0.165585
C47	C	1.160034	-0.304438	0.160550
C48	C	1.015081	-0.715509	0.792518
C49	C	1.031623	-0.702267	0.871089
C50	C	1.131739	-0.622110	0.846980
C51	C	1.115203	-0.635341	0.768405
C52	C	1.056873	-0.682042	0.741181
C53	C	1.156996	-0.601874	0.717068
C54	C	1.140463	-0.615109	0.638500
C55	C	1.082138	-0.661810	0.611269
C56	C	1.040341	-0.695277	0.662613
C57	C	1.215328	-0.555179	0.744294
C58	C	1.257121	-0.521712	0.692957
C59	C	1.240585	-0.534941	0.614387
C60	C	1.182260	-0.581642	0.587156
C61	C	1.282382	-0.501474	0.563044
C62	C	1.265849	-0.514709	0.484476
C63	C	1.165727	-0.594877	0.508588
C64	C	1.107540	-0.641491	0.981937
C65	C	1.089942	-0.655579	0.898318
H66	H	0.779483	-0.705091	0.104890
H67	H	0.457693	-0.571931	0.204949
C68	C	0.986261	-0.738760	0.926735
C69	C	0.995580	-0.827021	0.908980
C70	C	0.953800	-0.860666	0.960218
H71	H	1.004412	-0.724286	0.977453
H72	H	0.933440	-0.716194	0.922807
H73	H	1.048390	-0.849580	0.912915
H74	H	0.977425	-0.841519	0.858271
H75	H	0.900978	-0.838099	0.956290
H76	H	0.971954	-0.846186	1.010933
H77	H	0.960111	-0.920553	0.948174
H78	H	0.518611	-0.512213	0.249784
C79	C	1.102506	-0.645748	0.479039
C80	C	1.119904	-0.727579	0.499496
C81	C	1.061699	-0.774474	0.472273
H82	H	1.055073	-0.618917	0.500838
H83	H	1.098665	-0.648893	0.424888
H84	H	1.123737	-0.724431	0.553636
H85	H	1.167327	-0.754433	0.477698
H86	H	1.057857	-0.777619	0.418122
H87	H	1.014270	-0.747636	0.494074
H88	H	1.073499	-0.830003	0.486143
C89	C	0.604264	-0.401763	0.332655
C90	C	0.524471	-0.395091	0.337655
C91	C	0.497108	-0.324813	0.390371
H92	H	0.627246	-0.408481	0.381445
H93	H	0.616836	-0.351891	0.316222
H94	H	0.511906	-0.444952	0.354092
H95	H	0.501469	-0.388360	0.288879
H96	H	0.509680	-0.274940	0.373939
H97	H	0.520095	-0.331537	0.439158
H98	H	0.442965	-0.320272	0.393766
H99	H	0.556365	-0.826930	0.013435
H100	H	1.198280	-1.119665	0.102817
C101	C	0.977022	-0.746062	0.633191
C102	C	0.943974	-0.772566	0.694962
C103	C	0.885662	-0.819370	0.667885
H104	H	0.938891	-0.711730	0.607052
H105	H	0.998023	-0.794178	0.599067
H106	H	0.922972	-0.724457	0.729073
H107	H	0.982085	-0.806909	0.721107
H108	H	0.906662	-0.867486	0.633761
H109	H	0.847536	-0.785032	0.641747
H110	H	0.863236	-0.837365	0.709792
C111	C	1.195011	-0.571394	0.876695
C112	C	1.200535	-0.566949	0.956491
C113	C	1.258805	-0.520225	0.983890
H114	H	1.242447	-0.598284	0.854941
H115	H	1.183345	-0.515812	0.862916
H116	H	1.212206	-0.622521	0.970264
H117	H	1.153114	-0.540052	0.978266
H118	H	1.247139	-0.464644	0.970111
H119	H	1.306236	-0.547120	0.962131
H120	H	1.262555	-0.517197	1.038035
H121	H	1.068681	-0.672589	0.547293
H122	H	1.228789	-0.544407	0.808269
C123	C	1.320393	-0.470996	0.722672
C124	C	1.325917	-0.466552	0.802468
C125	C	1.384186	-0.419827	0.829867
H126	H	1.367829	-0.497886	0.700917
H127	H	1.308727	-0.415415	0.708892
H128	H	1.337587	-0.522123	0.816240
H129	H	1.278495	-0.439654	0.824242
H130	H	1.372520	-0.364246	0.816088
H131	H	1.431618	-0.446722	0.808107
H132	H	1.387937	-0.416799	0.884012
C133	C	0.400018	-0.804550	0.030228
C134	C	0.440644	-0.870346	-0.019206
C135	C	0.389405	-0.920808	-0.057140
H136	H	0.374071	-0.827700	0.066691
H137	H	0.363653	-0.770997	0.001552
H138	H	0.476995	-0.903894	0.009468
H139	H	0.466588	-0.847221	-0.055684
H140	H	0.353040	-0.887255	-0.085816
H141	H	0.363461	-0.943951	-0.020671
H142	H	0.416961	-0.965451	-0.090690
H143	H	1.099180	-1.096618	0.251968
H144	H	0.741720	-0.390380	0.341236
C145	C	0.898070	-0.412702	0.324397
C146	C	0.857445	-0.346881	0.373806
C147	C	0.908679	-0.296373	0.411680
H148	H	0.934458	-0.446190	0.353089
H149	H	0.923987	-0.389587	0.287876
H150	H	0.831540	-0.369995	0.410323
H151	H	0.821060	-0.313372	0.345134
H152	H	0.934596	-0.273258	0.375158
H153	H	0.945064	-0.329868	0.440367
H154	H	0.881122	-0.251703	0.445203
H155	H	0.967566	-0.753514	0.770353
H156	H	1.329879	-0.463457	0.585222
C157	C	1.311281	-0.478267	0.428858
C158	C	1.365886	-0.434515	0.469518
C159	C	1.407748	-0.400927	0.418309
H160	H	1.336507	-0.522943	0.393682
H161	H	1.277407	-0.440469	0.401723
H162	H	1.399755	-0.472310	0.496640
H163	H	1.340682	-0.389827	0.504690
H164	H	1.373874	-0.363129	0.391173
H165	H	1.432969	-0.445608	0.383135
H166	H	1.444797	-0.371231	0.445889
H167	H	0.686284	-0.796477	0.036281
C168	C	0.847753	-0.664567	0.135509
C169	C	0.829077	-0.737910	0.159903
C170	C	0.856254	-0.808316	0.107244
H171	H	0.824718	-0.657887	0.086735
H172	H	0.901902	-0.669264	0.132027
H173	H	0.774938	-0.733213	0.163377
H174	H	0.852111	-0.744617	0.208670
H175	H	0.910403	-0.813013	0.103762
H176	H	0.833217	-0.801627	0.058473
H177	H	0.843592	-0.858088	0.123792
