data_functionalizedCrystal
_audit_creation_method	'MofGen! by Chris Wilmer'
_symmetry_space_group_name_H-M	'P1'
_symmetry_Int_Tables_number	1
_symmetry_cell_setting	triclinic
loop_
_symmetry_equiv_pos_as_xyz
  x,y,z
_cell_length_a	13.032831
_cell_length_b	18.215405
_cell_length_c	18.215399
_cell_angle_alpha	90.030551
_cell_angle_beta	82.809197
_cell_angle_gamma	97.170997
loop_
_atom_site_label
_atom_site_type_symbol
_atom_site_fract_x
_atom_site_fract_y
_atom_site_fract_z
Zn1	Zn	1.597611	0.436094	-0.558719
Zn2	Zn	1.597481	0.559154	-0.435635
Zn3	Zn	1.422854	0.420464	-0.420066
Zn4	Zn	1.422806	0.543466	-0.543067
O5	O	1.510188	0.489795	-0.489372
O6	O	1.743832	0.465525	-0.555458
O7	O	1.574282	0.540781	-0.330583
O8	O	1.446111	0.319560	-0.438493
O9	O	1.743737	0.555937	-0.465029
O10	O	1.574504	0.331043	-0.540361
O11	O	1.445985	0.438886	-0.319144
O12	O	1.276609	0.423674	-0.423316
O13	O	1.446028	0.529199	-0.648131
O14	O	1.276574	0.514043	-0.513685
O15	O	1.574457	0.450313	-0.659630
O16	O	1.574235	0.660051	-0.449852
O17	O	1.445902	0.648525	-0.528782
C18	C	1.238674	0.465460	-0.465113
C19	C	1.122519	0.455068	-0.454753
C20	C	1.510252	0.489750	-0.681331
C21	C	1.510279	0.489730	-0.763132
C22	C	1.510078	0.680991	-0.489327
C23	C	1.510126	0.762794	-0.489340
C24	C	1.070743	0.495219	-0.494779
C25	C	0.950691	0.484478	-0.484072
C26	C	1.782763	0.514225	-0.513726
C27	C	1.898918	0.524635	-0.524104
C28	C	1.510327	0.297854	-0.489436
C29	C	1.510387	0.216061	-0.489463
C30	C	1.577106	0.956979	-0.448342
C31	C	1.577153	1.033842	-0.448364
C32	C	1.443404	1.021870	-0.530466
C33	C	1.443363	0.945009	-0.530448
C34	C	1.510213	0.912565	-0.489382
C35	C	1.510300	1.066289	-0.489422
C36	C	1.510350	1.149627	-0.489446
C37	C	1.510164	0.829222	-0.489358
C38	C	1.577176	0.448613	-0.957317
C39	C	1.577188	0.448593	-1.034177
C40	C	1.443456	0.530741	-1.022192
C41	C	1.443439	0.530756	-0.945333
C42	C	1.510305	0.489694	-0.912898
C43	C	1.510334	0.489658	-1.066617
C44	C	1.510347	0.489636	-1.149952
C45	C	1.510291	0.489715	-0.829558
C46	C	1.510185	0.489792	-0.298165
C47	C	1.510360	0.489622	-0.216383
H48	H	0.906143	0.442146	-0.441877
H49	H	1.115294	0.537542	-0.536977
H50	H	1.631639	0.415139	-1.070340
H51	H	0.943464	0.566960	-0.566307
H52	H	1.077967	0.412738	-0.412561
H53	H	1.631540	0.930566	-0.414905
H54	H	1.388976	1.048295	-0.563900
O55	O	1.378280	0.901965	-0.570331
C56	C	1.319298	0.947081	-0.606591
H57	H	1.315729	1.001572	-0.576138
H58	H	1.236945	0.917535	-0.607031
H59	H	1.357524	0.958617	-0.665923
H60	H	1.631625	1.070001	-0.414947
O61	O	1.378416	0.570648	-1.053579
C62	C	1.319408	0.606925	-0.997890
H63	H	1.315793	0.576468	-0.942791
H64	H	1.237072	0.607397	-1.012735
H65	H	1.357641	0.666244	-0.993115
H66	H	1.388977	0.564208	-0.909164
O67	O	1.642153	0.408655	-0.925925
C68	C	1.701193	0.372405	-0.981617
H69	H	1.658402	0.366013	-1.032579
H70	H	1.712372	0.315428	-0.960429
H71	H	1.780547	0.406461	-0.996878
