data_functionalizedCrystal
_audit_creation_method	'MofGen! by Chris Wilmer'
_symmetry_space_group_name_H-M	'P1'
_symmetry_Int_Tables_number	1
_symmetry_cell_setting	triclinic
loop_
_symmetry_equiv_pos_as_xyz
  x,y,z
_cell_length_a	19.288864
_cell_length_b	14.971486
_cell_length_c	14.048226
_cell_angle_alpha	89.996181
_cell_angle_beta	90.018690
_cell_angle_gamma	96.624813
loop_
_atom_site_label
_atom_site_type_symbol
_atom_site_fract_x
_atom_site_fract_y
_atom_site_fract_z
O1	O	0.921713	-0.111578	0.079466
O2	O	0.719501	-0.126630	0.079401
O3	O	0.826027	0.011125	0.079429
O4	O	0.815187	-0.249333	0.079439
O5	O	0.826016	0.011127	-0.078892
O6	O	0.719491	-0.126629	-0.078920
O7	O	0.921702	-0.111577	-0.078855
Zn8	Zn	0.820595	-0.119103	-0.104024
Zn9	Zn	0.820608	-0.119104	0.104571
O10	O	0.815177	-0.249332	-0.078882
C11	C	0.693618	-0.126145	0.000232
C12	C	0.616510	-0.124691	0.000207
N13	N	0.820591	-0.119101	-0.246385
C14	C	0.825537	0.044448	0.000268
C15	C	0.824084	0.143737	0.000269
C16	C	0.572077	-0.205520	0.000226
C17	C	0.499625	-0.204154	0.000236
C18	C	0.471610	-0.121955	0.000247
C19	C	0.516052	-0.041116	0.000224
C20	C	0.588502	-0.042484	0.000204
C21	C	0.363141	-0.057338	0.055744
C22	C	0.290692	-0.055973	0.055770
C23	C	0.248150	-0.117732	0.000305
C24	C	0.278065	-0.180870	-0.055174
C25	C	0.350515	-0.182239	-0.055194
C26	C	0.393051	-0.120462	0.000269
C27	C	0.125157	-0.197085	0.000333
C28	C	0.052704	-0.195715	0.000338
C29	C	0.069133	-0.032675	0.000335
C30	C	0.141584	-0.034046	0.000321
C31	C	0.169591	-0.116254	0.000324
C32	C	0.947585	-0.112062	0.000316
C33	C	1.024694	-0.113516	0.000347
C34	C	0.815667	-0.282655	0.000280
C35	C	0.817119	-0.381944	0.000286
C36	C	0.886665	0.201301	0.000288
C37	C	0.885296	0.294593	0.000297
C38	C	0.821345	0.330320	0.000280
C39	C	0.758759	0.272749	0.000264
C40	C	0.760129	0.179458	0.000261
C41	C	0.755909	0.467196	0.000266
C42	C	0.754538	0.560492	0.000267
C43	C	0.881075	0.582330	0.000302
C44	C	0.882445	0.489040	0.000300
C45	C	0.819859	0.431475	0.000281
C46	C	0.862759	-0.173214	-0.296182
C47	C	0.862768	-0.173210	-0.395840
C48	C	0.820605	-0.119097	-0.445698
C49	C	0.778435	-0.064978	-0.395894
C50	C	0.778430	-0.064978	-0.296238
C51	C	0.778446	-0.064984	-0.603608
C52	C	0.778450	-0.064985	-0.703271
C53	C	0.862784	-0.173217	-0.703210
C54	C	0.862780	-0.173216	-0.603554
C55	C	0.820609	-0.119098	-0.553757
N56	N	0.820618	-0.119099	0.246932
H57	H	0.594875	-0.272460	0.000230
Br58	Br	0.920018	-0.246662	-0.770791
H59	H	0.624680	0.023339	0.000190
Br60	Br	0.970231	0.372713	0.000324
Br61	Br	0.969236	0.440554	0.000325
H62	H	0.266340	-0.004565	0.100948
Br63	Br	0.667747	0.608978	0.000239
H64	H	0.463441	-0.269976	0.000248
H65	H	0.897107	-0.217273	-0.436381
Br66	Br	0.675195	0.101334	0.000243
H67	H	0.744092	-0.020914	-0.255695
H68	H	0.938741	0.172220	0.000296
Br69	Br	0.670970	0.389072	0.000245
Br70	Br	0.721227	0.008481	-0.536026
Br71	Br	0.671968	0.321233	0.000256
H72	H	0.932035	0.629204	0.000320
H73	H	0.897109	-0.217284	-0.562962
Br74	Br	0.919982	-0.246661	-0.228527
H75	H	0.744108	-0.020914	-0.436497
Br76	Br	0.391113	-0.267919	-0.130484
Br77	Br	0.420869	0.026488	0.131022
Br78	Br	0.478033	0.070441	0.000230
H79	H	0.243429	-0.231160	-0.100339
H80	H	0.147961	-0.264023	0.000322
Br81	Br	0.031120	0.078884	0.000335
Br82	Br	-0.007600	-0.305422	0.000354
Br83	Br	0.201890	0.075656	0.000299
H84	H	0.744116	-0.020923	-0.743863
