data_functionalizedCrystal
_audit_creation_method	'MofGen! by Chris Wilmer'
_symmetry_space_group_name_H-M	'P1'
_symmetry_Int_Tables_number	1
_symmetry_cell_setting	triclinic
loop_
_symmetry_equiv_pos_as_xyz
  x,y,z
_cell_length_a	18.215407
_cell_length_b	18.050589
_cell_length_c	18.215399
_cell_angle_alpha	89.973988
_cell_angle_beta	89.983176
_cell_angle_gamma	90.028669
loop_
_atom_site_label
_atom_site_type_symbol
_atom_site_fract_x
_atom_site_fract_y
_atom_site_fract_z
Zn1	Zn	1.125033	-0.295641	-0.416138
Zn2	Zn	1.458366	0.037693	-0.082805
Zn3	Zn	1.791700	0.371026	0.250529
Zn4	Zn	1.124941	-0.419841	-0.293081
Zn5	Zn	1.458274	-0.086507	0.040252
Zn6	Zn	1.791607	0.246826	0.373586
Zn7	Zn	1.001972	-0.295670	-0.293085
Zn8	Zn	1.335305	0.037663	0.040248
Zn9	Zn	1.668639	0.370997	0.373581
Zn10	Zn	1.001924	-0.419794	-0.416106
Zn11	Zn	1.335258	-0.086461	-0.082773
Zn12	Zn	1.668591	0.246872	0.250561
O13	O	1.063468	-0.357736	-0.354603
O14	O	1.396801	-0.024403	-0.021269
O15	O	1.730134	0.308930	0.312064
O16	O	1.228005	-0.312123	-0.399826
O17	O	1.561338	0.021210	-0.066493
O18	O	1.894672	0.354544	0.266841
O19	O	1.108610	-0.403401	-0.190097
O20	O	1.441943	-0.070068	0.143236
O21	O	1.775277	0.263266	0.476569
O22	O	1.018355	-0.191742	-0.309424
O23	O	1.351688	0.141592	0.023909
O24	O	1.685022	0.474925	0.357243
O25	O	1.227937	-0.403372	-0.309417
O26	O	1.561271	-0.070039	0.023917
O27	O	1.894604	0.263294	0.357250
O28	O	1.108767	-0.191720	-0.399830
O29	O	1.442101	0.141613	-0.066497
O30	O	1.775434	0.474947	0.266837
O31	O	1.018265	-0.312173	-0.190101
O32	O	1.351599	0.021160	0.143233
O33	O	1.684932	0.354493	0.476566
O34	O	0.898981	-0.312128	-0.309393
O35	O	1.232315	0.021205	0.023941
O36	O	1.565648	0.354538	0.357274
O37	O	1.018274	-0.403293	-0.519095
O38	O	1.351607	-0.069960	-0.185761
O39	O	1.684940	0.263374	0.147572
O40	O	0.898946	-0.403322	-0.399775
O41	O	1.232280	-0.069988	-0.066442
O42	O	1.565613	0.263345	0.266891
O43	O	1.108721	-0.312078	-0.519118
O44	O	1.442054	0.021255	-0.185785
O45	O	1.775388	0.354589	0.147549
O46	O	1.108564	-0.523759	-0.309385
O47	O	1.441897	-0.190426	0.023948
O48	O	1.775230	0.142907	0.357281
O49	O	1.018184	-0.523725	-0.399771
O50	O	1.351517	-0.190392	-0.066438
O51	O	1.684851	0.142942	0.266895
C52	C	0.872261	-0.357724	-0.354582
C53	C	1.205595	-0.024390	-0.021248
C54	C	1.538928	0.308943	0.312085
C55	C	0.790462	-0.357736	-0.354590
C56	C	1.123796	-0.024403	-0.021257
C57	C	1.457129	0.308931	0.312077
C58	C	1.063379	-0.550689	-0.354590
C59	C	1.396712	-0.217355	-0.021257
C60	C	1.730045	0.115978	0.312076
C61	C	1.063408	-0.633234	-0.354610
C62	C	1.396741	-0.299901	-0.021277
C63	C	1.730075	0.033432	0.312057
C64	C	0.602269	-0.405295	-0.401593
C65	C	0.935603	-0.071962	-0.068260
C66	C	1.268936	0.261371	0.265073
C67	C	0.525411	-0.405298	-0.401602
C68	C	0.858744	-0.071964	-0.068269
C69	C	1.192077	0.261369	0.265064
C70	C	0.525418	-0.310191	-0.307628
C71	C	0.858751	0.023142	0.025705
C72	C	1.192084	0.356476	0.359038
C73	C	0.602275	-0.310185	-0.307623
C74	C	0.935608	0.023148	0.025710
C75	C	1.268942	0.356481	0.359043
C76	C	0.640699	-0.357742	-0.354605
C77	C	0.974032	-0.024408	-0.021271
C78	C	1.307366	0.308925	0.312062
C79	C	0.486983	-0.357750	-0.354619
C80	C	0.820316	-0.024416	-0.021285
C81	C	1.153649	0.308917	0.312048
C82	C	0.403649	-0.357752	-0.354628
C83	C	0.736983	-0.024418	-0.021295
C84	C	1.070316	0.308915	0.312038
C85	C	0.724038	-0.357739	-0.354596
C86	C	1.057371	-0.024406	-0.021263
C87	C	1.390705	0.308928	0.312070
C88	C	1.014308	-0.832693	-0.403744
C89	C	1.347641	-0.499360	-0.070411
C90	C	1.680975	-0.166027	0.262922
C91	C	0.996372	-0.882137	-0.336590
C92	C	1.329705	-0.548803	-0.003257
C93	C	1.663038	-0.215470	0.330076
C94	C	1.063480	-0.784365	-0.354619
C95	C	1.396814	-0.451031	-0.021286
C96	C	1.730147	-0.117698	0.312047
C97	C	1.081453	-0.882003	-0.421781
C98	C	1.414786	-0.548670	-0.088448
C99	C	1.748119	-0.215336	0.244885
C100	C	1.063549	-0.930350	-0.354635
C101	C	1.396882	-0.597016	-0.021301
C102	C	1.730215	-0.263683	0.312032
C103	C	1.045509	-0.832721	-0.287430
C104	C	1.378842	-0.499387	0.045904
C105	C	1.712176	-0.166054	0.379237
C106	C	1.130621	-0.832583	-0.372666
C107	C	1.463954	-0.499249	-0.039333
C108	C	1.797288	-0.165916	0.294001
C109	C	1.112710	-0.882004	-0.305466
C110	C	1.446044	-0.548670	0.027868
C111	C	1.779377	-0.215337	0.361201
C112	C	1.063439	-0.700266	-0.354612
C113	C	1.396772	-0.366933	-0.021278
C114	C	1.730106	-0.033600	0.312055
C115	C	1.063590	-1.014446	-0.354635
C116	C	1.396924	-0.681113	-0.021301
C117	C	1.730257	-0.347780	0.312032
C118	C	1.255420	-0.357750	-0.354624
C119	C	1.588754	-0.024416	-0.021291
C120	C	1.922087	0.308917	0.312042
C121	C	1.337219	-0.357755	-0.354634
C122	C	1.670553	-0.024422	-0.021300
C123	C	2.003886	0.308911	0.312033
C124	C	1.063502	-0.357677	-0.546556
C125	C	1.396836	-0.024344	-0.213222
C126	C	1.730169	0.308990	0.120111
C127	C	1.063517	-0.357652	-0.628355
C128	C	1.396850	-0.024318	-0.295021
C129	C	1.730184	0.309015	0.038312
C130	C	1.063577	-0.164031	-0.354631
C131	C	1.396910	0.169303	-0.021298
C132	C	1.730243	0.502636	0.312036
C133	C	1.063623	-0.081485	-0.354643
C134	C	1.396957	0.251848	-0.021310
C135	C	1.730290	0.585182	0.312024
C136	C	1.016515	-0.310117	-0.816551
C137	C	1.349848	0.023216	-0.483218
C138	C	1.683181	0.356549	-0.149885
C139	C	1.016527	-0.310103	-0.893410
C140	C	1.349861	0.023231	-0.560077
C141	C	1.683194	0.356564	-0.226743
C142	C	1.110608	-0.405098	-0.893396
C143	C	1.443941	-0.071764	-0.560063
C144	C	1.777274	0.261569	-0.226729
C145	C	1.110591	-0.405116	-0.816539
C146	C	1.443924	-0.071782	-0.483205
C147	C	1.777257	0.261551	-0.149872
C148	C	1.063545	-0.357621	-0.778118
C149	C	1.396879	-0.024288	-0.444785
C150	C	1.730212	0.309045	-0.111452
C151	C	1.063575	-0.357588	-0.931834
C152	C	1.396908	-0.024255	-0.598501
C153	C	1.730242	0.309078	-0.265168
C154	C	1.063589	-0.357572	-1.015168
C155	C	1.396923	-0.024239	-0.681835
C156	C	1.730256	0.309094	-0.348501
C157	C	1.063530	-0.357638	-0.694779
C158	C	1.396863	-0.024305	-0.361446
C159	C	1.730196	0.309029	-0.028113
C160	C	1.063475	-0.357742	-0.163396
C161	C	1.396809	-0.024409	0.169937
C162	C	1.730142	0.308925	0.503270
C163	C	1.063603	-0.357558	-0.081598
C164	C	1.396936	-0.024225	0.251735
C165	C	1.730270	0.309109	0.585069
H166	H	0.494125	-0.444019	-0.439866
H167	H	0.827458	-0.110686	-0.106533
H168	H	1.160792	0.222647	0.226800
H169	H	0.633552	-0.444017	-0.439850
H170	H	0.966885	-0.110683	-0.106517
H171	H	1.300219	0.222650	0.226816
H172	H	1.030269	-0.811162	-0.230622
H173	H	1.363603	-0.477829	0.102711
H174	H	1.696936	-0.144496	0.436045
H175	H	0.494124	-0.271473	-0.269377
H176	H	0.827457	0.061860	0.063957
H177	H	1.160790	0.395193	0.397290
C178	C	0.644550	-0.257875	-0.255932
C179	C	0.977884	0.075458	0.077401
C180	C	1.311217	0.408791	0.410734
H181	H	0.610660	-0.229561	-0.227945
H182	H	0.943993	0.103773	0.105388
H183	H	1.277327	0.437106	0.438721
H184	H	0.674557	-0.225551	-0.284136
H185	H	1.007890	0.107783	0.049197
H186	H	1.341223	0.441116	0.382530
H187	H	0.674508	-0.286249	-0.223817
H188	H	1.007841	0.047085	0.109517
H189	H	1.341175	0.380418	0.442850
C190	C	1.168923	-0.911078	-0.249292
C191	C	1.502256	-0.577744	0.084041
C192	C	1.835590	-0.244411	0.417375
H193	H	1.156060	-0.894113	-0.201631
H194	H	1.489393	-0.560779	0.131702
H195	H	1.822727	-0.227446	0.465035
H196	H	1.216450	-0.893361	-0.261699
H197	H	1.549783	-0.560027	0.071634
H198	H	1.883117	-0.226694	0.404967
H199	H	1.168924	-0.963704	-0.249881
H200	H	1.502257	-0.630371	0.083452
H201	H	1.835591	-0.297037	0.416785
C202	C	0.964797	-0.257845	-0.935683
C203	C	1.298130	0.075489	-0.602350
C204	C	1.631464	0.408822	-0.269017
H205	H	0.936782	-0.229560	-0.901791
H206	H	1.270115	0.103773	-0.568458
H207	H	1.603449	0.437107	-0.235125
H208	H	0.932720	-0.286242	-0.965656
H209	H	1.266054	0.047091	-0.632323
H210	H	1.599387	0.380425	-0.298990
H211	H	0.992978	-0.225479	-0.965674
H212	H	1.326312	0.107854	-0.632341
H213	H	1.659645	0.441187	-0.299007
H214	H	1.148911	-0.443765	-0.924687
H215	H	1.482244	-0.110432	-0.591354
H216	H	1.815578	0.222902	-0.258021
C217	C	0.958054	-0.803435	-0.459784
C218	C	1.291388	-0.470102	-0.126451
C219	C	1.624721	-0.136769	0.206882
H220	H	0.910396	-0.820405	-0.446844
H221	H	1.243729	-0.487072	-0.113510
H222	H	1.577063	-0.153739	0.219823
H223	H	0.970329	-0.821033	-0.507368
H224	H	1.303662	-0.487700	-0.174035
H225	H	1.636995	-0.154367	0.159299
H226	H	0.958725	-0.750809	-0.459699
H227	H	1.292058	-0.417476	-0.126366
H228	H	1.625392	-0.084143	0.206967
H229	H	1.148891	-0.443802	-0.785246
H230	H	1.482224	-0.110469	-0.451912
H231	H	1.815557	0.222865	-0.118579
C232	C	0.919711	-0.911544	-0.315972
C233	C	1.253045	-0.578211	0.017361
C234	C	1.586378	-0.244878	0.350694
H235	H	0.884804	-0.894666	-0.350918
H236	H	1.218138	-0.561333	-0.017585
H237	H	1.551471	-0.227999	0.315749
H238	H	0.906629	-0.893946	-0.268604
H239	H	1.239963	-0.560612	0.064729
H240	H	1.573296	-0.227279	0.398062
H241	H	0.920404	-0.964169	-0.315692
H242	H	1.253737	-0.630835	0.017641
H243	H	1.587071	-0.297502	0.350975
H244	H	1.187355	-0.810802	-0.387948
H245	H	1.520688	-0.477469	-0.054615
H246	H	1.854021	-0.144135	0.278718
C247	C	1.101955	-0.911246	-0.498500
C248	C	1.435289	-0.577913	-0.165166
C249	C	1.768622	-0.244580	0.168167
H250	H	1.066945	-0.894353	-0.533335
H251	H	1.400278	-0.561020	-0.200001
H252	H	1.733612	-0.227687	0.133332
H253	H	1.102274	-0.963867	-0.497850
H254	H	1.435608	-0.630534	-0.164517
H255	H	1.768941	-0.297201	0.168817
H256	H	1.149292	-0.893543	-0.511650
H257	H	1.482625	-0.560209	-0.178317
H258	H	1.815958	-0.226876	0.155016
H259	H	0.978207	-0.271445	-0.785272
H260	H	1.311540	0.061889	-0.451938
H261	H	1.644874	0.395222	-0.118605
