data_functionalizedCrystal
_audit_creation_method	'MofGen! by Chris Wilmer'
_symmetry_space_group_name_H-M	'P1'
_symmetry_Int_Tables_number	1
_symmetry_cell_setting	triclinic
loop_
_symmetry_equiv_pos_as_xyz
  x,y,z
_cell_length_a	29.839131
_cell_length_b	18.215407
_cell_length_c	18.215399
_cell_angle_alpha	89.983115
_cell_angle_beta	89.968708
_cell_angle_gamma	90.038864
loop_
_atom_site_label
_atom_site_type_symbol
_atom_site_fract_x
_atom_site_fract_y
_atom_site_fract_z
Zn1	Zn	-0.178887	1.124984	-0.416052
Zn2	Zn	0.321113	1.624984	0.083948
Zn3	Zn	-0.254017	1.124858	-0.292980
Zn4	Zn	0.245983	1.624858	0.207020
Zn5	Zn	-0.178898	1.001917	-0.293005
Zn6	Zn	0.321102	1.501917	0.206995
Zn7	Zn	-0.253987	1.001847	-0.416010
Zn8	Zn	0.246013	1.501847	0.083990
O9	O	-0.216447	1.063401	-0.354512
O10	O	0.283553	1.563401	0.145488
O11	O	-0.188860	1.227951	-0.399734
O12	O	0.311140	1.727951	0.100266
O13	O	-0.244069	1.108526	-0.189999
O14	O	0.255931	1.608526	0.310001
O15	O	-0.116029	1.018325	-0.309356
O16	O	0.383971	1.518325	0.190644
O17	O	-0.244058	1.227859	-0.309313
O18	O	0.255942	1.727859	0.190687
O19	O	-0.116021	1.108741	-0.399758
O20	O	0.383979	1.608741	0.100242
O21	O	-0.188880	1.018203	-0.190017
O22	O	0.311120	1.518203	0.309983
O23	O	-0.188851	0.898924	-0.309315
O24	O	0.311149	1.398924	0.190685
O25	O	-0.244008	1.018204	-0.519000
O26	O	0.255992	1.518204	-0.019000
O27	O	-0.244019	0.898872	-0.399686
O28	O	0.255981	1.398872	0.100314
O29	O	-0.188832	1.108673	-0.519031
O30	O	0.311168	1.608673	-0.019031
O31	O	-0.316880	1.108458	-0.309272
O32	O	0.183120	1.608458	0.190728
O33	O	-0.316858	1.018082	-0.399662
O34	O	0.183142	1.518082	0.100338
C35	C	-0.216433	0.872195	-0.354499
C36	C	0.283567	1.372195	0.145501
C37	C	-0.216438	0.790396	-0.354511
C38	C	0.283562	1.290396	0.145489
C39	C	-0.187756	0.602250	-0.401667
C40	C	0.312244	1.102250	0.098333
C41	C	-0.187760	0.525391	-0.401670
C42	C	0.312240	1.025391	0.098330
C43	C	-0.245151	0.525305	-0.307369
C44	C	0.254849	1.025305	0.192631
C45	C	-0.245144	0.602163	-0.307364
C46	C	0.254856	1.102163	0.192636
C47	C	-0.216448	0.640633	-0.354517
C48	C	0.283552	1.140633	0.145483
C49	C	-0.216458	0.486917	-0.354525
C50	C	0.283542	0.986917	0.145475
C51	C	-0.216462	0.403583	-0.354527
C52	C	0.283538	0.903583	0.145473
C53	C	-0.216443	0.723972	-0.354514
C54	C	0.283557	1.223972	0.145486
C55	C	-0.333170	1.063269	-0.354475
C56	C	0.166830	1.563269	0.145525
C57	C	-0.383104	1.063279	-0.354484
C58	C	0.116896	1.563279	0.145516
C59	C	-0.692746	1.110546	-0.307515
C60	C	-0.192746	1.610546	0.192485
C61	C	-0.880419	1.110636	-0.307543
C62	C	-0.380419	1.610636	0.192457
O63	O	-0.904683	1.150719	-0.267580
O64	O	-0.404683	1.650719	0.232420
N65	N	-0.903889	1.063554	-0.354567
N66	N	-0.403889	1.563554	0.145433
C67	C	-0.880438	1.016449	-0.401591
C68	C	-0.380438	1.516449	0.098409
O69	O	-0.904707	0.976410	-0.441594
O70	O	-0.404707	1.476410	0.058406
C71	C	-0.692766	1.016362	-0.401566
C72	C	-0.192766	1.516362	0.098434
C73	C	-0.669298	1.063443	-0.354533
C74	C	-0.169298	1.563443	0.145467
C75	C	-0.669279	1.157623	-0.260487
C76	C	-0.169279	1.657623	0.239513
C77	C	-0.622363	1.157597	-0.260477
C78	C	-0.122363	1.657597	0.239523
C79	C	-0.598915	1.110494	-0.307496
C80	C	-0.098915	1.610494	0.192504
C81	C	-0.622383	1.063417	-0.354524
C82	C	-0.122383	1.563417	0.145476
C83	C	-0.669316	0.969262	-0.448593
C84	C	-0.169316	1.469262	0.051407
C85	C	-0.622395	0.969245	-0.448583
C86	C	-0.122395	1.469245	0.051417
C87	C	-0.598927	1.016326	-0.401551
C88	C	-0.098927	1.516326	0.098449
C89	C	-0.552020	1.016288	-0.401533
C90	C	-0.052020	1.516288	0.098467
N91	N	-0.528550	1.063370	-0.354509
N92	N	-0.028550	1.563370	0.145491
C93	C	-0.551997	1.110473	-0.307490
C94	C	-0.051997	1.610473	0.192510
C95	C	-0.978969	1.016497	-0.401600
C96	C	-0.478969	1.516497	0.098400
C97	C	-1.025886	1.016517	-0.401606
C98	C	-0.525886	1.516517	0.098394
C99	C	-1.025864	1.110706	-0.307559
C100	C	-0.525864	1.610706	0.192441
C101	C	-0.978946	1.110681	-0.307550
C102	C	-0.478946	1.610681	0.192450
C103	C	-0.955499	1.063579	-0.354576
C104	C	-0.455499	1.563579	0.145424
C105	C	-0.453472	1.110414	-0.307473
C106	C	0.046528	1.610414	0.192527
C107	C	-0.406552	1.110382	-0.307466
C108	C	0.093448	1.610382	0.192534
C109	C	-0.406578	1.016196	-0.401515
C110	C	0.093422	1.516196	0.098485
C111	C	-0.453494	1.016226	-0.401520
C112	C	0.046506	1.516226	0.098480
C113	C	-0.476939	1.063341	-0.354497
C114	C	0.023061	1.563341	0.145503
O115	O	-0.527727	0.976232	-0.441481
O116	O	-0.027727	1.476232	0.058519
O117	O	-0.527720	1.150518	-0.267505
O118	O	-0.027720	1.650518	0.232495
C119	C	-0.739662	1.110572	-0.307524
C120	C	-0.239662	1.610572	0.192476
C121	C	-0.763129	1.063495	-0.354552
C122	C	-0.263129	1.563495	0.145448
C123	C	-0.739681	1.016392	-0.401571
C124	C	-0.239681	1.516392	0.098429
C125	C	-0.810047	1.063515	-0.354558
C126	C	-0.310047	1.563515	0.145442
C127	C	-0.833495	1.110618	-0.307539
C128	C	-0.333495	1.610618	0.192461
C129	C	-0.810025	1.157701	-0.260515
C130	C	-0.310025	1.657701	0.239485
C131	C	-0.763109	1.157675	-0.260506
C132	C	-0.263109	1.657675	0.239494
C133	C	-0.763151	0.969309	-0.448595
C134	C	-0.263151	1.469309	0.051405
C135	C	-0.810067	0.969339	-0.448600
C136	C	-0.310067	1.469339	0.051400
C137	C	-0.833515	1.016442	-0.401581
C138	C	-0.333515	1.516442	0.098419
C139	C	-0.099269	1.063555	-0.354565
C140	C	0.400731	1.563555	0.145435
C141	C	-0.049334	1.063620	-0.354587
C142	C	0.450666	1.563620	0.145413
C143	C	-0.216415	1.063445	-0.546465
C144	C	0.283585	1.563445	-0.046465
C145	C	-0.216402	1.063463	-0.628264
C146	C	0.283598	1.563463	-0.128264
C147	C	-0.216461	1.255354	-0.354525
C148	C	0.283539	1.755354	0.145475
C149	C	-0.216467	1.337153	-0.354531
C150	C	0.283533	1.837153	0.145469
C151	C	-0.187633	1.110597	-0.893339
C152	C	0.312367	1.610597	-0.393339
C153	C	-0.187645	1.110588	-0.816480
C154	C	0.312355	1.610588	-0.316480
C155	C	-0.245105	1.016389	-0.816437
C156	C	0.254895	1.516389	-0.316437
C157	C	-0.245095	1.016402	-0.893295
C158	C	0.254905	1.516402	-0.393295
C159	C	-0.216356	1.063505	-0.931744
C160	C	0.283644	1.563505	-0.431744
C161	C	-0.216379	1.063483	-0.778027
C162	C	0.283621	1.563483	-0.278027
C163	C	-0.216392	1.063473	-0.694694
C164	C	0.283608	1.563473	-0.194694
C165	C	-0.216343	1.063516	-1.015083
C166	C	0.283657	1.563516	-0.515083
C167	C	-0.216446	1.063401	-0.163306
C168	C	0.283554	1.563401	0.336694
C169	C	-0.216333	1.063525	-0.081507
C170	C	0.283667	1.563525	0.418493
H171	H	-0.387446	1.148720	-0.269164
H172	H	0.112554	1.648720	0.230836
H173	H	-0.268515	0.493974	-0.268979
H174	H	0.231485	0.993974	0.231021
H175	H	-0.268509	0.633415	-0.268964
H176	H	0.231491	1.133415	0.231036
H177	H	-0.164396	0.494143	-0.440063
H178	H	0.335604	0.994143	0.059937
N179	N	-0.158288	1.158716	-0.932625
N180	N	0.341712	1.658716	-0.432625
N181	N	-0.158282	1.158725	-1.001247
N182	N	0.341718	1.658725	-0.501247
H183	H	-0.137558	1.192712	-1.028993
H184	H	0.362442	1.692712	-0.528993
H185	H	-0.744006	1.196012	-0.222208
H186	H	-0.244006	1.696012	0.277792
H187	H	-0.472555	1.148781	-0.269184
H188	H	0.027445	1.648781	0.230816
H189	H	-0.164256	1.148936	-0.785215
H190	H	0.335744	1.648936	-0.285215
H191	H	-0.268503	0.978038	-0.785123
H192	H	0.231497	1.478038	-0.285123
H193	H	-0.472602	0.977892	-0.439820
H194	H	0.027398	1.477892	0.060180
H195	H	-0.387480	0.977843	-0.439795
H196	H	0.112520	1.477843	0.060205
H197	H	-0.603259	1.195935	-0.222182
H198	H	-0.103259	1.695935	0.277818
H199	H	-0.688365	1.195983	-0.222198
H200	H	-0.188365	1.695983	0.277802
H201	H	-0.164388	0.633570	-0.440060
H202	H	0.335612	1.133570	0.059940
N203	N	-0.954983	1.158775	-0.259501
N204	N	-0.454983	1.658775	0.240499
N205	N	-0.975930	1.200822	-0.217523
N206	N	-0.475930	1.700822	0.282477
H207	H	-0.959009	1.234791	-0.183587
H208	H	-0.459009	1.734791	0.316413
N209	N	-1.049827	1.158814	-0.259531
N210	N	-0.549827	1.658814	0.240469
N211	N	-1.091718	1.158820	-0.259549
N212	N	-0.591718	1.658820	0.240451
H213	H	-1.108644	1.192796	-0.225635
H214	H	-0.608644	1.692796	0.274365
N215	N	-1.049848	0.968409	-0.449641
N216	N	-0.549848	1.468409	0.050359
N217	N	-1.028901	0.926359	-0.491616
N218	N	-0.528901	1.426359	0.008384
H219	H	-1.045822	0.892382	-0.525545
H220	H	-0.545822	1.392382	-0.025545
H221	H	-0.959881	0.978139	-0.439895
H222	H	-0.459881	1.478139	0.060105
N223	N	-0.833988	1.205806	-0.212486
N224	N	-0.333988	1.705806	0.287514
N225	N	-0.875879	1.205813	-0.212507
N226	N	-0.375879	1.705813	0.287493
H227	H	-0.892805	1.239787	-0.178590
H228	H	-0.392805	1.739787	0.321410
H229	H	-0.268488	0.978053	-0.924565
H230	H	0.231512	1.478053	-0.424565
H231	H	-0.688415	0.930920	-0.486888
H232	H	-0.188415	1.430920	0.013112
N233	N	-0.598452	0.921130	-0.496630
N234	N	-0.098452	1.421130	0.003370
N235	N	-0.619414	0.879104	-0.538617
N236	N	-0.119414	1.379104	-0.038617
H237	H	-0.602506	0.845122	-0.572550
H238	H	-0.102506	1.345122	-0.072550
H239	H	-0.744064	0.930953	-0.486884
H240	H	-0.244064	1.430953	0.013116
N241	N	-0.834028	0.921233	-0.496645
N242	N	-0.334028	1.421233	0.003355
N243	N	-0.813081	0.879183	-0.538620
N244	N	-0.313081	1.379183	-0.038620
H245	H	-0.830002	0.845212	-0.572555
H246	H	-0.330002	1.345212	-0.072555
