data_functionalizedCrystal
_audit_creation_method	'MofGen! by Chris Wilmer'
_symmetry_space_group_name_H-M	'P1'
_symmetry_Int_Tables_number	1
_symmetry_cell_setting	triclinic
loop_
_symmetry_equiv_pos_as_xyz
  x,y,z
_cell_length_a	13.635800
_cell_length_b	19.452420
_cell_length_c	11.168136
_cell_angle_alpha	85.454015
_cell_angle_beta	71.491317
_cell_angle_gamma	101.696715
loop_
_atom_site_label
_atom_site_type_symbol
_atom_site_fract_x
_atom_site_fract_y
_atom_site_fract_z
V1	V	-2.037781	-0.097194	0.394317
O2	O	-2.035556	0.004660	0.386175
O3	O	-2.009060	-0.192708	0.392232
O4	O	-2.026189	-0.095703	0.566013
O5	O	-2.018309	-0.093017	0.211190
V6	V	-2.278546	-0.085010	0.372339
O7	O	-2.170594	-0.123919	0.442527
O8	O	-2.370832	-0.058285	0.324129
O9	O	-2.195663	0.010504	0.374425
O10	O	-2.339470	-0.186863	0.380481
O11	O	-2.356717	-0.089187	0.555466
O12	O	-2.178535	-0.086500	0.200643
V13	V	-1.537781	-0.097194	0.394317
O14	O	-1.535556	0.004660	0.386175
O15	O	-1.509060	-0.192708	0.392232
O16	O	-1.526189	-0.095703	0.566013
O17	O	-1.518309	-0.093017	0.211190
V18	V	-1.778546	-0.085010	0.372339
O19	O	-1.670594	-0.123919	0.442527
O20	O	-1.870832	-0.058285	0.324129
O21	O	-1.695663	0.010504	0.374425
O22	O	-1.839470	-0.186863	0.380481
O23	O	-1.856717	-0.089187	0.555466
O24	O	-1.678535	-0.086500	0.200643
C25	C	-1.930053	-0.215992	0.386169
C26	C	-1.947299	-0.294076	0.385608
C27	C	-1.927281	-0.320702	0.269631
C28	C	-1.943518	-0.394069	0.269065
C29	C	-1.979753	-0.440807	0.384482
C30	C	-1.999777	-0.414173	0.500475
C31	C	-1.983550	-0.340808	0.501038
N32	N	-1.969121	-0.561257	0.465768
N33	N	-1.984532	-0.630950	0.465226
C34	C	-2.028648	-0.661852	0.382793
N35	N	-2.056753	-0.620426	0.300904
N36	N	-2.041335	-0.550726	0.301443
C37	C	-1.997352	-0.520360	0.383885
C38	C	-2.026235	-0.768030	0.266195
C39	C	-2.042480	-0.841399	0.265635
C40	C	-2.098730	-0.861502	0.497047
C41	C	-2.082495	-0.788135	0.497605
C42	C	-2.046243	-0.741403	0.382175
C43	C	-1.951902	-0.092252	0.607843
C44	C	-1.983036	-0.091666	0.748210
C45	C	-2.106341	0.033785	0.380484
C46	C	-2.078715	0.111868	0.381053
C47	C	-2.084492	-0.089954	0.158807
C48	C	-2.042977	-0.090537	0.018439
C49	C	-1.430053	-0.215992	0.386169
C50	C	-1.447299	-0.294076	0.385608
C51	C	-1.451902	-0.092252	0.607843
C52	C	-1.483036	-0.091666	0.748210
C53	C	-2.083748	-0.094736	0.816921
C54	C	-2.115929	-0.094130	0.961998
C55	C	-1.606341	0.033785	0.380484
C56	C	-1.578715	0.111868	0.381053
C57	C	-1.584492	-0.089954	0.158807
C58	C	-1.542977	-0.090537	0.018439
C59	C	-1.546764	-0.334327	0.391676
C60	C	-1.562986	-0.407698	0.391169
C61	C	-1.479740	-0.440816	0.384584
C62	C	-1.380268	-0.400560	0.378519
C63	C	-1.364049	-0.327191	0.379036
C64	C	-1.651744	0.152119	0.374988
C65	C	-1.625794	0.225489	0.375502
C66	C	-1.526817	0.258607	0.382089
C67	C	-1.453782	0.218351	0.388151
C68	C	-1.479730	0.144983	0.387628
C69	C	-1.583748	-0.094736	0.816921
C70	C	-1.615929	-0.094130	0.961998
H71	H	-1.897770	-0.282657	0.175639
Br72	Br	-1.916349	-0.430215	0.111656
H73	H	-1.492961	-0.500558	0.384164
H74	H	-1.420259	0.112215	0.392578
Br75	Br	-1.267300	-0.445516	0.369578
Br76	Br	-1.879021	-0.086528	0.829160
H77	H	-2.202207	-0.096761	1.021066
H78	H	-2.029282	-0.452232	0.594449
Br79	Br	-1.659762	-0.289400	0.400624
Br80	Br	-2.187762	-0.099866	0.735969
Br81	Br	-1.319456	0.263308	0.397080
H82	H	-1.996717	-0.729979	0.172205
H83	H	-1.702207	-0.096761	1.021066
Br84	Br	-1.697989	-0.462315	0.399397
Br85	Br	-1.229047	-0.272573	0.370790
H86	H	-1.732342	0.125165	0.369625
H87	H	-1.685276	0.258255	0.370567
H88	H	-1.956700	-0.087913	0.959381
Br89	Br	-1.687762	-0.099866	0.735969
Br90	Br	-1.491618	0.358180	0.382794
H91	H	-1.456700	-0.087913	0.959381
H92	H	-1.420636	-0.088584	0.796786
H93	H	-2.026184	-0.863075	0.171188
Br94	Br	-2.010720	-0.304670	0.658449
H95	H	-2.098788	-0.766456	0.592046
Br96	Br	-2.147921	-0.924924	0.653690
