data_functionalizedCrystal
_audit_creation_method	'MofGen! by Chris Wilmer'
_symmetry_space_group_name_H-M	'P1'
_symmetry_Int_Tables_number	1
_symmetry_cell_setting	triclinic
loop_
_symmetry_equiv_pos_as_xyz
  x,y,z
_cell_length_a	19.188930
_cell_length_b	14.044220
_cell_length_c	13.101039
_cell_angle_alpha	86.330374
_cell_angle_beta	86.639939
_cell_angle_gamma	91.833171
loop_
_atom_site_label
_atom_site_type_symbol
_atom_site_fract_x
_atom_site_fract_y
_atom_site_fract_z
O1	O	-0.937307	0.113042	0.085546
O2	O	-0.735021	0.128972	0.085476
O3	O	-0.833127	-0.016965	0.085505
O4	O	-0.839200	0.258979	0.085517
O5	O	-0.826089	-0.006477	-0.084927
O6	O	-0.727983	0.139460	-0.084956
O7	O	-0.930269	0.123530	-0.084886
Zn8	Zn	-0.828009	0.133160	-0.111981
Zn9	Zn	-0.837281	0.119342	0.112571
O10	O	-0.832162	0.269467	-0.084915
C11	C	-0.705457	0.133701	0.000251
C12	C	-0.627851	0.132154	0.000224
C13	C	-0.826950	-0.047024	0.000290
C14	C	-0.819021	-0.152217	0.000290
C15	C	-0.959833	0.118801	0.000341
C16	C	-1.037439	0.120347	0.000375
C17	C	-0.588454	0.217783	0.000244
C18	C	-0.515537	0.216328	0.000255
C19	C	-0.482021	0.129238	0.000267
C20	C	-0.521427	0.043598	0.000242
C21	C	-0.594342	0.045057	0.000220
N22	N	-0.372142	0.059097	0.058311
N23	N	-0.302875	0.057717	0.058334
C24	C	-0.262331	0.124839	0.000329
N25	N	-0.293671	0.193406	-0.057685
N26	N	-0.362944	0.194788	-0.057703
C27	C	-0.402957	0.127647	0.000290
C28	C	-0.143868	0.208896	0.000360
C29	C	-0.070950	0.207438	0.000365
C30	C	-0.076842	0.034705	0.000362
C31	C	-0.149759	0.036166	0.000347
C32	C	-0.183268	0.123264	0.000350
C33	C	-0.838340	0.299526	0.000303
C34	C	-0.846269	0.404718	0.000309
N35	N	-0.821685	0.142590	-0.265231
C36	C	-0.860764	0.597320	0.000310
C37	C	-0.804529	0.655187	0.000289
C38	C	-0.812595	0.762357	0.000290
C39	C	-0.852700	0.490140	0.000309
C40	C	-0.813082	0.155429	-0.474276
C41	C	-0.852210	0.097068	-0.525140
C42	C	-0.847424	0.104212	-0.641460
C43	C	-0.817868	0.148287	-0.357946
N44	N	-0.843610	0.109904	0.265821
H45	H	-0.615733	0.288705	0.000249
H46	H	-0.889304	0.041740	-0.481327
H47	H	-0.171152	0.279817	0.000348
O48	O	-0.044402	-0.049976	0.000327
C49	C	-0.094818	-0.125246	0.000338
H50	H	-0.144590	-0.096902	-0.031939
H51	H	-0.106877	-0.156678	0.082100
C52	C	-0.005234	-0.238109	-0.026851
C53	C	-0.066363	-0.203298	-0.066503
H54	H	0.012318	-0.286258	-0.068078
H55	H	0.028732	-0.187400	-0.026855
H56	H	-0.015292	-0.264296	0.041283
H57	H	-0.056303	-0.177102	-0.134631
H58	H	-0.100327	-0.254006	-0.066513
O59	O	-0.032783	0.290707	0.000426
C60	C	-0.077998	0.367890	0.000400
H61	H	-0.132179	0.341623	0.032654
H62	H	-0.081450	0.399637	-0.081363
C63	C	0.017010	0.477058	0.027638
C64	C	-0.049534	0.444798	0.067260
H65	H	0.034568	0.524502	0.068876
H66	H	0.047473	0.425060	0.027652
H67	H	0.014124	0.503508	-0.040497
H68	H	-0.046647	0.418339	0.135389
H69	H	-0.079996	0.496794	0.067260
O70	O	-0.188113	-0.046963	0.000479
C71	C	-0.234124	-0.056728	0.088749
H72	H	-0.243715	0.016664	0.118173
H73	H	-0.210045	-0.103710	0.150566
C74	C	-0.292176	-0.193213	0.025782
C75	C	-0.303960	-0.103071	0.061915
H76	H	-0.335253	-0.221804	0.009232
H77	H	-0.261176	-0.186637	-0.033686
H78	H	-0.272108	-0.232353	0.077302
H79	H	-0.324018	-0.063929	0.010391
H80	H	-0.334965	-0.109642	0.121374
H81	H	-0.750327	0.624242	0.000270
H82	H	-0.914962	0.628263	0.000325
H83	H	-0.483453	0.286060	0.000268
O84	O	-0.768795	0.221315	-0.526650
C85	C	-0.719983	0.174574	-0.588722
H86	H	-0.742426	0.101234	-0.604648
H87	H	-0.669649	0.165949	-0.547484
C88	C	-0.676774	0.324313	-0.671160
C89	C	-0.704341	0.234239	-0.690727
H90	H	-0.667122	0.361118	-0.734080
H91	H	-0.709657	0.355805	-0.629339
H92	H	-0.634832	0.317113	-0.636793
H93	H	-0.746286	0.241439	-0.725082
H94	H	-0.671464	0.202750	-0.732557
O95	O	-0.488982	-0.041082	0.000213
C96	C	-0.539397	-0.116353	0.000220
H97	H	-0.589167	-0.088010	-0.032066
H98	H	-0.551461	-0.147783	0.081981
C99	C	-0.449811	-0.229216	-0.026954
C100	C	-0.510938	-0.194406	-0.066616
H101	H	-0.432256	-0.277365	-0.068177
H102	H	-0.415845	-0.178505	-0.026954
H103	H	-0.459873	-0.255401	0.041180
H104	H	-0.500873	-0.168211	-0.134743
H105	H	-0.544901	-0.245114	-0.066628
O106	O	-0.632720	-0.038038	0.000165
C107	C	-0.704264	-0.018077	0.000178
H108	H	-0.710350	0.058330	-0.032090
H109	H	-0.728492	-0.026785	0.081939
C110	C	-0.733991	-0.181564	-0.027033
C111	C	-0.741466	-0.087723	-0.066674
H112	H	-0.756941	-0.224528	-0.068266
H113	H	-0.685791	-0.195014	-0.027038
H114	H	-0.754181	-0.188808	0.041101
H115	H	-0.721269	-0.080478	-0.134801
H116	H	-0.789664	-0.074274	-0.066682
