data_functionalizedCrystal
_audit_creation_method	'MofGen! by Chris Wilmer'
_symmetry_space_group_name_H-M	'P1'
_symmetry_Int_Tables_number	1
_symmetry_cell_setting	triclinic
loop_
_symmetry_equiv_pos_as_xyz
  x,y,z
_cell_length_a	8.497374
_cell_length_b	19.805407
_cell_length_c	19.805405
_cell_angle_alpha	89.973590
_cell_angle_beta	89.985911
_cell_angle_gamma	90.004504
loop_
_atom_site_label
_atom_site_type_symbol
_atom_site_fract_x
_atom_site_fract_y
_atom_site_fract_z
Zn1	Zn	0.892011	1.034635	0.269581
Zn2	Zn	0.628188	1.034580	0.382739
Zn3	Zn	0.628226	0.921479	0.269569
Zn4	Zn	0.891907	0.921413	0.382733
O5	O	0.760083	0.978027	0.326155
O6	O	0.857043	1.129344	0.284598
O7	O	0.407431	1.019581	0.367724
O8	O	0.663277	0.936541	0.174854
O9	O	0.663213	1.129303	0.367735
O10	O	0.857079	1.019676	0.174862
O11	O	0.407458	0.936487	0.284579
O12	O	0.663176	0.826754	0.284573
O13	O	1.112683	0.936428	0.367725
O14	O	0.856901	0.826705	0.367714
O15	O	1.112760	1.019611	0.284593
O16	O	0.663111	1.019517	0.477455
O17	O	0.856864	0.936374	0.477450
C18	C	0.760032	0.802171	0.326142
C19	C	0.760048	0.726939	0.326153
C20	C	0.860757	0.691587	0.369510
C21	C	0.860779	0.620899	0.369511
C22	C	0.760083	0.585563	0.326158
C23	C	0.659369	0.620920	0.282797
C24	C	0.659356	0.691607	0.282793
C25	C	0.659421	0.335847	0.282812
C26	C	0.659439	0.265155	0.282821
C27	C	0.860844	0.265138	0.369530
C28	C	0.860831	0.335825	0.369526
C29	C	0.760124	0.371176	0.326162
C30	C	0.760103	0.447824	0.326161
C31	C	0.760095	0.508916	0.326163
C32	C	0.760007	0.977951	0.502011
C33	C	0.760027	0.977980	0.577243
C34	C	1.171563	0.978022	0.326156
C35	C	1.350207	0.978023	0.326164
C36	C	0.760135	1.154569	0.326169
C37	C	0.760157	1.229801	0.326175
C38	C	0.760194	0.978122	0.149613
C39	C	0.760241	0.978162	0.074381
C40	C	0.659245	1.021314	0.612567
C41	C	0.659280	1.021343	0.683256
C42	C	0.760090	0.978034	0.718619
C43	C	0.860882	0.934697	0.683290
C44	C	0.860854	0.934672	0.612603
C45	C	0.860999	0.934797	0.968363
C46	C	0.861016	0.934824	1.039055
C47	C	0.659425	1.021468	1.039016
C48	C	0.659397	1.021443	0.968329
C49	C	0.760195	0.978109	0.933006
C50	C	0.760158	0.978080	0.856358
C51	C	0.760120	0.978059	0.795266
H52	H	0.577387	0.592144	0.247496
H53	H	0.943069	0.899512	0.939609
C54	C	1.127746	0.713358	0.402654
C55	C	0.971450	0.730426	0.417163
H56	H	1.196086	0.737338	0.432071
H57	H	1.142155	0.666205	0.408864
H58	H	1.150999	0.724966	0.357190
H59	H	0.948193	0.718813	0.462625
H60	H	0.957034	0.777589	0.410958
H61	H	0.577356	0.720390	0.247484
C62	C	0.392427	0.357594	0.249655
C63	C	0.548717	0.374696	0.235149
H64	H	0.324082	0.381582	0.220230
H65	H	0.378041	0.310443	0.243458
H66	H	0.369158	0.369169	0.295115
H67	H	0.571990	0.363116	0.189690
H68	H	0.563110	0.421857	0.241341
C69	C	1.072978	0.541427	0.379076
C70	C	0.971481	0.582045	0.417175
H71	H	1.141330	0.517446	0.408505
H72	H	1.013021	0.510266	0.353265
H73	H	1.133436	0.569027	0.349629
H74	H	0.911014	0.554444	0.446619
H75	H	1.031444	0.613210	0.442998
C76	C	1.059935	0.328707	0.455232
C77	C	0.971525	0.374665	0.417178
H78	H	1.128283	0.352686	0.484646
H79	H	0.991100	0.301124	0.481079
H80	H	1.120403	0.301150	0.425777
H81	H	0.911049	0.402219	0.446633
H82	H	1.040369	0.402259	0.391329
C83	C	0.950329	0.156772	0.408039
C84	C	0.971564	0.226278	0.417190
H85	H	1.018687	0.132785	0.437460
H86	H	0.844307	0.145177	0.417874
H87	H	0.973620	0.145215	0.362576
H88	H	0.948262	0.237836	0.462652
H89	H	1.077611	0.237878	0.407360
C90	C	0.637486	1.112337	0.533001
C91	C	0.548429	1.068921	0.573698
H92	H	0.569069	1.141725	0.509004
H93	H	0.706274	1.138209	0.560543
H94	H	0.697494	1.086517	0.501847
H95	H	0.488430	1.094741	0.604856
H96	H	0.479614	1.043046	0.546153
H97	H	0.577212	1.056630	0.712013
C98	C	0.460142	1.107099	0.975392
C99	C	0.548590	1.069053	0.929459
H100	H	0.391745	1.136496	0.951394
H101	H	0.399740	1.077643	1.002994
H102	H	0.528962	1.132970	1.002932
H103	H	0.479770	1.043177	0.901922
H104	H	0.608997	1.098513	0.901845
C105	C	0.569998	1.060013	1.147358
C106	C	0.548670	1.069123	1.077845
H107	H	0.501637	1.089438	1.171326
H108	H	0.546784	1.014559	1.158989
H109	H	0.676036	1.069874	1.158901
H110	H	0.442635	1.059257	1.066301
H111	H	0.571873	1.114587	1.066209
C112	C	1.060326	0.849182	1.031998
C113	C	0.971849	0.887220	1.077928
H114	H	1.128750	0.819799	1.055998
H115	H	0.991538	0.823303	1.004462
H116	H	1.120716	0.878650	1.004391
H117	H	0.911450	0.857752	1.105531
H118	H	1.040646	0.913101	1.105476
C119	C	0.950428	0.896256	0.791664
C120	C	0.971692	0.887088	0.722160
H121	H	1.018830	0.866858	0.815658
H122	H	0.973626	0.941722	0.803206
H123	H	0.844407	0.886393	0.803267
H124	H	1.077709	0.896956	0.710557
H125	H	0.948504	0.841611	0.710614
H126	H	0.942923	0.899386	0.583843
H127	H	0.577440	0.236386	0.247514
