data_functionalizedCrystal
_audit_creation_method	'MofGen! by Chris Wilmer'
_symmetry_space_group_name_H-M	'P1'
_symmetry_Int_Tables_number	1
_symmetry_cell_setting	triclinic
loop_
_symmetry_equiv_pos_as_xyz
  x,y,z
_cell_length_a	16.109301
_cell_length_b	10.489716
_cell_length_c	15.186229
_cell_angle_alpha	90.000291
_cell_angle_beta	89.999362
_cell_angle_gamma	83.995308
loop_
_atom_site_label
_atom_site_type_symbol
_atom_site_fract_x
_atom_site_fract_y
_atom_site_fract_z
O1	O	1.104132	0.163949	-0.073165
O2	O	0.862194	0.184352	-0.073178
O3	O	0.988679	-0.011530	-0.073174
O4	O	0.977647	0.359830	-0.073169
O5	O	0.988670	-0.011532	0.073283
O6	O	0.862186	0.184349	0.073279
O7	O	1.104123	0.163946	0.073292
Zn8	Zn	0.983153	0.174147	0.096539
Zn9	Zn	0.983164	0.174151	-0.096425
O10	O	0.977639	0.359827	0.073289
C11	C	0.831210	0.183524	0.000049
C12	C	0.738900	0.181046	0.000044
C13	C	0.987846	-0.059051	0.000052
C14	C	0.985366	-0.200646	0.000043
C15	C	0.517302	0.291517	0.000055
C16	C	0.430567	0.289179	0.000061
C17	C	0.449022	0.056772	0.000054
C18	C	0.535755	0.059112	0.000055
C19	C	0.569893	0.176488	0.000051
C20	C	0.396425	0.171810	0.000056
C21	C	0.302383	0.169274	0.000062
C22	C	0.663940	0.179024	0.000046
C23	C	1.062930	-0.299445	0.000056
C24	C	1.021948	-0.376210	-0.072155
C25	C	1.021921	-0.376176	0.072240
C26	C	0.944416	-0.275546	-0.072227
C27	C	0.944401	-0.275507	0.072233
C28	C	0.903361	-0.352222	0.000004
C29	C	1.135107	0.164774	0.000064
C30	C	1.227418	0.167252	0.000063
C31	C	0.978472	0.407349	0.000061
C32	C	0.980952	0.548944	0.000063
N33	N	0.983152	0.174144	0.228232
N34	N	0.983173	0.174144	-0.228117
C35	C	1.039178	0.087437	0.453956
C36	C	1.039181	0.087434	0.546146
C37	C	0.927140	0.260855	0.546152
C38	C	0.927134	0.260851	0.453964
C39	C	0.983158	0.174143	0.407868
C40	C	0.983166	0.174144	0.592246
C41	C	0.983169	0.174142	0.692202
C42	C	0.983155	0.174144	0.307906
H43	H	0.545093	0.387092	0.000059
O44	O	1.143362	-0.270915	0.000027
C45	C	1.144625	-0.136724	0.000783
H46	H	1.083345	-0.089644	0.028964
H47	H	1.198731	-0.110869	0.043299
H48	H	1.152820	-0.101151	-0.069299
H49	H	1.054694	-0.420179	-0.133202
O50	O	0.905528	-0.223302	-0.145214
C51	C	0.962524	-0.159972	-0.195189
H52	H	1.028937	-0.201623	-0.178811
H53	H	0.950158	-0.173775	-0.268306
H54	H	0.954567	-0.053312	-0.178863
O55	O	1.093486	0.003083	0.590955
C56	C	1.048503	-0.075610	0.644299
H57	H	0.982925	-0.077796	0.616522
H58	H	1.081825	-0.176977	0.645341
H59	H	1.044385	-0.035695	0.714167
O60	O	0.905248	-0.222932	0.144970
C61	C	0.837291	-0.135275	0.119080
H62	H	0.816584	-0.160161	0.049956
H63	H	0.783313	-0.140757	0.167006
H64	H	0.857024	-0.034026	0.119342
O65	O	0.379600	0.401036	0.000023
C66	C	0.428334	0.505129	0.000044
H67	H	0.492864	0.472729	-0.027686
H68	H	0.396820	0.585726	-0.042474
H69	H	0.434723	0.541106	0.070307
O70	O	0.822802	-0.380147	-0.000197
C71	C	0.782221	-0.328389	-0.076424
H72	H	0.830587	-0.314417	-0.129397
H73	H	0.737121	-0.396874	-0.101625
H74	H	0.746142	-0.232026	-0.059889
O75	O	0.872806	0.345039	0.591067
C76	C	0.884811	0.326434	0.682318
H77	H	0.950626	0.278788	0.694904
H78	H	0.876137	0.423028	0.717351
H79	H	0.837377	0.262443	0.708487
O80	O	0.586933	-0.052551	-0.000070
C81	C	0.637642	-0.058157	-0.075932
H82	H	0.642621	0.043086	-0.101216
H83	H	0.702539	-0.105688	-0.058873
H84	H	0.608772	-0.116401	-0.129049
O85	O	0.415997	-0.057352	0.000085
C86	C	0.481017	-0.158379	0.000058
H87	H	0.540136	-0.122650	0.027793
H88	H	0.462408	-0.240333	0.042570
H89	H	0.493083	-0.193847	-0.070207
O90	O	1.093461	0.003101	0.409101
C91	C	1.048436	-0.075625	0.355827
H92	H	0.983699	-0.024802	0.341999
H93	H	1.083012	-0.095876	0.291006
H94	H	1.042189	-0.169855	0.391393
H95	H	0.881511	0.331459	0.416436
H96	H	1.054677	-0.420125	0.133287
