data_functionalizedCrystal
_audit_creation_method	'MofGen! by Chris Wilmer'
_symmetry_space_group_name_H-M	'P1'
_symmetry_Int_Tables_number	1
_symmetry_cell_setting	triclinic
loop_
_symmetry_equiv_pos_as_xyz
  x,y,z
_cell_length_a	14.809374
_cell_length_b	20.016444
_cell_length_c	14.809384
_cell_angle_alpha	127.150407
_cell_angle_beta	98.842018
_cell_angle_gamma	55.129786
loop_
_atom_site_label
_atom_site_type_symbol
_atom_site_fract_x
_atom_site_fract_y
_atom_site_fract_z
Zr1	Zr	0.848823	0.777720	0.285415
O2	O	0.687748	0.939186	0.421105
O3	O	0.898200	0.631576	0.243826
O4	O	0.874758	0.805213	0.454268
O5	O	0.729683	0.738520	0.044654
O6	O	1.022276	0.809471	0.480420
O7	O	0.711190	0.765549	0.210663
O8	O	1.064210	0.498866	0.103977
O9	O	0.687749	1.049124	0.421097
O10	O	1.029352	0.689190	0.245597
O11	O	0.933061	0.665841	0.102190
O12	O	0.905461	0.870276	0.349958
O13	O	0.809171	0.846926	0.206551
Zr14	Zr	1.113592	0.741402	0.062359
Zr15	Zr	1.084098	0.784511	0.327124
Zr16	Zr	0.878317	0.734611	0.020650
Zr17	Zr	0.848825	0.953059	0.285402
Zr18	Zr	1.113590	0.566064	0.062372
O19	O	1.064215	0.887547	0.103948
O20	O	1.022278	0.948842	0.480409
O21	O	0.729684	0.877891	0.044644
O22	O	1.274667	0.579937	-0.073331
O23	O	1.232730	0.641232	0.303130
O24	O	0.940137	0.570281	-0.132635
O25	O	1.232732	0.780603	0.303120
O26	O	1.087657	0.713910	-0.106494
O27	O	0.940139	0.709652	-0.132646
O28	O	1.251225	0.753573	0.137111
O29	O	0.874761	1.054522	0.454250
O30	O	1.087654	0.464601	-0.106476
O31	O	1.274666	0.469998	-0.073323
O32	O	1.251222	0.504264	0.137130
O33	O	0.711193	1.014858	0.210644
O34	O	0.898205	1.020256	0.243797
O35	O	1.056954	0.648847	-0.002184
O36	O	1.153244	0.672196	0.141223
O37	O	1.029353	0.853282	0.245584
O38	O	0.933063	0.829932	0.102177
C39	C	0.981205	0.540239	0.173904
C40	C	0.981204	0.465803	0.173909
C41	C	1.031472	0.306718	0.248746
C42	C	1.031477	0.236769	0.248737
C43	C	0.930942	0.212406	0.099020
C44	C	0.930945	0.282348	0.099023
C45	C	0.981207	0.329507	0.173893
C46	C	0.981208	0.189616	0.173881
C47	C	0.981212	0.113774	0.173870
C48	C	0.981205	0.405352	0.173903
C49	C	0.686915	0.751067	0.121716
C50	C	0.587035	0.748184	0.104010
C51	C	0.532823	0.761050	0.183031
C52	C	0.429591	0.758071	0.164732
C53	C	1.275500	0.768056	0.226058
C54	C	1.375380	0.770939	0.243764
C55	C	0.944315	0.813484	0.505067
C56	C	0.931794	0.831785	0.617467
C57	C	0.981210	0.978883	0.173871
C58	C	0.981211	1.053319	0.173865
C59	C	0.987669	0.750113	0.615808
C60	C	0.974730	0.769026	0.731977
C61	C	1.018098	0.705640	0.842707
C62	C	1.030613	0.687343	0.730309
C63	C	1.275498	0.548734	0.226074
C64	C	1.375377	0.477181	0.243786
C65	C	1.018098	0.486317	-0.157277
C66	C	1.030618	0.393580	-0.269671
C67	C	1.312390	0.494811	-0.105106
C68	C	1.424791	0.404957	-0.199794
C69	C	0.650025	1.024312	0.452880
C70	C	0.537624	1.114165	0.547568
C71	C	0.686917	0.970389	0.121700
C72	C	0.587038	1.041942	0.103988
C73	C	0.944317	1.032806	0.505051
C74	C	0.931797	1.125543	0.617445
C75	C	1.357610	0.452451	0.306597
C76	C	1.451445	0.385233	0.323262
C77	C	1.563048	0.342739	0.277109
C78	C	1.580813	0.367475	0.214295
C79	C	1.486978	0.434698	0.197638
C80	C	1.101169	0.341157	-0.376945
C81	C	1.112930	0.254029	-0.482562
C82	C	1.054145	0.219321	-0.480901
C83	C	0.983585	0.271752	-0.373615
C84	C	0.971819	0.358883	-0.268002
C85	C	1.527847	0.374949	-0.169401
C86	C	1.633467	0.290534	-0.258359
C87	C	1.636028	0.236123	-0.377708
C88	C	1.532960	0.266138	-0.408100
C89	C	1.427343	0.350557	-0.319143
C90	C	0.434567	1.144182	0.517175
C91	C	0.328947	1.228619	0.606133
C92	C	0.326387	1.283034	0.725482
C93	C	0.429455	1.253014	0.755874
C94	C	0.535072	1.168583	0.666917
C95	C	0.604804	1.066681	0.041188
C96	C	0.510965	1.133923	0.024552
C97	C	0.399362	1.176419	0.070709
C98	C	0.381597	1.151679	0.133518
C99	C	0.475434	1.084444	0.150160
C100	C	0.990598	1.160223	0.615746
C101	C	0.978856	1.247348	0.721346
C102	C	0.908307	1.299797	0.828642
C103	C	0.849505	1.265110	0.830338
C104	C	0.861254	1.177981	0.724741
H105	H	0.890013	0.300899	0.038064
H106	H	0.436631	1.099881	0.420001
H107	H	0.245037	1.253045	0.581364
H108	H	0.618981	1.144147	0.691678
H109	H	0.405392	0.784155	0.324966
H110	H	1.088028	0.603413	0.642885
H111	H	0.240378	1.351781	0.797905
H112	H	0.562837	0.774265	0.264228
H113	H	0.792064	1.307827	0.917713
H114	H	0.890019	0.174002	0.038064
H115	H	0.399587	0.744843	0.083524
H116	H	1.045082	0.666189	0.528383
H117	H	0.557027	0.734957	0.022807
H118	H	1.717379	0.266106	-0.233592
H119	H	0.874370	0.915708	0.704890
H120	H	1.266743	0.487052	0.344199
H121	H	0.322964	1.231165	0.057149
H122	H	1.072401	0.345112	0.309708
H123	H	1.722037	0.167385	-0.450131
H124	H	0.427356	1.297330	0.853058
H125	H	0.695670	1.032083	0.003590
H126	H	1.501461	0.454822	0.146485
H127	H	1.436958	0.365102	0.374409
H128	H	0.917302	0.852955	0.819400
H129	H	1.639445	0.288002	0.290679
H130	H	1.149042	0.369405	-0.378321
H131	H	1.535063	0.221824	-0.505285
H132	H	0.525453	1.154053	-0.026595
H133	H	0.935726	0.243480	-0.372280
H134	H	0.290718	1.186290	0.171095
H135	H	1.671692	0.332868	0.176722
H136	H	1.170390	0.211349	-0.569907
H137	H	1.063736	0.148372	-0.566907
H138	H	0.460953	1.064304	0.201293
H139	H	1.048045	1.117530	0.528390
H140	H	0.914373	0.401557	-0.180658
H141	H	0.813365	1.149755	0.726140
H142	H	1.525784	0.419241	-0.072227
H143	H	1.343435	0.374977	-0.343906
H144	H	1.026740	1.275579	0.719941
H145	H	1.072409	0.218216	0.309687
H146	H	0.898751	1.370742	0.914617
