data_functionalizedCrystal
_audit_creation_method	'MofGen! by Chris Wilmer'
_symmetry_space_group_name_H-M	'P1'
_symmetry_Int_Tables_number	1
_symmetry_cell_setting	triclinic
loop_
_symmetry_equiv_pos_as_xyz
  x,y,z
_cell_length_a	10.723023
_cell_length_b	26.210047
_cell_length_c	10.723024
_cell_angle_alpha	90.005725
_cell_angle_beta	95.532291
_cell_angle_gamma	90.008652
loop_
_atom_site_label
_atom_site_type_symbol
_atom_site_fract_x
_atom_site_fract_y
_atom_site_fract_z
O1	O	1.657199	0.042422	-0.175005
O2	O	1.294047	0.042424	-0.191759
O3	O	1.484000	0.042421	-0.001806
O4	O	1.467246	0.042425	-0.364958
O5	O	1.483963	-0.042437	-0.001835
O6	O	1.294010	-0.042434	-0.191789
O7	O	1.657162	-0.042436	-0.175034
Cu8	Cu	1.475583	-0.050183	-0.183414
Cu9	Cu	1.475626	0.050172	-0.183379
O10	O	1.467209	-0.042433	-0.364988
C11	C	1.247529	-0.000004	-0.190555
C12	C	1.108974	-0.000004	-0.186908
C13	C	1.047183	-0.043962	-0.185297
C14	C	0.903980	-0.043962	-0.181527
N15	N	1.475561	-0.120767	-0.183438
C16	C	1.559729	-0.473282	-0.099287
C17	C	1.559756	-0.686941	-0.099270
O18	O	1.631271	-0.714564	-0.027727
N19	N	1.475633	-0.713661	-0.183352
C20	C	1.391491	-0.686963	-0.267439
O21	O	1.319930	-0.714592	-0.338946
C22	C	1.391458	-0.473305	-0.267449
C23	C	1.475596	-0.446588	-0.183370
C24	C	1.643859	-0.446565	-0.015214
C25	C	1.643856	-0.393153	-0.015224
C26	C	1.559723	-0.366459	-0.099306
C27	C	1.475593	-0.393176	-0.183379
C28	C	1.307311	-0.446608	-0.351528
C29	C	1.307309	-0.393190	-0.351521
C30	C	1.391446	-0.366473	-0.267442
C31	C	1.391457	-0.313071	-0.267472
N32	N	1.475580	-0.286351	-0.183390
C33	C	1.559713	-0.313045	-0.099307
C34	C	1.391515	-0.799136	-0.267429
C35	C	1.391525	-0.852550	-0.267428
C36	C	1.559789	-0.852525	-0.099258
C37	C	1.559785	-0.799109	-0.099265
C38	C	1.475639	-0.772416	-0.183347
C39	C	1.559701	-0.200877	-0.099335
C40	C	1.559694	-0.147461	-0.099355
C41	C	1.391426	-0.147491	-0.267521
C42	C	1.391437	-0.200903	-0.267505
C43	C	1.475579	-0.227594	-0.183402
O44	O	1.319971	-0.285415	-0.338968
O45	O	1.631244	-0.285406	-0.027791
C46	C	1.559732	-0.526694	-0.099277
C47	C	1.475602	-0.553411	-0.183350
C48	C	1.391469	-0.526717	-0.267433
C49	C	1.475612	-0.606825	-0.183350
C50	C	1.559744	-0.633519	-0.099267
C51	C	1.643868	-0.606799	-0.015185
C52	C	1.643865	-0.553388	-0.015195
C53	C	1.307346	-0.553437	-0.351515
C54	C	1.307357	-0.606848	-0.351499
C55	C	1.391489	-0.633542	-0.267417
C56	C	1.703680	-0.000006	-0.176239
C57	C	1.842235	-0.000003	-0.179886
C58	C	1.482762	-0.000007	0.044679
C59	C	1.479114	-0.000005	0.183233
N60	N	1.475658	0.120756	-0.183346
C61	C	1.468447	-0.000003	-0.411473
C62	C	1.472095	-0.000002	-0.550027
C63	C	1.585402	-0.000005	0.258216
C64	C	1.581634	-0.000003	0.401420
H65	H	1.628214	-0.125709	-0.030888
H66	H	1.385328	-0.000001	0.225055
Cl67	Cl	1.730208	-0.000003	0.193658
H68	H	1.381099	-0.000005	0.385548
Cl69	Cl	1.285764	-0.886132	-0.373148
Cl70	Cl	0.924260	0.058107	-0.182034
H71	H	1.100300	-0.081597	-0.186701
Cl72	Cl	0.821944	-0.102071	-0.179398
Cl73	Cl	1.026980	0.058104	-0.184718
Cl74	Cl	1.665484	-0.234424	0.006395
H75	H	1.712370	-0.468295	0.053262
Cl76	Cl	1.665559	-0.765528	0.006440
Cl77	Cl	1.749624	-0.359572	0.090488
H78	H	1.712377	-0.531638	0.053271
Cl79	Cl	1.665553	-0.886093	0.006447
H80	H	1.712377	-0.628542	0.053275
Cl81	Cl	1.285727	-0.765585	-0.373146
Cl82	Cl	1.201531	-0.480185	-0.457229
Cl83	Cl	1.285674	-0.234489	-0.373221
Cl84	Cl	1.201516	-0.359637	-0.457229
Cl85	Cl	1.201578	-0.640430	-0.457214
Cl86	Cl	1.285664	-0.113925	-0.373222
Cl87	Cl	1.201570	-0.519885	-0.457230
H88	H	1.672625	-0.000005	0.465852
