data_functionalizedCrystal
_audit_creation_method	'MofGen! by Chris Wilmer'
_symmetry_space_group_name_H-M	'P1'
_symmetry_Int_Tables_number	1
_symmetry_cell_setting	triclinic
loop_
_symmetry_equiv_pos_as_xyz
  x,y,z
_cell_length_a	10.654550
_cell_length_b	10.654551
_cell_length_c	14.586319
_cell_angle_alpha	89.997923
_cell_angle_beta	90.000892
_cell_angle_gamma	95.514904
loop_
_atom_site_label
_atom_site_type_symbol
_atom_site_fract_x
_atom_site_fract_y
_atom_site_fract_z
O1	O	1.667841	-0.176398	0.076167
O2	O	1.302363	-0.193204	0.076183
O3	O	1.493504	-0.002062	0.076174
O4	O	1.476699	-0.367541	0.076176
O5	O	1.493489	-0.002057	-0.076307
O6	O	1.302347	-0.193200	-0.076298
O7	O	1.667826	-0.176394	-0.076314
Cu8	Cu	1.485085	-0.184796	-0.090228
Cu9	Cu	1.485103	-0.184802	0.090098
O10	O	1.476684	-0.367536	-0.076305
C11	C	1.255557	-0.191968	-0.000055
C12	C	1.116114	-0.188276	-0.000049
C13	C	1.036628	-0.300818	-0.000050
C14	C	0.905608	-0.297341	-0.000066
C15	C	0.933570	-0.068772	-0.000075
C16	C	1.064588	-0.072249	-0.000065
C17	C	1.492263	0.044738	-0.000065
C18	C	1.488570	0.184181	-0.000059
C19	C	1.714631	-0.177630	-0.000074
C20	C	1.854075	-0.181322	-0.000074
C21	C	1.486846	0.249683	0.083059
C22	C	1.483366	0.380703	0.083061
C23	C	1.483340	0.380710	-0.083182
C24	C	1.486811	0.249691	-0.083183
N25	N	1.485081	-0.184791	-0.217060
C26	C	1.477926	0.585664	-0.000062
C27	C	1.481620	0.446221	-0.000057
C28	C	1.569752	-0.100182	-0.548058
C29	C	1.569749	-0.100183	-0.452077
C30	C	1.400442	-0.269415	-0.452079
C31	C	1.400452	-0.269420	-0.548059
C32	C	1.485106	-0.184796	-0.596046
C33	C	1.485093	-0.184792	-0.404085
C34	C	1.485089	-0.184793	-0.300018
C35	C	1.485112	-0.184796	-0.700119
N36	N	1.485117	-0.184797	0.216930
H37	H	1.129309	0.019401	-0.000067
O38	O	0.883453	0.043899	0.000080
C39	C	0.808473	0.052733	0.079036
H40	H	0.840020	-0.013167	0.134235
H41	H	0.705422	0.024664	0.061177
C42	C	0.784411	0.270262	0.047045
C43	C	0.823165	0.189330	0.114844
H44	H	0.793469	0.354521	0.069132
H45	H	0.834923	0.264309	-0.006151
H46	H	0.698538	0.246856	0.032169
H47	H	0.909041	0.212727	0.129711
H48	H	0.772668	0.195289	0.168044
H49	H	1.488208	0.196357	-0.150872
O50	O	1.651869	-0.018037	-0.594816
C51	C	1.633751	-0.036201	-0.689821
H52	H	1.534314	-0.082215	-0.702936
H53	H	1.705385	-0.099853	-0.717049
C54	C	1.773649	0.148616	-0.722994
C55	C	1.651515	0.092110	-0.739103
H56	H	1.784612	0.227762	-0.753395
H57	H	1.785859	0.160852	-0.658987
H58	H	1.833330	0.095560	-0.745684
H59	H	1.591838	0.145158	-0.716402
H60	H	1.639295	0.079886	-0.803107
O61	O	1.488482	0.186231	0.163884
C62	C	1.486243	0.272150	0.237246
H63	H	1.444076	0.360692	0.212878
H64	H	1.586455	0.298384	0.262799
C65	C	1.457178	0.102213	0.345708
C66	C	1.405378	0.210957	0.315781
H67	H	1.407302	0.064466	0.394155
H68	H	1.458692	0.044327	0.296283
H69	H	1.540687	0.124089	0.366996
H70	H	1.321878	0.189077	0.294483
H71	H	1.403849	0.268838	0.365204
O72	O	0.828343	-0.406629	-0.000225
C73	C	0.751708	-0.411453	-0.079190
H74	H	0.799132	-0.347655	-0.134389
H75	H	0.656165	-0.378113	-0.061347
C76	C	0.674751	-0.626297	-0.047190
C77	C	0.733003	-0.547948	-0.114989
H78	H	0.663207	-0.710493	-0.069271
H79	H	0.726377	-0.623047	0.006013
H80	H	0.595138	-0.598498	-0.032327
H81	H	0.812620	-0.575737	-0.129843
H82	H	0.681389	-0.551206	-0.168195
O83	O	1.652018	-0.017865	-0.405604
C84	C	1.726755	0.056797	-0.468544
H85	H	1.675256	0.058686	-0.536964
H86	H	1.820407	0.015158	-0.478747
C87	C	1.814705	0.189725	-0.347057
C88	C	1.751447	0.192055	-0.431089
H89	H	1.829942	0.273157	-0.323952
H90	H	1.764357	0.139422	-0.304652
H91	H	1.892741	0.155021	-0.355571
H92	H	1.673406	0.226744	-0.422572
H93	H	1.801783	0.242367	-0.473492
O94	O	1.318045	-0.351491	-0.594639
C95	C	1.193543	-0.329949	-0.571182
H96	H	1.192046	-0.229390	-0.544802
H97	H	1.157254	-0.399222	-0.515472
C98	C	1.110425	-0.472189	-0.688853
C99	C	1.108584	-0.348677	-0.656460
H100	H	1.058016	-0.483747	-0.741454
H101	H	1.194304	-0.486707	-0.704655
H102	H	1.080187	-0.529902	-0.642420
H103	H	1.138837	-0.290967	-0.702889
H104	H	1.024708	-0.334150	-0.640668
O105	O	1.481859	0.444489	0.163745
C106	C	1.588443	0.533535	0.168722
H107	H	1.624108	0.557599	0.096552
H108	H	1.665822	0.492339	0.209732
C109	C	1.508362	0.624396	0.304892
C110	C	1.552160	0.653958	0.216251
H111	H	1.485984	0.698677	0.334213
H112	H	1.436556	0.564400	0.301541
H113	H	1.572852	0.590063	0.339055
H114	H	1.487666	0.688275	0.182085
H115	H	1.623955	0.713963	0.219597
H116	H	1.481911	0.434064	-0.150858
H117	H	1.331517	-0.338312	-0.412999
H118	H	1.078576	-0.395294	-0.000044
