data_functionalizedCrystal
_audit_creation_method	'MofGen! by Chris Wilmer'
_symmetry_space_group_name_H-M	'P1'
_symmetry_Int_Tables_number	1
_symmetry_cell_setting	triclinic
loop_
_symmetry_equiv_pos_as_xyz
  x,y,z
_cell_length_a	17.699083
_cell_length_b	10.654559
_cell_length_c	16.776229
_cell_angle_alpha	89.999122
_cell_angle_beta	89.993587
_cell_angle_gamma	96.114331
loop_
_atom_site_label
_atom_site_type_symbol
_atom_site_fract_x
_atom_site_fract_y
_atom_site_fract_z
O1	O	-1.005092	0.158792	0.066272
O2	O	-0.505092	0.658792	0.566272
O3	O	-0.784846	0.179454	0.066276
O4	O	-0.284846	0.679454	0.566276
O5	O	-0.900029	-0.013704	0.066272
O6	O	-0.400029	0.486296	0.566272
O7	O	-0.889909	0.351950	0.066277
O8	O	-0.389909	0.851950	0.566277
O9	O	-0.900012	-0.013694	-0.066305
O10	O	-0.400012	0.486306	0.433695
O11	O	-0.784829	0.179465	-0.066300
O12	O	-0.284829	0.679465	0.433700
O13	O	-1.005075	0.158802	-0.066304
O14	O	-0.505075	0.658802	0.433696
Zn15	Zn	-0.894949	0.169135	-0.087352
Zn16	Zn	-0.394949	0.669135	0.412648
Zn17	Zn	-0.894972	0.169122	0.087324
Zn18	Zn	-0.394972	0.669122	0.587324
O19	O	-0.889892	0.351961	-0.066300
O20	O	-0.389892	0.851961	0.433700
C21	C	-0.756635	0.178719	-0.000011
C22	C	-0.256635	0.678719	0.499989
C23	C	-0.672603	0.176499	-0.000010
C24	C	-0.172603	0.676499	0.499990
C25	C	-0.633120	0.175458	-0.072278
C26	C	-0.133120	0.675458	0.427722
C27	C	-0.554164	0.173351	-0.072279
C28	C	-0.054164	0.673351	0.427721
C29	C	-0.514692	0.172295	-0.000010
C30	C	-0.014692	0.672295	0.499990
C31	C	-0.554181	0.173332	0.072264
C32	C	-0.054181	0.673332	0.572264
C33	C	-0.633136	0.175429	0.072263
C34	C	-0.133136	0.675429	0.572263
C35	C	-0.235765	0.164871	0.072266
C36	C	0.264235	0.664871	0.572266
C37	C	-0.156804	0.162777	0.072261
C38	C	0.343196	0.662777	0.572261
C39	C	-0.156793	0.162793	-0.072276
C40	C	0.343207	0.662793	0.427724
C41	C	-0.235748	0.164891	-0.072276
C42	C	0.264252	0.664891	0.427724
C43	C	-0.275230	0.165921	-0.000003
C44	C	0.224770	0.665921	0.499997
C45	C	-0.360843	0.168203	-0.000003
C46	C	0.139157	0.668203	0.499997
C47	C	-0.429080	0.170022	-0.000009
C48	C	0.070920	0.670022	0.499991
C49	C	-0.899276	-0.060483	-0.000015
C50	C	-0.399276	0.439517	0.499985
C51	C	-0.897049	-0.199887	-0.000012
C52	C	-0.397049	0.300113	0.499988
C53	C	-0.827137	-0.250203	-0.000007
C54	C	-0.327137	0.249797	0.499993
C55	C	-0.825048	-0.381188	-0.000008
C56	C	-0.325048	0.118812	0.499992
C57	C	-0.962790	-0.411532	-0.000017
C58	C	-0.462790	0.088468	0.499983
C59	C	-0.964878	-0.280549	-0.000021
C60	C	-0.464878	0.219451	0.499979
C61	C	-0.739448	-0.541969	-0.046448
C62	C	-0.239448	-0.041969	0.453552
C63	C	-0.669533	-0.592288	-0.046429
C64	C	-0.169533	-0.092288	0.453571
C65	C	-0.609412	-0.536380	0.000029
C66	C	-0.109412	-0.036380	0.500029
C67	C	-0.619204	-0.430155	0.046489
C68	C	-0.119204	0.069845	0.546489
C69	C	-0.689121	-0.379842	0.046477
C70	C	-0.189121	0.120158	0.546477
C71	C	-0.749239	-0.435748	-0.000000
C72	C	-0.249239	0.064252	0.500000
C73	C	-1.050472	-0.119765	0.046425
C74	C	-0.550472	0.380235	0.546425
C75	C	-1.120390	-0.069451	0.046419
C76	C	-0.620390	0.430549	0.546419
C77	C	-1.180517	-0.125357	-0.000034
C78	C	-0.680517	0.374643	0.499966
C79	C	-1.170733	-0.231589	-0.046481
C80	C	-0.670733	0.268411	0.453519
C81	C	-1.100815	-0.281903	-0.046476
C82	C	-0.600815	0.218097	0.453524
C83	C	-1.040688	-0.225988	-0.000023
C84	C	-0.540688	0.274012	0.499977
C85	C	-0.033286	0.159530	-0.000014
C86	C	0.466714	0.659530	0.499986
C87	C	-0.117320	0.161727	-0.000008
C88	C	0.382680	0.661727	0.499992
C89	C	-0.890645	0.398740	-0.000011
C90	C	-0.390645	0.898740	0.499989
C91	C	-0.892872	0.538144	-0.000009
C92	C	-0.392872	1.038144	0.499991
N93	N	-0.894940	0.169144	-0.206563
N94	N	-0.394940	0.669144	0.293437
C95	C	-0.945997	0.083604	-0.751730
C96	C	-0.445997	0.583604	-0.251730
C97	C	-0.945993	0.083613	-0.668277
C98	C	-0.445993	0.583613	-0.168277
C99	C	-0.894976	0.169116	-0.626562
C100	C	-0.394976	0.669116	-0.126562
C101	C	-0.843964	0.254625	-0.668304
C102	C	-0.343964	0.754625	-0.168304
C103	C	-0.843971	0.254621	-0.751754
C104	C	-0.343971	0.754621	-0.251754
C105	C	-0.843931	0.254643	-0.331757
C106	C	-0.343931	0.754643	0.168243
C107	C	-0.843926	0.254638	-0.248300
C108	C	-0.343926	0.754638	0.251700
C109	C	-0.945953	0.083635	-0.248280
C110	C	-0.445953	0.583635	0.251720
C111	C	-0.945961	0.083631	-0.331730
C112	C	-0.445961	0.583631	0.168270
C113	C	-0.894952	0.169144	-0.373464
C114	C	-0.394952	0.669144	0.126536
C115	C	-0.894958	0.169135	-0.463953
C116	C	-0.394958	0.669135	0.036047
C117	C	-0.894966	0.169120	-0.536075
C118	C	-0.394966	0.669120	-0.036075
N119	N	-0.894987	0.169103	0.206535
N120	N	-0.394987	0.669103	0.706535
H121	H	-0.665252	0.176329	-0.131127
H122	H	-0.165252	0.676329	0.368873
F123	F	-1.254933	-0.071812	-0.000031
F124	F	-0.754933	0.428188	0.499969
H125	H	-0.788396	-0.587490	-0.084290
H126	H	-0.288396	-0.087490	0.415710
F127	F	-0.986476	-0.060248	0.095863
F128	F	-0.486476	0.439752	0.595863
H129	H	-0.802397	0.324268	-0.365730
H130	H	-0.302397	0.824268	0.134270
F131	F	-0.789624	0.345648	-0.203905
F132	F	-0.289624	0.845648	0.296095
H133	H	-0.124637	0.161948	-0.131125
H134	H	0.375363	0.661948	0.368875
F135	F	-1.000245	-0.007372	-0.203857
F136	F	-0.500245	0.492628	0.296143
H137	H	-0.802427	0.324250	-0.634334
H138	H	-0.302427	0.824250	-0.134334
F139	F	-1.130804	0.043608	0.095858
F140	F	-0.630804	0.543608	0.595858
H141	H	-0.802435	0.324245	-0.785735
H142	H	-0.302435	0.824245	-0.285735
H143	H	-0.522022	0.172483	-0.131127
H144	H	-0.022022	0.672483	0.368873
F145	F	-1.090404	-0.394972	-0.095906
F146	F	-0.590404	0.105028	0.404094
F147	F	-0.277752	0.166023	-0.149194
F148	F	0.222248	0.666023	0.350806
F149	F	-1.000294	-0.007409	-0.796118
F150	F	-0.500294	0.492591	-0.296118
F151	F	-0.114797	0.161651	0.149182
F152	F	0.385203	0.661651	0.649182
F153	F	-0.754947	-0.164360	-0.000001
F154	F	-0.254947	0.335640	0.499999
F155	F	-1.000284	-0.007384	-0.623859
F156	F	-0.500284	0.492616	-0.123859
F157	F	-1.234728	-0.291099	-0.095919
F158	F	-0.734728	0.208901	0.404081
F159	F	-0.277775	0.165969	0.149186
F160	F	0.222225	0.665969	0.649186
F161	F	-0.512173	0.172169	0.149177
F162	F	-0.012173	0.672169	0.649177
H163	H	-0.665282	0.176279	0.131112
H164	H	-0.165282	0.676279	0.631112
F165	F	-0.699545	-0.266798	0.095918
F166	F	-0.199545	0.233202	0.595918
H167	H	-0.987502	0.014002	-0.365692
H168	H	-0.487502	0.514002	0.134308
F169	F	-0.555216	-0.370672	0.095946
F170	F	-0.055216	0.129328	0.595946
F171	F	-0.535005	-0.589945	0.000054
F172	F	-0.035005	-0.089945	0.500054
F173	F	-0.659113	-0.705334	-0.095878
F174	F	-0.159113	-0.205334	0.404122
H175	H	-1.018014	-0.477223	-0.000022
H176	H	-0.518014	0.022777	0.499978
