data_functionalizedCrystal
_audit_creation_method	'MofGen! by Chris Wilmer'
_symmetry_space_group_name_H-M	'P1'
_symmetry_Int_Tables_number	1
_symmetry_cell_setting	triclinic
loop_
_symmetry_equiv_pos_as_xyz
  x,y,z
_cell_length_a	21.295419
_cell_length_b	29.839131
_cell_length_c	21.295411
_cell_angle_alpha	89.971982
_cell_angle_beta	89.975461
_cell_angle_gamma	90.050029
loop_
_atom_site_label
_atom_site_type_symbol
_atom_site_fract_x
_atom_site_fract_y
_atom_site_fract_z
Zn1	Zn	0.962335	-0.178727	-0.355883
Zn2	Zn	1.295668	0.154606	-0.022550
Zn3	Zn	1.629002	0.487940	0.310783
Zn4	Zn	0.962229	-0.253843	-0.250597
Zn5	Zn	1.295562	0.079491	0.082736
Zn6	Zn	1.628895	0.412824	0.416070
Zn7	Zn	0.857058	-0.178747	-0.250628
Zn8	Zn	1.190391	0.154586	0.082705
Zn9	Zn	1.523725	0.487920	0.416038
Zn10	Zn	0.857019	-0.253850	-0.355829
Zn11	Zn	1.190352	0.079483	-0.022495
Zn12	Zn	1.523685	0.412816	0.310838
O13	O	0.909660	-0.216292	-0.303234
O14	O	1.242993	0.117042	0.030099
O15	O	1.576327	0.450375	0.363432
O16	O	1.050410	-0.188680	-0.341927
O17	O	1.383743	0.144653	-0.008593
O18	O	1.717077	0.477987	0.324740
O19	O	0.948249	-0.243886	-0.162512
O20	O	1.281583	0.089447	0.170822
O21	O	1.614916	0.422781	0.504155
O22	O	0.871084	-0.115877	-0.264627
O23	O	1.204418	0.217456	0.068707
O24	O	1.537751	0.550790	0.402040
O25	O	1.050332	-0.243867	-0.264573
O26	O	1.383665	0.089466	0.068760
O27	O	1.716999	0.422800	0.402094
O28	O	0.948431	-0.115863	-0.341957
O29	O	1.281764	0.217471	-0.008624
O30	O	1.615097	0.550804	0.324710
O31	O	0.870981	-0.188714	-0.162535
O32	O	1.204314	0.144620	0.170799
O33	O	1.537648	0.477953	0.504132
O34	O	0.768963	-0.188721	-0.264574
O35	O	1.102297	0.144612	0.068760
O36	O	1.435630	0.477946	0.402093
O37	O	0.871017	-0.243880	-0.443925
O38	O	1.204351	0.089453	-0.110592
O39	O	1.537684	0.422787	0.222741
O40	O	0.768935	-0.243899	-0.341864
O41	O	1.102268	0.089434	-0.008531
O42	O	1.435601	0.422768	0.324803
O43	O	0.948392	-0.188687	-0.443965
O44	O	1.281726	0.144646	-0.110632
O45	O	1.615059	0.477979	0.222701
O46	O	0.948211	-0.316711	-0.264520
O47	O	1.281545	0.016623	0.068813
O48	O	1.614878	0.349956	0.402146
O49	O	0.870914	-0.316716	-0.341834
O50	O	1.204248	0.016617	-0.008500
O51	O	1.537581	0.349950	0.324833
C52	C	0.746108	-0.216313	-0.303217
C53	C	1.079442	0.117020	0.030117
C54	C	1.412775	0.450353	0.363450
C55	C	0.676140	-0.216333	-0.303224
C56	C	1.009474	0.117000	0.030109
C57	C	1.342807	0.450333	0.363443
C58	C	0.643337	-0.187644	-0.343564
C59	C	0.976670	0.145689	-0.010231
C60	C	1.310003	0.479022	0.323103
C61	C	0.577594	-0.187632	-0.343567
C62	C	0.910928	0.145701	-0.010233
C63	C	1.244261	0.479034	0.323100
C64	C	0.544658	-0.216317	-0.303235
C65	C	0.877991	0.117016	0.030098
C66	C	1.211325	0.450349	0.363431
C67	C	0.577469	-0.245008	-0.262888
C68	C	0.910803	0.088325	0.070446
C69	C	1.244136	0.421659	0.403779
C70	C	0.643211	-0.245016	-0.262882
C71	C	0.976544	0.088317	0.070452
C72	C	1.309877	0.421650	0.403785
N73	N	0.441378	-0.255624	-0.298310
N74	N	0.774711	0.077709	0.035024
N75	N	1.108045	0.411042	0.368357
N76	N	0.378926	-0.255615	-0.298319
N77	N	0.712260	0.077718	0.035015
N78	N	1.045593	0.411051	0.368348
C79	C	0.346583	-0.216294	-0.303249
C80	C	0.679916	0.117039	0.030084
C81	C	1.013250	0.450373	0.363417
N82	N	0.379051	-0.176981	-0.308183
N83	N	0.712384	0.156353	0.025150
N84	N	1.045717	0.489686	0.358484
N85	N	0.441508	-0.176990	-0.308177
N86	N	0.774841	0.156343	0.025156
N87	N	1.108174	0.489676	0.358490
C88	C	0.473372	-0.216311	-0.303237
C89	C	0.806706	0.117022	0.030096
C90	C	1.140039	0.450355	0.363430
C91	C	0.242494	-0.187590	-0.343594
C92	C	0.575827	0.145744	-0.010261
C93	C	0.909161	0.479077	0.323072
C94	C	0.176750	-0.187577	-0.343592
C95	C	0.510084	0.145757	-0.010259
C96	C	0.843417	0.479090	0.323074
C97	C	0.176627	-0.244956	-0.262917
C98	C	0.509960	0.088377	0.070417
C99	C	0.843293	0.421710	0.403750
C100	C	0.242369	-0.244965	-0.262915
C101	C	0.575702	0.088368	0.070418
C102	C	0.909036	0.421701	0.403751
C103	C	0.275299	-0.216282	-0.303257
C104	C	0.608632	0.117051	0.030076
C105	C	0.941966	0.450384	0.363409
C106	C	0.909564	-0.333014	-0.303181
C107	C	1.242897	0.000319	0.030152
C108	C	1.576231	0.333652	0.363485
C109	C	0.909581	-0.382949	-0.303180
C110	C	1.242914	-0.049615	0.030154
C111	C	1.576247	0.283718	0.363487
C112	C	0.949926	-0.692550	-0.343558
C113	C	1.283259	-0.359216	-0.010224
C114	C	1.616592	-0.025883	0.323109
C115	C	0.949994	-0.880223	-0.343595
C116	C	1.283327	-0.546889	-0.010262
C117	C	1.616661	-0.213556	0.323071
O118	O	0.984203	-0.904451	-0.377887
O119	O	1.317536	-0.571118	-0.044554
O120	O	1.650869	-0.237785	0.288780
N121	N	0.909767	-0.903734	-0.303304
N122	N	1.243100	-0.570400	0.030029
N123	N	1.576434	-0.237067	0.363363
C124	C	0.869517	-0.880324	-0.263003
C125	C	1.202851	-0.546990	0.070330
C126	C	1.536184	-0.213657	0.403663
O127	O	0.835299	-0.904628	-0.228739
O128	O	1.168632	-0.571294	0.104595
O129	O	1.501965	-0.237961	0.437928
C130	C	0.869446	-0.692651	-0.262969
C131	C	1.202780	-0.359318	0.070364
C132	C	1.536113	-0.025985	0.403697
C133	C	0.909680	-0.669143	-0.303259
C134	C	1.243014	-0.335810	0.030075
C135	C	1.576347	-0.002476	0.363408
C136	C	0.990156	-0.669041	-0.383844
C137	C	1.323489	-0.335708	-0.050511
C138	C	1.656823	-0.002374	0.282822
C139	C	0.990141	-0.622126	-0.383832
C140	C	1.323474	-0.288792	-0.050499
C141	C	1.656807	0.044541	0.282835
C142	C	0.949895	-0.598719	-0.343533
C143	C	1.283229	-0.265385	-0.010200
C144	C	1.616562	0.067948	0.323134
C145	C	0.909665	-0.622227	-0.303246
C146	C	1.242999	-0.288894	0.030087
C147	C	1.576332	0.044439	0.363420
C148	C	0.829194	-0.669242	-0.222672
C149	C	1.162527	-0.335909	0.110661
C150	C	1.495860	-0.002576	0.443994
C151	C	0.829178	-0.622321	-0.222668
C152	C	1.162512	-0.288988	0.110665
C153	C	1.495845	0.044345	0.443998
C154	C	0.869412	-0.598813	-0.262958
C155	C	1.202746	-0.265479	0.070375
C156	C	1.536079	0.067854	0.403709
C157	C	0.869405	-0.551905	-0.262935
C158	C	1.202738	-0.218572	0.070398
C159	C	1.536071	0.114761	0.403731
N160	N	0.909632	-0.528394	-0.303227
N161	N	1.242965	-0.195061	0.030107
N162	N	1.576298	0.138273	0.363440
C163	C	0.949877	-0.551801	-0.343525
C164	C	1.283210	-0.218468	-0.010192
C165	C	1.616544	0.114866	0.323141
C166	C	0.869558	-0.978854	-0.263023
C167	C	1.202892	-0.645521	0.070310
C168	C	1.536225	-0.312188	0.403643
C169	C	0.869577	-1.025772	-0.263031
C170	C	1.202910	-0.692439	0.070302
C171	C	1.536243	-0.359105	0.403636
C172	C	0.950053	-1.025668	-0.343624
C173	C	1.283386	-0.692335	-0.010291
C174	C	1.616719	-0.359001	0.323043
C175	C	0.950037	-0.978749	-0.343613
C176	C	1.283370	-0.645416	-0.010279
C177	C	1.616704	-0.312082	0.323054
C178	C	0.909785	-0.955343	-0.303315
C179	C	1.243118	-0.622010	0.030019
C180	C	1.576452	-0.288677	0.363352
C181	C	0.949843	-0.453275	-0.343496
C182	C	1.283176	-0.119942	-0.010163
C183	C	1.616509	0.213392	0.323170
C184	C	0.949826	-0.406356	-0.343478
C185	C	1.283159	-0.073022	-0.010145
C186	C	1.616493	0.260311	0.323188
C187	C	0.869348	-0.406464	-0.262888
C188	C	1.202681	-0.073131	0.070445
C189	C	1.536015	0.260203	0.403778
C190	C	0.869367	-0.453379	-0.262903
C191	C	1.202700	-0.120046	0.070430
C192	C	1.536033	0.213287	0.403763
C193	C	0.909616	-0.476784	-0.303212
C194	C	1.242950	-0.143450	0.030121
C195	C	1.576283	0.189883	0.363454
O196	O	0.835209	-0.527648	-0.228667
O197	O	1.168542	-0.194314	0.104667
O198	O	1.501876	0.139019	0.438000
O199	O	0.984081	-0.527489	-0.377795
O200	O	1.317414	-0.194156	-0.044462
O201	O	1.650747	0.139178	0.288872
C202	C	0.949941	-0.739465	-0.343570
C203	C	1.283274	-0.406132	-0.010237
C204	C	1.616607	-0.072798	0.323097
C205	C	0.909710	-0.762974	-0.303283
C206	C	1.243044	-0.429640	0.030050
C207	C	1.576377	-0.096307	0.363383
C208	C	0.869465	-0.739567	-0.262984
C209	C	1.202798	-0.406234	0.070349
C210	C	1.536132	-0.072900	0.403682
C211	C	0.909729	-0.809892	-0.303291
C212	C	1.243062	-0.476558	0.030042
C213	C	1.576395	-0.143225	0.363376
C214	C	0.949974	-0.833298	-0.343590
C215	C	1.283307	-0.499965	-0.010256
C216	C	1.616641	-0.166632	0.323077
C217	C	0.990201	-0.809787	-0.383881
C218	C	1.323534	-0.476454	-0.050548
C219	C	1.656868	-0.143121	0.282786
C220	C	0.990186	-0.762872	-0.383869
C221	C	1.323519	-0.429539	-0.050535
C222	C	1.656853	-0.096205	0.282798
C223	C	0.829238	-0.763078	-0.222693
C224	C	1.162571	-0.429745	0.110640
C225	C	1.495905	-0.096411	0.443974
C226	C	0.829257	-0.809994	-0.222708
C227	C	1.162590	-0.476660	0.110625
C228	C	1.495924	-0.143327	0.443958
C229	C	0.869502	-0.833400	-0.263007
C230	C	1.202836	-0.500067	0.070326
C231	C	1.536169	-0.166734	0.403660
C232	C	1.073850	-0.216270	-0.303252
C233	C	1.407184	0.117063	0.030081
C234	C	1.740517	0.450396	0.363414
C235	C	1.143818	-0.216261	-0.303260
C236	C	1.477152	0.117072	0.030073
C237	C	1.810485	0.450405	0.363407
C238	C	0.909712	-0.216282	-0.467425
C239	C	1.243046	0.117051	-0.134091
C240	C	1.576379	0.450384	0.199242
C241	C	0.909735	-0.216278	-0.537393
C242	C	1.243068	0.117055	-0.204059
C243	C	1.576401	0.450389	0.129274
C244	C	0.909774	-0.099113	-0.303301
C245	C	1.243107	0.234220	0.030032
C246	C	1.576440	0.567553	0.363365
C247	C	0.909822	-0.049179	-0.303330
C248	C	1.243155	0.284154	0.030003
C249	C	1.576489	0.617488	0.363337
C250	C	0.950022	-0.187538	-0.570281
C251	C	1.283355	0.145795	-0.236948
C252	C	1.616689	0.479129	0.096385
C253	C	0.950021	-0.187519	-0.636024
C254	C	1.283355	0.145815	-0.302691
C255	C	1.616688	0.479148	0.030643
C256	C	0.909739	-0.216247	-0.668875
C257	C	1.243073	0.117086	-0.335542
C258	C	1.576406	0.450419	-0.002209
C259	C	0.869444	-0.244989	-0.635979
C260	C	1.202777	0.088344	-0.302646
C261	C	1.536111	0.421677	0.030688
C262	C	0.869442	-0.245005	-0.570238
C263	C	1.202775	0.088329	-0.236904
C264	C	1.536108	0.421662	0.096429
N265	N	0.904878	-0.255549	-0.772085
N266	N	1.238212	0.077785	-0.438751
N267	N	1.571545	0.411118	-0.105418
N268	N	0.904884	-0.255533	-0.834536
N269	N	1.238218	0.077801	-0.501203
N270	N	1.571551	0.411134	-0.167869
C271	C	0.909743	-0.216202	-0.866950
C272	C	1.243077	0.117132	-0.533617
C273	C	1.576410	0.450465	-0.200284
N274	N	0.914609	-0.176886	-0.834554
N275	N	1.247942	0.156447	-0.501220
N276	N	1.581275	0.489780	-0.167887
N277	N	0.914606	-0.176903	-0.772096
N278	N	1.247939	0.156430	-0.438763
N279	N	1.581273	0.489764	-0.105430
C280	C	0.909737	-0.216233	-0.740161
C281	C	1.243071	0.117100	-0.406827
C282	C	1.576404	0.450433	-0.073494
C283	C	0.950032	-0.187438	-0.971124
C284	C	1.283366	0.145895	-0.637791
C285	C	1.616699	0.479229	-0.304458
C286	C	0.950027	-0.187418	-1.036868
C287	C	1.283360	0.145916	-0.703535
C288	C	1.616694	0.479249	-0.370201
C289	C	0.869453	-0.244893	-1.036822
C290	C	1.202786	0.088441	-0.703488
C291	C	1.536120	0.421774	-0.370155
C292	C	0.869455	-0.244909	-0.971079
C293	C	1.202788	0.088425	-0.637746
C294	C	1.536122	0.421758	-0.304413
C295	C	0.909748	-0.216182	-0.938235
C296	C	1.243081	0.117151	-0.604901
C297	C	1.576415	0.450485	-0.271568
C298	C	0.909644	-0.216269	-0.139683
C299	C	1.242978	0.117065	0.193651
C300	C	1.576311	0.450398	0.526984
C301	C	0.909744	-0.216146	-0.069715
C302	C	1.243077	0.117187	0.263618
C303	C	1.576411	0.450520	0.596952
H304	H	0.550648	-0.268363	-0.230049
H305	H	0.883982	0.064970	0.103284
H306	H	1.217315	0.398303	0.436618
H307	H	0.669919	-0.268379	-0.230031
H308	H	1.003252	0.064954	0.103302
H309	H	1.336586	0.398288	0.436636
H310	H	0.550880	-0.164268	-0.376415
H311	H	0.884214	0.169065	-0.043082
H312	H	1.217547	0.502399	0.290251
F313	F	0.141839	-0.157038	-0.386528
F314	F	0.475172	0.176295	-0.053194
F315	F	0.808505	0.509628	0.280139
H316	H	0.982827	-0.164113	-0.662807
H317	H	1.316160	0.169221	-0.329474
H318	H	1.649494	0.502554	0.003860
F319	F	0.277543	-0.157061	-0.386526
F320	F	0.610876	0.176273	-0.053192
F321	F	0.944209	0.509606	0.280141
H322	H	0.149810	-0.268312	-0.230078
H323	H	0.483144	0.065021	0.103255
H324	H	0.816477	0.398354	0.436589
H325	H	0.836648	-0.268279	-1.063569
H326	H	1.169982	0.065054	-0.730236
H327	H	1.503315	0.398387	-0.396902
H328	H	0.982823	-1.044734	-0.376436
H329	H	1.316156	-0.711400	-0.043103
H330	H	1.649489	-0.378067	0.290230
F331	F	0.826762	-1.050787	-0.220142
F332	F	1.160095	-0.717453	0.113192
F333	F	1.493429	-0.384120	0.446525
H334	H	0.269078	-0.268329	-0.230068
H335	H	0.602411	0.065005	0.103265
H336	H	0.935745	0.398338	0.436598
H337	H	0.982831	-0.164146	-0.543543
H338	H	1.316164	0.169187	-0.210210
H339	H	1.649498	0.502521	0.123124
H340	H	0.836644	-0.268379	-0.662731
H341	H	1.169978	0.064954	-0.329397
H342	H	1.503311	0.398288	0.003936
F343	F	0.826553	-0.478400	-0.220015
F344	F	1.159887	-0.145066	0.113318
F345	F	1.493220	0.188267	0.446651
H346	H	0.836652	-0.268315	-0.944301
H347	H	1.169986	0.065019	-0.610968
H348	H	1.503319	0.398352	-0.277634
H349	H	0.982613	-0.472325	-0.376324
H350	H	1.315947	-0.138992	-0.042991
H351	H	1.649280	0.194341	0.290343
F352	F	0.678379	-0.157117	-0.386499
F353	F	1.011713	0.176217	-0.053166
F354	F	1.345046	0.509550	0.280167
H355	H	1.022928	-0.688094	-0.416664
H356	H	1.356262	-0.354760	-0.083331
H357	H	1.689595	-0.021427	0.250003
H358	H	0.982799	-0.959611	-0.376420
H359	H	1.316132	-0.626278	-0.043087
H360	H	1.649465	-0.292944	0.290247
F361	F	0.786335	-0.597414	-0.179777
F362	F	1.119669	-0.264080	0.153557
F363	F	1.453002	0.069253	0.486890
F364	F	0.826560	-0.275595	-0.535234
F365	F	1.159893	0.057738	-0.201901
F366	F	1.493227	0.391071	0.131433
H367	H	0.982592	-0.387216	-0.376287
H368	H	1.315925	-0.053883	-0.042954
H369	H	1.649258	0.279450	0.290380
H370	H	0.796494	-0.829130	-0.189894
H371	H	1.129828	-0.495797	0.143440
H372	H	1.463161	-0.162464	0.476773
F373	F	1.032960	-0.597112	-0.426718
F374	F	1.366293	-0.263778	-0.093384
F375	F	1.699627	0.069555	0.239949
F376	F	0.786398	-0.738173	-0.179802
F377	F	1.119731	-0.404840	0.153531
F378	F	1.453065	-0.071506	0.486865
H379	H	0.982838	-0.164045	-0.944381
H380	H	1.316171	0.169289	-0.611047
H381	H	1.649504	0.502622	-0.277714
H382	H	0.836779	-0.959800	-0.230206
H383	H	1.170113	-0.626467	0.103127
H384	H	1.503446	-0.293134	0.436460
H385	H	0.796431	-0.688375	-0.189864
H386	H	1.129764	-0.355042	0.143469
H387	H	1.463098	-0.021708	0.476803
F388	F	0.992916	-0.156832	-1.071870
F389	F	1.326250	0.176501	-0.738537
F390	F	1.659583	0.509835	-0.405204
F391	F	1.033035	-0.834707	-0.426768
F392	F	1.366369	-0.501373	-0.093435
F393	F	1.699702	-0.168040	0.239899
F394	F	0.826519	-0.381544	-0.220001
F395	F	1.159852	-0.048211	0.113333
F396	F	1.493185	0.285122	0.446666
F397	F	1.033008	-0.737858	-0.426751
F398	F	1.366342	-0.404525	-0.093418
F399	F	1.699675	-0.071191	0.239915
