data_functionalizedCrystal
_audit_creation_method	'MofGen! by Chris Wilmer'
_symmetry_space_group_name_H-M	'P1'
_symmetry_Int_Tables_number	1
_symmetry_cell_setting	triclinic
loop_
_symmetry_equiv_pos_as_xyz
  x,y,z
_cell_length_a	12.827893
_cell_length_b	14.908178
_cell_length_c	12.827885
_cell_angle_alpha	86.668630
_cell_angle_beta	89.980728
_cell_angle_gamma	93.314160
loop_
_atom_site_label
_atom_site_type_symbol
_atom_site_fract_x
_atom_site_fract_y
_atom_site_fract_z
Zn1	Zn	1.573645	-0.359141	-0.566802
Zn2	Zn	1.906979	-0.025808	-0.233469
Zn3	Zn	2.240312	0.307525	0.099864
Zn4	Zn	1.563445	-0.510038	-0.381959
Zn5	Zn	1.896779	-0.176705	-0.048626
Zn6	Zn	2.230112	0.156628	0.284707
Zn7	Zn	1.398884	-0.359186	-0.392073
Zn8	Zn	1.732217	-0.025852	-0.058740
Zn9	Zn	2.065550	0.307481	0.274594
Zn10	Zn	1.388782	-0.509972	-0.556664
Zn11	Zn	1.722116	-0.176638	-0.223331
Zn12	Zn	2.055449	0.156695	0.110003
O13	O	1.481189	-0.434584	-0.474375
O14	O	1.814522	-0.101251	-0.141041
O15	O	2.147856	0.232082	0.192292
O16	O	1.718528	-0.379167	-0.542293
O17	O	2.051861	-0.045834	-0.208960
O18	O	2.385194	0.287499	0.124374
O19	O	1.541575	-0.490074	-0.237062
O20	O	1.874908	-0.156740	0.096271
O21	O	2.208241	0.176593	0.429605
O22	O	1.430562	-0.232925	-0.423727
O23	O	1.763896	0.100409	-0.090394
O24	O	2.097229	0.433742	0.242940
O25	O	1.711034	-0.490031	-0.406490
O26	O	2.044367	-0.156697	-0.073156
O27	O	2.377700	0.176636	0.260177
O28	O	1.558959	-0.232892	-0.552100
O29	O	1.892292	0.100441	-0.218766
O30	O	2.225626	0.433775	0.114567
O31	O	1.420672	-0.379243	-0.244492
O32	O	1.754005	-0.045910	0.088841
O33	O	2.087338	0.287424	0.422174
O34	O	1.251308	-0.379178	-0.413896
O35	O	1.584642	-0.045845	-0.080563
O36	O	1.917975	0.287488	0.252771
O37	O	1.413346	-0.489917	-0.704248
O38	O	1.746679	-0.156584	-0.370915
O39	O	2.080013	0.176750	-0.037581
O40	O	1.243887	-0.489960	-0.534820
O41	O	1.577220	-0.156627	-0.201487
O42	O	1.910553	0.176706	0.131846
O43	O	1.549164	-0.379103	-0.711697
O44	O	1.882497	-0.045769	-0.378363
O45	O	2.215831	0.287564	-0.045030
O46	O	1.531780	-0.636285	-0.396659
O47	O	1.865113	-0.302951	-0.063325
O48	O	2.198446	0.030382	0.270008
O49	O	1.403455	-0.636236	-0.525013
O50	O	1.736789	-0.302902	-0.191680
O51	O	2.070122	0.030431	0.141653
C52	C	1.209680	-0.434568	-0.474356
C53	C	1.543014	-0.101234	-0.141023
C54	C	1.876347	0.232099	0.192311
C55	C	1.093526	-0.434582	-0.474371
C56	C	1.426860	-0.101249	-0.141038
C57	C	1.760193	0.232084	0.192295
C58	C	1.045443	-0.379821	-0.541664
C59	C	1.378776	-0.046487	-0.208330
C60	C	1.712110	0.286846	0.125003
C61	C	0.925392	-0.379835	-0.541681
C62	C	1.258725	-0.046501	-0.208348
C63	C	1.592058	0.286832	0.124986
C64	C	1.465443	-0.668997	-0.458661
C65	C	1.798776	-0.335663	-0.125328
C66	C	2.132110	-0.002330	0.208005
C67	C	1.458802	-0.769279	-0.451974
C68	C	1.792136	-0.435946	-0.118641
C69	C	2.125469	-0.102613	0.214693
C70	C	1.579922	-0.957537	-0.573226
C71	C	1.913255	-0.624204	-0.239892
C72	C	2.246588	-0.290870	0.093441
C73	C	1.573686	-1.051762	-0.566946
C74	C	1.907019	-0.718428	-0.233613
C75	C	2.240353	-0.385095	0.099721
C76	C	1.440090	-1.051955	-0.433140
C77	C	1.773423	-0.718621	-0.099807
C78	C	2.106757	-0.385288	0.233526
C79	C	1.446326	-0.957730	-0.439420
C80	C	1.779659	-0.624397	-0.106087
C81	C	2.112993	-0.291063	0.227246
C82	C	1.516245	-0.910525	-0.509464
C83	C	1.849579	-0.577191	-0.176131
C84	C	2.182912	-0.243858	0.157203
C85	C	1.522486	-0.816298	-0.515738
C86	C	1.855819	-0.482965	-0.182405
C87	C	2.189152	-0.149632	0.150929
C88	C	1.388885	-0.816493	-0.381938
C89	C	1.722219	-0.483160	-0.048605
C90	C	2.055552	-0.149826	0.284728
C91	C	1.382649	-0.910718	-0.375659
C92	C	1.715983	-0.577384	-0.042325
C93	C	2.049316	-0.244051	0.291008
C94	C	1.753758	-0.434602	-0.474394
C95	C	2.087091	-0.101268	-0.141061
C96	C	2.420425	0.232065	0.192272
C97	C	1.869911	-0.434609	-0.474402
C98	C	2.203244	-0.101276	-0.141069
C99	C	2.536577	0.232058	0.192264
C100	C	1.481266	-0.434498	-0.746951
C101	C	1.814599	-0.101164	-0.413618
C102	C	2.147933	0.232169	-0.080284
C103	C	1.481299	-0.434461	-0.863107
C104	C	1.814632	-0.101127	-0.529773
C105	C	2.147965	0.232206	-0.196440
C106	C	1.497025	-0.199256	-0.490172
C107	C	1.830359	0.134077	-0.156839
C108	C	2.163692	0.467410	0.176494
C109	C	1.503774	-0.098974	-0.496904
C110	C	1.837107	0.234360	-0.163571
C111	C	2.170440	0.567693	0.169762
C112	C	1.548513	-0.379615	-0.918578
C113	C	1.881847	-0.046282	-0.585245
C114	C	2.215180	0.287051	-0.251911
C115	C	1.548549	-0.379576	-1.038631
C116	C	1.881882	-0.046243	-0.705298
C117	C	2.215216	0.287091	-0.371964
C118	C	1.481177	-0.434605	-0.202863
C119	C	1.814510	-0.101272	0.130470
C120	C	2.147844	0.232061	0.463803
C121	C	1.481364	-0.434388	-0.086725
C122	C	1.814697	-0.101055	0.246608
C123	C	2.148030	0.232279	0.579941
H124	H	0.884027	-0.332954	-0.599295
H125	H	1.217360	0.000379	-0.265962
H126	H	1.550694	0.333712	0.067371
F127	F	1.031169	-0.495873	-0.399078
F128	F	1.364503	-0.162540	-0.065745
F129	F	1.697836	0.170794	0.267589
H130	H	1.606029	-0.332687	-0.877190
H131	H	1.939362	0.000647	-0.543857
H132	H	2.272695	0.333980	-0.210524
H133	H	1.325721	-0.949165	-0.318634
H134	H	1.659054	-0.615832	0.014700
H135	H	1.992387	-0.282498	0.348033
H136	H	1.606097	-0.332624	-1.086321
H137	H	1.939430	0.000709	-0.752987
H138	H	2.272764	0.334043	-0.419654
F139	F	1.406147	-0.495771	-1.024401
F140	F	1.739481	-0.162438	-0.691068
F141	F	2.072814	0.170895	-0.357734
H142	H	0.911268	-0.481500	-0.416794
H143	H	1.244601	-0.148166	-0.083460
H144	H	1.577935	0.185167	0.249873
F145	F	1.321118	-0.766452	-0.314068
F146	F	1.654451	-0.433119	0.019265
F147	F	1.987785	-0.099786	0.352599
F148	F	1.596902	-0.766060	-0.590281
F149	F	1.930235	-0.432727	-0.256947
F150	F	2.263569	-0.099394	0.076386
H151	H	1.636860	-0.919102	-0.630251
H152	H	1.970194	-0.585769	-0.296918
H153	H	2.303527	-0.252435	0.036416
F154	F	1.641457	-1.101793	-0.634812
F155	F	1.974790	-0.768459	-0.301479
F156	F	2.308124	-0.435126	0.031854
H157	H	1.423774	-0.481380	-0.904495
H158	H	1.757107	-0.148047	-0.571161
H159	H	2.090440	0.185286	-0.237828
F160	F	1.107800	-0.318523	-0.616949
F161	F	1.441134	0.014811	-0.283616
F162	F	1.774467	0.348144	0.049718
F163	F	1.365663	-1.102209	-0.358622
F164	F	1.698996	-0.768875	-0.025289
F165	F	2.032329	-0.435542	0.308045
