data_functionalizedCrystal
_audit_creation_method	'MofGen! by Chris Wilmer'
_symmetry_space_group_name_H-M	'P1'
_symmetry_Int_Tables_number	1
_symmetry_cell_setting	triclinic
loop_
_symmetry_equiv_pos_as_xyz
  x,y,z
_cell_length_a	8.597340
_cell_length_b	10.540514
_cell_length_c	7.088928
_cell_angle_alpha	83.741586
_cell_angle_beta	88.687738
_cell_angle_gamma	84.925014
loop_
_atom_site_label
_atom_site_type_symbol
_atom_site_fract_x
_atom_site_fract_y
_atom_site_fract_z
O1	O	2.066246	0.204104	-0.181400
O2	O	1.616931	0.212676	-0.107382
O3	O	1.851860	0.023871	-0.146081
O4	O	1.831318	0.392910	-0.142702
O5	O	1.820361	0.049074	-0.458867
O6	O	1.585432	0.237879	-0.420168
O7	O	2.034747	0.229307	-0.494187
Cu8	Cu	1.807213	0.235895	-0.485737
Cu9	Cu	1.844465	0.206089	-0.115831
O10	O	1.799818	0.418113	-0.455488
C11	C	1.543648	0.222953	-0.254297
C12	C	1.372214	0.216010	-0.226055
C13	C	1.834579	-0.010860	-0.302217
C14	C	1.829996	-0.151895	-0.301448
C15	C	1.998014	-0.219502	-0.329131
C16	C	1.993228	-0.366144	-0.329077
C17	C	1.720665	-0.331550	-0.464678
C18	C	1.726555	-0.184891	-0.465788
C19	C	1.759891	-0.213200	-0.109669
C20	C	1.758504	-0.360396	-0.107072
C21	C	2.108031	0.219031	-0.347267
C22	C	2.279465	0.225972	-0.375497
C23	C	1.817100	0.452843	-0.299348
C24	C	1.821684	0.593877	-0.300104
N25	N	1.870667	0.185116	0.144341
N26	N	1.781023	0.256858	-0.745911
H27	H	1.331211	0.239805	-0.525053
H28	H	1.829429	-0.191563	0.016275
H29	H	1.832491	-0.410900	0.014806
H30	H	1.963559	0.110750	0.210695
H31	H	1.634557	-0.387808	-0.075163
H32	H	2.071431	-0.417899	-0.212088
H33	H	1.320463	0.202167	-0.076489
H34	H	1.688127	0.331209	0.187745
H35	H	2.052377	-0.177668	-0.467752
H36	H	2.079037	-0.200025	-0.212526
H37	H	2.045340	-0.396318	-0.468331
H38	H	1.773752	-0.144768	-0.609544
H39	H	1.602368	-0.138548	-0.453058
H40	H	1.594002	-0.355695	-0.450040
H41	H	1.764247	-0.362326	-0.607235
H42	H	1.636124	-0.168381	-0.087547
