data_functionalizedCrystal
_audit_creation_method	'MofGen! by Chris Wilmer'
_symmetry_space_group_name_H-M	'P1'
_symmetry_Int_Tables_number	1
_symmetry_cell_setting	triclinic
loop_
_symmetry_equiv_pos_as_xyz
  x,y,z
_cell_length_a	19.121321
_cell_length_b	19.120786
_cell_length_c	12.759393
_cell_angle_alpha	92.477119
_cell_angle_beta	87.580725
_cell_angle_gamma	90.133760
loop_
_atom_site_label
_atom_site_type_symbol
_atom_site_fract_x
_atom_site_fract_y
_atom_site_fract_z
Zn1	Zn	1.059836	-0.324739	0.505616
Zn2	Zn	1.054741	-0.441999	0.322761
Zn3	Zn	0.942598	-0.319781	0.337750
Zn4	Zn	0.937570	-0.436953	0.506198
O5	O	0.998686	-0.380868	0.418081
O6	O	1.157261	-0.344480	0.474844
O7	O	1.039837	-0.425823	0.177727
O8	O	0.962386	-0.222328	0.366047
O9	O	1.153518	-0.430631	0.340501
O10	O	1.048520	-0.225971	0.489378
O11	O	0.957446	-0.336030	0.188740
O12	O	0.843829	-0.331138	0.366611
O13	O	0.953817	-0.422031	0.653142
O14	O	0.840135	-0.417223	0.490369
O15	O	1.043645	-0.339588	0.652715
O16	O	1.034962	-0.539440	0.341065
O17	O	0.948876	-0.535733	0.475835
C18	C	0.816546	-0.373095	0.430180
C19	C	0.738625	-0.369787	0.435380
C20	C	0.298019	-0.348774	0.468357
C21	C	0.371233	-0.351896	0.463464
C22	C	0.405886	-0.398237	0.390968
C23	C	0.367320	-0.441464	0.323368
C24	C	0.294106	-0.438345	0.328266
C25	C	0.626845	-0.409896	0.372678
C26	C	0.700064	-0.413009	0.367783
C27	C	0.703972	-0.323442	0.507881
C28	C	0.630758	-0.320325	0.512769
C29	C	0.592198	-0.363554	0.445172
C30	C	0.480723	-0.401427	0.385963
C31	C	0.517362	-0.360367	0.450183
C32	C	0.990840	-0.563026	0.406908
C33	C	0.987547	-0.640957	0.402159
C34	C	1.030812	-0.679403	0.464196
C35	C	1.027715	-0.752627	0.459736
C36	C	0.981357	-0.787403	0.393232
C37	C	0.938087	-0.748951	0.331192
C38	C	0.941180	-0.675729	0.335659
C39	C	0.969771	-1.008397	0.376536
C40	C	0.966682	-1.081625	0.372072
C41	C	1.056310	-1.085296	0.500617
C42	C	1.059403	-1.012072	0.505073
C43	C	1.016130	-0.973626	0.443038
C44	C	0.978192	-0.862250	0.388669
C45	C	1.019292	-0.898780	0.447607
C46	C	1.181538	-0.388671	0.405935
C47	C	1.259458	-0.391997	0.400759
C48	C	0.998738	-0.380799	0.692116
C49	C	0.998760	-0.380770	0.808893
C50	C	1.006582	-0.197999	0.429320
C51	C	1.009947	-0.120072	0.434109
C52	C	0.998677	-0.380887	0.145113
C53	C	0.998799	-0.380725	0.028340
C54	C	1.045540	-0.337838	0.863534
C55	C	1.045558	-0.337813	0.973259
C56	C	0.952014	-0.423659	0.973691
C57	C	0.951993	-0.423679	0.863969
C58	C	1.092308	-0.294929	0.808458
C59	C	1.139092	-0.251994	0.863099
C60	C	1.139110	-0.251969	0.972824
C61	C	1.092343	-0.294879	1.027907
H62	H	0.262711	-0.473543	0.273223
C63	C	1.075314	-0.794914	0.527976
C64	C	1.155439	-0.788174	0.514809
C65	C	1.203041	-0.830459	0.583053
C66	C	1.170517	-0.879484	0.664464
C67	C	1.090387	-0.886226	0.677634
C68	C	1.042786	-0.843941	0.609390
H69	H	1.179519	-0.751881	0.454541
H70	H	1.262358	-0.825468	0.573304
H71	H	1.205754	-0.910786	0.714983
H72	H	1.066307	-0.922519	0.737903
H73	H	0.983468	-0.848933	0.619140
C74	C	0.479248	-0.309392	0.529926
C75	C	0.492742	-0.230110	0.525762
C76	C	0.454621	-0.179132	0.605502
C77	C	0.403006	-0.207435	0.689405
C78	C	0.389510	-0.286720	0.693572
C79	C	0.427631	-0.337698	0.613833
H80	H	0.530952	-0.209156	0.463649
H81	H	0.464612	-0.120440	0.602416
H82	H	0.374787	-0.169697	0.748433
H83	H	0.351299	-0.307675	0.755685
H84	H	0.417639	-0.396391	0.616918
H85	H	0.395540	-0.479198	0.264344
C86	C	0.518845	-0.452396	0.306213
C87	C	0.570461	-0.424083	0.222320
C88	C	0.608587	-0.475053	0.142574
C89	C	0.595097	-0.554336	0.146720
C90	C	0.543479	-0.582653	0.230616
C91	C	0.505353	-0.531683	0.310363
H92	H	0.580450	-0.365390	0.219248
H93	H	0.646799	-0.454090	0.080468
H94	H	0.623320	-0.592067	0.087686
H95	H	0.533490	-0.641346	0.233688
H96	H	0.467142	-0.552645	0.372469
C97	C	1.081809	-0.641153	0.537353
C98	C	1.053529	-0.589504	0.624891
C99	C	1.104526	-0.551257	0.698052
C100	C	1.183801	-0.564659	0.683676
C101	C	1.212084	-0.616311	0.596135
C102	C	1.161088	-0.654558	0.522973
H103	H	0.994842	-0.579581	0.635536
H104	H	1.083588	-0.513021	0.762857
H105	H	1.221551	-0.536346	0.737835
H106	H	1.270772	-0.626234	0.585489
H107	H	1.182025	-0.692794	0.458169
C108	C	1.103901	-1.127588	0.568863
C109	C	1.156831	-1.180250	0.516687
C110	C	1.204421	-1.222541	0.584940
C111	C	1.199081	-1.212171	0.705369
C112	C	1.146148	-1.159506	0.757551
C113	C	1.098558	-1.117215	0.689298
H114	H	1.160786	-1.187929	0.427533
H115	H	1.243605	-1.261527	0.546311
H116	H	1.234310	-1.243477	0.755894
H117	H	1.142193	-1.151827	0.846705
H118	H	1.059375	-1.078229	0.727927
C119	C	0.592651	-0.269361	0.592544
C120	C	0.541049	-0.297681	0.676450
C121	C	0.502947	-0.246719	0.756234
C122	C	0.516446	-0.167437	0.752111
C123	C	0.568049	-0.139113	0.668202
C124	C	0.606152	-0.190075	0.588418
H125	H	0.531055	-0.356375	0.679505
H126	H	0.464746	-0.267687	0.818349
H127	H	0.488240	-0.129712	0.811172
H128	H	0.578044	-0.080419	0.665147
H129	H	0.644352	-0.169106	0.526303
H130	H	1.177199	-0.217004	1.017310
C131	C	0.900578	-0.470863	1.034279
C132	C	0.900603	-0.470844	1.154969
C133	C	0.849168	-0.518052	1.215555
C134	C	0.797710	-0.565278	1.155451
C135	C	0.797683	-0.565298	1.034755
C136	C	0.849118	-0.518091	0.974169
H137	H	0.938697	-0.435883	1.199467
H138	H	0.849188	-0.518036	1.304903
H139	H	0.759635	-0.600223	1.200301
H140	H	0.759589	-0.600259	0.990257
H141	H	0.849098	-0.518106	0.884821
H142	H	0.269810	-0.311034	0.527385
H143	H	1.092300	-0.294946	0.719115
C144	C	0.915688	-1.119885	0.298912
C145	C	0.921874	-1.110117	0.179710
C146	C	0.870887	-1.148380	0.106550
C147	C	0.813714	-1.196410	0.152591
C148	C	0.807525	-1.206180	0.271799
C149	C	0.858512	-1.167917	0.344959
H150	H	0.964199	-1.074560	0.145622
H151	H	0.875468	-1.141147	0.018305
H152	H	0.775970	-1.224734	0.098434
H153	H	0.765200	-1.241737	0.305887
H154	H	0.853931	-1.175150	0.433205
H155	H	0.913890	-0.458627	0.819480
H156	H	0.402626	-0.316702	0.518513
C157	C	0.922181	-0.966118	0.308278
C158	C	0.954718	-0.917094	0.226877
C159	C	0.907129	-0.874814	0.158608
C160	C	0.827002	-0.881558	0.171740
C161	C	0.794461	-0.930584	0.253145
C162	C	0.842050	-0.972864	0.321414
H163	H	1.014036	-0.912100	0.217152
H164	H	0.931218	-0.838521	0.098346
H165	H	0.791773	-0.850259	0.121204
H166	H	0.735142	-0.935578	0.262870
H167	H	0.817961	-1.009157	0.381675
C168	C	0.746389	-0.275894	0.582238
C169	C	0.826921	-0.279319	0.576857
C170	C	0.869337	-0.231770	0.651218
C171	C	0.831221	-0.180796	0.730960
C172	C	0.750684	-0.177369	0.736344
C173	C	0.708268	-0.224918	0.661983
H174	H	0.855141	-0.317055	0.517824
H175	H	0.928956	-0.234307	0.647232
H176	H	0.862620	-0.145597	0.786007
H177	H	0.722465	-0.139633	0.795377
H178	H	0.648650	-0.222381	0.665969
H179	H	0.728276	-0.450748	0.308746
H180	H	0.595459	-0.445095	0.317634
H181	H	1.097152	-0.983758	0.559226
H182	H	0.900337	-0.777272	0.277048
H183	H	0.905948	-0.644426	0.285143
H184	H	1.057035	-0.870463	0.501759
H185	H	1.177164	-0.217053	0.818244
H186	H	0.940448	-0.890573	0.334518
H187	H	1.092354	-0.294847	1.117253
