data_functionalizedCrystal
_audit_creation_method	'MofGen! by Chris Wilmer'
_symmetry_space_group_name_H-M	'P1'
_symmetry_Int_Tables_number	1
_symmetry_cell_setting	triclinic
loop_
_symmetry_equiv_pos_as_xyz
  x,y,z
_cell_length_a	12.759395
_cell_length_b	11.169416
_cell_length_c	11.169409
_cell_angle_alpha	89.969126
_cell_angle_beta	89.976895
_cell_angle_gamma	90.009694
loop_
_atom_site_label
_atom_site_type_symbol
_atom_site_fract_x
_atom_site_fract_y
_atom_site_fract_z
Zn1	Zn	-1.606303	0.477731	0.678660
Zn2	Zn	-1.606207	0.678471	0.477982
Zn3	Zn	-1.430601	0.477798	0.477983
Zn4	Zn	-1.430607	0.678368	0.678615
O5	O	-1.518429	0.578092	0.578310
O6	O	-1.753312	0.504374	0.652058
O7	O	-1.582869	0.651923	0.310032
O8	O	-1.453946	0.309840	0.504622
O9	O	-1.753240	0.651857	0.504621
O10	O	-1.583034	0.309790	0.652059
O11	O	-1.453852	0.504490	0.310033
O12	O	-1.283581	0.504390	0.504579
O13	O	-1.453957	0.651682	0.846571
O14	O	-1.283585	0.651747	0.651983
O15	O	-1.583040	0.504274	0.846604
O16	O	-1.582875	0.846407	0.504577
O17	O	-1.453863	0.846331	0.651982
C18	C	-1.245462	0.578066	0.578277
C19	C	-1.128685	0.578083	0.578291
C20	C	-0.909305	0.731797	0.731574
C21	C	-0.964199	0.808633	0.808192
C22	C	-1.073921	0.808621	0.808179
C23	C	-1.128751	0.731767	0.731538
C24	C	-1.073857	0.654931	0.654921
C25	C	-0.964133	0.654949	0.654944
C26	C	-1.073792	0.501247	0.501673
C27	C	-0.964070	0.501251	0.501690
C28	C	-1.128622	0.424393	0.425033
C29	C	-1.073728	0.347549	0.348419
C30	C	-0.964000	0.347563	0.348436
C31	C	-0.909176	0.424415	0.425072
C32	C	-0.792463	0.578113	0.578337
C33	C	-0.909240	0.578105	0.578331
C34	C	-1.518388	0.889917	0.578301
C35	C	-1.518466	1.023317	0.578337
C36	C	-1.518510	0.577959	0.891353
C37	C	-1.518545	0.577902	1.024753
C38	C	-1.518500	0.265050	0.578346
C39	C	-1.518530	0.131650	0.578361
C40	C	-1.518410	0.578138	0.266485
C41	C	-1.518579	0.577857	0.133086
H42	H	-1.118615	0.871190	0.870565
O43	O	-1.126944	0.273036	0.273803
C44	C	-1.100050	0.299109	0.154148
H45	H	-1.069865	0.394980	0.147933
H46	H	-1.172181	0.288708	0.094859
H47	H	-1.036358	0.234723	0.122894
H48	H	-1.217963	0.424395	0.425023
H49	H	-1.218092	0.731775	0.731525
H50	H	-0.819835	0.424428	0.425099
O51	O	-0.910517	0.273044	0.274037
C52	C	-0.801915	0.289508	0.290498
H53	H	-0.786940	0.382170	0.329664
H54	H	-0.760179	0.281284	0.200615
H55	H	-0.770809	0.218386	0.354521
O56	O	-0.802723	0.731960	0.731739
C57	C	-0.766099	0.816221	0.815851
H58	H	-0.829312	0.886387	0.832501
H59	H	-0.692642	0.861694	0.779610
H60	H	-0.746729	0.768722	0.903456
H61	H	-0.919544	0.871208	0.870588
