data_functionalizedCrystal
_audit_creation_method	'MofGen! by Chris Wilmer'
_symmetry_space_group_name_H-M	'P1'
_symmetry_Int_Tables_number	1
_symmetry_cell_setting	triclinic
loop_
_symmetry_equiv_pos_as_xyz
  x,y,z
_cell_length_a	14.395555
_cell_length_b	16.704494
_cell_length_c	16.704494
_cell_angle_alpha	89.699037
_cell_angle_beta	56.633997
_cell_angle_gamma	56.630939
loop_
_atom_site_label
_atom_site_type_symbol
_atom_site_fract_x
_atom_site_fract_y
_atom_site_fract_z
Zr1	Zr	0.928087	-0.067015	0.811587
O2	O	1.155924	-0.209890	0.668721
O3	O	0.723855	-0.023215	0.855379
O4	O	0.939890	-0.200277	0.845775
O5	O	0.922347	0.106841	0.685905
O6	O	0.922347	-0.192697	0.985443
O7	O	0.939890	-0.032827	0.678325
O8	O	0.535901	0.124036	1.002622
O9	O	1.308794	-0.209891	0.668725
O10	O	0.786024	0.001121	0.978293
O11	O	0.786024	0.099696	0.879717
O12	O	1.040377	-0.108772	0.868410
O13	O	1.040377	-0.010196	0.769834
Zr14	Zr	0.872130	0.167829	1.046429
Zr15	Zr	0.900108	-0.054925	1.034340
Zr16	Zr	0.900108	0.155740	0.823676
Zr17	Zr	1.171895	-0.067018	0.811593
Zr18	Zr	0.628321	0.167832	1.046423
O19	O	1.076361	0.124029	1.002637
O20	O	1.116143	-0.192700	0.985448
O21	O	1.116143	0.106839	0.685910
O22	O	0.644292	0.310704	1.189295
O23	O	0.684074	-0.006025	1.172106
O24	O	0.684074	0.293514	0.872568
O25	O	0.877869	-0.006027	1.172111
O26	O	0.860327	0.301092	1.012241
O27	O	0.877869	0.293511	0.872573
O28	O	0.860327	0.133641	1.179691
O29	O	1.286555	-0.200282	0.845785
O30	O	0.513662	0.301096	1.012231
O31	O	0.491423	0.310706	1.189291
O32	O	0.513662	0.133645	1.179682
O33	O	1.286555	-0.032831	0.678334
O34	O	1.264316	-0.023221	0.855394
O35	O	0.759840	0.209586	0.989606
O36	O	0.759840	0.111011	1.088182
O37	O	1.014193	0.001118	0.978299
O38	O	1.014193	0.099694	0.879723
C39	C	0.595141	0.050411	0.929000
C40	C	0.491638	0.050412	0.928997
C41	C	0.935105	0.035285	0.650377
C42	C	0.946982	0.030152	0.555812
C43	C	0.865112	0.329039	0.944129
C44	C	0.853234	0.423605	0.949261
C45	C	0.431044	0.104163	0.875253
C46	C	0.462785	0.003915	0.828746
C47	C	0.275508	0.150629	0.975477
C48	C	0.524818	-0.049897	0.882430
C49	C	0.337463	0.096891	1.029220
C50	C	0.369255	-0.003415	0.982734
C51	C	1.205076	0.050403	0.929016
C52	C	1.308579	0.050402	0.929019
C53	C	0.935105	-0.228225	0.913887
C54	C	0.946983	-0.322790	0.908755
C55	C	1.096485	0.486565	0.844161
C56	C	1.085332	0.575414	0.848980
C57	C	0.819777	0.690154	0.963711
C58	C	0.830930	0.601304	0.958893
C59	C	0.969289	0.499511	0.899117
C60	C	0.980440	0.410661	0.894304
C61	C	0.714887	0.525400	1.009029
C62	C	0.703734	0.614250	1.013848
C63	C	0.703732	0.135261	0.492843
C64	C	0.714885	0.130442	0.403993
C65	C	0.980440	0.015700	0.289265
C66	C	0.969287	0.020520	0.378114
C67	C	0.830928	0.080301	0.479902
C68	C	0.819777	0.085114	0.568751
C69	C	1.085330	-0.029621	0.454022
C70	C	1.096483	-0.034440	0.365173
C71	C	0.865112	0.065530	1.207639
C72	C	0.853234	0.070662	1.302204
C73	C	0.560144	0.065533	1.207631
C74	C	0.444763	0.070667	1.302193
C75	C	0.560144	0.329043	0.944121
C76	C	0.444763	0.423610	0.949250
C77	C	0.525148	0.344166	1.222752
C78	C	0.397889	0.443864	1.322446
C79	C	1.275069	-0.243351	0.635264
C80	C	1.402327	-0.343050	0.535570
C81	C	1.240073	0.035281	0.650385
C82	C	1.355453	0.030147	0.555823
C83	C	1.240073	-0.228229	0.913895
C84	C	1.355453	-0.322795	0.908765
C85	C	0.404248	0.015707	1.289239
C86	C	0.295853	0.020509	1.378080
C87	C	0.227967	0.080278	1.479875
C88	C	0.268492	0.135240	1.492827
C89	C	0.376893	0.130431	1.403986
C90	C	0.376911	0.525390	1.009021
C91	C	0.268511	0.614253	1.013837
C92	C	0.227959	0.601335	0.958888
C93	C	0.295824	0.499544	0.899110
C94	C	0.404228	0.410682	0.894289
C95	C	0.338126	0.439229	1.420728
C96	C	0.218567	0.532899	1.514409
C97	C	0.158767	0.631203	1.509806
C98	C	0.218541	0.635835	1.411513
C99	C	0.338104	0.542167	1.317835
C100	C	1.462102	-0.338415	0.437288
C101	C	1.581692	-0.432085	0.343607
C102	C	1.641497	-0.530388	0.348210
C103	C	1.581717	-0.535021	0.446503
C104	C	1.462136	-0.441353	0.540181
C105	C	1.395980	0.085098	0.568777
C106	C	1.504405	0.080271	0.479934
C107	C	1.572295	0.020499	0.378139
C108	C	1.531765	-0.034458	0.365187
C109	C	1.423349	-0.029637	0.454029
C110	C	1.395969	-0.309843	0.963727
C111	C	1.504365	-0.398688	0.958928
C112	C	1.572251	-0.500486	0.899161
C113	C	1.531726	-0.513437	0.844199
C114	C	1.423324	-0.424592	0.849004
H115	H	0.458287	0.149544	0.829734
H116	H	1.738867	-0.606651	0.271922
H117	H	1.209141	0.403682	0.795497
H118	H	0.459462	0.327811	0.845621
H119	H	1.390350	-0.435153	0.804243
N120	N	0.577696	0.189723	0.417949
H121	H	0.488360	0.228323	0.495913
H122	H	0.583105	0.137896	0.380747
H123	H	0.169833	0.715887	1.407781
H124	H	0.262790	0.489041	0.854373
H125	H	0.514751	-0.035405	0.743997
N126	N	0.402621	0.333212	1.425713
H127	H	0.487437	0.274565	1.351460
H128	H	0.324448	0.327113	1.464564
H129	H	0.285515	0.136234	1.113951
N130	N	1.397632	-0.232401	0.432294
H131	H	1.405288	-0.191240	0.468873
H132	H	1.290781	-0.191322	0.468832
H133	H	0.342321	-0.048942	1.028178
H134	H	0.707134	0.773045	1.012371
H135	H	1.630345	-0.428292	0.263582
N136	N	1.646228	-0.641052	0.451459
H137	H	1.731045	-0.699679	0.377196
H138	H	1.568063	-0.647159	0.490288
H139	H	0.213267	0.697128	1.062517
H140	H	1.587056	-0.083124	0.282294
N141	N	0.154088	0.527884	1.620413
H142	H	0.069270	0.602134	1.679067
H143	H	0.232265	0.489021	1.626510
N144	N	0.577689	0.539362	1.068318
H145	H	0.511153	0.582740	1.146557
H146	H	0.605879	0.467590	1.056115
N147	N	1.322759	-0.200059	1.028208
H148	H	1.213325	-0.157801	1.085086
H149	H	1.341124	-0.163554	0.980376
N150	N	0.195243	0.199710	1.602628
H151	H	0.144271	0.276280	1.615090
H152	H	0.272031	0.171552	1.609361
H153	H	0.061410	0.707466	1.586094
N154	N	0.420580	0.189717	1.417966
H155	H	0.361117	0.228308	1.495936
H156	H	0.401102	0.242553	1.386451
H157	H	1.188903	-0.074377	0.443490
H158	H	1.660572	0.016582	0.305808
N159	N	0.554510	0.724040	1.078328
H160	H	0.550517	0.760633	1.030569
H161	H	0.537504	0.766203	1.135199
H162	H	0.631181	-0.134697	0.843031
H163	H	0.707117	0.133797	0.651629
H164	H	0.139687	0.673701	0.962823
N165	N	1.322770	0.149569	0.678563
H166	H	1.364915	0.183638	0.673272
H167	H	1.341040	0.101736	0.715085
H168	H	0.169120	0.235385	1.014777
N169	N	0.252160	-0.038774	1.364097
H170	H	0.311609	-0.077356	1.286128
H171	H	0.143926	0.013050	1.401302
N172	N	0.554516	0.199721	0.602629
H173	H	0.475627	0.233803	0.597345
H174	H	0.537527	0.256549	0.644835
H175	H	0.386749	0.545956	1.237813
H176	H	1.413470	-0.445139	0.620204
H177	H	1.537385	0.125029	0.490501
N178	N	1.548057	-0.384707	1.018215
H179	H	1.488607	-0.306736	1.056795
H180	H	1.656290	-0.421916	0.966396
N181	N	1.379643	-0.088908	0.440049
H182	H	1.439107	-0.127500	0.362080
H183	H	1.271415	-0.037079	0.477242
N184	N	0.477453	-0.048763	1.179454
H185	H	0.459184	-0.000992	1.142874
H186	H	0.435288	-0.082838	1.184836
N187	N	1.689155	-0.596307	0.893995
H188	H	1.704510	-0.572645	0.937886
H189	H	1.784423	-0.643045	0.817966
N190	N	1.129658	0.300871	0.829852
H191	H	1.208543	0.306156	0.795771
H192	H	1.146650	0.258659	0.773026
N193	N	1.129655	-0.048753	0.179479
H194	H	1.117412	-0.043457	0.125161
H195	H	1.192271	-0.125295	0.167104
N196	N	1.222520	0.561454	0.789707
H197	H	1.311856	0.483486	0.751111
H198	H	1.217108	0.598657	0.841536
N199	N	1.245704	-0.098907	0.255389
H200	H	1.233471	-0.093619	0.201066
H201	H	1.308304	-0.175445	0.243029
H202	H	1.587015	-0.596332	0.795537
N203	N	0.111052	0.085459	1.575691
H204	H	0.095693	0.041570	1.552029
H205	H	0.015790	0.161494	1.622419
H206	H	0.409914	0.535929	1.053768
