data_functionalizedCrystal
_audit_creation_method	'MofGen! by Chris Wilmer'
_symmetry_space_group_name_H-M	'P1'
_symmetry_Int_Tables_number	1
_symmetry_cell_setting	triclinic
loop_
_symmetry_equiv_pos_as_xyz
  x,y,z
_cell_length_a	18.050590
_cell_length_b	18.050589
_cell_length_c	18.050583
_cell_angle_alpha	90.031910
_cell_angle_beta	89.997484
_cell_angle_gamma	90.015041
loop_
_atom_site_label
_atom_site_type_symbol
_atom_site_fract_x
_atom_site_fract_y
_atom_site_fract_z
Zn1	Zn	-1.135301	0.295868	-0.419568
Zn2	Zn	-0.885301	0.545868	-0.169568
Zn3	Zn	-0.635301	0.795868	0.080432
Zn4	Zn	-0.385301	1.045868	0.330432
Zn5	Zn	-1.135209	0.420081	-0.295387
Zn6	Zn	-0.885209	0.670081	-0.045387
Zn7	Zn	-0.635209	0.920081	0.204613
Zn8	Zn	-0.385209	1.170081	0.454613
Zn9	Zn	-1.011117	0.295880	-0.295432
Zn10	Zn	-0.761117	0.545880	-0.045432
Zn11	Zn	-0.511117	0.795880	0.204568
Zn12	Zn	-0.261117	1.045880	0.454568
Zn13	Zn	-1.011068	0.419992	-0.419576
Zn14	Zn	-0.761068	0.669992	-0.169576
Zn15	Zn	-0.511068	0.919992	0.080424
Zn16	Zn	-0.261068	1.169992	0.330424
O17	O	-1.073174	0.357955	-0.357491
O18	O	-0.823174	0.607955	-0.107491
O19	O	-0.573174	0.857955	0.142509
O20	O	-0.323174	1.107955	0.392509
O21	O	-1.239213	0.312377	-0.403073
O22	O	-0.989213	0.562377	-0.153073
O23	O	-0.739213	0.812377	0.096927
O24	O	-0.489213	1.062377	0.346927
O25	O	-1.118730	0.403648	-0.191468
O26	O	-0.868730	0.653648	0.058532
O27	O	-0.618730	0.903648	0.308532
O28	O	-0.368730	1.153648	0.558532
O29	O	-1.027650	0.191954	-0.311914
O30	O	-0.777650	0.441954	-0.061914
O31	O	-0.527650	0.691954	0.188086
O32	O	-0.277650	0.941954	0.438086
O33	O	-1.239146	0.403635	-0.311838
O34	O	-0.989146	0.653635	-0.061838
O35	O	-0.739146	0.903635	0.188162
O36	O	-0.489146	1.153635	0.438162
O37	O	-1.118886	0.191945	-0.403116
O38	O	-0.868886	0.441945	-0.153116
O39	O	-0.618886	0.691945	0.096884
O40	O	-0.368886	0.941945	0.346884
O41	O	-1.027561	0.312398	-0.191501
O42	O	-0.777561	0.562398	0.058499
O43	O	-0.527561	0.812398	0.308499
O44	O	-0.277561	1.062398	0.558499
O45	O	-0.907186	0.312312	-0.311922
O46	O	-0.657186	0.562312	-0.061922
O47	O	-0.407186	0.812312	0.188078
O48	O	-0.157186	1.062312	0.438078
O49	O	-1.027565	0.403484	-0.523499
O50	O	-0.777565	0.653484	-0.273499
O51	O	-0.527565	0.903484	-0.023499
O52	O	-0.277565	1.153484	0.226501
O53	O	-0.907150	0.403496	-0.403130
O54	O	-0.657150	0.653496	-0.153130
O55	O	-0.407150	0.903496	0.096870
O56	O	-0.157150	1.153496	0.346870
O57	O	-1.118838	0.312290	-0.523493
O58	O	-0.868838	0.562290	-0.273493
O59	O	-0.618838	0.812290	-0.023493
O60	O	-0.368838	1.062290	0.226507
O61	O	-1.118682	0.523993	-0.311846
O62	O	-0.868682	0.773993	-0.061846
O63	O	-0.618682	1.023993	0.188154
O64	O	-0.368682	1.273993	0.438154
O65	O	-1.027476	0.523928	-0.403087
O66	O	-0.777476	0.773928	-0.153087
O67	O	-0.527476	1.023928	0.096913
O68	O	-0.277476	1.273928	0.346913
C69	C	-0.880221	0.357896	-0.357532
C70	C	-0.630221	0.607896	-0.107532
C71	C	-0.380221	0.857896	0.142468
C72	C	-0.130221	1.107896	0.392468
C73	C	-0.797676	0.357889	-0.357568
C74	C	-0.547676	0.607889	-0.107568
C75	C	-0.297676	0.857889	0.142432
C76	C	-0.047676	1.107889	0.392432
C77	C	-0.598227	0.407609	-0.407059
C78	C	-0.348227	0.657609	-0.157059
C79	C	-0.098227	0.907609	0.092941
C80	C	0.151773	1.157609	0.342941
C81	C	-0.548834	0.339888	-0.425331
C82	C	-0.298834	0.589888	-0.175331
C83	C	-0.048834	0.839888	0.074669
C84	C	0.201166	1.089888	0.324669
C85	C	-0.646545	0.357924	-0.357539
C86	C	-0.396545	0.607924	-0.107539
C87	C	-0.146545	0.857924	0.142461
C88	C	0.103455	1.107924	0.392461
C89	C	-0.548856	0.425679	-0.339273
C90	C	-0.298856	0.675679	-0.089273
C91	C	-0.048856	0.925679	0.160727
C92	C	0.201144	1.175679	0.410727
C93	C	-0.500560	0.357965	-0.357513
C94	C	-0.250560	0.607965	-0.107513
C95	C	-0.000560	0.857965	0.142487
C96	C	0.249440	1.107965	0.392487
C97	C	-0.598240	0.290167	-0.375847
C98	C	-0.348240	0.540167	-0.125847
C99	C	-0.098240	0.790167	0.124153
C100	C	0.151760	1.040167	0.374153
C101	C	-0.598267	0.376004	-0.289757
C102	C	-0.348267	0.626004	-0.039757
C103	C	-0.098267	0.876004	0.210243
C104	C	0.151733	1.126004	0.460243
C105	C	-0.548896	0.308236	-0.308004
C106	C	-0.298896	0.558236	-0.058004
C107	C	-0.048896	0.808236	0.191996
C108	C	0.201104	1.058236	0.441996
C109	C	-0.730644	0.357902	-0.357556
C110	C	-0.480644	0.607902	-0.107556
C111	C	-0.230644	0.857902	0.142444
C112	C	0.019356	1.107902	0.392444
C113	C	-0.416464	0.357979	-0.357495
C114	C	-0.166464	0.607979	-0.107495
C115	C	0.083536	0.857979	0.142505
C116	C	0.333536	1.107979	0.392505
C117	C	-1.073084	0.550907	-0.357478
C118	C	-0.823084	0.800907	-0.107478
C119	C	-0.573084	1.050907	0.142522
C120	C	-0.323084	1.300907	0.392522
C121	C	-1.073114	0.633453	-0.357498
C122	C	-0.823114	0.883453	-0.107498
C123	C	-0.573114	1.133453	0.142502
C124	C	-0.323114	1.383453	0.392502
C125	C	-1.073206	0.357876	-0.551196
C126	C	-0.823206	0.607876	-0.301196
C127	C	-0.573206	0.857876	-0.051196
C128	C	-0.323206	1.107876	0.198804
C129	C	-1.073220	0.357842	-0.633742
C130	C	-0.823220	0.607842	-0.383742
C131	C	-0.573220	0.857842	-0.133742
C132	C	-0.323220	1.107842	0.116258
C133	C	-0.266879	0.358004	-0.357462
C134	C	-0.016879	0.608004	-0.107462
C135	C	0.233121	0.858004	0.142538
C136	C	0.483121	1.108004	0.392538
C137	C	-0.349425	0.357999	-0.357481
C138	C	-0.099425	0.607999	-0.107481
C139	C	0.150575	0.857999	0.142519
C140	C	0.400575	1.107999	0.392519
C141	C	-1.073284	0.164249	-0.357519
C142	C	-0.823284	0.414249	-0.107519
C143	C	-0.573284	0.664249	0.142481
C144	C	-0.323284	0.914249	0.392481
C145	C	-1.073331	0.081704	-0.357531
C146	C	-0.823331	0.331704	-0.107531
C147	C	-0.573331	0.581704	0.142469
C148	C	-0.323331	0.831704	0.392469
C149	C	-1.023565	0.832895	-0.407097
C150	C	-0.773565	1.082895	-0.157097
C151	C	-0.523565	1.332895	0.092903
C152	C	-0.273565	1.582895	0.342903
C153	C	-1.005465	0.882341	-0.339336
C154	C	-0.755465	1.132341	-0.089336
C155	C	-0.505465	1.382341	0.160664
C156	C	-0.255465	1.632341	0.410664
C157	C	-1.073186	0.784583	-0.357508
C158	C	-0.823186	1.034583	-0.107508
C159	C	-0.573186	1.284583	0.142492
C160	C	-0.323186	1.534583	0.392492
C161	C	-1.091322	0.882219	-0.425277
C162	C	-0.841322	1.132219	-0.175277
C163	C	-0.591322	1.382219	0.074723
C164	C	-0.341322	1.632219	0.324723
C165	C	-1.073256	0.930568	-0.357523
C166	C	-0.823256	1.180568	-0.107523
C167	C	-0.573256	1.430568	0.142477
C168	C	-0.323256	1.680568	0.392477
C169	C	-1.055052	0.832942	-0.289710
C170	C	-0.805052	1.082942	-0.039710
C171	C	-0.555052	1.332942	0.210290
C172	C	-0.305052	1.582942	0.460290
C173	C	-1.140940	0.832816	-0.375697
C174	C	-0.890940	1.082816	-0.125697
C175	C	-0.640940	1.332816	0.124303
C176	C	-0.390940	1.582816	0.374303
C177	C	-1.122867	0.882239	-0.307889
C178	C	-0.872867	1.132239	-0.057889
C179	C	-0.622867	1.382239	0.192111
C180	C	-0.372867	1.632239	0.442111
C181	C	-1.073145	0.700485	-0.357500
C182	C	-0.823145	0.950485	-0.107500
C183	C	-0.573145	1.200485	0.142500
C184	C	-0.323145	1.450485	0.392500
C185	C	-1.073297	1.014665	-0.357523
C186	C	-0.823297	1.264665	-0.107523
C187	C	-0.573297	1.514665	0.142477
C188	C	-0.323297	1.764665	0.392477
C189	C	-1.122904	0.308227	-0.833190
C190	C	-0.872904	0.558227	-0.583190
C191	C	-0.622904	0.808227	-0.333190
C192	C	-0.372904	1.058227	-0.083190
C193	C	-1.055171	0.290035	-0.882605
C194	C	-0.805171	0.540035	-0.632605
C195	C	-0.555171	0.790035	-0.382605
C196	C	-0.305171	1.040035	-0.132605
C197	C	-1.073250	0.357829	-0.784873
C198	C	-0.823250	0.607829	-0.534873
C199	C	-0.573250	0.857829	-0.284873
C200	C	-0.323250	1.107829	-0.034873
C201	C	-1.141011	0.375974	-0.882539
C202	C	-0.891011	0.625974	-0.632539
C203	C	-0.641011	0.875974	-0.382539
C204	C	-0.391011	1.125974	-0.132539
C205	C	-1.073285	0.357815	-0.930858
C206	C	-0.823285	0.607815	-0.680858
C207	C	-0.573285	0.857815	-0.430858
C208	C	-0.323285	1.107815	-0.180858
C209	C	-1.005481	0.339602	-0.833201
C210	C	-0.755481	0.589602	-0.583201
C211	C	-0.505481	0.839602	-0.333201
C212	C	-0.255481	1.089602	-0.083201
C213	C	-1.091366	0.425573	-0.833130
C214	C	-0.841366	0.675573	-0.583130
C215	C	-0.591366	0.925573	-0.333130
C216	C	-0.341366	1.175573	-0.083130
C217	C	-1.023586	0.407407	-0.882523
C218	C	-0.773586	0.657407	-0.632523
C219	C	-0.523586	0.907407	-0.382523
C220	C	-0.273586	1.157407	-0.132523
C221	C	-1.073231	0.357835	-0.700774
C222	C	-0.823231	0.607835	-0.450774
C223	C	-0.573231	0.857835	-0.200774
C224	C	-0.323231	1.107835	0.049226
C225	C	-1.073296	0.357810	-1.014954
C226	C	-0.823296	0.607810	-0.764954
C227	C	-0.573296	0.857810	-0.514954
C228	C	-0.323296	1.107810	-0.264954
C229	C	-1.073184	0.357980	-0.164539
C230	C	-0.823184	0.607980	0.085461
C231	C	-0.573184	0.857980	0.335461
C232	C	-0.323184	1.107980	0.585461
C233	C	-1.073314	0.357805	-0.081993
C234	C	-0.823314	0.607805	0.168007
C235	C	-0.573314	0.857805	0.418007
C236	C	-0.323314	1.107805	0.668007
H237	H	-0.527372	0.266188	-0.266116
H238	H	-0.277372	0.516188	-0.016116
H239	H	-0.027372	0.766188	0.233884
H240	H	0.222628	1.016188	0.483884
H241	H	-0.619889	0.449554	-0.448980
H242	H	-0.369889	0.699554	-0.198980
H243	H	-0.119889	0.949554	0.051020
H244	H	0.130111	1.199554	0.301020
Br245	Br	-1.029424	0.797020	-0.194168
Br246	Br	-0.779424	1.047020	0.055832
Br247	Br	-0.529424	1.297020	0.305832
Br248	Br	-0.279424	1.547020	0.555832
H249	H	-0.527121	0.324608	-0.482642
H250	H	-0.277121	0.574608	-0.232642
H251	H	-0.027121	0.824608	0.017358
H252	H	0.222879	1.074608	0.267358
Br253	Br	-1.192862	0.918124	-0.237927
Br254	Br	-0.942862	1.168124	0.012073
Br255	Br	-0.692862	1.418124	0.262073
Br256	Br	-0.442862	1.668124	0.512073
Br257	Br	-0.953525	0.796781	-0.476898
Br258	Br	-0.703525	1.046781	-0.226898
Br259	Br	-0.453525	1.296781	0.023102
Br260	Br	-0.203525	1.546781	0.273102
H261	H	-1.198192	0.811047	-0.391100
H262	H	-0.948192	1.061047	-0.141100
H263	H	-0.698192	1.311047	0.108900
H264	H	-0.448192	1.561047	0.358900
H265	H	-0.981562	0.449348	-0.904048
H266	H	-0.731562	0.699348	-0.654048
H267	H	-0.481562	0.949348	-0.404048
H268	H	-0.231562	1.199348	-0.154048
H269	H	-0.619841	0.232868	-0.391350
H270	H	-0.369841	0.482868	-0.141350
H271	H	-0.119841	0.732868	0.108650
H272	H	0.130159	0.982868	0.358650
H273	H	-1.198301	0.391325	-0.904215
H274	H	-0.948301	0.641325	-0.654215
H275	H	-0.698301	0.891325	-0.404215
H276	H	-0.448301	1.141325	-0.154215
Br277	Br	-0.634456	0.401488	-0.194246
Br278	Br	-0.384456	0.651488	0.055754
Br279	Br	-0.134456	0.901488	0.305754
Br280	Br	0.115544	1.151488	0.555754
H281	H	-1.106634	0.903865	-0.482582
H282	H	-0.856634	1.153865	-0.232582
H283	H	-0.606634	1.403865	0.017418
H284	H	-0.356634	1.653865	0.267418
H285	H	-0.527161	0.482960	-0.323837
H286	H	-0.277161	0.732960	-0.073837
H287	H	-0.027161	0.982960	0.176163
H288	H	0.222839	1.232960	0.426163
H289	H	-0.948201	0.904112	-0.323965
H290	H	-0.698201	1.154112	-0.073965
H291	H	-0.448201	1.404112	0.176035
H292	H	-0.198201	1.654112	0.426035
H293	H	-1.164827	0.266254	-0.811526
H294	H	-0.914827	0.516254	-0.561526
H295	H	-0.664827	0.766254	-0.311526
H296	H	-0.414827	1.016254	-0.061526
H297	H	-0.948174	0.324183	-0.811619
H298	H	-0.698174	0.574183	-0.561619
H299	H	-0.448174	0.824183	-0.311619
H300	H	-0.198174	1.074183	-0.061619
Br301	Br	-1.029647	0.194542	-0.918829
Br302	Br	-0.779647	0.444542	-0.668829
Br303	Br	-0.529647	0.694542	-0.418829
Br304	Br	-0.279647	0.944542	-0.168829
H305	H	-1.106699	0.482852	-0.811384
H306	H	-0.856699	0.732852	-0.561384
H307	H	-0.606699	0.982852	-0.311384
H308	H	-0.356699	1.232852	-0.061384
