data_functionalizedCrystal
_audit_creation_method	'MofGen! by Chris Wilmer'
_symmetry_space_group_name_H-M	'P1'
_symmetry_Int_Tables_number	1
_symmetry_cell_setting	triclinic
loop_
_symmetry_equiv_pos_as_xyz
  x,y,z
_cell_length_a	13.897441
_cell_length_b	11.169417
_cell_length_c	13.897448
_cell_angle_alpha	89.981429
_cell_angle_beta	89.969401
_cell_angle_gamma	90.018542
loop_
_atom_site_label
_atom_site_type_symbol
_atom_site_fract_x
_atom_site_fract_y
_atom_site_fract_z
Zn1	Zn	-0.545325	-1.834886	-0.383962
Zn2	Zn	-0.384026	-1.834754	-0.545283
Zn3	Zn	-0.384049	-1.634176	-0.384006
Zn4	Zn	-0.545285	-1.634153	-0.545219
O5	O	-0.464671	-1.734492	-0.464617
O6	O	-0.523935	-2.002818	-0.405369
O7	O	-0.249048	-1.808101	-0.523935
O8	O	-0.405469	-1.660865	-0.249019
O9	O	-0.405430	-2.002721	-0.523892
O10	O	-0.523958	-1.808326	-0.248986
O11	O	-0.249065	-1.660738	-0.405446
O12	O	-0.405431	-1.466223	-0.405383
O13	O	-0.680272	-1.660827	-0.523782
O14	O	-0.523890	-1.466207	-0.523825
O15	O	-0.680301	-1.808304	-0.405307
O16	O	-0.405391	-1.808079	-0.680256
O17	O	-0.523867	-1.660699	-0.680209
C18	C	-0.464659	-1.422668	-0.464603
C19	C	-0.464676	-1.289268	-0.464620
C20	C	-0.716264	-1.734577	-0.464532
C21	C	-0.823478	-1.734614	-0.464496
C22	C	-0.464643	-1.734405	-0.715232
C23	C	-0.464664	-1.734477	-0.822446
C24	C	-1.019774	-1.734646	-0.464431
C25	C	-0.910541	-1.734625	-0.464470
C26	C	-0.214057	-1.734477	-0.464633
C27	C	-0.106844	-1.734673	-0.464397
C28	C	-0.464684	-2.047535	-0.464633
C29	C	-0.464690	-2.180935	-0.464639
C30	C	-0.464724	-1.734603	-1.018741
C31	C	-0.464693	-1.734530	-0.909508
C32	C	-0.464720	-1.734613	-0.213024
C33	C	-0.464741	-1.734664	-0.105811
