data_functionalizedCrystal
_audit_creation_method	'MofGen! by Chris Wilmer'
_symmetry_space_group_name_H-M	'P1'
_symmetry_Int_Tables_number	1
_symmetry_cell_setting	triclinic
loop_
_symmetry_equiv_pos_as_xyz
  x,y,z
_cell_length_a	34.571875
_cell_length_b	34.571051
_cell_length_c	34.567439
_cell_angle_alpha	60.004367
_cell_angle_beta	60.008842
_cell_angle_gamma	59.994195
loop_
_atom_site_label
_atom_site_type_symbol
_atom_site_fract_x
_atom_site_fract_y
_atom_site_fract_z
O1	O	0.053721	-0.565181	0.472559
O2	O	0.553721	-0.065181	0.972559
O3	O	0.020283	-0.440038	0.380761
O4	O	0.520283	0.059962	0.880761
O5	O	0.099534	-0.519209	0.380676
O6	O	0.599534	-0.019209	0.880676
O7	O	-0.025530	-0.486010	0.472643
O8	O	0.474470	0.013990	0.972643
O9	O	0.125831	-0.492917	0.406885
O10	O	0.625831	0.007083	0.906885
O11	O	0.046580	-0.413746	0.406969
O12	O	0.546580	0.086254	0.906969
O13	O	0.080018	-0.538889	0.498767
O14	O	0.580018	-0.038889	0.998767
Zn15	Zn	0.067475	-0.472143	0.457030
Zn16	Zn	0.567475	0.027857	0.957030
Zn17	Zn	0.032827	-0.506784	0.422498
Zn18	Zn	0.532827	-0.006784	0.922498
O19	O	0.000767	-0.459718	0.498852
O20	O	0.500767	0.040282	0.998852
N21	N	0.091122	-0.448505	0.480598
N22	N	0.591122	0.051495	0.980598
N23	N	0.009184	-0.530426	0.398930
N24	N	0.509184	-0.030426	0.898930
C25	C	0.124402	-0.415465	0.717633
C26	C	0.624402	0.084535	1.217633
C27	C	0.328327	-0.415388	0.513477
C28	C	0.828327	0.084612	1.013477
C29	C	0.124221	-0.415437	0.513630
C30	C	0.624221	0.084563	1.013630
C31	C	0.124201	-0.211364	0.513624
C32	C	0.624201	0.288636	1.013624
C33	C	0.157075	-0.309853	0.546423
C34	C	0.657075	0.190147	1.046423
C35	C	0.157084	-0.382601	0.546423
C36	C	0.657084	0.117399	1.046423
C37	C	0.175289	-0.364414	0.564591
C38	C	0.675289	0.135586	1.064591
C39	C	0.254624	-0.350722	0.522790
C40	C	0.754624	0.149278	1.022790
C41	C	0.304220	-0.367243	0.506229
C42	C	0.804220	0.132757	1.006229
C43	C	0.304249	-0.447494	0.536832
C44	C	0.804249	0.052506	1.036832
C45	C	0.254655	-0.430972	0.553394
C46	C	0.754655	0.069028	1.053394
C47	C	0.169014	-0.285043	0.497667
C48	C	0.669014	0.214957	0.997667
C49	C	0.152454	-0.235444	0.481153
C50	C	0.652454	0.264556	0.981153
C51	C	0.112020	-0.235469	0.562154
C52	C	0.612020	0.264531	1.062154
C53	C	0.128580	-0.285068	0.578668
C54	C	0.628580	0.214932	1.078668
C55	C	0.108321	-0.370634	0.558439
C56	C	0.608321	0.129366	1.058439
C57	C	0.091776	-0.387168	0.541918
C58	C	0.591776	0.112832	1.041918
C59	C	0.172754	-0.427637	0.501375
C60	C	0.672754	0.072363	1.001375
C61	C	0.189301	-0.411103	0.517891
C62	C	0.689301	0.088897	1.017891
C63	C	0.108399	-0.370649	0.643978
C64	C	0.608399	0.129351	1.143978
C65	C	0.091911	-0.387197	0.693575
C66	C	0.591911	0.112803	1.193575
C67	C	0.172928	-0.427676	0.693511
C68	C	0.672928	0.072324	1.193511
C69	C	0.189415	-0.411128	0.643912
C70	C	0.689415	0.088872	1.143912
C71	C	0.157149	-0.382613	0.619147
C72	C	0.657149	0.117387	1.119147
C73	C	0.229844	-0.382585	0.546371
C74	C	0.729844	0.117415	1.046371
C75	C	0.105624	-0.433333	0.772186
C76	C	0.605624	0.066667	1.272186
C77	C	0.382878	-0.432925	0.495007
C78	C	0.882878	0.067075	0.995007
C79	C	0.105380	-0.433313	0.495792
C80	C	0.605380	0.066687	0.995792
C81	C	0.105683	-0.156808	0.496094
C82	C	0.605683	0.343192	0.996094
C83	C	-0.023527	-0.563458	0.161535
C84	C	0.476473	-0.063458	0.661535
C85	C	-0.023851	-0.767445	0.365663
C86	C	0.476149	-0.267445	0.865663
C87	C	-0.023821	-0.563448	0.365756
C88	C	0.476179	-0.063448	0.865756
C89	C	-0.227785	-0.563229	0.365355
C90	C	0.272215	-0.063229	0.865355
C91	C	-0.129302	-0.596153	0.332678
C92	C	0.370698	-0.096153	0.832678
C93	C	-0.056593	-0.596234	0.332823
C94	C	0.443407	-0.096234	0.832823
C95	C	-0.074746	-0.614396	0.314578
C96	C	0.425254	-0.114396	0.814578
C97	C	-0.088477	-0.693710	0.356299
C98	C	0.411523	-0.193710	0.856299
C99	C	-0.071982	-0.743310	0.372851
C100	C	0.428018	-0.243310	0.872851
C101	C	0.008266	-0.743392	0.342376
C102	C	0.508266	-0.243392	0.842376
C103	C	-0.008230	-0.693794	0.325823
C104	C	0.491770	-0.193794	0.825823
C105	C	-0.154162	-0.608103	0.381422
C106	C	0.345838	-0.108103	0.881422
C107	C	-0.203757	-0.591517	0.397874
C108	C	0.296243	-0.091517	0.897874
C109	C	-0.203630	-0.551037	0.316836
C110	C	0.296370	-0.051037	0.816836
C111	C	-0.154034	-0.567623	0.300384
C112	C	0.345966	-0.067623	0.800384
C113	C	-0.068543	-0.547475	0.320829
C114	C	0.431457	-0.047475	0.820829
C115	C	-0.052041	-0.530969	0.337421
C116	C	0.447959	-0.030969	0.837421
C117	C	-0.011639	-0.611977	0.377990
C118	C	0.488361	-0.111977	0.877990
C119	C	-0.028141	-0.628485	0.361404
C120	C	0.471859	-0.128485	0.861404
C121	C	-0.068417	-0.547482	0.235199
C122	C	0.431583	-0.047482	0.735199
C123	C	-0.051814	-0.530977	0.185602
C124	C	0.448186	-0.030977	0.685602
C125	C	-0.011349	-0.611990	0.185649
C126	C	0.488651	-0.111990	0.685649
C127	C	-0.027951	-0.628493	0.235248
C128	C	0.472049	-0.128493	0.735248
C129	C	-0.056486	-0.596238	0.260022
C130	C	0.443514	-0.096238	0.760022
C131	C	-0.056602	-0.668955	0.332787
C132	C	0.443398	-0.168955	0.832787
C133	C	-0.005599	-0.544662	0.106983
C134	C	0.494401	-0.044662	0.606983
C135	C	-0.006342	-0.821999	0.384121
C136	C	0.493658	-0.321999	0.884121
C137	C	-0.005979	-0.544649	0.383673
C138	C	0.494021	-0.044649	0.883673
C139	C	-0.282336	-0.544682	0.382817
C140	C	0.217664	-0.044682	0.882817
N141	N	0.427518	-0.448428	0.480350
N142	N	0.927518	0.051572	0.980350
O143	O	0.589573	-0.456297	0.363634
O144	O	1.089573	0.043703	0.863634
O145	O	0.589761	-0.548399	0.488643
O146	O	1.089761	-0.048399	0.988643
O147	O	0.589681	-0.548188	0.409364
O148	O	1.089681	-0.048188	0.909364
O149	O	0.589654	-0.456508	0.442913
O150	O	1.089654	0.043492	0.942913
O151	O	0.510890	-0.521988	0.435708
O152	O	1.010890	-0.021988	0.935708
O153	O	0.510970	-0.522199	0.514987
O154	O	1.010970	-0.022199	1.014987
O155	O	0.510782	-0.430098	0.389978
O156	O	1.010782	0.069902	0.889978
Zn157	Zn	0.498366	-0.471989	0.456665
Zn158	Zn	0.998366	0.028011	0.956665
Zn159	Zn	0.602177	-0.506508	0.421956
Zn160	Zn	1.102177	-0.006508	0.921956
O161	O	0.510862	-0.430308	0.469257
O162	O	1.010862	0.069692	0.969257
N163	N	0.673025	-0.530068	0.398267
N164	N	1.173025	-0.030068	0.898267
N165	N	0.091092	-0.112167	0.480590
N166	N	0.591092	0.387833	0.980590
O167	O	-0.025539	0.049976	0.472612
O168	O	0.474461	0.549976	0.972612
O169	O	0.099472	0.050011	0.380491
O170	O	0.599472	0.550011	0.880491
O171	O	0.020155	0.049979	0.380751
O172	O	0.520155	0.549979	0.880751
O173	O	0.053778	0.050009	0.472352
O174	O	0.553778	0.550009	0.972352
O175	O	0.046458	-0.028818	0.407008
O176	O	0.546458	0.471182	0.907008
O177	O	0.125775	-0.028785	0.406748
O178	O	0.625775	0.471215	0.906748
O179	O	0.000764	-0.028821	0.498869
O180	O	0.500764	0.471179	0.998869
Zn181	Zn	0.067445	-0.041314	0.456977
Zn182	Zn	0.567445	0.458686	0.956977
Zn183	Zn	0.032791	0.062504	0.422382
Zn184	Zn	0.532791	0.562504	0.922382
O185	O	0.080081	-0.028788	0.498609
O186	O	0.580081	0.471212	0.998609
N187	N	0.009138	0.133358	0.398771
N188	N	0.509138	0.633358	0.898771
N189	N	0.091421	-0.448552	0.816827
N190	N	0.591421	0.051448	1.316827
O191	O	0.083469	-0.565164	0.978960
O192	O	0.583469	-0.065164	1.478960
O193	O	-0.008614	-0.440110	0.979002
O194	O	0.491386	0.059890	1.479002
O195	O	-0.008399	-0.519410	0.978978
O196	O	0.491601	-0.019410	1.478978
O197	O	0.083253	-0.485863	0.978984
O198	O	0.583253	0.014137	1.478984
O199	O	0.017837	-0.493128	0.900185
O200	O	0.517837	0.006872	1.400185
O201	O	0.017621	-0.413827	0.900208
O202	O	0.517621	0.086173	1.400208
O203	O	0.109704	-0.538881	0.900167
O204	O	0.609704	-0.038881	1.400167
Zn205	Zn	0.067828	-0.472181	0.887677
Zn206	Zn	0.567828	0.027819	1.387677
Zn207	Zn	0.033262	-0.506810	0.991491
Zn208	Zn	0.533262	-0.006810	1.491491
O209	O	0.109489	-0.459581	0.900191
O210	O	0.609489	0.040419	1.400191
N211	N	0.009668	-0.530444	1.062341
N212	N	0.509668	-0.030444	1.562341
C213	C	0.030297	-0.411123	0.381218
C214	C	0.530297	0.088877	0.881218
C215	C	0.128439	-0.509167	0.381113
C216	C	0.628439	-0.009167	0.881113
C217	C	0.070004	-0.567805	0.498310
C218	C	0.570004	-0.067805	0.998310
C219	C	-0.028138	-0.469761	0.498415
C220	C	0.471862	0.030239	0.998415
C221	C	0.550388	-0.547982	0.517564
C222	C	1.050388	-0.047982	1.017564
C223	C	0.550290	-0.547721	0.419387
C224	C	1.050290	-0.047721	0.919387
C225	C	0.550153	-0.430514	0.361058
C226	C	1.050153	0.069486	0.861058
C227	C	0.550253	-0.430775	0.459234
C228	C	1.050253	0.069225	0.959234
C229	C	0.128339	0.010714	0.380902
C230	C	0.628339	0.510714	0.880902
C231	C	0.030148	0.010577	0.381256
C232	C	0.530148	0.510577	0.881256
C233	C	-0.028136	0.010574	0.498426
C234	C	0.471864	0.510574	0.998426
C235	C	0.070089	0.010613	0.498104
C236	C	0.570089	0.510613	0.998104
C237	C	-0.008178	-0.411214	0.939610
C238	C	0.491822	0.088786	1.439610
C239	C	-0.007906	-0.509413	0.939566
C240	C	0.492094	-0.009413	1.439566
C241	C	0.109268	-0.567777	0.939558
C242	C	0.609268	-0.067777	1.439558
C243	C	0.109002	-0.469572	0.939586
C244	C	0.609002	0.030428	1.439586
H245	H	0.082121	-0.347425	0.623816
H246	H	0.582121	0.152575	1.123816
O247	O	-0.070949	-0.461362	0.532928
O248	O	0.429051	0.038638	1.032928
C249	C	-0.113273	-0.457084	0.611883
C250	C	0.386727	0.042916	1.111883
C251	C	-0.064759	-0.466618	0.572842
C252	C	0.435241	0.033382	1.072842
H253	H	-0.108286	-0.461320	0.644159
H254	H	0.391714	0.038680	1.144159
H255	H	-0.130320	-0.483374	0.622289
H256	H	0.369680	0.016626	1.122289
H257	H	-0.137136	-0.419461	0.598087
H258	H	0.362864	0.080539	1.098087
H259	H	-0.040860	-0.504227	0.586605
H260	H	0.459140	-0.004227	1.086605
H261	H	-0.047750	-0.440299	0.562441
H262	H	0.452250	0.059701	1.062441
O263	O	0.550147	-0.395999	0.318227
O264	O	1.050147	0.104001	0.818227
C265	C	0.590876	-0.344160	0.248668
C266	C	1.090876	0.155840	0.748668
C267	C	0.590937	-0.383238	0.297169
C268	C	1.090937	0.116762	0.797169
H269	H	0.623856	-0.333837	0.231624
H270	H	1.123856	0.166163	0.731624
H271	H	0.557904	-0.311843	0.253658
H272	H	1.057904	0.188157	0.753658
H273	H	0.590837	-0.357895	0.224800
H274	H	1.090837	0.142105	0.724800
H275	H	0.590993	-0.369547	0.321062
H276	H	1.090993	0.130453	0.821062
H277	H	0.623906	-0.415547	0.292142
H278	H	1.123906	0.084453	0.792142
H279	H	-0.018232	-0.668197	0.255455
H280	H	0.481768	-0.168197	0.755455
H281	H	0.138179	-0.603691	0.939539
H282	H	0.638179	-0.103691	1.439539
H283	H	0.077150	-0.603753	0.527142
H284	H	0.577150	-0.103753	1.027142
O285	O	0.021811	-0.368278	0.346760
O286	O	0.521811	0.131722	0.846760
C287	C	0.017391	-0.325860	0.267855
C288	C	0.517391	0.174140	0.767855
C289	C	0.027024	-0.374413	0.306833
C290	C	0.527024	0.125587	0.806833
H291	H	0.021592	-0.330803	0.235569
H292	H	0.521592	0.169197	0.735569
H293	H	0.043650	-0.308773	0.257439
H294	H	0.543650	0.191227	0.757439
H295	H	-0.020239	-0.302054	0.281718
H296	H	0.479761	0.197946	0.781718
H297	H	0.064641	-0.398256	0.293004
H298	H	0.564641	0.101744	0.793004
H299	H	0.000735	-0.391462	0.317244
H300	H	0.500735	0.108538	0.817244
O301	O	0.550221	-0.396460	0.467879
O302	O	1.050221	0.103540	0.967879
C303	C	0.550297	-0.374797	0.524140
C304	C	1.050297	0.125203	1.024140
C305	C	0.550323	-0.413697	0.514417
C306	C	1.050323	0.086303	1.014417
H307	H	0.550390	-0.388722	0.561762
H308	H	1.050390	0.111278	1.061762
H309	H	0.517286	-0.342477	0.519973
H310	H	1.017286	0.157523	1.019973
H311	H	0.583234	-0.364403	0.497867
H312	H	1.083234	0.135597	0.997867
H313	H	0.517408	-0.424131	0.540682
H314	H	1.017408	0.075869	1.040682
H315	H	0.583356	-0.445992	0.518568
H316	H	1.083356	0.054008	1.018568
H317	H	0.164358	-0.516243	0.352233
H318	H	0.664358	-0.016243	0.852233
O319	O	0.143343	-0.461062	0.939664
O320	O	0.643343	0.038938	1.439664
C321	C	0.195069	-0.483869	0.980452
C322	C	0.695069	0.016131	1.480452
C323	C	0.156172	-0.493552	0.980429
C324	C	0.656172	0.006448	1.480429
H325	H	0.205460	-0.510138	1.013403
H326	H	0.705460	-0.010138	1.513403
H327	H	0.181191	-0.446236	0.980493
H328	H	0.681191	0.053764	1.480493
H329	H	0.227379	-0.488086	0.947454
H330	H	0.727379	0.011914	1.447454
H331	H	0.123849	-0.489362	1.013421
H332	H	0.623849	0.010638	1.513421
H333	H	0.170088	-0.531181	0.980364
H334	H	0.670088	-0.031181	1.480364
O335	O	0.171098	0.011011	0.346356
O336	O	0.671098	0.511011	0.846356
C337	C	0.249024	0.011399	0.324171
C338	C	0.749024	0.511399	0.824171
C339	C	0.200618	0.011074	0.363331
C340	C	0.700618	0.511074	0.863331
H341	H	0.272907	0.011440	0.337884
H342	H	0.772907	0.511440	0.837884
H343	H	0.243862	0.044456	0.291967
H344	H	0.743862	0.544456	0.791967
H345	H	0.266148	-0.021496	0.313679
H346	H	0.766148	0.478504	0.813679
H347	H	0.183467	0.043947	0.373863
H348	H	0.683467	0.543947	0.873863
H349	H	0.205810	-0.022004	0.395510
H350	H	0.705810	0.477996	0.895510
O351	O	-0.096204	-0.516161	0.259281
O352	O	0.403796	-0.016161	0.759281
C353	C	-0.171735	-0.487751	0.315199
C354	C	0.328265	0.012249	0.815199
C355	C	-0.140323	-0.523238	0.287950
C356	C	0.359677	-0.023238	0.787950
H357	H	-0.207408	-0.493467	0.338392
H358	H	0.292592	0.006533	0.838392
H359	H	-0.177449	-0.450059	0.288954
H360	H	0.322551	0.049941	0.788954
H361	H	-0.153586	-0.493475	0.338448
H362	H	0.346414	0.006525	0.838448
H363	H	-0.158445	-0.517557	0.264701
H364	H	0.341555	-0.017557	0.764701
H365	H	-0.134608	-0.560917	0.314221
H366	H	0.365392	-0.060917	0.814221
O367	O	0.078629	0.010701	0.532425
O368	O	0.578629	0.510701	1.032425
C369	C	0.055864	0.051508	0.584118
C370	C	0.555864	0.551508	1.084118
C371	C	0.046146	0.051473	0.545244
C372	C	0.546146	0.551473	1.045244
H373	H	0.029601	0.084463	0.594501
H374	H	0.529601	0.584463	1.094501
H375	H	0.093495	0.051550	0.570220
H376	H	0.593495	0.551550	1.070220
H377	H	0.051671	0.018512	0.616439
H378	H	0.551671	0.518512	1.116439
H379	H	0.050313	0.084463	0.512910
H380	H	0.550313	0.584463	1.012910
H381	H	0.008519	0.051406	0.559180
H382	H	0.508519	0.551406	1.059180
H383	H	0.550436	-0.576894	0.553469
H384	H	1.050436	-0.076894	1.053469
H385	H	0.550303	-0.576522	0.412207
H386	H	1.050303	-0.076522	0.912207
H387	H	0.022945	0.010574	0.352477
H388	H	0.522945	0.510574	0.852477
O389	O	-0.042655	-0.368348	0.939540
O390	O	0.457345	0.131652	1.439540
C391	C	-0.094498	-0.298825	0.898752
C392	C	0.405502	0.201175	1.398752
C393	C	-0.055447	-0.347356	0.898768
C394	C	0.444553	0.152644	1.398768
H395	H	-0.104859	-0.281843	0.865796
H396	H	0.395141	0.218157	1.365796
H397	H	-0.080786	-0.274903	0.898727
H398	H	0.419214	0.225097	1.398727
H399	H	-0.126786	-0.303816	0.931745
H400	H	0.373214	0.196184	1.431745
H401	H	-0.023146	-0.342409	0.865781
H402	H	0.476854	0.157591	1.365781
H403	H	-0.069198	-0.371261	0.898817
H404	H	0.430802	0.128739	1.398817
O405	O	-0.042227	-0.518035	0.939586
O406	O	0.457773	-0.018035	1.439586
C407	C	-0.092050	-0.566084	0.980353
C408	C	0.407950	-0.066084	1.480353
C409	C	-0.053172	-0.556377	0.980382
C410	C	0.446828	-0.056377	1.480382
H411	H	-0.100918	-0.597077	1.013338
H412	H	0.399082	-0.097077	1.513338
H413	H	-0.078913	-0.575129	0.947383
H414	H	0.421087	-0.075129	1.447383
H415	H	-0.125127	-0.533205	0.980329
H416	H	0.374873	-0.033205	1.480329
H417	H	-0.020082	-0.589240	0.980423
H418	H	0.479918	-0.089240	1.480423
H419	H	-0.066348	-0.547313	1.013349
H420	H	0.433652	-0.047313	1.513349
O421	O	0.044536	-0.375505	0.717618
O422	O	0.544536	0.124495	1.217618
C423	C	-0.034079	-0.333622	0.712442
C424	C	0.465921	0.166378	1.212442
C425	C	0.019558	-0.346819	0.685154
C426	C	0.519558	0.153181	1.185154
H427	H	-0.054290	-0.310436	0.686207
H428	H	0.445710	0.189564	1.186207
H429	H	-0.043849	-0.313406	0.735649
H430	H	0.456151	0.186594	1.235649
H431	H	-0.043806	-0.367290	0.735678
H432	H	0.456194	0.132710	1.235678
H433	H	0.029324	-0.313176	0.661892
H434	H	0.529324	0.186824	1.161892
H435	H	0.029299	-0.367054	0.661977
H436	H	0.529299	0.132946	1.161977
H437	H	-0.064037	0.010563	0.527345
H438	H	0.435963	0.510563	1.027345
H439	H	0.199204	-0.450885	0.713670
H440	H	0.699204	0.049115	1.213670
H441	H	0.229113	-0.420876	0.623698
H442	H	0.729113	0.079124	1.123698
H443	H	0.052069	-0.377412	0.551692
H444	H	0.552069	0.122588	1.051692
O445	O	0.077005	-0.342878	0.586082
O446	O	0.577005	0.157122	1.086082
C447	C	0.012802	-0.269904	0.592474
C448	C	0.512802	0.230096	1.092474
C449	C	0.048249	-0.301284	0.561114
C450	C	0.548249	0.198716	1.061114
H451	H	-0.010463	-0.236273	0.572304
H452	H	0.489537	0.263727	1.072304
H453	H	0.032978	-0.260102	0.602210
H454	H	0.532978	0.239898	1.102210
H455	H	-0.010372	-0.290126	0.626144
H456	H	0.489628	0.209874	1.126144
H457	H	0.071433	-0.281091	0.527425
H458	H	0.571433	0.218909	1.027425
H459	H	0.028045	-0.311088	0.551416
H460	H	0.528045	0.188912	1.051416
O461	O	0.204076	-0.455251	0.473592
O462	O	0.704076	0.044749	0.973592
C463	C	0.268223	-0.461556	0.400579
C464	C	0.768223	0.038444	0.900579
C465	C	0.232765	-0.430233	0.431996
C466	C	0.732765	0.069767	0.931996
H467	H	0.291434	-0.441345	0.366946
H468	H	0.791434	0.058655	0.866946
H469	H	0.248058	-0.471314	0.390787
H470	H	0.748058	0.028686	0.890787
H471	H	0.291451	-0.495216	0.420768
H472	H	0.791451	0.004784	0.920768
H473	H	0.209528	-0.396553	0.411836
H474	H	0.709528	0.103447	0.911836
H475	H	0.252959	-0.420513	0.441790
H476	H	0.752959	0.079487	0.941790
O477	O	0.230655	-0.461987	0.576272
O478	O	0.730655	0.038013	1.076272
C479	C	0.235920	-0.543333	0.604899
C480	C	0.735920	-0.043333	1.104899
C481	C	0.263158	-0.508259	0.578972
C482	C	0.763158	-0.008259	1.078972
H483	H	0.262187	-0.580753	0.607099
H484	H	0.762187	-0.080753	1.107099
H485	H	0.212689	-0.533415	0.584642
H486	H	0.712689	-0.033415	1.084642
H487	H	0.212715	-0.541798	0.642184
H488	H	0.712715	-0.041798	1.142184
H489	H	0.286389	-0.509776	0.541687
H490	H	0.786389	-0.009776	1.041687
H491	H	0.286360	-0.518189	0.599265
H492	H	0.786360	-0.018189	1.099265
H493	H	0.324452	-0.486894	0.542541
H494	H	0.824452	0.013106	1.042541
O495	O	0.328270	-0.336260	0.483250
O496	O	0.828270	0.163740	0.983250
C497	C	0.343366	-0.267483	0.416415
C498	C	0.843366	0.232517	0.916415
C499	C	0.316107	-0.302545	0.442386
C500	C	0.816107	0.197455	0.942386
H501	H	0.333534	-0.240210	0.383378
H502	H	0.833534	0.259790	0.883378
H503	H	0.383081	-0.287574	0.405746
H504	H	0.883081	0.212426	0.905746
H505	H	0.333637	-0.248689	0.440920
H506	H	0.833637	0.251311	0.940920
H507	H	0.325797	-0.321349	0.417909
H508	H	0.825797	0.178651	0.917909
H509	H	0.276399	-0.282429	0.453063
H510	H	0.776399	0.217571	0.953063
O511	O	0.196669	-0.309047	0.466282
O512	O	0.696669	0.190953	0.966282
C513	C	0.235039	-0.303786	0.384196
C514	C	0.735039	0.196214	0.884196
C515	C	0.203709	-0.276543	0.419689
C516	C	0.703709	0.223457	0.919689
H517	H	0.240749	-0.277519	0.346517
H518	H	0.740749	0.222481	0.846517
H519	H	0.216875	-0.327000	0.389891
H520	H	0.716875	0.173000	0.889891
H521	H	0.270720	-0.327011	0.389908
H522	H	0.770720	0.172989	0.889908
H523	H	0.168023	-0.253292	0.413998
H524	H	0.668023	0.246708	0.913998
H525	H	0.221910	-0.253358	0.413984
H526	H	0.721910	0.246642	0.913984
O527	O	0.163968	-0.211318	0.433793
O528	O	0.663968	0.288682	0.933793
C529	C	0.135400	-0.155287	0.368167
C530	C	0.635400	0.344713	0.868167
C531	C	0.122294	-0.182588	0.421805
C532	C	0.622294	0.317412	0.921805
H533	H	0.101715	-0.132045	0.358460
H534	H	0.601715	0.367955	0.858460
H535	H	0.158588	-0.181499	0.347932
H536	H	0.658588	0.318501	0.847932
H537	H	0.155605	-0.132080	0.358406
H538	H	0.655605	0.367920	0.858406
H539	H	0.102073	-0.205796	0.431610
H540	H	0.602073	0.294204	0.931610
H541	H	0.099129	-0.156350	0.442010
H542	H	0.599129	0.343650	0.942010
O543	O	0.084332	-0.211463	0.593539
O544	O	0.584332	0.288537	1.093539
C545	C	0.046012	-0.216721	0.675624
C546	C	0.546012	0.283279	1.175624
C547	C	0.077363	-0.243965	0.640133
C548	C	0.577363	0.256035	1.140133
H549	H	0.040376	-0.242987	0.713304
H550	H	0.540376	0.257013	1.213304
H551	H	0.010299	-0.193524	0.669979
H552	H	0.510299	0.306476	1.169979
H553	H	0.064182	-0.193477	0.669861
H554	H	0.564182	0.306523	1.169861
H555	H	0.059235	-0.267234	0.645875
H556	H	0.559235	0.232766	1.145875
H557	H	0.113074	-0.267132	0.645788
H558	H	0.613074	0.232868	1.145788
O559	O	-0.063473	-0.483597	0.161568
O560	O	0.436527	0.016403	0.661568
C561	C	-0.105347	-0.404987	0.166760
C562	C	0.394653	0.095013	0.666760
C563	C	-0.092189	-0.458631	0.194039
C564	C	0.407811	0.041369	0.694039
H565	H	-0.128557	-0.384786	0.193002
H566	H	0.371443	0.115214	0.693002
H567	H	-0.125524	-0.395182	0.143500
H568	H	0.374476	0.104818	0.643500
H569	H	-0.071668	-0.395278	0.143579
H570	H	0.428332	0.104722	0.643579
H571	H	-0.125843	-0.468378	0.217247
H572	H	0.374157	0.031622	0.717247
H573	H	-0.071994	-0.468406	0.217270
H574	H	0.428006	0.031594	0.717270
O575	O	0.016374	-0.643388	0.161660
O576	O	0.516374	-0.143388	0.661660
C577	C	0.054723	-0.725486	0.166949
C578	C	0.554723	-0.225486	0.666949
C579	C	0.023331	-0.689978	0.194174
C580	C	0.523331	-0.189978	0.694174
H581	H	0.060349	-0.763161	0.193224
H582	H	0.560349	-0.263161	0.693224
H583	H	0.090438	-0.719854	0.143796
H584	H	0.590438	-0.219854	0.643796
H585	H	0.036592	-0.719725	0.143664
H586	H	0.536592	-0.219725	0.643664
H587	H	0.041419	-0.695718	0.217485
H588	H	0.541419	-0.195718	0.717485
H589	H	-0.012382	-0.695619	0.217297
H590	H	0.487618	-0.195619	0.717297
O591	O	0.230473	-0.303738	0.516053
O592	O	0.730473	0.196262	1.016053
C593	C	0.174517	-0.243730	0.552612
C594	C	0.674517	0.256270	1.052612
C595	C	0.201831	-0.296954	0.560310
C596	C	0.701831	0.203046	1.060310
H597	H	0.151361	-0.238227	0.588389
H598	H	0.651361	0.261773	1.088389
H599	H	0.151240	-0.229752	0.530852
H600	H	0.651240	0.270248	1.030852
H601	H	0.200760	-0.223804	0.532892
H602	H	0.700760	0.276196	1.032892
H603	H	0.175622	-0.316919	0.580043
H604	H	0.675622	0.183081	1.080043
H605	H	0.225115	-0.310895	0.582051
H606	H	0.725115	0.189105	1.082051
H607	H	-0.091707	-0.521211	0.297556
H608	H	0.408293	-0.021211	0.797556
H609	H	-0.061773	-0.491265	0.327657
H610	H	0.438227	0.008735	0.827657
O611	O	0.015980	-0.643371	0.405762
O612	O	0.515980	-0.143371	0.905762
C613	C	0.054337	-0.725467	0.444223
C614	C	0.554337	-0.225467	0.944223
C615	C	0.023047	-0.689963	0.412776
C616	C	0.523047	-0.189963	0.912776
H617	H	0.060069	-0.763144	0.449895
H618	H	0.560069	-0.263144	0.949895
H619	H	0.036127	-0.719770	0.479914
H620	H	0.536127	-0.219770	0.979914
H621	H	0.090010	-0.719765	0.426111
H622	H	0.590010	-0.219765	0.926111
H623	H	-0.012631	-0.695644	0.430846
H624	H	0.487369	-0.195644	0.930846
H625	H	0.041294	-0.695668	0.377086
H626	H	0.541294	-0.195668	0.877086
O627	O	0.022796	-0.669818	0.303011
O628	O	0.522796	-0.169818	0.803011
C629	C	0.104137	-0.675136	0.274506
C630	C	0.604137	-0.175136	0.774506
C631	C	0.069050	-0.702346	0.300360
C632	C	0.569050	-0.202346	0.800360
H633	H	0.141542	-0.701423	0.272346
H634	H	0.641542	-0.201423	0.772346
H635	H	0.094197	-0.651923	0.294792
H636	H	0.594197	-0.151923	0.794792
H637	H	0.102648	-0.651911	0.237207
H638	H	0.602648	-0.151911	0.737207
H639	H	0.070521	-0.725597	0.337660
H640	H	0.570521	-0.225597	0.837660
H641	H	0.079002	-0.725529	0.280038
H642	H	0.579002	-0.225529	0.780038
H643	H	0.229008	-0.420842	0.508101
H644	H	0.729008	0.079158	1.008101
H645	H	0.118851	-0.305270	0.618371
H646	H	0.618851	0.194730	1.118371
H647	H	0.047655	-0.763617	0.336709
H648	H	0.547655	-0.263617	0.836709
O649	O	-0.103020	-0.767285	0.395756
O650	O	0.396980	-0.267285	0.895756
C651	C	-0.184371	-0.761971	0.424343
C652	C	0.315629	-0.261971	0.924343
C653	C	-0.149268	-0.734759	0.398369
C654	C	0.350732	-0.234759	0.898369
H655	H	-0.221770	-0.735685	0.426455
H656	H	0.278230	-0.235685	0.926455
H657	H	-0.182904	-0.785139	0.461658
H658	H	0.317096	-0.285139	0.961658
H659	H	-0.174417	-0.785241	0.404112
H660	H	0.325583	-0.285241	0.904112
H661	H	-0.159198	-0.711463	0.418560
H662	H	0.340802	-0.211463	0.918560
H663	H	-0.150741	-0.711621	0.361051
H664	H	0.349259	-0.211621	0.861051
H665	H	-0.018411	-0.668189	0.371171
H666	H	0.481589	-0.168189	0.871171
H667	H	-0.134026	-0.631339	0.407719
H668	H	0.365974	-0.131339	0.907719
O669	O	-0.135445	-0.669525	0.362972
O670	O	0.364555	-0.169525	0.862972
C671	C	-0.195362	-0.613501	0.326302
C672	C	0.304638	-0.113501	0.826302
C673	C	-0.142157	-0.640857	0.318682
C674	C	0.357843	-0.140857	0.818682
H675	H	-0.200807	-0.590323	0.290500
H676	H	0.299193	-0.090323	0.790500
H677	H	-0.209362	-0.590237	0.348082
H678	H	0.290638	-0.090237	0.848082
H679	H	-0.215309	-0.639719	0.345970
H680	H	0.284691	-0.139719	0.845970
H681	H	-0.122171	-0.614673	0.299002
H682	H	0.377829	-0.114673	0.799002
H683	H	-0.128194	-0.664128	0.296921
H684	H	0.371806	-0.164128	0.796921
H685	H	-0.223999	-0.601245	0.437568
H686	H	0.276001	-0.101245	0.937568
H687	H	-0.133793	-0.557888	0.260690
H688	H	0.366207	-0.057888	0.760690
O689	O	-0.227585	-0.523315	0.285403
O690	O	0.272415	-0.023315	0.785403
C691	C	-0.222227	-0.484953	0.203287
C692	C	0.277773	0.015047	0.703287
C693	C	-0.195040	-0.516342	0.238833
C694	C	0.304960	-0.016342	0.738833
H695	H	-0.195926	-0.479314	0.165627
H696	H	0.304074	0.020686	0.665627
H697	H	-0.245422	-0.449241	0.208935
H698	H	0.254578	0.050759	0.708935
H699	H	-0.245463	-0.503095	0.208989
H700	H	0.254537	-0.003095	0.708989
H701	H	-0.171778	-0.498242	0.233153
H702	H	0.328222	0.001758	0.733153
H703	H	-0.171875	-0.552053	0.233175
H704	H	0.328125	-0.052053	0.733175
