data_functionalizedCrystal
_audit_creation_method	'MofGen! by Chris Wilmer'
_symmetry_space_group_name_H-M	'P1'
_symmetry_Int_Tables_number	1
_symmetry_cell_setting	triclinic
loop_
_symmetry_equiv_pos_as_xyz
  x,y,z
_cell_length_a	14.971482
_cell_length_b	14.853567
_cell_length_c	14.048226
_cell_angle_alpha	89.997365
_cell_angle_beta	89.994098
_cell_angle_gamma	83.623769
loop_
_atom_site_label
_atom_site_type_symbol
_atom_site_fract_x
_atom_site_fract_y
_atom_site_fract_z
O1	O	1.186970	0.117472	-0.079140
O2	O	0.926572	0.131544	-0.079144
O3	O	1.063727	-0.006723	-0.079145
O4	O	1.049816	0.255739	-0.079139
O5	O	1.063710	-0.006731	0.079177
O6	O	0.926556	0.131536	0.079178
O7	O	1.186954	0.117463	0.079181
Zn8	Zn	1.056752	0.124499	0.104316
Zn9	Zn	1.056774	0.124509	-0.104279
O10	O	1.049799	0.255731	0.079182
C11	C	0.893239	0.130912	0.000016
C12	C	0.793942	0.129027	0.000015
C13	C	0.747288	0.128136	0.086317
C14	C	0.653989	0.126351	0.086318
C15	C	0.607345	0.125464	0.000016
C16	C	0.654006	0.126354	-0.086293
C17	C	0.747303	0.128132	-0.086293
C18	C	0.459543	0.122649	-0.086287
C19	C	0.366238	0.120872	-0.086287
C20	C	0.366228	0.120868	0.086324
C21	C	0.459526	0.122646	0.086324
C22	C	0.506180	0.123537	0.000015
C23	C	1.063088	-0.040316	0.000013
C24	C	1.061200	-0.140399	0.000005
C25	C	0.971742	-0.552915	0.000022
C26	C	1.134685	-0.574228	0.000024
C27	C	1.136461	-0.480195	0.000018
C28	C	1.055876	-0.422517	0.000016
C29	C	0.973516	-0.458873	0.000019
C30	C	1.218820	-0.443832	0.000025
C31	C	1.220599	-0.349793	0.000020
C32	C	1.140014	-0.292114	0.000011
C33	C	1.057650	-0.328475	0.000013
C34	C	0.977065	-0.270797	0.000011
C35	C	0.894700	-0.307156	0.000006
C36	C	0.892930	-0.401193	0.000010
C37	C	1.141784	-0.198077	0.000007
C38	C	0.978839	-0.176755	0.000008
C39	C	1.220287	0.118096	0.000019
C40	C	1.319585	0.119980	0.000015
C41	C	1.050438	0.289324	0.000022
C42	C	1.052327	0.389407	0.000024
N43	N	1.056744	0.124491	0.246677
N44	N	1.056789	0.124510	-0.246639
C45	C	1.117495	0.063291	0.296495
C46	C	1.117501	0.063291	0.396152
C47	C	1.056760	0.124495	0.445991
C48	C	0.996002	0.185697	0.396166
C49	C	0.995992	0.185693	0.296510
C50	C	0.996028	0.185704	0.603880
C51	C	0.996038	0.185710	0.703543
C52	C	1.117537	0.063302	0.703522
C53	C	1.117527	0.063297	0.603867
C54	C	1.056770	0.124501	0.554049
H55	H	0.616010	0.125609	0.156593
H56	H	1.166991	0.013465	0.563288
O57	O	1.300550	-0.314373	-0.000111
C58	C	1.306467	-0.260640	-0.082126
H59	H	1.235999	-0.237298	-0.109461
H60	H	1.345990	-0.302147	-0.139540
C61	C	1.441284	-0.206079	-0.023658
C62	C	1.354733	-0.177402	-0.057227
H63	H	1.471060	-0.154735	-0.008301
H64	H	1.437300	-0.242282	0.031596
H65	H	1.474208	-0.240668	-0.071509
H66	H	1.321807	-0.142823	-0.009372
H67	H	1.358713	-0.141191	-0.112472
H68	H	1.208844	-0.168477	0.000017
H69	H	0.785288	0.128860	-0.156569
H70	H	0.904682	-0.582523	0.000014
H71	H	0.946540	0.235528	0.436750
O72	O	0.608778	0.125619	-0.170187
C73	C	0.621527	0.204087	-0.222675
H74	H	0.685922	0.231383	-0.198136
H75	H	0.561991	0.257721	-0.210705
C76	C	0.549800	0.146956	-0.359467
C77	C	0.628895	0.180476	-0.329334
H78	H	0.554341	0.132394	-0.425260
H79	H	0.541208	0.094092	-0.324105
H80	H	0.500195	0.191657	-0.349484
H81	H	0.678497	0.135772	-0.339306
H82	H	0.637496	0.233333	-0.364701
H83	H	1.166961	0.013456	0.255923
H84	H	1.284428	-0.490800	0.000036
H85	H	0.946575	0.235547	0.744116
O86	O	0.320901	0.119828	0.170144
C87	C	0.276964	0.040785	0.175299
H88	H	0.312101	-0.013202	0.126316
H89	H	0.203984	0.057070	0.152123
C90	C	0.236933	0.071678	0.338567
C91	C	0.280094	0.005368	0.278411
H92	H	0.238860	0.049833	0.402171
H93	H	0.266531	0.124933	0.335093
H94	H	0.176120	0.085243	0.319242
H95	H	0.340908	-0.008188	0.297729
H96	H	0.250507	-0.047891	0.281890
O97	O	0.812871	-0.436404	0.000137
C98	C	0.763741	-0.406957	0.082143
H99	H	0.788191	-0.341709	0.109475
H100	H	0.774032	-0.461358	0.139564
C101	C	0.633117	-0.469583	0.023664
C102	C	0.663141	-0.389439	0.057229
H103	H	0.571062	-0.458781	0.008298
H104	H	0.666217	-0.489425	-0.031583
H105	H	0.641701	-0.514909	0.071520
H106	H	0.654568	-0.344119	0.009369
H107	H	0.630037	-0.369589	0.112468
O108	O	1.212877	-0.630381	-0.000011
C109	C	1.193651	-0.721177	0.000022
H110	H	1.123394	-0.724860	-0.029952
H111	H	1.197000	-0.748363	0.075980
C112	C	1.349321	-0.774134	-0.025245
C113	C	1.263033	-0.778658	-0.062067
H114	H	1.392121	-0.809593	-0.063541
H115	H	1.362276	-0.712963	-0.025264
H116	H	1.352099	-0.796787	0.038052
H117	H	1.260253	-0.755995	-0.125358
H118	H	1.250080	-0.839827	-0.062060
O119	O	0.936892	0.245020	0.248072
C120	C	0.881666	0.196642	0.190428
H121	H	0.880075	0.125542	0.220469
H122	H	0.909644	0.191960	0.114895
C123	C	0.787645	0.333495	0.152016
C124	C	0.785686	0.246170	0.188918
H125	H	0.728442	0.364047	0.151080
H126	H	0.824854	0.366089	0.190849
H127	H	0.810965	0.329581	0.089075
H128	H	0.762378	0.250086	0.251862
H129	H	0.748471	0.213578	0.150096
O130	O	0.792461	0.128953	0.170237
C131	C	0.731269	0.127803	0.246409
H132	H	0.668435	0.098018	0.221104
H133	H	0.712045	0.199883	0.272949
C134	C	0.852447	0.105995	0.359024
C135	C	0.775276	0.069406	0.327946
H136	H	0.879593	0.069976	0.409322
H137	H	0.893674	0.106773	0.307706
H138	H	0.836416	0.166060	0.381134
H139	H	0.791310	0.009346	0.305825
H140	H	0.734053	0.068616	0.379262
H141	H	0.913216	-0.129799	0.000002
O142	O	0.504705	0.123468	0.170241
C143	C	0.443520	0.122322	0.246420
H144	H	0.380685	0.092535	0.221125
H145	H	0.424298	0.194403	0.272956
C146	C	0.564709	0.100523	0.359022
C147	C	0.487536	0.063931	0.327957
H148	H	0.591861	0.064509	0.409321
H149	H	0.605931	0.101299	0.307700
H150	H	0.548680	0.160590	0.381129
H151	H	0.503568	0.003870	0.305840
H152	H	0.446318	0.063144	0.379278
H153	H	1.166969	0.013457	0.436713
O154	O	1.176467	0.003877	0.752057
C155	C	1.163465	0.017013	0.850703
H156	H	1.092395	0.050587	0.864327
H157	H	1.214143	0.062317	0.878971
C158	C	1.264096	-0.116427	0.885136
C159	C	1.176804	-0.075197	0.901870
H160	H	1.272328	-0.173305	0.916700
H161	H	1.272858	-0.125276	0.818677
H162	H	1.306318	-0.078664	0.908693
H163	H	1.134585	-0.112955	0.878303
H164	H	1.168035	-0.066357	0.968326
H165	H	0.946550	0.235540	0.563322
H166	H	0.497526	0.123375	-0.156569
O167	O	0.321069	0.119978	-0.170204
C168	C	0.382248	0.121165	-0.246383
H169	H	0.452422	0.093903	-0.221090
H170	H	0.382880	0.193626	-0.272917
C171	C	0.267242	0.094889	-0.358987
C172	C	0.353430	0.061398	-0.327923
H173	H	0.249465	0.058026	-0.409287
H174	H	0.226024	0.094093	-0.307665
H175	H	0.267780	0.155273	-0.381091
H176	H	0.352888	0.001020	-0.305809
H177	H	0.394648	0.062183	-0.379244
H178	H	0.829089	-0.260183	0.000011
