data_functionalizedCrystal
_audit_creation_method	'MofGen! by Chris Wilmer'
_symmetry_space_group_name_H-M	'P1'
_symmetry_Int_Tables_number	1
_symmetry_cell_setting	triclinic
loop_
_symmetry_equiv_pos_as_xyz
  x,y,z
_cell_length_a	12.759401
_cell_length_b	19.076808
_cell_length_c	12.759393
_cell_angle_alpha	87.665862
_cell_angle_beta	89.980324
_cell_angle_gamma	92.323972
loop_
_atom_site_label
_atom_site_type_symbol
_atom_site_fract_x
_atom_site_fract_y
_atom_site_fract_z
Zn1	Zn	1.589385	-0.280176	-0.577141
Zn2	Zn	2.089385	0.219824	-0.077141
Zn3	Zn	1.582183	-0.397897	-0.394384
Zn4	Zn	2.082183	0.102103	0.105616
Zn5	Zn	1.413681	-0.280211	-0.401478
Zn6	Zn	1.913681	0.219789	0.098522
Zn7	Zn	1.406585	-0.397845	-0.570028
Zn8	Zn	1.906585	0.102155	-0.070028
O9	O	1.497959	-0.339032	-0.485758
O10	O	1.997959	0.160968	0.014242
O11	O	1.735450	-0.295799	-0.552906
O12	O	2.235450	0.204201	-0.052906
O13	O	1.559786	-0.382322	-0.248302
O14	O	2.059786	0.117678	0.251698
O15	O	1.442973	-0.181710	-0.430726
O16	O	1.942973	0.318290	0.069274
O17	O	1.730159	-0.382288	-0.418635
O18	O	2.230159	0.117712	0.081365
O19	O	1.572061	-0.181684	-0.559785
O20	O	2.072061	0.318316	-0.059785
O21	O	1.435989	-0.295859	-0.253514
O22	O	1.935989	0.204141	0.246486
O23	O	1.265720	-0.295809	-0.423829
O24	O	1.765720	0.204191	0.076171
O25	O	1.430879	-0.382200	-0.717995
O26	O	1.930879	0.117800	-0.217995
O27	O	1.260506	-0.382234	-0.547662
O28	O	1.760506	0.117766	-0.047662
O29	O	1.565180	-0.295749	-0.723221
O30	O	2.065180	0.204251	-0.223221
O31	O	1.552906	-0.496387	-0.411738
O32	O	2.052906	0.003613	0.088262
O33	O	1.423895	-0.496349	-0.540783
O34	O	1.923895	0.003651	-0.040783
C35	C	1.224992	-0.339020	-0.485744
C36	C	1.724992	0.160980	0.014256
C37	C	1.108215	-0.339032	-0.485762
C38	C	1.608215	0.160968	0.014238
C39	C	1.056104	-0.294078	-0.555775
C40	C	1.556104	0.205922	-0.055775
C41	C	0.946379	-0.294086	-0.555782
C42	C	1.446379	0.205914	-0.055782
C43	C	0.940886	-0.384006	-0.415758
C44	C	1.440886	0.115994	0.084242
C45	C	1.050609	-0.383995	-0.415747
C46	C	1.550609	0.116005	0.084253
C47	C	1.486877	-0.521907	-0.474742
C48	C	1.986877	-0.021907	0.025258
C49	C	1.482233	-0.600142	-0.470064
C50	C	1.982233	-0.100142	0.029936
C51	C	1.547210	-0.636823	-0.535115
C52	C	2.047210	-0.136823	-0.035115
C53	C	1.542842	-0.710332	-0.530722
C54	C	2.042842	-0.210332	-0.030722
C55	C	1.473501	-0.747160	-0.461272
C56	C	1.973501	-0.247160	0.038728
C57	C	1.408517	-0.710474	-0.396218
C58	C	1.908517	-0.210474	0.103782
C59	C	1.412880	-0.636966	-0.400617
C60	C	1.912880	-0.136966	0.099383
C61	C	1.453244	-0.967014	-0.440908
C62	C	1.953244	-0.467014	0.059092
C63	C	1.448887	-1.040528	-0.436511
C64	C	1.948887	-0.540528	0.063489
C65	C	1.583212	-1.040381	-0.571017
C66	C	2.083212	-0.540381	-0.071017
C67	C	1.587574	-0.966871	-0.575406
C68	C	2.087574	-0.466871	-0.075406
C69	C	1.522586	-0.930192	-0.510356
C70	C	2.022586	-0.430192	-0.010356
N71	N	1.469037	-0.822299	-0.456777
N72	N	1.969037	-0.322299	0.043223
N73	N	1.527045	-0.855054	-0.514857
N74	N	2.027045	-0.355054	-0.014857
C75	C	1.771991	-0.339045	-0.485773
C76	C	2.271991	0.160955	0.014227
C77	C	1.888767	-0.339050	-0.485779
C78	C	2.388767	0.160950	0.014221
C79	C	1.498041	-0.338965	-0.759795
C80	C	1.998041	0.161035	-0.259795
C81	C	1.498077	-0.338936	-0.876574
C82	C	1.998077	0.161064	-0.376574
C83	C	1.509112	-0.155443	-0.496840
C84	C	2.009112	0.344557	0.003160
C85	C	1.513865	-0.077209	-0.501562
C86	C	2.013865	0.422791	-0.001562
C87	C	1.568013	-0.293914	-0.934159
C88	C	2.068013	0.206086	-0.434159
C89	C	1.568033	-0.293883	-1.043885
C90	C	2.068033	0.206117	-0.543885
C91	C	1.428176	-0.383904	-1.038431
C92	C	1.928176	0.116096	-0.538431
C93	C	1.428152	-0.383930	-0.928707
C94	C	1.928152	0.116070	-0.428707
C95	C	1.497940	-0.339049	-0.212789
C96	C	1.997940	0.160951	0.287211
C97	C	1.498120	-0.338879	-0.096024
C98	C	1.998120	0.161121	0.403976
H99	H	1.103003	-0.257465	-0.612782
H100	H	1.603003	0.242535	-0.112782
H101	H	1.352054	-0.740465	-0.339675
H102	H	1.852054	-0.240465	0.160325
O103	O	1.646173	-1.076047	-0.634319
O104	O	2.146173	-0.576047	-0.134319
C105	C	1.655293	-1.158997	-0.771171
C106	C	2.155293	-0.658997	-0.271171
C107	C	1.583870	-1.118636	-0.699555
C108	C	2.083870	-0.618636	-0.199555
H109	H	1.604950	-1.193452	-0.823917
H110	H	2.104950	-0.693452	-0.323917
H111	H	1.705581	-1.120084	-0.821645
H112	H	2.205581	-0.620084	-0.321645
H113	H	1.708234	-1.193374	-0.720908
H114	H	2.208234	-0.693374	-0.220908
H115	H	1.530865	-1.084259	-0.749737
H116	H	2.030865	-0.584259	-0.249737
H117	H	1.533653	-1.157588	-0.649076
H118	H	2.033653	-0.657588	-0.149076
O119	O	1.349654	-0.601299	-0.337578
O120	O	1.849654	-0.101299	0.162422
C121	C	1.212780	-0.518362	-0.328294
C122	C	1.712780	-0.018362	0.171706
C123	C	1.284310	-0.558722	-0.399803
C124	C	1.784310	-0.058722	0.100197
H125	H	1.159947	-0.483917	-0.378573
H126	H	1.659947	0.016083	0.121427
H127	H	1.162395	-0.557275	-0.277918
H128	H	1.662395	-0.057275	0.222082
H129	H	1.263106	-0.483975	-0.275439
H130	H	1.763106	0.016025	0.224561
H131	H	1.234066	-0.593110	-0.452722
H132	H	1.734066	-0.093110	0.047278
H133	H	1.334701	-0.519770	-0.450108
H134	H	1.834701	-0.019770	0.049892
O135	O	1.636072	-0.250128	-1.099662
O136	O	2.136072	0.249872	-0.599662
C137	C	1.774748	-0.160816	-1.093486
C138	C	2.274748	0.339184	-0.593486
C139	C	1.697765	-0.210347	-1.030192
C140	C	2.197765	0.289653	-0.530192
H141	H	1.824632	-0.128630	-1.037348
H142	H	2.324632	0.371370	-0.537348
H143	H	1.827800	-0.193088	-1.142889
H144	H	2.327800	0.306912	-0.642889
H145	H	1.728744	-0.124023	-1.147096
H146	H	2.228744	0.375977	-0.647096
H147	H	1.743684	-0.247149	-0.976525
H148	H	2.243684	0.252851	-0.476525
H149	H	1.644712	-0.178031	-0.980858
H150	H	2.144712	0.321969	-0.480858
H151	H	0.903955	-0.257479	-0.612792
H152	H	1.403955	0.242521	-0.112792
O153	O	1.654898	-0.930991	-0.642785
O154	O	2.154898	-0.430991	-0.142785
C155	C	1.721095	-0.817683	-0.709223
C156	C	2.221095	-0.317683	-0.209223
C157	C	1.644819	-0.858230	-0.632853
C158	C	2.144819	-0.358230	-0.132853
H159	H	1.712957	-0.758849	-0.701235
H160	H	2.212957	-0.258849	-0.201235
H161	H	1.804994	-0.832041	-0.689990
H162	H	2.304994	-0.332041	-0.189990
H163	H	1.701751	-0.832148	-0.793045
H164	H	2.201751	-0.332148	-0.293045
H165	H	1.664068	-0.843786	-0.549005
H166	H	2.164068	-0.343786	-0.049005
H167	H	1.560942	-0.843868	-0.652176
H168	H	2.060942	-0.343868	-0.152176
H169	H	1.371248	-0.420538	-1.080891
H170	H	1.871248	0.079462	-0.580891
O171	O	1.360176	-0.427735	-0.872920
O172	O	1.860176	0.072265	-0.372920
C173	C	1.221418	-0.516992	-0.879081
C174	C	1.721418	-0.016992	-0.379081
C175	C	1.298359	-0.467436	-0.942387
C176	C	1.798359	0.032564	-0.442387
H177	H	1.171404	-0.549092	-0.935219
H178	H	1.671404	-0.049092	-0.435219
H179	H	1.267353	-0.553857	-0.825521
H180	H	1.767353	-0.053857	-0.325521
H181	H	1.168484	-0.484672	-0.829628
H182	H	1.668484	0.015328	-0.329628
H183	H	1.351312	-0.499699	-0.991901
H184	H	1.851312	0.000301	-0.491901
H185	H	1.252359	-0.430569	-0.995881
H186	H	1.752359	0.069431	-0.495881
H187	H	1.392417	-1.070511	-0.379956
H188	H	1.892417	-0.570511	0.120044
O189	O	1.614593	-0.601160	-0.602675
O190	O	2.114593	-0.101160	-0.102675
C191	C	1.747395	-0.608782	-0.735589
C192	C	2.247395	-0.108782	-0.235589
C193	C	1.671118	-0.649254	-0.659137
C194	C	2.171118	-0.149254	-0.159137
H195	H	1.793131	-0.647648	-0.781243
H196	H	2.293131	-0.147648	-0.281243
H197	H	1.701219	-0.574389	-0.792610
H198	H	2.201219	-0.074389	-0.292610
H199	H	1.804358	-0.574338	-0.689452
H200	H	2.304358	-0.074338	-0.189452
H201	H	1.614137	-0.683736	-0.705187
H202	H	2.114137	-0.183736	-0.205187
H203	H	1.717362	-0.683602	-0.602116
H204	H	2.217362	-0.183602	-0.102116
H205	H	1.400330	-0.937156	-0.387940
H206	H	1.900330	-0.437156	0.112060
H207	H	0.893970	-0.420613	-0.358755
H208	H	1.393970	0.079387	0.141245
H209	H	1.093038	-0.420602	-0.358728
H210	H	1.593038	0.079398	0.141272
H211	H	1.595761	-0.740194	-0.583685
H212	H	2.095761	-0.240194	-0.083685
H213	H	1.624947	-0.257275	-0.891716
H214	H	2.124947	0.242725	-0.391716
