data_functionalizedCrystal
_audit_creation_method	'MofGen! by Chris Wilmer'
_symmetry_space_group_name_H-M	'P1'
_symmetry_Int_Tables_number	1
_symmetry_cell_setting	triclinic
loop_
_symmetry_equiv_pos_as_xyz
  x,y,z
_cell_length_a	10.654550
_cell_length_b	14.421503
_cell_length_c	10.654551
_cell_angle_alpha	89.995698
_cell_angle_beta	84.485132
_cell_angle_gamma	89.996482
loop_
_atom_site_label
_atom_site_type_symbol
_atom_site_fract_x
_atom_site_fract_y
_atom_site_fract_z
O1	O	1.667822	0.077182	0.176389
O2	O	1.302343	0.077166	0.193195
O3	O	1.493485	0.077175	0.002053
O4	O	1.476680	0.077173	0.367531
O5	O	1.493508	-0.077049	0.002066
O6	O	1.302367	-0.077057	0.193208
O7	O	1.667845	-0.077042	0.176402
Cu8	Cu	1.485108	-0.091131	0.184806
Cu9	Cu	1.485080	0.091256	0.184791
O10	O	1.476704	-0.077050	0.367544
C11	C	1.255557	0.000053	0.191968
C12	C	1.116114	0.000047	0.188276
C13	C	1.036629	0.000060	0.300817
C14	C	0.905608	0.000076	0.297341
C15	C	0.933570	0.000070	0.068771
C16	C	1.064589	0.000047	0.072249
C17	C	1.088154	0.000060	0.416844
C18	C	1.008667	0.000074	0.529395
C19	C	0.877647	0.000090	0.525918
C20	C	0.826112	0.000092	0.409891
N21	N	1.485137	-0.219413	0.184816
C22	C	1.573540	-0.469037	0.096412
C23	C	1.459843	-0.530839	0.071033
C24	C	1.485109	-0.408574	0.184801
C25	C	1.598778	-0.530866	0.210106
C26	C	1.485092	-0.591295	0.184783
C27	C	1.371355	-0.469015	0.159364
C28	C	1.510364	-0.469037	0.298488
C29	C	1.396586	-0.530810	0.273156
C30	C	1.485120	-0.303313	0.184807
C31	C	1.485067	-0.696554	0.184777
C32	C	1.714632	0.000074	0.177629
C33	C	1.854075	0.000086	0.181321
C34	C	1.492263	0.000065	-0.044739
C35	C	1.488570	0.000071	-0.184182
N36	N	1.485062	0.219537	0.184771
C37	C	1.486825	0.084137	-0.249701
C38	C	1.483345	0.084132	-0.380721
C39	C	1.483360	-0.084011	-0.380693
C40	C	1.486831	-0.084005	-0.249674
C41	C	1.488564	0.168213	-0.184209
C42	C	1.486820	0.252285	-0.249728
C43	C	1.483340	0.252281	-0.380748
C44	C	1.481603	0.168204	-0.446249
C45	C	1.477926	0.000061	0.414336
C46	C	1.481619	0.000061	0.553779
H47	H	0.812931	0.000092	0.617562
H48	H	1.694913	-0.558035	0.231519
Br49	Br	1.480955	0.366376	-0.469663
H50	H	1.194836	0.000051	0.419687
H51	H	1.648243	-0.441914	0.021623
H52	H	0.719425	0.000090	0.407069
Br53	Br	1.078603	0.000056	0.686852
H54	H	1.478751	0.168207	-0.552933
Br55	Br	1.481003	-0.198107	-0.469586
H56	H	1.488225	-0.152459	-0.196324
H57	H	1.531777	-0.441869	0.394608
H58	H	0.891600	0.000087	-0.025693
Br59	Br	1.489169	0.366383	-0.160837
Br60	Br	1.172470	0.000024	-0.080488
H61	H	1.438466	-0.557987	-0.025117
H62	H	1.275196	-0.441960	0.137844
H63	H	1.491401	0.168226	-0.077526
H64	H	1.321714	-0.557762	0.347899
