data_functionalizedCrystal
_audit_creation_method	'MofGen! by Chris Wilmer'
_symmetry_space_group_name_H-M	'P1'
_symmetry_Int_Tables_number	1
_symmetry_cell_setting	triclinic
loop_
_symmetry_equiv_pos_as_xyz
  x,y,z
_cell_length_a	8.497374
_cell_length_b	8.497374
_cell_length_c	16.959455
_cell_angle_alpha	90.002432
_cell_angle_beta	90.001960
_cell_angle_gamma	90.005237
loop_
_atom_site_label
_atom_site_type_symbol
_atom_site_fract_x
_atom_site_fract_y
_atom_site_fract_z
Zn1	Zn	0.628458	0.892136	1.208395
Zn2	Zn	0.892204	0.628402	1.208389
Zn3	Zn	0.628417	0.628360	1.076251
Zn4	Zn	0.892176	0.892130	1.076232
O5	O	0.760314	0.760257	1.142317
O6	O	0.663473	0.857171	1.319005
O7	O	0.857207	0.407634	1.190866
O8	O	0.407660	0.663336	1.093791
O9	O	0.857246	0.663407	1.319001
O10	O	0.407690	0.857131	1.190877
O11	O	0.663404	0.407603	1.093785
O12	O	0.663377	0.663330	0.965638
O13	O	0.857198	1.112893	1.093759
O14	O	0.857159	0.857120	0.965624
O15	O	0.663446	1.112898	1.190858
O16	O	1.112962	0.663401	1.190848
O17	O	1.112942	0.857161	1.093753
C18	C	0.760262	0.760221	0.936951
C19	C	0.760277	0.760243	0.849094
C20	C	1.170194	0.760280	1.142307
C21	C	1.348838	0.760254	1.142328
C22	C	0.760316	1.171737	1.142311
C23	C	0.760333	1.350381	1.142313
C24	C	0.659329	0.659561	0.477601
C25	C	0.861429	0.861043	0.477636
C26	C	0.861406	0.861034	0.560182
C27	C	0.760345	0.760284	0.601441
C28	C	0.659306	0.659545	0.560155
C29	C	0.962454	0.961760	0.601474
C30	C	0.962437	0.961753	0.684025
C31	C	0.861366	0.861011	0.725286
C32	C	0.760322	0.760268	0.683995
C33	C	0.659261	0.659519	0.725254
C34	C	0.558208	0.558783	0.683964
C35	C	0.558236	0.558802	0.601416
C36	C	0.861339	0.860992	0.807834
C37	C	0.659239	0.659503	0.807808
C38	C	0.760367	0.760294	1.348485
C39	C	0.760390	0.760310	1.436342
H40	H	0.576932	0.577469	0.841396
H41	H	0.943619	0.943005	0.841449
O42	O	0.959812	0.958751	0.437599
C43	C	1.116988	0.924089	0.457797
H44	H	1.124771	0.798041	0.480477
H45	H	1.158327	1.008598	0.505727
C46	C	1.212763	1.097150	0.356623
C47	C	1.222325	0.942332	0.384473
H48	H	1.277743	1.108410	0.311395
H49	H	1.106871	1.120509	0.343017
H50	H	1.247210	1.167558	0.396571
H51	H	1.187860	0.871930	0.344528
H52	H	1.328214	0.918962	0.398070
O53	O	0.460263	0.460838	0.724136
C54	C	0.549926	0.358781	0.771866
H55	H	0.669569	0.414241	0.784234
H56	H	0.567070	0.241849	0.740046
C57	C	0.316141	0.262223	0.835088
C58	C	0.463085	0.330346	0.850284
H59	H	0.262572	0.244675	0.883459
H60	H	0.255732	0.330976	0.802930
H61	H	0.330449	0.164786	0.808570
H62	H	0.448774	0.427788	0.876792
H63	H	0.523489	0.261608	0.882448
O64	O	0.460307	0.460796	0.561267
C65	C	0.549972	0.358808	0.513500
H66	H	0.674193	0.348851	0.538393
H67	H	0.555519	0.407606	0.450946
C68	C	0.320051	0.207161	0.481625
C69	C	0.472618	0.194922	0.512203
H70	H	0.272334	0.106070	0.480821
H71	H	0.259640	0.275875	0.513804
H72	H	0.324694	0.247832	0.429499
H73	H	0.467972	0.154271	0.564331
H74	H	0.533027	0.126197	0.480033
H75	H	0.577050	0.577549	0.443979
H76	H	1.044743	1.043773	0.567874
H77	H	1.044719	1.043779	0.717636
