data_functionalizedCrystal
_audit_creation_method	'MofGen! by Chris Wilmer'
_symmetry_space_group_name_H-M	'P1'
_symmetry_Int_Tables_number	1
_symmetry_cell_setting	triclinic
loop_
_symmetry_equiv_pos_as_xyz
  x,y,z
_cell_length_a	12.759401
_cell_length_b	19.120786
_cell_length_c	12.759393
_cell_angle_alpha	92.477119
_cell_angle_beta	90.018567
_cell_angle_gamma	92.464298
loop_
_atom_site_label
_atom_site_type_symbol
_atom_site_fract_x
_atom_site_fract_y
_atom_site_fract_z
Zn1	Zn	1.588334	-0.279608	0.576098
Zn2	Zn	2.088334	0.220392	1.076098
Zn3	Zn	1.580698	-0.397085	0.392904
Zn4	Zn	2.080698	0.102915	0.892904
Zn5	Zn	1.412634	-0.279643	0.400435
Zn6	Zn	1.912634	0.220357	0.900435
Zn7	Zn	1.405098	-0.397028	0.568549
Zn8	Zn	1.905098	0.102972	1.068549
O9	O	1.496691	-0.338341	0.484496
O10	O	1.996691	0.161659	0.984496
O11	O	1.734341	-0.295201	0.551805
O12	O	2.234341	0.204799	1.051805
O13	O	1.558362	-0.381544	0.246879
O14	O	2.058362	0.118456	0.746879
O15	O	1.442290	-0.181347	0.430048
O16	O	1.942290	0.318653	0.930048
O17	O	1.728732	-0.381510	0.417213
O18	O	2.228732	0.118490	0.917213
O19	O	1.571376	-0.181322	0.559107
O20	O	2.071376	0.318678	1.059107
O21	O	1.434886	-0.295259	0.252412
O22	O	1.934886	0.204741	0.752412
O23	O	1.264614	-0.295205	0.422728
O24	O	1.764614	0.204795	0.922728
O25	O	1.429447	-0.381414	0.716574
O26	O	1.929447	0.118586	1.216574
O27	O	1.259077	-0.381448	0.546240
O28	O	1.759077	0.118552	1.046240
O29	O	1.564069	-0.295146	0.722120
O30	O	2.064069	0.204854	1.222120
O31	O	1.551056	-0.495368	0.409892
O32	O	2.051056	0.004632	0.909892
O33	O	1.422043	-0.495327	0.538938
O34	O	1.922043	0.004673	1.038938
C35	C	1.223725	-0.338324	0.484483
C36	C	1.723725	0.161676	0.984483
C37	C	1.106947	-0.338334	0.484501
C38	C	1.606947	0.161666	0.984501
C39	C	1.054994	-0.293478	0.554682
C40	C	1.554994	0.206522	1.054682
C41	C	0.945269	-0.293491	0.554687
C42	C	1.445269	0.206509	1.054687
C43	C	0.939460	-0.383224	0.414328
C44	C	1.439460	0.116776	0.914328
C45	C	1.049183	-0.383206	0.414318
C46	C	1.549183	0.116794	0.914318
C47	C	1.112758	-0.248606	0.624864
C48	C	1.612758	0.251394	1.124864
C49	C	1.060805	-0.203746	0.695052
C50	C	1.560805	0.296254	1.195052
C51	C	0.951080	-0.203759	0.695057
C52	C	1.451080	0.296241	1.195057
C53	C	0.893308	-0.248633	0.624876
C54	C	1.393308	0.251367	1.124876
C55	C	1.484932	-0.520833	0.472801
C56	C	1.984932	-0.020833	0.972801
C57	C	1.479997	-0.598904	0.467833
C58	C	1.979997	-0.098904	0.967833
C59	C	1.544837	-0.635508	0.532748
C60	C	2.044837	-0.135508	1.032748
C61	C	1.540196	-0.708864	0.528082
C62	C	2.040196	-0.208864	1.028082
C63	C	1.470720	-0.745614	0.458495
C64	C	1.970720	-0.245614	0.958495
C65	C	1.405873	-0.709005	0.393578
C66	C	1.905873	-0.209005	0.893578
C67	C	1.410509	-0.635650	0.398250
C68	C	1.910509	-0.135650	0.898250
C69	C	1.453357	-0.967101	0.441028
C70	C	1.953357	-0.467101	0.941028
C71	C	1.448728	-1.040461	0.436359
C72	C	1.948728	-0.540461	0.936359
C73	C	1.583050	-1.040315	0.570865
C74	C	2.083050	-0.540315	1.070865
C75	C	1.587685	-0.966959	0.575526
C76	C	2.087685	-0.466959	1.075526
C77	C	1.522834	-0.930356	0.510613
C78	C	2.022834	-0.430356	1.010613
C79	C	1.465977	-0.820596	0.453721
C80	C	1.965977	-0.320596	0.953721
C81	C	1.527572	-0.855376	0.515393
C82	C	2.027572	-0.355376	1.015393
C83	C	1.770723	-0.338358	0.484511
C84	C	2.270723	0.161642	0.984511
C85	C	1.887499	-0.338365	0.484517
C86	C	2.387499	0.161635	0.984517
C87	C	1.496769	-0.338270	0.758534
C88	C	1.996769	0.161730	1.258534
C89	C	1.496802	-0.338240	0.875313
C90	C	1.996802	0.161760	1.375313
C91	C	1.508525	-0.155136	0.496260
C92	C	2.008525	0.344864	0.996260
C93	C	1.513568	-0.077065	0.501273
C94	C	2.013568	0.422935	1.001273
C95	C	1.496677	-0.338361	0.211528
C96	C	1.996677	0.161639	0.711528
C97	C	1.496860	-0.338193	0.094762
C98	C	1.996860	0.161807	0.594762
C99	C	1.566910	-0.293316	0.933065
C100	C	2.066910	0.206684	1.433065
C101	C	1.566936	-0.293290	1.042791
C102	C	2.066936	0.206710	1.542791
C103	C	1.426745	-0.383119	1.037002
C104	C	1.926745	0.116881	1.537002
C105	C	1.426714	-0.383141	0.927279
C106	C	1.926714	0.116859	1.427279
C107	C	1.636998	-0.248415	0.881099
C108	C	2.136998	0.251585	1.381099
C109	C	1.707112	-0.203488	0.938852
C110	C	2.207112	0.296512	1.438852
C111	C	1.707139	-0.203462	1.048577
C112	C	2.207139	0.296538	1.548577
C113	C	1.637051	-0.248364	1.100551
C114	C	2.137051	0.251636	1.600551
H115	H	1.107849	-0.167208	0.752185
H116	H	1.607849	0.332792	1.252185
H117	H	1.764168	-0.166926	0.896528
H118	H	2.264168	0.333074	1.396528
H119	H	0.908783	-0.167227	0.752200
H120	H	1.408783	0.332773	1.252200
H121	H	1.601416	-0.605591	0.589408
H122	H	2.101416	-0.105591	1.089408
H123	H	1.091485	-0.419733	0.357171
H124	H	1.591485	0.080267	0.857171
H125	H	1.593004	-0.738664	0.580934
H126	H	2.093004	-0.238664	1.080934
H127	H	0.892414	-0.419759	0.357192
H128	H	1.392414	0.080241	0.857192
H129	H	1.644258	-0.937038	0.632189
H130	H	2.144258	-0.437038	1.132189
H131	H	0.803964	-0.248625	0.624865
H132	H	1.303964	0.251375	1.124865
H133	H	1.392147	-1.070381	0.379692
H134	H	1.892147	-0.570381	0.879692
H135	H	1.409412	-0.850526	0.397060
H136	H	1.909412	-0.350526	0.897060
H137	H	1.764221	-0.166875	1.095597
H138	H	2.264221	0.333125	1.595597
H139	H	1.369611	-0.419711	0.880257
H140	H	1.869611	0.080289	1.380257
H141	H	1.400555	-0.937305	0.388171
H142	H	1.900555	-0.437305	0.888171
H143	H	1.349300	-0.738933	0.336923
H144	H	1.849300	-0.238933	0.836923
H145	H	1.635847	-1.070125	0.623714
H146	H	2.135847	-0.570125	1.123714
H147	H	1.357708	-0.605848	0.345391
H148	H	1.857708	-0.105848	0.845391
H149	H	1.584136	-0.825452	0.572054
H150	H	2.084136	-0.325452	1.072054
H151	H	1.636986	-0.248432	0.791755
H152	H	2.136986	0.251568	1.291755
H153	H	1.637067	-0.248332	1.189898
H154	H	2.137067	0.251668	1.689898
H155	H	1.369683	-0.419676	1.079328
H156	H	1.869683	0.080324	1.579328
H157	H	1.202102	-0.248589	0.624867
H158	H	1.702102	0.251411	1.124867
