data_functionalizedCrystal
_audit_creation_method	'MofGen! by Chris Wilmer'
_symmetry_space_group_name_H-M	'P1'
_symmetry_Int_Tables_number	1
_symmetry_cell_setting	triclinic
loop_
_symmetry_equiv_pos_as_xyz
  x,y,z
_cell_length_a	13.339070
_cell_length_b	15.944551
_cell_length_c	11.804365
_cell_angle_alpha	101.830656
_cell_angle_beta	74.875130
_cell_angle_gamma	99.564016
loop_
_atom_site_label
_atom_site_type_symbol
_atom_site_fract_x
_atom_site_fract_y
_atom_site_fract_z
O1	O	1.362759	0.408901	-0.099080
O2	O	1.068226	0.353629	-0.099072
O3	O	1.223533	0.260866	-0.099066
O4	O	1.207452	0.501664	-0.099087
O5	O	1.182647	0.285253	0.098989
O6	O	1.027340	0.378016	0.098982
O7	O	1.321872	0.433288	0.098974
Cu8	Cu	1.170873	0.407879	0.117062
Cu9	Cu	1.219226	0.379038	-0.117160
O10	O	1.166565	0.526051	0.098968
C11	C	1.010093	0.356486	-0.000044
C12	C	0.897788	0.328657	-0.000040
C13	C	0.533018	0.545045	-0.000078
C14	C	0.638534	0.571194	-0.000085
C15	C	0.703352	0.510562	-0.000073
C16	C	0.662645	0.423776	-0.000055
C17	C	0.557121	0.397622	-0.000058
C18	C	0.727455	0.363140	-0.000053
C19	C	0.686748	0.276354	-0.000035
C20	C	0.581234	0.250205	-0.000037
C21	C	0.516415	0.310837	-0.000048
C22	C	0.832980	0.389293	-0.000051
C23	C	0.857083	0.241871	-0.000031
C24	C	0.751567	0.215721	-0.000024
C25	C	1.202422	0.241610	-0.000038
C26	C	1.200420	0.147897	-0.000038
C27	C	1.099370	-0.090508	-0.000051
C28	C	1.126136	-0.128567	0.097600
C29	C	1.196800	-0.023674	-0.000047
C30	C	1.166470	-0.152588	-0.097666
C31	C	1.193297	-0.189405	-0.000060
C32	C	1.223576	-0.060489	0.097685
C33	C	1.263915	-0.084518	-0.097668
C34	C	1.290747	-0.122540	0.000007
C35	C	1.198815	0.071799	-0.000038
C36	C	1.191288	-0.284874	-0.000061
C37	C	1.380006	0.430430	-0.000057
C38	C	1.492312	0.458259	-0.000068
C39	C	1.187677	0.545307	-0.000062
C40	C	1.189681	0.639019	-0.000071
N41	N	1.136871	0.428165	0.281801
N42	N	1.253235	0.358748	-0.281899
C43	C	1.334885	0.310017	0.655758
C44	C	1.360606	0.294667	0.531097
C45	C	1.304674	0.328040	0.468767
C46	C	1.223018	0.376766	0.531110
C47	C	1.197300	0.392123	0.655783
C48	C	1.167089	0.410146	0.468792
C49	C	1.085432	0.458872	0.531135
C50	C	1.059718	0.474226	0.655795
C51	C	1.115650	0.440854	0.718126
C52	C	1.192807	0.394789	0.344119
C53	C	1.055221	0.476895	0.344144
C54	C	1.029500	0.492245	0.468805
H55	H	0.789268	0.531858	-0.000082
H56	H	1.009678	0.504072	0.293396
C57	C	1.047172	-0.242923	0.208389
C58	C	1.047503	-0.154960	0.209049
H59	H	0.998627	-0.259213	0.277194
H60	H	1.027528	-0.275648	0.139055
H61	H	1.115136	-0.253560	0.208492
H62	H	0.979540	-0.144325	0.208938
H63	H	1.067141	-0.122225	0.278402
C64	C	0.392838	0.220709	-0.101853
C65	C	0.400427	0.282092	-0.000046
H66	H	0.321231	0.202963	-0.101846
H67	H	0.426512	0.245348	-0.170907
H68	H	0.425614	0.172179	-0.101837
H69	H	0.367658	0.330625	-0.000066
H70	H	0.366739	0.257454	0.069027
H71	H	1.380423	0.282855	0.706515
H72	H	0.993236	0.513910	0.706555
H73	H	0.671672	0.641854	-0.000109
H74	H	1.094705	0.453348	0.819635
H75	H	0.480236	0.594401	-0.000097
H76	H	0.866112	0.459956	-0.000061
C77	C	0.615657	0.107111	-0.000004
C78	C	0.536487	0.154809	-0.000021
H79	H	0.588029	0.048219	0.000013
H80	H	0.670568	0.111869	-0.069067
H81	H	0.642052	0.128892	0.069066
H82	H	0.510097	0.133032	-0.069096
H83	H	0.481557	0.150046	0.069048
H84	H	1.142292	-0.192437	-0.180228
H85	H	0.963014	0.531919	0.519580
H86	H	0.718410	0.145057	-0.000019
C87	C	1.029532	0.216499	-0.000008
C88	C	0.928321	0.175216	-0.000015
H89	H	1.073512	0.175352	0.000006
H90	H	1.056126	0.242560	-0.069072
H91	H	1.027597	0.259573	0.069060
H92	H	0.930255	0.132146	-0.069088
H93	H	0.901720	0.149141	0.069057
H94	H	1.018477	-0.076032	0.000049
H95	H	1.371679	-0.136831	0.000060
C96	C	1.257649	0.081053	0.208285
C97	C	1.256122	-0.006820	0.209263
H98	H	1.277732	0.114185	0.277172
H99	H	1.306323	0.096426	0.139035
H100	H	1.189920	0.092145	0.208004
H101	H	1.323853	-0.017913	0.209535
H102	H	1.207446	-0.022198	0.278531
C103	C	1.312427	-0.105228	-0.311285
C104	C	1.342505	-0.058103	-0.209122
H105	H	1.360939	-0.088915	-0.380097
H106	H	1.311276	-0.165122	-0.312482
H107	H	1.244673	-0.093592	-0.310569
H108	H	1.410256	-0.069744	-0.209834
H109	H	1.343668	0.001806	-0.207925
C110	C	1.260061	0.258518	0.305856
C111	C	1.282541	0.341200	0.275648
H112	H	1.315457	0.225424	0.263593
H113	H	1.252725	0.262922	0.389022
H114	H	1.196762	0.231130	0.285421
H115	H	1.345837	0.368591	0.296092
H116	H	1.289890	0.336799	0.192464
C117	C	1.494010	0.215050	0.543605
C118	C	1.450352	0.241104	0.462574
H119	H	1.549413	0.181975	0.501297
H120	H	1.520368	0.264499	0.592212
H121	H	1.441858	0.180991	0.592246
H122	H	1.502503	0.275168	0.413939
H123	H	1.423995	0.191647	0.413946
H124	H	1.325620	0.315540	0.367263
