data_functionalizedCrystal
_audit_creation_method	'MofGen! by Chris Wilmer'
_symmetry_space_group_name_H-M	'P1'
_symmetry_Int_Tables_number	1
_symmetry_cell_setting	triclinic
loop_
_symmetry_equiv_pos_as_xyz
  x,y,z
_cell_length_a	15.944551
_cell_length_b	10.540539
_cell_length_c	9.616153
_cell_angle_alpha	90.000094
_cell_angle_beta	89.988942
_cell_angle_gamma	95.987885
loop_
_atom_site_label
_atom_site_type_symbol
_atom_site_fract_x
_atom_site_fract_y
_atom_site_fract_z
O1	O	1.115503	-0.163707	-0.115774
O2	O	0.871074	-0.183891	-0.115747
O3	O	0.998865	0.010984	-0.115759
O4	O	0.987712	-0.358581	-0.115761
O5	O	0.998848	0.010979	0.115532
O6	O	0.871056	-0.183895	0.115545
O7	O	1.115486	-0.163711	0.115517
Zn8	Zn	0.993268	-0.173804	0.152254
Zn9	Zn	0.993292	-0.173798	-0.152483
O10	O	0.987695	-0.358586	0.115530
C11	C	0.998020	0.058273	-0.000116
C12	C	0.995518	0.199187	-0.000123
C13	C	0.839766	-0.183055	-0.000097
C14	C	0.746505	-0.180543	-0.000087
C15	C	1.146794	-0.164547	-0.000135
C16	C	1.240055	-0.167059	-0.000154
C17	C	1.455667	-0.293856	-0.000123
C18	C	1.516345	-0.234974	-0.114161
C19	C	1.410807	-0.171604	-0.000134
C20	C	1.516305	-0.234949	0.113874
C21	C	1.575746	-0.176002	-0.000109
C22	C	1.470257	-0.112688	-0.114266
C23	C	1.470211	-0.112680	0.113872
C24	C	1.530870	-0.053709	-0.000193
C25	C	1.315790	-0.169073	-0.000150
C26	C	1.670763	-0.178523	-0.000103
C27	C	0.988540	-0.405875	-0.000116
C28	C	0.991042	-0.546789	-0.000118
N29	N	0.993259	-0.173807	0.360228
C30	C	0.899630	0.381308	-0.000631
C31	C	0.902167	0.234725	-0.000111
C32	C	1.040432	0.261454	0.131951
C33	C	1.037246	0.407955	0.132062
C34	C	1.039165	0.408504	-0.130960
C35	C	1.040025	0.261534	-0.132706
N36	N	0.993308	-0.173785	-0.360457
C37	C	0.924690	-0.277708	0.580605
C38	C	0.924841	-0.278092	0.419437
C39	C	1.081078	-0.202745	0.418667
C40	C	1.080704	-0.203479	0.579885
C41	C	0.974883	-0.040618	0.580143
C42	C	0.972867	-0.041511	0.418916
H43	H	1.422966	-0.395332	-0.000238
H44	H	1.019532	0.039445	0.378617
N45	N	1.125405	0.232303	-0.142699
N46	N	1.176646	0.265480	-0.047846
H47	H	1.236949	0.244831	-0.054891
H48	H	1.106592	0.456648	-0.131856
N49	N	1.541881	-0.299811	0.234839
N50	N	1.591322	-0.242432	0.320240
H51	H	1.609383	-0.288246	0.405668
N52	N	1.571711	0.073699	-0.000236
N53	N	1.558682	0.148132	0.096750
H54	H	1.587525	0.238114	0.096718
H55	H	1.536775	-0.286682	-0.210568
N56	N	1.444830	-0.047861	-0.235355
N57	N	1.472469	0.065913	-0.256242
H58	H	1.454511	0.111695	-0.341762
H59	H	1.133401	-0.130772	0.618868
H60	H	1.449763	-0.061019	0.210288
H61	H	1.133386	-0.129069	0.380309
N62	N	1.001273	0.447591	-0.256530
N63	N	0.938333	0.508882	-0.251111
H64	H	0.911564	0.536491	-0.339789
N65	N	0.857827	0.180687	-0.118881
N66	N	0.824786	0.251224	-0.202736
H67	H	0.793464	0.213066	-0.286618
N68	N	0.853385	0.416582	-0.119444
N69	N	0.840667	0.530453	-0.137431
H70	H	0.808007	0.555375	-0.221349
N71	N	0.939652	-0.402087	0.371046
N72	N	0.949918	-0.488609	0.456341
H73	H	0.960365	-0.576193	0.422168
N74	N	0.853554	0.418583	0.117529
N75	N	0.887747	0.497872	0.202115
H76	H	0.855209	0.524201	0.285568
N77	N	0.857502	0.181741	0.118871
N78	N	0.824362	0.253037	0.201790
H79	H	0.792817	0.215620	0.285829
H80	H	1.097552	-0.298758	0.378274
N81	N	0.842870	-0.257081	0.369890
N82	N	0.785152	-0.242014	0.454378
H83	H	0.727213	-0.227412	0.419394
N84	N	0.995569	0.442747	0.255914
N85	N	0.921267	0.397691	0.279358
H86	H	0.891829	0.422255	0.366830
H87	H	1.104382	0.456838	0.138047
H88	H	0.912198	-0.012792	0.620887
H89	H	0.936380	-0.375972	0.621101
N90	N	0.998845	0.209620	-0.255271
N91	N	0.936949	0.127008	-0.245124
H92	H	0.907863	0.090336	-0.331683
H93	H	1.108986	0.240033	0.136854
H94	H	1.009218	0.218428	0.230243
H95	H	0.859234	-0.260746	0.619423
N96	N	1.100924	-0.325313	0.627024
N97	N	1.115210	-0.409210	0.540856
H98	H	1.129490	-0.495260	0.574140
H99	H	0.908262	-0.019550	0.380724
N100	N	1.037647	0.056389	0.627962
N101	N	1.095725	0.027752	0.705449
H102	H	1.140054	0.096254	0.739230
