data_functionalizedCrystal
_audit_creation_method	'MofGen! by Chris Wilmer'
_symmetry_space_group_name_H-M	'P1'
_symmetry_Int_Tables_number	1
_symmetry_cell_setting	triclinic
loop_
_symmetry_equiv_pos_as_xyz
  x,y,z
_cell_length_a	14.044220
_cell_length_b	14.044220
_cell_length_c	13.101039
_cell_angle_alpha	86.332523
_cell_angle_beta	86.340132
_cell_angle_gamma	86.811122
loop_
_atom_site_label
_atom_site_type_symbol
_atom_site_fract_x
_atom_site_fract_y
_atom_site_fract_z
O1	O	1.281968	-0.225348	-0.085109
O2	O	1.005298	-0.217041	-0.085135
O3	O	1.139480	-0.082860	-0.085112
O4	O	1.147787	-0.359530	-0.085132
O5	O	1.129854	-0.092504	0.085316
O6	O	0.995673	-0.226686	0.085293
O7	O	1.272343	-0.234993	0.085319
Zn8	Zn	1.132479	-0.232371	0.112365
Zn9	Zn	1.145162	-0.219663	-0.112181
O10	O	1.138161	-0.369175	0.085296
C11	C	0.964864	-0.218228	0.000076
C12	C	0.858722	-0.207383	0.000066
C13	C	0.664383	-0.187558	0.000088
C14	C	0.613253	-0.264472	0.000087
C15	C	0.505116	-0.253441	0.000099
C16	C	0.772529	-0.198587	0.000076
C17	C	1.131031	-0.052060	0.000102
C18	C	1.120187	0.054083	0.000102
C19	C	1.312777	-0.233806	0.000106
C20	C	1.418920	-0.244651	0.000109
C21	C	1.146610	-0.399974	0.000080
C22	C	1.157455	-0.506116	0.000073
N23	N	1.123831	-0.241043	0.265612
C24	C	1.100362	0.248421	0.000086
C25	C	1.177276	0.299551	0.000090
C26	C	1.166245	0.407688	0.000080
C27	C	1.111391	0.140275	0.000095
N28	N	1.153817	-0.210984	-0.265428
C29	C	1.112065	-0.252851	0.474653
C30	C	1.165580	-0.199179	0.525538
C31	C	1.159034	-0.205749	0.641855
C32	C	1.118610	-0.246282	0.358325
H33	H	1.251413	0.262115	0.000028
H34	H	1.061336	-0.303733	0.518442
C35	C	1.282294	-0.082135	0.536037
C36	C	1.234076	-0.130489	0.466428
H37	H	1.324576	-0.039729	0.499540
H38	H	1.317739	-0.127067	0.577881
H39	H	1.237267	-0.046801	0.577888
H40	H	1.279104	-0.165828	0.424582
H41	H	1.198630	-0.085551	0.424566
H42	H	0.626945	-0.113431	0.000099
C43	C	0.762687	-0.356250	0.000012
C44	C	0.663790	-0.364549	0.000038
H45	H	0.793888	-0.418031	-0.000034
H46	H	0.777288	-0.325942	0.059453
H47	H	0.783957	-0.319161	-0.059412
H48	H	0.642518	-0.401633	0.059467
H49	H	0.649182	-0.394872	-0.059408
H50	H	1.026235	0.285859	0.000076
