data_functionalizedCrystal
_audit_creation_method	'MofGen! by Chris Wilmer'
_symmetry_space_group_name_H-M	'P1'
_symmetry_Int_Tables_number	1
_symmetry_cell_setting	triclinic
loop_
_symmetry_equiv_pos_as_xyz
  x,y,z
_cell_length_a	14.044209
_cell_length_b	15.186229
_cell_length_c	16.109301
_cell_angle_alpha	89.995060
_cell_angle_beta	91.675283
_cell_angle_gamma	89.998028
loop_
_atom_site_label
_atom_site_type_symbol
_atom_site_fract_x
_atom_site_fract_y
_atom_site_fract_z
O1	O	-1.257645	-0.073128	0.200427
O2	O	-0.757645	0.426872	0.700427
O3	O	-0.981678	-0.073153	0.193196
O4	O	-0.481678	0.426847	0.693196
O5	O	-1.127242	-0.073130	0.076344
O6	O	-0.627242	0.426870	0.576344
O7	O	-1.112080	-0.073150	0.317278
O8	O	-0.612080	0.426850	0.817278
O9	O	-1.127232	0.073327	0.076342
O10	O	-0.627232	0.573327	0.576342
O11	O	-0.981667	0.073305	0.193194
O12	O	-0.481667	0.573305	0.693194
O13	O	-1.257635	0.073330	0.200425
O14	O	-0.757635	0.573330	0.700425
Zn15	Zn	-1.119649	0.096570	0.196809
Zn16	Zn	-0.619649	0.596570	0.696809
Zn17	Zn	-1.119663	-0.096393	0.196811
Zn18	Zn	-0.619663	0.403607	0.696811
O19	O	-1.112070	0.073307	0.317276
O20	O	-0.612070	0.573307	0.817276
C21	C	-0.946359	0.000073	0.190029
C22	C	-0.446359	0.500073	0.690029
C23	C	-0.841136	0.000064	0.180586
C24	C	-0.341136	0.500064	0.680586
N25	N	-1.119647	0.228263	0.196807
N26	N	-0.619647	0.728263	0.696807
C27	C	-0.648480	0.000081	0.163322
C28	C	-0.148480	0.500081	0.663322
C29	C	-0.590826	0.000078	0.230302
C30	C	-0.090826	0.500078	0.730302
C31	C	-0.483625	0.000088	0.220696
C32	C	0.016375	0.500088	0.720696
C33	C	-0.755690	0.000071	0.172927
C34	C	-0.255690	0.500071	0.672927
C35	C	-1.184124	0.453996	0.145087
C36	C	-0.684124	0.953996	0.645087
C37	C	-1.184127	0.546185	0.145085
C38	C	-0.684127	1.046185	0.645085
C39	C	-1.055185	0.546175	0.248533
C40	C	-0.555185	1.046175	0.748533
C41	C	-1.055179	0.453987	0.248530
C42	C	-0.555179	0.953987	0.748530
C43	C	-1.119654	0.407900	0.196808
C44	C	-0.619654	0.907900	0.696808
C45	C	-1.119663	0.592277	0.196810
C46	C	-0.619663	1.092277	0.696810
C47	C	-1.119665	0.692233	0.196809
C48	C	-0.619665	1.192233	0.696809
C49	C	-1.119650	0.307937	0.196808
C50	C	-0.619650	0.807937	0.696808
C51	C	-0.292953	0.000100	0.203593
C52	C	0.207047	0.500100	0.703593
C53	C	-0.398175	0.000095	0.213041
C54	C	0.101825	0.500095	0.713041
C55	C	-1.126623	0.000099	0.045323
C56	C	-0.626623	0.500099	0.545323
C57	C	-1.124782	0.000100	-0.047110
C58	C	-0.624782	0.500100	0.452890
N59	N	-1.119669	0.771914	0.196811
N60	N	-0.619669	1.271914	0.696811
C61	C	-1.206875	0.000093	-0.263275
C62	C	-0.706875	0.500093	0.236725
C63	C	-1.205138	0.000086	-0.350125
C64	C	-0.705138	0.500086	0.149875
C65	C	-1.032430	0.000074	-0.343099
C66	C	-0.532430	0.500074	0.156901
C67	C	-1.034169	0.000075	-0.256251
C68	C	-0.534169	0.500075	0.243749
C69	C	-1.121394	0.000089	-0.216341
C70	C	-0.621394	0.500089	0.283659
C71	C	-1.117918	0.000080	-0.390039
C72	C	-0.617918	0.500080	0.109961
C73	C	-1.116034	0.000072	-0.484205
C74	C	-0.616034	0.500072	0.015795
C75	C	-1.123279	0.000095	-0.122169
C76	C	-0.623279	0.500095	0.377831
C77	C	-1.112689	0.000077	0.348298
C78	C	-0.612689	0.500077	0.848298
C79	C	-1.114531	0.000070	0.440730
C80	C	-0.614531	0.500070	0.940730
H81	H	-0.621977	0.000069	0.294859
H82	H	-0.121977	0.500069	0.794859
H83	H	-0.617330	0.000090	0.098770
H84	H	-0.117330	0.500090	0.598770
H85	H	-1.002692	0.583708	0.290646
H86	H	-0.502692	1.083708	0.790646
H87	H	-1.274745	0.000087	-0.388335
H88	H	-0.774745	0.500087	0.111665
H89	H	-1.277900	0.000103	-0.230783
H90	H	-0.777900	0.500103	0.269217
H91	H	-0.961414	0.000064	-0.375604
H92	H	-0.461414	0.500064	0.124396
H93	H	-1.236622	0.416474	0.102970
H94	H	-0.736622	0.916474	0.602970
H95	H	-0.964555	0.000069	-0.218035
H96	H	-0.464555	0.500069	0.281965
H97	H	-1.002674	0.416453	0.290648
H98	H	-0.502674	0.916453	0.790648
O99	O	-1.246847	0.590826	0.094821
O100	O	-0.746847	1.090826	0.594821
C101	C	-1.303731	0.530376	0.049156
C102	C	-0.803731	1.030376	0.549156
H103	H	-1.304786	0.464658	0.083323
H104	H	-0.804786	0.964658	0.583323
H105	H	-1.379430	0.557011	0.042123
H106	H	-0.879430	1.057011	0.542123
H107	H	-1.272978	0.520577	-0.014904
H108	H	-0.772978	1.020577	0.485096
