data_functionalizedCrystal
_audit_creation_method	'MofGen! by Chris Wilmer'
_symmetry_space_group_name_H-M	'P1'
_symmetry_Int_Tables_number	1
_symmetry_cell_setting	triclinic
loop_
_symmetry_equiv_pos_as_xyz
  x,y,z
_cell_length_a	17.019282
_cell_length_b	17.038272
_cell_length_c	14.048226
_cell_angle_alpha	89.993466
_cell_angle_beta	93.874761
_cell_angle_gamma	87.241387
loop_
_atom_site_label
_atom_site_type_symbol
_atom_site_fract_x
_atom_site_fract_y
_atom_site_fract_z
O1	O	1.053361	0.099546	0.007218
O2	O	1.553361	0.599546	0.507218
O3	O	0.824549	0.112259	-0.011547
O4	O	1.324549	0.612259	0.488453
O5	O	0.937595	-0.007912	-0.002269
O6	O	1.437595	0.492088	0.497731
O7	O	0.940315	0.219716	-0.002061
O8	O	1.440315	0.719716	0.497939
O9	O	0.937580	-0.007919	0.156051
O10	O	1.437580	0.492081	0.656051
O11	O	0.824534	0.112252	0.146773
O12	O	1.324534	0.612252	0.646773
O13	O	1.053346	0.099539	0.165538
O14	O	1.553346	0.599539	0.665538
Zn15	Zn	0.938938	0.105894	0.181292
Zn16	Zn	1.438938	0.605894	0.681292
Zn17	Zn	0.938958	0.105903	-0.027301
Zn18	Zn	1.438958	0.605903	0.472699
O19	O	0.940300	0.219709	0.156259
O20	O	1.440300	0.719709	0.656259
C21	C	0.795121	0.111775	0.065200
C22	C	1.295121	0.611775	0.565200
C23	C	0.707454	0.110336	0.058010
C24	C	1.207454	0.610336	0.558010
C25	C	0.935114	-0.037041	0.076688
C26	C	1.435114	0.462959	0.576688
C27	C	0.927734	-0.123828	0.076083
C28	C	1.427734	0.376172	0.576083
C29	C	0.666264	0.109654	0.140935
C30	C	1.166264	0.609654	0.640935
C31	C	0.583893	0.108288	0.134182
C32	C	1.083893	0.608288	0.634182
C33	C	0.542712	0.107611	0.044504
C34	C	1.042712	0.607611	0.544504
C35	C	0.583907	0.108291	-0.038427
C36	C	1.083907	0.608291	0.461573
C37	C	0.666278	0.109650	-0.031674
C38	C	1.166278	0.609650	0.468326
C39	C	0.294007	0.103501	0.019795
C40	C	0.794007	0.603501	0.519795
C41	C	0.211631	0.102144	0.013047
C42	C	0.711631	0.602144	0.513047
C43	C	0.211622	0.102140	0.185658
C44	C	0.711622	0.602140	0.685658
C45	C	0.293994	0.103504	0.192403
C46	C	0.793994	0.603504	0.692403
C47	C	0.335182	0.104180	0.109472
C48	C	0.835182	0.604180	0.609472
C49	C	0.458515	0.106218	0.037599
C50	C	0.958515	0.606218	0.537599
C51	C	0.419378	0.105567	0.116378
C52	C	0.919378	0.605567	0.616378
C53	C	0.995494	-0.174004	0.081641
C54	C	1.495494	0.325996	0.581641
C55	C	0.988554	-0.255548	0.081063
C56	C	1.488554	0.244452	0.581063
C57	C	0.913854	-0.286914	0.074933
C58	C	1.413854	0.213086	0.574933
C59	C	0.846090	-0.236732	0.069372
C60	C	1.346090	0.263268	0.569372
C61	C	0.853030	-0.155189	0.069943
C62	C	1.353030	0.344811	0.569943
C63	C	0.889337	-0.532650	0.072910
C64	C	1.389337	-0.032650	0.572910
C65	C	0.882402	-0.614199	0.072341
C66	C	1.382402	-0.114199	0.572341
C67	C	1.024867	-0.633009	0.084031
C68	C	1.524867	-0.133009	0.584031
C69	C	1.031801	-0.551464	0.084607
C70	C	1.531801	-0.051464	0.584607
C71	C	0.964036	-0.501289	0.079041
C72	C	1.464036	-0.001289	0.579041
C73	C	0.906760	-0.370265	0.074345
C74	C	1.406760	0.129735	0.574345
C75	C	0.971131	-0.417939	0.079622
C76	C	1.471131	0.082061	0.579622
C77	C	1.082775	0.100022	0.088789
C78	C	1.582775	0.600022	0.588789
C79	C	1.170442	0.101462	0.095972
C80	C	1.670442	0.601462	0.595972
C81	C	0.942781	0.248839	0.077300
C82	C	1.442781	0.748839	0.577300
C83	C	0.950162	0.335625	0.077900
C84	C	1.450162	0.835625	0.577900
N85	N	0.938930	0.105887	0.323652
N86	N	1.438930	0.605887	0.823652
N87	N	0.938971	0.105904	-0.169661
N88	N	1.438971	0.605904	0.330339
C89	C	0.989005	0.052698	0.377580
C90	C	1.489005	0.552698	0.877580
C91	C	0.989010	0.052697	0.477238
C92	C	1.489010	0.552697	0.977238
C93	C	0.938944	0.105891	0.522967
C94	C	1.438944	0.605891	1.022967
C95	C	0.888863	0.159083	0.469031
C96	C	1.388863	0.659083	0.969031
C97	C	0.888855	0.159079	0.369375
C98	C	1.388855	0.659079	0.869375
C99	C	0.888887	0.159089	0.676747
C100	C	1.388887	0.659089	1.176747
C101	C	0.888896	0.159094	0.776411
C102	C	1.388896	0.659094	1.276411
C103	C	0.989042	0.052707	0.784611
C104	C	1.489042	0.552707	1.284611
C105	C	0.989033	0.052703	0.684955
C106	C	1.489033	0.552703	1.184955
C107	C	0.938954	0.105896	0.631026
C108	C	1.438954	0.605896	1.131026
H109	H	0.699787	0.110212	0.213961
H110	H	1.199787	0.610212	0.713961
Cl111	Cl	0.825951	0.225967	0.833890
Cl112	Cl	1.325951	0.725967	1.333890
H113	H	0.848103	0.202402	0.632841
H114	H	1.348103	0.702402	1.132841
H115	H	0.821569	-0.639734	0.067365
H116	H	1.321569	-0.139734	0.567365
H117	H	1.043732	-0.296398	0.085591
H118	H	1.543732	0.203602	0.585591
Cl119	Cl	0.345758	0.104361	0.305147
Cl120	Cl	0.845758	0.604361	0.805147
H121	H	0.550372	0.107734	-0.111445
H122	H	1.050372	0.607734	0.388555
Cl123	Cl	0.825918	0.225953	0.526516
Cl124	Cl	1.325918	0.725953	1.026516
Cl125	Cl	0.804145	-0.469583	0.065909
Cl126	Cl	1.304145	0.030417	0.565909
Cl127	Cl	0.718059	0.110504	-0.135927
Cl128	Cl	1.218059	0.610504	0.364073
H129	H	0.327533	0.104049	-0.047734
H130	H	0.827533	0.604049	0.452266
H131	H	0.550361	0.107720	0.201709
H132	H	1.050361	0.607720	0.701709
Cl133	Cl	0.159838	0.101287	0.289907
Cl134	Cl	0.659838	0.601287	0.789907
Cl135	Cl	1.051954	-0.014175	0.320105
Cl136	Cl	1.551954	0.485825	0.820105
H137	H	0.848077	0.202390	0.325467
H138	H	1.348077	0.702390	0.825467
H139	H	0.178104	0.101594	-0.059983
H140	H	0.678104	0.601594	0.440017
Cl141	Cl	0.471150	0.106416	0.229112
Cl142	Cl	0.971150	0.606416	0.729112
Cl143	Cl	1.089407	-0.134580	0.089357
Cl144	Cl	1.589407	0.365420	0.589357
Cl145	Cl	0.406740	0.105332	-0.075136
Cl146	Cl	0.906740	0.605332	0.424864
Cl147	Cl	1.125713	-0.512038	0.092283
Cl148	Cl	1.625713	-0.012038	0.592283
H149	H	1.080037	-0.673870	0.088561
H150	H	1.580037	-0.173870	0.588561
H151	H	1.029818	0.009395	0.828526
H152	H	1.529818	0.509395	1.328526
Cl153	Cl	0.767842	-0.092110	0.062952
Cl154	Cl	1.267842	0.407890	0.562952
Cl155	Cl	0.752181	-0.276164	0.061654
Cl156	Cl	1.252181	0.223836	0.561654
H157	H	1.031952	-0.392397	0.084592
H158	H	1.531952	0.107603	0.584592
Cl159	Cl	0.812854	-0.409705	0.066635
Cl160	Cl	1.312854	0.090295	0.566635
H161	H	1.029785	0.009386	0.521147
H162	H	1.529785	0.509386	1.021147
H163	H	1.029805	0.009392	0.647723
H164	H	1.529805	0.509392	1.147723
