data_functionalizedCrystal
_audit_creation_method	'MofGen! by Chris Wilmer'
_symmetry_space_group_name_H-M	'P1'
_symmetry_Int_Tables_number	1
_symmetry_cell_setting	triclinic
loop_
_symmetry_equiv_pos_as_xyz
  x,y,z
_cell_length_a	18.215405
_cell_length_b	18.215407
_cell_length_c	18.215399
_cell_angle_alpha	89.980167
_cell_angle_beta	89.969449
_cell_angle_gamma	90.025333
loop_
_atom_site_label
_atom_site_type_symbol
_atom_site_fract_x
_atom_site_fract_y
_atom_site_fract_z
Zn1	Zn	-0.292983	1.125072	-0.416103
Zn2	Zn	0.040350	1.458405	-0.082769
Zn3	Zn	0.373684	1.791739	0.250564
Zn4	Zn	-0.416054	1.124980	-0.293031
Zn5	Zn	-0.082721	1.458314	0.040303
Zn6	Zn	0.250612	1.791647	0.373636
Zn7	Zn	-0.293007	1.002005	-0.293050
Zn8	Zn	0.040326	1.335338	0.040283
Zn9	Zn	0.373660	1.668671	0.373617
Zn10	Zn	-0.416013	1.001970	-0.416056
Zn11	Zn	-0.082680	1.335304	-0.082722
Zn12	Zn	0.250653	1.668637	0.250611
O13	O	-0.354514	1.063507	-0.354560
O14	O	-0.021181	1.396840	-0.021226
O15	O	0.312152	1.730173	0.312107
O16	O	-0.309316	1.228044	-0.399788
O17	O	0.024018	1.561377	-0.066455
O18	O	0.357351	1.894711	0.266878
O19	O	-0.399759	1.108643	-0.190049
O20	O	-0.066426	1.441977	0.143284
O21	O	0.266908	1.775310	0.476618
O22	O	-0.190020	1.018382	-0.309401
O23	O	0.143314	1.351716	0.023933
O24	O	0.476647	1.685049	0.357266
O25	O	-0.399736	1.227977	-0.309368
O26	O	-0.066402	1.561310	0.023965
O27	O	0.266931	1.894643	0.357299
O28	O	-0.190002	1.108799	-0.399807
O29	O	0.143331	1.442133	-0.066474
O30	O	0.476665	1.775466	0.266860
O31	O	-0.309357	1.018293	-0.190063
O32	O	0.023977	1.351627	0.143270
O33	O	0.357310	1.684960	0.476604
O34	O	-0.309317	0.899016	-0.309355
O35	O	0.024016	1.232349	0.023978
O36	O	0.357350	1.565682	0.357311
O37	O	-0.399666	1.018324	-0.519046
O38	O	-0.066333	1.351657	-0.185713
O39	O	0.267001	1.684991	0.147621
O40	O	-0.399689	0.898991	-0.399727
O41	O	-0.066356	1.232324	-0.066394
O42	O	0.266977	1.565657	0.266940
O43	O	-0.309276	1.108766	-0.519081
O44	O	0.024057	1.442100	-0.185747
O45	O	0.357391	1.775433	0.147586
O46	O	-0.519033	1.108610	-0.309322
O47	O	-0.185700	1.441944	0.024011
O48	O	0.147634	1.775277	0.357344
O49	O	-0.519003	1.018235	-0.399708
O50	O	-0.185670	1.351569	-0.066375
O51	O	0.147664	1.684902	0.266958
C52	C	-0.354502	0.872301	-0.354539
C53	C	-0.021169	1.205634	-0.021205
C54	C	0.312165	1.538967	0.312128
C55	C	-0.354514	0.790502	-0.354547
C56	C	-0.021181	1.123835	-0.021214
C57	C	0.312152	1.457168	0.312120
C58	C	-0.401645	0.602314	-0.401544
C59	C	-0.068312	0.935647	-0.068211
C60	C	0.265022	1.268981	0.265122
C61	C	-0.401647	0.525455	-0.401554
C62	C	-0.068314	0.858789	-0.068220
C63	C	0.265019	1.192122	0.265113
C64	C	-0.307397	0.525452	-0.307591
C65	C	0.025936	0.858785	0.025742
C66	C	0.359269	1.192118	0.359076
C67	C	-0.307392	0.602309	-0.307586
C68	C	0.025942	0.935642	0.025747
C69	C	0.359275	1.268976	0.359081
C70	C	-0.354520	0.640738	-0.354562
C71	C	-0.021186	0.974071	-0.021228
C72	C	0.312147	1.307405	0.312105
C73	C	-0.354528	0.487022	-0.354576
C74	C	-0.021194	0.820355	-0.021242
C75	C	0.312139	1.153689	0.312091
C76	C	-0.354530	0.403688	-0.354585
C77	C	-0.021196	0.737022	-0.021252
C78	C	0.312137	1.070355	0.312081
C79	C	-0.354517	0.724077	-0.354553
C80	C	-0.021184	1.057410	-0.021220
C81	C	0.312150	1.390744	0.312113
C82	C	-0.545721	1.063429	-0.354524
C83	C	-0.212387	1.396762	-0.021191
C84	C	0.120946	1.730096	0.312142
C85	C	-0.627520	1.063463	-0.354534
C86	C	-0.294186	1.396797	-0.021200
C87	C	0.039147	1.730130	0.312133
C88	C	-0.815705	1.110632	-0.307556
C89	C	-0.482371	1.443965	0.025777
C90	C	-0.149038	1.777299	0.359110
C91	C	-0.892563	1.110665	-0.307574
C92	C	-0.559230	1.443998	0.025759
C93	C	-0.225897	1.777331	0.359092
C94	C	-0.892572	1.016476	-0.401616
C95	C	-0.559239	1.349809	-0.068283
C96	C	-0.225905	1.683143	0.265051
C97	C	-0.815715	1.016447	-0.401601
C98	C	-0.482381	1.349781	-0.068268
C99	C	-0.149048	1.683114	0.265065
C100	C	-0.777283	1.063524	-0.354567
C101	C	-0.443950	1.396857	-0.021234
C102	C	-0.110616	1.730191	0.312099
C103	C	-0.930999	1.063586	-0.354600
C104	C	-0.597666	1.396919	-0.021266
C105	C	-0.264332	1.730252	0.312067
C106	C	-1.014333	1.063621	-0.354619
C107	C	-0.680999	1.396954	-0.021286
C108	C	-0.347666	1.730288	0.312047
C109	C	-0.693944	1.063490	-0.354548
C110	C	-0.360611	1.396823	-0.021215
C111	C	-0.027277	1.730157	0.312118
C112	C	-0.162561	1.063605	-0.354611
C113	C	0.170772	1.396938	-0.021278
C114	C	0.504105	1.730272	0.312055
C115	C	-0.080763	1.063647	-0.354633
C116	C	0.252571	1.396980	-0.021300
C117	C	0.585904	1.730313	0.312033
C118	C	-0.354464	1.063552	-0.546513
C119	C	-0.021130	1.396885	-0.213179
C120	C	0.312203	1.730218	0.120154
C121	C	-0.354442	1.063571	-0.628312
C122	C	-0.021109	1.396904	-0.294978
C123	C	0.312225	1.730237	0.038355
C124	C	-0.354528	1.255460	-0.354581
C125	C	-0.021194	1.588793	-0.021248
C126	C	0.312139	1.922126	0.312085
C127	C	-0.354533	1.337259	-0.354591
C128	C	-0.021200	1.670592	-0.021257
C129	C	0.312133	2.003925	0.312076
C130	C	-0.307332	1.110681	-0.816525
C131	C	0.026001	1.444014	-0.483191
C132	C	0.359335	1.777348	-0.149858
C133	C	-0.307311	1.110690	-0.893384
C134	C	0.026023	1.444023	-0.560050
C135	C	0.359356	1.777356	-0.226717
C136	C	-0.401438	1.016513	-0.893336
C137	C	-0.068105	1.349846	-0.560003
C138	C	0.265228	1.683179	-0.226670
C139	C	-0.401455	1.016501	-0.816479
C140	C	-0.068122	1.349834	-0.483146
C141	C	0.265211	1.683167	-0.149812
C142	C	-0.354403	1.063589	-0.778075
C143	C	-0.021070	1.396922	-0.444742
C144	C	0.312263	1.730256	-0.111409
C145	C	-0.354365	1.063610	-0.931791
C146	C	-0.021031	1.396943	-0.598458
C147	C	0.312302	1.730276	-0.265125
C148	C	-0.354342	1.063619	-1.015125
C149	C	-0.021009	1.396952	-0.681792
C150	C	0.312325	1.730286	-0.348458
C151	C	-0.354425	1.063579	-0.694736
C152	C	-0.021092	1.396912	-0.361403
C153	C	0.312241	1.730246	-0.028070
C154	C	-0.354512	1.063504	-0.163353
C155	C	-0.021179	1.396838	0.169980
C156	C	0.312155	1.730171	0.503313
C157	C	-0.354326	1.063628	-0.081555
C158	C	-0.020993	1.396961	0.251778
C159	C	0.312340	1.730295	0.585112
H160	H	-0.269012	0.633595	-0.269327
H161	H	0.064321	0.966928	0.064006
H162	H	0.397654	1.300262	0.397340
H163	H	-0.269017	1.149021	-0.785259
H164	H	0.064316	1.482355	-0.451925
H165	H	0.397649	1.815688	-0.118592
H166	H	-0.440020	0.494174	-0.439813
H167	H	-0.106687	0.827507	-0.106480
H168	H	0.226646	1.160840	0.226854
H169	H	-0.269028	0.494153	-0.269344
H170	H	0.064305	0.827487	0.063989
H171	H	0.397638	1.160820	0.397323
H172	H	-0.784430	0.978086	-0.439887
H173	H	-0.451096	1.311420	-0.106553
H174	H	-0.117763	1.644753	0.226780
H175	H	-0.268979	1.149035	-0.924686
H176	H	0.064354	1.482369	-0.591353
H177	H	0.397687	1.815702	-0.258019
H178	H	-0.784415	1.148966	-0.269260
H179	H	-0.451082	1.482299	0.064074
H180	H	-0.117749	1.815632	0.397407
H181	H	-0.923843	1.149026	-0.269294
H182	H	-0.590510	1.482359	0.064039
H183	H	-0.257176	1.815692	0.397372
H184	H	-0.439748	0.978177	-0.924614
H185	H	-0.106415	1.311510	-0.591281
H186	H	0.226919	1.644843	-0.257947
Br187	Br	-0.465336	0.952579	-0.764292
Br188	Br	-0.132003	1.285912	-0.430959
Br189	Br	0.201330	1.619245	-0.097626
Br190	Br	-0.944734	0.952588	-0.465444
Br191	Br	-0.611401	1.285921	-0.132110
Br192	Br	-0.278067	1.619255	0.201223
H193	H	-0.440018	0.633601	-0.439797
H194	H	-0.106684	0.966934	-0.106464
H195	H	0.226649	1.300267	0.226870
