data_functionalizedCrystal
_audit_creation_method	'MofGen! by Chris Wilmer'
_symmetry_space_group_name_H-M	'P1'
_symmetry_Int_Tables_number	1
_symmetry_cell_setting	triclinic
loop_
_symmetry_equiv_pos_as_xyz
  x,y,z
_cell_length_a	16.120530
_cell_length_b	19.121063
_cell_length_c	19.120904
_cell_angle_alpha	94.741613
_cell_angle_beta	89.648943
_cell_angle_gamma	89.687057
loop_
_atom_site_label
_atom_site_type_symbol
_atom_site_fract_x
_atom_site_fract_y
_atom_site_fract_z
Zn1	Zn	1.233120	-0.352205	-0.464728
Zn2	Zn	1.733120	0.147795	0.035272
Zn3	Zn	1.233018	-0.464847	-0.352074
Zn4	Zn	1.733018	0.035153	0.147926
Zn5	Zn	1.100521	-0.341281	-0.341171
Zn6	Zn	1.600521	0.158719	0.158829
Zn7	Zn	1.088106	-0.463353	-0.463237
Zn8	Zn	1.588106	0.036647	0.036763
O9	O	1.163691	-0.405421	-0.405303
O10	O	1.663691	0.094579	0.094697
O11	O	1.349246	-0.372344	-0.454972
O12	O	1.849246	0.127656	0.045028
O13	O	1.220595	-0.444510	-0.252398
O14	O	1.720595	0.055490	0.247602
O15	O	1.123350	-0.244501	-0.353623
O16	O	1.623350	0.255499	0.146377
O17	O	1.349170	-0.455102	-0.372206
O18	O	1.849170	0.044898	0.127794
O19	O	1.220770	-0.252527	-0.444400
O20	O	1.720770	0.247473	0.055600
O21	O	1.123250	-0.353726	-0.244387
O22	O	1.623250	0.146274	0.255613
O23	O	0.982735	-0.352277	-0.352176
O24	O	1.482735	0.147723	0.147824
O25	O	1.102189	-0.452555	-0.561665
O26	O	1.602189	0.047445	-0.061665
O27	O	0.973614	-0.441963	-0.441857
O28	O	1.473614	0.058037	0.058143
O29	O	1.208731	-0.370895	-0.562761
O30	O	1.708731	0.129105	-0.062761
O31	O	1.208556	-0.562877	-0.370759
O32	O	1.708556	-0.062877	0.129241
O33	O	1.102090	-0.561780	-0.452429
O34	O	1.602090	-0.061780	0.047571
C35	C	0.948061	-0.395773	-0.395672
C36	C	1.448061	0.104227	0.104328
C37	C	0.855811	-0.391663	-0.391570
C38	C	1.355811	0.108337	0.108430
C39	C	0.686911	-0.384143	-0.384085
C40	C	1.186911	0.115857	0.115915
C41	C	0.641307	-0.426754	-0.426574
C42	C	1.141307	0.073246	0.073426
C43	C	0.547325	-0.422569	-0.422410
C44	C	1.047325	0.077431	0.077590
C45	C	0.780901	-0.388326	-0.388248
C46	C	1.280901	0.111674	0.111752
C47	C	1.153986	-0.587800	-0.412632
C48	C	1.653986	-0.087800	0.087368
C49	C	1.149909	-0.665826	-0.415794
C50	C	1.649909	-0.165826	0.084206
C51	C	1.203464	-0.703035	-0.374797
C52	C	1.703464	-0.203035	0.125203
C53	C	1.199634	-0.776350	-0.377776
C54	C	1.699634	-0.276350	0.122224
C55	C	1.142244	-0.812454	-0.421747
C56	C	1.642244	-0.312454	0.078253
C57	C	1.088687	-0.775240	-0.462749
C58	C	1.588687	-0.275240	0.037251
C59	C	1.092521	-0.701927	-0.459774
C60	C	1.592521	-0.201927	0.040226
C61	C	1.127895	-1.033784	-0.432859
C62	C	1.627895	-0.533784	0.067141
C63	C	1.124063	-1.107102	-0.435830
C64	C	1.624063	-0.607102	0.064170
C65	C	1.235011	-1.108207	-0.350857
C66	C	1.735011	-0.608207	0.149143
C67	C	1.238837	-1.034892	-0.347883
C68	C	1.738837	-0.534892	0.152117
C69	C	1.185283	-0.997685	-0.388887
C70	C	1.685283	-0.497685	0.111113
C71	C	1.138326	-0.887393	-0.424791
C72	C	1.638326	-0.387393	0.075209
C73	C	1.189205	-0.922748	-0.385846
C74	C	1.689205	-0.422748	0.114154
C75	C	1.380164	-0.415108	-0.414971
C76	C	1.880164	0.084892	0.085029
C77	C	1.472411	-0.419236	-0.419091
C78	C	1.972411	0.080764	0.080909
C79	C	1.154087	-0.412777	-0.588395
C80	C	1.654087	0.087223	-0.088395
C81	C	1.149994	-0.415911	-0.666419
C82	C	1.649994	0.084089	-0.166419
C83	C	1.173456	-0.222332	-0.397961
C84	C	1.673456	0.277668	0.102039
C85	C	1.177618	-0.144311	-0.394833
C86	C	1.677618	0.355689	0.105167
C87	C	1.203538	-0.374870	-0.703646
C88	C	1.703538	0.125130	-0.203646
C89	C	1.199683	-0.377812	-0.776956
C90	C	1.699683	0.122188	-0.276956
C91	C	1.142285	-0.421799	-0.813039
C92	C	1.642285	0.078201	-0.313039
C93	C	1.088735	-0.462842	-0.775806
C94	C	1.588735	0.037158	-0.275806
C95	C	1.092587	-0.459896	-0.702497
C96	C	1.592587	0.040104	-0.202497
C97	C	1.127875	-0.432818	-1.034357
C98	C	1.627875	0.067182	-0.534357
C99	C	1.124028	-0.435763	-1.107672
C100	C	1.624028	0.064237	-0.607672
C101	C	1.234975	-0.350731	-1.108817
C102	C	1.734975	0.149269	-0.608817
C103	C	1.238826	-0.347792	-1.035506
C104	C	1.738826	0.152208	-0.535506
C105	C	1.185273	-0.388832	-0.998280
C106	C	1.685273	0.111168	-0.498280
C107	C	1.138345	-0.424809	-0.887974
C108	C	1.638345	0.075191	-0.387974
C109	C	1.189210	-0.385818	-0.923346
C110	C	1.689210	0.114182	-0.423346
C111	C	1.173309	-0.398046	-0.222922
C112	C	1.673309	0.101954	0.277078
C113	C	1.177573	-0.394721	-0.144899
C114	C	1.677573	0.105279	0.355101
H115	H	0.655372	-0.344524	-0.344583
H116	H	1.155372	0.155476	0.155417
H117	H	1.041998	-0.498655	-0.805190
H118	H	1.541998	0.001345	-0.305190
H119	H	1.243286	-0.344393	-0.807264
H120	H	1.743286	0.155607	-0.307264
F121	F	1.035523	-0.662327	-0.503410
F122	F	1.535523	-0.162327	-0.003410
H123	H	1.041962	-0.804642	-0.498555
H124	H	1.541962	-0.304642	0.001445
F125	F	1.250285	-0.884322	-0.339053
F126	F	1.750285	-0.384322	0.160947
H127	H	1.048977	-0.493309	-0.672186
H128	H	1.548977	0.006691	-0.172186
H129	H	1.243243	-0.806642	-0.344391
H130	H	1.743243	-0.306642	0.155609
F131	F	1.291965	-0.307054	-1.148441
F132	F	1.791965	0.192946	-0.648441
H133	H	1.235939	-0.350000	-0.893964
H134	H	1.735939	0.150000	-0.393964
F135	F	0.682530	-0.478539	-0.478214
F136	F	1.182530	0.021461	0.021786
H137	H	1.285568	-1.005498	-0.312078
H138	H	1.785568	-0.505498	0.187922
F139	F	1.292007	-1.147811	-0.307224
F140	F	1.792007	-0.647811	0.192776
F141	F	1.264541	-0.664616	-0.327991
F142	F	1.764541	-0.164616	0.172009
H143	H	1.091615	-0.460627	-0.917360
H144	H	1.591615	0.039373	-0.417360
F145	F	1.062970	-1.145525	-0.482625
F146	F	1.562970	-0.645525	0.017375
H147	H	1.084287	-1.003496	-0.466245
H148	H	1.584287	-0.503496	0.033755
H149	H	1.091598	-0.916797	-0.460592
H150	H	1.591598	-0.416797	0.039408
H151	H	1.250280	-0.339052	-0.674273
H152	H	1.750280	0.160948	-0.174273
F153	F	1.299916	-0.300974	-0.997110
F154	F	1.799916	0.199026	-0.497110
F155	F	1.062933	-0.482580	-1.146071
F156	F	1.562933	0.017420	-0.646071
H157	H	1.084280	-0.466247	-1.004057
H158	H	1.584280	0.033753	-0.504057
