data_functionalizedCrystal
_audit_creation_method	'MofGen! by Chris Wilmer'
_symmetry_space_group_name_H-M	'P1'
_symmetry_Int_Tables_number	1
_symmetry_cell_setting	triclinic
loop_
_symmetry_equiv_pos_as_xyz
  x,y,z
_cell_length_a	14.853567
_cell_length_b	17.038272
_cell_length_c	13.330367
_cell_angle_alpha	89.995338
_cell_angle_beta	89.995418
_cell_angle_gamma	87.373243
loop_
_atom_site_label
_atom_site_type_symbol
_atom_site_fract_x
_atom_site_fract_y
_atom_site_fract_z
O1	O	1.204051	0.102086	-0.083355
O2	O	0.942507	0.114247	-0.083372
O3	O	1.071724	-0.005651	-0.083356
O4	O	1.074833	0.221984	-0.083372
O5	O	1.071704	-0.005654	0.083491
O6	O	0.942486	0.114244	0.083475
O7	O	1.204031	0.102083	0.083492
Cu8	Cu	1.073257	0.108164	0.098718
Cu9	Cu	1.073281	0.108167	-0.098598
O10	O	1.074813	0.221981	0.083476
C11	C	0.908866	0.113695	0.000049
C12	C	0.808658	0.112043	0.000043
C13	C	1.068887	-0.034784	0.000067
C14	C	1.060451	-0.121588	0.000067
C15	C	0.390240	0.033841	0.000071
C16	C	0.379678	0.176283	0.000060
C17	C	0.473828	0.177835	0.000056
C18	C	0.526189	0.107390	0.000059
C19	C	0.484399	0.035392	0.000064
C20	C	0.515626	0.249832	0.000041
C21	C	0.609782	0.251388	0.000036
C22	C	0.662144	0.180941	0.000046
C23	C	0.620349	0.108940	0.000052
C24	C	0.672709	0.038495	0.000055
C25	C	0.630915	-0.033507	0.000068
C26	C	0.536762	-0.035055	0.000074
C27	C	0.756298	0.182489	0.000040
C28	C	0.766869	0.040045	0.000048
C29	C	1.137904	-0.171601	0.000073
C30	C	1.129972	-0.253162	0.000063
C31	C	1.044586	-0.284709	0.000054
C32	C	0.967127	-0.234690	0.000045
C33	C	0.975060	-0.153130	0.000047
C34	C	1.016561	-0.530503	0.000038
C35	C	1.008634	-0.612069	0.000038
C36	C	1.171480	-0.630535	0.000055
C37	C	1.179405	-0.548974	0.000063
C38	C	1.101946	-0.498962	0.000049
C39	C	1.036476	-0.368077	0.000047
C40	C	1.110056	-0.415595	0.000049
C41	C	1.237671	0.102636	0.000068
C42	C	1.337879	0.104287	0.000068
C43	C	1.077651	0.251114	0.000050
C44	C	1.086087	0.337918	0.000044
N45	N	1.073246	0.108161	0.237499
N46	N	1.073298	0.108163	-0.237380
C47	C	1.016059	0.161237	0.710115
C48	C	1.130526	0.055091	0.710098
C49	C	1.130516	0.055088	0.605079
C50	C	1.073277	0.108162	0.552574
C51	C	1.016049	0.161237	0.605087
C52	C	1.187750	0.002019	0.552558
C53	C	1.187743	0.002015	0.447534
C54	C	1.130499	0.055085	0.395026
C55	C	1.073267	0.108162	0.447546
C56	C	1.016028	0.161236	0.395041
C57	C	0.958791	0.214310	0.447558
C58	C	0.958805	0.214308	0.552580
C59	C	1.130485	0.055087	0.290005
C60	C	1.016018	0.161237	0.290012
H61	H	0.809495	-0.017321	0.000054
H62	H	1.234357	-0.041188	0.595312
H63	H	0.911989	-0.112410	0.000042
H64	H	1.234542	-0.671263	0.000064
H65	H	0.953488	-0.489793	0.000027
H66	H	0.912205	0.257519	0.595346
H67	H	0.912191	0.257526	0.404796
C68	C	1.193437	-0.003284	0.232235
H69	H	1.185237	0.004320	0.162168
H70	H	1.179655	-0.055486	0.249457
H71	H	1.254264	0.005315	0.249431
H72	H	0.472987	0.307185	0.000029
H73	H	1.248935	-0.523295	0.000071
C74	C	1.203977	-0.380900	0.000061
H75	H	1.248975	-0.422364	0.000061
H76	H	1.210441	-0.349469	0.058245
H77	H	1.210463	-0.349465	-0.058129
H78	H	0.502724	-0.093675	0.000109
C79	C	0.873204	-0.269389	0.000037
H80	H	0.879571	-0.325126	0.000048
H81	H	0.841054	-0.252226	-0.058147
H82	H	0.841047	-0.252230	0.058227
H83	H	1.193043	-0.293879	0.000070
H84	H	1.234347	-0.041201	0.404780
C85	C	0.802268	0.261680	0.000022
H86	H	0.757599	0.303412	0.000022
H87	H	0.838782	0.265242	-0.058163
H88	H	0.838773	0.265249	0.058211
H89	H	0.673560	-0.090863	0.000063
C90	C	0.953106	0.219616	0.767878
H91	H	0.961310	0.212020	0.837946
H92	H	0.892282	0.211030	0.750675
H93	H	0.966904	0.271820	0.750658
H94	H	0.966954	-0.393771	0.000041
C95	C	0.914705	-0.646769	0.000011
H96	H	0.869709	-0.605303	-0.000009
H97	H	0.908209	-0.678207	0.058191
H98	H	0.908249	-0.678197	-0.058183
H99	H	1.177133	0.011884	0.752851
C100	C	0.344272	-0.045354	0.000081
H101	H	0.280698	-0.036193	0.000080
H102	H	0.361876	-0.074366	0.058263
H103	H	0.361874	-0.074359	-0.058110
C104	C	0.322085	0.253766	0.000059
H105	H	0.260024	0.242531	0.000069
H106	H	0.335345	0.283289	-0.058123
H107	H	0.335341	0.283278	0.058251
H108	H	0.969403	0.204453	0.247269
H109	H	0.643802	0.310016	0.000025
H110	H	1.207434	-0.145922	0.000086
