data_functionalizedCrystal
_audit_creation_method	'MofGen! by Chris Wilmer'
_symmetry_space_group_name_H-M	'P1'
_symmetry_Int_Tables_number	1
_symmetry_cell_setting	triclinic
loop_
_symmetry_equiv_pos_as_xyz
  x,y,z
_cell_length_a	12.811457
_cell_length_b	11.792241
_cell_length_c	11.892095
_cell_angle_alpha	93.915739
_cell_angle_beta	91.498327
_cell_angle_gamma	84.118185
loop_
_atom_site_label
_atom_site_type_symbol
_atom_site_fract_x
_atom_site_fract_y
_atom_site_fract_z
O1	O	1.390087	0.156591	0.048503
O2	O	1.723420	0.489924	0.381836
O3	O	2.056753	0.823258	0.715169
O4	O	1.086807	0.170827	0.017409
O5	O	1.420140	0.504160	0.350743
O6	O	1.753474	0.837494	0.684076
O7	O	1.245806	-0.001417	0.033718
O8	O	1.579139	0.331916	0.367052
O9	O	1.912473	0.665249	0.700385
O10	O	1.231088	0.328835	0.032194
O11	O	1.564421	0.662169	0.365527
O12	O	1.897754	0.995502	0.698860
O13	O	1.232549	0.012922	0.220366
O14	O	1.565882	0.346255	0.553699
O15	O	1.899216	0.679588	0.887033
O16	O	1.073550	0.185166	0.204057
O17	O	1.406883	0.518500	0.537390
O18	O	1.740216	0.851833	0.870724
O19	O	1.376830	0.170930	0.235150
O20	O	1.710163	0.504263	0.568484
O21	O	2.043496	0.837597	0.901817
Zn22	Zn	1.223085	0.180325	0.249238
Zn23	Zn	1.556418	0.513658	0.582571
Zn24	Zn	1.889751	0.846991	0.915905
Zn25	Zn	1.240552	0.161432	0.003322
Zn26	Zn	1.573885	0.494766	0.336655
Zn27	Zn	1.907218	0.828099	0.669988
O28	O	1.217830	0.343174	0.218841
O29	O	1.551164	0.676508	0.552175
O30	O	1.884497	1.009841	0.885508
C31	C	1.041352	0.176760	0.106752
C32	C	1.374685	0.510093	0.440086
C33	C	1.708018	0.843426	0.773419
C34	C	0.925661	0.173060	0.094892
C35	C	1.258994	0.506393	0.428225
C36	C	1.592328	0.839726	0.761558
C37	C	0.693812	0.181720	0.276110
C38	C	1.027145	0.515053	0.609443
C39	C	1.360479	0.848387	0.942777
C40	C	0.585110	0.178244	0.264971
C41	C	0.918443	0.511577	0.598305
C42	C	1.251776	0.844910	0.931638
C43	C	0.599553	0.162623	0.061477
C44	C	0.932887	0.495956	0.394810
C45	C	1.266220	0.829289	0.728143
C46	C	0.708256	0.166099	0.072615
C47	C	1.041589	0.499432	0.405949
C48	C	1.374922	0.832766	0.739282
C49	C	0.755380	0.175649	0.179935
C50	C	1.088714	0.508983	0.513269
C51	C	1.422047	0.842316	0.846602
C52	C	0.864084	0.179134	0.191073
C53	C	1.197417	0.512467	0.524406
C54	C	1.530750	0.845801	0.857740
C55	C	0.878526	0.163505	-0.012420
C56	C	1.211860	0.496838	0.320913
C57	C	1.545193	0.830171	0.654246
C58	C	0.769824	0.160028	-0.023559
C59	C	1.103157	0.493362	0.309774
C60	C	1.436491	0.826695	0.643108
C61	C	1.238253	-0.036544	0.126947
C62	C	1.571586	0.296789	0.460280
C63	C	1.904920	0.630122	0.793614
C64	C	1.235485	-0.162574	0.126662
C65	C	1.568819	0.170759	0.459996
C66	C	1.902152	0.504092	0.793329
C67	C	1.230398	-0.393318	0.126122
C68	C	1.563731	-0.059985	0.459455
C69	C	1.897065	0.273349	0.792788
C70	C	1.233225	-0.264915	0.126422
C71	C	1.566558	0.068418	0.459755
C72	C	1.899891	0.401751	0.793088
C73	C	1.422285	0.164997	0.145805
C74	C	1.755618	0.498331	0.479138
C75	C	2.088952	0.831664	0.812471
C76	C	1.537976	0.168697	0.157658
C77	C	1.871310	0.502030	0.490991
C78	C	2.204643	0.835363	0.824325
C79	C	1.225384	0.378301	0.125610
C80	C	1.558717	0.711635	0.458943
C81	C	1.892050	1.044968	0.792277
C82	C	1.228152	0.504331	0.125887
C83	C	1.561485	0.837664	0.459221
C84	C	1.894818	1.170997	0.792554
N85	N	1.211172	0.193218	0.417070
N86	N	1.544505	0.526551	0.750403
N87	N	1.877838	0.859884	1.083737
N88	N	1.252473	0.148531	-0.164510
N89	N	1.585806	0.481864	0.168824
N90	N	1.919140	0.815197	0.502157
C91	C	1.335369	0.058751	0.666457
C92	C	1.668703	0.392084	0.999791
C93	C	2.002036	0.725418	1.333124
C94	C	1.327050	0.067771	0.783946
C95	C	1.660383	0.401105	1.117279
C96	C	1.993716	0.734438	1.450613
C97	C	1.186209	0.220273	0.769537
C98	C	1.519542	0.553606	1.102871
C99	C	1.852875	0.886939	1.436204
C100	C	1.194528	0.211252	0.652049
C101	C	1.527862	0.544586	0.985382
C102	C	1.861195	0.877919	1.318715
C103	C	1.269112	0.130490	0.600513
C104	C	1.602445	0.463823	0.933847
C105	C	1.935779	0.797157	1.267180
C106	C	1.277436	0.121476	0.483023
C107	C	1.610769	0.454809	0.816356
C108	C	1.944103	0.788142	1.149690
C109	C	1.136591	0.273971	0.468616
C110	C	1.469924	0.607304	0.801950
C111	C	1.803257	0.940637	1.135283
C112	C	1.128271	0.282991	0.586105
C113	C	1.461604	0.616324	0.919438
C114	C	1.794938	0.949658	1.252771
H115	H	0.561167	0.154828	-0.025898
H116	H	0.894500	0.488161	0.307435
H117	H	1.227834	0.821494	0.640769
Br118	Br	0.757770	0.194702	0.421753
Br119	Br	1.091104	0.528035	0.755086
Br120	Br	1.424437	0.861369	1.088420
H121	H	1.338168	0.055718	0.441065
H122	H	1.671502	0.389051	0.774398
H123	H	2.004835	0.722385	1.107731
H124	H	1.396105	-0.007001	0.624497
H125	H	1.729439	0.326332	0.957831
H126	H	2.062772	0.659665	1.291164
Br127	Br	1.416969	-0.029598	0.873439
Br128	Br	1.750302	0.303735	1.206773
Br129	Br	2.083636	0.637069	1.540106
H130	H	0.534983	0.183193	0.343287
H131	H	0.868317	0.516526	0.676620
H132	H	1.201650	0.849860	1.009953
Br133	Br	0.705864	0.147022	-0.169200
Br134	Br	1.039198	0.480356	0.164134
Br135	Br	1.372531	0.813689	0.497467
Br136	Br	1.084979	0.329857	0.839488
Br137	Br	1.418313	0.663191	1.172821
Br138	Br	1.751646	0.996524	1.506155
H139	H	0.928667	0.158569	-0.090733
H140	H	1.262000	0.491902	0.242600
H141	H	1.595334	0.825235	0.575934
Br142	Br	1.027050	0.392587	0.656052
Br143	Br	1.360383	0.725921	0.989386
Br144	Br	1.693716	1.059254	1.322719
H145	H	1.082642	0.332389	0.414911
H146	H	1.415976	0.665722	0.748244
H147	H	1.749309	0.999055	1.081578
H148	H	0.902450	0.186917	0.278458
H149	H	1.235784	0.520250	0.611792
H150	H	1.569117	0.853584	0.945125
