data_functionalizedCrystal
_audit_creation_method	'MofGen! by Chris Wilmer'
_symmetry_space_group_name_H-M	'P1'
_symmetry_Int_Tables_number	1
_symmetry_cell_setting	triclinic
loop_
_symmetry_equiv_pos_as_xyz
  x,y,z
_cell_length_a	14.908783
_cell_length_b	14.908520
_cell_length_c	19.077174
_cell_angle_alpha	95.695642
_cell_angle_beta	84.258137
_cell_angle_gamma	96.791586
loop_
_atom_site_label
_atom_site_type_symbol
_atom_site_fract_x
_atom_site_fract_y
_atom_site_fract_z
Zn1	Zn	1.386092	-0.303716	-0.474112
Zn2	Zn	1.886092	0.196284	0.025888
Zn3	Zn	1.371818	-0.449650	-0.362341
Zn4	Zn	1.871818	0.050350	0.137659
Zn5	Zn	1.228659	-0.306395	-0.349453
Zn6	Zn	1.728659	0.193605	0.150547
Zn7	Zn	1.225949	-0.463759	-0.474056
Zn8	Zn	1.725949	0.036241	0.025944
O9	O	1.303129	-0.380880	-0.414990
O10	O	1.803129	0.119120	0.085010
O11	O	1.511131	-0.316049	-0.464702
O12	O	2.011131	0.183951	0.035298
O13	O	1.347988	-0.425864	-0.261708
O14	O	1.847988	0.074136	0.238292
O15	O	1.256651	-0.179109	-0.360619
O16	O	1.756651	0.320891	0.139381
O17	O	1.500644	-0.423266	-0.382584
O18	O	2.000644	0.076734	0.117416
O19	O	1.372316	-0.177140	-0.452206
O20	O	1.872316	0.322860	0.047794
O21	O	1.242810	-0.320616	-0.252239
O22	O	1.742810	0.179384	0.247761
O23	O	1.101367	-0.334296	-0.360564
O24	O	1.601367	0.165704	0.139436
O25	O	1.252031	-0.447312	-0.572987
O26	O	1.752031	0.052688	-0.072987
O27	O	1.099376	-0.449910	-0.452110
O28	O	1.599376	0.050090	0.047890
O29	O	1.369688	-0.329729	-0.573028
O30	O	1.869688	0.170271	-0.073028
O31	O	1.345360	-0.578453	-0.382530
O32	O	1.845360	-0.078453	0.117470
O33	O	1.238191	-0.588819	-0.464606
O34	O	1.738191	-0.088819	0.035394
C35	C	1.067459	-0.393925	-0.404933
C36	C	1.567459	0.106075	0.095067
C37	C	0.966638	-0.399529	-0.400648
C38	C	1.466638	0.100471	0.099352
C39	C	0.788101	-0.298578	-0.478250
C40	C	1.288101	0.201422	0.021750
C41	C	0.693371	-0.303840	-0.474227
C42	C	1.193371	0.196160	0.025773
C43	C	0.682446	-0.415309	-0.388573
C44	C	1.182446	0.084691	0.111427
C45	C	0.777177	-0.410047	-0.392597
C46	C	1.277177	0.089953	0.107403
C47	C	0.830001	-0.351681	-0.437438
C48	C	1.330001	0.148319	0.062562
C49	C	0.924732	-0.346424	-0.441465
C50	C	1.424732	0.153576	0.058535
C51	C	0.913806	-0.457888	-0.355808
C52	C	1.413806	0.042112	0.144192
C53	C	0.819076	-0.463150	-0.351784
C54	C	1.319076	0.036850	0.148216
C55	C	1.289958	-0.616547	-0.424977
C56	C	1.789958	-0.116547	0.075023
C57	C	1.284407	-0.717363	-0.429277
C58	C	1.784407	-0.217363	0.070723
C59	C	1.385695	-0.895949	-0.351968
C60	C	1.885695	-0.395949	0.148032
C61	C	1.380482	-0.990674	-0.356005
C62	C	1.880482	-0.490674	0.143995
C63	C	1.268775	-1.001540	-0.441393
C64	C	1.768775	-0.501540	0.058607
C65	C	1.273988	-0.906815	-0.437355
C66	C	1.773988	-0.406815	0.062645
C67	C	1.332448	-0.854022	-0.392640
C68	C	1.832448	-0.354022	0.107360
C69	C	1.337656	-0.759296	-0.388599
C70	C	1.837656	-0.259296	0.111401
C71	C	1.225954	-0.770163	-0.473990
C72	C	1.725954	-0.270163	0.026010
C73	C	1.220741	-0.864888	-0.478028
C74	C	1.720741	-0.364888	0.021972
C75	C	1.539720	-0.367785	-0.425087
C76	C	2.039720	0.132215	0.074913
C77	C	1.640540	-0.362204	-0.429390
C78	C	2.140540	0.137796	0.070610
C79	C	1.312149	-0.389795	-0.599374
C80	C	1.812149	0.110205	-0.099374
C81	C	1.315993	-0.393594	-0.677948
C82	C	1.815993	0.106406	-0.177948
C83	C	1.316378	-0.144292	-0.404981
C84	C	1.816378	0.355708	0.095019
C85	C	1.322024	-0.043473	-0.400716
C86	C	1.822024	0.456527	0.099284
C87	C	1.263041	-0.340583	-0.709931
C88	C	1.763041	0.159417	-0.209931
C89	C	1.266649	-0.344160	-0.783760
C90	C	1.766649	0.155840	-0.283760
C91	C	1.323214	-0.400745	-0.825603
C92	C	1.823214	0.099255	-0.325603
C93	C	1.376168	-0.453762	-0.793614
C94	C	1.876168	0.046238	-0.293614
C95	C	1.372555	-0.450189	-0.719787
C96	C	1.872555	0.049811	-0.219787
C97	C	1.339888	-0.417312	-1.046931
C98	C	1.839888	0.082688	-0.546931
C99	C	1.343499	-0.420879	-1.120763
C100	C	1.843499	0.079121	-0.620763
C101	C	1.233978	-0.311277	-1.110903
C102	C	1.733978	0.188723	-0.610903
C103	C	1.230373	-0.307705	-1.037075
C104	C	1.730373	0.192295	-0.537075
C105	C	1.283324	-0.360726	-1.005093
C106	C	1.783324	0.139274	-0.505093
N107	N	1.326905	-0.404401	-0.901067
N108	N	1.826905	0.095599	-0.401067
N109	N	1.279627	-0.357075	-0.929630
N110	N	1.779627	0.142925	-0.429630
C111	C	1.294200	-0.371931	-0.231323
C112	C	1.794200	0.128069	0.268677
C113	C	1.290547	-0.367867	-0.152747
C114	C	1.790547	0.132133	0.347253
H115	H	0.639421	-0.462817	-0.352057
H116	H	1.139421	0.037183	0.147943
N117	N	0.845084	-0.235650	-0.526625
N118	N	1.345084	0.264350	-0.026625
H119	H	0.885335	-0.189989	-0.497845
H120	H	1.385335	0.310011	0.002155
H121	H	0.883871	-0.272062	-0.562556
H122	H	1.383871	0.227938	-0.062556
H123	H	1.182594	-0.736016	-0.507107
H124	H	1.682594	-0.236016	-0.007107
H125	H	1.221185	-1.044539	-0.477802
H126	H	1.721185	-0.544539	0.022198
N127	N	1.400707	-0.702348	-0.340377
N128	N	1.900707	-0.202348	0.159623
H129	H	1.383302	-0.717203	-0.289964
H130	H	1.883302	-0.217203	0.210036
H131	H	1.465116	-0.715736	-0.354930
H132	H	1.965116	-0.215736	0.145070
N133	N	1.397008	-0.474486	-1.012443
N134	N	1.897008	0.025514	-0.512443
H135	H	1.439605	-0.433813	-0.982047
H136	H	1.939605	0.066187	-0.482047
H137	H	1.356235	-0.517076	-0.982055
H138	H	1.856235	-0.017076	-0.482055
H139	H	1.422220	-0.499840	-0.827689
H140	H	1.922220	0.000160	-0.327689
N141	N	0.958997	-0.515175	-0.311790
N142	N	1.458997	-0.015175	0.188210
H143	H	1.027024	-0.502990	-0.321144
H144	H	1.527024	-0.002990	0.178856
H145	H	0.940751	-0.499445	-0.260013
H146	H	1.440751	0.000555	0.239987
H147	H	1.216985	-0.294500	-0.675867
H148	H	1.716985	0.205500	-0.175867
H149	H	1.223526	-0.300996	-0.809797
H150	H	1.723526	0.199004	-0.309797
H151	H	0.659260	-0.260596	-0.507459
H152	H	1.159260	0.239404	-0.007459
N153	N	1.169385	-0.246653	-0.991945
N154	N	1.669385	0.253347	-0.491945
H155	H	1.136392	-0.213606	-1.023410
H156	H	1.636392	0.286394	-0.523410
H157	H	1.123835	-0.284397	-0.961074
H158	H	1.623835	0.215603	-0.461074
H159	H	1.415682	-0.493350	-0.693748
H160	H	1.915682	0.006650	-0.193748
H161	H	0.967740	-0.298900	-0.477978
H162	H	1.467740	0.201100	0.022022
N163	N	0.762100	-0.526091	-0.303416
N164	N	1.262100	-0.026091	0.196584
H165	H	0.695731	-0.521366	-0.307057
H166	H	1.195731	-0.021366	0.192943
H167	H	0.775576	-0.590503	-0.317789
H168	H	1.275576	-0.090503	0.182211
H169	H	1.433290	-0.852965	-0.315554
H170	H	1.933290	-0.352965	0.184446
H171	H	1.190867	-0.268111	-1.136951
H172	H	1.690867	0.231889	-0.636951
H173	H	1.389565	-0.466958	-1.154830
H174	H	1.889565	0.033042	-0.654830
H175	H	1.423843	-1.024807	-0.322887
H176	H	1.923843	-0.524807	0.177113
H177	H	1.173147	-0.907885	-0.514435
H178	H	1.673147	-0.407885	-0.014435
