data_functionalizedCrystal
_audit_creation_method	'MofGen! by Chris Wilmer'
_symmetry_space_group_name_H-M	'P1'
_symmetry_Int_Tables_number	1
_symmetry_cell_setting	triclinic
loop_
_symmetry_equiv_pos_as_xyz
  x,y,z
_cell_length_a	18.215405
_cell_length_b	18.215407
_cell_length_c	12.827879
_cell_angle_alpha	90.044483
_cell_angle_beta	89.934925
_cell_angle_gamma	89.978057
loop_
_atom_site_label
_atom_site_type_symbol
_atom_site_fract_x
_atom_site_fract_y
_atom_site_fract_z
Zn1	Zn	-0.292713	-1.125260	-0.590911
Zn2	Zn	-0.042713	-0.875260	-0.340911
Zn3	Zn	0.207287	-0.625260	-0.090911
Zn4	Zn	0.457287	-0.375260	0.159089
Zn5	Zn	-0.415867	-1.125123	-0.416163
Zn6	Zn	-0.165867	-0.875123	-0.166163
Zn7	Zn	0.084133	-0.625123	0.083837
Zn8	Zn	0.334133	-0.375123	0.333837
Zn9	Zn	-0.292819	-1.002141	-0.416175
Zn10	Zn	-0.042819	-0.752141	-0.166175
Zn11	Zn	0.207181	-0.502141	0.083825
Zn12	Zn	0.457181	-0.252141	0.333825
Zn13	Zn	-0.415742	-1.002165	-0.590854
Zn14	Zn	-0.165742	-0.752165	-0.340854
Zn15	Zn	0.084258	-0.502165	-0.090854
Zn16	Zn	0.334258	-0.252165	0.159146
O17	O	-0.354285	-1.063672	-0.503526
O18	O	-0.104285	-0.813672	-0.253526
O19	O	0.145715	-0.563672	-0.003526
O20	O	0.395715	-0.313672	0.246474
O21	O	-0.309058	-1.228226	-0.567749
O22	O	-0.059058	-0.978226	-0.317749
O23	O	0.190942	-0.728226	-0.067749
O24	O	0.440942	-0.478226	0.182251
O25	O	-0.399641	-1.108743	-0.269928
O26	O	-0.149641	-0.858743	-0.019928
O27	O	0.100359	-0.608743	0.230072
O28	O	0.350359	-0.358743	0.480072
O29	O	-0.189820	-1.018521	-0.439383
O30	O	0.060180	-0.768521	-0.189383
O31	O	0.310180	-0.518521	0.060617
O32	O	0.560180	-0.268521	0.310617
O33	O	-0.399538	-1.228126	-0.439362
O34	O	-0.149538	-0.978126	-0.189362
O35	O	0.100462	-0.728126	0.060638
O36	O	0.350462	-0.478126	0.310638
O37	O	-0.189743	-1.108976	-0.567761
O38	O	0.060257	-0.858976	-0.317761
O39	O	0.310257	-0.608976	-0.067761
O40	O	0.560257	-0.358976	0.182239
O41	O	-0.309238	-1.018388	-0.269937
O42	O	-0.059238	-0.768388	-0.019937
O43	O	0.190762	-0.518388	0.230063
O44	O	0.440762	-0.268388	0.480063
O45	O	-0.309117	-0.899160	-0.439329
O46	O	-0.059117	-0.649160	-0.189329
O47	O	0.190883	-0.399160	0.060671
O48	O	0.440883	-0.149160	0.310671
O49	O	-0.399325	-1.018561	-0.737098
O50	O	-0.149325	-0.768561	-0.487098
O51	O	0.100675	-0.518561	-0.237098
O52	O	0.350675	-0.268561	0.012902
O53	O	-0.399428	-0.899177	-0.567664
O54	O	-0.149428	-0.649177	-0.317664
O55	O	0.100572	-0.399177	-0.067664
O56	O	0.350572	-0.149177	0.182336
O57	O	-0.308936	-1.108998	-0.737140
O58	O	-0.058936	-0.858998	-0.487140
O59	O	0.191064	-0.608998	-0.237140
O60	O	0.441064	-0.358998	0.012860
O61	O	-0.518835	-1.108765	-0.439307
O62	O	-0.268835	-0.858765	-0.189307
O63	O	-0.018835	-0.608765	0.060693
O64	O	0.231165	-0.358765	0.310693
O65	O	-0.518743	-1.018428	-0.567652
O66	O	-0.268743	-0.768428	-0.317652
O67	O	-0.018743	-0.518428	-0.067652
O68	O	0.231257	-0.268428	0.182348
C69	C	-0.354271	-0.872466	-0.503492
C70	C	-0.104271	-0.622466	-0.253492
C71	C	0.145729	-0.372466	-0.003492
C72	C	0.395729	-0.122466	0.246508
C73	C	-0.354282	-0.790667	-0.503503
C74	C	-0.104282	-0.540667	-0.253503
C75	C	0.145718	-0.290667	-0.003503
C76	C	0.395718	-0.040667	0.246497
C77	C	-0.401380	-0.602502	-0.570240
C78	C	-0.151380	-0.352502	-0.320240
C79	C	0.098620	-0.102502	-0.070240
C80	C	0.348620	0.147498	0.179760
C81	C	-0.401381	-0.525643	-0.570251
C82	C	-0.151381	-0.275643	-0.320251
C83	C	0.098619	-0.025643	-0.070251
C84	C	0.348619	0.224357	0.179749
C85	C	-0.307195	-0.525595	-0.436816
C86	C	-0.057195	-0.275595	-0.186816
C87	C	0.192805	-0.025595	0.063184
C88	C	0.442805	0.224405	0.313184
C89	C	-0.307190	-0.602453	-0.436810
C90	C	-0.057190	-0.352453	-0.186810
C91	C	0.192810	-0.102453	0.063190
C92	C	0.442810	0.147547	0.313190
C93	C	-0.354287	-0.640904	-0.503521
C94	C	-0.104287	-0.390904	-0.253521
C95	C	0.145713	-0.140904	-0.003521
C96	C	0.395713	0.109096	0.246479
C97	C	-0.354293	-0.487188	-0.503538
C98	C	-0.104293	-0.237188	-0.253538
C99	C	0.145707	0.012812	-0.003538
C100	C	0.395707	0.262812	0.246462
C101	C	-0.354294	-0.403854	-0.503550
C102	C	-0.104294	-0.153854	-0.253550
C103	C	0.145706	0.096146	-0.003550
C104	C	0.395706	0.346146	0.246450
C105	C	-0.354285	-0.724243	-0.503510
C106	C	-0.104285	-0.474243	-0.253510
C107	C	0.145715	-0.224243	-0.003510
C108	C	0.395715	0.025757	0.246490
C109	C	-0.545492	-1.063604	-0.503495
C110	C	-0.295492	-0.813604	-0.253495
C111	C	-0.045492	-0.563604	-0.003495
C112	C	0.204508	-0.313604	0.246505
C113	C	-0.627290	-1.063642	-0.503517
C114	C	-0.377290	-0.813642	-0.253517
C115	C	-0.127290	-0.563642	-0.003517
C116	C	0.122710	-0.313642	0.246483
C117	C	-0.892250	-1.110786	-0.570465
C118	C	-0.642250	-0.860786	-0.320465
C119	C	-0.392250	-0.610786	-0.070465
C120	C	-0.142250	-0.360786	0.179535
C121	C	-0.815391	-1.110762	-0.570449
C122	C	-0.565391	-0.860762	-0.320449
C123	C	-0.315391	-0.610762	-0.070449
C124	C	-0.065391	-0.360762	0.179551
C125	C	-0.815579	-1.016653	-0.436647
C126	C	-0.565579	-0.766653	-0.186647
C127	C	-0.315579	-0.516653	0.063353
C128	C	-0.065579	-0.266653	0.313353
C129	C	-0.892437	-1.016682	-0.436659
C130	C	-0.642437	-0.766682	-0.186659
C131	C	-0.392437	-0.516682	0.063341
C132	C	-0.142437	-0.266682	0.313341
C133	C	-0.930770	-1.063747	-0.503573
C134	C	-0.680770	-0.813747	-0.253573
C135	C	-0.430770	-0.563747	-0.003573
C136	C	-0.180770	-0.313747	0.246427
C137	C	-0.777054	-1.063694	-0.503546
C138	C	-0.527054	-0.813694	-0.253546
C139	C	-0.277054	-0.563694	-0.003546
C140	C	-0.027054	-0.313694	0.246454
C141	C	-0.693720	-1.063667	-0.503528
C142	C	-0.443720	-0.813667	-0.253528
C143	C	-0.193720	-0.563667	-0.003528
C144	C	0.056280	-0.313667	0.246472
C145	C	-1.014109	-1.063776	-0.503590
C146	C	-0.764109	-0.813776	-0.253590
C147	C	-0.514109	-0.563776	-0.003590
C148	C	-0.264109	-0.313776	0.246410
C149	C	-0.162332	-1.063761	-0.503580
C150	C	0.087668	-0.813761	-0.253580
C151	C	0.337668	-0.563761	-0.003580
C152	C	0.587668	-0.313761	0.246420
C153	C	-0.080533	-1.063799	-0.503603
C154	C	0.169467	-0.813799	-0.253603
C155	C	0.419467	-0.563799	-0.003603
C156	C	0.669467	-0.313799	0.246397
C157	C	-0.354105	-1.063797	-0.776096
C158	C	-0.104105	-0.813797	-0.526096
C159	C	0.145895	-0.563797	-0.276096
C160	C	0.395895	-0.313797	-0.026096
C161	C	-0.354028	-1.063851	-0.892250
C162	C	-0.104028	-0.813851	-0.642250
C163	C	0.145972	-0.563851	-0.392250
C164	C	0.395972	-0.313851	-0.142250
C165	C	-0.354298	-0.255625	-0.503555
C166	C	-0.104298	-0.005625	-0.253555
C167	C	0.145702	0.244375	-0.003555
C168	C	0.395702	0.494375	0.246445
C169	C	-0.354297	-0.337424	-0.503556
C170	C	-0.104297	-0.087424	-0.253556
C171	C	0.145703	0.162576	-0.003556
C172	C	0.395703	0.412576	0.246444
C173	C	-0.354412	-1.063590	-0.232016
C174	C	-0.104412	-0.813590	0.017984
C175	C	0.145588	-0.563590	0.267984
C176	C	0.395588	-0.313590	0.517984
C177	C	-0.354281	-1.063680	-0.115863
C178	C	-0.104281	-0.813680	0.134137
C179	C	0.145719	-0.563680	0.384137
C180	C	0.395719	-0.313680	0.634137
C181	C	-0.309819	-1.018690	-0.064131
C182	C	-0.059819	-0.768690	0.185869
C183	C	0.190181	-0.518690	0.435869
C184	C	0.440181	-0.268690	0.685869
C185	C	-0.309683	-1.018782	0.055919
C186	C	-0.059683	-0.768782	0.305919
C187	C	0.190317	-0.518782	0.555919
C188	C	0.440317	-0.268782	0.805919
H189	H	-0.439728	-0.494379	-0.624582
H190	H	-0.189728	-0.244379	-0.374582
H191	H	0.060272	0.005621	-0.124582
H192	H	0.310272	0.255621	0.125418
H193	H	-0.923801	-0.978376	-0.382182
H194	H	-0.673801	-0.728376	-0.132182
H195	H	-0.423801	-0.478376	0.117818
H196	H	-0.173801	-0.228376	0.367818
H197	H	-0.392097	-1.102369	0.063269
H198	H	-0.142097	-0.852369	0.313269
H199	H	0.107903	-0.602369	0.563269
H200	H	0.357903	-0.352369	0.813269
N201	N	-0.259532	-0.967570	-0.123174
N202	N	-0.009532	-0.717570	0.126826
N203	N	0.240468	-0.467570	0.376826
N204	N	0.490468	-0.217570	0.626826
H205	H	-0.271313	-0.915073	-0.104038
H206	H	-0.021313	-0.665073	0.145962
H207	H	0.228687	-0.415073	0.395962
H208	H	0.478687	-0.165073	0.645962
H209	H	-0.206855	-0.978702	-0.104442
H210	H	0.043145	-0.728702	0.145558
H211	H	0.293145	-0.478702	0.395558
H212	H	0.543145	-0.228702	0.645558
N213	N	-0.256411	-0.484120	-0.364854
N214	N	-0.006411	-0.234120	-0.114854
N215	N	0.243589	0.015880	0.135146
N216	N	0.493589	0.265880	0.385146
H217	H	-0.226577	-0.520113	-0.322587
H218	H	0.023423	-0.270113	-0.072587
H219	H	0.273423	-0.020113	0.177413
H220	H	0.523423	0.229887	0.427413
H221	H	-0.222373	-0.452265	-0.407472
H222	H	0.027627	-0.202265	-0.157472
H223	H	0.277627	0.047735	0.092528
H224	H	0.527627	0.297735	0.342528
H225	H	-0.271620	-0.980263	0.100407
H226	H	-0.021620	-0.730263	0.350407
H227	H	0.228380	-0.480263	0.600407
H228	H	0.478380	-0.230263	0.850407
N229	N	-0.256385	-0.643879	-0.364860
N230	N	-0.006385	-0.393879	-0.114860
N231	N	0.243615	-0.143879	0.135140
N232	N	0.493615	0.106121	0.385140
H233	H	-0.226552	-0.607859	-0.322597
H234	H	0.023448	-0.357859	-0.072597
H235	H	0.273448	-0.107859	0.177403
H236	H	0.523448	0.142141	0.427403
H237	H	-0.286313	-0.675735	-0.316422
H238	H	-0.036313	-0.425735	-0.066422
H239	H	0.213687	-0.175735	0.183578
H240	H	0.463687	0.074265	0.433578
H241	H	-0.439727	-0.633806	-0.624562
H242	H	-0.189727	-0.383806	-0.374562
H243	H	0.060273	-0.133806	-0.124562
H244	H	0.310273	0.116194	0.125438
N245	N	-0.933597	-1.161541	-0.642642
N246	N	-0.683597	-0.911541	-0.392642
N247	N	-0.433597	-0.661541	-0.142642
N248	N	-0.183597	-0.411541	0.107358
H249	H	-0.897528	-1.191334	-0.685017
H250	H	-0.647528	-0.941334	-0.435017
H251	H	-0.397528	-0.691334	-0.185017
H252	H	-0.147528	-0.441334	0.064983
H253	H	-0.965502	-1.195619	-0.600169
H254	H	-0.715502	-0.945619	-0.350169
H255	H	-0.465502	-0.695619	-0.100169
H256	H	-0.215502	-0.445619	0.149831
H257	H	-0.784030	-1.149066	-0.624917
H258	H	-0.534030	-0.899066	-0.374917
H259	H	-0.284030	-0.649066	-0.124917
H260	H	-0.034030	-0.399066	0.125083
H261	H	-0.784361	-0.978332	-0.382168
H262	H	-0.534361	-0.728332	-0.132168
H263	H	-0.284361	-0.478332	0.117832
H264	H	-0.034361	-0.228332	0.367832
H265	H	-0.392243	-1.102267	-0.071276
H266	H	-0.142243	-0.852267	0.178724
H267	H	0.107757	-0.602267	0.428724
H268	H	0.357757	-0.352267	0.678724
