data_functionalizedCrystal
_audit_creation_method	'MofGen! by Chris Wilmer'
_symmetry_space_group_name_H-M	'P1'
_symmetry_Int_Tables_number	1
_symmetry_cell_setting	triclinic
loop_
_symmetry_equiv_pos_as_xyz
  x,y,z
_cell_length_a	23.532407
_cell_length_b	15.995350
_cell_length_c	15.072220
_cell_angle_alpha	89.993871
_cell_angle_beta	89.990343
_cell_angle_gamma	83.170562
loop_
_atom_site_label
_atom_site_type_symbol
_atom_site_fract_x
_atom_site_fract_y
_atom_site_fract_z
O1	O	0.073404	1.110385	-0.073668
O2	O	0.082469	0.866535	-0.073701
O3	O	-0.004967	0.995813	-0.073659
O4	O	0.160840	0.981107	-0.073711
O5	O	-0.004962	0.995781	0.073906
O6	O	0.082474	0.866503	0.073864
O7	O	0.073409	1.110354	0.073897
Zn8	Zn	0.077942	0.988423	0.097310
Zn9	Zn	0.077935	0.988465	-0.097114
O10	O	0.160845	0.981075	0.073855
C11	C	0.082096	0.835327	0.000078
C12	C	0.080973	0.742386	0.000067
C13	C	-0.026182	0.995423	0.000128
C14	C	-0.089404	0.994297	0.000141
N15	N	0.077946	0.988401	0.229998
C16	C	-0.355883	0.913149	0.000075
C17	C	-0.296479	0.914195	0.000082
O18	O	-0.259982	0.849822	0.000046
N19	N	-0.273557	0.991051	0.000103
C20	C	-0.310043	1.066866	0.000107
O21	O	-0.285091	1.132334	0.000125
C22	C	-0.369446	1.065819	0.000094
C23	C	-0.392364	0.988958	0.000082
C24	C	-0.378802	0.836294	0.000063
C25	C	-0.438202	0.835249	0.000058
C26	C	-0.474684	0.911058	0.000065
C27	C	-0.451765	0.987913	0.000077
C28	C	-0.405931	1.141634	0.000092
C29	C	-0.465337	1.140580	0.000078
C30	C	-0.488256	1.063719	0.000067
C31	C	-0.547646	1.062676	0.000079
N32	N	-0.570568	0.985820	0.000059
C33	C	-0.534087	0.910011	0.000051
C34	C	-0.185292	1.069059	0.000134
C35	C	-0.125890	1.070107	0.000153
C36	C	-0.112330	0.917435	0.000127
C37	C	-0.171733	0.916388	0.000113
C38	C	-0.208214	0.992203	0.000113
C39	C	-0.658832	0.907821	0.000041
C40	C	-0.718238	0.906782	0.000039
C41	C	-0.731792	1.059453	0.000061
C42	C	-0.672392	1.060493	0.000068
C43	C	-0.635912	0.984670	0.000054
O44	O	-0.584177	1.127016	0.000112
O45	O	-0.559047	0.844554	0.000022
C46	C	0.182060	0.981465	0.000066
C47	C	0.245281	0.982591	0.000047
C48	C	0.073781	1.141561	0.000116
C49	C	0.074905	1.234502	0.000122
C50	C	0.078939	1.572216	0.000085
C51	C	0.141210	1.524264	0.000399
C52	C	0.140086	1.427583	0.000076
C53	C	0.076938	1.404672	0.000103
C54	C	0.046221	1.446006	-0.084155
C55	C	0.047785	1.542629	-0.084236
C56	C	0.046505	1.542995	0.083574
C57	C	0.046520	1.446050	0.084697
C58	C	0.075804	1.309984	0.000111
C59	C	0.080072	1.666904	0.000071
N60	N	0.077927	0.988494	-0.229803
C61	C	0.077933	0.988463	0.589200
C62	C	0.124562	0.919059	0.551570
C63	C	0.124732	0.919216	0.448745
C64	C	0.077940	0.988432	0.410996
C65	C	0.090918	1.075689	0.448294
C66	C	0.091250	1.075299	0.551152
C67	C	0.018188	0.971391	0.551316
C68	C	0.018587	0.969383	0.448452
C69	C	0.077942	0.988419	0.310282
C70	C	0.077932	0.988482	0.689913
H71	H	-0.736894	0.844190	0.000034
Cl72	Cl	-0.332950	0.740978	0.000052
H73	H	0.070182	1.560745	-0.147236
H74	H	-0.190389	0.853801	0.000108
H75	H	-0.082616	0.855707	0.000121
Cl76	Cl	-0.025407	1.424795	-0.088969
Cl77	Cl	0.179464	1.554192	-0.092396
Cl78	Cl	-0.024579	1.422923	0.092588
Cl79	Cl	-0.097086	1.166736	0.000181
H80	H	0.168648	0.929757	0.577397
Cl81	Cl	0.179801	1.553093	0.093279
Cl82	Cl	-0.231148	1.164379	0.000145
Cl83	Cl	0.193190	0.935935	0.410717
H84	H	0.066866	1.563366	0.147433
H85	H	-0.629137	0.846079	0.000030
H86	H	0.164387	1.399518	-0.060439
H87	H	0.002068	1.575257	-0.088058
Cl88	Cl	0.158521	1.098641	0.588164
H89	H	0.008737	0.905198	0.424075
Cl90	Cl	-0.035385	1.049540	0.588888
Cl91	Cl	-0.467005	0.738618	0.000032
Cl92	Cl	0.112812	0.818563	0.589770
H93	H	0.058627	1.128531	0.576043
Cl94	Cl	-0.643579	1.157119	0.000114
H95	H	0.067537	1.417425	-0.146870
H96	H	-0.761506	1.121175	0.000071
H97	H	-0.387281	1.204222	0.000101
H98	H	0.068949	1.418563	0.147030
Cl99	Cl	0.039879	1.157302	0.410547
Cl100	Cl	-0.024375	1.592632	0.084482
Cl101	Cl	-0.037497	1.042426	0.408801
H102	H	-0.495038	1.202319	0.000073
H103	H	0.116999	0.854341	0.423528
Cl104	Cl	0.157423	1.099613	0.408495
Cl105	Cl	0.177374	1.383385	0.093318
H106	H	0.005708	0.909172	0.577303
