data_functionalizedCrystal
_audit_creation_method	'MofGen! by Chris Wilmer'
_symmetry_space_group_name_H-M	'P1'
_symmetry_Int_Tables_number	1
_symmetry_cell_setting	triclinic
loop_
_symmetry_equiv_pos_as_xyz
  x,y,z
_cell_length_a	33.510554
_cell_length_b	33.509711
_cell_length_c	33.506470
_cell_angle_alpha	60.004186
_cell_angle_beta	60.008358
_cell_angle_gamma	59.994760
loop_
_atom_site_label
_atom_site_type_symbol
_atom_site_fract_x
_atom_site_fract_y
_atom_site_fract_z
O1	O	0.055430	-0.583081	0.487524
O2	O	0.555430	-0.083081	0.987524
O3	O	0.020931	-0.453975	0.392819
O4	O	0.520931	0.046025	0.892819
O5	O	0.102693	-0.535652	0.392731
O6	O	0.602693	-0.035652	0.892731
O7	O	-0.026332	-0.501404	0.487613
O8	O	0.473668	-0.001404	0.987613
O9	O	0.129823	-0.508526	0.419767
O10	O	0.629823	-0.008526	0.919767
O11	O	0.048062	-0.426850	0.419856
O12	O	0.548062	0.073150	0.919856
O13	O	0.082561	-0.555956	0.514561
O14	O	0.582561	-0.055956	1.014561
Cu15	Cu	0.067789	-0.488926	0.469677
Cu16	Cu	0.567789	0.011074	0.969677
Cu17	Cu	0.035703	-0.521005	0.437703
Cu18	Cu	0.535703	-0.021005	0.937703
O19	O	0.000799	-0.474279	0.514649
O20	O	0.500799	0.025721	1.014649
N21	N	0.090357	-0.466366	0.492168
N22	N	0.590357	0.033634	0.992168
N23	N	0.013139	-0.543569	0.415212
N24	N	0.513139	-0.043569	0.915212
C25	C	0.143028	-0.279707	0.544737
C26	C	0.643028	0.220293	1.044737
C27	C	0.143165	-0.413746	0.678712
C28	C	0.643165	0.086254	1.178712
C29	C	0.143043	-0.413725	0.544739
C30	C	0.643043	0.086275	1.044739
C31	C	0.277090	-0.413694	0.544637
C32	C	0.777090	0.086306	1.044637
C33	C	0.157791	-0.323929	0.559462
C34	C	0.657791	0.176071	1.059462
C35	C	0.157869	-0.398994	0.634489
C36	C	0.657869	0.101006	1.134489
C37	C	0.232865	-0.398963	0.559407
C38	C	0.732865	0.101037	1.059407
C39	C	0.157801	-0.398982	0.559463
C40	C	0.657801	0.101018	1.059463
C41	C	0.124237	-0.223419	0.525994
C42	C	0.624237	0.276581	1.025994
C43	C	0.124262	-0.432490	0.525997
C44	C	0.624262	0.067510	1.025997
C45	C	0.176583	-0.380217	0.578205
C46	C	0.676583	0.119783	1.078205
C47	C	0.358938	-0.399566	0.501510
C48	C	0.858938	0.100434	1.001510
C49	C	0.410104	-0.416609	0.484423
C50	C	0.910104	0.083391	0.984423
C51	C	0.410135	-0.499402	0.515995
C52	C	0.910135	0.000598	1.015995
C53	C	0.358969	-0.482358	0.533084
C54	C	0.858969	0.017642	1.033084
C55	C	0.136554	-0.197822	0.475693
C56	C	0.636554	0.302178	0.975693
C57	C	0.119469	-0.146653	0.458657
C58	C	0.619469	0.353347	0.958657
C59	C	0.077755	-0.146680	0.542223
C60	C	0.577755	0.353320	1.042223
C61	C	0.094840	-0.197850	0.559260
C62	C	0.594840	0.302150	1.059260
C63	C	0.073954	-0.420144	0.538396
C64	C	0.573954	0.079856	1.038396
C65	C	0.056884	-0.437203	0.521352
C66	C	0.556884	0.062797	1.021352
C67	C	0.140427	-0.478952	0.479524
C68	C	0.640427	0.021048	0.979524
C69	C	0.157498	-0.461894	0.496561
C70	C	0.657498	0.038106	0.996561
C71	C	0.074158	-0.420182	0.760618
C72	C	0.574158	0.079818	1.260618
C73	C	0.057149	-0.437256	0.811786
C74	C	0.557149	0.062744	1.311786
C75	C	0.140732	-0.479014	0.811717
C76	C	0.640732	0.020986	1.311717
C77	C	0.157740	-0.461942	0.760547
C78	C	0.657740	0.038058	1.260547
C79	C	0.124452	-0.432525	0.734999
C80	C	0.624452	0.067475	1.234999
C81	C	0.333372	-0.432439	0.525839
C82	C	0.833372	0.067561	1.025839
C83	C	-0.020612	-0.577650	0.170305
C84	C	0.479388	-0.077650	0.670305
C85	C	-0.020943	-0.788098	0.380897
C86	C	0.479057	-0.288098	0.880897
C87	C	-0.020912	-0.577638	0.380991
C88	C	0.479088	-0.077638	0.880991
C89	C	-0.231336	-0.577418	0.380585
C90	C	0.268664	-0.077418	0.880585
C91	C	-0.129735	-0.611383	0.346870
C92	C	0.370265	-0.111383	0.846870
C93	C	-0.054722	-0.611464	0.347017
C94	C	0.445278	-0.111464	0.847017
C95	C	-0.073450	-0.630202	0.328195
C96	C	0.426550	-0.130202	0.828195
C97	C	-0.087616	-0.712029	0.371239
C98	C	0.412384	-0.212029	0.871239
C99	C	-0.070599	-0.763199	0.388315
C100	C	0.429401	-0.263199	0.888315
C101	C	0.012191	-0.763282	0.356872
C102	C	0.512191	-0.263282	0.856872
C103	C	-0.004828	-0.712113	0.339795
C104	C	0.495172	-0.212113	0.839795
C105	C	-0.155381	-0.623711	0.397158
C106	C	0.344619	-0.123711	0.897158
C107	C	-0.206547	-0.606601	0.414133
C108	C	0.293453	-0.106601	0.914133
C109	C	-0.206417	-0.564839	0.330529
C110	C	0.293583	-0.064839	0.830529
C111	C	-0.155251	-0.581949	0.313554
C112	C	0.344749	-0.081949	0.813554
C113	C	-0.067051	-0.561160	0.334643
C114	C	0.432949	-0.061160	0.834643
C115	C	-0.050026	-0.544131	0.351759
C116	C	0.449974	-0.044131	0.851759
C117	C	-0.008343	-0.627704	0.393612
C118	C	0.491657	-0.127704	0.893612
C119	C	-0.025368	-0.644736	0.376502
C120	C	0.474632	-0.144736	0.876502
C121	C	-0.066922	-0.561168	0.246303
C122	C	0.433078	-0.061168	0.746303
C123	C	-0.049794	-0.544141	0.195134
C124	C	0.450206	-0.044141	0.695134
C125	C	-0.008048	-0.627719	0.195183
C126	C	0.491952	-0.127719	0.695183
C127	C	-0.025175	-0.644745	0.246352
C128	C	0.474825	-0.144745	0.746352
C129	C	-0.054614	-0.611468	0.271911
C130	C	0.445386	-0.111468	0.771911
C131	C	-0.054732	-0.686488	0.346980
C132	C	0.445268	-0.186488	0.846980
C133	C	-0.002117	-0.558258	0.114025
C134	C	0.497883	-0.058258	0.614025
C135	C	-0.002879	-0.844379	0.399940
C136	C	0.497121	-0.344379	0.899940
C137	C	-0.002504	-0.558243	0.399473
C138	C	0.497496	-0.058243	0.899473
C139	C	-0.287615	-0.558285	0.398601
C140	C	0.212385	-0.058285	0.898601
N141	N	0.434975	-0.466279	0.491900
N142	N	0.934975	0.033721	0.991900
O143	O	0.591199	-0.470749	0.375150
O144	O	1.091199	0.029251	0.875150
O145	O	0.591395	-0.565767	0.504116
O146	O	1.091395	-0.065767	1.004116
O147	O	0.591311	-0.565550	0.422329
O148	O	1.091311	-0.065550	0.922329
O149	O	0.591283	-0.470966	0.456937
O150	O	1.091283	0.029034	0.956937
O151	O	0.510024	-0.538522	0.449509
O152	O	1.010024	-0.038522	0.949509
O153	O	0.510108	-0.538739	0.531297
O154	O	1.010108	-0.038739	1.031297
O155	O	0.509913	-0.443721	0.402330
O156	O	1.009913	0.056279	0.902330
Cu157	Cu	0.502588	-0.488762	0.469295
Cu158	Cu	1.002588	0.011238	0.969295
Cu159	Cu	0.598719	-0.520726	0.437151
Cu160	Cu	1.098719	-0.020726	0.937151
O161	O	0.509997	-0.443938	0.484117
O162	O	1.009997	0.056062	0.984117
N163	N	0.666332	-0.543209	0.414541
N164	N	1.166332	-0.043209	0.914541
N165	N	0.090323	-0.121809	0.492157
N166	N	0.590323	0.378191	0.992157
O167	O	-0.026342	0.034503	0.487582
O168	O	0.473658	0.534503	0.987582
O169	O	0.102626	0.034543	0.392540
O170	O	0.602626	0.534543	0.892540
O171	O	0.020797	0.034507	0.392812
O172	O	0.520797	0.534507	0.892812
O173	O	0.055487	0.034539	0.487310
O174	O	0.555487	0.534539	0.987310
O175	O	0.047933	-0.046785	0.419900
O176	O	0.547933	0.453215	0.919900
O177	O	0.129763	-0.046749	0.419628
O178	O	0.629763	0.453251	0.919628
O179	O	0.000794	-0.046789	0.514670
O180	O	0.500794	0.453211	1.014670
Cu181	Cu	0.067756	-0.054192	0.469623
Cu182	Cu	0.567756	0.445808	0.969623
Cu183	Cu	0.035664	0.041946	0.437588
Cu184	Cu	0.535664	0.541946	0.937588
O185	O	0.082623	-0.046753	0.514399
O186	O	0.582623	0.453247	1.014399
N187	N	0.013091	0.109564	0.415054
N188	N	0.513091	0.609564	0.915054
N189	N	0.090671	-0.466416	0.836606
N190	N	0.590671	0.033584	1.336606
O191	O	0.086120	-0.583065	0.992910
O192	O	0.586120	-0.083065	1.492910
O193	O	-0.008880	-0.454051	0.992954
O194	O	0.491120	0.045949	1.492954
O195	O	-0.008658	-0.535864	0.992931
O196	O	0.491342	-0.035864	1.492931
O197	O	0.085897	-0.501252	0.992933
O198	O	0.585897	-0.001252	1.492933
O199	O	0.018407	-0.508749	0.911642
O200	O	0.518407	-0.008749	1.411642
O201	O	0.018185	-0.426936	0.911665
O202	O	0.518185	0.073064	1.411665
O203	O	0.113185	-0.555949	0.911621
O204	O	0.613185	-0.055949	1.411621
Cu205	Cu	0.068156	-0.488967	0.904221
Cu206	Cu	0.568156	0.011033	1.404221
Cu207	Cu	0.036148	-0.521034	1.000355
Cu208	Cu	0.536148	-0.021034	1.500355
O209	O	0.112963	-0.474136	0.911644
O210	O	0.612963	0.025864	1.411644
N211	N	0.013633	-0.543590	1.067970
N212	N	0.513633	-0.043590	1.567970
C213	C	0.031262	-0.424144	0.393290
C214	C	0.531262	0.075856	0.893290
C215	C	0.132513	-0.525291	0.393180
C216	C	0.632513	-0.025291	0.893180
C217	C	0.072229	-0.585787	0.514090
C218	C	0.572229	-0.085787	1.014090
C219	C	-0.029022	-0.484640	0.514200
C220	C	0.470978	0.015360	1.014200
C221	C	0.550775	-0.565338	0.533954
C222	C	1.050775	-0.065338	1.033954
C223	C	0.550672	-0.565070	0.432670
C224	C	1.050672	-0.065070	0.932670
C225	C	0.550530	-0.444149	0.372492
C226	C	1.050530	0.055851	0.872492
C227	C	0.550635	-0.444418	0.473776
C228	C	1.050635	0.055582	0.973776
C229	C	0.132408	-0.005998	0.392963
C230	C	0.632408	0.494002	0.892963
C231	C	0.031106	-0.006142	0.393333
C232	C	0.531106	0.493858	0.893333
C233	C	-0.029021	-0.006147	0.514213
C234	C	0.470979	0.493853	1.014213
C235	C	0.072314	-0.006104	0.513878
C236	C	0.572314	0.493896	1.013878
C237	C	-0.008430	-0.424240	0.952316
C238	C	0.491570	0.075760	1.452316
C239	C	-0.008150	-0.525550	0.952271
C240	C	0.491850	-0.025550	1.452271
C241	C	0.112735	-0.585760	0.952260
C242	C	0.612735	-0.085760	1.452260
C243	C	0.112461	-0.484444	0.952286
C244	C	0.612461	0.015556	1.452286
H245	H	0.047048	-0.396226	0.739820
H246	H	0.547048	0.103774	1.239820
O247	O	-0.073171	-0.006243	0.549851
O248	O	0.426829	0.493757	1.049851
C249	C	-0.066699	-0.048335	0.591037
C250	C	0.433301	0.451665	1.091037
H251	H	-0.030909	-0.077757	0.579251
H252	H	0.469091	0.422243	1.079251
H253	H	-0.065556	-0.038807	0.618613
H254	H	0.434444	0.461193	1.118613
C255	C	-0.153476	-0.031303	0.629172
C256	C	0.346524	0.468697	1.129172
C257	C	-0.109521	-0.067441	0.614695
C258	C	0.390479	0.432559	1.114695
H259	H	-0.179892	-0.043088	0.643767
H260	H	0.320108	0.456912	1.143767
H261	H	-0.157837	-0.002944	0.601425
H262	H	0.342163	0.497056	1.101425
H263	H	-0.152517	-0.023366	0.652149
H264	H	0.347483	0.476634	1.152149
H265	H	-0.110478	-0.075373	0.591714
H266	H	0.389522	0.424627	1.091714
H267	H	-0.105161	-0.095802	0.642439
H268	H	0.394839	0.404198	1.142439
H269	H	0.079744	-0.006095	0.543566
H270	H	0.579744	0.493905	1.043566
O271	O	-0.073210	-0.476027	0.549793
O272	O	0.426790	0.023973	1.049793
C273	C	-0.073234	-0.518061	0.591908
C274	C	0.426766	-0.018061	1.091908
H275	H	-0.044310	-0.551603	0.581128
H276	H	0.455690	-0.051603	1.081128
H277	H	-0.064694	-0.514133	0.618456
H278	H	0.435306	-0.014133	1.118456
C279	C	-0.159391	-0.482777	0.629852
C280	C	0.340609	0.017223	1.129852
C281	C	-0.123869	-0.523975	0.616611
C282	C	0.376131	-0.023975	1.116611
H283	H	-0.190625	-0.486424	0.645092
H284	H	0.309375	0.013576	1.145092
H285	H	-0.159375	-0.454457	0.601479
H286	H	0.340625	0.045543	1.101479
H287	H	-0.152268	-0.479508	0.651973
H288	H	0.347732	0.020492	1.151973
H289	H	-0.130988	-0.527239	0.594486
H290	H	0.369012	-0.027239	1.094486
H291	H	-0.123887	-0.552296	0.644981
H292	H	0.376113	-0.052296	1.144981
H293	H	0.079602	-0.622875	0.543835
H294	H	0.579602	-0.122875	1.043835
O295	O	0.176723	-0.533914	0.357616
O296	O	0.676723	-0.033914	0.857616
C297	C	0.198399	-0.500352	0.344457
C298	C	0.698399	-0.000352	0.844457
H299	H	0.168782	-0.466538	0.354306
H300	H	0.668782	0.033462	0.854306
H301	H	0.225060	-0.518053	0.364987
H302	H	0.725060	-0.018053	0.864987
C303	C	0.262447	-0.526988	0.276945
C304	C	0.762447	-0.026988	0.776945
C305	C	0.226070	-0.485455	0.289039
C306	C	0.726070	0.014545	0.789039
H307	H	0.279517	-0.517800	0.242761
H308	H	0.779517	-0.017800	0.742761
H309	H	0.247844	-0.549601	0.285811
H310	H	0.747844	-0.049601	0.785811
H311	H	0.284659	-0.541735	0.294058
H312	H	0.784659	-0.041735	0.794058
H313	H	0.203855	-0.470712	0.271931
H314	H	0.703855	0.029288	0.771931
H315	H	0.240669	-0.462839	0.280168
H316	H	0.740669	0.037161	0.780168
H317	H	-0.038255	-0.387188	0.952329
H318	H	0.461745	0.112812	1.452329
H319	H	0.550826	-0.595166	0.570996
H320	H	1.050826	-0.095166	1.070996
H321	H	0.142562	-0.622811	0.952240
H322	H	0.642562	-0.122811	1.452240
O323	O	0.008303	-0.425237	0.836722
O324	O	0.508303	0.074763	1.336722
C325	C	-0.004040	-0.399477	0.866313
C326	C	0.495960	0.100523	1.366313
H327	H	0.029695	-0.408706	0.873951
H328	H	0.529695	0.091294	1.373951
H329	H	-0.018106	-0.358522	0.846609
H330	H	0.481894	0.141478	1.346609
C331	C	-0.085526	-0.402860	0.905553
C332	C	0.414474	0.097140	1.405553
C333	C	-0.044093	-0.414199	0.914938
C334	C	0.455907	0.085801	1.414938
H335	H	-0.110234	-0.411939	0.935547
H336	H	0.389766	0.088061	1.435547
H337	H	-0.077211	-0.420213	0.885616
H338	H	0.422789	0.079787	1.385616
H339	H	-0.097242	-0.368731	0.889133
H340	H	0.402758	0.131269	1.389133
H341	H	-0.032374	-0.448328	0.931353
H342	H	0.467626	0.051672	1.431353
H343	H	-0.052407	-0.396851	0.934879
H344	H	0.447593	0.103149	1.434879
O345	O	0.550664	-0.600458	0.423766
O346	O	1.050664	-0.100458	0.923766
C347	C	0.550615	-0.582654	0.375731
C348	C	1.050615	-0.082654	0.875731
H349	H	0.535185	-0.541022	0.362890
H350	H	1.035185	-0.041022	0.862890
H351	H	0.589599	-0.594986	0.350412
H352	H	1.089599	-0.094986	0.850412
C353	C	0.537696	-0.653923	0.390578
C354	C	1.037696	-0.153923	0.890578
C355	C	0.518740	-0.602789	0.374809
C356	C	1.018740	-0.102789	0.874809
H357	H	0.518036	-0.666344	0.390009
H358	H	1.018036	-0.166344	0.890009
H359	H	0.537730	-0.665919	0.422940
H360	H	1.037730	-0.165919	0.922940
H361	H	0.570182	-0.664192	0.369477
H362	H	1.070182	-0.164192	0.869477
H363	H	0.486257	-0.592520	0.395914
H364	H	0.986257	-0.092520	0.895914
H365	H	0.518700	-0.590792	0.342451
H366	H	1.018700	-0.090792	0.842451
O367	O	0.550478	-0.408618	0.328274
O368	O	1.050478	0.091382	0.828274
C369	C	0.550443	-0.426212	0.297869
C370	C	1.050443	0.073788	0.797869
H371	H	0.565878	-0.467846	0.311081
H372	H	1.065878	0.032154	0.811081
H373	H	0.511432	-0.413822	0.299237
H374	H	1.011432	0.086178	0.799237
C375	C	0.563293	-0.354794	0.228736
C376	C	1.063293	0.145206	0.728736
C377	C	0.582255	-0.405929	0.244961
C378	C	1.082255	0.094071	0.744961
H379	H	0.582914	-0.342281	0.196099
H380	H	1.082914	0.157719	0.696099
H381	H	0.563314	-0.342939	0.249221
H382	H	1.063314	0.157061	0.749221
H383	H	0.530785	-0.344475	0.229880
H384	H	1.030785	0.155525	0.729880
H385	H	0.614760	-0.416247	0.243823
H386	H	1.114760	0.083753	0.743823
H387	H	0.582239	-0.417785	0.224475
H388	H	1.082239	0.082215	0.724475
H389	H	0.023891	-0.387055	0.363546
H390	H	0.523891	0.112945	0.863546
H391	H	-0.015331	-0.685697	0.386578
H392	H	0.484669	-0.185697	0.886578
H393	H	0.198696	-0.471996	0.739692
H394	H	0.698696	0.028004	1.239692
O395	O	-0.061930	-0.495263	0.339652
O396	O	0.438070	0.004737	0.839652
C397	C	-0.044359	-0.474050	0.288404
C398	C	0.455641	0.025950	0.788404
H399	H	-0.012804	-0.503219	0.271954
H400	H	0.487196	-0.003219	0.771954
H401	H	-0.075014	-0.457858	0.273178
H402	H	0.424986	0.042142	0.773178
C403	C	-0.065135	-0.397523	0.295415
C404	C	0.434865	0.102477	0.795415
C405	C	-0.026377	-0.433348	0.275211
C406	C	0.473623	0.066652	0.775211
H407	H	-0.054045	-0.372414	0.287276
H408	H	0.445955	0.127586	0.787276
H409	H	-0.076975	-0.411813	0.329941
H410	H	0.423025	0.088187	0.829941
H411	H	-0.090678	-0.384036	0.282724
H412	H	0.409322	0.115964	0.782724
H413	H	-0.000837	-0.446839	0.287906
H414	H	0.499163	0.053161	0.787906
H415	H	-0.014532	-0.419059	0.240686
H416	H	0.485468	0.080941	0.740686
H417	H	0.550629	-0.414708	0.481180
H418	H	1.050629	0.085292	0.981180
O419	O	0.022262	-0.006249	0.357956
O420	O	0.522262	0.493751	0.857956
C421	C	0.010764	-0.048361	0.374819
C422	C	0.510764	0.451639	0.874819
H423	H	0.026559	-0.077772	0.405163
H424	H	0.526559	0.422228	0.905163
H425	H	-0.030626	-0.038857	0.389576
H426	H	0.469374	0.461143	0.889576
C427	C	0.013381	-0.031346	0.295045
C428	C	0.513381	0.468654	0.795045
C429	C	0.032784	-0.067470	0.332312
C430	C	0.532784	0.432530	0.832312
H431	H	0.026962	-0.043133	0.268825
H432	H	0.526962	0.456867	0.768825
H433	H	0.021125	-0.002973	0.283684
H434	H	0.521125	0.497027	0.783684
H435	H	-0.021110	-0.023430	0.307349
H436	H	0.478890	0.476570	0.807349
H437	H	0.067273	-0.075381	0.320010
H438	H	0.567273	0.424619	0.820010
H439	H	0.025046	-0.095844	0.343670
H440	H	0.525046	0.404156	0.843670
O441	O	0.176520	-0.005692	0.357323
O442	O	0.676520	0.494308	0.857323
C443	C	0.206930	-0.005595	0.374864
C444	C	0.706930	0.494405	0.874864
H445	H	0.183428	0.009632	0.406355
H446	H	0.683428	0.509632	0.906355
H447	H	0.231805	-0.044540	0.388255
H448	H	0.731805	0.455460	0.888255
C449	C	0.267162	0.007849	0.294719
C450	C	0.767162	0.507849	0.794719
C451	C	0.238295	0.026554	0.333394
C452	C	0.738295	0.526554	0.833394
H453	H	0.286511	0.027678	0.269138
H454	H	0.786511	0.527678	0.769138
H455	H	0.246675	0.007782	0.282901
H456	H	0.746675	0.507782	0.782901
H457	H	0.287887	-0.024605	0.305884
H458	H	0.787887	0.475395	0.805884
H459	H	0.217566	0.059005	0.322230
H460	H	0.717566	0.559005	0.822230
H461	H	0.258779	0.026627	0.345209
H462	H	0.758779	0.526627	0.845209
O463	O	-0.043559	-0.534447	0.952294
O464	O	0.456441	-0.034447	1.452294
C465	C	-0.054797	-0.574025	0.994379
C466	C	0.445203	-0.074025	1.494379
H467	H	-0.022499	-0.597435	1.008433
H468	H	0.477501	-0.097435	1.508433
H469	H	-0.088385	-0.559538	1.023860
H470	H	0.411615	-0.059538	1.523860
C471	C	-0.105002	-0.576454	0.964283
C472	C	0.394998	-0.076454	1.464283
C473	C	-0.065330	-0.605209	0.981541
C474	C	0.434670	-0.105209	1.481541
H475	H	-0.111502	-0.595689	0.956365
H476	H	0.388498	-0.095689	1.456365
H477	H	-0.097432	-0.549788	0.935930
H478	H	0.402568	-0.049788	1.435930
H479	H	-0.132987	-0.564384	0.988853
H480	H	0.367013	-0.064384	1.488853
H481	H	-0.037345	-0.617274	0.956969
H482	H	0.462655	-0.117274	1.456969
H483	H	-0.072896	-0.631877	1.009889
H484	H	0.427104	-0.131877	1.509889
O485	O	0.173134	-0.507600	0.836459
O486	O	0.673134	-0.007600	1.336459
C487	C	0.221173	-0.514823	0.802875
C488	C	0.721173	-0.014823	1.302875
H489	H	0.221047	-0.509093	0.766410
H490	H	0.721047	-0.009093	1.266410
H491	H	0.235830	-0.487587	0.797428
H492	H	0.735830	0.012413	1.297428
C493	C	0.254174	-0.574282	0.867597
C494	C	0.754174	-0.074282	1.367597
C495	C	0.254020	-0.567248	0.822810
C496	C	0.754020	-0.067248	1.322810
H497	H	0.274437	-0.606619	0.879894
H498	H	0.774437	-0.106619	1.379894
H499	H	0.221810	-0.569414	0.890223
H500	H	0.721810	-0.069414	1.390223
H501	H	0.266387	-0.551581	0.863051
H502	H	0.766387	-0.051581	1.363051
H503	H	0.241801	-0.589944	0.827358
H504	H	0.741801	-0.089944	1.327358
H505	H	0.286383	-0.572121	0.800185
H506	H	0.786383	-0.072121	1.300185
O507	O	0.041647	-0.391509	0.566912
O508	O	0.541647	0.108491	1.066912
C509	C	0.012025	-0.348601	0.541105
C510	C	0.512025	0.151399	1.041105
H511	H	0.031753	-0.341476	0.500165
H512	H	0.531753	0.158524	1.000165
H513	H	-0.023922	-0.353259	0.552022
H514	H	0.476078	0.146741	1.052022
C515	C	-0.022654	-0.313814	0.603757
C516	C	0.477346	0.186186	1.103757
C517	C	0.001578	-0.305061	0.553473
C518	C	0.501578	0.194939	1.053473
H519	H	-0.029100	-0.286956	0.611387
H520	H	0.470900	0.213044	1.111387
H521	H	-0.002698	-0.342722	0.621145
H522	H	0.497302	0.157278	1.121145
H523	H	-0.052607	-0.317696	0.612848
H524	H	0.447393	0.182304	1.112848
H525	H	0.031533	-0.301184	0.544384
H526	H	0.531533	0.198816	1.044384
H527	H	-0.018372	-0.276150	0.536084
H528	H	0.481628	0.223850	1.036084
O529	O	0.008011	-0.425275	0.533479
O530	O	0.508011	0.074725	1.033479
C531	C	-0.013193	-0.442788	0.584732
C532	C	0.486807	0.057212	1.084732
H533	H	0.015969	-0.474342	0.601195
H534	H	0.515969	0.025658	1.101195
H535	H	-0.029345	-0.412099	0.599901
H536	H	0.470655	0.087901	1.099901
C537	C	-0.089748	-0.421995	0.577770
C538	C	0.410252	0.078005	1.077770
C539	C	-0.053931	-0.460753	0.597990
C540	C	0.446069	0.039247	1.097990
H541	H	-0.114879	-0.433075	0.585948
H542	H	0.385121	0.066925	1.085948
H543	H	-0.075463	-0.410194	0.543239
H544	H	0.424537	0.089806	1.043239
H545	H	-0.103202	-0.396425	0.590412
H546	H	0.396798	0.103575	1.090412
H547	H	-0.040473	-0.486320	0.585342
H548	H	0.459527	0.013680	1.085342
H549	H	-0.068215	-0.472558	0.632518
H550	H	0.431785	0.027442	1.132518
O551	O	0.206384	-0.473941	0.484484
O552	O	0.706384	0.026059	0.984484
C553	C	0.232058	-0.503537	0.454835
C554	C	0.732058	-0.003537	0.954835
H555	H	0.207661	-0.522154	0.461387
H556	H	0.707661	-0.022154	0.961387
H557	H	0.243043	-0.479913	0.414759
H558	H	0.743043	0.020087	0.914759
C559	C	0.308187	-0.519761	0.459686
C560	C	0.808187	-0.019761	0.959686
C561	C	0.278223	-0.542631	0.467736
C562	C	0.778223	-0.042631	0.967736
H563	H	0.336665	-0.543875	0.467642
H564	H	0.836665	-0.043875	0.967642
H565	H	0.290890	-0.499820	0.479659
H566	H	0.790890	0.000180	0.979659
H567	H	0.317335	-0.500076	0.426289
H568	H	0.817335	-0.000076	0.926289
H569	H	0.269070	-0.562311	0.501134
H570	H	0.769070	-0.062311	1.001134
H571	H	0.295520	-0.562576	0.447768
H572	H	0.795520	-0.062576	0.947768
O573	O	0.172694	-0.507585	0.450995
O574	O	0.672694	-0.007585	0.950995
C575	C	0.165347	-0.553080	0.474240
C576	C	0.665347	-0.053080	0.974240
H577	H	0.146818	-0.560134	0.515265
H578	H	0.646818	-0.060134	1.015265
H579	H	0.141173	-0.552620	0.459176
H580	H	0.641173	-0.052620	0.959176
C581	C	0.237764	-0.585206	0.414174
C582	C	0.737764	-0.085206	0.914174
C583	C	0.215009	-0.593872	0.464562
C584	C	0.715009	-0.093872	0.964562
H585	H	0.268397	-0.610369	0.408203
H586	H	0.768397	-0.110369	0.908203
H587	H	0.242713	-0.554555	0.398512
H588	H	0.742713	-0.054555	0.898512
H589	H	0.217614	-0.584822	0.401627
H590	H	0.717614	-0.084822	0.901627
H591	H	0.235156	-0.594249	0.477107
H592	H	0.735156	-0.094249	0.977107
H593	H	0.210065	-0.624524	0.480226
H594	H	0.710065	-0.124524	0.980226
O595	O	0.334213	-0.514357	0.556689
O596	O	0.834213	-0.014357	1.056689
C597	C	0.367782	-0.562071	0.559425
C598	C	0.867782	-0.062071	1.059425
H599	H	0.404237	-0.560112	0.529185
H600	H	0.904237	-0.060112	1.029185
H601	H	0.373259	-0.581605	0.596494
H602	H	0.873259	-0.081605	1.096494
C603	C	0.303030	-0.592857	0.590329
C604	C	0.803030	-0.092857	1.090329
C605	C	0.347805	-0.590450	0.553185
C606	C	0.847805	-0.090450	1.053185
H607	H	0.290707	-0.610364	0.586482
H608	H	0.790707	-0.110364	1.086482
H609	H	0.280414	-0.560711	0.588487
H610	H	0.780414	-0.060711	1.088487
H611	H	0.307601	-0.609134	0.621216
H612	H	0.807601	-0.109134	1.121216
H613	H	0.343232	-0.574168	0.522299
H614	H	0.843232	-0.074168	1.022299
H615	H	0.370420	-0.622594	0.555021
H616	H	0.870420	-0.122594	1.055021
O617	O	0.147916	-0.475558	0.952193
O618	O	0.647916	0.024442	1.452193
C619	C	0.159111	-0.435965	0.910105
C620	C	0.659111	0.064035	1.410105
H621	H	0.148362	-0.432113	0.880683
H622	H	0.648362	0.067887	1.380683
H623	H	0.138022	-0.400921	0.919635
H624	H	0.638022	0.099079	1.419635
C625	C	0.227552	-0.449985	0.927136
C626	C	0.727552	0.050015	1.427136
C627	C	0.214353	-0.445258	0.890998
C628	C	0.714353	0.054742	1.390998
H629	H	0.261627	-0.455716	0.915351
H630	H	0.761627	0.044284	1.415351
H631	H	0.220009	-0.476659	0.955493
H632	H	0.720009	0.023341	1.455493
H633	H	0.209974	-0.420781	0.935075
H634	H	0.709974	0.079219	1.435075
H635	H	0.231927	-0.474464	0.883065
H636	H	0.731927	0.025536	1.383065
H637	H	0.221901	-0.418589	0.862639
H638	H	0.721901	0.081411	1.362639
O639	O	0.435054	-0.547890	0.523057
O640	O	0.935054	-0.047890	1.023057
C641	C	0.464675	-0.565619	0.550867
C642	C	0.964675	-0.065619	1.050867
H643	H	0.472336	-0.534027	0.546852
H644	H	0.972336	-0.034027	1.046852
H645	H	0.444987	-0.583254	0.590970
H646	H	0.944987	-0.083254	1.090970
C647	C	0.503868	-0.642638	0.537431
C648	C	1.003868	-0.142638	1.037431
C649	C	0.513281	-0.603838	0.532495
C650	C	1.013281	-0.103838	1.032495
H651	H	0.533850	-0.666215	0.526100
H652	H	1.033850	-0.166215	1.026100
H653	H	0.483910	-0.630695	0.518696
H654	H	0.983910	-0.130695	1.018696
H655	H	0.487461	-0.657329	0.570850
H656	H	0.987461	-0.157329	1.070850
H657	H	0.529682	-0.589144	0.499076
H658	H	1.029682	-0.089144	0.999076
H659	H	0.533242	-0.615779	0.551224
H660	H	1.033242	-0.115779	1.051224
O661	O	0.434919	-0.384645	0.460714
O662	O	0.934919	0.115355	0.960714
C663	C	0.422364	-0.349902	0.418553
C664	C	0.922364	0.150098	0.918553
H665	H	0.408281	-0.365672	0.406813
H666	H	0.908281	0.134328	0.906813
H667	H	0.392664	-0.315413	0.426932
H668	H	0.892664	0.184587	0.926932
C669	C	0.485089	-0.317868	0.391457
C670	C	0.985089	0.182132	0.891457
C671	C	0.467796	-0.337238	0.377035
C672	C	0.967796	0.162762	0.877035
H673	H	0.513113	-0.310054	0.365847
H674	H	1.013113	0.189946	0.865847
H675	H	0.493547	-0.341273	0.419862
H676	H	0.993547	0.158727	0.919862
H677	H	0.460335	-0.289129	0.398440
H678	H	0.960335	0.210871	0.898440
H679	H	0.492548	-0.365979	0.370058
H680	H	0.992548	0.134021	0.870058
H681	H	0.459344	-0.313837	0.348627
H682	H	0.959344	0.186163	0.848627
O683	O	0.333996	-0.351086	0.494497
O684	O	0.833996	0.148914	0.994497
C685	C	0.283352	-0.343090	0.514805
C686	C	0.783352	0.156910	1.014805
H687	H	0.276364	-0.374367	0.517274
H688	H	0.776364	0.125633	1.017274
H689	H	0.268861	-0.341283	0.552938
H690	H	0.768861	0.158717	1.052938
C691	C	0.265630	-0.256129	0.479104
C692	C	0.765630	0.243871	0.979104
C693	C	0.257047	-0.294543	0.482134
C694	C	0.757047	0.205457	0.982134
H695	H	0.249403	-0.226182	0.458953
H696	H	0.749403	0.273818	0.958953
H697	H	0.299750	-0.261516	0.465425
H698	H	0.799750	0.238484	0.965425
H699	H	0.253554	-0.254630	0.510885
H700	H	0.753554	0.245370	1.010885
H701	H	0.269129	-0.296045	0.450355
H702	H	0.769129	0.203955	0.950355
H703	H	0.222929	-0.289155	0.495808
H704	H	0.722929	0.210845	0.995808
O705	O	0.165085	-0.222583	0.443312
O706	O	0.665085	0.277417	0.943312
C707	C	0.172298	-0.189017	0.395261
C708	C	0.672298	0.310983	0.895261
H709	H	0.141437	-0.152550	0.395376
H710	H	0.641437	0.347450	0.895376
H711	H	0.208743	-0.183560	0.380573
H712	H	0.708743	0.316440	0.880573
C713	C	0.210535	-0.253773	0.362316
C714	C	0.710535	0.246227	0.862316
C715	C	0.172630	-0.208985	0.362456
C716	C	0.672630	0.291015	0.862456
H717	H	0.210742	-0.266091	0.342080
H718	H	0.710742	0.233909	0.842080
H719	H	0.205678	-0.276388	0.394689
H720	H	0.705678	0.223612	0.894689
H721	H	0.240902	-0.249220	0.350078
H722	H	0.740902	0.250780	0.850078
H723	H	0.142263	-0.213540	0.374700
H724	H	0.642263	0.286460	0.874700
H725	H	0.177482	-0.186371	0.330085
H726	H	0.677482	0.313629	0.830085
H727	H	0.053825	-0.125861	0.569312
H728	H	0.553825	0.374139	1.069312
O729	O	0.082848	-0.222637	0.608138
O730	O	0.582848	0.277363	1.108138
C731	C	0.053226	-0.189094	0.633843
C732	C	0.553226	0.310906	1.133843
H733	H	0.059732	-0.152611	0.609439
H734	H	0.559732	0.347389	1.109439
H735	H	0.013148	-0.183665	0.644900
H736	H	0.513148	0.316335	1.144900
C737	C	0.058229	-0.253877	0.709923
C738	C	0.558229	0.246123	1.209923
C739	C	0.066223	-0.209069	0.679951
C740	C	0.566223	0.290931	1.179951
H741	H	0.066244	-0.266199	0.738367
H742	H	0.566244	0.233801	1.238367
H743	H	0.078185	-0.276477	0.692606
H744	H	0.578185	0.223523	1.192606
H745	H	0.024831	-0.249348	0.719133
H746	H	0.524831	0.250652	1.219133
H747	H	0.099622	-0.213601	0.670738
H748	H	0.599622	0.286399	1.170738
H749	H	0.046274	-0.186471	0.697268
H750	H	0.546274	0.313529	1.197268
O751	O	0.131452	-0.121731	0.409804
O752	O	0.631452	0.378269	0.909804
C753	C	0.157210	-0.092129	0.397419
C754	C	0.657210	0.407871	0.897419
H755	H	0.148006	-0.084470	0.431134
H756	H	0.648006	0.415530	0.931134
H757	H	0.198162	-0.111834	0.383347
H758	H	0.698162	0.388166	0.883347
C759	C	0.153768	-0.052926	0.315943
C760	C	0.653768	0.447074	0.815943
C761	C	0.142459	-0.043516	0.357353
C762	C	0.642459	0.456484	0.857353
H763	H	0.144670	-0.022940	0.291227
H764	H	0.644670	0.477060	0.791227
H765	H	0.136415	-0.072871	0.324287
H766	H	0.636415	0.427129	0.824287
H767	H	0.187894	-0.069349	0.304223
H768	H	0.687894	0.430651	0.804223
H769	H	0.108332	-0.027100	0.369076
H770	H	0.608332	0.472900	0.869076
H771	H	0.159805	-0.023567	0.349010
H772	H	0.659805	0.476433	0.849010
H773	H	-0.059824	-0.503179	0.174290
H774	H	0.440176	-0.003179	0.674290
H775	H	-0.090896	-0.534066	0.267110
H776	H	0.409104	-0.034066	0.767110
H777	H	0.015913	-0.654818	0.174378
H778	H	0.515913	-0.154818	0.674378
H779	H	-0.090949	-0.534065	0.310634
H780	H	0.409051	-0.034065	0.810634
O781	O	-0.013276	-0.693614	0.271206
O782	O	0.486724	-0.193614	0.771206
C783	C	-0.030743	-0.714840	0.258640
C784	C	0.469257	-0.214840	0.758640
H785	H	-0.062262	-0.685682	0.244513
H786	H	0.437738	-0.185682	0.744513
H787	H	-0.000020	-0.731022	0.228971
H788	H	0.499980	-0.231022	0.728971
C789	C	-0.010037	-0.791367	0.321430
C790	C	0.489963	-0.291367	0.821430
C791	C	-0.048751	-0.755555	0.304082
C792	C	0.451249	-0.255555	0.804082
H793	H	-0.021143	-0.816483	0.349460
H794	H	0.478857	-0.316483	0.849460
H795	H	0.001733	-0.777068	0.329895
H796	H	0.501733	-0.277068	0.829895
H797	H	0.015563	-0.804846	0.296701
H798	H	0.515563	-0.304846	0.796701
H799	H	-0.074347	-0.742072	0.328809
H800	H	0.425653	-0.242072	0.828809
H801	H	-0.060526	-0.769853	0.295623
H802	H	0.439474	-0.269853	0.795623
O803	O	0.020150	-0.660092	0.422262
O804	O	0.520150	-0.160092	0.922262
C805	C	0.027391	-0.708141	0.429497
C806	C	0.527391	-0.208141	0.929497
H807	H	-0.003435	-0.708016	0.423714
H808	H	0.496565	-0.208016	0.923714
H809	H	0.063862	-0.722835	0.402305
H810	H	0.563862	-0.222835	0.902305
C811	C	0.065533	-0.741102	0.489048
C812	C	0.565533	-0.241102	0.989048
C813	C	0.027670	-0.740949	0.481948
C814	C	0.527670	-0.240949	0.981948
H815	H	0.065708	-0.761340	0.521401
H816	H	0.565708	-0.261340	1.021401
H817	H	0.060657	-0.708731	0.484172
H818	H	0.560657	-0.208731	0.984172
H819	H	0.095922	-0.753346	0.466384
H820	H	0.595922	-0.253346	0.966384
H821	H	-0.002718	-0.728700	0.504607
H822	H	0.497282	-0.228700	1.004607
H823	H	0.032541	-0.773319	0.486829
H824	H	0.532541	-0.273319	0.986829
H825	H	0.052828	-0.784146	0.351024
H826	H	0.552828	-0.284146	0.851024
O827	O	0.027181	-0.687377	0.316259
O828	O	0.527181	-0.187377	0.816259
C829	C	0.074878	-0.720969	0.313572
C830	C	0.574878	-0.220969	0.813572
H831	H	0.072887	-0.757429	0.343796
H832	H	0.572887	-0.257429	0.843796
H833	H	0.094450	-0.726431	0.276496
H834	H	0.594450	-0.226431	0.776496
C835	C	0.105674	-0.656251	0.282773
C836	C	0.605674	-0.156251	0.782773
C837	C	0.103230	-0.701030	0.319897
C838	C	0.603230	-0.201030	0.819897
H839	H	0.123164	-0.643951	0.286672
H840	H	0.623164	-0.143951	0.786672
H841	H	0.073541	-0.633619	0.284581
H842	H	0.573541	-0.133619	0.784581
H843	H	0.121984	-0.660809	0.251880
H844	H	0.621984	-0.160809	0.751880
H845	H	0.086915	-0.696470	0.350789
H846	H	0.586915	-0.196470	0.850789
H847	H	0.135362	-0.723661	0.318094
H848	H	0.635362	-0.223661	0.818094
H849	H	-0.097376	-0.783993	0.408060
H850	H	0.402624	-0.283993	0.908060
H851	H	-0.134607	-0.647683	0.424287
H852	H	0.365393	-0.147683	0.924287
O853	O	-0.136104	-0.687215	0.378225
O854	O	0.363896	-0.187215	0.878225
C855	C	-0.161477	-0.720734	0.403302
C856	C	0.338523	-0.220734	0.903302
H857	H	-0.135216	-0.757228	0.397438
H858	H	0.364784	-0.257228	0.897438
H859	H	-0.177449	-0.726147	0.444010
H860	H	0.322551	-0.226147	0.944010
C861	C	-0.235347	-0.655918	0.390828
C862	C	0.264653	-0.155918	0.890828
C863	C	-0.203094	-0.700739	0.383622
C864	C	0.296906	-0.200739	0.883622
H865	H	-0.261020	-0.643584	0.378691
H866	H	0.238980	-0.143584	0.878691
H867	H	-0.218253	-0.633335	0.373935
H868	H	0.281747	-0.133335	0.873935
H869	H	-0.248652	-0.660434	0.424752
H870	H	0.251348	-0.160434	0.924752
H871	H	-0.189786	-0.696221	0.349699
H872	H	0.310214	-0.196221	0.849699
H873	H	-0.220187	-0.723322	0.400510
H874	H	0.279813	-0.223322	0.900510
H875	H	-0.227194	-0.540877	0.303400
H876	H	0.272806	-0.040877	0.803400
O877	O	-0.231388	-0.618642	0.463002
O878	O	0.268612	-0.118642	0.963002
C879	C	-0.197895	-0.648282	0.488767
C880	C	0.302105	-0.148282	0.988767
H881	H	-0.161402	-0.666913	0.464404
H882	H	0.338598	-0.166913	0.964404
H883	H	-0.192472	-0.624693	0.499837
H884	H	0.307528	-0.124693	0.999837
C885	C	-0.262748	-0.664476	0.564791
C886	C	0.237252	-0.164476	1.064791
C887	C	-0.217929	-0.687362	0.534869
C888	C	0.282071	-0.187362	1.034869
H889	H	-0.275107	-0.688581	0.593231
H890	H	0.224893	-0.188581	1.093231
H891	H	-0.285314	-0.644505	0.547434
H892	H	0.214686	-0.144505	1.047434
H893	H	-0.258223	-0.644818	0.574011
H894	H	0.241777	-0.144818	1.074011
H895	H	-0.222456	-0.707014	0.525645
H896	H	0.277544	-0.207014	1.025645
H897	H	-0.195365	-0.707337	0.552227
H898	H	0.304635	-0.207337	1.052227
O899	O	-0.130410	-0.569949	0.264685
O900	O	0.369590	-0.069949	0.764685
C901	C	-0.163904	-0.540291	0.238920
C902	C	0.336096	-0.040291	0.738920
H903	H	-0.200400	-0.546776	0.263270
H904	H	0.299600	-0.046776	0.763270
H905	H	-0.169317	-0.500220	0.227885
H906	H	0.330683	-0.000220	0.727885
C907	C	-0.099053	-0.545300	0.162884
C908	C	0.400947	-0.045300	0.662884
C909	C	-0.143877	-0.553267	0.192789
C910	C	0.356123	-0.053267	0.692789
H911	H	-0.086700	-0.553302	0.134427
H912	H	0.413300	-0.053302	0.634427
H913	H	-0.076488	-0.565279	0.180242
H914	H	0.423512	-0.065279	0.680242
H915	H	-0.103570	-0.511906	0.153693
H916	H	0.396430	-0.011906	0.653693
H917	H	-0.139359	-0.586661	0.201985
H918	H	0.360641	-0.086661	0.701985
H919	H	-0.166442	-0.533293	0.175432
H920	H	0.333558	-0.033293	0.675432
