data_functionalizedCrystal
_audit_creation_method	'MofGen! by Chris Wilmer'
_symmetry_space_group_name_H-M	'P1'
_symmetry_Int_Tables_number	1
_symmetry_cell_setting	triclinic
loop_
_symmetry_equiv_pos_as_xyz
  x,y,z
_cell_length_a	15.625950
_cell_length_b	11.792241
_cell_length_c	14.750779
_cell_angle_alpha	77.269352
_cell_angle_beta	120.090508
_cell_angle_gamma	84.220291
loop_
_atom_site_label
_atom_site_type_symbol
_atom_site_fract_x
_atom_site_fract_y
_atom_site_fract_z
O1	O	1.286398	0.034964	0.367812
O2	O	0.999738	0.083326	0.268059
O3	O	1.150026	-0.106812	0.320364
O4	O	1.136110	0.225103	0.315507
O5	O	1.192511	-0.160557	0.494800
O6	O	1.042223	0.029582	0.442495
O7	O	1.328883	-0.018781	0.542249
Zn8	Zn	1.192298	-0.003132	0.520067
Zn9	Zn	1.136323	0.067678	0.290240
O10	O	1.178594	0.171358	0.489944
C11	C	0.984282	0.059586	0.342506
C12	C	0.874931	0.068904	0.304454
C13	C	0.630957	-0.046829	0.654602
C14	C	0.528191	-0.038035	0.618797
C15	C	0.481927	0.020551	0.428651
C16	C	0.584691	0.011768	0.464440
C17	C	0.659199	-0.021924	0.577417
C18	C	0.612932	0.036673	0.387255
C19	C	0.715687	0.027884	0.423042
C20	C	0.790201	-0.005809	0.536014
C21	C	0.761954	-0.030712	0.613204
C22	C	0.538423	0.070356	0.274279
C23	C	0.566665	0.095261	0.197094
C24	C	0.669420	0.086481	0.232880
C25	C	0.743934	0.052788	0.345852
C26	C	0.697668	0.111384	0.155691
C27	C	0.800423	0.102596	0.191477
C28	C	0.846689	0.043999	0.381639
C29	C	1.170394	-0.175877	0.407277
C30	C	1.167778	-0.301595	0.406366
C31	C	1.162964	-0.531759	0.404675
C32	C	1.165639	-0.403679	0.405614
C33	C	1.344338	0.004961	0.467799
C34	C	1.453688	-0.004355	0.505844
C35	C	1.158225	0.240423	0.403028
C36	C	1.160840	0.366144	0.403932
N37	N	1.230507	-0.051460	0.676921
N38	N	1.098122	0.115996	0.133389
C39	C	0.991409	0.250919	0.945526
C40	C	1.018191	0.217061	1.055346
C41	C	1.151299	0.048747	1.101634
C42	C	1.124525	0.082588	0.991815
C43	C	1.044580	0.183676	0.913769
C44	C	1.177696	0.015344	0.960058
C45	C	1.150928	0.049186	0.850249
C46	C	1.070988	0.150272	0.772198
C47	C	1.017812	0.217518	0.803960
C48	C	1.257645	-0.085738	1.038107
C49	C	1.310816	-0.152982	1.006350
C50	C	1.284044	-0.119145	0.896538
C51	C	1.204104	-0.018059	0.818487
C52	C	1.337220	-0.186390	0.864776
C53	C	1.310452	-0.152548	0.754967
C54	C	1.177336	0.015783	0.708678
H55	H	0.454754	0.077516	0.245145
Cl56	Cl	1.291298	-0.128274	1.176155
Cl57	Cl	0.855627	-0.073053	0.755234
H58	H	1.375911	-0.235286	1.069908
H59	H	0.691625	-0.074246	0.746598
Cl60	Cl	0.835931	0.133902	0.094444
H61	H	0.636990	0.138804	0.063705
Cl62	Cl	0.890894	0.377994	0.847402
Cl63	Cl	0.951337	0.301614	1.095258
H64	H	1.049198	0.177828	0.682786
Cl65	Cl	1.437729	-0.313457	0.962903
H66	H	0.505202	-0.058292	0.681658
H67	H	0.907357	0.016582	0.473635
Cl68	Cl	0.919382	-0.016867	0.581007
Cl69	Cl	1.251800	-0.078329	1.199756
Cl70	Cl	1.377301	-0.237083	0.715044
H71	H	0.952706	0.299826	0.740408
H72	H	0.421250	0.047977	0.336665
H73	H	1.112230	0.098092	0.645126
Cl74	Cl	0.472994	0.137576	0.055073
