data_functionalizedCrystal
_audit_creation_method	'MofGen! by Chris Wilmer'
_symmetry_space_group_name_H-M	'P1'
_symmetry_Int_Tables_number	1
_symmetry_cell_setting	triclinic
loop_
_symmetry_equiv_pos_as_xyz
  x,y,z
_cell_length_a	18.101395
_cell_length_b	15.297475
_cell_length_c	15.296720
_cell_angle_alpha	91.617114
_cell_angle_beta	80.356295
_cell_angle_gamma	99.666319
loop_
_atom_site_label
_atom_site_type_symbol
_atom_site_fract_x
_atom_site_fract_y
_atom_site_fract_z
Zn1	Zn	-0.576346	-1.253296	0.726580
Zn2	Zn	-0.682980	-1.278539	0.580092
Zn3	Zn	-0.534744	-1.132181	0.554822
Zn4	Zn	-0.675701	-1.106767	0.701220
O5	O	-0.617443	-1.192696	0.640678
O6	O	-0.610949	-1.379219	0.728336
O7	O	-0.648952	-1.280325	0.454165
O8	O	-0.436645	-1.148319	0.577643
O9	O	-0.689292	-1.397765	0.620712
O10	O	-0.467210	-1.237301	0.703833
O11	O	-0.540044	-1.172796	0.435600
O12	O	-0.532985	-1.006236	0.553053
O13	O	-0.676885	-1.105004	0.827159
O14	O	-0.636545	-0.987564	0.660612
O15	O	-0.603890	-1.212658	0.845790
O16	O	-0.785632	-1.255681	0.596122
O17	O	-0.780284	-1.129481	0.685115
C18	C	-0.579462	-0.965117	0.601339
C19	C	-0.563233	-0.867755	0.584530
C20	C	-0.809831	-1.192583	0.640632
C21	C	-0.892152	-1.192610	0.640656
C22	C	-0.644216	-1.153180	0.869145
C23	C	-0.655626	-1.136341	0.966504
C24	C	-1.191281	-1.192794	0.640736
C25	C	-1.156667	-1.113520	0.696923
C26	C	-1.070971	-1.113236	0.696656
C27	C	-1.042879	-1.192702	0.640697
C28	C	-1.059025	-1.183698	0.544069
C29	C	-1.144646	-1.183193	0.544399
C30	C	-1.177858	-1.281361	0.680391
C31	C	-1.092353	-1.280465	0.682321
C32	C	-0.959009	-1.192653	0.640670
C33	C	-1.275150	-1.192842	0.640757
C34	C	-0.424310	-1.192829	0.640748
C35	C	-0.342008	-1.192886	0.640777
C36	C	-0.655573	-1.421163	0.680172
C37	C	-0.671822	-1.518521	0.697001
C38	C	-0.733434	-0.554578	0.760815
C39	C	-0.748686	-0.646055	0.776605
C40	C	-0.702324	-0.701484	0.728588
C41	C	-0.640708	-0.665428	0.664778
C42	C	-0.625457	-0.573942	0.648981
C43	C	-0.594348	-0.720849	0.616754
C44	C	-0.532731	-0.684792	0.552944
C45	C	-0.517483	-0.593315	0.537151
C46	C	-0.563845	-0.537886	0.585167
C47	C	-0.609598	-0.812334	0.632551
C48	C	-0.501621	-0.831699	0.520717
C49	C	-0.486369	-0.740221	0.504927
C50	C	-0.590728	-1.232108	0.413109
C51	C	-0.579139	-1.249117	0.315780
C52	C	-0.535774	-1.313081	1.279745
C53	C	-0.525057	-1.328908	1.188272
C54	C	-0.557698	-1.280767	1.132826
C55	C	-0.601059	-1.216797	1.168860
C56	C	-0.611782	-1.200974	1.260343
C57	C	-0.633706	-1.168660	1.113424
C58	C	-0.677067	-1.104691	1.149458
C59	C	-0.687788	-1.088870	1.240932
C60	C	-0.655147	-1.137010	1.296378
C61	C	-0.622982	-1.184484	1.021941
C62	C	-0.698990	-1.072377	1.002539
C63	C	-0.709707	-1.056550	1.094012
H64	H	-1.060550	-1.117017	0.767804
Cl65	Cl	-1.030432	-1.271125	0.476587
H66	H	-1.024067	-1.120211	0.512101
Cl67	Cl	-0.470549	-1.409323	1.142977
Cl68	Cl	-0.408910	-0.694881	0.424711
Cl69	Cl	-0.764218	-0.976135	1.139324
H70	H	-0.463870	-0.876830	0.481616
Cl71	Cl	-0.494754	-1.373600	1.349452
Cl72	Cl	-1.154518	-1.083970	0.495408
H73	H	-0.723102	-1.036788	1.270269
H74	H	-0.798856	-0.675406	0.828558
Cl75	Cl	-0.544221	-1.300662	1.017830
H76	H	-0.551428	-0.463396	0.572316
H77	H	-0.725571	-1.033178	0.957395
H78	H	-1.200698	-1.340226	0.639662
H79	H	-1.187859	-1.117108	0.768267
H80	H	-1.165050	-1.047932	0.669664
H81	H	-0.663871	-1.124127	1.370864
Cl82	Cl	-1.018905	-1.011380	0.654157
Cl83	Cl	-1.228985	-1.298847	0.788624
Cl84	Cl	-1.179274	-1.269798	0.476225
H85	H	-0.587677	-1.236568	0.992611
Cl86	Cl	-1.078083	-1.291401	0.792236
H87	H	-1.074398	-1.341370	0.645654
Cl88	Cl	-0.687056	-0.857652	0.712768
H89	H	-0.714747	-0.775969	0.741449
H90	H	-0.771179	-0.509441	0.799898
H91	H	-0.467317	-0.563962	0.485183
