data_functionalizedCrystal
_audit_creation_method	'MofGen! by Chris Wilmer'
_symmetry_space_group_name_H-M	'P1'
_symmetry_Int_Tables_number	1
_symmetry_cell_setting	triclinic
loop_
_symmetry_equiv_pos_as_xyz
  x,y,z
_cell_length_a	16.625547
_cell_length_b	21.295416
_cell_length_c	16.625548
_cell_angle_alpha	89.986091
_cell_angle_beta	90.012490
_cell_angle_gamma	89.969732
loop_
_atom_site_label
_atom_site_type_symbol
_atom_site_fract_x
_atom_site_fract_y
_atom_site_fract_z
Zn1	Zn	1.232538	0.250715	0.455986
Zn2	Zn	1.232452	0.355957	0.321147
Zn3	Zn	1.097729	0.250705	0.321157
Zn4	Zn	1.097652	0.355950	0.455927
O5	O	1.165093	0.303332	0.388554
O6	O	1.345359	0.264682	0.438120
O7	O	1.214577	0.341994	0.208316
O8	O	1.115680	0.162617	0.339071
O9	O	1.345296	0.342003	0.339055
O10	O	1.214724	0.162624	0.438129
O11	O	1.115597	0.264666	0.208323
O12	O	0.984886	0.264659	0.339013
O13	O	1.115549	0.341991	0.568767
O14	O	0.984830	0.341982	0.438029
O15	O	1.214649	0.264675	0.568811
O16	O	1.214502	0.444045	0.338997
O17	O	1.115465	0.444040	0.438019
C18	C	0.955602	0.303319	0.388516
C19	C	0.865981	0.303329	0.388519
C20	C	0.793198	0.303331	0.388529
C21	C	0.701890	0.303334	0.388549
C22	C	0.629114	0.303340	0.388570
C23	C	0.537799	0.303344	0.388589
C24	C	1.164988	0.466883	0.388519
C25	C	1.165017	0.536851	0.388530
C26	C	1.216631	0.569700	0.337024
C27	C	1.216669	0.635442	0.337046
C28	C	1.165078	0.668334	0.388565
C29	C	1.113460	0.635478	0.440082
C30	C	1.113429	0.569736	0.440064
N31	N	1.094542	0.771601	0.394705
N32	N	1.094574	0.834052	0.394717
C33	C	1.165169	0.866409	0.388623
N34	N	1.235734	0.833954	0.382500
N35	N	1.235701	0.771497	0.382484
C36	C	1.165106	0.739619	0.388590
C37	C	1.216829	0.970543	0.337137
C38	C	1.216869	1.036286	0.337165
C39	C	1.113653	1.036320	0.440196
C40	C	1.113621	0.970578	0.440173
C41	C	1.165208	0.937693	0.388639
C42	C	1.375402	0.303344	0.388593
C43	C	1.465023	0.303350	0.388609
C44	C	1.165100	0.303334	0.598863
C45	C	1.165103	0.303334	0.688484
C46	C	1.165221	1.139141	0.388621
C47	C	1.165278	1.069173	0.388686
C48	C	1.165069	0.303340	1.016660
C49	C	1.165077	0.303340	0.925351
C50	C	1.165087	0.303338	0.852575
C51	C	1.165093	0.303337	0.761261
C52	C	1.165078	0.303343	1.179063
C53	C	1.165070	0.303338	1.089442
H54	H	1.258638	0.542927	0.295064
H55	H	1.258703	0.662193	0.295104
C56	C	1.273588	0.934367	0.280462
N57	N	1.316342	0.907121	0.237776
H58	H	1.071456	0.662262	0.482030
C59	C	1.056856	0.934443	0.496851
N60	N	1.014108	0.907227	0.539553
H61	H	1.071398	0.542991	0.482007
C62	C	1.273651	1.072419	0.280500
N63	N	1.316419	1.099635	0.237817
C64	C	1.056903	1.072497	0.496870
N65	N	1.014160	1.099749	0.539560
