data_functionalizedCrystal
_audit_creation_method	'MofGen! by Chris Wilmer'
_symmetry_space_group_name_H-M	'P1'
_symmetry_Int_Tables_number	1
_symmetry_cell_setting	triclinic
loop_
_symmetry_equiv_pos_as_xyz
  x,y,z
_cell_length_a	14.971491
_cell_length_b	19.188930
_cell_length_c	14.048226
_cell_angle_alpha	89.988446
_cell_angle_beta	89.991693
_cell_angle_gamma	83.380508
loop_
_atom_site_label
_atom_site_type_symbol
_atom_site_fract_x
_atom_site_fract_y
_atom_site_fract_z
O1	O	1.186463	0.091005	-0.079212
O2	O	1.686463	0.591005	0.420788
O3	O	0.926006	0.101897	-0.079207
O4	O	1.426006	0.601897	0.420793
O5	O	1.063751	-0.005180	-0.079191
O6	O	1.563751	0.494820	0.420809
O7	O	1.048719	0.198082	-0.079228
O8	O	1.548719	0.698082	0.420772
O9	O	1.063735	-0.005187	0.079130
O10	O	1.563735	0.494813	0.579130
O11	O	0.925990	0.101891	0.079115
O12	O	1.425990	0.601891	0.579115
O13	O	1.186447	0.090999	0.079109
O14	O	1.686447	0.590999	0.579109
Zn15	Zn	1.056216	0.096444	0.104249
Zn16	Zn	1.556216	0.596444	0.604249
Zn17	Zn	1.056238	0.096452	-0.104347
Zn18	Zn	1.556238	0.596452	0.395653
O19	O	1.048702	0.198076	0.079093
O20	O	1.548702	0.698076	0.579093
C21	C	0.892676	0.101406	-0.000045
C22	C	1.392676	0.601406	0.499955
C23	C	0.793387	0.099945	-0.000042
C24	C	1.293387	0.599945	0.499958
C25	C	0.365724	0.093641	-0.086364
C26	C	0.865724	0.593641	0.413636
C27	C	0.459017	0.095012	-0.086361
C28	C	0.959017	0.595012	0.413639
C29	C	0.505650	0.095699	-0.000056
C30	C	1.005650	0.595699	0.499944
C31	C	0.458986	0.095007	0.086250
C32	C	0.958986	0.595007	0.586250
C33	C	0.365696	0.093631	0.086246
C34	C	0.865696	0.593631	0.586246
C35	C	0.653433	0.097877	0.086253
C36	C	1.153433	0.597877	0.586253
C37	C	0.746730	0.099255	0.086258
C38	C	1.246730	0.599255	0.586258
C39	C	0.746754	0.099259	-0.086353
C40	C	1.246754	0.599259	0.413647
C41	C	0.653463	0.097882	-0.086358
C42	C	1.153463	0.597882	0.413642
C43	C	0.606806	0.097192	-0.000051
C44	C	1.106806	0.597192	0.499949
C45	C	1.063256	-0.031196	-0.000028
C46	C	1.563256	0.468804	0.499972
C47	C	1.061795	-0.108705	-0.000020
C48	C	1.561795	0.391295	0.499980
C49	C	1.142619	-0.153368	-0.000017
C50	C	1.642619	0.346632	0.499983
C51	C	1.141246	-0.226196	-0.000032
C52	C	1.641246	0.273804	0.499968
C53	C	1.059044	-0.254358	-0.000031
C54	C	1.559044	0.245642	0.499969
C55	C	0.978210	-0.209686	-0.000039
C56	C	1.478210	0.290314	0.499961
C57	C	0.979585	-0.136859	-0.000033
C58	C	1.479585	0.363141	0.499967
N59	N	0.996205	-0.362569	0.053850
N60	N	1.496205	0.137431	0.553850
N61	N	0.994905	-0.431752	0.053847
N62	N	1.494905	0.068248	0.553847
C63	C	1.054896	-0.473780	-0.000050
C64	C	1.554896	0.026220	0.499950
N65	N	1.116251	-0.444014	-0.053932
N66	N	1.616251	0.055986	0.446068
N67	N	1.117555	-0.374826	-0.053924
N68	N	1.617555	0.125174	0.446076
C69	C	1.057544	-0.333326	-0.000038
C70	C	1.557544	0.166674	0.499962
C71	C	1.134237	-0.597412	-0.000065
C72	C	1.634237	-0.097412	0.499935
C73	C	1.132861	-0.670242	-0.000086
C74	C	1.632861	-0.170242	0.499914
C75	C	0.969822	-0.653730	-0.000084
C76	C	1.469822	-0.153730	0.499916
C77	C	0.971201	-0.580902	-0.000072
C78	C	1.471201	-0.080902	0.499928
C79	C	1.053411	-0.552748	-0.000058
C80	C	1.553411	-0.052748	0.499942
C81	C	1.219777	0.091490	-0.000055
C82	C	1.719777	0.591490	0.499945
C83	C	1.319066	0.092951	-0.000064
C84	C	1.819066	0.592951	0.499936
C85	C	1.049197	0.224092	-0.000072
C86	C	1.549197	0.724092	0.499928
C87	C	1.050659	0.301601	-0.000087
C88	C	1.550659	0.801601	0.499913
N89	N	1.056208	0.096438	0.246609
N90	N	1.556208	0.596438	0.746609
N91	N	1.056253	0.096453	-0.246707
N92	N	1.556253	0.596453	0.253293
C93	C	1.117220	0.049043	0.296434
C94	C	1.617220	0.549043	0.796434
C95	C	1.117226	0.049043	0.396092
C96	C	1.617226	0.549043	0.896092
C97	C	1.056223	0.096441	0.445923
C98	C	1.556223	0.596441	0.945923
C99	C	0.995204	0.143837	0.396091
C100	C	1.495204	0.643837	0.896091
C101	C	0.995195	0.143834	0.296435
C102	C	1.495195	0.643834	0.796435
C103	C	0.995230	0.143842	0.603805
C104	C	1.495230	0.643842	1.103805
C105	C	0.995241	0.143847	0.703468
C106	C	1.495241	0.643847	1.203468
C107	C	1.117261	0.049052	0.703462
C108	C	1.617261	0.549052	1.203462
C109	C	1.117252	0.049048	0.603806
C110	C	1.617252	0.549048	1.103806
C111	C	1.056234	0.096446	0.553981
C112	C	1.556234	0.596446	1.053981
H113	H	0.615496	0.097328	-0.156634
H114	H	1.115496	0.597328	0.343366
H115	H	0.784746	0.099822	-0.156627
H116	H	1.284746	0.599822	0.343373
H117	H	1.201177	-0.574488	-0.000058
H118	H	1.701177	-0.074488	0.499942
H119	H	1.166906	0.010451	0.436659
H120	H	1.666906	0.510451	0.936659
Br121	Br	0.810018	0.100183	0.203386
Br122	Br	1.310018	0.600183	0.703386
Br123	Br	0.590115	0.096930	0.203385
Br124	Br	1.090115	0.596930	0.703385
H125	H	0.496963	0.095562	0.156520
H126	H	0.996963	0.595562	0.656520
H127	H	0.945540	0.182436	0.563241
H128	H	1.445540	0.682436	1.063241
Br129	Br	0.912406	0.208160	0.463715
Br130	Br	1.412406	0.708160	0.963715
Br131	Br	0.912383	0.208153	0.228815
Br132	Br	1.412383	0.708153	0.728815
Br133	Br	0.302376	0.092685	0.203371
Br134	Br	0.802376	0.592685	0.703371
Br135	Br	1.254189	-0.115162	-0.000025
Br136	Br	1.754189	0.384838	0.499975
Br137	Br	1.250944	-0.286822	-0.000032
Br138	Br	1.750944	0.213178	0.499968
Br139	Br	0.522336	0.095941	-0.203487
Br140	Br	1.022336	0.595941	0.296513
H141	H	0.911280	-0.232620	-0.000040
H142	H	1.411280	0.267380	0.499960
Br143	Br	1.242561	-0.730858	-0.000093
Br144	Br	1.742561	-0.230858	0.499907
Br145	Br	0.302444	0.092717	-0.203498
Br146	Br	0.802444	0.592717	0.296502
Br147	Br	1.200021	-0.015281	0.228817
Br148	Br	1.700021	0.484719	0.728817
Br149	Br	1.200048	-0.015271	0.536175
Br150	Br	1.700048	0.484729	1.036175
H151	H	0.913766	-0.100494	-0.000035
H152	H	1.413766	0.399506	0.499965
Br153	Br	1.200074	-0.015270	0.771084
Br154	Br	1.700074	0.484730	1.271084
Br155	Br	0.912447	0.208175	0.771088
Br156	Br	1.412447	0.708175	1.271088
Br157	Br	0.858261	-0.691942	-0.000092
Br158	Br	1.358261	-0.191942	0.499908
Br159	Br	0.861505	-0.520284	-0.000075
Br160	Br	1.361505	-0.020284	0.499925
