data_functionalizedCrystal
_audit_creation_method	'MofGen! by Chris Wilmer'
_symmetry_space_group_name_H-M	'P1'
_symmetry_Int_Tables_number	1
_symmetry_cell_setting	triclinic
loop_
_symmetry_equiv_pos_as_xyz
  x,y,z
_cell_length_a	18.050590
_cell_length_b	19.120786
_cell_length_c	18.050582
_cell_angle_alpha	87.534997
_cell_angle_beta	90.000767
_cell_angle_gamma	92.454965
loop_
_atom_site_label
_atom_site_type_symbol
_atom_site_fract_x
_atom_site_fract_y
_atom_site_fract_z
Zn1	Zn	1.122683	-0.279875	-0.406968
Zn2	Zn	1.622683	0.220125	0.093032
Zn3	Zn	1.117303	-0.397324	-0.277476
Zn4	Zn	1.617303	0.102676	0.222524
Zn5	Zn	0.998503	-0.279863	-0.282826
Zn6	Zn	1.498503	0.220137	0.217174
Zn7	Zn	0.993162	-0.397273	-0.401660
Zn8	Zn	1.493162	0.102727	0.098340
O9	O	1.057913	-0.338584	-0.342232
O10	O	1.557913	0.161416	0.157768
O11	O	1.225893	-0.295481	-0.389772
O12	O	1.725893	0.204519	0.110228
O13	O	1.101527	-0.381759	-0.174260
O14	O	1.601527	0.118241	0.325740
O15	O	1.019463	-0.181576	-0.303754
O16	O	1.519463	0.318424	0.196246
O17	O	1.221940	-0.381770	-0.294635
O18	O	1.721940	0.118230	0.205365
O19	O	1.110698	-0.181584	-0.394960
O20	O	1.610698	0.318416	0.105040
O21	O	1.014246	-0.295462	-0.178191
O22	O	1.514246	0.204538	0.321809
O23	O	0.893871	-0.295412	-0.298608
O24	O	1.393871	0.204588	0.201392
O25	O	1.010359	-0.381683	-0.506290
O26	O	1.510359	0.118317	-0.006290
O27	O	0.889947	-0.381672	-0.385915
O28	O	1.389947	0.118328	0.114085
O29	O	1.105518	-0.295431	-0.510189
O30	O	1.605518	0.204569	-0.010189
O31	O	1.096348	-0.495606	-0.289489
O32	O	1.596348	0.004394	0.210511
O33	O	1.005142	-0.495569	-0.380727
O34	O	1.505142	0.004431	0.119273
C35	C	0.864963	-0.338536	-0.342267
C36	C	1.364963	0.161464	0.157733
C37	C	0.782417	-0.338532	-0.342298
C38	C	1.282417	0.161468	0.157702
C39	C	0.580848	-0.385575	-0.389652
C40	C	1.080848	0.114425	0.110348
C41	C	0.534340	-0.321532	-0.410818
C42	C	1.034340	0.178468	0.089182
C43	C	0.631285	-0.338571	-0.342260
C44	C	1.131285	0.161429	0.157740
C45	C	0.530710	-0.402651	-0.321091
C46	C	1.030710	0.097349	0.178909
C47	C	0.485298	-0.338615	-0.342224
C48	C	0.985298	0.161385	0.157776
C49	C	0.585866	-0.274494	-0.363463
C50	C	1.085866	0.225506	0.136537
C51	C	0.582238	-0.355657	-0.273703
C52	C	1.082238	0.144343	0.226297
C53	C	0.535754	-0.291570	-0.294846
C54	C	1.035754	0.208430	0.205154
C55	C	0.715384	-0.338547	-0.342282
C56	C	1.215384	0.161453	0.157718
C57	C	0.401201	-0.338632	-0.342202
C58	C	0.901201	0.161368	0.157798
C59	C	1.049602	-0.521073	-0.333967
C60	C	1.549602	-0.021073	0.166033
C61	C	1.046114	-0.599142	-0.330457
C62	C	1.546114	-0.099142	0.169543
C63	C	1.091941	-0.635763	-0.376332
C64	C	1.591941	-0.135763	0.123668
C65	C	1.088661	-0.709118	-0.373034
C66	C	1.588661	-0.209118	0.126966
C67	C	1.039557	-0.745850	-0.323857
C68	C	1.539557	-0.245850	0.176143
C69	C	0.993725	-0.709224	-0.277980
C70	C	1.493725	-0.209224	0.222020
C71	C	0.997002	-0.635871	-0.281282
C72	C	1.497002	-0.135871	0.218718
C73	C	1.027285	-0.967333	-0.311513
C74	C	1.527285	-0.467333	0.188487
C75	C	1.024014	-1.040691	-0.308213
C76	C	1.524014	-0.540691	0.191787
C77	C	1.118949	-1.040580	-0.403269
C78	C	1.618949	-0.540580	0.096731
C79	C	1.122225	-0.967226	-0.406563
C80	C	1.622225	-0.467226	0.093437
C81	C	1.076390	-0.930606	-0.360689
C82	C	1.576390	-0.430606	0.139311
C83	C	1.036205	-0.820831	-0.320483
C84	C	1.536205	-0.320831	0.179517
C85	C	1.079739	-0.855627	-0.364067
C86	C	1.579739	-0.355627	0.135933
C87	C	1.251616	-0.338632	-0.342199
C88	C	1.751616	0.161368	0.157801
C89	C	1.334161	-0.338653	-0.342184
C90	C	1.834161	0.161347	0.157816
C91	C	1.057943	-0.338553	-0.535939
C92	C	1.557943	0.161447	-0.035939
C93	C	1.057956	-0.338539	-0.618486
C94	C	1.557956	0.161461	-0.118486
C95	C	1.066277	-0.155382	-0.350546
C96	C	1.566277	0.344618	0.149454
C97	C	1.069841	-0.077312	-0.354089
C98	C	1.569841	0.422688	0.145911
C99	C	1.006250	-0.385379	-0.815819
C100	C	1.506250	0.114621	-0.315819
C101	C	1.073231	-0.402560	-0.864416
C102	C	1.573231	0.097440	-0.364416
C103	C	1.057995	-0.338486	-0.769619
C104	C	1.557995	0.161514	-0.269619
C105	C	0.991052	-0.321285	-0.868104
C106	C	1.491052	0.178715	-0.368104
C107	C	1.058027	-0.338435	-0.915606
C108	C	1.558027	0.161565	-0.415606
C109	C	1.125011	-0.355700	-0.817127
C110	C	1.625011	0.144300	-0.317127
C111	C	1.042788	-0.274395	-0.820812
C112	C	1.542788	0.225605	-0.320812
C113	C	1.109817	-0.291552	-0.869388
C114	C	1.609817	0.208448	-0.369388
C115	C	1.057976	-0.338517	-0.685519
C116	C	1.557976	0.161483	-0.185519
C117	C	1.058054	-0.338404	-0.999704
C118	C	1.558054	0.161596	-0.499704
C119	C	1.057927	-0.338564	-0.149281
C120	C	1.557927	0.161436	0.350719
C121	C	1.058067	-0.338379	-0.066744
C122	C	1.558067	0.161621	0.433256
H123	H	0.609908	-0.220305	-0.381418
H124	H	1.109908	0.279695	0.118582
F125	F	1.167093	-0.239691	-0.899868
F126	F	1.667093	0.260309	-0.399868
F127	F	1.199042	-0.374775	-0.788013
F128	F	1.699042	0.125225	-0.288013
H129	H	0.516023	-0.251793	-0.254755
H130	H	1.016023	0.248207	0.245245
H131	H	0.603317	-0.370113	-0.215757
H132	H	1.103317	0.129887	0.284243
H133	H	0.506573	-0.456824	-0.303204
H134	H	1.006573	0.043176	0.196796
H135	H	1.131930	-0.605861	-0.416374
H136	H	1.631930	-0.105861	0.083626
F137	F	0.606824	-0.437441	-0.442099
F138	F	1.106824	0.062559	0.057901
H139	H	0.934426	-0.306758	-0.890470
H140	H	1.434426	0.193242	-0.390470
H141	H	1.029885	-0.220233	-0.801546
H142	H	1.529885	0.279767	-0.301546
H143	H	1.162209	-0.937320	-0.446607
H144	H	1.662209	-0.437320	0.053393
F145	F	0.948225	-0.596896	-0.232456
F146	F	1.448225	-0.096896	0.267544
H147	H	1.119717	-0.825717	-0.404110
H148	H	1.619717	-0.325717	0.095890
H149	H	1.125984	-0.738932	-0.410385
H150	H	1.625984	-0.238932	0.089615
H151	H	1.156264	-1.070404	-0.440618
H152	H	1.656264	-0.570404	0.059382
H153	H	0.984024	-1.070597	-0.268167
H154	H	1.484024	-0.570597	0.231833
F155	F	0.506807	-0.302660	-0.486578
F156	F	1.006807	0.197340	0.013422
H157	H	0.953741	-0.739137	-0.237942
H158	H	1.453741	-0.239137	0.262058
F159	F	0.978498	-0.928369	-0.262695
F160	F	1.478498	-0.428369	0.237305
F161	F	0.983943	-0.859930	-0.268150
F162	F	1.483943	-0.359930	0.231850
H163	H	0.962527	-0.425087	-0.792366
H164	H	1.462527	0.074913	-0.292366
F165	F	1.090069	-0.473374	-0.889578
F166	F	1.590069	0.026626	-0.389578
