data_functionalizedCrystal
_audit_creation_method	'MofGen! by Chris Wilmer'
_symmetry_space_group_name_H-M	'P1'
_symmetry_Int_Tables_number	1
_symmetry_cell_setting	triclinic
loop_
_symmetry_equiv_pos_as_xyz
  x,y,z
_cell_length_a	17.077404
_cell_length_b	13.897441
_cell_length_c	17.077402
_cell_angle_alpha	90.033015
_cell_angle_beta	89.979147
_cell_angle_gamma	89.979346
loop_
_atom_site_label
_atom_site_type_symbol
_atom_site_fract_x
_atom_site_fract_y
_atom_site_fract_z
Zn1	Zn	1.200072	-0.545363	0.312526
Zn2	Zn	1.199974	-0.384057	0.443808
Zn3	Zn	1.068799	-0.384081	0.312555
Zn4	Zn	1.068772	-0.545310	0.443749
O5	O	1.134404	-0.464703	0.378159
O6	O	1.309906	-0.523977	0.329953
O7	O	1.182544	-0.249079	0.426434
O8	O	1.086265	-0.405508	0.202705
O9	O	1.309834	-0.405467	0.426405
O10	O	1.182711	-0.524001	0.202683
O11	O	1.086170	-0.249097	0.330004
O12	O	0.958948	-0.405457	0.329946
O13	O	1.086219	-0.680299	0.426304
O14	O	0.958929	-0.523911	0.426333
O15	O	1.182685	-0.680338	0.329895
O16	O	1.182518	-0.405416	0.553647
O17	O	1.086124	-0.523888	0.553604
C18	C	0.930457	-0.464681	0.378137
C19	C	0.843207	-0.464695	0.378147
C20	C	0.802255	-0.526498	0.328013
C21	C	0.720274	-0.526502	0.328018
C22	C	0.679247	-0.464708	0.378161
C23	C	0.720205	-0.402899	0.428297
C24	C	0.802184	-0.402890	0.428287
C25	C	0.549335	-0.402923	0.428315
C26	C	0.467350	-0.402932	0.428326
C27	C	0.467425	-0.526535	0.328045
C28	C	0.549404	-0.526526	0.328036
C29	C	0.590356	-0.464718	0.378173
C30	C	1.134460	-0.716296	0.378090
C31	C	1.134484	-0.823510	0.378060
C32	C	1.134505	-1.019805	0.378007
C33	C	1.134491	-0.910573	0.378039
C34	C	1.339149	-0.464725	0.378182
C35	C	1.426398	-0.464735	0.378192
C36	C	1.134329	-0.464665	0.582107
C37	C	1.134368	-0.464680	0.669357
C38	C	1.134394	-0.214089	0.378172
C39	C	1.134522	-0.106875	0.377980
C40	C	1.134502	-0.464763	0.173415
C41	C	1.134543	-0.464788	0.086165
C42	C	1.184611	-0.403058	0.710344
C43	C	1.184650	-0.403083	0.792324
C44	C	1.134440	-0.464725	0.833316
C45	C	1.084195	-0.526354	0.792324
C46	C	1.084161	-0.526334	0.710345
C47	C	1.084267	-0.526391	0.963194
C48	C	1.084300	-0.526410	1.045179
C49	C	1.184756	-0.403140	1.045173
C50	C	1.184723	-0.403120	0.963194
C51	C	1.134476	-0.464747	0.922207
H52	H	0.433948	-0.352615	0.469157
C53	C	0.594381	-0.334944	0.483472
H54	H	0.558207	-0.298152	0.513345
H55	H	0.626358	-0.292976	0.453408
H56	H	0.626360	-0.371780	0.517707
H57	H	1.225672	-0.352964	1.078549
C58	C	0.847231	-0.334915	0.483440
H59	H	0.811057	-0.298121	0.513312
H60	H	0.879205	-0.292949	0.453371
H61	H	0.879213	-0.371745	0.517677
H62	H	0.686794	-0.352580	0.469121
H63	H	0.582807	-0.576850	0.287209
C64	C	0.422382	-0.594520	0.272894
H65	H	0.367683	-0.585670	0.280073
H66	H	0.435837	-0.659302	0.284448
H67	H	0.435827	-0.580517	0.220134
C68	C	1.239836	-0.335246	0.665256
H69	H	1.232615	-0.344049	0.610561
H70	H	1.292579	-0.349418	0.678639
H71	H	1.228372	-0.270425	0.678745
H72	H	1.225603	-0.352921	0.929818
H73	H	1.225562	-0.352903	0.825692
H74	H	1.043430	-0.576623	1.078552
C75	C	1.028966	-0.594165	0.837410
H76	H	0.999044	-0.630869	0.801256
H77	H	0.994792	-0.557240	0.869440
H78	H	1.058996	-0.636236	0.869338
C79	C	0.847378	-0.594472	0.272855
H80	H	0.811244	-0.631273	0.242993
H81	H	0.879366	-0.636432	0.302918
H82	H	0.879351	-0.557639	0.238609
C83	C	0.675231	-0.594487	0.272873
H84	H	0.711406	-0.631296	0.243015
H85	H	0.643247	-0.557670	0.238635
H86	H	0.643258	-0.636454	0.302951
C87	C	1.028895	-0.594119	0.665260
H88	H	0.998992	-0.630830	0.701413
H89	H	1.058894	-0.636171	0.633231
H90	H	0.994691	-0.557174	0.633328
H91	H	1.043354	-0.576578	0.929825
