data_functionalizedCrystal
_audit_creation_method	'MofGen! by Chris Wilmer'
_symmetry_space_group_name_H-M	'P1'
_symmetry_Int_Tables_number	1
_symmetry_cell_setting	triclinic
loop_
_symmetry_equiv_pos_as_xyz
  x,y,z
_cell_length_a	15.538191
_cell_length_b	14.519709
_cell_length_c	14.185569
_cell_angle_alpha	76.819419
_cell_angle_beta	97.875798
_cell_angle_gamma	65.476119
loop_
_atom_site_label
_atom_site_type_symbol
_atom_site_fract_x
_atom_site_fract_y
_atom_site_fract_z
O1	O	1.228085	-0.271310	-0.083424
O2	O	0.954005	-0.164884	-0.083426
O3	O	1.098314	-0.354783	-0.083416
O4	O	1.083776	-0.081411	-0.083434
O5	O	1.140944	-0.410876	0.083422
O6	O	0.996635	-0.220977	0.083412
O7	O	1.270715	-0.327403	0.083414
Cu8	Cu	1.137568	-0.279312	0.098646
Cu9	Cu	1.087153	-0.212975	-0.098658
O10	O	1.126406	-0.137505	0.083404
C11	C	0.940243	-0.181796	-0.000007
C12	C	0.835725	-0.148628	-0.000007
C13	C	0.547381	-0.478139	-0.000001
C14	C	0.449167	-0.446949	-0.000004
C15	C	0.427017	-0.271514	-0.000015
C16	C	0.525232	-0.302691	-0.000008
C17	C	0.585407	-0.406004	-0.000002
C18	C	0.563258	-0.230557	-0.000008
C19	C	0.661463	-0.261730	-0.000006
C20	C	0.721643	-0.365037	-0.000003
C21	C	0.683612	-0.437177	0.000001
C22	C	0.503080	-0.127242	-0.000021
C23	C	0.541106	-0.055107	-0.000022
C24	C	0.639314	-0.086282	-0.000012
C25	C	0.699494	-0.189590	-0.000009
C26	C	0.677345	-0.014142	-0.000016
C27	C	0.775551	-0.045315	-0.000013
C28	C	0.797700	-0.220763	-0.000007
C29	C	1.118952	-0.416961	0.000003
C30	C	1.116922	-0.518660	0.000004
C31	C	1.109444	-0.891034	-0.000022
C32	C	1.111520	-0.787426	-0.000015
C33	C	1.113183	-0.704851	-0.000008
C34	C	1.115260	-0.601236	-0.000003
C35	C	1.284476	-0.310491	-0.000007
C36	C	1.388993	-0.343656	-0.000014
C37	C	1.105768	-0.075325	-0.000017
C38	C	1.107796	0.026376	-0.000025
N39	N	1.173034	-0.325973	0.237420
N40	N	1.051694	-0.166324	-0.237432
C41	C	0.947494	-0.029276	0.605054
C42	C	0.974366	-0.064616	0.710078
C43	C	1.102177	-0.232734	0.710047
C44	C	1.075313	-0.197409	0.605022
C45	C	0.997972	-0.095679	0.552534
C46	C	1.125791	-0.263812	0.552501
C47	C	1.098932	-0.228488	0.447485
C48	C	1.021596	-0.126760	0.394989
C49	C	0.971113	-0.060354	0.447517
C50	C	1.203137	-0.365540	0.604991
C51	C	1.253615	-0.431943	0.552471
C52	C	1.226752	-0.396622	0.447452
C53	C	1.149415	-0.294894	0.394957
C54	C	1.277234	-0.463027	0.394924
C55	C	1.250375	-0.427703	0.289908
C56	C	1.122556	-0.259569	0.289940
H57	H	0.732612	-0.521307	0.000012
H58	H	0.884508	0.053559	0.562316
O59	O	0.995575	-0.092321	0.292976
C60	C	1.005852	0.000600	0.257886
H61	H	1.060435	0.003214	0.318393
H62	H	0.931781	0.073960	0.239277
C63	C	0.976361	-0.003738	0.088645
C64	C	1.043408	-0.000532	0.162957
H65	H	0.999523	-0.004432	0.030085
H66	H	0.969433	-0.066338	0.112284
H67	H	0.914640	0.057397	0.073149
H68	H	1.105122	-0.061672	0.178460
H69	H	1.050346	0.062058	0.139318
O70	O	0.619016	0.086198	0.000105
C71	C	0.658329	0.102894	0.086522
H72	H	0.740142	0.045631	0.115342
H73	H	0.620044	0.087941	0.147020
C74	C	0.541992	0.289014	0.024866
C75	C	0.642477	0.218689	0.060259
H76	H	0.532211	0.360443	0.008669
H77	H	0.515503	0.277766	-0.033353
H78	H	0.510099	0.276540	0.075288
H79	H	0.674366	0.231154	0.009834
H80	H	0.668971	0.229942	0.118470
O81	O	1.352291	-0.561920	0.445811
C82	C	1.330261	-0.639422	0.420182
H83	H	1.274476	-0.601542	0.343941
H84	H	1.298467	-0.672140	0.479300
C85	C	1.493015	-0.777581	0.508957
C86	C	1.424506	-0.731058	0.415312
H87	H	1.551149	-0.834109	0.505957
H88	H	1.507857	-0.725368	0.526227
H89	H	1.466508	-0.804837	0.558212
H90	H	1.451008	-0.703791	0.366061
H91	H	1.409670	-0.783269	0.398034
O92	O	0.817052	-0.395483	-0.000043
C93	C	0.862013	-0.502144	-0.000011
H94	H	0.803618	-0.523231	-0.031597
H95	H	0.902766	-0.557402	0.080032
C96	C	1.006681	-0.489627	-0.026639
C97	C	0.934959	-0.515523	-0.065441
H98	H	1.051681	-0.497883	-0.066996
H99	H	0.976392	-0.417768	-0.026657
H100	H	1.040631	-0.535678	0.040062
H101	H	0.901003	-0.469464	-0.132137
H102	H	0.965244	-0.587374	-0.065436
H103	H	1.059570	-0.176735	0.247202
O104	O	0.896084	0.038546	0.396564
C105	C	0.918078	0.116053	0.422234
H106	H	1.000829	0.081618	0.451091
H107	H	0.881526	0.140062	0.483197
C108	C	0.778060	0.257098	0.293499
C109	C	0.879697	0.214806	0.328933
H110	H	0.754382	0.318016	0.235949
H111	H	0.763239	0.204881	0.276206
H112	H	0.747613	0.277096	0.344310
H113	H	0.910143	0.194797	0.278127
H114	H	0.894522	0.267022	0.346215
H115	H	1.316590	-0.514772	0.595219
H116	H	0.596381	-0.562268	0.000010
H117	H	1.291481	-0.481776	0.247145
O118	O	0.812500	0.024769	-0.000183
C119	C	0.846592	0.041018	-0.086573
H120	H	0.807844	0.020949	-0.146971
H121	H	0.928985	-0.012753	-0.067035
C122	C	0.872464	0.183160	-0.051567
C123	C	0.824867	0.158520	-0.125751
H124	H	0.859068	0.255639	-0.075732
H125	H	0.849499	0.172211	0.006638
H126	H	0.941121	0.138343	-0.035292
H127	H	0.756211	0.203328	-0.142016
H128	H	0.847820	0.169480	-0.183960
O129	O	0.412156	-0.516981	0.000135
C130	C	0.378114	-0.533277	0.086554
H131	H	0.361143	-0.462129	0.115358
H132	H	0.436889	-0.608923	0.147061
C133	C	0.305301	-0.632384	0.024929
C134	C	0.284450	-0.544995	0.060302
H135	H	0.247527	-0.639618	0.008738
H136	H	0.328239	-0.621410	-0.033292
H137	H	0.354282	-0.695413	0.075357
H138	H	0.235479	-0.481967	0.009869
H139	H	0.261501	-0.555960	0.118513
H140	H	1.165152	-0.315563	0.752795
O141	O	0.368438	-0.171217	0.000026
C142	C	0.273597	-0.159158	-0.000004
H143	H	0.277770	-0.240911	0.031579
H144	H	0.224754	-0.119236	-0.080045
C145	C	0.225217	0.010929	0.026634
C146	C	0.230343	-0.089480	0.065432
H147	H	0.198532	0.053913	0.066994
H148	H	0.289111	0.002808	0.026651
H149	H	0.184515	0.044183	-0.040066
H150	H	0.271053	-0.122738	0.132127
H151	H	0.166453	-0.081363	0.065429
O152	O	0.482519	0.045262	-0.000158
C153	C	0.402987	0.097610	-0.086580
H154	H	0.390529	0.035805	-0.115391
H155	H	0.419911	0.149233	-0.147082
C156	C	0.325376	0.244454	-0.024949
C157	C	0.310071	0.168545	-0.060330
H158	H	0.268061	0.288214	-0.008759
H159	H	0.378960	0.209189	0.033273
H160	H	0.339482	0.287462	-0.075373
H161	H	0.295977	0.125530	-0.009902
H162	H	0.256482	0.203805	-0.118543
H163	H	1.225005	-0.394295	0.690503
H164	H	0.423115	-0.101863	-0.000026
H165	H	0.846700	-0.304892	0.000004
H166	H	0.933254	-0.010533	0.752835
