data_functionalizedCrystal
_audit_creation_method	'MofGen! by Chris Wilmer'
_symmetry_space_group_name_H-M	'P1'
_symmetry_Int_Tables_number	1
_symmetry_cell_setting	triclinic
loop_
_symmetry_equiv_pos_as_xyz
  x,y,z
_cell_length_a	16.956984
_cell_length_b	10.723024
_cell_length_c	16.053770
_cell_angle_alpha	87.121365
_cell_angle_beta	86.960920
_cell_angle_gamma	80.260644
loop_
_atom_site_label
_atom_site_type_symbol
_atom_site_fract_x
_atom_site_fract_y
_atom_site_fract_z
O1	O	1.061330	0.056081	-0.069433
O2	O	0.829412	0.099866	-0.069433
O3	O	0.950720	-0.104226	-0.069430
O4	O	0.940021	0.260173	-0.069436
O5	O	0.944694	-0.113050	0.069430
O6	O	0.823386	0.091043	0.069427
O7	O	1.055304	0.047258	0.069427
Zn8	Zn	0.938388	0.067749	0.091474
Zn9	Zn	0.946327	0.079374	-0.091480
O10	O	0.933996	0.251350	0.069424
C11	C	0.796703	0.097697	-0.000003
C12	C	0.708219	0.104362	-0.000004
C13	C	0.675525	-0.007091	-0.000000
C14	C	0.592384	-0.000820	-0.000006
C15	C	0.541939	0.116906	-0.000010
C16	C	0.574638	0.228367	-0.000016
C17	C	0.657777	0.222095	-0.000016
C18	C	0.292336	0.147952	-0.000016
C19	C	0.209191	0.154215	-0.000014
C20	C	0.226943	-0.074973	-0.000006
C21	C	0.310083	-0.081235	-0.000001
C22	C	0.342776	0.030227	-0.000011
N23	N	0.456955	0.123318	-0.000013
N24	N	0.427758	0.023813	-0.000013
C25	C	0.946929	-0.155047	-0.000001
C26	C	0.944599	-0.293329	-0.000004
C27	C	1.012477	-0.376224	-0.000005
C28	C	1.010071	-0.519146	-0.000008
C29	C	1.088013	0.049427	-0.000005
C30	C	1.176497	0.042762	-0.000010
C31	C	0.937787	0.302171	-0.000007
C32	C	0.940117	0.440454	-0.000010
N33	N	0.951746	0.087299	-0.216341
C34	C	0.905001	0.019189	-0.260028
C35	C	0.908803	0.024697	-0.347435
C36	C	0.959347	0.098322	-0.391155
C37	C	1.006097	0.166434	-0.347462
C38	C	1.002299	0.160918	-0.260056
C39	C	0.975928	0.122410	-0.652567
C40	C	0.979721	0.127924	-0.739979
C41	C	0.882428	-0.013815	-0.739946
C42	C	0.878630	-0.019318	-0.652538
C43	C	0.925383	0.048788	-0.608853
N44	N	0.963233	0.103957	-0.480499
N45	N	0.921501	0.043145	-0.519511
N46	N	0.932976	0.059814	0.216335
H47	H	0.684395	0.312852	-0.000014
H48	H	0.884706	-0.328170	-0.000010
C49	C	0.823865	-0.099483	-0.605112
C50	C	0.846224	-0.226041	-0.626349
C51	C	0.795798	-0.299922	-0.582665
H52	H	0.770043	-0.070129	-0.619386
H53	H	0.828327	-0.093120	-0.546792
H54	H	0.841755	-0.232398	-0.684655
H55	H	0.900039	-0.255432	-0.612073
H56	H	0.800260	-0.293559	-0.524346
H57	H	0.741979	-0.270557	-0.596943
H58	H	0.810967	-0.385801	-0.597063
C59	C	0.862659	-0.464550	-0.000182
C60	C	0.862832	-0.384137	-0.071631
C61	C	0.791488	-0.296612	-0.071824
H62	H	0.858363	-0.415893	0.048186
H63	H	0.818438	-0.508388	-0.000229
H64	H	0.907040	-0.340302	-0.071576
H65	H	0.867115	-0.432757	-0.120010
H66	H	0.747267	-0.340450	-0.071871
H67	H	0.787198	-0.247965	-0.023453
H68	H	0.791592	-0.242049	-0.120304
C69	C	0.327864	0.268947	-0.000215
C70	C	0.378145	0.276591	-0.071678
C71	C	0.410875	0.388053	-0.071905
H72	H	0.357891	0.268348	0.048143
H73	H	0.285926	0.339979	-0.000266
H74	H	0.420076	0.205577	-0.071620
H75	H	0.348136	0.277211	-0.120048
H76	H	0.368938	0.459086	-0.071956
H77	H	0.440899	0.387444	-0.023544
H78	H	0.444989	0.393260	-0.120395
C79	C	0.556854	-0.121779	-0.000175
C80	C	0.512766	-0.120360	-0.071629
C81	C	0.480036	-0.231780	-0.071821
H82	H	0.522633	-0.127291	0.048190
H83	H	0.598787	-0.192818	-0.000214
H84	H	0.470838	-0.049341	-0.071582
H85	H	0.546970	-0.114868	-0.120005
H86	H	0.521970	-0.302819	-0.071861
H87	H	0.445819	-0.237282	-0.023454
H88	H	0.450125	-0.230838	-0.120306
C89	C	0.191600	-0.196127	0.000036
C90	C	0.253572	-0.300567	0.000057
C91	C	0.221045	-0.412201	0.000103
H92	H	0.161649	-0.195546	-0.048375
H93	H	0.157456	-0.201599	0.048478
H94	H	0.287702	-0.295098	-0.048380
H95	H	0.283528	-0.301191	0.048465
H96	H	0.186901	-0.417672	0.048545
H97	H	0.191095	-0.411606	-0.048309
H98	H	0.263088	-0.483077	0.000125
H99	H	0.863839	-0.040757	-0.224437
H100	H	0.870741	-0.030769	-0.383000
C101	C	1.052913	0.234959	-0.212516
C102	C	1.002785	0.321053	-0.162336
C103	C	1.049388	0.389266	-0.118523
H104	H	1.083569	0.279709	-0.250975
H105	H	1.087867	0.178072	-0.178360
H106	H	0.967845	0.377933	-0.196489
H107	H	0.972129	0.276336	-0.123862
H108	H	1.084342	0.332379	-0.084368
H109	H	1.080042	0.434008	-0.156988
H110	H	1.015384	0.447680	-0.084466
H111	H	0.351151	-0.177100	0.000006
C112	C	0.831627	-0.087546	-0.787482
C113	C	0.780183	-0.003385	-0.837696
C114	C	0.733381	-0.071268	-0.881506
H115	H	0.800911	-0.132193	-0.749021
H116	H	0.865495	-0.146026	-0.821614
H117	H	0.746319	0.055073	-0.803567
H118	H	0.810878	0.041264	-0.876172
H119	H	0.767250	-0.129748	-0.915637
H120	H	0.702671	-0.115912	-0.843039
H121	H	0.698477	-0.014177	-0.915586
H122	H	1.020878	0.187887	-0.775573
C123	C	1.026711	0.196509	-0.605296
C124	C	1.071766	0.262197	-0.662295
C125	C	1.118548	0.330490	-0.618776
H126	H	1.061751	0.139726	-0.571184
H127	H	0.992837	0.255081	-0.571231
H128	H	1.105636	0.203631	-0.696346
H129	H	1.036746	0.319001	-0.696409
H130	H	1.084675	0.389062	-0.584711
H131	H	1.153584	0.273698	-0.584666
H132	H	1.149118	0.375076	-0.657443
H133	H	0.168119	0.250086	-0.000013
H134	H	0.716592	-0.102956	0.000006
C135	C	1.060838	0.246554	-0.394972
C136	C	1.015063	0.339026	-0.445152
C137	C	1.065460	0.412870	-0.488919
H138	H	1.098784	0.194089	-0.429127
H139	H	1.088120	0.286405	-0.356460
H140	H	0.987795	0.299177	-0.483659
H141	H	0.977119	0.391519	-0.411017
H142	H	1.092742	0.452721	-0.450407
H143	H	1.103405	0.360395	-0.523070
H144	H	1.034409	0.475628	-0.522966
H145	H	0.533559	0.324222	-0.000024
H146	H	1.068180	-0.590352	-0.000005
H147	H	1.072371	-0.341383	0.000000
