data_functionalizedCrystal
_audit_creation_method	'MofGen! by Chris Wilmer'
_symmetry_space_group_name_H-M	'P1'
_symmetry_Int_Tables_number	1
_symmetry_cell_setting	triclinic
loop_
_symmetry_equiv_pos_as_xyz
  x,y,z
_cell_length_a	11.792254
_cell_length_b	10.868271
_cell_length_c	11.792241
_cell_angle_alpha	90.001559
_cell_angle_beta	84.196007
_cell_angle_gamma	90.004308
loop_
_atom_site_label
_atom_site_type_symbol
_atom_site_fract_x
_atom_site_fract_y
_atom_site_fract_z
O1	O	1.506901	0.102322	0.155631
O2	O	1.840234	0.435655	0.488964
O3	O	2.173567	0.768988	0.822297
O4	O	1.176561	0.102324	0.171649
O5	O	1.509895	0.435658	0.504982
O6	O	1.843228	0.768991	0.838315
O7	O	1.349747	0.102314	-0.001530
O8	O	1.683081	0.435648	0.331803
O9	O	2.016414	0.768981	0.665136
O10	O	1.333715	0.102332	0.328810
O11	O	1.667048	0.435665	0.662143
O12	O	2.000381	0.768998	0.995477
O13	O	1.349732	-0.102330	-0.001525
O14	O	1.683065	0.231003	0.331808
O15	O	2.016398	0.564336	0.665142
O16	O	1.176546	-0.102320	0.171654
O17	O	1.509879	0.231013	0.504988
O18	O	1.843212	0.564347	0.838321
O19	O	1.506885	-0.102323	0.155636
O20	O	1.840218	0.231010	0.488970
O21	O	2.173551	0.564344	0.822303
Zn22	Zn	1.341713	-0.134813	0.163646
Zn23	Zn	1.675046	0.198520	0.496980
Zn24	Zn	2.008379	0.531853	0.830313
Zn25	Zn	1.341733	0.134815	0.163639
Zn26	Zn	1.675067	0.468148	0.496972
Zn27	Zn	2.008400	0.801482	0.830306
O28	O	1.333699	-0.102313	0.328815
O29	O	1.667032	0.231020	0.662149
O30	O	2.000365	0.564354	0.995482
C31	C	1.134263	0.000002	0.170642
C32	C	1.467596	0.333336	0.503976
C33	C	1.800929	0.666669	0.837309
C34	C	1.008250	0.000003	0.167622
C35	C	1.341583	0.333337	0.500956
C36	C	1.674916	0.666670	0.834289
N37	N	1.341707	-0.318827	0.163651
N38	N	1.675040	0.014506	0.496984
N39	N	2.008373	0.347839	0.830317
C40	C	1.341716	-0.430165	0.163651
C41	C	1.675049	-0.096832	0.496984
C42	C	2.008382	0.236502	0.830318
C43	C	1.341730	-0.569843	0.163640
C44	C	1.675064	-0.236509	0.496974
C45	C	2.008397	0.096824	0.830307
C46	C	0.905913	0.000008	0.165168
C47	C	1.239247	0.333342	0.498502
C48	C	1.572580	0.666675	0.831835
C49	C	0.777527	0.000009	0.162100
C50	C	1.110860	0.333342	0.495433
C51	C	1.444193	0.666676	0.828767
C52	C	1.549183	0.000002	0.156643
C53	C	1.882517	0.333335	0.489976
C54	C	2.215850	0.666669	0.823309
C55	C	1.675196	0.000009	0.159663
C56	C	2.008530	0.333342	0.492996
C57	C	2.341863	0.666676	0.826329
C58	C	1.348732	-0.000008	-0.043819
C59	C	1.682066	0.333326	0.289515
C60	C	2.015399	0.666659	0.622848
C61	C	1.345718	-0.000006	-0.169832
C62	C	1.679051	0.333327	0.163501
C63	C	2.012385	0.666660	0.496834
N64	N	1.341748	0.318829	0.163626
N65	N	1.675082	0.652162	0.496959
N66	N	2.008415	0.985496	0.830292
C67	C	1.340175	0.000014	-0.400545
C68	C	1.673508	0.333348	-0.067212
C69	C	2.006842	0.666681	0.266122
C70	C	1.343255	0.000003	-0.272160
C71	C	1.676588	0.333336	0.061174
C72	C	2.009921	0.666670	0.394507
C73	C	1.334714	0.000012	0.371104
C74	C	1.668047	0.333345	0.704437
C75	C	2.001380	0.666678	1.037770
C76	C	1.337728	0.000019	0.497118
C77	C	1.671061	0.333352	0.830451
C78	C	2.004395	0.666685	1.163784
