data_functionalizedCrystal
_audit_creation_method	'MofGen! by Chris Wilmer'
_symmetry_space_group_name_H-M	'P1'
_symmetry_Int_Tables_number	1
_symmetry_cell_setting	triclinic
loop_
_symmetry_equiv_pos_as_xyz
  x,y,z
_cell_length_a	27.440280
_cell_length_b	27.440280
_cell_length_c	14.446369
_cell_angle_alpha	60.001127
_cell_angle_beta	90.005311
_cell_angle_gamma	60.004534
loop_
_atom_site_label
_atom_site_type_symbol
_atom_site_fract_x
_atom_site_fract_y
_atom_site_fract_z
Zr1	Zr	0.469570	0.533331	-0.121350
O2	O	0.391765	0.634998	-0.269167
O3	O	0.493413	0.431668	-0.076037
O4	O	0.493426	0.533324	-0.269145
O5	O	0.391751	0.533346	0.076270
O6	O	0.573629	0.533315	-0.269126
O7	O	0.391751	0.533342	-0.076059
O8	O	0.573605	0.351471	0.076309
O9	O	0.391775	0.715190	-0.269165
O10	O	0.563447	0.473475	-0.056696
O11	O	0.503592	0.473486	0.056971
O12	O	0.503608	0.593173	-0.170389
O13	O	0.443753	0.593183	-0.056722
Zr14	Zr	0.597484	0.533323	0.121627
Zr15	Zr	0.597484	0.533316	-0.121319
Zr16	Zr	0.469570	0.533338	0.121597
Zr17	Zr	0.469587	0.661229	-0.121347
Zr18	Zr	0.597468	0.405426	0.121625
O19	O	0.573642	0.634986	0.076315
O20	O	0.573642	0.634976	-0.269124
O21	O	0.391764	0.635008	0.076272
O22	O	0.675290	0.431657	0.269445
O23	O	0.675290	0.431647	-0.075994
O24	O	0.493413	0.431678	0.269402
O25	O	0.675303	0.533308	-0.075992
O26	O	0.573628	0.533330	0.269423
O27	O	0.493426	0.533340	0.269404
O28	O	0.675303	0.533313	0.076337
O29	O	0.493450	0.715178	-0.269141
O30	O	0.573605	0.351476	0.269419
O31	O	0.675280	0.351464	0.269443
O32	O	0.675280	0.351459	0.076333
O33	O	0.391775	0.715196	-0.076055
O34	O	0.493449	0.715184	-0.076031
O35	O	0.563447	0.473482	0.170667
O36	O	0.623301	0.473472	0.057000
O37	O	0.563462	0.593169	-0.056693
O38	O	0.503608	0.593179	0.056974
C39	C	0.533507	0.373347	0.000135
C40	C	0.533500	0.319051	0.000134
C41	C	0.564787	-0.017697	-0.059184
C42	C	0.564793	-0.068720	-0.059181
O43	O	0.591382	-0.095131	-0.109607
N44	N	0.533549	-0.094231	0.000150
C45	C	0.502302	-0.068720	0.059490
O46	O	0.475728	-0.095105	0.109957
C47	C	0.502301	-0.017701	0.059493
C48	C	0.533542	0.007812	0.000149
C49	C	0.596026	0.007816	-0.118522
C50	C	0.596020	0.058837	-0.118527
C51	C	0.564774	0.084346	-0.059193
C52	C	0.533535	0.058833	0.000145
C53	C	0.471058	0.007805	0.118840
C54	C	0.471060	0.058828	0.118839
C55	C	0.502301	0.084341	0.059495
C56	C	0.502283	0.135363	0.059474
N57	N	0.533527	0.160874	0.000143
C58	C	0.564773	0.135365	-0.059190
C59	C	0.502309	-0.175866	0.059482
C60	C	0.502307	-0.226881	0.059473
C61	C	0.564798	-0.226878	-0.059197
C62	C	0.564797	-0.175859	-0.059194
C63	C	0.533553	-0.150355	0.000151
C64	C	0.564756	0.242514	-0.059196
C65	C	0.564745	0.293542	-0.059199
C66	C	0.502257	0.293532	0.059475
C67	C	0.502265	0.242512	0.059474
C68	C	0.533519	0.217002	0.000136
O69	O	0.475709	0.161805	0.109878
O70	O	0.591349	0.161750	-0.109636
C71	C	0.373526	0.533346	0.000101
C72	C	0.319223	0.533352	0.000088
C73	C	0.013761	0.470835	0.059517
C74	C	-0.037258	0.470831	0.059527
O75	O	-0.037081	0.417694	0.110033
N76	N	-0.094010	0.533311	0.000179
C77	C	-0.099743	0.595799	-0.059173
O78	O	-0.152699	0.648943	-0.109651
C79	C	-0.048725	0.595802	-0.059176
C80	C	0.008027	0.533318	0.000166
C81	C	0.070510	0.408356	0.118855
C82	C	0.121524	0.408360	0.118843
C83	C	0.115790	0.470843	0.059493
C84	C	0.059042	0.533322	0.000154
C85	C	-0.054458	0.658289	-0.118521
C86	C	-0.003434	0.658287	-0.118518
C87	C	0.053317	0.595803	-0.059175
C88	C	0.104322	0.595809	-0.059208
N89	N	0.161074	0.533329	0.000140
C90	C	0.166808	0.470846	0.059490
C91	C	-0.206881	0.595788	-0.059161
C92	C	-0.257899	0.595786	-0.059166
C93	C	-0.195410	0.470817	0.059536
C94	C	-0.144392	0.470821	0.059533
C95	C	-0.150129	0.533308	0.000186
C96	C	0.273941	0.470860	0.059459
C97	C	0.324957	0.470869	0.059438
C98	C	0.262465	0.595837	-0.059258
C99	C	0.211452	0.595828	-0.059242
C100	C	0.217194	0.533334	0.000125
O101	O	0.104192	0.648920	-0.109685
O102	O	0.219767	0.417712	0.109972
C103	C	0.693528	0.533308	0.000177
C104	C	0.747831	0.533302	0.000190
C105	C	0.533528	0.533318	-0.303751
C106	C	0.533528	0.533315	-0.406888
C107	C	0.533548	0.693308	0.000142
C108	C	0.533555	0.747604	0.000144
C109	C	0.571456	0.457830	-0.481863
C110	C	0.571292	0.457779	-0.374534
C111	C	0.468496	0.570819	-0.481462
C112	C	0.468704	0.570340	-0.588321
C113	C	0.560105	0.571883	-0.589873
C114	C	0.561421	0.570461	-0.481201
C115	C	0.533527	0.533336	0.304028
C116	C	0.533527	0.533339	0.407166
C117	C	0.693508	0.373328	0.000173
C118	C	0.747804	0.319026	0.000185
C119	C	0.533506	0.373355	0.304025
C120	C	0.533499	0.319063	0.407161
C121	C	0.693508	0.373337	0.304063
C122	C	0.747803	0.319037	0.407212
C123	C	0.373547	0.693318	-0.303785
C124	C	0.319251	0.747617	-0.406934
C125	C	0.373547	0.693326	0.000104
C126	C	0.319251	0.747629	0.000093
C127	C	0.533548	0.693299	-0.303747
C128	C	0.533555	0.747592	-0.406883
C129	C	0.742058	0.293527	-0.059167
C130	C	0.793070	0.242511	-0.059179
C131	C	0.849827	0.216992	0.000169
C132	C	0.855571	0.242496	0.059523
C133	C	0.804560	0.293514	0.059528
C134	C	0.564739	0.293564	0.514953
C135	C	0.564730	0.242557	0.611869
C136	C	0.533485	0.217046	0.600991
C137	C	0.502241	0.242550	0.493188
C138	C	0.502247	0.293559	0.396274
C139	C	0.804550	0.293533	0.396319
C140	C	0.855572	0.242520	0.493229
C141	C	0.849845	0.217009	0.601031
C142	C	0.793093	0.242519	0.611922
C143	C	0.742072	0.293535	0.515013
C144	C	0.262504	0.773128	-0.396041
C145	C	0.211483	0.824157	-0.492951
C146	C	0.217209	0.849670	-0.600753
C147	C	0.273962	0.824157	-0.611644
C148	C	0.324982	0.773132	-0.514735
C149	C	0.324996	0.773133	0.059435
C150	C	0.273984	0.824163	0.059420
C151	C	0.217228	0.849684	0.000069
C152	C	0.211483	0.824177	-0.059281
C153	C	0.262495	0.773152	-0.059272
C154	C	0.564807	0.773087	-0.395969
C155	C	0.564825	0.824094	-0.492867
C156	C	0.533588	0.849609	-0.600678
C157	C	0.502335	0.824109	-0.611590
C158	C	0.502321	0.773099	-0.514693
H159	H	0.621461	0.079605	-0.166846
F160	F	0.385375	0.745983	-0.526346
F161	F	0.162903	0.903975	-0.703884
H162	H	0.476902	0.844891	-0.699382
H163	H	0.607270	0.547716	-0.593978
F164	F	0.162942	0.903990	0.000070
H165	H	0.165265	0.844965	-0.107604
H166	H	0.695868	0.314294	0.523898
F167	F	0.385396	0.745982	0.122607
F168	F	0.624044	0.534719	-0.413977
F169	F	0.256371	0.746010	-0.122429
F170	F	0.533607	0.903900	-0.703795
F171	F	0.810684	0.320643	0.122710
H172	H	0.891359	0.175449	0.000157
F173	F	0.280110	0.851297	0.122595
F174	F	0.598057	0.745941	-0.281237
F175	F	0.786944	0.215375	-0.122351
H176	H	0.590274	0.844850	-0.483960
F177	F	0.469051	0.745976	-0.526326
H178	H	0.476815	0.314313	0.107779
H179	H	0.590185	0.314315	-0.107528
H180	H	0.901789	0.221711	0.107842
H181	H	0.438905	0.625739	-0.666907
H182	H	0.621473	-0.012950	-0.166838
H183	H	0.590236	-0.155089	-0.107517
F184	F	0.181919	0.341855	0.182010
H185	H	0.590208	0.221749	-0.107513
F186	F	0.681658	0.320679	-0.122342
F187	F	0.529064	0.642492	-0.514569
H188	H	0.278617	0.844936	-0.699428
H189	H	0.590184	0.314329	0.523831
H190	H	0.532601	0.627514	-0.668077
H191	H	0.788439	0.221741	0.699707
H192	H	0.278625	0.419971	0.107803
H193	H	0.590241	-0.247657	-0.107508
F194	F	0.256396	0.745983	-0.281319
F195	F	0.597988	0.215422	0.726590
F196	F	0.151088	0.851299	-0.481336
H197	H	0.371167	0.419985	0.107765
F198	F	0.533484	0.162757	0.704148
H199	H	-0.098186	0.419940	0.107865
F200	F	0.469047	-0.254019	0.122618
H201	H	0.476801	0.221771	0.484348
F202	F	0.468998	0.320688	0.281556
H203	H	0.476860	-0.155099	0.107801
F204	F	0.437808	-0.019338	0.182006
H205	H	0.445616	0.079592	0.167164
H206	H	0.075189	0.357472	0.167191
H207	H	0.901778	0.221755	0.484341
F208	F	0.469007	0.215366	0.122618
F209	F	0.904151	0.162713	0.704162
F210	F	-0.318294	0.662290	-0.122341
F211	F	-0.212996	0.662300	-0.122340
F212	F	-0.189316	0.404317	0.122704
F213	F	0.440894	0.535513	-0.587979
F214	F	-0.009546	0.724797	-0.181682
F215	F	0.151051	0.662330	-0.122421
F216	F	0.256373	0.662332	-0.122407
F217	F	0.633884	0.419314	-0.303572
F218	F	0.634210	0.419085	-0.478793
F219	F	-0.114849	0.724795	-0.181674
H220	H	0.553190	0.428346	-0.480834
H221	H	0.447068	0.544778	-0.429865
H222	H	0.439008	0.626358	-0.508699
F223	F	0.547161	0.419118	-0.304271
H224	H	0.809224	0.314296	0.308549
