data_functionalizedCrystal
_audit_creation_method	'MofGen! by Chris Wilmer'
_symmetry_space_group_name_H-M	'P1'
_symmetry_Int_Tables_number	1
_symmetry_cell_setting	triclinic
loop_
_symmetry_equiv_pos_as_xyz
  x,y,z
_cell_length_a	19.121102
_cell_length_b	29.839131
_cell_length_c	29.839126
_cell_angle_alpha	89.978002
_cell_angle_beta	87.535664
_cell_angle_gamma	87.595578
loop_
_atom_site_label
_atom_site_type_symbol
_atom_site_fract_x
_atom_site_fract_y
_atom_site_fract_z
Zn1	Zn	1.073683	-0.208247	-0.283269
Zn2	Zn	1.073548	-0.283361	-0.208135
Zn3	Zn	0.956219	-0.205039	-0.204950
Zn4	Zn	0.956166	-0.280138	-0.280037
O5	O	1.014904	-0.244196	-0.244098
O6	O	1.171948	-0.220902	-0.275987
O7	O	1.057951	-0.272977	-0.144844
O8	O	0.971880	-0.142599	-0.215358
O9	O	1.171850	-0.276088	-0.220787
O10	O	1.058179	-0.144956	-0.272899
O11	O	0.971750	-0.215434	-0.142504
O12	O	0.857929	-0.212309	-0.212225
O13	O	0.971789	-0.270596	-0.343334
O14	O	0.857889	-0.267485	-0.267391
O15	O	1.058128	-0.217778	-0.345708
O16	O	1.057899	-0.345798	-0.217654
O17	O	0.971658	-0.343431	-0.270480
C18	C	0.832425	-0.239199	-0.239112
C19	C	0.754360	-0.237073	-0.236990
C20	C	0.717683	-0.264844	-0.264670
C21	C	0.644332	-0.262839	-0.262678
C22	C	0.607660	-0.233066	-0.233004
C23	C	0.644343	-0.205292	-0.205323
C24	C	0.717692	-0.207294	-0.207317
C25	C	0.386193	-0.225579	-0.225549
C26	C	0.312838	-0.223579	-0.223556
C27	C	0.312833	-0.281127	-0.280912
C28	C	0.386183	-0.283128	-0.282902
C29	C	0.422860	-0.255353	-0.255223
C30	C	0.532684	-0.231018	-0.230966
C31	C	0.497834	-0.257399	-0.257263
C32	C	1.014777	-0.360915	-0.244072
C33	C	1.014787	-0.410850	-0.244078
C34	C	1.059891	-0.721719	-0.216635
C35	C	1.059978	-0.909394	-0.216655
O36	O	1.098226	-0.934699	-0.193303
N37	N	1.015050	-0.931642	-0.244136
C38	C	0.970100	-0.906968	-0.271615
O39	O	0.931893	-0.930198	-0.294993
C40	C	0.970017	-0.719294	-0.271597
C41	C	1.014943	-0.697048	-0.244112
C42	C	1.104814	-0.699473	-0.189152
C43	C	1.104789	-0.652557	-0.189146
C44	C	1.059841	-0.627887	-0.216622
C45	C	1.014919	-0.650132	-0.244105
C46	C	0.925072	-0.694621	-0.299079
C47	C	0.925056	-0.647699	-0.299073
C48	C	0.969982	-0.625454	-0.271587
C49	C	0.969946	-0.578546	-0.271575
N50	N	1.014874	-0.556298	-0.244095
C51	C	1.059822	-0.580968	-0.216618
C52	C	0.970146	-1.005500	-0.271622
C53	C	0.970165	-1.052418	-0.271626
C54	C	1.060044	-1.054841	-0.216666
C55	C	1.060020	-1.007922	-0.216660
C56	C	1.015074	-0.983252	-0.244141
C57	C	1.059766	-0.482441	-0.216607
C58	C	1.059735	-0.435521	-0.216601
C59	C	0.969859	-0.433102	-0.271562
C60	C	0.969887	-0.480018	-0.271566
C61	C	1.014846	-0.504687	-0.244087
O62	O	0.931723	-0.553213	-0.294919
O63	O	1.098034	-0.557731	-0.193251
C64	C	1.059916	-0.768635	-0.216642
C65	C	1.014993	-0.790881	-0.244125
C66	C	0.970045	-0.766210	-0.271601
C67	C	1.015013	-0.837799	-0.244129
C68	C	1.059960	-0.862470	-0.216652
C69	C	1.104888	-0.840222	-0.189172
C70	C	1.104864	-0.793306	-0.189165
C71	C	0.925117	-0.788458	-0.299082
C72	C	0.925145	-0.835374	-0.299086
C73	C	0.970093	-0.860045	-0.271609
C74	C	1.198096	-0.249213	-0.249103
C75	C	1.276161	-0.251351	-0.251236
C76	C	1.014967	-0.244185	-0.361278
C77	C	1.014994	-0.244180	-0.411213
C78	C	1.015051	-0.127022	-0.244134
C79	C	1.015113	-0.077089	-0.244149
C80	C	1.059869	-0.274083	-0.769021
C81	C	1.059871	-0.274114	-0.581348
O82	O	1.098018	-0.299609	-0.558122
N83	N	1.014991	-0.244159	-0.556658
C84	C	0.970104	-0.214195	-0.578889
O85	O	0.931926	-0.188720	-0.553582
C86	C	0.970100	-0.214166	-0.766561
C87	C	1.014988	-0.244121	-0.791249
C88	C	1.104753	-0.304035	-0.793710
C89	C	1.104755	-0.304026	-0.840625
C90	C	1.059873	-0.274063	-0.862853
C91	C	1.014990	-0.244111	-0.838165
C92	C	0.925211	-0.184205	-0.788791
C93	C	0.925212	-0.184201	-0.835712
C94	C	0.970100	-0.214156	-0.860400
C95	C	0.970110	-0.214139	-0.907308
N96	N	1.014990	-0.244095	-0.931998
C97	C	1.059871	-0.274057	-0.909770
C98	C	0.970111	-0.214212	-0.480358
C99	C	0.970112	-0.214218	-0.433440
C100	C	1.059878	-0.274138	-0.435903
C101	C	1.059879	-0.274129	-0.482822
C102	C	1.014990	-0.244167	-0.505049
C103	C	1.059873	-0.274034	-1.008296
C104	C	1.059873	-0.274020	-1.055216
C105	C	0.970105	-0.214102	-1.052749
C106	C	0.970107	-0.214114	-1.005833
C107	C	1.014993	-0.244083	-0.983608
O108	O	0.931977	-0.188661	-0.930563
O109	O	1.098033	-0.299535	-0.935085
C110	C	1.059867	-0.274093	-0.722106
C111	C	1.014984	-0.244140	-0.697418
C112	C	0.970102	-0.214178	-0.719645
C113	C	1.014986	-0.244147	-0.650500
C114	C	1.059867	-0.274109	-0.628273
C115	C	1.104747	-0.304065	-0.652963
C116	C	1.104749	-0.304055	-0.699878
C117	C	0.925223	-0.184222	-0.694955
C118	C	0.925225	-0.184234	-0.648040
C119	C	0.970106	-0.214197	-0.625812
C120	C	1.014882	-0.244176	-0.127375
C121	C	1.014991	-0.244058	-0.077443
H122	H	1.096377	-0.502521	-0.194231
N123	N	1.105914	-0.985208	-0.188581
N124	N	1.146036	-1.007246	-0.164049
H125	H	1.178451	-0.991207	-0.144217
H126	H	0.614472	-0.285454	-0.285218
H127	H	0.888673	-0.159837	-0.627942
N128	N	0.879378	-0.153606	-0.717647
N129	N	0.884093	-0.112283	-0.712535
H130	H	0.851715	-0.090656	-0.728559
H131	H	0.527696	-0.281638	-0.281426
H132	H	1.096428	-0.298435	-0.990206
H133	H	0.747554	-0.184678	-0.184779
N134	N	1.150617	-0.334642	-0.771019
N135	N	1.215425	-0.333428	-0.778058
H136	H	1.247825	-0.355045	-0.762037
N137	N	0.423647	-0.197205	-0.197277
N138	N	0.415496	-0.155533	-0.200109
H139	H	0.441950	-0.135493	-0.180139
H140	H	0.502817	-0.206777	-0.206804
N141	N	0.879131	-0.622501	-0.327138
N142	N	0.834369	-0.595137	-0.310084
H143	H	0.801932	-0.577341	-0.329903
N144	N	0.606875	-0.174878	-0.175016
N145	N	0.541385	-0.173094	-0.173239
H146	H	0.514923	-0.151614	-0.151834
H147	H	1.096319	-0.417410	-0.194217
H148	H	1.141374	-0.634448	-0.166766
N149	N	1.150739	-0.724662	-0.161083
N150	N	1.190843	-0.704786	-0.136550
H151	H	1.223278	-0.722572	-0.116722
H152	H	0.888658	-0.159802	-0.853806
H153	H	0.416037	-0.307374	-0.307065
N154	N	1.105951	-1.080053	-0.188600
N155	N	1.105956	-1.121944	-0.188611
H156	H	1.138378	-1.139752	-0.168792
H157	H	0.933261	-0.413008	-0.293932
H158	H	0.933575	-1.070526	-0.294003
H159	H	0.747536	-0.289090	-0.288833
N160	N	0.924227	-0.980311	-0.299699
N161	N	0.884119	-1.000186	-0.324230
H162	H	0.851687	-0.982398	-0.344059
H163	H	0.282963	-0.303739	-0.303448
H164	H	0.888485	-0.712725	-0.321459
H165	H	0.282982	-0.199329	-0.199394
N166	N	0.924276	-0.183617	-0.408218
N167	N	0.949019	-0.155669	-0.382726
H168	H	0.916644	-0.134057	-0.364913
N169	N	0.879194	-0.763260	-0.327143
N170	N	0.834433	-0.735895	-0.310089
H171	H	0.801995	-0.718099	-0.329907
H172	H	0.933307	-0.498131	-0.293949
H173	H	0.933555	-0.189812	-0.498451
H174	H	1.141447	-0.775197	-0.166784
H175	H	1.141485	-0.860317	-0.166798
N176	N	0.879240	-0.858087	-0.327163
N177	N	0.839115	-0.836048	-0.351692
H178	H	0.806698	-0.852088	-0.371523
H179	H	1.096429	-0.298413	-1.075315
N180	N	1.105727	-0.304722	-0.508047
N181	N	1.150498	-0.290137	-0.535466
H182	H	1.182879	-0.311744	-0.553281
N183	N	1.150605	-0.334631	-0.865833
N184	N	1.190666	-0.361381	-0.845973
H185	H	1.223047	-0.383000	-0.863773
N186	N	1.105737	-0.304738	-0.413196
N187	N	1.150512	-0.290160	-0.388255
H188	H	1.182898	-0.311771	-0.372216
N189	N	0.879351	-0.153605	-0.763587
N190	N	0.839280	-0.126862	-0.783447
H191	H	0.806886	-0.105250	-0.765648
H192	H	0.933565	-0.189717	-0.985731
H193	H	0.933565	-0.189706	-1.070855
N194	N	1.150587	-0.334662	-0.725092
N195	N	1.125844	-0.362612	-0.750582
H196	H	1.158218	-0.384231	-0.768387
N197	N	1.150595	-0.334664	-0.630246
N198	N	1.150583	-0.334662	-0.588355
H199	H	1.182960	-0.356271	-0.572309
