data_functionalizedCrystal
_audit_creation_method	'MofGen! by Chris Wilmer'
_symmetry_space_group_name_H-M	'P1'
_symmetry_Int_Tables_number	1
_symmetry_cell_setting	triclinic
loop_
_symmetry_equiv_pos_as_xyz
  x,y,z
_cell_length_a	10.967819
_cell_length_b	15.625429
_cell_length_c	10.065875
_cell_angle_alpha	116.579354
_cell_angle_beta	93.110852
_cell_angle_gamma	80.703303
loop_
_atom_site_label
_atom_site_type_symbol
_atom_site_fract_x
_atom_site_fract_y
_atom_site_fract_z
O1	O	1.563116	0.193154	0.576715
O2	O	1.212875	0.195884	0.495693
O3	O	1.407981	0.055956	0.472331
O4	O	1.368009	0.333081	0.600078
O5	O	1.445222	0.029187	0.240853
O6	O	1.250115	0.169114	0.264215
O7	O	1.600356	0.166384	0.345237
Zn8	Zn	1.431149	0.163499	0.267974
Zn9	Zn	1.382082	0.198769	0.572956
O10	O	1.405250	0.306312	0.368599
C11	C	1.186870	0.180277	0.368359
C12	C	1.053901	0.173644	0.333804
C13	C	0.837898	0.177712	0.402627
C14	C	0.975331	0.184559	0.438330
C15	C	1.428485	0.006994	0.339430
C16	C	1.434082	-0.099015	0.288292
C17	C	1.350965	-0.374715	0.750937
C18	C	1.356226	-0.474332	0.702841
C19	C	1.396823	-0.503500	0.450499
C20	C	1.391572	-0.403885	0.498576
C21	C	1.368641	-0.339499	0.648797
C22	C	1.409248	-0.368669	0.396435
C23	C	1.403990	-0.269061	0.444508
C24	C	1.381057	-0.204669	0.594721
C25	C	1.363383	-0.239891	0.696869
C26	C	1.432170	-0.433055	0.246214
C27	C	1.449846	-0.397839	0.144073
C28	C	1.444597	-0.298231	0.192147
C29	C	1.421664	-0.233839	0.342360
C30	C	1.462271	-0.263008	0.089999
C31	C	1.457013	-0.163401	0.138071
C32	C	1.416406	-0.134231	0.390433
C33	C	1.626361	0.181992	0.472574
C34	C	1.759328	0.188626	0.507139
C35	C	1.384746	0.355274	0.501503
C36	C	1.379147	0.461285	0.552651
N37	N	1.464644	0.139428	0.059833
N38	N	1.348597	0.222833	0.781096
C39	C	1.393736	0.190383	1.000595
C40	C	1.419516	0.171870	0.840329
H41	H	0.793805	0.203044	0.623049
O42	O	1.328593	-0.312044	0.896798
C43	C	1.194539	-0.175526	1.076506
C44	C	1.219712	-0.246430	0.911276
H45	H	1.106497	-0.122472	1.088269
H46	H	1.275552	-0.133862	1.122308
H47	H	1.182895	-0.217804	1.141283
H48	H	1.231330	-0.204226	0.846378
H49	H	1.138688	-0.288094	0.865591
O50	O	1.437266	-0.529840	0.199252
C51	C	1.467159	-0.688790	-0.008193
C52	C	1.461390	-0.579205	0.044783
H53	H	1.486689	-0.728735	-0.133080
H54	H	1.375071	-0.703690	0.017534
H55	H	1.544080	-0.715078	0.051785
H56	H	1.384526	-0.552842	-0.015164
H57	H	1.553530	-0.564368	0.019082
O58	O	1.012597	0.156403	0.195568
C59	C	0.837937	0.133944	0.033983
C60	C	0.884553	0.153457	0.190583
H61	H	0.734405	0.131576	0.029911
H62	H	0.888355	0.061596	-0.051025
H63	H	0.856539	0.194290	0.007156
H64	H	0.865959	0.093171	0.217552
H65	H	0.834136	0.225836	0.275504
O66	O	1.484497	-0.325420	-0.055984
C67	C	1.524286	-0.343848	-0.301207
C68	C	1.499098	-0.273061	-0.135930
H69	H	1.536124	-0.301546	-0.365886
H70	H	1.443233	-0.385446	-0.347141
H71	H	1.612244	-0.396975	-0.312928
H72	H	1.411180	-0.219876	-0.124078
H73	H	1.580220	-0.231534	-0.090072
O74	O	1.253379	0.291299	0.861937
C75	C	1.084504	0.412565	0.867498
C76	C	1.192312	0.335076	0.775795
H77	H	1.035085	0.447967	0.797880
H78	H	1.121799	0.469944	0.971541
H79	H	1.016760	0.377097	0.900939
H80	H	1.260097	0.370458	0.742247
H81	H	1.154929	0.277705	0.671822
H82	H	0.803419	0.163304	0.286721
O83	O	1.341011	-0.177220	0.842729
C84	C	1.206958	-0.040702	1.022438
C85	C	1.232130	-0.111606	0.857208
H86	H	1.118915	0.012352	1.034200
H87	H	1.287970	0.000961	1.068239
H88	H	1.195313	-0.082981	1.087215
H89	H	1.243748	-0.069402	0.792310
H90	H	1.151107	-0.153270	0.811523
H91	H	1.313947	0.247717	1.068528
H92	H	1.397744	-0.081805	0.512759
H93	H	1.376763	-0.123562	0.633857
O94	O	1.514648	0.103354	0.759377
C95	C	1.604246	-0.065257	0.652899
C96	C	1.496457	0.012242	0.744628
H97	H	1.589564	-0.138941	0.640919
H98	H	1.694846	-0.046258	0.711651
H99	H	1.608086	-0.067950	0.538117
H100	H	1.492501	0.014976	0.859420
H101	H	1.405910	-0.006787	0.685760
H102	H	1.341819	-0.502998	0.786025
H103	H	1.544441	0.082101	0.991904
O104	O	1.472295	-0.460301	-0.001850
C105	C	1.613282	-0.522855	-0.211122
C106	C	1.587996	-0.452061	-0.045865
H107	H	1.706836	-0.516231	-0.246750
H108	H	1.537820	-0.504716	-0.281011
H109	H	1.613938	-0.600085	-0.227918
H110	H	1.587361	-0.374807	-0.028927
H111	H	1.663461	-0.470284	0.023943
O112	O	1.016328	0.201634	0.576620
C113	C	1.039967	0.146335	0.766236
C114	C	0.993458	0.126892	0.609621
H115	H	1.021518	0.085909	0.792954
H116	H	0.989440	0.218623	0.851276
H117	H	1.143468	0.148838	0.770380
H118	H	0.889970	0.124340	0.605332
H119	H	1.044076	0.054620	0.524652
O120	O	1.473956	-0.129115	0.038881
C121	C	1.386967	-0.026408	-0.074283
C122	C	1.367617	-0.065185	0.038069
H123	H	1.301017	0.025302	-0.074953
H124	H	1.404190	-0.089486	-0.189963
H125	H	1.470070	0.013718	-0.041029
H126	H	1.284506	-0.105298	0.004954
H127	H	1.350465	-0.002069	0.153721
H128	H	1.415489	-0.555936	0.328188
