data_functionalizedCrystal
_audit_creation_method	'MofGen! by Chris Wilmer'
_symmetry_space_group_name_H-M	'P1'
_symmetry_Int_Tables_number	1
_symmetry_cell_setting	triclinic
loop_
_symmetry_equiv_pos_as_xyz
  x,y,z
_cell_length_a	10.654550
_cell_length_b	16.992695
_cell_length_c	9.130313
_cell_angle_alpha	89.995176
_cell_angle_beta	89.999724
_cell_angle_gamma	87.576577
loop_
_atom_site_label
_atom_site_type_symbol
_atom_site_fract_x
_atom_site_fract_y
_atom_site_fract_z
O1	O	1.677362	0.110190	-0.121691
O2	O	2.177362	0.610190	0.378309
O3	O	1.312790	0.120688	-0.121718
O4	O	1.812790	0.620688	0.378282
O5	O	1.493615	0.001288	-0.121693
O6	O	1.993615	0.501288	0.378307
O7	O	1.496538	0.229590	-0.121716
O8	O	1.996538	0.729590	0.378284
O9	O	1.493601	0.001285	0.121906
O10	O	1.993601	0.501285	0.621906
O11	O	1.312777	0.120685	0.121881
O12	O	1.812777	0.620685	0.621881
O13	O	1.677348	0.110186	0.121908
O14	O	2.177348	0.610186	0.621908
Cu15	Cu	1.495061	0.115435	0.144137
Cu16	Cu	1.995061	0.615435	0.644137
Cu17	Cu	1.495077	0.115439	-0.143947
Cu18	Cu	1.995077	0.615439	0.356053
O19	O	1.496524	0.229586	0.121883
O20	O	1.996524	0.729586	0.621883
C21	C	1.265919	0.119916	0.000078
C22	C	1.765919	0.619916	0.500078
C23	C	1.126277	0.117609	0.000068
C24	C	1.626277	0.617609	0.500068
C25	C	1.052866	0.187910	0.000065
C26	C	1.552866	0.687910	0.500065
C27	C	0.921658	0.185738	0.000091
C28	C	1.421658	0.685738	0.500091
C29	C	0.937282	0.042959	0.000116
C30	C	1.437282	0.542959	0.500116
C31	C	1.068488	0.045132	0.000101
C32	C	1.568488	0.545132	0.500101
C33	C	1.489848	-0.027946	0.000106
C34	C	1.989848	0.472054	0.500106
C35	C	1.478628	-0.115051	0.000105
C36	C	1.978628	0.384949	0.500105
C37	C	1.586879	-0.164703	0.000114
C38	C	2.086879	0.335297	0.500114
C39	C	1.576330	-0.246547	0.000099
C40	C	2.076330	0.253453	0.500099
C41	C	1.457529	-0.278738	0.000086
C42	C	1.957529	0.221262	0.500086
C43	C	1.349270	-0.229080	0.000072
C44	C	1.849270	0.270920	0.500072
C45	C	1.359820	-0.147237	0.000076
C46	C	1.859820	0.352763	0.500076
C47	C	1.413802	-0.522573	0.000062
C48	C	1.913802	-0.022573	0.500062
C49	C	1.403260	-0.604422	0.000062
C50	C	1.903260	-0.104422	0.500062
C51	C	1.630321	-0.621884	0.000087
C52	C	2.130321	-0.121884	0.500087
C53	C	1.640861	-0.540039	0.000100
C54	C	2.140861	-0.040039	0.500100
C55	C	1.532602	-0.490388	0.000079
C56	C	2.032602	0.009612	0.500079
N57	N	1.446743	-0.362395	0.000075
N58	N	1.946743	0.137605	0.500075
N59	N	1.543389	-0.406733	0.000079
N60	N	2.043389	0.093267	0.500079
C61	C	1.724220	0.110959	0.000108
C62	C	2.224220	0.610959	0.500108
C63	C	1.863862	0.113265	0.000109
C64	C	2.363862	0.613265	0.500109
C65	C	1.500291	0.258821	0.000080
C66	C	2.000291	0.758821	0.500080
C67	C	1.511510	0.345926	0.000072
C68	C	2.011510	0.845926	0.500072
N69	N	1.495059	0.115432	0.346759
N70	N	1.995059	0.615432	0.846759
N71	N	1.495089	0.115437	-0.346570
N72	N	1.995089	0.615437	0.153430
C73	C	1.575159	0.062584	0.423422
C74	C	2.075159	0.562584	0.923422
C75	C	1.575171	0.062584	0.576759
C76	C	2.075171	0.562584	1.076759
C77	C	1.414980	0.168287	0.576756
C78	C	1.914980	0.668287	1.076756
C79	C	1.414963	0.168282	0.423422
C80	C	1.914963	0.668282	0.923422
H81	H	0.890215	-0.016050	0.000152
H82	H	1.390215	0.483950	0.500152
Cl83	Cl	1.160783	-0.043254	0.000116
Cl84	Cl	1.660783	0.456746	0.500116
Cl85	Cl	1.253898	-0.644889	0.000054
Cl86	Cl	1.753898	-0.144889	0.500054
H87	H	1.683620	-0.138501	0.000134
H88	H	2.183620	0.361499	0.500134
H89	H	1.252539	-0.255296	0.000051
H90	H	1.752539	0.244704	0.500051
H91	H	0.861892	0.242984	0.000091
H92	H	1.361892	0.742984	0.500091
Cl93	Cl	1.125510	0.279024	0.000033
Cl94	Cl	1.625510	0.779024	0.500033
H95	H	1.349730	0.211318	0.360999
H96	H	1.849730	0.711318	0.860999
H97	H	1.664480	-0.286971	0.000110
H98	H	2.164480	0.213029	0.500110
H99	H	1.737601	-0.513836	0.000112
H100	H	2.237601	-0.013836	0.500112
Cl101	Cl	1.766408	-0.684306	0.000110
Cl102	Cl	2.266408	-0.184306	0.500110
Cl103	Cl	1.277703	-0.460166	0.000031
Cl104	Cl	1.777703	0.039834	0.500031
Cl105	Cl	1.675847	-0.003859	0.327052
Cl106	Cl	2.175847	0.496141	0.827052
Cl107	Cl	1.675869	-0.003857	0.673131
Cl108	Cl	2.175869	0.496143	1.173131
H109	H	1.271671	-0.106811	0.000068
H110	H	1.771671	0.393189	0.500068
H111	H	1.349769	0.211318	0.639191
H112	H	1.849769	0.711318	1.139191
