data_functionalizedCrystal
_audit_creation_method	'MofGen! by Chris Wilmer'
_symmetry_space_group_name_H-M	'P1'
_symmetry_Int_Tables_number	1
_symmetry_cell_setting	triclinic
loop_
_symmetry_equiv_pos_as_xyz
  x,y,z
_cell_length_a	23.532407
_cell_length_b	10.654541
_cell_length_c	9.730217
_cell_angle_alpha	89.996959
_cell_angle_beta	90.001277
_cell_angle_gamma	83.666337
loop_
_atom_site_label
_atom_site_type_symbol
_atom_site_fract_x
_atom_site_fract_y
_atom_site_fract_z
O1	O	0.756250	0.152438	-0.114203
O2	O	0.590530	0.174494	-0.114225
O3	O	0.677201	-0.019394	-0.114205
O4	O	0.669579	0.346326	-0.114223
O5	O	0.677198	-0.019396	0.114375
O6	O	0.590527	0.174492	0.114356
O7	O	0.756247	0.152436	0.114377
Zn8	Zn	0.673387	0.163464	0.150658
Zn9	Zn	0.673390	0.163466	-0.150506
O10	O	0.669576	0.346324	0.114358
C11	C	0.676640	-0.066176	0.000084
C12	C	0.674966	-0.205566	0.000082
C13	C	0.569309	0.173932	0.000063
C14	C	0.506081	0.172243	0.000055
C15	C	0.778605	-0.236820	0.000113
C16	C	0.829636	-0.317931	0.000131
C17	C	0.828060	-0.448899	0.000126
C18	C	0.775447	-0.498758	0.000100
C19	C	0.724417	-0.417647	0.000081
C20	C	0.725998	-0.286677	0.000090
C21	C	0.620780	-0.386393	0.000041
C22	C	0.622354	-0.255424	0.000055
C23	C	0.568167	-0.436251	0.000014
C24	C	0.517136	-0.355140	0.000006
C25	C	0.518714	-0.224164	0.000012
C26	C	0.571324	-0.174313	0.000037
C27	C	0.239121	0.050540	0.000098
C28	C	0.298531	0.052108	0.000098
O29	O	0.334647	-0.044437	0.000150
N30	N	0.321908	0.167375	0.000083
C31	C	0.285871	0.281080	0.000082
O32	O	0.311210	0.379268	0.000071
C33	C	0.226462	0.279510	0.000092
C34	C	0.203088	0.164236	0.000093
C35	C	0.215747	-0.064725	0.000101
C36	C	0.156341	-0.066293	0.000098
C37	C	0.120308	0.047403	0.000094
C38	C	0.143682	0.162668	0.000091
C39	C	0.190426	0.393214	0.000102
C40	C	0.131013	0.391634	0.000113
C41	C	0.107640	0.276360	0.000114
C42	C	0.048243	0.274797	0.000084
N43	N	0.024866	0.159530	0.000099
C44	C	0.060899	0.045833	0.000104
C45	C	0.410635	0.284369	0.000063
C46	C	0.470043	0.285940	0.000043
C47	C	0.482699	0.056968	0.000061
C48	C	0.423290	0.055397	0.000071
C49	C	0.387258	0.169102	0.000078
C50	C	-0.063859	0.042549	0.000098
C51	C	-0.123271	0.040991	0.000091
C52	C	-0.135923	0.269963	0.000080
C53	C	-0.076516	0.271521	0.000080
C54	C	-0.040485	0.157804	0.000094
O55	O	0.012092	0.371292	0.000038
O56	O	0.035552	-0.052338	0.000134
C57	C	0.777468	0.152999	0.000087
C58	C	0.840696	0.154687	0.000086
C59	C	0.670137	0.393106	0.000065
C60	C	0.671810	0.532496	0.000059
N61	N	0.673388	0.163462	0.356195
N62	N	0.673393	0.163459	-0.356042
C63	C	0.750167	-0.008178	0.356203
C64	C	0.788560	-0.093994	0.428147
C65	C	0.788566	-0.093995	0.572027
C66	C	0.750173	-0.008173	0.643966
C67	C	0.711780	0.077643	0.572022
C68	C	0.711780	0.077637	0.428139
C69	C	0.635000	0.249275	0.572014
C70	C	0.634996	0.249284	0.428134
C71	C	0.596607	0.335097	0.643953
C72	C	0.558216	0.420921	0.572009
C73	C	0.558212	0.420919	0.428121
C74	C	0.596603	0.335100	0.356190
H75	H	0.779893	-0.130181	0.000135
H76	H	0.596611	0.335087	0.761108
H77	H	0.872472	-0.277322	0.000165
H78	H	0.381300	0.376967	0.000058
H79	H	0.137316	-0.160161	0.000105
C80	C	-0.024231	-0.082539	0.000104
C81	C	-0.027183	-0.177210	0.118795
C82	C	0.012445	-0.302296	0.118789
C83	C	0.055025	-0.332711	0.000092
C84	C	0.057978	-0.238037	-0.118609
C85	C	0.018350	-0.112951	-0.118603
H86	H	-0.058705	-0.154698	0.206670
H87	H	0.010259	-0.372380	0.206660
H88	H	0.084360	-0.425307	0.000087
H89	H	0.089500	-0.260549	-0.206484
H90	H	0.020537	-0.042867	-0.206473
H91	H	-0.142298	-0.052883	0.000088
H92	H	0.526957	0.490786	0.630591
H93	H	-0.165271	0.362531	0.000069
H94	H	0.526946	0.490797	0.369551
H95	H	0.869613	-0.514941	0.000130
H96	H	0.596605	0.335095	0.239036
H97	H	0.566888	-0.542893	0.000002
H98	H	0.404264	-0.038469	0.000073
C99	C	0.255376	-0.189806	0.000096
C100	C	0.252427	-0.284480	0.118787
C101	C	0.292051	-0.409571	0.118769
C102	C	0.334625	-0.439988	0.000060
C103	C	0.337577	-0.345312	-0.118639
C104	C	0.297952	-0.220221	-0.118621
H105	H	0.220909	-0.261965	0.206670
H106	H	0.289866	-0.479656	0.206639
H107	H	0.363958	-0.532588	0.000047
H108	H	0.369094	-0.367827	-0.206522
H109	H	0.300137	-0.150136	-0.206491
H110	H	0.774169	-0.605400	0.000079
H111	H	0.474303	-0.395746	-0.000025
H112	H	0.750176	-0.008189	0.761120
H113	H	0.101678	0.484229	0.000125
H114	H	0.750171	-0.008176	0.239049
H115	H	0.477158	-0.158130	-0.000009
H116	H	0.819827	-0.163878	0.630604
C117	C	-0.050797	0.398316	0.000063
C118	C	-0.064187	0.492552	0.118750
C119	C	-0.038471	0.619346	0.118746
C120	C	0.000634	0.651905	0.000054
C121	C	0.014025	0.557667	-0.118642
C122	C	-0.011690	0.430873	-0.118637
H123	H	-0.093136	0.468452	0.206621
H124	H	-0.048385	0.689106	0.206613
H125	H	0.019670	0.745765	0.000051
H126	H	0.042975	0.581767	-0.206512
H127	H	-0.001777	0.361112	-0.206505
H128	H	0.572614	-0.067674	0.000050
H129	H	0.489068	0.379808	0.000023
H130	H	0.512048	-0.035610	0.000065
H131	H	0.209445	0.487083	0.000095
H132	H	0.819818	-0.163872	0.369562
