data_functionalizedCrystal
_audit_creation_method	'MofGen! by Chris Wilmer'
_symmetry_space_group_name_H-M	'P1'
_symmetry_Int_Tables_number	1
_symmetry_cell_setting	triclinic
loop_
_symmetry_equiv_pos_as_xyz
  x,y,z
_cell_length_a	19.077713
_cell_length_b	18.050591
_cell_length_c	19.077174
_cell_angle_alpha	92.323056
_cell_angle_beta	94.475462
_cell_angle_gamma	92.273359
loop_
_atom_site_label
_atom_site_type_symbol
_atom_site_fract_x
_atom_site_fract_y
_atom_site_fract_z
Zn1	Zn	-0.296790	-1.165246	-0.410033
Zn2	Zn	-0.046790	-0.915246	-0.160033
Zn3	Zn	0.203210	-0.665246	0.089967
Zn4	Zn	0.453210	-0.415246	0.339967
Zn5	Zn	-0.409937	-1.165149	-0.296885
Zn6	Zn	-0.159937	-0.915149	-0.046885
Zn7	Zn	0.090063	-0.665149	0.203115
Zn8	Zn	0.340063	-0.415149	0.453115
Zn9	Zn	-0.292061	-1.035866	-0.292144
Zn10	Zn	-0.042061	-0.785866	-0.042144
Zn11	Zn	0.207939	-0.535866	0.207856
Zn12	Zn	0.457939	-0.285866	0.457856
Zn13	Zn	-0.414618	-1.046200	-0.414714
Zn14	Zn	-0.164618	-0.796200	-0.164714
Zn15	Zn	0.085382	-0.546200	0.085286
Zn16	Zn	0.335382	-0.296200	0.335286
O17	O	-0.353352	-1.103115	-0.353444
O18	O	-0.103352	-0.853115	-0.103444
O19	O	0.146648	-0.603115	0.146556
O20	O	0.396648	-0.353115	0.396556
O21	O	-0.311819	-1.269159	-0.395049
O22	O	-0.061819	-1.019159	-0.145049
O23	O	0.188181	-0.769159	0.104951
O24	O	0.438181	-0.519159	0.354951
O25	O	-0.390362	-1.143634	-0.197607
O26	O	-0.140362	-0.893634	0.052393
O27	O	0.109638	-0.643634	0.302393
O28	O	0.359638	-0.393634	0.552393
O29	O	-0.194046	-1.048744	-0.303839
O30	O	0.055954	-0.798744	-0.053839
O31	O	0.305954	-0.548744	0.196161
O32	O	0.555954	-0.298744	0.446161
O33	O	-0.394948	-1.269088	-0.311919
O34	O	-0.144948	-1.019088	-0.061919
O35	O	0.105052	-0.769088	0.188081
O36	O	0.355052	-0.519088	0.438081
O37	O	-0.197520	-1.143799	-0.390452
O38	O	0.052480	-0.893799	-0.140452
O39	O	0.302480	-0.643799	0.109548
O40	O	0.552480	-0.393799	0.359548
O41	O	-0.303760	-1.048650	-0.194124
O42	O	-0.053760	-0.798650	0.055876
O43	O	0.196240	-0.548650	0.305876
O44	O	0.446240	-0.298650	0.555876
O45	O	-0.308299	-0.933310	-0.308378
O46	O	-0.058299	-0.683310	-0.058378
O47	O	0.191701	-0.433310	0.191622
O48	O	0.441701	-0.183310	0.441622
O49	O	-0.402926	-1.066357	-0.512742
O50	O	-0.152926	-0.816357	-0.262742
O51	O	0.097074	-0.566357	-0.012742
O52	O	0.347074	-0.316357	0.237258
O53	O	-0.398341	-0.940903	-0.398430
O54	O	-0.148341	-0.690903	-0.148430
O55	O	0.101659	-0.440903	0.101570
O56	O	0.351659	-0.190903	0.351570
O57	O	-0.316359	-1.153820	-0.509303
O58	O	-0.066359	-0.903820	-0.259303
O59	O	0.183641	-0.653820	-0.009303
O60	O	0.433641	-0.403820	0.240697
O61	O	-0.509201	-1.153655	-0.316458
O62	O	-0.259201	-0.903655	-0.066458
O63	O	-0.009201	-0.653655	0.183542
O64	O	0.240799	-0.403655	0.433542
O65	O	-0.512640	-1.066264	-0.403027
O66	O	-0.262640	-0.816264	-0.153027
O67	O	-0.012640	-0.566264	0.096973
O68	O	0.237360	-0.316264	0.346973
C69	C	-0.353315	-0.910160	-0.353398
C70	C	-0.103315	-0.660160	-0.103398
C71	C	0.146685	-0.410160	0.146602
C72	C	0.396685	-0.160160	0.396602
C73	C	-0.353318	-0.827614	-0.353395
C74	C	-0.103318	-0.577614	-0.103395
C75	C	0.146682	-0.327614	0.146605
C76	C	0.396682	-0.077614	0.396605
C77	C	-0.304296	-0.574639	-0.304522
C78	C	-0.054296	-0.324639	-0.054522
C79	C	0.195704	-0.074639	0.195478
C80	C	0.445704	0.175361	0.445478
C81	C	-0.289715	-0.626153	-0.368171
C82	C	-0.039715	-0.376153	-0.118171
C83	C	0.210285	-0.126153	0.131829
C84	C	0.460285	0.123847	0.381829
C85	C	-0.353340	-0.530496	-0.353439
C86	C	-0.103340	-0.280496	-0.103439
C87	C	0.146660	-0.030496	0.146561
C88	C	0.396660	0.219504	0.396561
C89	C	-0.367877	-0.626062	-0.289772
C90	C	-0.117877	-0.376062	-0.039772
C91	C	0.132123	-0.126062	0.210228
C92	C	0.382123	0.123938	0.460228
C93	C	-0.353327	-0.676480	-0.353414
C94	C	-0.103327	-0.426480	-0.103414
C95	C	0.146673	-0.176480	0.146586
C96	C	0.396673	0.073520	0.396586
C97	C	-0.338728	-0.580923	-0.417121
C98	C	-0.088728	-0.330923	-0.167121
C99	C	0.161272	-0.080923	0.082879
C100	C	0.411272	0.169077	0.332879
C101	C	-0.416918	-0.580826	-0.338680
C102	C	-0.166918	-0.330826	-0.088680
C103	C	0.083082	-0.080826	0.161320
C104	C	0.333082	0.169174	0.411320
C105	C	-0.402364	-0.632321	-0.402373
C106	C	-0.152364	-0.382321	-0.152373
C107	C	0.097636	-0.132321	0.097627
C108	C	0.347636	0.117679	0.347627
C109	C	-0.353346	-0.446399	-0.353453
C110	C	-0.103346	-0.196399	-0.103453
C111	C	0.146654	0.053601	0.146547
C112	C	0.396654	0.303601	0.396547
C113	C	-0.353322	-0.760576	-0.353408
C114	C	-0.103322	-0.510576	-0.103408
C115	C	0.146678	-0.260576	0.146592
C116	C	0.396678	-0.010576	0.396592
C117	C	-0.536498	-1.111091	-0.360780
C118	C	-0.286498	-0.861091	-0.110780
C119	C	-0.036498	-0.611091	0.139220
C120	C	0.213502	-0.361091	0.389220
C121	C	-0.614850	-1.114572	-0.363943
C122	C	-0.364850	-0.864572	-0.113943
C123	C	-0.114850	-0.614572	0.136057
C124	C	0.135150	-0.364572	0.386057
C125	C	-1.056075	-1.139536	-0.386601
C126	C	-0.806075	-0.889536	-0.136601
C127	C	-0.556075	-0.639536	0.113399
C128	C	-0.306075	-0.389536	0.363399
C129	C	-0.982455	-1.136256	-0.383624
C130	C	-0.732455	-0.886256	-0.133624
C131	C	-0.482455	-0.636256	0.116376
C132	C	-0.232455	-0.386256	0.366376
C133	C	-0.943902	-1.085163	-0.337011
C134	C	-0.693902	-0.835163	-0.087011
C135	C	-0.443902	-0.585163	0.162989
C136	C	-0.193902	-0.335163	0.412989
C137	C	-0.978971	-1.037351	-0.293367
C138	C	-0.728971	-0.787351	-0.043367
C139	C	-0.478971	-0.537351	0.206633
C140	C	-0.228971	-0.287351	0.456633
C141	C	-1.052590	-1.040635	-0.296341
C142	C	-0.802590	-0.790635	-0.046341
C143	C	-0.552590	-0.540635	0.203659
C144	C	-0.302590	-0.290635	0.453659
C145	C	-0.723538	-1.070044	-0.323273
C146	C	-0.473538	-0.820044	-0.073273
C147	C	-0.223538	-0.570044	0.176727
C148	C	0.026462	-0.320044	0.426727
C149	C	-0.649915	-1.066762	-0.320303
C150	C	-0.399915	-0.816762	-0.070303
C151	C	-0.149915	-0.566762	0.179697
C152	C	0.100085	-0.316762	0.429697
C153	C	-0.653404	-1.165669	-0.410560
C154	C	-0.403404	-0.915669	-0.160560
C155	C	-0.153404	-0.665669	0.089440
C156	C	0.096596	-0.415669	0.339440
C157	C	-0.727024	-1.168945	-0.413533
C158	C	-0.477024	-0.918945	-0.163533
C159	C	-0.227024	-0.668945	0.086467
C160	C	0.022976	-0.418945	0.336467
C161	C	-0.762087	-1.121136	-0.369887
C162	C	-0.512087	-0.871136	-0.119887
C163	C	-0.262087	-0.621136	0.130113
C164	C	-0.012087	-0.371136	0.380113
N165	N	-0.868650	-1.081808	-0.333968
N166	N	-0.618650	-0.831808	-0.083968
N167	N	-0.368650	-0.581808	0.166032
N168	N	-0.118650	-0.331808	0.416032
N169	N	-0.837337	-1.124495	-0.372927
N170	N	-0.587337	-0.874495	-0.122927
N171	N	-0.337337	-0.624495	0.127073
N172	N	-0.087337	-0.374495	0.377073
C173	C	-0.169491	-1.095129	-0.346094
C174	C	0.080509	-0.845129	-0.096094
C175	C	0.330509	-0.595129	0.153906
C176	C	0.580509	-0.345129	0.403906
C177	C	-0.091140	-1.091726	-0.342962
C178	C	0.158860	-0.841726	-0.092962
C179	C	0.408860	-0.591726	0.157038
C180	C	0.658860	-0.341726	0.407038
C181	C	-0.360692	-1.111252	-0.537316
C182	C	-0.110692	-0.861252	-0.287316
C183	C	0.139308	-0.611252	-0.037316
C184	C	0.389308	-0.361252	0.212684
C185	C	-0.363820	-1.114720	-0.615672
C186	C	-0.113820	-0.864720	-0.365672
C187	C	0.136180	-0.614720	-0.115672
C188	C	0.386180	-0.364720	0.134328
C189	C	-0.353376	-0.296823	-0.353478
C190	C	-0.103376	-0.046823	-0.103478
C191	C	0.146624	0.203177	0.146522
C192	C	0.396624	0.453177	0.396522
C193	C	-0.353352	-0.379367	-0.353459
C194	C	-0.103352	-0.129367	-0.103459
C195	C	0.146648	0.120633	0.146541
C196	C	0.396648	0.370633	0.396541
C197	C	-0.320201	-1.066898	-0.650669
C198	C	-0.070201	-0.816898	-0.400669
C199	C	0.179799	-0.566898	-0.150669
C200	C	0.429799	-0.316898	0.099331
C201	C	-0.323146	-1.070153	-0.724292
C202	C	-0.073146	-0.820153	-0.474292
C203	C	0.176854	-0.570153	-0.224292
C204	C	0.426854	-0.320153	0.025708
C205	C	-0.369707	-1.121235	-0.762917
C206	C	-0.119707	-0.871235	-0.512917
C207	C	0.130293	-0.621235	-0.262917
C208	C	0.380293	-0.371235	-0.012917
C209	C	-0.413331	-1.169059	-0.727914
C210	C	-0.163331	-0.919059	-0.477914
C211	C	0.086669	-0.669059	-0.227914
C212	C	0.336669	-0.419059	0.022086
C213	C	-0.410389	-1.165799	-0.654292
C214	C	-0.160389	-0.915799	-0.404292
C215	C	0.089611	-0.665799	-0.154292
C216	C	0.339611	-0.415799	0.095708
C217	C	-0.383344	-1.136283	-0.983298
C218	C	-0.133344	-0.886283	-0.733298
C219	C	0.116656	-0.636283	-0.483298
C220	C	0.366656	-0.386283	-0.233298
C221	C	-0.386281	-1.139540	-1.056925
C222	C	-0.136281	-0.889540	-0.806925
C223	C	0.113719	-0.639540	-0.556925
C224	C	0.363719	-0.389540	-0.306925
C225	C	-0.296097	-1.040633	-1.053298
C226	C	-0.046097	-0.790633	-0.803298
C227	C	0.203903	-0.540633	-0.553298
C228	C	0.453903	-0.290633	-0.303298
C229	C	-0.293156	-1.037381	-0.979674
C230	C	-0.043156	-0.787381	-0.729674
C231	C	0.206844	-0.537381	-0.479674
C232	C	0.456844	-0.287381	-0.229674
C233	C	-0.336783	-1.085203	-0.944678
C234	C	-0.086783	-0.835203	-0.694678
C235	C	0.163217	-0.585203	-0.444678
C236	C	0.413217	-0.335203	-0.194678
N237	N	-0.372717	-1.124565	-0.838172
N238	N	-0.122717	-0.874565	-0.588172
N239	N	0.127283	-0.624565	-0.338172
N240	N	0.377283	-0.374565	-0.088172
N241	N	-0.333776	-1.081868	-0.869425
N242	N	-0.083776	-0.831868	-0.619425
N243	N	0.166224	-0.581868	-0.369425
N244	N	0.416224	-0.331868	-0.119425
C245	C	-0.345989	-1.095051	-0.170285
C246	C	-0.095989	-0.845051	0.079715
C247	C	0.154011	-0.595051	0.329715
C248	C	0.404011	-0.345051	0.579715
C249	C	-0.342662	-1.091718	-0.091922
C250	C	-0.092662	-0.841718	0.158078
C251	C	0.157338	-0.591718	0.408078
C252	C	0.407338	-0.341718	0.658078
H253	H	-0.262797	-0.549451	-0.263213
H254	H	-0.012797	-0.299451	-0.013213
H255	H	0.237203	-0.049451	0.236787
H256	H	0.487203	0.200549	0.486787
Cl257	Cl	-0.775486	-1.233167	-0.472147
Cl258	Cl	-0.525486	-0.983167	-0.222147
Cl259	Cl	-0.275486	-0.733167	0.027853
Cl260	Cl	-0.025486	-0.483167	0.277853
Cl261	Cl	-0.938377	-1.196363	-0.438488
Cl262	Cl	-0.688377	-0.946363	-0.188488
Cl263	Cl	-0.438377	-0.696363	0.061512
Cl264	Cl	-0.188377	-0.446363	0.311512
Cl265	Cl	-0.930504	-0.973122	-0.234764
Cl266	Cl	-0.680504	-0.723122	0.015236
Cl267	Cl	-0.430504	-0.473122	0.265236
Cl268	Cl	-0.180504	-0.223122	0.515236
Cl269	Cl	-0.206696	-0.656992	-0.387442
Cl270	Cl	0.043304	-0.406992	-0.137442
Cl271	Cl	0.293304	-0.156992	0.112558
Cl272	Cl	0.543304	0.093008	0.362558
H273	H	-0.380177	-0.645960	-0.235939
H274	H	-0.130177	-0.395960	0.014061
H275	H	0.119823	-0.145960	0.264061
H276	H	0.369823	0.104040	0.514061
Cl277	Cl	-0.319638	-0.550345	-0.500255
Cl278	Cl	-0.069638	-0.300345	-0.250255
Cl279	Cl	0.180362	-0.050345	-0.000255
Cl280	Cl	0.430362	0.199655	0.249745
Cl281	Cl	-0.444813	-1.203768	-1.105480
Cl282	Cl	-0.194813	-0.953768	-0.855480
Cl283	Cl	0.055187	-0.703768	-0.605480
Cl284	Cl	0.305187	-0.453768	-0.355480
Cl285	Cl	-0.466395	-0.671007	-0.466293
Cl286	Cl	-0.216395	-0.421007	-0.216293
Cl287	Cl	0.033605	-0.171007	0.033707
Cl288	Cl	0.283605	0.078993	0.283707
H289	H	-0.445903	-1.204746	-0.625798
H290	H	-0.195903	-0.954746	-0.375798
H291	H	0.054097	-0.704746	-0.125798
H292	H	0.304097	-0.454746	0.124202
H293	H	-1.087461	-1.181134	-0.424566
H294	H	-0.837461	-0.931134	-0.174566
H295	H	-0.587461	-0.681134	0.075434
H296	H	-0.337461	-0.431134	0.325434
Cl297	Cl	-0.609320	-1.225769	-0.465426
Cl298	Cl	-0.359320	-0.975769	-0.215426
Cl299	Cl	-0.109320	-0.725769	0.034574
Cl300	Cl	0.140680	-0.475769	0.284574
H301	H	-0.470673	-0.560831	-0.326182
H302	H	-0.220673	-0.310831	-0.076182
H303	H	0.029327	-0.060831	0.173818
H304	H	0.279327	0.189169	0.423818
H305	H	-1.081139	-1.001703	-0.260805
H306	H	-0.831139	-0.751703	-0.010805
H307	H	-0.581139	-0.501703	0.239195
H308	H	-0.331139	-0.251703	0.489195
H309	H	-0.418875	-1.175214	-0.954813
H310	H	-0.168875	-0.925214	-0.704813
H311	H	0.081125	-0.675214	-0.454813
H312	H	0.331125	-0.425214	-0.204813
H313	H	-0.618527	-1.025153	-0.282343
H314	H	-0.368527	-0.775153	-0.032343
H315	H	-0.118527	-0.525153	0.217657
H316	H	0.131473	-0.275153	0.467657
Cl317	Cl	-0.234619	-0.973163	-0.931123
Cl318	Cl	0.015381	-0.723163	-0.681123
Cl319	Cl	0.265381	-0.473163	-0.431123
Cl320	Cl	0.515381	-0.223163	-0.181123
H321	H	-0.282282	-1.025306	-0.619226
H322	H	-0.032282	-0.775306	-0.369226
H323	H	0.217718	-0.525306	-0.119226
H324	H	0.467718	-0.275306	0.130774
Cl325	Cl	-0.767608	-1.009936	-0.268407
Cl326	Cl	-0.517608	-0.759936	-0.018407
Cl327	Cl	-0.267608	-0.509936	0.231593
Cl328	Cl	-0.017608	-0.259936	0.481593
H329	H	-0.287630	-1.031209	-0.752784
H330	H	-0.037630	-0.781209	-0.502784
H331	H	0.212370	-0.531209	-0.252784
H332	H	0.462370	-0.281209	-0.002784
Cl333	Cl	-0.241259	-0.980516	-1.097297
Cl334	Cl	0.008741	-0.730516	-0.847297
Cl335	Cl	0.258741	-0.480516	-0.597297
Cl336	Cl	0.508741	-0.230516	-0.347297
Cl337	Cl	-0.471869	-1.233271	-0.776471
Cl338	Cl	-0.221869	-0.983271	-0.526471
Cl339	Cl	0.028131	-0.733271	-0.276471
Cl340	Cl	0.278131	-0.483271	-0.026471
