data_functionalizedCrystal
_audit_creation_method	'MofGen! by Chris Wilmer'
_symmetry_space_group_name_H-M	'P1'
_symmetry_Int_Tables_number	1
_symmetry_cell_setting	triclinic
loop_
_symmetry_equiv_pos_as_xyz
  x,y,z
_cell_length_a	19.077105
_cell_length_b	19.077068
_cell_length_c	19.076919
_cell_angle_alpha	85.529249
_cell_angle_beta	90.076224
_cell_angle_gamma	89.884684
loop_
_atom_site_label
_atom_site_type_symbol
_atom_site_fract_x
_atom_site_fract_y
_atom_site_fract_z
Zn1	Zn	1.044048	0.340450	-0.453500
Zn2	Zn	1.043962	0.453600	-0.340340
Zn3	Zn	0.931660	0.331023	-0.330931
Zn4	Zn	0.921801	0.453176	-0.453077
O5	O	0.985368	0.394562	-0.394462
O6	O	1.142196	0.359583	-0.442604
O7	O	1.033154	0.433572	-0.240616
O8	O	0.950731	0.233799	-0.343429
O9	O	1.142133	0.442714	-0.359466
O10	O	1.033302	0.240725	-0.433479
O11	O	0.950647	0.343516	-0.233703
O12	O	0.832193	0.343104	-0.343019
O13	O	0.933928	0.441990	-0.551609
O14	O	0.824949	0.432849	-0.432759
O15	O	1.023742	0.359171	-0.551919
O16	O	1.023594	0.552019	-0.359056
O17	O	0.933844	0.551707	-0.441883
C18	C	0.803119	0.386908	-0.386822
C19	C	0.725151	0.383651	-0.383571
C20	C	0.977658	0.577398	-0.401461
C21	C	0.974423	0.655619	-0.404482
C22	C	0.977745	0.401585	-0.578012
C23	C	0.974497	0.404578	-0.656230
C24	C	0.684769	0.428912	-0.428699
C25	C	0.611510	0.425842	-0.425647
C26	C	0.578634	0.377515	-0.377464
C27	C	0.619022	0.332250	-0.332335
C28	C	0.692280	0.335317	-0.335390
C29	C	0.359940	0.363323	-0.363326
C30	C	0.286677	0.360262	-0.360273
C31	C	0.279170	0.453853	-0.453586
C32	C	0.352429	0.456918	-0.456635
C33	C	0.392810	0.411651	-0.411508
N34	N	0.503752	0.374378	-0.374342
N35	N	0.467691	0.414785	-0.414634
C36	C	1.168328	0.402247	-0.402132
C37	C	1.246295	0.405522	-0.405400
C38	C	0.993126	0.211015	-0.387451
C39	C	0.996432	0.132798	-0.384464
C40	C	1.019665	0.692509	-0.362816
C41	C	1.016626	0.766007	-0.365661
C42	C	0.968342	0.802612	-0.410169
C43	C	0.923098	0.765717	-0.451839
C44	C	0.926141	0.692221	-0.448997
C45	C	0.954231	1.022406	-0.423292
C46	C	0.951190	1.095907	-0.426130
C47	C	1.044720	1.096192	-0.339952
C48	C	1.047755	1.022695	-0.337111
C49	C	1.002514	0.985806	-0.378784
N50	N	0.965233	0.877738	-0.413077
N51	N	1.005627	0.910681	-0.375880
C52	C	1.019730	0.362866	-0.693140
C53	C	1.016669	0.365675	-0.766634
C54	C	0.968378	0.410200	-0.803216
C55	C	0.923140	0.451913	-0.766301
C56	C	0.926198	0.449100	-0.692809
C57	C	0.954216	0.423233	-1.022998
C58	C	0.951163	0.426044	-1.096496
C59	C	1.044691	0.339805	-1.096823
C60	C	1.047748	0.337000	-1.023329
C61	C	1.002507	0.378710	-0.986421
N62	N	0.965250	0.413073	-0.878339
N63	N	1.005632	0.375832	-0.911299
C64	C	0.993003	0.387518	-0.211626
C65	C	0.996396	0.384333	-0.133406
H66	H	0.578633	0.462699	-0.462394
H67	H	1.053467	0.796040	-0.331732
C68	C	1.100860	0.288013	-0.983090
C69	C	1.104222	0.284915	-0.902250
C70	C	1.157335	0.235927	-0.862010
C71	C	1.207086	0.190037	-0.902610
C72	C	1.203726	0.193133	-0.983453
C73	C	1.150613	0.242121	-1.023693
H74	H	1.067392	0.318887	-0.872192
H75	H	1.159822	0.233635	-0.802164
H76	H	1.246403	0.153773	-0.872821
H77	H	1.240556	0.159161	-1.013511
H78	H	1.148126	0.244413	-1.083540
H79	H	0.392810	0.326468	-0.326576
C80	C	1.094448	0.293922	-1.137424
C81	C	1.174368	0.302626	-1.130888
C82	C	1.224126	0.256738	-1.171489
C83	C	1.193963	0.202146	-1.218626
C84	C	1.114039	0.193439	-1.225164
C85	C	1.064282	0.239327	-1.184563
H86	H	1.196700	0.343041	-1.095993
H87	H	1.283291	0.263184	-1.166648
H88	H	1.230797	0.168177	-1.248681
H89	H	1.091708	0.153024	-1.260059
H90	H	1.005117	0.232881	-1.189404
C91	C	0.870019	0.500891	-0.806540
C92	C	0.866655	0.503991	-0.887379
C93	C	0.813535	0.552972	-0.927616
C94	C	0.763777	0.598853	-0.887014
C95	C	0.767139	0.595754	-0.806170
C96	C	0.820260	0.546773	-0.765933
H97	H	0.903490	0.470026	-0.917440
H98	H	0.811046	0.555265	-0.987463
H99	H	0.724454	0.635111	-0.916800
H100	H	0.730304	0.629719	-0.776110
H101	H	0.822748	0.544479	-0.706087
C102	C	0.876445	0.494984	-0.652202
C103	C	0.796525	0.486281	-0.658737
C104	C	0.746768	0.532164	-0.618130
C105	C	0.776932	0.586751	-0.570988
C106	C	0.856856	0.595457	-0.564451
C107	C	0.906612	0.549574	-0.605058
H108	H	0.774192	0.445870	-0.693636
H109	H	0.687603	0.525719	-0.622969
H110	H	0.740099	0.620717	-0.540928
H111	H	0.879189	0.635868	-0.529552
H112	H	0.965778	0.556019	-0.600219
H113	H	0.889301	0.662185	-0.482927
H114	H	0.911879	1.125710	-0.462386
C115	C	0.582862	0.279090	-0.279332
C116	C	0.502281	0.275717	-0.275965
C117	C	0.466123	0.222557	-0.222959
C118	C	0.510544	0.172770	-0.173320
C119	C	0.591130	0.176141	-0.176685
C120	C	0.627288	0.229301	-0.229691
H121	H	0.469393	0.312574	-0.312712
H122	H	0.406468	0.220062	-0.220468
H123	H	0.483778	0.133418	-0.134082
H124	H	0.624017	0.139284	-0.139938
H125	H	0.686943	0.231796	-0.232182
H126	H	0.917392	0.992377	-0.457223
C127	C	0.388586	0.510080	-0.509639
C128	C	0.437882	0.566221	-0.483266
C129	C	0.474037	0.619388	-0.536268
C130	C	0.460896	0.616413	-0.615643
C131	C	0.411597	0.560270	-0.642020
C132	C	0.375442	0.507103	-0.589017
H133	H	0.447612	0.568426	-0.424505
H134	H	0.510531	0.660949	-0.516742
H135	H	0.487660	0.655770	-0.654878
H136	H	0.401867	0.558066	-0.700781
H137	H	0.338948	0.465542	-0.608544
C138	C	0.736705	0.285530	-0.285751
C139	C	0.729758	0.205343	-0.288146
C140	C	0.774183	0.155551	-0.238508
C141	C	0.825555	0.185946	-0.186476
C142	C	0.832504	0.266136	-0.184079
C143	C	0.788079	0.315928	-0.233716
H144	H	0.691727	0.182840	-0.326665
H145	H	0.769038	0.096189	-0.240283
H146	H	0.858441	0.149087	-0.149731
H147	H	0.870535	0.288640	-0.145560
H148	H	0.793224	0.375291	-0.231941
H149	H	0.246283	0.490707	-0.490327
H150	H	0.917388	0.457207	-0.992957
C151	C	1.072780	0.652246	-0.313856
C152	C	1.070026	0.659095	-0.234008
C153	C	1.123144	0.618834	-0.185049
C154	C	1.179015	0.571724	-0.215939
C155	C	1.181771	0.564873	-0.295792
C156	C	1.128653	0.605134	-0.344750
H157	H	1.028665	0.693970	-0.211137
H158	H	1.121104	0.623906	-0.125936
H159	H	1.218336	0.541921	-0.179696
H160	H	1.223132	0.529998	-0.318662
H161	H	1.130693	0.600062	-0.403863
C162	C	0.898060	0.475047	-1.136741
C163	C	0.848313	0.520945	-1.096146
C164	C	0.795226	0.569958	-1.136392
C165	C	0.791887	0.573074	-1.217233
C166	C	0.841636	0.527174	-1.257833
C167	C	0.894722	0.478161	-1.217586
H168	H	0.850784	0.518640	-1.036299
H169	H	0.758399	0.603936	-1.106338
H170	H	0.752589	0.609356	-1.247026
H171	H	0.839165	0.529479	-1.317680
H172	H	0.931550	0.444183	-1.247641
C173	C	1.100873	0.982436	-0.288152
C174	C	1.098115	0.989290	-0.208304
C175	C	1.151232	0.949034	-0.159340
C176	C	1.207107	0.901924	-0.190224
C177	C	1.209867	0.895069	-0.270076
C178	C	1.156750	0.935325	-0.319040
H179	H	1.056751	1.024165	-0.185438
H180	H	1.149188	0.954109	-0.100228
H181	H	1.246427	0.872124	-0.153978
H182	H	1.251231	0.860193	-0.292942
H183	H	1.158794	0.930250	-0.378152
C184	C	0.869986	0.805981	-0.500802
C185	C	0.866636	0.886823	-0.503930
C186	C	0.813522	0.927085	-0.552893
C187	C	0.763760	0.886505	-0.598728
C188	C	0.767109	0.805658	-0.595602
C189	C	0.820222	0.765396	-0.546639
H190	H	0.903474	0.916867	-0.469998
H191	H	0.811043	0.986934	-0.555207
H192	H	0.724442	0.916309	-0.634974
H193	H	0.730270	0.775613	-0.629534
H194	H	0.822701	0.705547	-0.544325
C195	C	1.072851	0.313888	-0.652902
C196	C	1.070085	0.234036	-0.659711
C197	C	1.123206	0.185054	-0.619475
C198	C	1.179093	0.215925	-0.572429
C199	C	1.181861	0.295781	-0.565618
C200	C	1.128740	0.344762	-0.605854
H201	H	1.028713	0.211180	-0.694539
H202	H	1.121157	0.125939	-0.624518
H203	H	1.218416	0.179665	-0.542644
H204	H	1.223234	0.318637	-0.530789
H205	H	1.130790	0.403877	-0.600811
H206	H	0.259912	0.320900	-0.321040
H207	H	0.711530	0.468267	-0.467932
H208	H	1.081554	1.126235	-0.306026
H209	H	1.053504	0.331711	-0.796682
