data_functionalizedCrystal
_audit_creation_method	'MofGen! by Chris Wilmer'
_symmetry_space_group_name_H-M	'P1'
_symmetry_Int_Tables_number	1
_symmetry_cell_setting	triclinic
loop_
_symmetry_equiv_pos_as_xyz
  x,y,z
_cell_length_a	10.654550
_cell_length_b	15.944551
_cell_length_c	9.130313
_cell_angle_alpha	89.997799
_cell_angle_beta	89.996220
_cell_angle_gamma	83.991820
loop_
_atom_site_label
_atom_site_type_symbol
_atom_site_fract_x
_atom_site_fract_y
_atom_site_fract_z
O1	O	1.666308	0.117973	-0.121923
O2	O	1.300684	0.129213	-0.121900
O3	O	1.493480	0.001376	-0.121899
O4	O	1.473511	0.245810	-0.121924
O5	O	1.493478	0.001379	0.121700
O6	O	1.300681	0.129216	0.121699
O7	O	1.666305	0.117976	0.121676
Cu8	Cu	1.483493	0.123596	0.143930
Cu9	Cu	1.483496	0.123592	-0.144154
O10	O	1.473509	0.245813	0.121675
C11	C	1.253895	0.128389	-0.000098
C12	C	1.114484	0.125920	-0.000088
C13	C	1.034024	0.201188	-0.000117
C14	C	0.903034	0.198863	-0.000142
C15	C	0.932975	0.045995	-0.000116
C16	C	1.063963	0.048321	-0.000080
C17	C	1.084545	0.278788	-0.000126
C18	C	1.004084	0.354062	-0.000156
C19	C	0.873094	0.351737	-0.000182
C20	C	0.822564	0.274137	-0.000176
C21	C	1.492650	-0.029921	-0.000099
C22	C	1.490165	-0.123182	-0.000098
C23	C	1.364720	-0.338765	-0.000111
C24	C	1.422971	-0.399443	0.119995
C25	C	1.485668	-0.293934	-0.000109
C26	C	1.423002	-0.399430	-0.120175
C27	C	1.481317	-0.458872	-0.000126
C28	C	1.543953	-0.353384	0.120095
C29	C	1.543967	-0.353364	-0.120182
C30	C	1.602306	-0.414024	-0.000048
C31	C	1.488172	-0.198917	-0.000098
C32	C	1.478822	-0.553887	-0.000127
C33	C	1.713094	0.118800	-0.000130
C34	C	1.852505	0.121269	-0.000149
C35	C	1.474339	0.277110	-0.000128
C36	C	1.476824	0.370371	-0.000139
N37	N	1.483500	0.123599	0.346552
N38	N	1.483499	0.123583	-0.346777
C39	C	1.568892	0.067012	0.423205
C40	C	1.568889	0.067002	0.576542
C41	C	1.398098	0.180173	0.576560
C42	C	1.398096	0.180178	0.423226
C43	C	1.654296	0.010433	0.346531
C44	C	1.739696	-0.046158	0.423184
C45	C	1.739693	-0.046168	0.576520
C46	C	1.654290	0.010412	0.653205
H47	H	0.891822	-0.017184	-0.000135
H48	H	1.371814	-0.419846	0.221540
O49	O	1.605116	-0.329103	-0.241284
C50	C	1.798797	-0.341312	-0.379592
C51	C	1.729702	-0.368876	-0.242390
H52	H	1.899545	-0.373442	-0.380516
H53	H	1.747194	-0.360055	-0.481962
H54	H	1.800823	-0.269974	-0.377820
H55	H	1.727657	-0.440210	-0.244020
H56	H	1.781329	-0.350071	-0.140081
H57	H	1.264327	-0.306038	0.000016
O58	O	1.822455	-0.101184	0.348567
C59	C	1.849117	-0.215807	0.175594
C60	C	1.755269	-0.153505	0.259956
H61	H	1.794834	-0.258136	0.103955
H62	H	1.911869	-0.179234	0.103682
H63	H	1.910139	-0.256215	0.256784
H64	H	1.694165	-0.113082	0.178871
H65	H	1.692605	-0.190129	0.331889
H66	H	1.809220	-0.092252	0.638929
O67	O	1.654482	0.010311	0.802157
C68	C	1.748121	-0.051843	1.022188
C69	C	1.748057	-0.051806	0.853507
H70	H	1.823750	-0.102071	1.063756
H71	H	1.768815	0.012679	1.063915
H72	H	1.651767	-0.066203	1.063773
H73	H	1.844383	-0.037481	0.811798
H74	H	1.727292	-0.116334	0.811880
O75	O	1.361788	-0.423635	-0.241268
C76	C	1.167331	-0.412531	-0.378024
C77	C	1.236523	-0.385041	-0.240853
H78	H	1.066034	-0.381354	-0.377719
H79	H	1.217816	-0.392650	-0.480433
H80	H	1.166904	-0.483999	-0.377420
H81	H	1.236970	-0.313577	-0.241316
H82	H	1.186015	-0.404984	-0.138506
O83	O	1.141950	-0.024872	-0.000129
C84	C	1.157836	-0.176743	-0.000037
C85	C	1.069372	-0.093915	-0.000019
H86	H	1.099192	-0.232585	0.000083
H87	H	1.219911	-0.179531	-0.101991
H88	H	1.219911	-0.179426	0.101901
H89	H	1.007218	-0.091176	-0.101887
H90	H	1.007383	-0.091160	0.102003
H91	H	1.328561	0.226256	0.360815
O92	O	1.052955	0.429510	-0.000093
C93	C	1.009430	0.580889	-0.000209
C94	C	0.953922	0.495501	-0.000248
H95	H	0.929389	0.634265	-0.000365
H96	H	1.069941	0.585861	0.101772
H97	H	1.070071	0.585751	-0.102120
H98	H	0.893224	0.490582	0.101594
H99	H	0.893483	0.490566	-0.102295
O100	O	0.794807	0.424798	-0.000404
C101	C	0.629631	0.510910	-0.126711
C102	C	0.718194	0.428125	-0.126613
H103	H	0.567685	0.513635	-0.228755
H104	H	0.567445	0.513663	-0.024850
H105	H	0.688274	0.566753	-0.126640
H106	H	0.659651	0.372236	-0.126736
H107	H	0.780384	0.425445	-0.228465
H108	H	1.654309	0.010437	0.221677
O109	O	1.314976	0.235050	0.650983
C110	C	1.096626	0.282940	0.697866
C111	C	1.190620	0.220729	0.613519
H112	H	0.996065	0.271395	0.667583
H113	H	1.111190	0.273216	0.820642
H114	H	1.113051	0.350315	0.667738
H115	H	1.174252	0.153330	0.643523
H116	H	1.176034	0.230527	0.490763
H117	H	1.595065	-0.333096	0.221746
H118	H	1.191203	0.280689	-0.000112
H119	H	1.702787	-0.446602	0.000014
H120	H	0.715901	0.272250	-0.000174
