data_functionalizedCrystal
_audit_creation_method	'MofGen! by Chris Wilmer'
_symmetry_space_group_name_H-M	'P1'
_symmetry_Int_Tables_number	1
_symmetry_cell_setting	triclinic
loop_
_symmetry_equiv_pos_as_xyz
  x,y,z
_cell_length_a	6.817900
_cell_length_b	16.418042
_cell_length_c	16.417825
_cell_angle_alpha	95.405182
_cell_angle_beta	76.614505
_cell_angle_gamma	76.610432
loop_
_atom_site_label
_atom_site_type_symbol
_atom_site_fract_x
_atom_site_fract_y
_atom_site_fract_z
V1	V	4.025074	-0.261449	-0.116567
O2	O	4.013115	-0.256170	0.004901
O3	O	3.976127	-0.259951	-0.230459
O4	O	3.976155	-0.375343	-0.115081
O5	O	4.013086	-0.139979	-0.111275
V6	V	4.508841	-0.246885	-0.102002
O7	O	4.285799	-0.293396	-0.148517
O8	O	4.698313	-0.214937	-0.070051
O9	O	4.334581	-0.248382	0.011890
O10	O	4.638197	-0.252164	-0.223470
O11	O	4.638225	-0.368355	-0.107293
O12	O	4.334553	-0.132990	-0.103487
C13	C	3.821011	-0.255902	-0.258214
C14	C	3.862274	-0.255436	-0.351324
C15	C	3.917414	-0.177648	-0.553385
C16	C	3.956208	-0.177217	-0.640873
C17	C	4.035881	-0.330695	-0.665184
C18	C	3.997102	-0.331125	-0.577697
C19	C	3.937858	-0.254599	-0.521800
C20	C	4.015430	-0.253738	-0.696774
C21	C	4.057492	-0.253272	-0.791633
C22	C	3.895797	-0.255065	-0.426935
C23	C	3.821046	-0.403095	-0.111037
C24	C	3.862329	-0.496206	-0.110576
C25	C	4.139337	-0.714700	-0.113692
C26	C	4.178107	-0.802186	-0.113251
C27	C	3.813934	-0.793622	-0.104873
C28	C	3.775163	-0.706136	-0.105307
C29	C	3.937874	-0.666678	-0.109721
C30	C	4.015415	-0.841650	-0.108846
C31	C	4.057451	-0.936507	-0.108368
C32	C	3.895836	-0.571815	-0.110197
C33	C	4.153039	-0.252430	0.039641
C34	C	4.091014	-0.252900	0.132750
C35	C	4.153004	-0.105235	-0.107534
C36	C	4.090960	-0.012123	-0.107991
H37	H	3.869175	-0.115335	-0.507875
H38	H	3.939560	-0.114556	-0.666585
H39	H	4.084117	-0.393000	-0.710706
H40	H	3.611097	-0.667035	-0.102067
H41	H	4.013763	-0.393792	-0.551982
H42	H	4.342155	-0.841281	-0.116483
O43	O	3.655747	-0.831894	-0.100440
C44	C	3.497632	-0.796347	-0.025100
H45	H	3.567058	-0.766728	0.023288
H46	H	3.427837	-0.848063	0.001558
H47	H	3.370145	-0.745508	-0.039222
O48	O	4.297609	-0.676481	-0.118087
C49	C	4.455684	-0.712002	-0.193445
H50	H	4.444677	-0.778156	-0.216245
H51	H	4.615069	-0.716316	-0.180862
H52	H	4.435132	-0.670260	-0.244162
