data_functionalizedCrystal
_audit_creation_method	'MofGen! by Chris Wilmer'
_symmetry_space_group_name_H-M	'P1'
_symmetry_Int_Tables_number	1
_symmetry_cell_setting	triclinic
loop_
_symmetry_equiv_pos_as_xyz
  x,y,z
_cell_length_a	10.654550
_cell_length_b	9.065218
_cell_length_c	9.130313
_cell_angle_alpha	89.997322
_cell_angle_beta	89.999724
_cell_angle_gamma	84.750408
loop_
_atom_site_label
_atom_site_type_symbol
_atom_site_fract_x
_atom_site_fract_y
_atom_site_fract_z
O1	O	1.668660	0.207235	-0.121684
O2	O	1.303260	0.226979	-0.121710
O3	O	1.493513	0.002423	-0.121693
O4	O	1.478407	0.431791	-0.121700
O5	O	1.493500	0.002417	0.121906
O6	O	1.303247	0.226972	0.121889
O7	O	1.668647	0.207228	0.121915
Cu8	Cu	1.485946	0.217100	0.144145
Cu9	Cu	1.485961	0.217107	-0.143939
O10	O	1.478394	0.431784	0.121899
C11	C	1.256450	0.225526	0.000086
C12	C	1.116989	0.221188	0.000076
C13	C	1.038027	0.353403	0.000078
C14	C	0.906990	0.349319	0.000104
C15	C	0.933890	0.080794	0.000119
C16	C	1.064924	0.084879	0.000104
C17	C	1.492055	-0.052559	0.000104
C18	C	1.487714	-0.216378	0.000096
C19	C	1.715457	0.208681	0.000116
C20	C	1.854918	0.213019	0.000117
C21	C	1.479852	0.486766	0.000098
C22	C	1.484193	0.650585	0.000096
N23	N	1.485944	0.217093	0.346767
N24	N	1.485973	0.217102	-0.346562
C25	C	1.570217	0.117702	0.423427
C26	C	1.570229	0.117703	0.576763
C27	C	1.401691	0.316498	0.576768
C28	C	1.401674	0.316489	0.423434
H29	H	1.080414	0.464395	0.000066
O30	O	0.883518	-0.051736	0.000192
C31	C	0.924031	-0.317645	0.000097
C32	C	0.981238	-0.167655	0.000058
H33	H	1.003010	-0.411405	-0.000042
H34	H	0.863404	-0.326380	0.102069
H35	H	0.863310	-0.326184	-0.101822
H36	H	1.042017	-0.159015	0.101908
H37	H	1.041792	-0.158985	-0.101981
O38	O	1.319666	0.412901	0.651184
C39	C	1.102272	0.497021	0.698068
C40	C	1.195024	0.387735	0.613730
H41	H	1.001479	0.476733	0.667794
H42	H	1.116653	0.479955	0.820845
H43	H	1.120031	0.615367	0.667922
H44	H	1.177321	0.269346	0.643752
H45	H	1.180621	0.404930	0.490973
O46	O	0.830234	0.477712	0.000355
C47	C	0.666640	0.628911	0.126513
C48	C	0.753514	0.483462	0.126427
H49	H	0.604571	0.633593	0.228415
H50	H	0.726302	0.727088	0.126583
H51	H	0.604669	0.633684	0.024528
H52	H	0.815501	0.478544	0.228394
H53	H	0.693778	0.385353	0.126280
O54	O	1.141690	-0.043522	0.000356
C55	C	1.305314	-0.194696	0.126503
C56	C	1.218430	-0.049254	0.126411
H57	H	1.367399	-0.199364	0.228391
H58	H	1.245659	-0.292879	0.126607
H59	H	1.367268	-0.199472	0.024505
H60	H	1.156459	-0.044334	0.228392
H61	H	1.278159	0.048861	0.126230
O62	O	1.652111	0.021002	0.349178
C63	C	1.819322	-0.176123	0.365365
C64	C	1.726626	-0.066707	0.449627
H65	H	1.879610	-0.247043	0.446540
H66	H	1.764321	-0.250532	0.293635
H67	H	1.882722	-0.111713	0.293520
H68	H	1.663204	-0.130997	0.521550
H69	H	1.781706	0.007701	0.521264
H70	H	1.638850	0.036768	0.639175
H71	H	1.333043	0.397426	0.361014
