data_functionalizedCrystal
_audit_creation_method	'MofGen! by Chris Wilmer'
_symmetry_space_group_name_H-M	'P1'
_symmetry_Int_Tables_number	1
_symmetry_cell_setting	triclinic
loop_
_symmetry_equiv_pos_as_xyz
  x,y,z
_cell_length_a	16.992694
_cell_length_b	23.532407
_cell_length_c	15.455313
_cell_angle_alpha	92.643560
_cell_angle_beta	87.142206
_cell_angle_gamma	86.758451
loop_
_atom_site_label
_atom_site_type_symbol
_atom_site_fract_x
_atom_site_fract_y
_atom_site_fract_z
O1	O	1.042902	0.118384	-0.072037
O2	O	1.542902	0.618384	0.427963
O3	O	0.814628	0.117059	-0.072062
O4	O	1.314628	0.617059	0.427938
O5	O	0.935648	0.035132	-0.072033
O6	O	1.435648	0.535132	0.427967
O7	O	0.921882	0.200311	-0.072066
O8	O	1.421882	0.700311	0.427934
O9	O	0.928727	0.039796	0.072228
O10	O	1.428727	0.539796	0.572228
O11	O	0.807707	0.121723	0.072198
O12	O	1.307707	0.621723	0.572198
O13	O	1.035981	0.123049	0.072224
O14	O	1.535981	0.623049	0.572224
Cu15	Cu	0.921212	0.122812	0.085383
Cu16	Cu	1.421212	0.622812	0.585383
Cu17	Cu	0.929397	0.117296	-0.085222
Cu18	Cu	1.429397	0.617296	0.414778
O19	O	0.914962	0.204976	0.072194
O20	O	1.414962	0.704976	0.572194
C21	C	0.781968	0.117688	0.000065
C22	C	1.281968	0.617688	0.500065
C23	C	0.694964	0.112604	0.000056
C24	C	1.194964	0.612604	0.500056
C25	C	0.931837	0.016231	0.000100
C26	C	1.431837	0.516231	0.500100
C27	C	0.930782	-0.047038	0.000106
C28	C	1.430782	0.452962	0.500106
C29	C	0.644342	0.161650	0.000047
C30	C	1.144342	0.661650	0.500047
C31	C	0.562592	0.156871	0.000060
C32	C	1.062592	0.656871	0.500060
C33	C	0.531466	0.103045	0.000076
C34	C	1.031466	0.603045	0.500076
C35	C	0.582095	0.053995	0.000088
C36	C	1.082095	0.553995	0.500088
C37	C	0.663843	0.058775	0.000081
C38	C	1.163843	0.558775	0.500081
C39	C	0.288022	0.083234	0.000103
C40	C	0.788022	0.583234	0.500103
C41	C	0.206267	0.078457	0.000107
C42	C	0.706267	0.578457	0.500107
C43	C	0.186770	0.181334	0.000081
C44	C	0.686770	0.681334	0.500081
C45	C	0.268521	0.186109	0.000069
C46	C	0.768521	0.686109	0.500069
C47	C	0.319142	0.137059	0.000085
C48	C	0.819142	0.637059	0.500085
N49	N	0.447905	0.098158	0.000086
N50	N	0.947905	0.598158	0.500086
N51	N	0.402701	0.141946	0.000081
N52	N	0.902701	0.641946	0.500081
C53	C	0.995791	-0.442917	0.000066
C54	C	1.495791	0.057083	0.500066
C55	C	0.994812	-0.502366	0.000059
C56	C	1.494812	-0.002366	0.500059
O57	O	1.055075	-0.536121	0.000034
O58	O	1.555075	-0.036121	0.500034
N59	N	0.922865	-0.528562	0.000052
N60	N	1.422865	-0.028562	0.500052
C61	C	0.851893	-0.495307	0.000042
C62	C	1.351893	0.004693	0.500042
O63	O	0.790607	-0.523048	0.000035
O64	O	1.290607	-0.023048	0.500035
C65	C	0.852873	-0.435859	0.000043
C66	C	1.352873	0.064141	0.500043
C67	C	0.924824	-0.409666	0.000059
C68	C	1.424824	0.090334	0.500059
C69	C	1.067736	-0.416723	0.000081
C70	C	1.567736	0.083277	0.500081
C71	C	1.068714	-0.357278	0.000089
C72	C	1.568714	0.142722	0.500089
C73	C	0.997748	-0.324027	0.000083
C74	C	1.497748	0.175973	0.500083
C75	C	0.925803	-0.350221	0.000067
C76	C	1.425803	0.149779	0.500067
C77	C	0.781902	-0.402605	0.000027
C78	C	1.281902	0.097395	0.500027
C79	C	0.782889	-0.343154	0.000027
C80	C	1.282889	0.156846	0.500027
C81	C	0.854839	-0.316960	0.000043
C82	C	1.354839	0.183040	0.500043
C83	C	0.855814	-0.257525	0.000069
C84	C	1.355814	0.242475	0.500069
N85	N	0.927761	-0.231328	0.000076
N86	N	1.427761	0.268672	0.500076
C87	C	0.998728	-0.264579	0.000083
C88	C	1.498728	0.235421	0.500083
C89	C	0.849841	-0.620151	0.000040
C90	C	1.349841	-0.120151	0.500040
C91	C	0.848860	-0.679598	0.000046
C92	C	1.348860	-0.179598	0.500046
C93	C	0.991779	-0.686653	0.000061
C94	C	1.491779	-0.186653	0.500061
C95	C	0.992759	-0.627205	0.000061
C96	C	1.492759	-0.127205	0.500061
C97	C	0.921788	-0.593955	0.000047
C98	C	1.421788	-0.093955	0.500047
C99	C	1.000777	-0.139740	0.000101
C100	C	1.500777	0.360260	0.500101
C101	C	1.001749	-0.080289	0.000113
C102	C	1.501749	0.419711	0.500113
C103	C	0.858831	-0.073240	0.000093
C104	C	1.358831	0.426760	0.500093
C105	C	0.857858	-0.132685	0.000086
C106	C	1.357858	0.367315	0.500086
C107	C	0.928838	-0.165934	0.000087
C108	C	1.428838	0.334066	0.500087
O109	O	0.795583	-0.223733	0.000090
O110	O	1.295583	0.276267	0.500090
O111	O	1.060004	-0.236831	0.000079
O112	O	1.560004	0.263169	0.500079
C113	C	1.068641	0.122420	0.000095
C114	C	1.568641	0.622420	0.500095
C115	C	1.155645	0.127504	0.000098
C116	C	1.655645	0.627504	0.500098
C117	C	0.918772	0.223877	0.000060
C118	C	1.418772	0.723877	0.500060
C119	C	0.919827	0.287146	0.000048
C120	C	1.419827	0.787146	0.500048
N121	N	0.915462	0.126692	0.205377
N122	N	1.415462	0.626692	0.705377
N123	N	0.935153	0.113412	-0.205216
N124	N	1.435153	0.613412	0.294784
C125	C	0.966893	0.091901	0.250784
C126	C	1.466893	0.591901	0.750784
C127	C	0.962551	0.094840	0.341591
C128	C	1.462551	0.594840	0.841591
C129	C	0.906782	0.132574	0.386989
C130	C	1.406782	0.632574	0.886989
C131	C	0.855345	0.167366	0.341576
C132	C	1.355345	0.667366	0.841576
C133	C	0.859684	0.164424	0.250771
C134	C	1.359684	0.664424	0.750771
C135	C	0.888055	0.145261	0.658566
C136	C	1.388055	0.645261	1.158566
C137	C	0.883722	0.148203	0.749378
C138	C	1.383722	0.648203	1.249378
C139	C	0.990928	0.075676	0.749386
C140	C	1.490928	0.575676	1.249386
C141	C	0.995265	0.072738	0.658579
C142	C	1.495265	0.572738	1.158579
C143	C	0.943825	0.107529	0.613174
C144	C	1.443825	0.607529	1.113174
N145	N	0.902344	0.135581	0.479808
N146	N	1.402344	0.635581	0.979808
N147	N	0.948260	0.104518	0.520356
N148	N	1.448260	0.604518	1.020356
H149	H	0.521379	0.196809	0.000051
H150	H	1.021379	0.696809	0.500051
H151	H	0.817802	0.192753	0.213802
H152	H	1.317802	0.692753	0.713802
H153	H	0.669678	0.205481	0.000033
H154	H	1.169678	0.705481	0.500033
O155	O	0.713044	0.011153	0.000240
O156	O	1.213044	0.511153	0.500240
C157	C	0.757354	0.013263	0.074940
C158	C	1.257354	0.513263	0.574940
H159	H	0.724687	0.042701	0.127156
H160	H	1.224687	0.542701	0.627156
H161	H	0.765705	-0.031365	0.100029
H162	H	1.265705	0.468635	0.600029
H163	H	0.817498	0.030158	0.058041
H164	H	1.317498	0.530158	0.558041
H165	H	1.012310	0.061176	0.213826
H166	H	1.512310	0.561176	0.713826
O167	O	1.040856	0.041795	0.793400
O168	O	1.540856	0.541795	1.293400
C169	C	1.029595	-0.015864	0.771247
C170	C	1.529595	0.484136	1.271247
H171	H	1.002536	-0.019315	0.705319
H172	H	1.502536	0.480685	1.205319
H173	H	1.088875	-0.041300	0.768145
H174	H	1.588875	0.458700	1.268145
H175	H	0.988272	-0.033603	0.822363
H176	H	1.488272	0.466397	1.322363
H177	H	0.329228	0.043294	0.000117
H178	H	0.829228	0.543294	0.500117
O179	O	0.137710	0.229034	0.000033
O180	O	0.637710	0.729034	0.500033
C181	C	0.182712	0.277567	0.000042
C182	C	0.682712	0.777567	0.500042
H183	H	0.245149	0.265010	-0.027271
H184	H	0.745149	0.765010	0.472729
H185	H	0.154277	0.310807	-0.041845
H186	H	0.654277	0.810807	0.458155
H187	H	0.185099	0.296128	0.069248
H188	H	0.685099	0.796128	0.569248
O189	O	0.838057	0.179116	0.614602
O190	O	1.338057	0.679116	1.114602
C191	C	0.787895	0.213042	0.674147
C192	C	1.287895	0.713042	1.174147
H193	H	0.816936	0.217258	0.738869
H194	H	1.316936	0.717258	1.238869
H195	H	0.776832	0.257108	0.647898
H196	H	1.276832	0.757108	1.147898
H197	H	0.729355	0.192195	0.683825
H198	H	1.229355	0.692195	1.183825
O199	O	0.789926	-0.040914	-0.000070
O200	O	1.289926	0.459086	0.499930
C201	C	0.789825	-0.008714	-0.074772
C202	C	1.289825	0.491286	0.425228
H203	H	0.832587	-0.030320	-0.126983
H204	H	1.332587	0.469680	0.373017
H205	H	0.727842	-0.005719	-0.099867
H206	H	1.227842	0.494281	0.400133
H207	H	0.808964	0.035934	-0.057874
H208	H	1.308964	0.535934	0.442126
O209	O	0.713990	-0.310792	0.000131
O210	O	1.213990	0.189208	0.500131
C211	C	0.706678	-0.273797	0.074858
C212	C	1.206678	0.226203	0.574858
H213	H	0.767669	-0.267149	0.099780
H214	H	1.267669	0.232851	0.599780
H215	H	0.677925	-0.231043	0.058054
H216	H	1.177925	0.268957	0.558054
H217	H	0.668527	-0.293284	0.127167
H218	H	1.168527	0.206716	0.627167
H219	H	0.293858	0.229939	0.000046
H220	H	0.793858	0.729939	0.500046
O221	O	0.551830	0.001716	-0.000050
O222	O	1.051830	0.501716	0.499950
C223	C	0.508686	-0.006537	-0.074750
C224	C	1.008686	0.493463	0.425250
H225	H	0.530287	0.022403	-0.126979
H226	H	1.030287	0.522403	0.373021
H227	H	0.517581	-0.052896	-0.099818
H228	H	1.017581	0.447104	0.400182
H229	H	0.443303	0.004207	-0.057858
H230	H	0.943303	0.504207	0.442142
H231	H	1.004430	0.066510	0.378560
H232	H	1.504430	0.566510	0.878560
H233	H	1.040677	0.042013	0.621617
H234	H	1.540677	0.542013	1.121617
O235	O	1.060706	-0.718988	-0.000096
O236	O	1.560706	-0.218988	0.499904
C237	C	1.067979	-0.756001	-0.074804
C238	C	1.567979	-0.256001	0.425196
H239	H	1.030226	-0.737760	-0.127022
H240	H	1.530226	-0.237760	0.372978
H241	H	1.132369	-0.760609	-0.099882
H242	H	1.632369	-0.260609	0.400118
H243	H	1.047223	-0.799561	-0.057919
H244	H	1.547223	-0.299561	0.442081
O245	O	1.136666	-0.449046	-0.000064
O246	O	1.636666	0.050954	0.499936
C247	C	1.143968	-0.486066	-0.074765
C248	C	1.643968	0.013934	0.425235
H249	H	1.106215	-0.467840	-0.126995
H250	H	1.606215	0.032160	0.373005
H251	H	1.208363	-0.490659	-0.099830
H252	H	1.708363	0.009341	0.400170
H253	H	1.123232	-0.529631	-0.057874
H254	H	1.623232	-0.029631	0.442126
H255	H	0.180928	0.034624	0.000119
H256	H	0.680928	0.534624	0.500119
O257	O	0.780939	-0.587790	0.000154
O258	O	1.280939	-0.087790	0.500154
C259	C	0.773632	-0.550794	0.074880
C260	C	1.273632	-0.050794	0.574880
H261	H	0.834626	-0.544143	0.099794
H262	H	1.334626	-0.044143	0.599794
H263	H	0.744874	-0.508040	0.058076
H264	H	1.244874	-0.008040	0.558076
H265	H	0.735488	-0.570280	0.127193
H266	H	1.235488	-0.070280	0.627193
H267	H	0.809932	0.198088	0.378545
H268	H	1.309932	0.698088	0.878545
H269	H	1.051348	-0.605882	0.000074
H270	H	1.551348	-0.105882	0.500074
O271	O	0.711941	-0.427950	-0.000031
O272	O	1.211941	0.072050	0.499969
C273	C	0.649525	-0.385842	-0.000021
C274	C	1.149525	0.114158	0.499979
H275	H	0.672497	-0.345383	-0.027322
H276	H	1.172497	0.154617	0.472678
H277	H	0.601273	-0.401891	-0.041919
H278	H	1.101273	0.098109	0.458081
H279	H	0.624331	-0.376203	0.069183
H280	H	1.124331	0.123797	0.569183
O281	O	0.778899	-0.704948	0.000001
O282	O	1.278899	-0.204948	0.500001
C283	C	0.716477	-0.662844	0.000020
C284	C	1.216477	-0.162844	0.500020
H285	H	0.739441	-0.622383	-0.027283
H286	H	1.239441	-0.122383	0.472717
H287	H	0.668223	-0.678896	-0.041870
H288	H	1.168223	-0.178896	0.458130
H289	H	0.691290	-0.653207	0.069228
H290	H	1.191290	-0.153207	0.569228
O291	O	1.071717	-0.054939	0.000087
O292	O	1.571717	0.445061	0.500087
C293	C	1.134140	-0.097039	0.000109
C294	C	1.634140	0.402961	0.500109
H295	H	1.113799	-0.139259	-0.027209
H296	H	1.613799	0.360741	0.472791
H297	H	1.186410	-0.083682	-0.041766
H298	H	1.686410	0.416318	0.458234
H299	H	1.152689	-0.102219	0.069320
H300	H	1.652689	0.397781	0.569320
H301	H	1.127304	-0.335957	0.000099
H302	H	1.627304	0.164043	0.500099
O303	O	1.069669	-0.172089	0.000222
O304	O	1.569669	0.327911	0.500222
C305	C	1.069807	-0.204269	0.074944
C306	C	1.569807	0.295731	0.574944
H307	H	1.006424	-0.209317	0.099840
H308	H	1.506424	0.290683	0.599840
H309	H	1.100180	-0.248104	0.058143
H310	H	1.600180	0.251896	0.558143
H311	H	1.102929	-0.181409	0.127271
H312	H	1.602929	0.318591	0.627271
H313	H	0.838305	0.178933	0.786337
H314	H	1.338305	0.678933	1.286337
H315	H	0.799269	-0.154012	0.000097
H316	H	1.299269	0.345988	0.500097
