data_functionalizedCrystal
_audit_creation_method	'MofGen! by Chris Wilmer'
_symmetry_space_group_name_H-M	'P1'
_symmetry_Int_Tables_number	1
_symmetry_cell_setting	triclinic
loop_
_symmetry_equiv_pos_as_xyz
  x,y,z
_cell_length_a	21.395362
_cell_length_b	21.395355
_cell_length_c	21.395361
_cell_angle_alpha	89.978489
_cell_angle_beta	90.046585
_cell_angle_gamma	89.956060
loop_
_atom_site_label
_atom_site_type_symbol
_atom_site_fract_x
_atom_site_fract_y
_atom_site_fract_z
Zn1	Zn	0.957859	-0.354573	-0.249246
Zn2	Zn	0.957762	-0.249790	-0.354005
Zn3	Zn	0.853074	-0.249774	-0.249275
Zn4	Zn	0.853044	-0.354494	-0.354018
O5	O	0.905435	-0.302158	-0.301636
O6	O	1.045524	-0.340712	-0.263125
O7	O	0.943847	-0.162110	-0.340119
O8	O	0.867028	-0.263702	-0.161593
O9	O	1.045453	-0.263729	-0.340091
O10	O	0.944013	-0.340697	-0.161572
O11	O	0.866934	-0.162098	-0.263174
O12	O	0.765392	-0.263626	-0.263187
O13	O	0.866976	-0.442183	-0.340113
O14	O	0.765370	-0.340564	-0.340141
O15	O	0.943983	-0.442240	-0.263137
O16	O	0.943817	-0.263653	-0.441685
O17	O	0.866881	-0.340579	-0.441695
C18	C	0.742647	-0.302085	-0.301669
C19	C	0.673006	-0.302069	-0.301698
C20	C	0.905487	-0.465581	-0.301623
C21	C	0.905509	-0.535222	-0.301618
C22	C	0.905352	-0.302123	-0.464424
C23	C	0.905374	-0.302129	-0.534065
C24	C	0.640297	-0.342070	-0.341822
C25	C	0.574862	-0.342098	-0.341806
C26	C	0.542138	-0.302113	-0.301674
C27	C	0.574854	-0.262109	-0.261543
C28	C	0.640288	-0.262087	-0.261555
C29	C	0.438413	-0.245708	-0.296627
C30	C	0.372980	-0.245730	-0.296619
C31	C	0.340317	-0.302182	-0.301633
C32	C	0.373095	-0.358616	-0.306668
C33	C	0.438529	-0.358594	-0.306681
C34	C	0.471185	-0.302133	-0.301656
C35	C	0.236656	-0.342218	-0.341742
C36	C	0.171219	-0.342247	-0.341723
C37	C	0.171213	-0.262252	-0.261462
C38	C	0.236648	-0.262229	-0.261479
C39	C	0.269366	-0.302211	-0.301622
C40	C	1.068858	-0.302231	-0.301603
C41	C	1.138499	-0.302262	-0.301589
C42	C	0.945605	-0.567966	-0.261535
C43	C	0.945604	-0.633402	-0.261508
C44	C	0.905514	-0.666091	-0.301575
C45	C	0.865410	-0.633339	-0.341661
C46	C	0.865407	-0.567904	-0.341682
C47	C	0.900538	-0.769752	-0.357992
C48	C	0.900545	-0.835185	-0.357972
C49	C	0.905518	-0.867911	-0.301509
C50	C	0.910497	-0.835197	-0.245065
C51	C	0.910495	-0.769763	-0.245086
C52	C	0.905512	-0.737043	-0.301556
C53	C	0.945615	-0.971608	-0.261393
C54	C	0.945610	-1.037045	-0.261365
C55	C	0.865419	-1.036980	-0.341524
C56	C	0.865421	-0.971545	-0.341547
C57	C	0.905522	-0.938863	-0.301482
C58	C	0.905419	-0.139370	-0.301603
C59	C	0.905518	-0.069729	-0.301432
C60	C	0.945470	-0.262114	-0.566752
C61	C	0.945499	-0.262128	-0.632188
C62	C	0.905421	-0.302150	-0.664933
C63	C	0.865322	-0.342172	-0.632238
C64	C	0.865299	-0.342162	-0.566804
C65	C	0.849006	-0.307041	-0.768664
C66	C	0.849029	-0.307047	-0.834097
C67	C	0.905494	-0.302187	-0.866754
C68	C	0.961939	-0.297307	-0.833970
C69	C	0.961915	-0.297296	-0.768536
C70	C	0.905443	-0.302167	-0.735886
C71	C	0.945625	-0.262186	-0.970394
C72	C	0.945655	-0.262204	-1.035830
C73	C	0.865473	-0.342245	-1.035879
C74	C	0.865448	-0.342230	-0.970444
C75	C	0.905524	-0.302197	-0.937705
C76	C	0.905535	-0.302206	-0.138213
C77	C	0.905578	-0.302227	-0.068571
H78	H	0.666932	-0.374627	-0.374509
Cl79	Cl	0.479468	-0.174732	-0.290325
Cl80	Cl	0.995860	-0.211796	-0.525598
Cl81	Cl	0.130099	-0.392543	-0.392165
H82	H	0.346502	-0.404585	-0.310751
H83	H	0.263280	-0.229652	-0.228809
Cl84	Cl	0.277790	-0.392483	-0.392203
Cl85	Cl	0.130080	-0.211989	-0.211006
H86	H	0.832766	-0.659958	-0.374282
H87	H	0.548226	-0.374674	-0.374479
Cl88	Cl	1.032870	-0.291168	-0.727324
H89	H	0.978153	-0.229544	-0.658807
H90	H	0.803068	-0.311015	-0.860785
Cl91	Cl	1.032928	-0.291190	-0.875017
Cl92	Cl	0.479734	-0.429535	-0.313006
H93	H	0.978259	-0.229590	-0.943737
Cl94	Cl	0.916749	-0.728639	-0.174132
Cl95	Cl	0.331780	-0.174786	-0.290289
H96	H	0.548206	-0.229554	-0.228866
Cl97	Cl	0.681410	-0.211795	-0.211110
Cl98	Cl	0.996072	-0.211900	-1.076924
H99	H	0.978258	-0.541360	-0.228910
Cl100	Cl	0.815014	-0.930379	-0.391943
Cl101	Cl	0.996002	-0.674574	-0.211101
Cl102	Cl	0.996024	-0.930519	-0.211024
H103	H	0.914548	-0.861842	-0.199088
Cl104	Cl	0.996031	-1.078209	-0.210980
H105	H	0.896494	-0.861815	-0.403932
Cl106	Cl	0.778015	-0.313152	-0.727616
Cl107	Cl	0.815013	-1.078069	-0.391890
Cl108	Cl	0.815092	-0.392563	-1.077039
Cl109	Cl	0.814997	-0.526738	-0.392078
H110	H	0.832795	-0.374811	-0.943828
H111	H	0.896321	-0.743111	-0.403959
H112	H	0.832691	-0.374760	-0.658904
Cl113	Cl	0.814887	-0.392469	-0.525709
