data_functionalizedCrystal
_audit_creation_method	'MofGen! by Chris Wilmer'
_symmetry_space_group_name_H-M	'P1'
_symmetry_Int_Tables_number	1
_symmetry_cell_setting	triclinic
loop_
_symmetry_equiv_pos_as_xyz
  x,y,z
_cell_length_a	17.639617
_cell_length_b	29.839131
_cell_length_c	17.640968
_cell_angle_alpha	78.768609
_cell_angle_beta	70.333968
_cell_angle_gamma	101.225424
loop_
_atom_site_label
_atom_site_type_symbol
_atom_site_fract_x
_atom_site_fract_y
_atom_site_fract_z
Zn1	Zn	1.354425	0.059429	-0.721262
Zn2	Zn	1.326394	-0.034761	-0.583390
Zn3	Zn	1.188689	0.021352	-0.555522
Zn4	Zn	1.216484	-0.034717	-0.693273
O5	O	1.271498	0.002826	-0.638362
O6	O	1.466065	0.062852	-0.726350
O7	O	1.284765	-0.043271	-0.464344
O8	O	1.210773	0.089287	-0.577558
O9	O	1.445472	-0.006349	-0.625056
O10	O	1.332538	0.117263	-0.699327
O11	O	1.183593	-0.002045	-0.443869
O12	O	1.077017	-0.002003	-0.550418
O13	O	1.258145	-0.006275	-0.812335
O14	O	1.097438	-0.043197	-0.651623
O15	O	1.359490	0.062894	-0.832899
O16	O	1.311716	-0.097639	-0.597916
O17	O	1.230965	-0.097607	-0.678646
C18	C	1.057317	-0.026727	-0.594960
C19	C	0.965693	-0.039378	-0.576412
C20	C	0.718010	0.098972	-0.779474
C21	C	0.631912	0.087071	-0.762028
C22	C	0.610459	0.015086	-0.656399
C23	C	0.696558	0.026979	-0.673839
C24	C	0.750327	0.068923	-0.735376
C25	C	0.728874	-0.003069	-0.629741
C26	C	0.814965	0.008826	-0.647176
C27	C	0.868738	0.050768	-0.708709
C28	C	0.836417	0.080818	-0.752811
C29	C	0.675103	-0.045011	-0.568200
C30	C	0.707419	-0.075059	-0.524102
C31	C	0.793512	-0.063167	-0.541541
C32	C	0.847286	-0.021224	-0.603074
C33	C	0.825833	-0.093216	-0.497439
C34	C	0.911924	-0.081322	-0.514874
C35	C	0.933376	-0.009330	-0.620509
C36	C	1.271341	-0.113923	-0.638291
C37	C	1.271355	-0.163854	-0.638303
C38	C	1.313656	-0.473455	-0.596422
C39	C	1.313765	-0.661109	-0.596475
O40	O	1.349607	-0.685358	-0.560810
N41	N	1.271682	-0.684584	-0.638459
C42	C	1.229573	-0.661141	-0.680437
O43	O	1.193788	-0.685412	-0.716155
C44	C	1.229470	-0.473486	-0.680389
C45	C	1.271549	-0.450016	-0.638395
C46	C	1.355733	-0.449984	-0.554432
C47	C	1.355701	-0.403074	-0.554416
C48	C	1.313594	-0.379635	-0.596389
C49	C	1.271518	-0.403106	-0.638379
C50	C	1.187367	-0.450043	-0.722372
C51	C	1.187347	-0.403126	-0.722358
C52	C	1.229426	-0.379655	-0.680364
C53	C	1.229379	-0.332757	-0.680335
N54	N	1.271462	-0.309282	-0.638351
C55	C	1.313570	-0.332721	-0.596378
C56	C	1.229629	-0.759663	-0.680458
C57	C	1.229653	-0.806577	-0.680469
C58	C	1.313846	-0.806541	-0.596507
C59	C	1.313816	-0.759628	-0.596492
C60	C	1.271712	-0.736188	-0.638474
C61	C	1.313500	-0.234207	-0.596346
C62	C	1.313462	-0.187293	-0.596330
C63	C	1.229273	-0.187332	-0.680295
C64	C	1.229307	-0.234242	-0.680307
C65	C	1.271427	-0.257678	-0.638331
O66	O	1.193564	-0.308477	-0.715989
O67	O	1.349364	-0.308439	-0.560680
C68	C	1.313688	-0.520365	-0.596438
C69	C	1.271612	-0.543836	-0.638428
C70	C	1.229504	-0.520396	-0.680401
C71	C	1.271636	-0.590749	-0.638439
C72	C	1.313743	-0.614188	-0.596466
C73	C	1.355826	-0.590714	-0.554482
C74	C	1.355795	-0.543804	-0.554465
C75	C	1.187421	-0.543871	-0.722385
C76	C	1.187455	-0.590781	-0.722398
C77	C	1.229562	-0.614220	-0.680425
C78	C	1.486516	0.032494	-0.681934
C79	C	1.578144	0.045137	-0.700502
C80	C	1.315044	0.032562	-0.853362
C81	C	1.333601	0.045234	-0.944982
C82	C	1.271682	0.120036	-0.638456
C83	C	1.271760	0.169984	-0.638496
C84	C	1.130840	-0.093153	-1.192785
C85	C	1.148295	-0.081237	-1.278879
C86	C	1.253816	-0.009218	-1.300280
C87	C	1.236367	-0.021126	-1.214185
C88	C	1.174879	-0.063094	-1.160444
C89	C	1.280407	0.008933	-1.181844
C90	C	1.262962	-0.002976	-1.095757
C91	C	1.201479	-0.044943	-1.042010
C92	C	1.157435	-0.075003	-1.074356
C93	C	1.341898	0.050899	-1.235587
C94	C	1.385938	0.080958	-1.203246
C95	C	1.368490	0.069051	-1.117157
C96	C	1.307006	0.027084	-1.063411
C97	C	1.412533	0.099111	-1.084811
C98	C	1.395089	0.087202	-0.998724
C99	C	1.289562	0.015176	-0.977323
C100	C	1.228169	-0.026756	-0.424208
C101	C	1.209772	-0.039279	-0.332620
H102	H	0.938838	0.060453	-0.722901
N103	N	1.144402	-0.474007	-0.765285
N104	N	1.184027	-0.488888	-0.823717
H105	H	1.153682	-0.505812	-0.854029
N106	N	0.891360	0.123662	-0.815666
N107	N	0.968223	0.134275	-0.831220
H108	H	1.007027	0.164532	-0.875608
H109	H	1.348132	-0.825633	-0.562332
N110	N	0.770915	-0.136056	-0.434570
N111	N	0.765126	-0.142201	-0.360467
H112	H	0.726341	-0.172458	-0.316063
N113	N	1.356512	-0.258139	-0.553450
N114	N	1.335684	-0.264179	-0.476287
H115	H	1.366055	-0.281082	-0.445986
N116	N	1.094612	-0.117870	-1.019463
N117	N	1.055286	-0.144703	-1.048345
H118	H	1.010919	-0.174976	-1.009577
H119	H	0.938236	-0.105790	-0.478965
N120	N	1.226762	-0.027695	-0.922410
N121	N	1.211203	-0.038322	-0.845551
H122	H	1.166855	-0.068599	-0.806767
N123	N	1.475346	0.141972	-1.139724
N124	N	1.490921	0.152596	-1.216586
H125	H	1.535284	0.182867	-1.255370
H126	H	1.080751	-0.127319	-1.149021
N127	N	1.103277	-0.111941	-1.311897
N128	N	1.048367	-0.149404	-1.263898
H129	H	1.016566	-0.171085	-1.287214
H130	H	1.187281	-0.054639	-0.971914
N131	N	0.988297	0.033519	-0.683365
N132	N	0.977636	0.072918	-0.676096
H133	H	1.016424	0.103179	-0.720483
N134	N	0.652506	-0.117906	-0.461250
N135	N	0.681375	-0.144732	-0.421887
H136	H	0.642595	-0.174995	-0.377497
N137	N	1.316624	0.033646	-1.355191
N138	N	1.332196	0.044273	-1.432053
H139	H	1.376555	0.074547	-1.470834
H140	H	1.356101	0.060593	-1.305685
N141	N	1.398828	-0.614670	-0.511604
N142	N	1.398840	-0.656556	-0.511629
H143	H	1.429210	-0.673477	-0.481351
N144	N	1.356788	-0.735658	-0.553586
N145	N	1.335973	-0.752186	-0.476426
H146	H	1.366323	-0.735260	-0.446121
N147	N	1.448746	0.123821	-1.258157
N148	N	1.464318	0.134448	-1.335019
H149	H	1.508677	0.164722	-1.373800
H150	H	1.430949	0.111680	-0.972391
N151	N	0.555536	-0.027762	-0.593556
N152	N	0.566198	-0.067159	-0.600834
H153	H	0.527410	-0.097423	-0.556452
H154	H	1.347727	-0.168186	-0.562131
N155	N	1.144350	-0.379180	-0.765256
N156	N	1.165173	-0.373135	-0.842419
H157	H	1.134807	-0.356224	-0.872716
N158	N	0.772931	0.141816	-0.842341
N159	N	0.744070	0.168642	-0.881715
H160	H	0.782857	0.198901	-0.926111
H161	H	0.605605	0.111544	-0.797938
H162	H	0.605000	-0.054686	-0.553988
N163	N	1.186304	-0.258226	-0.723178
N164	N	1.109117	-0.264299	-0.702229
H165	H	1.078749	-0.281235	-0.732510
N166	N	1.398690	-0.379110	-0.511517
N167	N	1.436281	-0.400050	-0.474049
H168	H	1.466646	-0.383128	-0.443751
N169	N	1.398757	-0.473914	-0.511555
N170	N	1.436321	-0.452942	-0.474074
H171	H	1.466706	-0.469840	-0.443784
H172	H	1.195340	-0.740582	-0.714645
N173	N	1.186647	-0.830554	-0.723341
N174	N	1.109462	-0.836617	-0.702394
H175	H	1.079089	-0.853549	-0.732676
N176	N	1.186275	-0.163375	-0.723170
N177	N	1.225876	-0.125902	-0.781574
H178	H	1.195513	-0.108979	-0.811858
N179	N	1.398780	-0.519840	-0.511562
N180	N	1.436368	-0.540782	-0.474092
H181	H	1.466729	-0.523861	-0.443789
H182	H	1.153182	-0.609888	-0.756592
H183	H	1.153133	-0.524790	-0.756566
