data_functionalizedCrystal
_audit_creation_method	'MofGen! by Chris Wilmer'
_symmetry_space_group_name_H-M	'P1'
_symmetry_Int_Tables_number	1
_symmetry_cell_setting	triclinic
loop_
_symmetry_equiv_pos_as_xyz
  x,y,z
_cell_length_a	14.560438
_cell_length_b	14.560438
_cell_length_c	14.560438
_cell_angle_alpha	60.000905
_cell_angle_beta	90.002385
_cell_angle_gamma	60.001166
loop_
_atom_site_label
_atom_site_type_symbol
_atom_site_fract_x
_atom_site_fract_y
_atom_site_fract_z
Zr1	Zr	0.884751	1.005292	-0.120493
O2	O	0.738102	1.196893	-0.267140
O3	O	0.929707	0.813691	-0.075540
O4	O	0.929703	1.005295	-0.267141
O5	O	0.738110	1.005286	0.075601
O6	O	1.080841	1.005298	-0.267138
O7	O	0.738106	1.005289	-0.075540
O8	O	1.080849	0.662553	0.075600
O9	O	0.738102	1.348031	-0.267138
O10	O	1.061673	0.892501	-0.056364
O11	O	0.948883	0.892497	0.056429
O12	O	0.948878	1.118086	-0.169156
O13	O	0.836088	1.118083	-0.056363
Zr14	Zr	1.125806	1.005292	0.120563
Zr15	Zr	1.125800	1.005296	-0.120489
Zr16	Zr	0.884758	1.005288	0.120559
Zr17	Zr	0.884752	1.246340	-0.120488
Zr18	Zr	1.125805	0.764244	0.120559
O19	O	1.080850	1.196893	0.075610
O20	O	1.080841	1.196898	-0.267135
O21	O	0.738111	1.196887	0.075605
O22	O	1.272455	0.813691	0.267210
O23	O	1.272446	0.813697	-0.075535
O24	O	0.929716	0.813685	0.267205
O25	O	1.272447	1.005298	-0.075531
O26	O	1.080854	1.005289	0.267211
O27	O	0.929716	1.005286	0.267209
O28	O	1.272451	1.005295	0.075610
O29	O	0.929703	1.348034	-0.267134
O30	O	1.080854	0.662550	0.267205
O31	O	1.272455	0.662553	0.267208
O32	O	1.272450	0.662557	0.075603
O33	O	0.738107	1.348027	-0.075533
O34	O	0.929708	1.348031	-0.075530
O35	O	1.061679	0.892498	0.169226
O36	O	1.174469	0.892501	0.056433
O37	O	1.061674	1.118086	-0.056359
O38	O	0.948884	1.118083	0.056434
C39	C	1.005278	0.703778	0.000029
C40	C	1.005278	0.601447	0.000027
C41	C	1.064151	0.553373	-0.058849
C42	C	1.064155	0.457214	-0.058839
C43	C	0.946405	0.457215	0.058927
C44	C	0.946408	0.553366	0.058922
C45	C	0.703764	1.005287	0.000030
C46	C	0.601433	1.005285	0.000029
C47	C	0.612232	0.887534	0.058905
C48	C	0.516077	0.887540	0.058915
C49	C	0.398327	1.123059	-0.058836
C50	C	0.494481	1.123051	-0.058839
C51	C	0.719185	0.769768	0.117772
C52	C	0.729989	0.652007	0.176652
C53	C	0.633834	0.652014	0.176662
C54	C	0.526875	0.769780	0.117793
C55	C	1.306793	1.005297	0.000040
C56	C	1.409124	1.005299	0.000042
C57	C	1.005271	1.005297	-0.301484
C58	C	1.005268	1.005299	-0.403817
C59	C	1.005279	1.306806	0.000041
C60	C	1.005279	1.409137	0.000043
C61	C	0.946392	1.123050	-0.510770
C62	C	0.946405	1.123044	-0.606919
C63	C	1.064173	0.887525	-0.489149
C64	C	1.064166	0.887533	-0.393002
C65	C	1.005286	1.005287	0.301555
C66	C	1.005289	1.005285	0.403887
C67	C	1.306792	0.703783	0.000034
C68	C	1.409123	0.601454	0.000034
C69	C	1.005286	0.703773	0.301549
C70	C	1.005288	0.601440	0.403880
C71	C	1.306800	0.703778	0.301554
C72	C	1.409134	0.601447	0.403886
C73	C	0.703757	1.306806	-0.301484
C74	C	0.601424	1.409137	-0.403816
C75	C	0.703765	1.306801	0.000036
C76	C	0.601434	1.409130	0.000036
C77	C	1.005272	1.306811	-0.301479
C78	C	1.005269	1.409144	-0.403810
C79	C	1.398323	0.553377	-0.058842
C80	C	1.494478	0.457236	-0.058846
C81	C	1.612229	0.457253	0.058911
C82	C	1.516076	0.553399	0.058908
C83	C	1.064166	0.553362	0.510834
C84	C	1.064156	0.457219	0.606981
C85	C	0.946387	0.457236	0.489206
C86	C	0.946392	0.553384	0.393062
C87	C	1.516085	0.553372	0.393089
C88	C	1.612235	0.457229	0.489245
C89	C	1.494467	0.457243	0.606993
C90	C	1.398320	0.553390	0.510838
H91	H	1.112088	0.592517	-0.106803
H92	H	1.311242	0.592512	-0.106793
N93	N	0.482853	1.250045	-0.122337
H94	H	0.440389	1.301526	-0.091450
H95	H	0.440408	1.301433	-0.204691
H96	H	1.112096	0.418073	-0.106780
H97	H	1.524878	0.592548	0.106852
N98	N	0.882917	1.250060	-0.722266
H99	H	0.800548	1.301551	-0.731289
H100	H	0.891945	1.232104	-0.781479
H101	H	1.699317	0.418090	0.480446
N102	N	0.882911	0.405356	0.122446
H103	H	0.891840	0.337151	0.113514
H104	H	0.800573	0.478788	0.091534
N105	N	0.882886	0.605288	0.277675
H106	H	0.823656	0.701806	0.235189
H107	H	0.845634	0.560188	0.285464
H108	H	1.112119	0.592491	0.519649
N109	N	0.882917	0.605215	0.122439
H110	H	0.845617	0.560172	0.159744
H111	H	0.823725	0.701735	0.068380
N112	N	1.482802	0.405396	0.722344
H113	H	1.440328	0.478754	0.731351
H114	H	1.559974	0.337169	0.781553
N115	N	1.127658	0.405364	0.722339
H116	H	1.164966	0.450400	0.714597
H117	H	1.186844	0.308843	0.764797
N118	N	0.882874	0.405396	0.477541
H119	H	0.891808	0.337186	0.554676
H120	H	0.913791	0.365582	0.435019
N121	N	1.727587	0.405411	0.122408
H122	H	1.770107	0.308895	0.181661
H123	H	1.719746	0.450553	0.159632
N124	N	0.822892	0.769762	0.117752
H125	H	0.892285	0.677294	0.163975
H126	H	0.822854	0.816046	0.151236
N127	N	1.527743	0.605190	0.277735
H128	H	1.610089	0.560137	0.285490
H129	H	1.490417	0.701711	0.235255
H130	H	1.311229	0.592537	0.519638
N131	N	0.423151	0.769815	0.117768
H132	H	0.376871	0.816055	0.151269
H133	H	0.446293	0.677323	0.163974
N134	N	0.845342	0.524993	0.240155
H135	H	0.904618	0.542854	0.231215
H136	H	0.854232	0.473575	0.209239
H137	H	0.311236	1.218939	-0.106768
N138	N	0.645479	0.525010	0.240174
H139	H	0.727824	0.450411	0.277464
H140	H	0.608137	0.519889	0.186113
H141	H	1.112123	0.791644	-0.480357
N142	N	0.882875	1.250062	-0.522429
H143	H	0.845581	1.324655	-0.604776
H144	H	0.936933	1.255195	-0.485098
N145	N	1.127680	0.760524	-0.277635
H146	H	1.164986	0.685918	-0.285371
H147	H	1.073619	0.755393	-0.235177
N148	N	1.482831	0.405388	-0.122357
H149	H	1.400487	0.450426	-0.159653
H150	H	1.520167	0.308867	-0.068299
