data_functionalizedCrystal
_audit_creation_method	'MofGen! by Chris Wilmer'
_symmetry_space_group_name_H-M	'P1'
_symmetry_Int_Tables_number	1
_symmetry_cell_setting	triclinic
loop_
_symmetry_equiv_pos_as_xyz
  x,y,z
_cell_length_a	10.654562
_cell_length_b	9.130313
_cell_length_c	10.654550
_cell_angle_alpha	89.998390
_cell_angle_beta	95.512497
_cell_angle_gamma	90.006014
loop_
_atom_site_label
_atom_site_type_symbol
_atom_site_fract_x
_atom_site_fract_y
_atom_site_fract_z
O1	O	1.667830	0.121892	-0.176471
O2	O	1.302353	0.121873	-0.193261
O3	O	1.493495	0.121877	-0.002127
O4	O	1.476689	0.121887	-0.367605
O5	O	1.493482	-0.121721	-0.002128
O6	O	1.302341	-0.121726	-0.193261
O7	O	1.667817	-0.121707	-0.176472
Cu8	Cu	1.485078	-0.143959	-0.184867
Cu9	Cu	1.485093	0.144125	-0.184866
O10	O	1.476676	-0.121711	-0.367606
C11	C	1.255549	0.000071	-0.192025
C12	C	1.116107	0.000064	-0.188327
N13	N	1.485077	-0.346582	-0.184867
C14	C	1.569750	-0.576570	-0.100253
C15	C	1.569740	-0.423233	-0.100261
C16	C	1.400426	-0.423275	-0.269479
C17	C	1.400443	-0.576609	-0.269476
C18	C	1.654411	-0.653213	-0.015634
C19	C	1.739063	-0.576530	0.068977
C20	C	1.739053	-0.423193	0.068970
C21	C	1.654391	-0.346539	-0.015649
C22	C	1.050569	-0.132710	-0.186602
C23	C	0.919547	-0.132686	-0.183137
C24	C	0.919611	0.132899	-0.183127
C25	C	1.050632	0.132873	-0.186583
C26	C	1.116044	-0.265519	-0.188346
C27	C	1.050506	-0.398304	-0.186623
C28	C	0.919484	-0.398280	-0.183158
C29	C	0.854000	-0.265470	-0.181416
C30	C	1.714621	0.000098	-0.177708
C31	C	1.854064	0.000115	-0.181406
C32	C	1.492254	0.000080	0.044671
C33	C	1.488563	0.000085	0.184114
N34	N	1.485104	0.346748	-0.184856
C35	C	1.477916	0.000090	-0.414403
C36	C	1.481608	0.000094	-0.553847
C37	C	1.601103	0.000086	0.263595
C38	C	1.597627	0.000096	0.394615
C39	C	1.369059	0.000097	0.366662
C40	C	1.372537	0.000098	0.235644
C41	C	1.717129	0.000073	0.212064
C42	C	1.829680	0.000072	0.291546
C43	C	1.826203	0.000083	0.422567
C44	C	1.710176	0.000093	0.474106
H45	H	1.808000	-0.638949	0.137864
H46	H	1.103993	0.240990	-0.187993
O47	O	1.263299	-0.000104	0.158303
C48	C	1.258448	-0.126282	0.081702
H49	H	1.358189	-0.168344	0.074211
H50	H	1.200702	-0.214627	0.125297
C51	C	1.073916	-0.036295	-0.041544
C52	C	1.196422	-0.087949	-0.050753
H53	H	1.035651	-0.012653	-0.123247
H54	H	1.077181	0.048711	0.010066
H55	H	1.025810	-0.109924	-0.005210
H56	H	1.244529	-0.014313	-0.087071
H57	H	1.193163	-0.172942	-0.102372
O58	O	1.654628	-0.802162	-0.015496
C59	C	1.747476	-0.853371	0.077353
H60	H	1.822093	-0.764993	0.098562
H61	H	1.701871	-0.880583	0.167020
C62	C	1.718064	-1.100479	0.002950
C63	C	1.809714	-0.991936	0.028992
H64	H	1.756452	-1.185956	-0.026878
H65	H	1.655506	-1.065980	-0.059602
H66	H	1.680067	-1.123137	0.077679
H67	H	1.847698	-0.969266	-0.045740
H68	H	1.872280	-1.026434	0.091530
H69	H	1.331496	-0.360854	-0.338371
H70	H	1.917847	0.000097	0.487279
H71	H	1.807988	-0.360759	0.137854
O72	O	1.256466	0.000031	0.416932
C73	C	1.277530	0.000065	0.549616
H74	H	1.375269	-0.046049	0.579519
H75	H	1.271133	0.116931	0.586135
C76	C	1.057106	-0.038834	0.568101
C77	C	1.177147	-0.095484	0.604829
H78	H	0.995182	-0.097766	0.602161
H79	H	1.042913	-0.038851	0.478710
H80	H	1.051793	0.058553	0.598536
H81	H	1.182463	-0.192861	0.574381
H82	H	1.191339	-0.095485	0.694217
H83	H	0.747313	-0.265461	-0.178592
H84	H	1.654398	-0.221682	-0.015657
H85	H	1.103834	-0.506432	-0.188031
H86	H	1.331518	-0.639045	-0.338369
H87	H	1.222729	-0.265554	-0.191171
H88	H	0.866128	-0.506400	-0.181745
H89	H	0.866283	0.241026	-0.181712
H90	H	1.719973	0.000060	0.105382
H91	H	1.924144	0.000101	0.249574
H92	H	1.707355	0.000117	0.580794
