data_functionalizedCrystal
_audit_creation_method	'MofGen! by Chris Wilmer'
_symmetry_space_group_name_H-M	'P1'
_symmetry_Int_Tables_number	1
_symmetry_cell_setting	triclinic
loop_
_symmetry_equiv_pos_as_xyz
  x,y,z
_cell_length_a	11.792241
_cell_length_b	10.268362
_cell_length_c	19.288864
_cell_angle_alpha	90.023129
_cell_angle_beta	96.335166
_cell_angle_gamma	89.999574
loop_
_atom_site_label
_atom_site_type_symbol
_atom_site_fract_x
_atom_site_fract_y
_atom_site_fract_z
O1	O	1.505466	-0.108242	-0.095196
O2	O	1.174976	-0.108279	-0.105008
O3	O	1.349770	-0.108179	0.000974
O4	O	1.330671	-0.108342	-0.201178
O5	O	1.349754	0.108422	0.000971
O6	O	1.174959	0.108321	-0.105011
O7	O	1.505449	0.108359	-0.095200
Cu8	Cu	1.340202	0.128117	-0.100106
Cu9	Cu	1.340222	-0.128038	-0.100102
O10	O	1.330654	0.108259	-0.201182
C11	C	1.132686	0.000018	-0.104393
C12	C	1.006700	0.000008	-0.102548
N13	N	1.340197	0.308283	-0.100108
N14	N	1.340237	-0.308204	-0.100094
C15	C	0.776039	0.000048	-0.099156
C16	C	0.904396	0.000026	-0.101041
C17	C	1.547739	0.000059	-0.095814
C18	C	1.673725	0.000061	-0.097659
C19	C	1.340205	0.426126	-0.100109
C20	C	1.340219	0.573964	-0.100103
C21	C	1.331277	-0.000062	-0.227060
C22	C	1.333122	-0.000124	-0.304174
C23	C	1.230561	-0.000110	-0.348287
C24	C	1.232294	-0.000080	-0.420744
C25	C	1.336594	-0.000039	-0.449084
C26	C	1.439169	-0.000061	-0.404961
C27	C	1.437433	-0.000104	-0.332506
C28	C	1.418580	0.075924	-0.557801
C29	C	1.420311	0.075975	-0.630256
C30	C	1.341953	0.000087	-0.672560
C31	C	1.261843	-0.075835	-0.642403
C32	C	1.260107	-0.075878	-0.569948
C33	C	1.338488	0.000007	-0.527649
C34	C	1.241264	0.000132	-0.795241
C35	C	1.243001	0.000154	-0.867699
C36	C	1.449880	0.000186	-0.851914
C37	C	1.448139	0.000151	-0.779457
C38	C	1.343828	0.000130	-0.751125
C39	C	1.349147	0.000139	0.026852
C40	C	1.347303	0.000192	0.103966
H41	H	1.145622	-0.000138	-0.325225
Cl42	Cl	1.520961	0.171497	-0.668165
H43	H	1.148773	-0.000065	-0.456669
H44	H	1.524091	-0.000051	-0.428040
Cl45	Cl	1.110133	0.000098	-0.759620
H46	H	1.194881	-0.137697	-0.545397
H47	H	1.520954	-0.000117	-0.296588
H48	H	1.198030	-0.137622	-0.676847
H49	H	1.159480	0.000157	-0.903616
Cl50	Cl	1.581002	0.000224	-0.887534
H51	H	1.531656	0.000147	-0.743539
H52	H	1.482398	0.137719	-0.523361
