data_functionalizedCrystal
_audit_creation_method	'MofGen! by Chris Wilmer'
_symmetry_space_group_name_H-M	'P1'
_symmetry_Int_Tables_number	1
_symmetry_cell_setting	triclinic
loop_
_symmetry_equiv_pos_as_xyz
  x,y,z
_cell_length_a	15.995292
_cell_length_b	19.188924
_cell_length_c	15.072220
_cell_angle_alpha	89.996779
_cell_angle_beta	89.986330
_cell_angle_gamma	83.305290
loop_
_atom_site_label
_atom_site_type_symbol
_atom_site_fract_x
_atom_site_fract_y
_atom_site_fract_z
O1	O	1.110695	0.089798	-0.073811
O2	O	1.610695	0.589798	0.426189
O3	O	0.866872	0.100954	-0.073808
O4	O	1.366872	0.600954	0.426192
O5	O	0.995822	-0.006263	-0.073799
O6	O	1.495822	0.493737	0.426201
O7	O	0.981744	0.197016	-0.073819
O8	O	1.481744	0.697016	0.426181
O9	O	0.995791	-0.006257	0.073766
O10	O	1.495791	0.493743	0.573766
O11	O	0.866840	0.100960	0.073757
O12	O	1.366840	0.600960	0.573757
O13	O	1.110663	0.089804	0.073755
O14	O	1.610663	0.589804	0.573755
Zn15	Zn	0.988746	0.095383	0.097185
Zn16	Zn	1.488746	0.595383	0.597185
Zn17	Zn	0.988788	0.095375	-0.097238
Zn18	Zn	1.488788	0.595375	0.402762
O19	O	0.981712	0.197022	0.073746
O20	O	1.481712	0.697022	0.573746
C21	C	0.835662	0.100503	-0.000025
C22	C	1.335662	0.600503	0.499975
C23	C	0.742714	0.099142	-0.000023
C24	C	1.242714	0.599142	0.499977
C25	C	0.404994	0.094138	-0.000033
C26	C	0.904994	0.594138	0.499967
C27	C	0.428021	0.171524	-0.000370
C28	C	0.928021	0.671524	0.499630
C29	C	0.524691	0.172995	-0.000034
C30	C	1.024691	0.672995	0.499966
C31	C	0.572541	0.096621	-0.000028
C32	C	1.072541	0.596621	0.499972
C33	C	0.543563	0.057935	0.084240
C34	C	1.043563	0.557935	0.584240
C35	C	0.446776	0.057003	0.084306
C36	C	0.946776	0.557003	0.584306
C37	C	0.446963	0.055416	-0.083503
C38	C	0.946963	0.555416	0.416497
C39	C	0.543445	0.058284	-0.084613
C40	C	1.043445	0.558284	0.415387
C41	C	0.667232	0.098020	-0.000023
C42	C	1.167232	0.598020	0.499977
C43	C	0.310303	0.092736	-0.000032
C44	C	0.810303	0.592736	0.499968
C45	C	0.995351	-0.032272	-0.000015
C46	C	1.495351	0.467728	0.499985
C47	C	0.993986	-0.109780	-0.000013
C48	C	1.493986	0.390220	0.499987
C49	C	0.993366	-0.146184	-0.080451
C50	C	1.493366	0.353816	0.419549
C51	C	0.992071	-0.219010	-0.080458
C52	C	1.492071	0.280990	0.419542
C53	C	0.991412	-0.255431	-0.000022
C54	C	1.491412	0.244569	0.499978
C55	C	0.992028	-0.219018	0.080427
C56	C	1.492028	0.280982	0.580427
C57	C	0.993315	-0.146192	0.080431
C58	C	1.493315	0.353808	0.580431
N59	N	1.037029	-0.374983	0.059844
N60	N	1.537029	0.125017	0.559844
N61	N	1.035808	-0.444164	0.059834
N62	N	1.535808	0.055836	0.559834
C63	C	0.987534	-0.474849	-0.000030
C64	C	1.487534	0.025151	0.499970
N65	N	0.940537	-0.433740	-0.059899
N66	N	1.440537	0.066260	0.440101
N67	N	0.941761	-0.364553	-0.059891
N68	N	1.441761	0.135447	0.440109
C69	C	0.990017	-0.334397	-0.000018
C70	C	1.490017	0.165603	0.499982
C71	C	0.985508	-0.590219	-0.080481
C72	C	1.485508	-0.090219	0.419519
C73	C	0.984208	-0.663045	-0.080485
C74	C	1.484208	-0.163045	0.419515
C75	C	0.984174	-0.663053	0.080402
C76	C	1.484174	-0.163053	0.580402
C77	C	0.985466	-0.590227	0.080403
C78	C	1.485466	-0.090227	0.580403
C79	C	0.986137	-0.553814	-0.000041
C80	C	1.486137	-0.053814	0.499959
C81	C	1.141873	0.090255	-0.000031
C82	C	1.641873	0.590255	0.499969
C83	C	1.234821	0.091617	-0.000038
C84	C	1.734821	0.591617	0.499962
C85	C	0.982183	0.223031	-0.000040
C86	C	1.482183	0.723031	0.499960
C87	C	0.983549	0.300539	-0.000048
C88	C	1.483549	0.800539	0.499952
N89	N	0.988724	0.095388	0.229874
N90	N	1.488724	0.595388	0.729874
N91	N	0.988817	0.095365	-0.229927
N92	N	1.488817	0.595365	0.270073
C93	C	0.988786	0.095373	0.589075
C94	C	1.488786	0.595373	1.089075
C95	C	0.919557	0.152550	0.551464
C96	C	1.419557	0.652550	1.051464
C97	C	0.919715	0.152759	0.448638
C98	C	1.419715	0.652759	0.948638
C99	C	0.988755	0.095380	0.410871
C100	C	1.488755	0.595380	0.910871
C101	C	1.076063	0.111277	0.448160
C102	C	1.576063	0.611277	0.948160
C103	C	1.075675	0.111683	0.551017
C104	C	1.575675	0.611683	1.051017
C105	C	0.971487	0.022129	0.551184
C106	C	1.471487	0.522129	1.051184
C107	C	0.969480	0.022618	0.448320
C108	C	1.469480	0.522618	0.948320
C109	C	0.988742	0.095383	0.310158
C110	C	1.488742	0.595383	0.810158
C111	C	0.988805	0.095371	0.689789
C112	C	1.488805	0.595371	1.189789
H113	H	0.398879	0.201190	0.059717
H114	H	0.898879	0.701190	0.559717
H115	H	0.930422	0.206597	0.577296
H116	H	1.430422	0.706597	1.077296
C117	C	0.986162	-0.550182	0.168886
C118	C	1.486162	-0.050182	0.668886
H119	H	0.985592	-0.582302	0.216791
H120	H	1.485592	-0.082302	0.716791
H121	H	0.937848	-0.516437	0.172235
H122	H	1.437848	-0.016437	0.672235
H123	H	1.035489	-0.527111	0.172227
H124	H	1.535489	-0.027111	0.672227
H125	H	0.576622	0.002538	-0.089698
H126	H	1.076622	0.502538	0.410302
H127	H	1.091721	0.164083	0.422385
H128	H	1.591721	0.664083	0.922385
C129	C	0.986236	-0.550158	-0.168961
C130	C	1.486236	-0.050158	0.331039
H131	H	0.987103	-0.501572	-0.157439
H132	H	1.487103	-0.001572	0.342561
H133	H	0.937214	-0.556754	-0.202013
H134	H	1.437214	-0.056754	0.297987
H135	H	1.034855	-0.567428	-0.202013
H136	H	1.534855	-0.067428	0.297987
C137	C	0.983524	-0.703092	-0.168969
C138	C	1.483524	-0.203092	0.331031
H139	H	0.982651	-0.751679	-0.157452
H140	H	1.482651	-0.251679	0.342548
H141	H	1.032562	-0.696493	-0.202017
H142	H	1.532562	-0.196493	0.297983
H143	H	0.934922	-0.685818	-0.202021
H144	H	1.434922	-0.185818	0.297979
H145	H	0.991561	-0.248655	-0.145962
H146	H	1.491561	0.251345	0.354038
H147	H	0.930734	0.207112	0.424018
H148	H	1.430734	0.707112	0.924018
C149	C	1.147308	0.056521	0.415106
C150	C	1.647308	0.556521	0.915106
H151	H	1.124385	0.023402	0.378179
H152	H	1.624385	0.523402	0.878179
H153	H	1.174620	0.033010	0.464481
H154	H	1.674620	0.533010	0.964481
H155	H	1.186868	0.079373	0.382246
H156	H	1.686868	0.579373	0.882246
C157	C	0.832029	0.139981	0.414578
C158	C	1.332029	0.639981	0.914578
H159	H	0.795989	0.134618	0.463605
H160	H	1.295989	0.634618	0.963605
H161	H	0.836776	0.098610	0.379445
H162	H	1.336776	0.598610	0.879445
H163	H	0.809217	0.178846	0.379685
H164	H	1.309217	0.678846	0.879685
C165	C	0.550263	0.213930	-0.081629
C166	C	1.050263	0.713930	0.418371
H167	H	0.501528	0.229811	-0.115280
H168	H	1.001528	0.729811	0.384720
H169	H	0.588175	0.184136	-0.117280
H170	H	1.088175	0.684136	0.382720
H171	H	0.576849	0.253113	-0.062662
H172	H	1.076849	0.753113	0.437338
H173	H	0.993910	-0.116541	-0.145955
H174	H	1.493910	0.383459	0.354045
H175	H	0.909219	0.006840	0.577177
H176	H	1.409219	0.506840	1.077177
C177	C	0.994005	-0.106148	0.168917
C178	C	1.494005	0.393852	0.668917
H179	H	0.993431	-0.138267	0.216823
H180	H	1.493431	0.361733	0.716823
H181	H	0.945692	-0.072401	0.172263
H182	H	1.445692	0.427599	0.672263
H183	H	1.043332	-0.083078	0.172259
H184	H	1.543332	0.416922	0.672259
C185	C	0.390060	0.211824	-0.082000
C186	C	0.890060	0.711824	0.418000
H187	H	0.359822	0.181819	-0.116606
H188	H	0.859822	0.681819	0.383394
H189	H	0.433969	0.227226	-0.116700
H190	H	0.933969	0.727226	0.383300
H191	H	0.352948	0.251286	-0.063050
H192	H	0.852948	0.751286	0.436950
H193	H	0.575639	0.001734	0.087377
H194	H	1.075639	0.501734	0.587377
H195	H	1.090960	0.165099	0.574993
H196	H	1.590960	0.665099	1.074993
H197	H	0.433180	-0.001546	-0.084068
H198	H	0.933180	0.498454	0.415932
C199	C	1.033205	-0.037555	0.413609
C200	C	1.533205	0.462445	0.913609
H201	H	1.072578	-0.019006	0.375658
H202	H	1.572578	0.480994	0.875658
H203	H	1.004271	-0.069963	0.381502
H204	H	1.504271	0.430037	0.881502
H205	H	1.062100	-0.060809	0.462261
H206	H	1.562100	0.439191	0.962261
C207	C	1.147334	0.057564	0.584631
C208	C	1.647334	0.557564	1.084631
H209	H	1.176558	0.035432	0.535422
H210	H	1.676558	0.535432	1.035422
H211	H	1.124438	0.023258	0.619665
H212	H	1.624438	0.523258	1.119665
H213	H	1.185226	0.080621	0.619531
H214	H	1.685226	0.580621	1.119531
H215	H	0.991490	-0.248676	0.145918
H216	H	1.491490	0.251324	0.645918
H217	H	0.419847	0.083801	0.147294
H218	H	0.919847	0.583801	0.647294
C219	C	0.549395	0.214168	0.081705
C220	C	1.049395	0.714168	0.581705
H221	H	0.608628	0.215214	0.082186
H222	H	1.108628	0.715214	0.582186
H223	H	0.532868	0.191927	0.134122
H224	H	1.032868	0.691927	0.634122
H225	H	0.521936	0.260773	0.079226
H226	H	1.021936	0.760773	0.579226
H227	H	0.905257	0.010554	0.423950
H228	H	1.405257	0.510554	0.923950
H229	H	0.561924	0.086451	-0.146954
H230	H	1.061924	0.586451	0.353046
H231	H	0.432435	0.000263	0.088138
H232	H	0.932435	0.500263	0.588138
C233	C	1.039684	-0.035353	0.584046
C234	C	1.539684	0.464647	1.084046
H235	H	1.078516	-0.014855	0.620681
H236	H	1.578516	0.485145	1.120681
H237	H	1.068549	-0.057405	0.534582
H238	H	1.568549	0.442595	1.034582
H239	H	1.014057	-0.069255	0.617169
H240	H	1.514057	0.430745	1.117169
C241	C	0.570497	0.094232	0.168957
C242	C	1.070497	0.594232	0.668957
H243	H	0.552676	0.070435	0.219599
H244	H	1.052676	0.570435	0.719599
H245	H	0.545404	0.141600	0.169709
H246	H	1.045404	0.641600	0.669709
H247	H	0.630033	0.093042	0.169834
H248	H	1.130033	0.593042	0.669834
C249	C	0.408696	0.088163	-0.169788
C250	C	0.908696	0.588163	0.330212
H251	H	0.366762	0.125761	-0.155711
H252	H	0.866762	0.625761	0.344289
H253	H	0.384069	0.053588	-0.202692
H254	H	0.884069	0.553588	0.297308
H255	H	0.451654	0.105361	-0.204185
H256	H	0.951654	0.605361	0.295815
C257	C	0.983443	-0.703107	0.168880
C258	C	1.483443	-0.203107	0.668880
H259	H	0.982590	-0.751693	0.157358
H260	H	1.482590	-0.251693	0.657358
H261	H	0.934829	-0.685836	0.201930
H262	H	1.434829	-0.185836	0.701930
H263	H	1.032469	-0.696511	0.201934
H264	H	1.532469	-0.196511	0.701934
C265	C	0.831588	0.139980	0.584925
C266	C	1.331588	0.639980	1.084925
H267	H	0.836290	0.099752	0.622139
H268	H	1.336290	0.599752	1.122139
H269	H	0.796527	0.132689	0.535731
H270	H	1.296527	0.632689	1.035731
H271	H	0.807682	0.179744	0.617573
H272	H	1.307682	0.679744	1.117573
