data_functionalizedCrystal
_audit_creation_method	'MofGen! by Chris Wilmer'
_symmetry_space_group_name_H-M	'P1'
_symmetry_Int_Tables_number	1
_symmetry_cell_setting	triclinic
loop_
_symmetry_equiv_pos_as_xyz
  x,y,z
_cell_length_a	9.065218
_cell_length_b	10.489741
_cell_length_c	8.140239
_cell_angle_alpha	89.996756
_cell_angle_beta	89.997198
_cell_angle_gamma	84.777530
loop_
_atom_site_label
_atom_site_type_symbol
_atom_site_fract_x
_atom_site_fract_y
_atom_site_fract_z
O1	O	1.959494	0.187043	-0.136617
O2	O	2.459494	0.687043	0.363383
O3	O	1.530135	0.202385	-0.136619
O4	O	2.030135	0.702385	0.363381
O5	O	1.754585	0.009151	-0.136608
O6	O	2.254585	0.509151	0.363392
O7	O	1.735045	0.380276	-0.136628
O8	O	2.235045	0.880276	0.363372
O9	O	1.754572	0.009149	0.136619
O10	O	2.254572	0.509149	0.636619
O11	O	1.530123	0.202383	0.136608
O12	O	2.030123	0.702383	0.636608
O13	O	1.959482	0.187040	0.136610
O14	O	2.459482	0.687040	0.636610
Zn15	Zn	1.744800	0.194711	0.179990
Zn16	Zn	2.244800	0.694711	0.679990
Zn17	Zn	1.744817	0.194714	-0.179999
Zn18	Zn	2.244817	0.694714	0.320001
O19	O	1.735032	0.380274	0.136599
O20	O	2.235032	0.880274	0.636599
C21	C	1.475149	0.200909	-0.000006
C22	C	1.975149	0.700909	0.499994
C23	C	1.311328	0.196501	-0.000006
C24	C	1.811328	0.696501	0.499994
C25	C	1.753102	-0.038387	0.000004
C26	C	2.253102	0.461613	0.500004
C27	C	1.748687	-0.180032	0.000001
C28	C	2.248687	0.319968	0.500001
C29	C	1.605877	-0.248688	-0.000011
C30	C	2.105877	0.251312	0.499989
C31	C	1.673333	-0.340568	0.134704
C32	C	2.173333	0.159432	0.634704
C33	C	1.673379	-0.340540	-0.134676
C34	C	2.173379	0.159460	0.365324
C35	C	1.816202	-0.270047	0.134828
C36	C	2.316202	0.229953	0.634828
C37	C	1.816228	-0.270009	-0.134673
C38	C	2.316228	0.229991	0.365327
C39	C	1.883788	-0.361862	0.000075
C40	C	2.383788	0.138138	0.500075
C41	C	2.014467	0.188516	-0.000007
C42	C	2.514467	0.688516	0.499993
C43	C	2.178289	0.192925	-0.000017
C44	C	2.678289	0.692925	0.499983
C45	C	1.736514	0.427812	-0.000017
C46	C	2.236514	0.927812	0.499983
C47	C	1.740930	0.569458	-0.000025
C48	C	2.240930	1.069458	0.499975
N49	N	1.744800	0.194708	0.425672
N50	N	2.244800	0.694708	0.925672
N51	N	1.744829	0.194707	-0.425681
N52	N	2.244829	0.694707	0.074319
H53	H	1.488459	-0.199461	0.000124
H54	H	1.988459	0.300539	0.500124
F55	F	2.037398	-0.425911	0.000169
F56	F	2.537398	0.074089	0.500169
H57	H	1.612940	-0.371722	-0.248579
H58	H	2.112940	0.128278	0.251421
F59	F	1.594348	-0.381390	0.283570
F60	F	2.094348	0.118610	0.783570
F61	F	1.895152	-0.229143	-0.283546
F62	F	2.395152	0.270857	0.216454
F63	F	1.895114	-0.229469	0.283858
F64	F	2.395114	0.270531	0.783858
