data_functionalizedCrystal
_audit_creation_method	'MofGen! by Chris Wilmer'
_symmetry_space_group_name_H-M	'P1'
_symmetry_Int_Tables_number	1
_symmetry_cell_setting	triclinic
loop_
_symmetry_equiv_pos_as_xyz
  x,y,z
_cell_length_a	10.654550
_cell_length_b	16.098524
_cell_length_c	10.654551
_cell_angle_alpha	93.037920
_cell_angle_beta	84.485132
_cell_angle_gamma	93.044346
loop_
_atom_site_label
_atom_site_type_symbol
_atom_site_fract_x
_atom_site_fract_y
_atom_site_fract_z
O1	O	1.672904	0.069320	0.181459
O2	O	1.307424	0.069306	0.198265
O3	O	1.498566	0.069313	0.007123
O4	O	1.481761	0.069312	0.372601
O5	O	1.488436	-0.069200	-0.002996
O6	O	1.297293	-0.069208	0.188146
O7	O	1.662773	-0.069194	0.171341
Zn8	Zn	1.478425	-0.091193	0.178137
Zn9	Zn	1.491772	0.091305	0.191469
O10	O	1.471631	-0.069202	0.362482
C11	C	1.255561	0.000047	0.191971
C12	C	1.116117	0.000042	0.188279
N13	N	1.469324	-0.215743	0.169037
C14	C	1.036633	0.000054	0.300821
C15	C	0.905613	0.000068	0.297346
C16	C	0.933575	0.000063	0.068776
C17	C	1.064592	0.000042	0.072252
C18	C	1.088158	0.000054	0.416848
C19	C	1.008672	0.000066	0.529399
C20	C	0.877652	0.000081	0.525924
C21	C	0.826118	0.000082	0.409897
C22	C	1.542972	-0.259322	0.242737
C23	C	1.536623	-0.346511	0.236364
C24	C	1.456619	-0.390120	0.156296
C25	C	1.382968	-0.346535	0.082588
C26	C	1.389325	-0.259347	0.088956
C27	C	1.433588	-0.653372	0.133217
C28	C	1.427234	-0.740566	0.126858
C29	C	1.580892	-0.740536	0.280633
C30	C	1.587236	-0.653347	0.286999
C31	C	1.513590	-0.609769	0.213286
C32	C	1.450124	-0.479242	0.149782
C33	C	1.520093	-0.520649	0.219794
C34	C	1.714636	0.000066	0.177634
C35	C	1.854080	0.000077	0.181327
C36	C	1.492267	0.000058	-0.044734
C37	C	1.488575	0.000064	-0.184177
N38	N	1.500882	0.215855	0.200558
C39	C	1.492365	0.075566	-0.244173
C40	C	1.488884	0.075562	-0.375194
C41	C	1.477829	-0.075453	-0.386212
C42	C	1.481300	-0.075448	-0.255192
C43	C	1.499639	0.151078	-0.173158
C44	C	1.503431	0.226587	-0.233155
C45	C	1.499950	0.226583	-0.364175
C46	C	1.492678	0.151070	-0.435200
C47	C	1.477930	0.000055	0.414340
C48	C	1.481623	0.000055	0.553783
H49	H	1.050640	0.000058	0.623864
O50	O	1.470604	-0.148748	-0.455313
C51	C	1.351621	-0.236421	-0.596290
C52	C	1.359657	-0.153374	-0.518117
H53	H	1.261914	-0.240196	-0.647067
H54	H	1.437395	-0.240209	-0.668713
H55	H	1.349570	-0.290370	-0.530883
H56	H	1.361669	-0.099378	-0.583425
H57	H	1.273886	-0.149659	-0.445682
H58	H	1.329352	-0.223867	0.028941
O59	O	0.800375	-0.000056	0.635203
C60	C	0.630897	-0.071760	0.758669
C61	C	0.718349	-0.071726	0.634864
H62	H	0.564539	-0.129690	0.758424
H63	H	0.690166	-0.071817	0.842233
H64	H	0.573183	-0.013757	0.766967
H65	H	0.776081	-0.129719	0.626444
H66	H	0.659009	-0.071625	0.551361
O67	O	1.141950	0.000146	-0.036975
C68	C	1.311341	0.071905	-0.160480
C69	C	1.223831	0.071887	-0.036713
H70	H	1.377545	0.129910	-0.160321
H71	H	1.369202	0.013966	-0.168807
H72	H	1.251986	0.071875	-0.243989
H73	H	1.283088	0.071946	0.046867
H74	H	1.165964	0.129820	-0.028497
H75	H	0.719431	0.000081	0.407075
O76	O	0.883468	0.000220	-0.043882
C77	C	0.756990	0.071983	-0.175178
C78	C	0.813681	0.071914	-0.047553
H79	H	0.700532	0.129933	-0.178177
H80	H	0.836260	0.072025	-0.255069
H81	H	0.692133	0.014000	-0.186737
H82	H	0.878523	0.129887	-0.035871
H83	H	0.734347	0.071829	0.032273
H84	H	1.608113	-0.223822	0.307945
O85	O	1.608202	-0.388715	0.308089
C86	C	1.761321	-0.379484	0.461243
C87	C	1.680302	-0.331586	0.380101
H88	H	1.819654	-0.333317	0.519465
H89	H	1.697232	-0.420289	0.527131
H90	H	1.827126	-0.420316	0.397125
H91	H	1.614488	-0.290709	0.444121
H92	H	1.744466	-0.290834	0.314202
H93	H	1.585236	-0.485139	0.284980
H94	H	1.652388	-0.617846	0.352195
H95	H	1.194839	0.000046	0.419691
H96	H	1.640851	-0.776027	0.340645
H97	H	1.362078	-0.776070	0.061658
O98	O	1.510262	0.299960	-0.164202
C99	C	1.412184	0.429052	-0.101496
C100	C	1.404283	0.345975	-0.179608
H101	H	1.326526	0.466287	-0.113946
H102	H	1.413944	0.416146	0.002484
H103	H	1.501997	0.466254	-0.135272
H104	H	1.314479	0.308732	-0.145943
H105	H	1.402593	0.358940	-0.283575
H106	H	1.384983	-0.514758	0.084592
O107	O	1.305275	-0.389021	0.004915
C108	C	1.227360	-0.523345	-0.073038
C109	C	1.315384	-0.475339	0.014999
H110	H	1.235522	-0.593142	-0.064935
H111	H	1.125707	-0.506239	-0.044791
H112	H	1.255753	-0.506185	-0.174644
H113	H	1.287105	-0.492473	0.116631
H114	H	1.417015	-0.492449	-0.013356
H115	H	1.373621	-0.617902	0.073194
H116	H	1.502477	0.151090	-0.066475
O117	O	1.503401	0.299905	-0.422488
C118	C	1.397319	0.387523	-0.550793
C119	C	1.393228	0.304463	-0.484793
H120	H	1.308267	0.391228	-0.601205
H121	H	1.403033	0.441524	-0.477571
H122	H	1.483745	0.391284	-0.622540
H123	H	1.306811	0.300620	-0.413052
H124	H	1.387581	0.250501	-0.558087
O125	O	1.477640	-0.148864	-0.197107
C126	C	1.466166	-0.298652	-0.221832
C127	C	1.470359	-0.215568	-0.287781
H128	H	1.460252	-0.352603	-0.295109
H129	H	1.555253	-0.302497	-0.171520
H130	H	1.379790	-0.302359	-0.150017
H131	H	1.556678	-0.211804	-0.359653
H132	H	1.381213	-0.211758	-0.338010
H133	H	1.489826	0.151073	-0.541883
