data_functionalizedCrystal
_audit_creation_method	'MofGen! by Chris Wilmer'
_symmetry_space_group_name_H-M	'P1'
_symmetry_Int_Tables_number	1
_symmetry_cell_setting	triclinic
loop_
_symmetry_equiv_pos_as_xyz
  x,y,z
_cell_length_a	10.489741
_cell_length_b	8.559649
_cell_length_c	7.681481
_cell_angle_alpha	94.930900
_cell_angle_beta	84.215067
_cell_angle_gamma	77.158919
loop_
_atom_site_label
_atom_site_type_symbol
_atom_site_fract_x
_atom_site_fract_y
_atom_site_fract_z
O1	O	-1.656827	-0.240139	-0.146313
O2	O	-1.283403	-0.261279	-0.146340
O3	O	-1.503014	-0.018485	-0.146322
O4	O	-1.437216	-0.482933	-0.146331
O5	O	-1.530052	0.011467	0.146538
O6	O	-1.310441	-0.231327	0.146520
O7	O	-1.683864	-0.210187	0.146547
Zn8	Zn	-1.501445	-0.216001	0.193031
Zn9	Zn	-1.465823	-0.255465	-0.192824
O10	O	-1.464253	-0.452981	0.146529
C11	C	-1.521519	0.055963	0.000105
C12	C	-1.536361	0.233171	0.000096
C13	C	-1.249558	-0.244707	0.000087
C14	C	-1.108431	-0.239932	0.000076
C15	C	-1.717709	-0.226760	0.000116
C16	C	-1.858836	-0.231536	0.000115
C17	C	-1.056559	-0.085448	0.000096
C18	C	-0.943417	-0.173191	-0.144297
C19	C	-0.970104	-0.143698	0.144440
C20	C	-0.997137	-0.327750	-0.144436
C21	C	-1.023847	-0.298222	0.144431
C22	C	-0.910718	-0.386081	0.000003
C23	C	-1.445748	-0.527429	0.000098
C24	C	-1.430906	-0.704639	0.000095
N25	N	-1.525766	-0.189068	0.456367
N26	N	-1.441513	-0.282385	-0.456161
H27	H	-1.119604	0.041527	-0.000083
H28	H	-1.329266	0.213034	0.000094
N29	N	-1.327574	-0.408536	0.444232
H30	H	-1.273924	-0.467956	0.530473
H31	H	-1.362506	-0.487361	0.367725
N32	N	-1.639710	-0.062908	0.555982
H33	H	-1.633084	0.047268	0.524000
H34	H	-1.725371	-0.085639	0.523921
N35	N	-1.671003	0.342232	0.000114
H36	H	-1.710149	0.309979	-0.108448
H37	H	-1.730092	0.332124	0.108750
N38	N	-0.896505	-0.103167	-0.305999
H39	H	-0.971469	-0.073619	-0.378848
H40	H	-0.864944	-0.003560	-0.269018
N41	N	-1.013901	-0.430822	-0.306323
H42	H	-1.109767	-0.433376	-0.305367
H43	H	-0.983800	-0.383988	-0.415160
H44	H	-0.847901	-0.513217	-0.000078
H45	H	-0.957281	-0.065820	0.266513
N46	N	-1.070747	-0.368241	0.306130
H47	H	-1.061773	-0.298652	0.415154
H48	H	-1.166160	-0.371956	0.304185
