data_functionalizedCrystal
_audit_creation_method	'MofGen! by Chris Wilmer'
_symmetry_space_group_name_H-M	'P1'
_symmetry_Int_Tables_number	1
_symmetry_cell_setting	triclinic
loop_
_symmetry_equiv_pos_as_xyz
  x,y,z
_cell_length_a	15.944551
_cell_length_b	15.944551
_cell_length_c	14.421503
_cell_angle_alpha	89.996660
_cell_angle_beta	89.996859
_cell_angle_gamma	96.501262
loop_
_atom_site_label
_atom_site_type_symbol
_atom_site_fract_x
_atom_site_fract_y
_atom_site_fract_z
O1	O	1.114529	-0.108320	-0.077017
O2	O	0.869980	-0.121677	-0.077040
O3	O	0.998933	0.007276	-0.077020
O4	O	0.985576	-0.237273	-0.077038
O5	O	0.998911	0.007257	0.077204
O6	O	0.869958	-0.121696	0.077183
O7	O	1.114508	-0.108340	0.077206
Cu8	Cu	0.992231	-0.115020	0.091277
Cu9	Cu	0.992256	-0.114997	-0.091110
O10	O	0.985555	-0.237293	0.077186
C11	C	0.838675	-0.121132	0.000069
C12	C	0.745429	-0.119470	0.000060
C13	C	0.998367	0.038561	0.000092
C14	C	0.996705	0.131807	0.000093
C15	C	0.530572	-0.035565	0.000084
C16	C	0.469563	-0.074518	-0.075959
C17	C	0.574703	-0.116462	0.000071
C18	C	0.469564	-0.074556	0.076093
C19	C	0.409790	-0.113551	0.000086
C20	C	0.514922	-0.155437	-0.076035
C21	C	0.514929	-0.155464	0.076086
C22	C	0.453937	-0.194476	0.000024
C23	C	0.669705	-0.118137	0.000062
C24	C	0.314789	-0.111883	0.000089
C25	C	1.145813	-0.108885	0.000096
C26	C	1.239059	-0.110547	0.000098
C27	C	0.986120	-0.268577	0.000072
C28	C	0.987782	-0.361823	0.000066
N29	N	0.992219	-0.115035	0.219558
C30	C	0.912801	0.346663	0.000072
C31	C	0.951753	0.407671	0.076117
C32	C	0.993698	0.302533	0.000085
C33	C	0.951793	0.407674	-0.075935
C34	C	0.990787	0.467445	0.000074
C35	C	1.032672	0.362312	0.076193
C36	C	1.032701	0.362308	-0.075927
C37	C	1.071711	0.423298	0.000136
C38	C	0.995372	0.207530	0.000092
C39	C	0.989119	0.562446	0.000073
N40	N	0.992275	-0.114975	-0.219392
C41	C	0.932581	-0.174636	0.469202
C42	C	1.008481	-0.190943	0.531011
C43	C	0.992240	-0.115015	0.408719
C44	C	0.916359	-0.098727	0.531005
C45	C	0.992253	-0.114997	0.591441
C46	C	1.068178	-0.131360	0.469167
C47	C	0.976007	-0.039111	0.469156
C48	C	1.051961	-0.055386	0.530936
C49	C	0.992231	-0.115027	0.303458
C50	C	0.992270	-0.114985	0.696700
H51	H	0.563905	0.031573	-0.000005
O52	O	0.910860	0.431532	-0.152606
C53	C	0.827107	0.392138	-0.152310
H54	H	0.823074	0.332734	-0.107793
H55	H	0.806983	0.374437	-0.226263
H56	H	0.783538	0.437385	-0.122637
O57	O	0.445429	-0.033756	-0.152625
C58	C	0.357043	-0.033415	-0.151970
H59	H	0.327131	-0.087688	-0.107202
H60	H	0.331841	-0.041293	-0.225802
H61	H	0.340685	0.029011	-0.122377
H62	H	1.066850	0.342314	0.140554
H63	H	0.534918	-0.189620	-0.140394
O64	O	0.445702	-0.033620	0.152761
C65	C	0.485095	0.050134	0.152461
H66	H	0.544501	0.054165	0.107948
H67	H	0.502792	0.070262	0.226413
H68	H	0.439847	0.093699	0.122780
H69	H	0.845652	0.313356	0.000141
H70	H	1.132368	-0.145205	0.442119
H71	H	0.962240	0.025051	0.441965
O72	O	0.872545	-0.234939	0.436897
C73	C	0.889983	-0.314853	0.468435
H74	H	0.959967	-0.312487	0.485767
H75	H	0.873138	-0.363850	0.411907
H76	H	0.850946	-0.332844	0.533131
O77	O	1.073610	0.338409	-0.152591
C78	C	1.156908	0.378978	-0.153232
H79	H	1.160326	0.438740	-0.109360
H80	H	1.176358	0.396269	-0.227491
H81	H	1.201396	0.334733	-0.123367
H82	H	1.022224	-0.255126	0.558180
H83	H	0.535052	-0.189660	0.140373
O84	O	0.414410	-0.274665	-0.000192
C85	C	0.437549	-0.316986	-0.080461
H86	H	0.459459	-0.268756	-0.136241
H87	H	0.380862	-0.360325	-0.107002
H88	H	0.491036	-0.356097	-0.063049
O89	O	1.151900	0.462827	0.000355
C90	C	1.194220	0.439686	0.080625
H91	H	1.145989	0.417773	0.136402
H92	H	1.237558	0.496373	0.107169
H93	H	1.233333	0.386200	0.063212
H94	H	1.102474	-0.004956	0.557872
O95	O	0.910791	0.431600	0.152738
C96	C	0.827048	0.392180	0.152474
H97	H	0.807564	0.373942	0.078475
H98	H	0.783221	0.437626	0.181195
H99	H	0.822641	0.333098	0.197540
O100	O	0.839730	-0.082394	0.563296
C101	C	0.777025	-0.145431	0.531859
H102	H	0.800215	-0.176207	0.466777
H103	H	0.716987	-0.115807	0.515200
H104	H	0.763167	-0.195252	0.588179
