data_functionalizedCrystal
_audit_creation_method	'MofGen! by Chris Wilmer'
_symmetry_space_group_name_H-M	'P1'
_symmetry_Int_Tables_number	1
_symmetry_cell_setting	triclinic
loop_
_symmetry_equiv_pos_as_xyz
  x,y,z
_cell_length_a	14.908520
_cell_length_b	18.215407
_cell_length_c	18.215399
_cell_angle_alpha	89.982187
_cell_angle_beta	93.269364
_cell_angle_gamma	93.315133
loop_
_atom_site_label
_atom_site_type_symbol
_atom_site_fract_x
_atom_site_fract_y
_atom_site_fract_z
Zn1	Zn	-0.359299	1.108171	-0.432985
Zn2	Zn	0.140701	1.608171	0.067015
Zn3	Zn	-0.510167	1.100983	-0.317018
Zn4	Zn	-0.010167	1.600983	0.182982
Zn5	Zn	-0.359313	0.985103	-0.309937
Zn6	Zn	0.140687	1.485103	0.190063
Zn7	Zn	-0.510101	0.977976	-0.440045
Zn8	Zn	-0.010101	1.477976	0.059955
O9	O	-0.434720	1.043058	-0.374996
O10	O	0.065280	1.543058	0.125004
O11	O	-0.379334	1.210201	-0.417611
O12	O	0.120666	1.710201	0.082389
O13	O	-0.490189	1.085585	-0.213096
O14	O	0.009811	1.585585	0.286904
O15	O	-0.233067	1.007419	-0.320342
O16	O	0.266933	1.507419	0.179658
O17	O	-0.490176	1.204919	-0.332411
O18	O	0.009824	1.704919	0.167589
O19	O	-0.233057	1.097837	-0.410744
O20	O	0.266943	1.597837	0.089256
O21	O	-0.379357	1.000449	-0.207894
O22	O	0.120643	1.500449	0.292106
O23	O	-0.379294	0.881174	-0.327187
O24	O	0.120706	1.381174	0.172813
O25	O	-0.490064	0.995272	-0.542091
O26	O	0.009936	1.495272	-0.042091
O27	O	-0.490077	0.875938	-0.422777
O28	O	0.009923	1.375938	0.077223
O29	O	-0.379270	1.090926	-0.536904
O30	O	0.120730	1.590926	-0.036904
O31	O	-0.636403	1.078675	-0.339256
O32	O	-0.136403	1.578675	0.160744
O33	O	-0.636354	0.988302	-0.429643
O34	O	-0.136354	1.488302	0.070357
C35	C	-0.434680	0.851854	-0.374980
C36	C	0.065320	1.351854	0.125020
C37	C	-0.434685	0.770055	-0.374992
C38	C	0.065315	1.270055	0.125008
C39	C	-0.377116	0.507734	-0.419440
C40	C	0.122884	1.007734	0.080560
C41	C	-0.377101	0.584594	-0.419437
C42	C	0.122899	1.084594	0.080563
C43	C	-0.492354	0.579122	-0.330570
C44	C	0.007646	1.079122	0.169430
C45	C	-0.492372	0.502263	-0.330577
C46	C	0.007628	1.002263	0.169423
C47	C	-0.434748	0.466572	-0.375011
C48	C	0.065252	0.966572	0.124989
C49	C	-0.434715	0.620290	-0.375001
C50	C	0.065285	1.120290	0.124999
C51	C	-0.434700	0.703624	-0.374997
C52	C	0.065300	1.203624	0.125003
C53	C	-0.434764	0.383232	-0.375016
C54	C	0.065236	0.883232	0.124984
C55	C	-0.669112	1.031955	-0.386000
C56	C	-0.169112	1.531955	0.114000
C57	C	-0.769386	1.027272	-0.390732
C58	C	-0.269386	1.527272	0.109268
C59	C	-0.957801	1.112675	-0.305580
C60	C	-0.457801	1.612675	0.194420
C61	C	-1.052017	1.108277	-0.310024
C62	C	-0.552017	1.608277	0.189976
C63	C	-1.052037	1.014085	-0.404067
C64	C	-0.552037	1.514085	0.095933
C65	C	-0.957821	1.018482	-0.399623
C66	C	-0.457821	1.518482	0.100377
C67	C	-0.910706	1.067778	-0.350377
C68	C	-0.410706	1.567778	0.149623
C69	C	-0.816488	1.072171	-0.345930
C70	C	-0.316488	1.572171	0.154070
C71	C	-0.816509	0.977982	-0.439976
C72	C	-0.316509	1.477982	0.060024
C73	C	-0.910726	0.973585	-0.444420
C74	C	-0.410726	1.473585	0.055580
C75	C	-0.199413	1.054225	-0.363966
C76	C	0.300587	1.554225	0.136034
C77	C	-0.099139	1.058983	-0.359265
C78	C	0.400861	1.558983	0.140735
C79	C	-0.434658	1.043106	-0.566946
C80	C	0.065342	1.543106	-0.066946
C81	C	-0.434631	1.043126	-0.648744
C82	C	0.065369	1.543126	-0.148744
C83	C	-0.434761	1.235009	-0.375013
C84	C	0.065239	1.735009	0.124987
C85	C	-0.434778	1.316807	-0.375020
C86	C	0.065222	1.816807	0.124980
C87	C	-0.376887	1.092953	-0.834236
C88	C	0.123113	1.592953	-0.334236
C89	C	-0.376861	1.092963	-0.911093
C90	C	0.123139	1.592963	-0.411093
C91	C	-0.492236	0.993358	-0.916483
C92	C	0.007764	1.493358	-0.416483
C93	C	-0.492257	0.993346	-0.839627
C94	C	0.007743	1.493346	-0.339627
C95	C	-0.434584	1.043147	-0.798505
C96	C	0.065416	1.543147	-0.298505
C97	C	-0.434537	1.043170	-0.952219
C98	C	0.065463	1.543170	-0.452219
C99	C	-0.434509	1.043180	-1.035552
C100	C	0.065491	1.543180	-0.535552
C101	C	-0.434611	1.043136	-0.715168
C102	C	0.065389	1.543136	-0.215168
C103	C	-0.434717	1.043056	-0.183790
C104	C	0.065283	1.543056	0.316210
C105	C	-0.434489	1.043190	-0.101981
C106	C	0.065511	1.543190	0.398019
H107	H	-0.539267	0.608191	-0.294392
H108	H	-0.039267	1.108191	0.205608
Cl109	Cl	-0.304678	0.462868	-0.475302
Cl110	Cl	0.195322	0.962868	0.024698
Cl111	Cl	-0.969964	0.911619	-0.506327
Cl112	Cl	-0.469964	1.411619	-0.006327
H113	H	-1.090359	1.144839	-0.273547
H114	H	-0.590359	1.644839	0.226453
Cl115	Cl	-0.564792	0.930723	-0.794705
Cl116	Cl	-0.064792	1.430723	-0.294705
Cl117	Cl	-0.757259	1.134139	-0.284020
Cl118	Cl	-0.257259	1.634139	0.215980
Cl119	Cl	-0.304332	1.155585	-0.956009
Cl120	Cl	0.195668	1.655585	-0.456009
H121	H	-0.539308	0.468748	-0.294397
H122	H	-0.039308	0.968748	0.205603
Cl123	Cl	-0.898568	1.174634	-0.243663
Cl124	Cl	-0.398568	1.674634	0.256337
H125	H	-1.090414	0.973955	-0.444165
H126	H	-0.590414	1.473955	0.055835
H127	H	-0.778154	0.941422	-0.476451
H128	H	-0.278154	1.441422	0.023549
H129	H	-0.539194	0.952814	-0.949974
H130	H	-0.039194	1.452814	-0.449974
Cl131	Cl	-0.304649	0.636338	-0.475296
Cl132	Cl	0.195351	1.136338	0.024704
Cl133	Cl	-0.304380	1.155557	-0.782542
Cl134	Cl	0.195620	1.655557	-0.282542
