data_functionalizedCrystal
_audit_creation_method	'MofGen! by Chris Wilmer'
_symmetry_space_group_name_H-M	'P1'
_symmetry_Int_Tables_number	1
_symmetry_cell_setting	triclinic
loop_
_symmetry_equiv_pos_as_xyz
  x,y,z
_cell_length_a	21.295418
_cell_length_b	29.839131
_cell_length_c	21.295411
_cell_angle_alpha	89.979636
_cell_angle_beta	89.956262
_cell_angle_gamma	90.057233
loop_
_atom_site_label
_atom_site_type_symbol
_atom_site_fract_x
_atom_site_fract_y
_atom_site_fract_z
Zn1	Zn	0.962308	-0.178715	-0.356239
Zn2	Zn	1.462308	0.321285	0.143761
Zn3	Zn	0.962190	-0.253830	-0.250967
Zn4	Zn	1.462190	0.246170	0.249033
Zn5	Zn	0.857031	-0.178736	-0.250949
Zn6	Zn	1.357031	0.321264	0.249051
Zn7	Zn	0.856981	-0.253839	-0.356163
Zn8	Zn	1.356981	0.246161	0.143837
O9	O	0.909628	-0.216280	-0.303580
O10	O	1.409628	0.283720	0.196420
O11	O	1.050382	-0.188667	-0.342314
O12	O	1.550382	0.311333	0.157686
O13	O	0.948213	-0.243874	-0.162875
O14	O	1.448213	0.256126	0.337125
O15	O	0.871067	-0.115866	-0.264940
O16	O	1.371067	0.384134	0.235060
O17	O	1.050295	-0.243854	-0.264971
O18	O	1.550295	0.256146	0.235029
O19	O	0.948413	-0.115851	-0.342296
O20	O	1.448413	0.384149	0.157704
O21	O	0.870953	-0.188703	-0.162862
O22	O	1.370953	0.311297	0.337138
O23	O	0.768935	-0.188711	-0.264867
O24	O	1.268935	0.311289	0.235133
O25	O	0.870981	-0.243869	-0.444263
O26	O	1.370981	0.256131	0.055737
O27	O	0.768898	-0.243889	-0.342167
O28	O	1.268898	0.256111	0.157833
O29	O	0.948364	-0.188675	-0.444319
O30	O	1.448364	0.311325	0.055681
O31	O	0.948164	-0.316699	-0.264897
O32	O	1.448164	0.183301	0.235103
O33	O	0.870866	-0.316705	-0.342185
O34	O	1.370866	0.183295	0.157815
C35	C	0.746076	-0.216304	-0.303507
C36	C	1.246076	0.283696	0.196493
C37	C	0.676108	-0.216325	-0.303491
C38	C	1.176108	0.283675	0.196509
C39	C	0.643238	-0.245094	-0.343681
C40	C	1.143238	0.254906	0.156319
C41	C	0.577496	-0.245083	-0.343710
C42	C	1.077496	0.254917	0.156290
C43	C	0.544625	-0.216307	-0.303536
C44	C	1.044625	0.283693	0.196464
C45	C	0.577503	-0.187532	-0.263343
C46	C	1.077503	0.312468	0.236657
C47	C	0.643244	-0.187541	-0.263321
C48	C	1.143244	0.312459	0.236679
N49	N	0.441350	-0.212791	-0.248479
N50	N	0.941350	0.287209	0.251521
N51	N	0.378899	-0.212785	-0.248502
N52	N	0.878899	0.287215	0.251498
C53	C	0.346551	-0.216279	-0.303603
C54	C	0.846551	0.283721	0.196397
N55	N	0.379013	-0.219787	-0.358681
N56	N	0.879013	0.280213	0.141319
N57	N	0.441470	-0.219795	-0.358657
N58	N	0.941470	0.280205	0.141343
C59	C	0.473340	-0.216294	-0.303557
C60	C	0.973340	0.283706	0.196443
C61	C	0.242396	-0.245037	-0.343827
C62	C	0.742396	0.254963	0.156173
C63	C	0.176652	-0.245023	-0.343857
C64	C	0.676652	0.254977	0.156143
C65	C	0.176660	-0.187475	-0.263485
C66	C	0.676660	0.312525	0.236515
C67	C	0.242403	-0.187487	-0.263461
C68	C	0.742403	0.312513	0.236539
C69	C	0.275266	-0.216271	-0.303632
C70	C	0.775266	0.283729	0.196368
C71	C	0.909514	-0.333003	-0.303548
C72	C	1.409514	0.166997	0.196452
C73	C	0.909523	-0.382937	-0.303556
C74	C	1.409523	0.117063	0.196444
C75	C	0.949949	-0.692564	-0.263395
C76	C	1.449949	-0.192564	0.236605
C77	C	0.950027	-0.880238	-0.263419
C78	C	1.450027	-0.380238	0.236581
O79	O	0.984309	-0.904489	-0.229249
O80	O	1.484309	-0.404489	0.270751
N81	N	0.909758	-0.903722	-0.303627
N82	N	1.409758	-0.403722	0.196373
C83	C	0.869470	-0.880286	-0.343835
C84	C	1.369470	-0.380286	0.156165
O85	O	0.835225	-0.904567	-0.378039
O86	O	1.335225	-0.404567	0.121961
C87	C	0.869396	-0.692614	-0.343813
C88	C	1.369396	-0.192614	0.156187
C89	C	0.909663	-0.669131	-0.303598
C90	C	1.409663	-0.169131	0.196402
C91	C	0.990214	-0.669082	-0.223184
C92	C	1.490214	-0.169082	0.276816
C93	C	0.990192	-0.622167	-0.223176
C94	C	1.490192	-0.122167	0.276824
C95	C	0.949905	-0.598734	-0.263379
C96	C	1.449905	-0.098734	0.236621
C97	C	0.909641	-0.622216	-0.303590
C98	C	1.409641	-0.122216	0.196410
C99	C	0.829111	-0.669178	-0.384023
C100	C	1.329111	-0.169178	0.115977
C101	C	0.829097	-0.622257	-0.384015
C102	C	1.329097	-0.122257	0.115985
C103	C	0.869364	-0.598775	-0.343800
C104	C	1.369364	-0.098775	0.156200
C105	C	0.869332	-0.551867	-0.343785
C106	C	1.369332	-0.051867	0.156215
N107	N	0.909601	-0.528383	-0.303577
N108	N	1.409601	-0.028383	0.196423
C109	C	0.949887	-0.551816	-0.263374
C110	C	1.449887	-0.051816	0.236626
C111	C	0.869511	-0.978816	-0.343842
C112	C	1.369511	-0.478816	0.156158
C113	C	0.869528	-1.025734	-0.343847
C114	C	1.369528	-0.525734	0.156153
C115	C	0.950087	-1.025683	-0.263432
C116	C	1.450087	-0.525683	0.236568
C117	C	0.950065	-0.978764	-0.263425
C118	C	1.450065	-0.478764	0.236575
C119	C	0.909780	-0.955332	-0.303634
C120	C	1.409780	-0.455332	0.196366
C121	C	0.949837	-0.453290	-0.263359
C122	C	1.449837	0.046710	0.236641
C123	C	0.949810	-0.406370	-0.263353
C124	C	1.449810	0.093630	0.236647
C125	C	0.869254	-0.406426	-0.343770
C126	C	1.369254	0.093574	0.156230
C127	C	0.869279	-0.453341	-0.343774
C128	C	1.369279	0.046659	0.156226
C129	C	0.909576	-0.476772	-0.303567
C130	C	1.409576	0.023228	0.196433
O131	O	0.835073	-0.527587	-0.377942
O132	O	1.335073	-0.027587	0.122058
O133	O	0.984137	-0.527526	-0.229185
O134	O	1.484137	-0.027526	0.270815
C135	C	0.949972	-0.739480	-0.263403
C136	C	1.449972	-0.239480	0.236597
C137	C	0.909707	-0.762962	-0.303614
C138	C	1.409707	-0.262962	0.196386
C139	C	0.869421	-0.739529	-0.343817
C140	C	1.369421	-0.239529	0.156183
C141	C	0.909725	-0.809880	-0.303619
C142	C	1.409725	-0.309880	0.196381
C143	C	0.950012	-0.833313	-0.263416
C144	C	1.450012	-0.333313	0.236584
C145	C	0.990281	-0.809829	-0.223208
C146	C	1.490281	-0.309829	0.276792
C147	C	0.990258	-0.762913	-0.223200
C148	C	1.490258	-0.262913	0.276800
C149	C	0.829152	-0.763014	-0.384025
C150	C	1.329152	-0.263014	0.115975
C151	C	0.829177	-0.809929	-0.384029
C152	C	1.329177	-0.309929	0.115971
C153	C	0.869463	-0.833362	-0.343826
C154	C	1.369463	-0.333362	0.156174
C155	C	1.073818	-0.216257	-0.303653
C156	C	1.573818	0.283743	0.196347
C157	C	1.143786	-0.216247	-0.303684
C158	C	1.643786	0.283753	0.196316
C159	C	0.909680	-0.216271	-0.467770
C160	C	1.409680	0.283729	0.032230
C161	C	0.909702	-0.216267	-0.537738
C162	C	1.409702	0.283733	-0.037738
C163	C	0.909759	-0.099102	-0.303625
C164	C	1.409759	0.400898	0.196375
C165	C	0.909815	-0.049167	-0.303644
C166	C	1.409815	0.450833	0.196356
C167	C	0.949994	-0.187526	-0.570635
C168	C	1.449994	0.312474	-0.070635
C169	C	0.949993	-0.187507	-0.636377
C170	C	1.449993	0.312493	-0.136377
C171	C	0.909707	-0.216236	-0.669221
C172	C	1.409707	0.283764	-0.169221
C173	C	0.869407	-0.244978	-0.636316
C174	C	1.369407	0.255022	-0.136316
C175	C	0.869405	-0.244994	-0.570575
C176	C	1.369405	0.255006	-0.070575
N177	N	0.904840	-0.255537	-0.772436
N178	N	1.404840	0.244463	-0.272436
N179	N	0.904846	-0.255521	-0.834887
N180	N	1.404846	0.244479	-0.334887
C181	C	0.909711	-0.216190	-0.867295
C182	C	1.409711	0.283810	-0.367295
N183	N	0.914582	-0.176875	-0.834893
N184	N	1.414582	0.323125	-0.334893
N185	N	0.914580	-0.176891	-0.772436
N186	N	1.414580	0.323109	-0.272436
C187	C	0.909705	-0.216222	-0.740506
C188	C	1.409705	0.283778	-0.240506
C189	C	0.950004	-0.187426	-0.971478
C190	C	1.450004	0.312574	-0.471478
C191	C	0.949999	-0.187406	-1.037221
C192	C	1.449999	0.312594	-0.537221
C193	C	0.869416	-0.244882	-1.037159
C194	C	1.369416	0.255118	-0.537159
C195	C	0.869418	-0.244898	-0.971417
C196	C	1.369418	0.255102	-0.471417
C197	C	0.909716	-0.216171	-0.938580
C198	C	1.409716	0.283829	-0.438580
C199	C	0.909612	-0.216257	-0.140028
C200	C	1.409612	0.283743	0.359972
C201	C	0.909712	-0.216135	-0.070060
C202	C	1.409712	0.283865	0.429940
H203	H	0.982600	-0.387253	-0.230603
H204	H	1.482600	0.112747	0.269397
O205	O	0.989162	-0.159476	-0.939673
O206	O	1.489162	0.340524	-0.439673
C207	C	1.024732	-0.134108	-0.982810
C208	C	1.524732	0.365892	-0.482810
H209	H	0.998950	-0.132544	-1.029653
H210	H	1.498950	0.367456	-0.529653
H211	H	1.031484	-0.098716	-0.963819
H212	H	1.531484	0.401284	-0.463819
H213	H	1.072523	-0.150549	-0.989838
H214	H	1.572523	0.349451	-0.489838
O215	O	1.029498	-0.832610	-0.184253
O216	O	1.529498	-0.332610	0.315747
C217	C	1.070132	-0.859699	-0.220168
C218	C	1.570132	-0.359699	0.279832
H219	H	1.073966	-0.845536	-0.269748
H220	H	1.573966	-0.345536	0.230252
H221	H	1.118598	-0.860189	-0.197481
H222	H	1.618598	-0.360189	0.302519
H223	H	1.050693	-0.895277	-0.222315
H224	H	1.550693	-0.395277	0.277685
H225	H	0.836604	-0.268368	-0.663061
H226	H	1.336604	0.231632	-0.163061
O227	O	0.989240	-1.048519	-0.224476
O228	O	1.489240	-0.548519	0.275524
C229	C	0.980623	-1.094964	-0.233117
C230	C	1.480623	-0.594964	0.266883
H231	H	0.959928	-1.101362	-0.281651
H232	H	1.459928	-0.601362	0.218349
H233	H	1.027798	-1.112744	-0.228982
H234	H	1.527798	-0.612744	0.271018
H235	H	0.947178	-1.108345	-0.195707
H236	H	1.447178	-0.608345	0.304293
O237	O	0.989169	-0.159651	-0.668410
O238	O	1.489169	0.340349	-0.168410
C239	C	1.029805	-0.185221	-0.706451
C240	C	1.529805	0.314779	-0.206451
H241	H	1.007558	-0.219266	-0.716280
H242	H	1.507558	0.280734	-0.216280
H243	H	1.038268	-0.166913	-0.752689
H244	H	1.538268	0.333087	-0.252689
H245	H	1.076447	-0.190161	-0.681148
H246	H	1.576447	0.309839	-0.181148
H247	H	0.836492	-0.472462	-0.376522
H248	H	1.336492	0.027538	0.123478
H249	H	0.550736	-0.164102	-0.230635
H250	H	1.050736	0.335898	0.269365
O251	O	0.830248	-0.272959	-0.538713
O252	O	1.330248	0.227041	-0.038713
C253	C	0.794675	-0.298304	-0.581795
C254	C	1.294675	0.201696	-0.081795
H255	H	0.820455	-0.299843	-0.628679
H256	H	1.320455	0.200157	-0.128679
H257	H	0.787924	-0.333707	-0.562796
H258	H	1.287924	0.166293	-0.062796
H259	H	0.746884	-0.281859	-0.588747
H260	H	1.246884	0.218141	-0.088747
H261	H	1.022982	-0.603050	-0.190431
H262	H	1.522982	-0.103050	0.309569
H263	H	0.269155	-0.268472	-0.376540
H264	H	0.769155	0.231528	0.123460
O265	O	0.789952	-0.740324	-0.423097
O266	O	1.289952	-0.240324	0.076903
C267	C	0.754430	-0.771118	-0.458593
C268	C	1.254430	-0.271118	0.041407
H269	H	0.752290	-0.804573	-0.432809
H270	H	1.252290	-0.304573	0.067191
H271	H	0.704820	-0.757613	-0.465239
H272	H	1.204820	-0.257613	0.034761
H273	H	0.777456	-0.776069	-0.506434
H274	H	1.277456	-0.276069	-0.006434
O275	O	0.830194	-0.272741	-1.069030
O276	O	1.330194	0.227259	-0.569030
C277	C	0.767464	-0.262945	-1.052910
C278	C	1.267464	0.237055	-0.552910
H279	H	0.764323	-0.227061	-1.034834
H280	H	1.264323	0.272939	-0.534834
H281	H	0.736364	-0.266808	-1.096124
H282	H	1.236364	0.233192	-0.596124
H283	H	0.750981	-0.287045	-1.014741
H284	H	1.250981	0.212955	-0.514741
H285	H	0.836612	-0.268304	-0.944632
H286	H	1.336612	0.231696	-0.444632
H287	H	0.669992	-0.268531	-0.376392
H288	H	1.169992	0.231469	0.123608
O289	O	0.830475	-1.048522	-0.382998
O290	O	1.330475	-0.548522	0.117002
C291	C	0.844190	-1.037012	-0.445750
C292	C	1.344190	-0.537012	0.054250
H293	H	0.894473	-1.024071	-0.448987
H294	H	1.394473	-0.524071	0.051013
H295	H	0.838761	-1.067860	-0.476851
H296	H	1.338761	-0.567860	0.023149
H297	H	0.810425	-1.009801	-0.462156
H298	H	1.310425	-0.509801	0.037844
H299	H	1.023048	-0.743797	-0.190453
H300	H	1.523048	-0.243797	0.309547
H301	H	0.982652	-0.472362	-0.230620
H302	H	1.482652	0.027638	0.269380
O303	O	0.675079	-0.159581	-0.224215
O304	O	1.175079	0.340419	0.275785
C305	C	0.631974	-0.134170	-0.188775
C306	C	1.131974	0.365830	0.311225
H307	H	0.585076	-0.152560	-0.186566
H308	H	1.085076	0.347440	0.313434
H309	H	0.650920	-0.129329	-0.139183
H310	H	1.150920	0.370671	0.360817
H311	H	0.625068	-0.100073	-0.211916
H312	H	1.125068	0.399927	0.288084
H313	H	0.982808	-0.163999	-1.064005
H314	H	1.482808	0.336001	-0.564005
O315	O	1.029370	-0.691771	-0.184066
O316	O	1.529370	-0.191771	0.315934
C317	C	1.064911	-0.660975	-0.148592
C318	C	1.564911	-0.160975	0.351408
H319	H	1.039109	-0.627556	-0.146388
H320	H	1.539109	-0.127556	0.353612
H321	H	1.071653	-0.674533	-0.099000
H322	H	1.571653	-0.174533	0.401000
H323	H	1.112707	-0.655934	-0.171700
H324	H	1.612707	-0.155934	0.328300
H325	H	0.796381	-0.829044	-0.416777
H326	H	1.296381	-0.329044	0.083223
H327	H	0.550728	-0.268510	-0.376440
H328	H	1.050728	0.231490	0.123560
O329	O	0.144818	-0.273014	-0.382919
O330	O	0.644818	0.226986	0.117081
C331	C	0.187925	-0.298412	-0.418376
C332	C	0.687925	0.201588	0.081624
H333	H	0.234756	-0.299945	-0.392571
H334	H	0.734756	0.200055	0.107429
H335	H	0.168878	-0.333813	-0.425001
H336	H	0.668878	0.166187	0.074999
H337	H	0.194998	-0.282017	-0.466228
H338	H	0.694998	0.217983	0.033772
H339	H	0.982807	-0.164134	-0.543903
H340	H	1.482807	0.335866	-0.043903
H341	H	0.269165	-0.164062	-0.230731
H342	H	0.769165	0.335938	0.269269
H343	H	0.149898	-0.164043	-0.230778
H344	H	0.649898	0.335957	0.269222
H345	H	0.982855	-0.959647	-0.230679
H346	H	1.482855	-0.459647	0.269321
O347	O	0.830340	-0.956007	-0.382813
O348	O	1.330340	-0.456007	0.117187
C349	C	0.789677	-0.928926	-0.346920
C350	C	1.289677	-0.428926	0.153080
H351	H	0.811902	-0.921886	-0.299245
H352	H	1.311902	-0.421886	0.200755
H353	H	0.781209	-0.895935	-0.372550
H354	H	1.281209	-0.395935	0.127450
H355	H	0.743042	-0.947055	-0.339941
H356	H	1.243042	-0.447055	0.160059
H357	H	0.796318	-0.688289	-0.416767
H358	H	1.296318	-0.188289	0.083233
H359	H	0.796292	-0.603181	-0.416761
H360	H	1.296292	-0.103181	0.083239
H361	H	0.836451	-0.387339	-0.376501
H362	H	1.336451	0.112661	0.123499
