data_functionalizedCrystal
_audit_creation_method	'MofGen! by Chris Wilmer'
_symmetry_space_group_name_H-M	'P1'
_symmetry_Int_Tables_number	1
_symmetry_cell_setting	triclinic
loop_
_symmetry_equiv_pos_as_xyz
  x,y,z
_cell_length_a	15.297475
_cell_length_b	29.839131
_cell_length_c	15.298259
_cell_angle_alpha	80.280107
_cell_angle_beta	88.370891
_cell_angle_gamma	80.343089
loop_
_atom_site_label
_atom_site_type_symbol
_atom_site_fract_x
_atom_site_fract_y
_atom_site_fract_z
Zn1	Zn	1.253365	-0.224385	-0.726610
Zn2	Zn	1.278551	-0.314322	-0.580088
Zn3	Zn	1.132216	-0.228754	-0.554833
Zn4	Zn	1.106810	-0.289027	-0.701235
O5	O	1.192735	-0.264122	-0.640691
O6	O	1.379282	-0.245072	-0.728363
O7	O	1.280311	-0.315386	-0.454148
O8	O	1.148379	-0.165311	-0.577670
O9	O	1.397785	-0.311149	-0.620713
O10	O	1.237387	-0.162101	-0.703874
O11	O	1.172800	-0.252519	-0.435593
O12	O	1.006270	-0.227992	-0.553065
O13	O	1.105079	-0.268037	-0.827191
O14	O	0.987605	-0.272274	-0.660625
O15	O	1.212752	-0.220545	-0.845834
O16	O	1.255677	-0.373830	-0.596107
O17	O	1.129500	-0.355246	-0.685114
C18	C	0.965155	-0.247862	-0.601351
C19	C	0.867791	-0.240915	-0.584542
C20	C	1.192585	-0.380838	-0.640621
C21	C	1.192595	-0.430772	-0.640634
C22	C	0.554625	-0.313777	-0.760831
C23	C	0.646103	-0.320308	-0.776621
C24	C	0.701530	-0.300460	-0.728603
C25	C	0.665469	-0.274081	-0.664791
C26	C	0.573982	-0.267552	-0.648994
C27	C	0.720887	-0.254236	-0.616767
C28	C	0.684826	-0.227856	-0.552955
C29	C	0.593348	-0.221329	-0.537162
C30	C	0.537922	-0.241176	-0.585179
C31	C	0.812374	-0.260764	-0.632564
C32	C	0.831731	-0.214539	-0.520728
C33	C	0.740253	-0.208009	-0.504937
C34	C	1.258524	-0.750085	-0.594445
C35	C	1.258626	-0.937763	-0.594498
O36	O	1.314560	-0.970244	-0.555172
N37	N	1.192906	-0.951570	-0.640789
C38	C	1.127159	-0.918455	-0.687075
O39	O	1.071267	-0.934505	-0.726457
C40	C	1.127061	-0.730778	-0.687027
C41	C	1.192780	-0.716974	-0.640725
C42	C	1.324238	-0.736280	-0.548149
C43	C	1.324209	-0.689364	-0.548132
C44	C	1.258466	-0.656252	-0.594412
C45	C	1.192751	-0.670057	-0.640709
C46	C	1.061318	-0.697663	-0.733317
C47	C	1.061301	-0.650742	-0.733303
C48	C	1.127020	-0.636938	-0.687002
C49	C	1.126979	-0.590029	-0.686972
N50	N	1.192699	-0.576222	-0.640681
C51	C	1.258442	-0.609333	-0.594401
C52	C	1.127214	-1.016988	-0.687095
C53	C	1.127237	-1.063907	-0.687106
C54	C	1.258705	-1.083212	-0.594531
C55	C	1.258678	-1.036292	-0.594515
C56	C	1.192934	-1.003181	-0.640804
C57	C	1.258376	-0.510805	-0.594369
C58	C	1.258339	-0.463883	-0.594354
C59	C	1.126874	-0.444582	-0.686933
C60	C	1.126908	-0.491500	-0.686945
C61	C	1.192666	-0.524611	-0.640661
O62	O	1.071079	-0.557523	-0.726286
O63	O	1.314336	-0.593273	-0.555041
C64	C	1.258553	-0.797002	-0.594462
C65	C	1.192838	-0.810807	-0.640759
C66	C	1.127095	-0.777696	-0.687039
C67	C	1.192861	-0.857726	-0.640770
C68	C	1.258605	-0.890837	-0.594490
C69	C	1.324325	-0.877030	-0.548199
C70	C	1.324296	-0.830113	-0.548182
C71	C	1.061375	-0.791503	-0.733330
C72	C	1.061408	-0.838420	-0.733342
C73	C	1.127152	-0.871532	-0.687062
C74	C	1.421205	-0.280445	-0.680186
C75	C	1.518565	-0.287401	-0.697016
C76	C	1.153272	-0.240982	-0.869188
C77	C	1.136455	-0.231121	-0.966559
C78	C	1.192907	-0.146950	-0.640786
C79	C	1.192981	-0.097019	-0.640826
C80	C	1.312957	-0.334255	-1.279667
C81	C	1.328753	-0.343522	-1.188181
C82	C	1.280680	-0.315422	-1.132771
C83	C	1.216808	-0.278054	-1.168856
C84	C	1.201006	-0.268788	-1.260350
C85	C	1.168729	-0.249956	-1.113454
C86	C	1.104857	-0.212588	-1.149539
C87	C	1.089058	-0.203323	-1.241025
C88	C	1.137131	-0.231423	-1.296435
C89	C	1.184531	-0.259222	-1.021960
C90	C	1.072580	-0.193756	-1.002643
C91	C	1.056784	-0.184488	-1.094129
C92	C	1.232096	-0.287143	-0.413093
C93	C	1.249082	-0.296889	-0.315752
H94	H	0.841725	-0.282242	-0.684520
O95	O	1.388233	-0.909140	-0.503165
C96	C	1.446254	-0.886900	-0.462316
H97	H	1.410897	-0.851223	-0.453030
H98	H	1.467583	-0.908130	-0.394936
H99	H	1.507199	-0.883363	-0.505948
O100	O	1.062908	-0.412436	-0.731781
C101	C	0.978936	-0.419663	-0.697513
H102	H	0.986645	-0.439350	-0.626771
H103	H	0.934347	-0.384974	-0.697547
H104	H	0.947912	-0.440507	-0.740511
H105	H	0.563993	-0.199854	-0.485193
H106	H	1.311924	-0.537759	-0.556683
O107	O	0.449031	-0.234827	-0.569994
C108	C	0.403978	-0.212665	-0.648713
H109	H	0.447990	-0.219025	-0.708252
H110	H	0.340093	-0.227015	-0.653641
H111	H	0.387420	-0.174035	-0.647901
O112	O	1.063436	-1.077394	-0.732000
C113	C	1.077558	-1.125905	-0.722113
H114	H	1.117971	-1.141212	-0.659499
H115	H	1.010931	-1.138484	-0.716671
H116	H	1.115189	-1.137247	-0.782173
O117	O	0.997350	-0.618639	-0.778286
C118	C	0.939372	-0.640888	-0.819172
H119	H	0.942583	-0.677761	-0.782774
H120	H	0.868737	-0.621498	-0.816537
H121	H	0.959912	-0.641398	-0.891265
O122	O	1.322205	-0.450416	-0.549505
C123	C	1.370117	-0.422226	-0.609191
H124	H	1.327705	-0.406268	-0.670202
H125	H	1.388030	-0.393689	-0.575537
H126	H	1.433360	-0.443927	-0.630097
H127	H	0.876860	-0.198379	-0.481626
O128	O	0.705197	-0.182459	-0.442847
C129	C	0.662007	-0.209949	-0.377045
H130	H	0.690493	-0.247852	-0.376258
H131	H	0.672603	-0.200394	-0.309506
H132	H	0.588002	-0.203829	-0.392159
H133	H	1.377725	-0.678128	-0.510433
H134	H	1.124276	-0.223879	-1.370931
H135	H	1.377779	-0.763236	-0.510462
H136	H	0.776015	-0.305779	-0.741464
H137	H	1.312192	-1.025056	-0.556813
O138	O	0.500845	-0.333129	-0.807389
C139	C	0.526488	-0.381435	-0.791957
H140	H	0.563706	-0.392532	-0.726303
H141	H	0.465011	-0.398584	-0.789038
H142	H	0.571482	-0.392251	-0.848051
O143	O	0.681279	-0.345929	-0.838551
C144	C	0.773904	-0.347425	-0.842214
H145	H	0.798071	-0.340394	-0.776816
H146	H	0.807629	-0.382968	-0.854038
H147	H	0.790911	-0.320125	-0.898747
O148	O	1.322571	-1.115438	-0.549713
C149	C	1.308500	-1.159807	-0.559671
H150	H	1.268014	-1.157304	-0.622245
H151	H	1.375144	-1.182869	-0.565234
H152	H	1.270965	-1.175127	-0.499588
O153	O	0.994837	-0.148139	-1.129163
C154	C	1.017894	-0.106998	-1.110136
H155	H	1.092216	-0.112276	-1.097079
H156	H	0.999994	-0.078173	-1.169020
H157	H	0.980117	-0.097276	-1.048926
O158	O	1.025983	-0.166491	-0.948707
C159	C	1.053612	-0.182688	-0.860216
H160	H	1.123347	-0.203495	-0.859397
H161	H	1.053726	-0.152136	-0.824444
H162	H	1.006106	-0.205528	-0.825253
O163	O	1.063253	-0.984887	-0.732069
C164	C	1.005270	-1.007142	-0.772938
H165	H	1.008497	-1.044015	-0.736538
H166	H	0.934633	-0.987756	-0.770286
H167	H	1.025793	-1.007649	-0.845036
H168	H	1.007884	-0.849654	-0.771044
H169	H	1.007799	-0.708894	-0.771016
H170	H	1.073396	-0.502739	-0.724650
H171	H	1.380749	-0.373951	-1.158806
O172	O	1.246514	-0.295567	-0.987001
C173	C	1.223427	-0.336708	-1.005995
H174	H	1.178279	-0.328504	-1.066599
H175	H	1.286071	-0.361052	-1.020039
H176	H	1.187264	-0.353835	-0.946706
H177	H	1.377811	-0.818878	-0.510479
H178	H	1.007839	-0.764546	-0.771018
O179	O	1.296164	-0.324474	-1.043927
C180	C	1.362832	-0.363487	-1.023956
H181	H	1.404890	-0.368098	-1.085521
H182	H	1.406665	-0.358506	-0.968508
H183	H	1.330850	-0.395404	-1.001688
O184	O	1.026902	-0.167050	-1.275955
C185	C	0.943446	-0.172902	-1.238510
H186	H	0.953083	-0.196770	-1.171757
H187	H	0.904759	-0.137992	-1.228610
H188	H	0.905013	-0.188674	-1.284881
H189	H	1.352085	-0.357132	-1.324788
