data_functionalizedCrystal
_audit_creation_method	'MofGen! by Chris Wilmer'
_symmetry_space_group_name_H-M	'P1'
_symmetry_Int_Tables_number	1
_symmetry_cell_setting	triclinic
loop_
_symmetry_equiv_pos_as_xyz
  x,y,z
_cell_length_a	14.908520
_cell_length_b	19.077142
_cell_length_c	19.076919
_cell_angle_alpha	89.925643
_cell_angle_beta	95.429006
_cell_angle_gamma	88.850506
loop_
_atom_site_label
_atom_site_type_symbol
_atom_site_fract_x
_atom_site_fract_y
_atom_site_fract_z
Zn1	Zn	-0.436385	-1.037878	-0.459269
Zn2	Zn	0.063615	-0.537878	0.040731
Zn3	Zn	-0.581412	-1.035741	-0.348016
Zn4	Zn	-0.081412	-0.535741	0.151984
Zn5	Zn	-0.424300	-0.925661	-0.336538
Zn6	Zn	0.075700	-0.425661	0.163462
Zn7	Zn	-0.580865	-0.913589	-0.460741
Zn8	Zn	-0.080865	-0.413589	0.039259
O9	O	-0.505740	-0.978217	-0.401141
O10	O	-0.005740	-0.478217	0.098859
O11	O	-0.460910	-1.135679	-0.448699
O12	O	0.039090	-0.635679	0.051301
O13	O	-0.555741	-1.025297	-0.247954
O14	O	-0.055741	-0.525297	0.252046
O15	O	-0.299685	-0.946493	-0.347399
O16	O	0.200315	-0.446493	0.152601
O17	O	-0.567460	-1.134110	-0.366961
O18	O	-0.067460	-0.634110	0.133039
O19	O	-0.308564	-1.028939	-0.437569
O20	O	0.191436	-0.528939	0.062431
O21	O	-0.440312	-0.944421	-0.239521
O22	O	0.059688	-0.444421	0.260479
O23	O	-0.439782	-0.825975	-0.348826
O24	O	0.060218	-0.325975	0.151174
O25	O	-0.566529	-0.925918	-0.559085
O26	O	-0.066529	-0.425918	-0.059085
O27	O	-0.554810	-0.817106	-0.440077
O28	O	-0.054810	-0.317106	0.059923
O29	O	-0.460380	-1.017233	-0.558004
O30	O	0.039620	-0.517233	-0.058004
O31	O	-0.707557	-1.013591	-0.368388
O32	O	-0.207557	-0.513591	0.131612
O33	O	-0.707155	-0.923846	-0.451207
O34	O	-0.207155	-0.423846	0.048793
C35	C	-0.495926	-0.796108	-0.393366
C36	C	0.004074	-0.296108	0.106634
C37	C	-0.491750	-0.718199	-0.390058
C38	C	0.008250	-0.218199	0.109942
C39	C	-0.740084	-0.967195	-0.411219
C40	C	-0.240084	-0.467195	0.088781
C41	C	-0.840342	-0.962543	-0.415557
C42	C	-0.340342	-0.462543	0.084443
C43	C	-0.549760	-0.676997	-0.435946
C44	C	-0.049760	-0.176997	0.064054
C45	C	-0.545825	-0.603794	-0.432840
C46	C	-0.045825	-0.103794	0.067160
C47	C	-0.483882	-0.571794	-0.383842
C48	C	0.016118	-0.071794	0.116158
C49	C	-0.425866	-0.613001	-0.337952
C50	C	0.074134	-0.113001	0.162048
C51	C	-0.429797	-0.686203	-0.341061
C52	C	0.070203	-0.186203	0.158939
C53	C	-0.465687	-0.353357	-0.369458
C54	C	0.034313	0.146643	0.130542
C55	C	-0.461762	-0.280149	-0.366350
C56	C	0.038238	0.219851	0.133650
C57	C	-0.581720	-0.270947	-0.461240
C58	C	-0.081720	0.229053	0.038760
C59	C	-0.585650	-0.344150	-0.464342
C60	C	-0.085650	0.155850	0.035658
C61	C	-0.527630	-0.385352	-0.418454
C62	C	-0.027630	0.114648	0.081546
N63	N	-0.479860	-0.496968	-0.380665
N64	N	0.020140	0.003032	0.119335
N65	N	-0.531649	-0.460176	-0.421636
N66	N	-0.031649	0.039824	0.078364
C67	C	-1.029103	-1.047342	-0.337546
C68	C	-0.529103	-0.547342	0.162454
C69	C	-1.123305	-1.042973	-0.341619
C70	C	-0.623305	-0.542973	0.158381
C71	C	-1.122948	-0.949441	-0.427781
C72	C	-0.622948	-0.449441	0.072219
C73	C	-1.028747	-0.953810	-0.423707
C74	C	-0.528747	-0.453810	0.076293
C75	C	-0.981828	-1.002761	-0.378587
C76	C	-0.481828	-0.502761	0.121413
C77	C	-0.887624	-1.007126	-0.374511
C78	C	-0.387624	-0.507126	0.125489
C79	C	-0.887270	-0.913598	-0.460676
C80	C	-0.387270	-0.413598	0.039324
C81	C	-0.981472	-0.909229	-0.464749
C82	C	-0.481472	-0.409229	0.035251
C83	C	-0.270483	-0.989301	-0.391039
C84	C	0.229517	-0.489301	0.108961
C85	C	-0.170230	-0.994024	-0.386735
C86	C	0.329770	-0.494024	0.113265
C87	C	-0.514741	-0.970467	-0.584809
C88	C	-0.014741	-0.470467	-0.084809
C89	C	-0.518577	-0.967165	-0.663077
C90	C	-0.018577	-0.467165	-0.163077
C91	C	-0.515589	-0.161038	-0.408938
C92	C	-0.015589	0.338962	0.091062
C93	C	-0.519772	-0.238947	-0.412239
C94	C	-0.019772	0.261053	0.087761
C95	C	-0.465115	-1.013153	-0.699286
C96	C	0.034885	-0.513153	-0.199286
C97	C	-0.468715	-1.010042	-0.772827
C98	C	0.031285	-0.510042	-0.272827
C99	C	-0.525783	-0.960944	-0.810158
C100	C	-0.025783	-0.460944	-0.310158
C101	C	-0.579246	-0.914951	-0.773944
C102	C	-0.079246	-0.414951	-0.273944
C103	C	-0.575641	-0.918060	-0.700404
C104	C	-0.075641	-0.418060	-0.200404
C105	C	-0.542487	-0.946546	-1.030159
C106	C	-0.042487	-0.446546	-0.530159
C107	C	-0.546091	-0.943442	-1.103704
C108	C	-0.046091	-0.443442	-0.603704
C109	C	-0.435558	-1.038533	-1.102582
C110	C	0.064442	-0.538533	-0.602582
C111	C	-0.431962	-1.041640	-1.029041
C112	C	0.068038	-0.541640	-0.529041
C113	C	-0.485422	-0.995644	-0.992833
C114	C	0.014578	-0.495644	-0.492833
N115	N	-0.529466	-0.957764	-0.885329
N116	N	-0.029466	-0.457764	-0.385329
N117	N	-0.481733	-0.998821	-0.917663
N118	N	0.018267	-0.498821	-0.417663
C119	C	-0.496712	-0.985981	-0.218186
C120	C	0.003288	-0.485981	0.281814
C121	C	-0.492629	-0.989431	-0.139913
C122	C	0.007371	-0.489431	0.360087
H123	H	-0.600203	-0.703045	-0.475843
H124	H	-0.100203	-0.203045	0.024157
H125	H	-0.418450	-0.386894	-0.332087
H126	H	0.081550	0.113106	0.167913
H127	H	-0.848768	-0.877295	-0.494092
H128	H	-0.348768	-0.377295	0.005908
H129	H	-0.990900	-1.087195	-0.300802
H130	H	-0.490900	-0.587195	0.199198
C131	C	-0.366573	-0.504876	-0.291052
C132	C	0.133427	-0.004876	0.208948
C133	C	-0.357773	-0.577829	-0.284094
C134	C	0.142227	-0.077829	0.215906
H135	H	-0.324538	-0.483165	-0.257798
H136	H	0.175462	0.016835	0.242202
H137	H	-0.355145	-0.491512	-0.337304
H138	H	0.144855	0.008488	0.162696
H139	H	-0.426003	-0.490474	-0.282760
H140	H	0.073997	0.009526	0.217240
H141	H	-0.298344	-0.592231	-0.292391
H142	H	0.201656	-0.092231	0.207609
H143	H	-0.369195	-0.591198	-0.237831
H144	H	0.130805	-0.091198	0.262169
C145	C	-0.692377	-0.906112	-0.622484
C146	C	-0.192377	-0.406112	-0.122484
C147	C	-0.634408	-0.867514	-0.660593
C148	C	-0.134408	-0.367514	-0.160593
H149	H	-0.728652	-0.874904	-0.597903
H150	H	-0.228652	-0.374904	-0.097903
H151	H	-0.729931	-0.933803	-0.653960
H152	H	-0.229931	-0.433803	-0.153960
H153	H	-0.657859	-0.935797	-0.589735
H154	H	-0.157859	-0.435797	-0.089735
H155	H	-0.668926	-0.837833	-0.693347
H156	H	-0.168926	-0.337833	-0.193347
H157	H	-0.596850	-0.839811	-0.629114
H158	H	-0.096850	-0.339811	-0.129114
C159	C	-0.557577	-0.845072	-1.182914
C160	C	-0.057577	-0.345072	-0.682914
C161	C	-0.608815	-0.889462	-1.144737
C162	C	-0.108815	-0.389462	-0.644737
H163	H	-0.596300	-0.811752	-1.208248
H164	H	-0.096300	-0.311752	-0.708248
H165	H	-0.515432	-0.821332	-1.151391
H166	H	-0.015432	-0.321332	-0.651391
H167	H	-0.526263	-0.872029	-1.215003
H168	H	-0.026263	-0.372029	-0.715003
H169	H	-0.640124	-0.862506	-1.112645
H170	H	-0.140124	-0.362506	-0.612645
H171	H	-0.650976	-0.913204	-1.176263
H172	H	-0.150976	-0.413204	-0.676263
C173	C	-0.343566	-0.296595	-0.272872
C174	C	0.156434	0.203405	0.227128
C175	C	-0.393665	-0.244974	-0.312491
C176	C	0.106335	0.255026	0.187509
H177	H	-0.301526	-0.274877	-0.239626
H178	H	0.198474	0.225123	0.260374
H179	H	-0.383014	-0.324436	-0.248784
H180	H	0.116986	0.175564	0.251216
H181	H	-0.312167	-0.325475	-0.303337
H182	H	0.187833	0.174525	0.196663
H183	H	-0.425069	-0.216097	-0.282026
H184	H	0.074931	0.283903	0.217974
H185	H	-0.354211	-0.217122	-0.336579
H186	H	0.145789	0.282878	0.163421
H187	H	-0.849423	-1.046983	-0.337770
H188	H	-0.349423	-0.546983	0.162230
C189	C	-0.664816	-0.602050	-0.526926
C190	C	-0.164816	-0.102050	-0.026926
C191	C	-0.609606	-0.558504	-0.483272
C192	C	-0.109606	-0.058504	0.016728
H193	H	-0.704199	-0.574088	-0.558056
H194	H	-0.204199	-0.074088	-0.058056
H195	H	-0.628434	-0.631307	-0.553445
H196	H	-0.128434	-0.131307	-0.053445
H197	H	-0.699268	-0.630278	-0.498881
H198	H	-0.199268	-0.130278	0.001119
H199	H	-0.575149	-0.530279	-0.511316
H200	H	-0.075149	-0.030279	-0.011316
H201	H	-0.645991	-0.529234	-0.456751
H202	H	-0.145991	-0.029234	0.043249
C203	C	-1.156852	-1.161800	-0.313749
C204	C	-0.656852	-0.661800	0.186251
C205	C	-1.175251	-1.091990	-0.296503
C206	C	-0.675251	-0.591990	0.203497
H207	H	-1.188913	-1.192066	-0.285891
H208	H	-0.688913	-0.692066	0.214109
H209	H	-1.175138	-1.169297	-0.362166
H210	H	-0.675138	-0.669297	0.137834
H211	H	-1.094028	-1.171384	-0.304873
H212	H	-0.594028	-0.671384	0.195127
H213	H	-1.238075	-1.082404	-0.305383
H214	H	-0.738075	-0.582404	0.194617
H215	H	-1.156970	-1.084490	-0.248074
H216	H	-0.656970	-0.584490	0.251926
C217	C	-0.703824	-0.327698	-0.557829
C218	C	-0.203824	0.172302	-0.057829
C219	C	-0.653737	-0.379322	-0.518205
C220	C	-0.153737	0.120678	-0.018205
H221	H	-0.745856	-0.349413	-0.591082
H222	H	-0.245856	0.150587	-0.091082
H223	H	-0.735222	-0.298819	-0.527373
H224	H	-0.235222	0.201181	-0.027373
H225	H	-0.664360	-0.299858	-0.581914
H226	H	-0.164360	0.200142	-0.081914
H227	H	-0.693201	-0.407159	-0.494115
H228	H	-0.193201	0.092841	0.005885
H229	H	-0.622338	-0.408214	-0.548665
H230	H	-0.122338	0.091786	-0.048665
H231	H	-1.161167	-0.909592	-0.464520
H232	H	-0.661167	-0.409592	0.035480
C233	C	-0.628954	-0.154647	-0.498613
C234	C	-0.128954	0.345353	0.001387
C235	C	-0.645484	-0.225657	-0.511684
C236	C	-0.145484	0.274343	-0.011684
H237	H	-0.668316	-0.126689	-0.529762
H238	H	-0.168316	0.373311	-0.029762
H239	H	-0.639102	-0.144023	-0.451344
H240	H	-0.139102	0.355977	0.048656
H241	H	-0.568233	-0.145070	-0.505880
H242	H	-0.068233	0.354930	-0.005880
H243	H	-0.706203	-0.235235	-0.504412
H244	H	-0.206203	0.264765	-0.004412
H245	H	-0.635343	-0.236285	-0.558964
H246	H	-0.135343	0.263715	-0.058964
H247	H	-0.418648	-1.053136	-0.668896
H248	H	0.081352	-0.553136	-0.168896
C249	C	-0.652084	-0.852229	-1.038664
C250	C	-0.152084	-0.352229	-0.538664
C251	C	-0.601238	-0.895979	-0.990365
C252	C	-0.101238	-0.395979	-0.490365
H253	H	-0.688354	-0.821010	-1.014093
H254	H	-0.188354	-0.321010	-0.514093
H255	H	-0.612742	-0.826073	-1.064521
H256	H	-0.112742	-0.326073	-0.564521
H257	H	-0.689650	-0.879935	-1.070128
H258	H	-0.189650	-0.379935	-0.570128
H259	H	-0.563667	-0.868274	-0.958904
H260	H	-0.063667	-0.368274	-0.458904
H261	H	-0.640585	-0.922137	-0.964496
H262	H	-0.140585	-0.422137	-0.464496
H263	H	-0.382555	-0.719750	-0.303698
H264	H	0.117445	-0.219750	0.196302
H265	H	-0.625708	-0.874972	-0.804345
H266	H	-0.125708	-0.374972	-0.304345
C267	C	-1.125718	-0.860998	-0.509248
C268	C	-0.625718	-0.360998	-0.009248
C269	C	-1.033050	-0.855421	-0.514339
C270	C	-0.533050	-0.355421	-0.014339
H271	H	-1.157556	-0.827774	-0.539860
H272	H	-0.657556	-0.327774	-0.039860
H273	H	-1.144133	-0.906927	-0.522276
H274	H	-0.644133	-0.406927	-0.022276
H275	H	-1.138311	-0.852065	-0.462156
H276	H	-0.638311	-0.352065	0.037844
H277	H	-1.020456	-0.864359	-0.561431
H278	H	-0.520456	-0.364359	-0.061431
H279	H	-1.014629	-0.809481	-0.501316
H280	H	-0.514629	-0.309481	-0.001316
C281	C	-0.307072	-1.060549	-0.941577
C282	C	0.192928	-0.560549	-0.441577
C283	C	-0.369190	-1.095591	-0.988021
C284	C	0.130810	-0.595591	-0.488021
H285	H	-0.268313	-1.093854	-0.916255
H286	H	0.231687	-0.593854	-0.416255
H287	H	-0.272370	-1.030413	-0.967492
H288	H	0.227630	-0.530413	-0.467492
H289	H	-0.338407	-1.033622	-0.909478
H290	H	0.161593	-0.533622	-0.409478
H291	H	-0.337855	-1.122513	-1.020124
H292	H	0.162145	-0.622513	-0.520124
H293	H	-0.403895	-1.125738	-0.962104
H294	H	0.096105	-0.625738	-0.462104
H295	H	-0.425184	-1.047492	-0.802305
H296	H	0.074816	-0.547492	-0.302305
H297	H	-0.392033	-1.075979	-1.132070
H298	H	0.107967	-0.575979	-0.632070
