data_functionalizedCrystal
_audit_creation_method	'MofGen! by Chris Wilmer'
_symmetry_space_group_name_H-M	'P1'
_symmetry_Int_Tables_number	1
_symmetry_cell_setting	triclinic
loop_
_symmetry_equiv_pos_as_xyz
  x,y,z
_cell_length_a	19.288864
_cell_length_b	14.519709
_cell_length_c	17.766277
_cell_angle_alpha	89.992699
_cell_angle_beta	89.976791
_cell_angle_gamma	83.408195
loop_
_atom_site_label
_atom_site_type_symbol
_atom_site_fract_x
_atom_site_fract_y
_atom_site_fract_z
O1	O	0.921767	0.115045	-0.062837
O2	O	0.719562	0.130564	-0.062786
O3	O	0.826026	-0.011468	-0.062806
O4	O	0.815304	0.257077	-0.062817
O5	O	0.826007	-0.011475	0.062382
O6	O	0.719544	0.130557	0.062402
O7	O	0.921748	0.115038	0.062351
Cu8	Cu	0.820644	0.122797	0.073808
Cu9	Cu	0.820666	0.122805	-0.074242
O10	O	0.815285	0.257070	0.062371
C11	C	0.693675	0.130061	-0.000185
C12	C	0.616566	0.128562	-0.000165
C13	C	0.572169	0.211900	-0.000181
C14	C	0.499717	0.210492	-0.000189
C15	C	0.471665	0.125741	-0.000197
C16	C	0.516071	0.042392	-0.000178
C17	C	0.588521	0.043803	-0.000162
C18	C	0.363169	0.059120	-0.044079
C19	C	0.290720	0.057713	-0.044099
C20	C	0.248203	0.121387	-0.000242
C21	C	0.278144	0.186483	0.043625
C22	C	0.350594	0.187894	0.043641
C23	C	0.393105	0.124202	-0.000214
C24	C	0.125246	0.203203	-0.000265
C25	C	0.052792	0.201792	-0.000269
C26	C	0.069148	0.033689	-0.000265
C27	C	0.141599	0.035103	-0.000254
C28	C	0.169644	0.119863	-0.000258
C29	C	0.825517	-0.045828	-0.000212
C30	C	0.824019	-0.148200	-0.000211
C31	C	0.818507	-0.523061	-0.000229
C32	C	0.820037	-0.418762	-0.000224
C33	C	0.821263	-0.335633	-0.000219
C34	C	0.822794	-0.231329	-0.000215
C35	C	0.947636	0.115541	-0.000251
C36	C	1.024745	0.117040	-0.000276
C37	C	0.815794	0.291430	-0.000225
C38	C	0.817291	0.393802	-0.000230
N39	N	0.820634	0.122790	0.177938
N40	N	0.820682	0.122805	-0.178373
C41	C	0.867791	0.059929	0.217316
C42	C	0.867795	0.059925	0.296118
C43	C	0.820648	0.122798	0.335538
C44	C	0.773482	0.185664	0.296151
C45	C	0.773475	0.185660	0.217351
C46	C	0.811652	0.206826	0.460375
C47	C	0.811664	0.206831	0.539173
C48	C	0.820667	0.122809	0.578585
C49	C	0.829672	0.038778	0.539188
C50	C	0.829665	0.038775	0.460387
C51	C	0.820651	0.122808	0.420984
C52	C	0.867831	0.059938	0.703409
C53	C	0.867830	0.059932	0.782212
C54	C	0.773521	0.185679	0.782244
C55	C	0.773518	0.185676	0.703442
C56	C	0.820677	0.122807	0.664029
H57	H	0.594998	0.280918	-0.000185
H58	H	0.906229	0.008743	0.671318
C59	C	0.839562	-0.053652	0.417050
C60	C	0.839552	-0.053652	0.330373
C61	C	0.849445	-0.146079	0.287035
C62	C	0.859348	-0.238507	0.330375
C63	C	0.859358	-0.238511	0.417057
C64	C	0.849465	-0.146083	0.460395
H65	H	0.832221	0.014772	0.298286
H66	H	0.849437	-0.146076	0.222867
H67	H	0.866671	-0.306927	0.298294
H68	H	0.866689	-0.306934	0.449144
H69	H	0.849472	-0.146086	0.524563
H70	H	0.735093	0.236854	0.328251
H71	H	0.243528	0.238332	0.079338
C72	C	0.409934	-0.010928	-0.092325
C73	C	0.377005	-0.082521	-0.140584
C74	C	0.423769	-0.152567	-0.188826
C75	C	0.503462	-0.151021	-0.188809
C76	C	0.536396	-0.079425	-0.140548
C77	C	0.489632	-0.009379	-0.092306
H78	H	0.318007	-0.083668	-0.140598
H79	H	0.399388	-0.205567	-0.224552
H80	H	0.538079	-0.202873	-0.224521
H81	H	0.595393	-0.078278	-0.140534
H82	H	0.514012	0.043621	-0.056580
C83	C	0.003951	0.293469	-0.000285
C84	C	-0.048138	0.315618	0.064712
C85	C	-0.096982	0.407296	0.064696
C86	C	-0.093735	0.476824	-0.000318
C87	C	-0.041644	0.454677	-0.065321
C88	C	0.007199	0.362999	-0.065304
H89	H	-0.050543	0.264148	0.112844
H90	H	-0.135543	0.423691	0.112815
H91	H	-0.129892	0.544690	-0.000331
H92	H	-0.039239	0.506147	-0.113452
H93	H	0.045761	0.346604	-0.113424
H94	H	0.906230	0.008738	0.814274
H95	H	0.735121	0.236867	0.671378
C96	C	0.450868	0.302168	-0.000211
C97	C	0.398849	0.324299	-0.065234
C98	C	0.350001	0.415973	-0.065258
C99	C	0.353173	0.485516	-0.000259
C100	C	0.405194	0.463386	0.064769
C101	C	0.454041	0.371712	0.064793
H102	H	0.396499	0.272818	-0.113355
H103	H	0.311492	0.432355	-0.113396
H104	H	0.317013	0.553378	-0.000277
H105	H	0.407544	0.514867	0.112889
H106	H	0.492551	0.355330	0.112931
H107	H	0.804336	0.275253	0.571244
C108	C	0.156101	0.296435	-0.000259
C109	C	0.107261	0.388110	-0.000262
C110	C	0.138114	0.481341	-0.000254
C111	C	0.217806	0.482897	-0.000243
C112	C	0.266650	0.391219	-0.000239
C113	C	0.235798	0.297988	-0.000247
H114	H	0.048264	0.386961	-0.000270
H115	H	0.101955	0.549207	-0.000257
H116	H	0.240645	0.551913	-0.000237
H117	H	0.325648	0.392368	-0.000231
H118	H	0.271956	0.230121	-0.000245
H119	H	0.804309	0.275251	0.428292
H120	H	0.735073	0.236850	0.185288
H121	H	0.837003	-0.029641	0.571275
H122	H	0.374969	0.240895	0.079362
C123	C	0.919675	-0.009222	0.339444
C124	C	0.971567	-0.078346	0.296090
C125	C	1.023448	-0.147492	0.339412
C126	C	1.023438	-0.147514	0.426090
C127	C	0.971545	-0.078387	0.469449
C128	C	0.919663	-0.009242	0.426126
H129	H	0.971576	-0.078332	0.231922
H130	H	1.061863	-0.198664	0.307314
H131	H	1.061843	-0.198700	0.458160
H132	H	0.971535	-0.078401	0.533617
H133	H	0.881249	0.041930	0.458224
C134	C	0.721657	0.254839	0.825598
C135	C	0.721709	0.254904	0.912275
C136	C	0.669842	0.324063	0.955635
C137	C	0.617923	0.393156	0.912317
C138	C	0.617869	0.393093	0.825635
C139	C	0.669736	0.323935	0.782276
H140	H	0.760144	0.203755	0.944346
H141	H	0.669881	0.324109	1.019803
H142	H	0.579528	0.444352	0.944414
H143	H	0.579434	0.444242	0.793564
H144	H	0.669697	0.323888	0.718108
H145	H	0.046308	-0.035317	-0.000319
C146	C	0.257792	-0.013888	-0.092356
C147	C	0.277917	-0.118275	-0.078733
C148	C	0.244992	-0.189877	-0.126994
C149	C	0.191942	-0.157093	-0.188877
C150	C	0.171813	-0.052702	-0.202503
C151	C	0.204738	0.018901	-0.154242
H152	H	0.317190	-0.142548	-0.032921
H153	H	0.259892	-0.267155	-0.116907
H154	H	0.167568	-0.210098	-0.224602
H155	H	0.132540	-0.028429	-0.248315
H156	H	0.189838	0.096178	-0.164329
C157	C	0.637362	-0.047875	-0.000151
C158	C	0.634114	-0.117413	0.064855
C159	C	0.682956	-0.209092	0.064863
C160	C	0.735046	-0.231232	-0.000135
C161	C	0.738296	-0.161692	-0.065146
C162	C	0.689454	-0.070013	-0.065155
H163	H	0.595552	-0.101025	0.112975
H164	H	0.680550	-0.260570	0.112989
H165	H	0.771202	-0.299098	-0.000129
H166	H	0.776858	-0.178080	-0.113266
H167	H	0.691860	-0.018535	-0.113281
C168	C	0.919657	-0.009232	0.173960
C169	C	0.892427	-0.079674	0.119813
C170	C	0.944292	-0.148836	0.076454
C171	C	1.023386	-0.147557	0.087241
C172	C	1.050620	-0.077113	0.141390
C173	C	0.998756	-0.007951	0.184750
H174	H	0.833874	-0.080623	0.111825
H175	H	0.924131	-0.200983	0.036369
H176	H	1.061779	-0.198755	0.055144
H177	H	1.109174	-0.076164	0.149378
H178	H	1.018917	0.044197	0.224835
H179	H	0.177748	-0.032760	-0.000246
H180	H	0.493226	-0.026613	-0.000195
