data_functionalizedCrystal
_audit_creation_method	'MofGen! by Chris Wilmer'
_symmetry_space_group_name_H-M	'P1'
_symmetry_Int_Tables_number	1
_symmetry_cell_setting	triclinic
loop_
_symmetry_equiv_pos_as_xyz
  x,y,z
_cell_length_a	12.477989
_cell_length_b	21.606444
_cell_length_c	21.606444
_cell_angle_alpha	90.001146
_cell_angle_beta	64.371298
_cell_angle_gamma	55.724162
loop_
_atom_site_label
_atom_site_type_symbol
_atom_site_fract_x
_atom_site_fract_y
_atom_site_fract_z
Zr1	Zr	1.178045	0.551826	-0.036786
O2	O	1.402584	0.444532	-0.127144
O3	O	0.953505	0.590588	-0.014958
O4	O	1.178035	0.582122	-0.135609
O5	O	1.178062	0.452998	0.095356
O6	O	1.178027	0.683976	-0.135607
O7	O	1.178054	0.452998	-0.006494
O8	O	0.776385	0.699121	0.080215
O9	O	1.579705	0.437853	-0.120466
O10	O	1.045856	0.676039	0.001446
O11	O	1.045867	0.600026	0.077454
O12	O	1.310222	0.590058	-0.064596
O13	O	1.310233	0.514045	0.011412
Zr14	Zr	1.178045	0.714271	0.125656
Zr15	Zr	1.178033	0.714272	-0.036783
Zr16	Zr	1.178057	0.551825	0.125653
Zr17	Zr	1.460532	0.541174	-0.026135
Zr18	Zr	0.895558	0.724923	0.115004
O19	O	1.402584	0.675508	0.103827
O20	O	1.402567	0.675509	-0.127140
O21	O	1.402601	0.444531	0.103823
O22	O	0.953505	0.821564	0.216014
O23	O	0.953488	0.821565	-0.014954
O24	O	0.953522	0.590587	0.216009
O25	O	1.178027	0.813099	-0.006487
O26	O	1.178054	0.683975	0.224478
O27	O	1.178062	0.582120	0.224476
O28	O	1.178035	0.813098	0.095363
O29	O	1.579695	0.566976	-0.120463
O30	O	0.776394	0.699120	0.209333
O31	O	0.776385	0.828243	0.209335
O32	O	0.776375	0.828244	0.080218
O33	O	1.579714	0.437853	0.008652
O34	O	1.579705	0.566976	0.008654
O35	O	1.045867	0.676039	0.153465
O36	O	1.045856	0.752052	0.077457
O37	O	1.310222	0.666071	0.011415
O38	O	1.310233	0.590057	0.087423
C39	C	0.824696	0.646372	0.031111
C40	C	0.704773	0.650894	0.026589
C41	C	1.178060	0.633047	0.247621
C42	C	1.178065	0.633047	0.316581
C43	C	1.178029	0.836243	0.044438
C44	C	1.178024	0.905206	0.044440
C45	C	1.531393	0.619724	0.057758
C46	C	1.651316	0.615202	0.062280
C47	C	1.178060	0.429853	0.044431
C48	C	1.178065	0.360891	0.044430
C49	C	1.040029	0.982486	0.078915
C50	C	1.040033	1.047281	0.078911
C51	C	1.178034	1.034794	0.044436
C52	C	1.316040	0.957506	0.009956
C53	C	1.316035	0.892713	0.009956
C54	C	1.316067	1.218808	0.009954
C55	C	1.316062	1.283609	0.009958
C56	C	1.040065	1.373376	0.078909
C57	C	1.040060	1.308583	0.078909
C58	C	1.178065	1.231301	0.044426
C59	C	1.178058	1.161044	0.044430
C60	C	1.178042	1.105049	0.044436
C61	C	1.178029	0.633049	-0.158752
C62	C	1.178024	0.633049	-0.227711
C63	C	1.316060	0.588167	0.314506
C64	C	1.316056	0.588164	0.379304
C65	C	1.178055	0.633046	0.446174
C66	C	1.040049	0.677927	0.448247
C67	C	1.040055	0.677925	0.383450
C68	C	1.040022	0.677934	0.709564
C69	C	1.040027	0.677934	0.774362
C70	C	1.316024	0.588173	0.705417
C71	C	1.316030	0.588171	0.640621
C72	C	1.178025	0.633049	0.642699
C73	C	1.178031	0.633051	0.572438
C74	C	1.178047	0.633049	0.516434
C75	C	0.824681	0.849567	0.031115
C76	C	0.704753	0.923052	0.026594
C77	C	0.824712	0.646371	0.234297
C78	C	0.704794	0.650893	0.298735
C79	C	0.824696	0.849567	0.234301
C80	C	0.704773	0.923051	0.298740
C81	C	1.531393	0.416530	-0.145432
C82	C	1.651316	0.343046	-0.209871
C83	C	1.531408	0.416529	0.057754
C84	C	1.651336	0.343045	0.062275
C85	C	1.531378	0.619725	-0.145428
C86	C	1.651296	0.615204	-0.209866
C87	C	0.648433	0.917883	-0.015212
C88	C	0.535764	0.986923	-0.019475
C89	C	0.479408	1.061131	0.018074
C90	C	0.535739	1.066298	0.059883
C91	C	0.648414	0.997258	0.064140
C92	C	0.648479	0.692694	0.368680
C93	C	0.535819	0.696939	0.429232
C94	C	0.479468	0.659388	0.419839
C95	C	0.535794	0.617581	0.349888
C96	C	0.648460	0.613332	0.289337
C97	C	0.648450	0.997245	0.289326
C98	C	0.535785	1.066297	0.349868
C99	C	0.479438	1.061153	0.419823
C100	C	0.535772	0.986951	0.429236
C101	C	0.648443	0.917901	0.368695
C102	C	1.707653	0.268851	-0.200456
C103	C	1.820353	0.199798	-0.260997
C104	C	1.876706	0.204941	-0.330951
C105	C	1.820364	0.279143	-0.340365
C106	C	1.707674	0.348195	-0.279825
C107	C	1.707668	0.348213	0.104075
C108	C	1.820369	0.279172	0.108321
C109	C	1.876728	0.204964	0.070770
C110	C	1.820392	0.199797	0.028964
C111	C	1.707701	0.268837	0.024715
C112	C	1.707611	0.652764	-0.200450
C113	C	1.820271	0.648531	-0.260990
C114	C	1.876623	0.606732	-0.330946
C115	C	1.820296	0.569170	-0.340361
C116	C	1.707630	0.573409	-0.279822
H117	H	0.697302	0.581180	0.096292
F118	F	0.644680	0.695357	-0.017878
H119	H	0.927652	0.992663	0.106992
F120	F	0.893159	1.129528	0.115603
H121	H	1.968465	0.148709	-0.380241
F122	F	1.647720	0.427156	-0.289856
F123	F	1.996664	0.131491	0.075299
H124	H	0.489913	0.982701	-0.053519
H125	H	0.694312	1.001448	0.232370
F126	F	0.475805	0.577620	0.339902
F127	F	1.880295	0.524681	-0.414819
F128	F	1.880204	0.688508	-0.250954
F129	F	0.708375	0.568843	0.214897
H130	H	1.661747	0.686801	-0.143493
H131	H	0.927643	0.714483	0.828812
F132	F	0.893180	1.321878	0.115607
H133	H	1.428403	0.947343	-0.018118
H134	H	0.927650	0.714479	0.711266
H135	H	0.387694	1.117385	0.469113
H136	H	0.927695	1.436309	0.106983
H137	H	1.428405	0.829788	-0.018119
F138	F	0.475890	0.741439	0.503673
H139	H	1.866298	0.139368	-0.001608
F140	F	0.893177	0.725689	0.519417
H141	H	0.387659	1.117341	0.014602
F142	F	1.462949	1.270313	-0.026737
H143	H	0.489837	1.126727	0.090453
F144	F	1.462944	1.136566	-0.026737
H145	H	1.428437	0.551623	0.260061
H146	H	1.428426	0.551620	0.377608
H147	H	1.661776	0.264649	-0.143501
H148	H	0.489878	0.982775	0.486201
H149	H	0.489930	1.126709	0.342190
F150	F	0.708334	1.002772	0.108643
H151	H	1.661791	0.542818	-0.287499
H152	H	1.428405	0.551627	0.586174
F153	F	1.462903	0.540406	0.703210
F154	F	0.893181	0.725690	0.385660
H155	H	0.694317	0.857466	-0.045799
H156	H	0.694347	0.723274	0.376342
F157	F	0.359557	0.663918	0.484291
H158	H	0.694286	0.857492	0.376370
F159	F	1.647753	0.263325	-0.019772
H160	H	1.866207	0.139387	-0.253318
F161	F	1.880352	0.284605	-0.414822
H162	H	1.661788	0.408630	0.134660
H163	H	1.866218	0.283394	0.142366
F164	F	1.996537	0.602226	-0.395371
