data_functionalizedCrystal
_audit_creation_method	'MofGen! by Chris Wilmer'
_symmetry_space_group_name_H-M	'P1'
_symmetry_Int_Tables_number	1
_symmetry_cell_setting	triclinic
loop_
_symmetry_equiv_pos_as_xyz
  x,y,z
_cell_length_a	17.077404
_cell_length_b	13.032721
_cell_length_c	17.077396
_cell_angle_alpha	82.846305
_cell_angle_beta	90.021444
_cell_angle_gamma	97.203039
loop_
_atom_site_label
_atom_site_type_symbol
_atom_site_fract_x
_atom_site_fract_y
_atom_site_fract_z
Zn1	Zn	1.160370	-0.416089	0.483568
Zn2	Zn	1.143608	-0.590854	0.368970
Zn3	Zn	1.029099	-0.416119	0.352314
Zn4	Zn	1.012408	-0.590786	0.500182
O5	O	1.086371	-0.503462	0.426259
O6	O	1.267992	-0.439287	0.468383
O7	O	1.128389	-0.567716	0.256917
O8	O	1.060512	-0.269877	0.355801
O9	O	1.255677	-0.567687	0.384189
O10	O	1.156956	-0.269854	0.452233
O11	O	1.044259	-0.439340	0.244680
O12	O	0.917039	-0.439274	0.371912
O13	O	1.032064	-0.567571	0.607822
O14	O	0.904776	-0.567600	0.480550
O15	O	1.140772	-0.439221	0.595615
O16	O	1.112204	-0.737083	0.400299
O17	O	1.015812	-0.737033	0.496701
C18	C	0.882426	-0.503434	0.426227
C19	C	0.795175	-0.503447	0.426235
C20	C	0.425754	-0.436753	0.470222
C21	C	0.507735	-0.436746	0.470212
C22	C	0.542322	-0.503484	0.426280
C23	C	0.494923	-0.570242	0.382361
C24	C	0.412943	-0.570254	0.382376
C25	C	0.665796	-0.570210	0.382333
C26	C	0.747782	-0.570197	0.382317
C27	C	0.760588	-0.436702	0.470170
C28	C	0.678608	-0.436714	0.470184
C29	C	0.631215	-0.503471	0.426264
C30	C	1.060399	-0.774976	0.452127
C31	C	1.049360	-0.891131	0.463220
C32	C	1.092174	-0.942907	0.420504
C33	C	1.080766	-1.062959	0.431968
C34	C	1.291112	-0.503491	0.426290
C35	C	1.378361	-0.503504	0.426304
C36	C	1.086426	-0.503385	0.630996
C37	C	1.086449	-0.503352	0.718242
C38	C	1.112466	-0.230887	0.400306
C39	C	1.123586	-0.114732	0.389246
C40	C	1.086369	-0.503463	0.222311
C41	C	1.086526	-0.503202	0.135036
C42	C	1.143055	-0.436515	0.752877
C43	C	1.143068	-0.436480	0.834854
C44	C	1.086478	-0.503289	0.882196
C45	C	1.029866	-0.570129	0.847555
C46	C	1.029850	-0.570157	0.765579
C47	C	1.029903	-0.570066	1.018420
C48	C	1.029919	-0.570039	1.100402
C49	C	1.143121	-0.436389	1.087695
C50	C	1.143106	-0.436418	1.005718
C51	C	1.086494	-0.503259	0.971084
H52	H	0.627210	-0.624575	0.346572
H53	H	1.035665	-1.107506	0.477033
H54	H	0.523090	-0.624585	0.346595
O55	O	0.974941	-0.635241	0.731978
C56	C	0.982123	-0.739388	0.761943
H57	H	1.044330	-0.744656	0.785001
H58	H	0.937428	-0.766690	0.812112
C59	C	0.889910	-0.802683	0.667434
C60	C	0.966316	-0.809156	0.695749
H61	H	0.880156	-0.845721	0.626605
H62	H	0.885069	-0.732518	0.647248
H63	H	0.852673	-0.825434	0.709249
H64	H	1.003551	-0.786393	0.653937
H65	H	0.971163	-0.879319	0.715927
O66	O	1.177287	-1.061554	0.335398
C67	C	1.138577	-0.998490	0.278689
H68	H	1.073638	-1.031518	0.276914
H69	H	1.143665	-0.915790	0.295114
C70	C	1.256900	-0.956138	0.199131
C71	C	1.177143	-0.996708	0.196947
H72	H	1.280691	-0.955034	0.148709
H73	H	1.282981	-0.998622	0.237338
H74	H	1.261130	-0.887225	0.212822
H75	H	1.172915	-1.065624	0.183266
H76	H	1.151062	-0.954236	0.158736
H77	H	0.983786	-0.624521	0.886107
O78	O	1.146087	-0.889817	0.366834
C79	C	1.221811	-0.916331	0.386560
H80	H	1.222910	-0.946342	0.452120
H81	H	1.236379	-0.979621	0.350495
C82	C	1.282013	-0.782398	0.287744
C83	C	1.283365	-0.819249	0.368267
H84	H	1.319984	-0.722516	0.276457
H85	H	1.230996	-0.764537	0.274452
H86	H	1.294151	-0.835149	0.257700
H87	H	1.271218	-0.766503	0.398309
H88	H	1.334382	-0.837099	0.381564
O89	O	0.995653	-0.944385	0.517027
C90	C	1.034370	-1.007406	0.573758
H91	H	1.092346	-1.023608	0.547666
H92	H	1.046929	-0.965342	0.627950
C93	C	0.910177	-1.091282	0.629817
C94	C	0.981380	-1.111189	0.597768
H95	H	0.877489	-1.155298	0.644631
H96	H	0.884091	-1.048821	0.591598
H97	H	0.920653	-1.056226	0.674973
H98	H	0.970904	-1.146231	0.552609
H99	H	1.007463	-1.153658	0.635981
H100	H	1.189140	-0.382115	0.714337
H101	H	0.983837	-0.624438	1.138945
O102	O	1.198210	-0.371565	1.121313
C103	C	1.274257	-0.394406	1.103466
H104	H	1.270225	-0.477900	1.088880
H105	H	1.300135	-0.338399	1.050555
C106	C	1.332768	-0.279679	1.193062
C107	C	1.327816	-0.382231	1.175154
H108	H	1.365807	-0.272165	1.237280
H109	H	1.281534	-0.264287	1.205084
H110	H	1.354331	-0.233018	1.148964
H111	H	1.306244	-0.428889	1.219247
H112	H	1.379047	-0.397631	1.163140
H113	H	1.189164	-0.382057	0.863050
O114	O	1.198009	-0.371364	0.959758
C115	C	1.190834	-0.267206	0.969893
H116	H	1.128633	-0.261922	0.991911
H117	H	1.235540	-0.239881	1.014890
C118	C	1.283028	-0.203966	0.863396
C119	C	1.206629	-0.197476	0.890432
H120	H	1.292775	-0.160952	0.814382
H121	H	1.287865	-0.274139	0.856569
H122	H	1.320274	-0.181198	0.900900
H123	H	1.169385	-0.220256	0.852933
H124	H	1.201787	-0.127304	0.897251
H125	H	0.983793	-0.624479	0.990222
O126	O	0.392284	-0.371890	0.512970
C127	C	0.451700	-0.312958	0.551716
H128	H	0.506048	-0.355759	0.558445
H129	H	0.467993	-0.233537	0.515505
C130	C	0.354425	-0.245483	0.625601
C131	C	0.421175	-0.298056	0.633872
H132	H	0.335596	-0.236285	0.676277
H133	H	0.314395	-0.285183	0.599495
H134	H	0.368013	-0.179304	0.595422
H135	H	0.407585	-0.364238	0.664041
H136	H	0.461202	-0.258366	0.659985
O137	O	0.553866	-0.371852	0.512757
C138	C	0.607711	-0.304260	0.461700
H139	H	0.616446	-0.341017	0.405667
H140	H	0.583518	-0.226804	0.445795
C141	C	0.676679	-0.240261	0.571924
C142	C	0.687413	-0.285410	0.503107
H143	H	0.725842	-0.228628	0.597466
H144	H	0.640402	-0.285795	0.606323
H145	H	0.656516	-0.175719	0.558660
H146	H	0.707566	-0.349956	0.516373
H147	H	0.723696	-0.239886	0.468712
O148	O	0.806733	-0.371958	0.512824
C149	C	0.886509	-0.386241	0.503382
H150	H	0.889989	-0.466844	0.485252
H151	H	0.915686	-0.324181	0.455742
C152	C	0.925264	-0.277799	0.604182
C153	C	0.929538	-0.376800	0.581920
H154	H	0.951809	-0.271971	0.652626
H155	H	0.871518	-0.268172	0.610542
H156	H	0.949577	-0.226093	0.564476
H157	H	0.905217	-0.428504	0.621622
H158	H	0.983282	-0.386436	0.575569
O159	O	0.645035	-0.371996	0.512981
C160	C	0.662928	-0.394949	0.593371
H161	H	0.677489	-0.478437	0.605181
H162	H	0.715874	-0.338948	0.608619
C163	C	0.573397	-0.280353	0.630130
C164	C	0.591275	-0.382897	0.644636
H165	H	0.529200	-0.272915	0.661754
H166	H	0.561344	-0.264885	0.575969
H167	H	0.617524	-0.233697	0.642836
H168	H	0.547152	-0.429550	0.631921
H169	H	0.603319	-0.398373	0.698796
O170	O	0.781335	-0.635184	0.339751
C171	C	0.751346	-0.739368	0.366705
H172	H	0.728321	-0.744742	0.429922
H173	H	0.701140	-0.766636	0.327189
C174	C	0.845789	-0.802477	0.286491
C175	C	0.817516	-0.809079	0.364137
H176	H	0.886604	-0.845480	0.284903
H177	H	0.865992	-0.732286	0.268328
H178	H	0.803944	-0.825198	0.253569
H179	H	0.859358	-0.786345	0.397055
H180	H	0.797321	-0.879268	0.382305
H181	H	0.374356	-0.624610	0.346615
