data_functionalizedCrystal
_audit_creation_method	'MofGen! by Chris Wilmer'
_symmetry_space_group_name_H-M	'P1'
_symmetry_Int_Tables_number	1
_symmetry_cell_setting	triclinic
loop_
_symmetry_equiv_pos_as_xyz
  x,y,z
_cell_length_a	14.971486
_cell_length_b	23.532407
_cell_length_c	13.448316
_cell_angle_alpha	89.988737
_cell_angle_beta	89.998199
_cell_angle_gamma	83.231404
loop_
_atom_site_label
_atom_site_type_symbol
_atom_site_fract_x
_atom_site_fract_y
_atom_site_fract_z
O1	O	1.186163	0.074216	-0.082588
O2	O	1.519497	0.407550	0.250745
O3	O	1.852830	0.740883	0.584079
O4	O	0.925669	0.083104	-0.082616
O5	O	1.259003	0.416437	0.250717
O6	O	1.592336	0.749771	0.584050
O7	O	1.063771	-0.004238	-0.082583
O8	O	1.397105	0.329096	0.250750
O9	O	1.730438	0.662429	0.584084
O10	O	1.048061	0.161558	-0.082621
O11	O	1.381394	0.494892	0.250712
O12	O	1.714728	0.828225	0.584045
O13	O	1.063754	-0.004243	0.082801
O14	O	1.397088	0.329090	0.416134
O15	O	1.730421	0.662423	0.749467
O16	O	0.925652	0.083099	0.082767
O17	O	1.258985	0.416432	0.416101
O18	O	1.592319	0.749765	0.749434
O19	O	1.186146	0.074211	0.082796
O20	O	1.519479	0.407544	0.416129
O21	O	1.852813	0.740878	0.749462
Cu22	Cu	1.055897	0.078654	0.097882
Cu23	Cu	1.389231	0.411988	0.431216
Cu24	Cu	1.722564	0.745321	0.764549
Cu25	Cu	1.055918	0.078661	-0.097703
Cu26	Cu	1.389251	0.411994	0.235630
Cu27	Cu	1.722585	0.745327	0.568964
O28	O	1.048044	0.161553	0.082763
O29	O	1.381377	0.494886	0.416096
O30	O	1.714711	0.828220	0.749429
C31	C	0.892340	0.082704	0.000072
C32	C	1.225673	0.416037	0.333405
C33	C	1.559007	0.749371	0.666739
C34	C	0.793056	0.081513	0.000062
C35	C	1.126389	0.414846	0.333395
C36	C	1.459722	0.748179	0.666729
C37	C	0.735288	0.132824	0.000052
C38	C	1.068622	0.466157	0.333385
C39	C	1.401955	0.799490	0.666718
C40	C	0.642001	0.131701	0.000067
C41	C	0.975334	0.465034	0.333400
C42	C	1.308667	0.798368	0.666733
C43	C	0.606482	0.079267	0.000085
C44	C	0.939816	0.412600	0.333419
C45	C	1.273149	0.745934	0.666752
C46	C	0.664257	0.027952	0.000099
C47	C	0.997590	0.361286	0.333432
C48	C	1.330924	0.694619	0.666765
C49	C	0.757543	0.029075	0.000091
C50	C	1.090876	0.362409	0.333424
C51	C	1.424209	0.695742	0.666757
C52	C	0.469819	0.025615	0.000113
C53	C	0.803153	0.358948	0.333446
C54	C	1.136486	0.692282	0.666779
C55	C	0.376527	0.024491	0.000119
C56	C	0.709860	0.357825	0.333452
C57	C	1.043194	0.691158	0.666786
C58	C	0.354277	0.128241	0.000089
C59	C	0.687610	0.461574	0.333422
C60	C	1.020944	0.794907	0.666756
C61	C	0.447563	0.129364	0.000081
C62	C	0.780896	0.462697	0.333414
C63	C	1.114229	0.796030	0.666748
C64	C	0.505331	0.078049	0.000093
C65	C	0.838665	0.411382	0.333426
C66	C	1.171998	0.744715	0.666759
C67	C	1.063363	-0.025458	0.000111
C68	C	1.396696	0.307875	0.333445
C69	C	1.730029	0.641208	0.666778
C70	C	1.062160	-0.088680	0.000119
C71	C	1.395493	0.244653	0.333452
C72	C	1.728827	0.577986	0.666785
C73	C	1.136342	-0.487466	0.000072
C74	C	1.469675	-0.154132	0.333406
C75	C	1.803008	0.179201	0.666739
C76	C	1.135224	-0.546871	0.000065
C77	C	1.468558	-0.213537	0.333398
C78	C	1.801891	0.119796	0.666731
O79	O	1.203992	-0.583321	0.000035
O80	O	1.537325	-0.249988	0.333369
O81	O	1.870658	0.083346	0.666702
N82	N	1.053123	-0.569849	0.000056
N83	N	1.386456	-0.236515	0.333390
N84	N	1.719789	0.096818	0.666723
C85	C	0.972133	-0.533418	0.000046
C86	C	1.305466	-0.200085	0.333379
C87	C	1.638800	0.133249	0.666712
O88	O	0.902196	-0.558417	0.000037
O89	O	1.235530	-0.225084	0.333370
O90	O	1.568863	0.108250	0.666704
C91	C	0.973251	-0.474014	0.000046
C92	C	1.306585	-0.140681	0.333380
C93	C	1.639918	0.192653	0.666713
C94	C	1.055358	-0.451040	0.000065
C95	C	1.388692	-0.117706	0.333398
C96	C	1.722025	0.215627	0.666731
C97	C	1.218442	-0.464491	0.000090
C98	C	1.551775	-0.131158	0.333423
C99	C	1.885109	0.202176	0.666756
C100	C	1.219559	-0.405090	0.000099
C101	C	1.552892	-0.071757	0.333432
C102	C	1.886226	0.261577	0.666766
C103	C	1.138576	-0.368664	0.000091
C104	C	1.471909	-0.035331	0.333425
C105	C	1.805242	0.298003	0.666758
C106	C	1.056475	-0.391639	0.000074
C107	C	1.389809	-0.058305	0.333408
C108	C	1.723142	0.275028	0.666741
C109	C	0.892263	-0.437584	0.000029
C110	C	1.225596	-0.104251	0.333362
C111	C	1.558929	0.229082	0.666695
C112	C	0.893388	-0.378177	0.000028
C113	C	1.226721	-0.044844	0.333362
C114	C	1.560055	0.288490	0.666695
C115	C	0.975495	-0.355203	0.000047
C116	C	1.308828	-0.021870	0.333380
C117	C	1.642162	0.311464	0.666713
C118	C	0.976609	-0.295812	0.000076
C119	C	1.309942	0.037522	0.333409
C120	C	1.643276	0.370855	0.666743
N121	N	1.058711	-0.272834	0.000084
N122	N	1.392044	0.060499	0.333418
N123	N	1.725377	0.393833	0.666751
C124	C	1.139694	-0.309260	0.000092
C125	C	1.473027	0.024073	0.333425
C126	C	1.806361	0.357407	0.666759
C127	C	0.969791	-0.658170	0.000043
C128	C	1.303124	-0.324837	0.333376
C129	C	1.636457	0.008496	0.666710
C130	C	0.968671	-0.717573	0.000049
C131	C	1.302005	-0.384240	0.333383
C132	C	1.635338	-0.050906	0.666716
C133	C	1.131763	-0.731022	0.000066
C134	C	1.465097	-0.397689	0.333400
C135	C	1.798430	-0.064355	0.666733
C136	C	1.132882	-0.671618	0.000067
C137	C	1.466215	-0.338285	0.333400
C138	C	1.799548	-0.004952	0.666734
C139	C	1.051892	-0.635193	0.000051
C140	C	1.385226	-0.301859	0.333384
C141	C	1.718559	0.031474	0.666718
C142	C	1.142034	-0.184513	0.000113
C143	C	1.475367	0.148820	0.333446
C144	C	1.808700	0.482153	0.666779
C145	C	1.143143	-0.125106	0.000126
C146	C	1.476477	0.208227	0.333460
C147	C	1.809810	0.541560	0.666793
C148	C	0.980052	-0.111663	0.000104
C149	C	1.313385	0.221670	0.333438
C150	C	1.646719	0.555004	0.666771
C151	C	0.978942	-0.171064	0.000096
C152	C	1.312275	0.162269	0.333429
C153	C	1.645608	0.495602	0.666762
C154	C	1.059940	-0.207489	0.000097
C155	C	1.393273	0.125845	0.333430
C156	C	1.726607	0.459178	0.666763
O157	O	0.907878	-0.259327	0.000101
O158	O	1.241211	0.074006	0.333435
O159	O	1.574544	0.407340	0.666768
O160	O	1.209619	-0.284253	0.000087
O161	O	1.542952	0.049081	0.333421
O162	O	1.876286	0.382414	0.666754
C163	C	1.219475	0.074611	0.000105
C164	C	1.552809	0.407945	0.333438
C165	C	1.886142	0.741278	0.666772
C166	C	1.318760	0.075802	0.000109
C167	C	1.652093	0.409136	0.333442
C168	C	1.985426	0.742469	0.666775
C169	C	1.048453	0.182773	0.000066
C170	C	1.381786	0.516107	0.333399
C171	C	1.715119	0.849440	0.666733
C172	C	1.049655	0.245996	0.000052
C173	C	1.382989	0.579329	0.333385
C174	C	1.716322	0.912662	0.666719
N175	N	1.055890	0.078650	0.235447
N176	N	1.389223	0.411983	0.568780
N177	N	1.722556	0.745316	0.902113
N178	N	1.055933	0.078661	-0.235267
N179	N	1.389266	0.411994	0.098066
N180	N	1.722599	0.745328	0.431399
C181	C	1.117060	0.039991	0.287502
C182	C	1.450393	0.373324	0.620835
C183	C	1.783727	0.706657	0.954168
C184	C	1.117066	0.039990	0.391605
C185	C	1.450399	0.373323	0.724938
C186	C	1.783732	0.706657	1.058272
C187	C	1.055904	0.078652	0.443651
C188	C	1.389238	0.411985	0.776985
C189	C	1.722571	0.745318	1.110318
C190	C	0.994728	0.117313	0.391589
C191	C	1.328061	0.450646	0.724922
C192	C	1.661394	0.783979	1.058256
C193	C	0.994718	0.117310	0.287488
C194	C	1.328052	0.450643	0.620821
C195	C	1.661385	0.783977	0.954154
C196	C	0.994752	0.117317	0.608569
C197	C	1.328086	0.450650	0.941902
C198	C	1.661419	0.783983	1.275236
C199	C	0.994762	0.117320	0.712678
C200	C	1.328096	0.450653	1.046011
C201	C	1.661429	0.783987	1.379344
C202	C	1.117100	0.039997	0.712686
C203	C	1.450433	0.373330	1.046020
C204	C	1.783766	0.706663	1.379353
C205	C	1.117090	0.039994	0.608585
C206	C	1.450424	0.373327	0.941918
C207	C	1.783757	0.706661	1.275252
C208	C	1.055914	0.078656	0.556530
C209	C	1.389248	0.411989	0.889863
C210	C	1.722581	0.745322	1.223197
H211	H	0.516853	-0.016172	0.000124
H212	H	0.850186	0.317162	0.333457
H213	H	1.183519	0.650495	0.666790
H214	H	1.166897	0.008515	0.566209
H215	H	1.500230	0.341849	0.899543
H216	H	1.833563	0.675182	1.232876
Cl217	Cl	1.322785	-0.376217	0.000094
Cl218	Cl	1.656118	-0.042884	0.333427
Cl219	Cl	1.989452	0.290449	0.666760
H220	H	0.944933	0.148797	0.566189
H221	H	1.278267	0.482131	0.899522
H222	H	1.611600	0.815464	1.232856
H223	H	1.284392	-0.494144	0.000092
H224	H	1.617726	-0.160810	0.333425
H225	H	1.951059	0.172523	0.666759
H226	H	1.199740	-0.652917	0.000081
H227	H	1.533074	-0.319584	0.333414
H228	H	1.866407	0.013750	0.666748
Cl229	Cl	1.246371	-0.096229	0.000147
Cl230	Cl	1.579705	0.237104	0.333481
Cl231	Cl	1.913038	0.570438	0.666814
Cl232	Cl	0.830166	-0.035433	0.000108
Cl233	Cl	1.163499	0.297901	0.333441
Cl234	Cl	1.496832	0.631234	0.666775
H235	H	0.827435	-0.348522	0.000014
H236	H	1.160769	-0.015188	0.333347
H237	H	1.494102	0.318145	0.666681
Cl238	Cl	1.194006	-0.008605	0.778131
Cl239	Cl	1.527340	0.324728	1.111464
Cl240	Cl	1.860673	0.658062	1.444797
H241	H	0.476478	0.172060	0.000057
H242	H	0.809812	0.505394	0.333390
H243	H	1.143145	0.838727	0.666723
H244	H	1.197704	-0.760691	0.000069
H245	H	1.531038	-0.427358	0.333402
H246	H	1.864371	-0.094025	0.666736
Cl247	Cl	0.619605	-0.037966	0.000128
Cl248	Cl	0.952939	0.295368	0.333461
Cl249	Cl	1.286272	0.628701	0.666795
H250	H	1.207990	-0.214164	0.000110
H251	H	1.541323	0.119170	0.333443
H252	H	1.874657	0.452503	0.666776
Cl253	Cl	0.281655	0.192751	0.000077
Cl254	Cl	0.614988	0.526084	0.333410
Cl255	Cl	0.948321	0.859418	0.666743
H256	H	0.901812	-0.736273	0.000052
H257	H	1.235145	-0.402940	0.333385
H258	H	1.568478	-0.069606	0.666718
Cl259	Cl	0.789036	-0.466451	-0.000001
Cl260	Cl	1.122369	-0.133118	0.333332
Cl261	Cl	1.455702	0.200215	0.666666
H262	H	0.903835	-0.628515	0.000038
H263	H	1.237169	-0.295182	0.333372
H264	H	1.570502	0.038151	0.666705
H265	H	0.912084	-0.189771	0.000109
H266	H	1.245417	0.143563	0.333442
H267	H	1.578750	0.476896	0.666775
H268	H	0.594969	0.173484	0.000057
H269	H	0.928303	0.506817	0.333391
H270	H	1.261636	0.840150	0.666724
Cl271	Cl	0.917868	0.165925	0.778099
Cl272	Cl	1.251201	0.499258	1.111433
Cl273	Cl	1.584535	0.832591	1.444766
H274	H	0.914118	-0.081994	0.000101
H275	H	1.247451	0.251339	0.333435
H276	H	1.580784	0.584672	0.666768
Cl277	Cl	1.193958	-0.008613	0.222083
Cl278	Cl	1.527291	0.324720	0.555417
Cl279	Cl	1.860624	0.658053	0.888750
Cl280	Cl	1.193966	-0.008611	0.457048
Cl281	Cl	1.527299	0.324722	0.790381
Cl282	Cl	1.860633	0.658055	1.123714
Cl283	Cl	0.917833	0.165914	0.457016
Cl284	Cl	1.251167	0.499248	0.790350
Cl285	Cl	1.584500	0.832581	1.123683
H286	H	0.944906	0.148789	0.245105
H287	H	1.278240	0.482123	0.578439
H288	H	1.611573	0.815456	0.911772
Cl289	Cl	0.779930	0.198745	0.000022
Cl290	Cl	1.113263	0.532078	0.333355
Cl291	Cl	1.446596	0.865411	0.666689
H292	H	0.347612	-0.018205	0.000135
H293	H	0.680945	0.315128	0.333469
H294	H	1.014278	0.648462	0.666802
