data_functionalizedCrystal
_audit_creation_method	'MofGen! by Chris Wilmer'
_symmetry_space_group_name_H-M	'P1'
_symmetry_Int_Tables_number	1
_symmetry_cell_setting	triclinic
loop_
_symmetry_equiv_pos_as_xyz
  x,y,z
_cell_length_a	16.625545
_cell_length_b	17.077404
_cell_length_c	17.077396
_cell_angle_alpha	89.980499
_cell_angle_beta	89.971947
_cell_angle_gamma	90.024262
loop_
_atom_site_label
_atom_site_type_symbol
_atom_site_fract_x
_atom_site_fract_y
_atom_site_fract_z
Zn1	Zn	0.320997	-1.200048	0.443845
Zn2	Zn	0.820997	-0.700048	0.943845
Zn3	Zn	0.455839	-1.199953	0.312580
Zn4	Zn	0.955839	-0.699953	0.812580
Zn5	Zn	0.321025	-1.068780	0.312593
Zn6	Zn	0.821025	-0.568780	0.812593
Zn7	Zn	0.455792	-1.068746	0.443804
Zn8	Zn	0.955792	-0.568746	0.943804
O9	O	0.388413	-1.134382	0.378205
O10	O	0.888413	-0.634382	0.878205
O11	O	0.338892	-1.309883	0.426444
O12	O	0.838892	-0.809883	0.926444
O13	O	0.437988	-1.182527	0.202735
O14	O	0.937988	-0.682527	0.702735
O15	O	0.208189	-1.086248	0.330027
O16	O	0.708189	-0.586248	0.830027
O17	O	0.437960	-1.309812	0.330005
O18	O	0.937960	-0.809812	0.830005
O19	O	0.208168	-1.182690	0.426457
O20	O	0.708168	-0.682690	0.926457
O21	O	0.338940	-1.086155	0.202744
O22	O	0.838940	-0.586155	0.702744
O23	O	0.338894	-0.958929	0.329986
O24	O	0.838894	-0.458929	0.829986
O25	O	0.437879	-1.086189	0.553656
O26	O	0.937879	-0.586189	1.053656
O27	O	0.437906	-0.958903	0.426386
O28	O	0.937906	-0.458903	0.926386
O29	O	0.338846	-1.182656	0.553687
O30	O	0.838846	-0.682656	1.053687
O31	O	0.568666	-1.182493	0.329964
O32	O	1.068666	-0.682493	0.829964
O33	O	0.568630	-1.086096	0.426374
O34	O	1.068630	-0.586096	0.926374
C35	C	0.597904	-1.134302	0.378180
C36	C	1.097904	-0.634302	0.878180
C37	C	0.687525	-1.134339	0.378196
C38	C	1.187525	-0.634339	0.878196
C39	C	0.388399	-0.930434	0.378184
C40	C	0.888399	-0.430434	0.878184
C41	C	0.388412	-0.843184	0.378193
C42	C	0.888412	-0.343184	0.878193
C43	C	0.388354	-1.134429	0.582950
C44	C	0.888354	-0.634429	1.082950
C45	C	0.388329	-1.134449	0.670200
C46	C	0.888329	-0.634449	1.170200
C47	C	1.015701	-1.134468	0.378290
C48	C	1.515701	-0.634468	0.878290
C49	C	0.924392	-1.134429	0.378266
C50	C	1.424392	-0.634429	0.878266
C51	C	0.851616	-1.134403	0.378242
C52	C	1.351616	-0.634403	0.878242
C53	C	0.760302	-1.134366	0.378219
C54	C	1.260302	-0.634366	0.878219
C55	C	1.178104	-1.134477	0.378257
C56	C	1.678104	-0.634477	0.878257
C57	C	1.088483	-1.134500	0.378303
C58	C	1.588483	-0.634500	0.878303
C59	C	0.388428	-1.339126	0.378228
C60	C	0.888428	-0.839126	0.878228
C61	C	0.388435	-1.426376	0.378237
C62	C	0.888435	-0.926376	0.878237
C63	C	0.440045	-0.802201	0.428308
C64	C	0.940045	-0.302201	0.928308
C65	C	0.440047	-0.720221	0.428321
C66	C	0.940047	-0.220221	0.928321
C67	C	0.388419	-0.679225	0.378214
C68	C	0.888419	-0.179225	0.878214
C69	C	0.336780	-0.720213	0.328097
C70	C	0.836780	-0.220213	0.828097
C71	C	0.336774	-0.802192	0.328089
C72	C	0.836774	-0.302192	0.828089
C73	C	0.336795	-0.549343	0.328115
C74	C	0.836795	-0.049343	0.828115
C75	C	0.336801	-0.467359	0.328122
C76	C	0.836801	0.032641	0.828122
C77	C	0.440068	-0.467372	0.428347
C78	C	0.940068	0.032628	0.928347
C79	C	0.440063	-0.549351	0.428339
C80	C	0.940063	-0.049351	0.928339
C81	C	0.388425	-0.590334	0.378221
C82	C	0.888425	-0.090334	0.878221
C83	C	0.388414	-1.134380	0.174258
C84	C	0.888414	-0.634380	0.674258
C85	C	0.388212	-1.134511	0.087008
C86	C	0.888212	-0.634511	0.587008
C87	C	0.336758	-1.184682	0.711207
C88	C	0.836758	-0.684682	1.211207
C89	C	0.336731	-1.184691	0.793187
C90	C	0.836731	-0.684691	1.293187
C91	C	0.388280	-1.134472	0.834159
C92	C	0.888280	-0.634472	1.334159
C93	C	0.439853	-1.084234	0.793146
C94	C	0.939853	-0.584234	1.293146
C95	C	0.439875	-1.084221	0.711167
C96	C	0.939875	-0.584221	1.211167
C97	C	0.439804	-1.084265	0.964016
C98	C	0.939804	-0.584265	1.464016
C99	C	0.439783	-1.084279	1.046001
C100	C	0.939783	-0.584279	1.546001
C101	C	0.336660	-1.184736	1.046037
C102	C	0.836660	-0.684736	1.546037
C103	C	0.336682	-1.184723	0.964058
C104	C	0.836682	-0.684723	1.464058
C105	C	0.388257	-1.134486	0.923050
C106	C	0.888257	-0.634486	1.423050
H107	H	0.482090	-0.835574	0.469108
H108	H	0.982090	-0.335574	0.969108
H109	H	0.482093	-0.686856	0.469128
H110	H	0.982093	-0.186856	0.969128
H111	H	0.294739	-1.225598	0.826572
H112	H	0.794739	-0.725598	1.326572
H113	H	0.481789	-1.043344	0.930631
H114	H	0.981789	-0.543344	1.430631
H115	H	0.294725	-0.835559	0.287284
H116	H	0.794725	-0.335559	0.787284
H117	H	0.481861	-1.043308	0.677780
H118	H	0.981861	-0.543308	1.177780
H119	H	0.482108	-0.582728	0.469137
H120	H	0.982108	-0.082728	0.969137
H121	H	0.294665	-1.225640	1.079429
H122	H	0.794665	-0.725640	1.579429
H123	H	0.294783	-1.225579	0.677854
H124	H	0.794783	-0.725579	1.177854
H125	H	0.294739	-0.582709	0.287311
H126	H	0.794739	-0.082709	0.787311
H127	H	0.481757	-1.043384	1.079358
H128	H	0.981757	-0.543384	1.579358
H129	H	0.481822	-1.043341	0.826512
H130	H	0.981822	-0.543341	1.326512
H131	H	0.482112	-0.433999	0.469158
H132	H	0.982112	0.066001	0.969158
H133	H	0.294752	-0.433982	0.287330
H134	H	0.794752	0.066018	0.787330
H135	H	0.294739	-0.686828	0.287302
H136	H	0.794739	-0.186828	0.787302
H137	H	0.294711	-1.225621	0.930701
H138	H	0.794711	-0.725621	1.430701
