data_functionalizedCrystal
_audit_creation_method	'MofGen! by Chris Wilmer'
_symmetry_space_group_name_H-M	'P1'
_symmetry_Int_Tables_number	1
_symmetry_cell_setting	triclinic
loop_
_symmetry_equiv_pos_as_xyz
  x,y,z
_cell_length_a	14.519731
_cell_length_b	14.519731
_cell_length_c	14.048226
_cell_angle_alpha	90.004594
_cell_angle_beta	89.994041
_cell_angle_gamma	96.311147
loop_
_atom_site_label
_atom_site_type_symbol
_atom_site_fract_x
_atom_site_fract_y
_atom_site_fract_z
O1	O	-1.223865	0.120982	0.079187
O2	O	-0.955392	0.135198	0.079184
O3	O	-1.096737	-0.006147	0.079177
O4	O	-1.082521	0.262327	0.079194
O5	O	-1.096723	-0.006148	-0.079144
O6	O	-0.955379	0.135197	-0.079137
O7	O	-1.223852	0.120981	-0.079134
Zn8	Zn	-1.089613	0.128089	-0.104273
Zn9	Zn	-1.089631	0.128090	0.104323
O10	O	-1.082507	0.262325	-0.079127
C11	C	-0.921026	0.134531	0.000023
C12	C	-0.818645	0.132535	0.000021
C13	C	-1.096064	-0.040507	0.000016
C14	C	-1.094068	-0.142887	0.000016
C15	C	-0.735501	0.130913	0.000024
C16	C	-0.631192	0.128887	0.000022
C17	C	-0.548053	0.127278	0.000020
C18	C	-0.443738	0.125252	0.000020
C19	C	-1.092446	-0.226031	0.000018
C20	C	-1.090419	-0.330340	0.000025
C21	C	-1.088811	-0.413479	0.000031
C22	C	-1.086785	-0.517795	0.000037
C23	C	-0.258218	0.121648	0.000025
C24	C	-0.360598	0.123643	0.000019
C25	C	-1.083180	0.296685	0.000036
C26	C	-1.085176	0.399066	0.000043
N27	N	-1.089608	0.128087	-0.246633
C28	C	-1.145632	0.184151	-0.296443
C29	C	-1.145644	0.184147	-0.396100
C30	C	-1.089626	0.128083	-0.445947
C31	C	-1.033599	0.072012	-0.396130
C32	C	-1.033593	0.072012	-0.296475
C33	C	-1.033614	0.072019	-0.603845
C34	C	-1.033619	0.072020	-0.703507
C35	C	-1.145666	0.184154	-0.703470
C36	C	-1.145660	0.184154	-0.603815
C37	C	-1.089631	0.128084	-0.554005
N38	N	-1.089644	0.128084	0.246683
H39	H	-1.191244	0.229811	-0.255865
F40	F	-0.973995	0.012330	-0.550836
F41	F	-0.974002	0.012346	-0.756556
F42	F	-0.973982	0.012342	-0.449183
F43	F	-1.205299	0.243825	-0.756482
F44	F	-0.973971	0.012333	-0.243464
H45	H	-1.191270	0.229811	-0.563232
F46	F	-1.205272	0.243820	-0.449107
