data_functionalizedCrystal
_audit_creation_method	'MofGen! by Chris Wilmer'
_symmetry_space_group_name_H-M	'P1'
_symmetry_Int_Tables_number	1
_symmetry_cell_setting	triclinic
loop_
_symmetry_equiv_pos_as_xyz
  x,y,z
_cell_length_a	19.805407
_cell_length_b	19.805405
_cell_length_c	19.805399
_cell_angle_alpha	90.026615
_cell_angle_beta	90.020409
_cell_angle_gamma	90.028666
loop_
_atom_site_label
_atom_site_type_symbol
_atom_site_fract_x
_atom_site_fract_y
_atom_site_fract_z
Zn1	Zn	1.034734	-0.269444	0.382739
Zn2	Zn	1.034648	-0.382632	0.269553
Zn3	Zn	0.921549	-0.269466	0.269562
Zn4	Zn	0.921512	-0.382600	0.382698
O5	O	0.978111	-0.326036	0.326138
O6	O	1.129439	-0.284463	0.367738
O7	O	1.019625	-0.367643	0.174838
O8	O	0.936615	-0.174747	0.284597
O9	O	1.129376	-0.367622	0.284581
O10	O	1.019771	-0.174730	0.367747
O11	O	0.936531	-0.284501	0.174844
O12	O	0.826827	-0.284470	0.284557
O13	O	0.936551	-0.367567	0.477420
O14	O	0.826800	-0.367589	0.367677
O15	O	1.019735	-0.284431	0.477450
O16	O	1.019589	-0.477345	0.284541
O17	O	0.936468	-0.477321	0.367668
C18	C	0.802255	-0.326029	0.326114
C19	C	0.727023	-0.326042	0.326119
C20	C	0.978034	-0.501892	0.326114
C21	C	0.978063	-0.577124	0.326126
C22	C	0.265268	-0.282816	0.369531
C23	C	0.335957	-0.282817	0.369526
C24	C	0.371261	-0.326046	0.326160
C25	C	0.335874	-0.369281	0.282801
C26	C	0.265186	-0.369283	0.282810
C27	C	0.620947	-0.369276	0.282765
C28	C	0.691639	-0.369270	0.282758
C29	C	0.691717	-0.282810	0.369481
C30	C	0.621030	-0.282812	0.369490
C31	C	0.585648	-0.326049	0.326134
C32	C	0.509000	-0.326048	0.326141
C33	C	0.447908	-0.326044	0.326149
C34	C	1.021337	-0.612401	0.369456
C35	C	1.021361	-0.683089	0.369469
C36	C	0.978114	-0.718499	0.326147
C37	C	0.934835	-0.683217	0.282815
C38	C	0.934808	-0.612530	0.282806
C39	C	0.934944	-0.968290	0.282849
C40	C	0.934976	-1.038982	0.282860
C41	C	1.021497	-1.038850	0.369512
C42	C	1.021470	-0.968163	0.369504
C43	C	0.978189	-0.932887	0.326174
C44	C	0.978162	-0.856238	0.326162
C45	C	0.978144	-0.795146	0.326155
C46	C	1.154654	-0.326043	0.326163
C47	C	1.229885	-0.326046	0.326174
C48	C	0.978149	-0.325993	0.502681
C49	C	0.978165	-0.325975	0.577913
C50	C	0.978207	-0.149493	0.326178
C51	C	0.978248	-0.074261	0.326194
C52	C	0.978112	-0.326029	0.150282
C53	C	0.978227	-0.325857	0.075051
C54	C	1.021480	-0.282684	0.613274
C55	C	1.021487	-0.282664	0.683962
C56	C	0.978182	-0.325939	0.719289
C57	C	0.934862	-0.369232	0.683923
C58	C	0.934852	-0.369248	0.613235
C59	C	0.934900	-0.369169	0.968996
C60	C	0.934915	-0.369151	1.039688
C61	C	1.021535	-0.282586	1.039723
C62	C	1.021525	-0.282601	0.969036
C63	C	0.978203	-0.325891	0.933676
C64	C	0.978195	-0.325911	0.857028
C65	C	0.978193	-0.325923	0.795936
H66	H	0.236528	-0.247609	0.404840
H67	H	0.899600	-0.404465	0.712691
N68	N	0.888140	-0.415941	0.575088
H69	H	0.856786	-0.388436	0.545762
H70	H	0.860752	-0.443348	0.608231
H71	H	1.056605	-0.711809	0.404748
H72	H	1.056791	-0.247365	0.940277
H73	H	1.056807	-0.247334	1.068522
N74	N	0.227015	-0.415907	0.236048
H75	H	0.239299	-0.464281	0.246472
H76	H	0.239311	-0.405275	0.187721
H77	H	0.899705	-0.939574	0.247568
H78	H	0.899569	-0.583808	0.247523
N79	N	1.068116	-0.929970	0.416227
H80	H	1.095533	-0.963045	0.443681
H81	H	1.040531	-0.900649	0.447519
N82	N	1.068180	-1.076897	0.416250
H83	H	1.061636	-1.127050	0.409686
H84	H	1.057614	-1.064520	0.464578
H85	H	0.899620	-0.712053	0.247544
N86	N	0.888324	-1.077171	0.236133
H87	H	0.856958	-1.106514	0.263617
H88	H	0.915909	-1.106452	0.204803
H89	H	0.720382	-0.404475	0.247443
N90	N	1.068192	-0.236013	0.575175
H91	H	1.095632	-0.208585	0.608305
H92	H	1.040655	-0.204695	0.545847
N93	N	1.068191	-0.235959	0.722103
H94	H	1.095622	-0.208546	0.688998
H95	H	1.099506	-0.263494	0.751440
N96	N	0.888205	-0.415829	1.077793
H97	H	0.860758	-0.443254	1.044667
H98	H	0.856907	-0.388265	1.107123
H99	H	0.899635	-0.404428	0.940215
H100	H	0.364762	-0.247616	0.404834
N101	N	0.373946	-0.415908	0.236025
H102	H	0.403275	-0.447308	0.263469
H103	H	0.403230	-0.388309	0.204712
N104	N	0.582959	-0.236177	0.416260
H105	H	0.595278	-0.246750	0.464601
H106	H	0.532822	-0.242753	0.409630
N107	N	0.729878	-0.236185	0.416258
H108	H	0.780015	-0.242746	0.409680
H109	H	0.717532	-0.246791	0.464577
H110	H	0.592148	-0.404481	0.247460
N111	N	1.067986	-0.574211	0.416179
H112	H	1.095402	-0.607288	0.443631
H113	H	1.040404	-0.544888	0.447472
