data_functionalizedCrystal
_audit_creation_method	'MofGen! by Chris Wilmer'
_symmetry_space_group_name_H-M	'P1'
_symmetry_Int_Tables_number	1
_symmetry_cell_setting	triclinic
loop_
_symmetry_equiv_pos_as_xyz
  x,y,z
_cell_length_a	19.188930
_cell_length_b	19.188930
_cell_length_c	18.266242
_cell_angle_alpha	89.988525
_cell_angle_beta	89.977082
_cell_angle_gamma	83.144779
loop_
_atom_site_label
_atom_site_type_symbol
_atom_site_fract_x
_atom_site_fract_y
_atom_site_fract_z
O1	O	0.926149	0.087169	-0.061124
O2	O	0.722838	0.098903	-0.061075
O3	O	0.830361	-0.008620	-0.061087
O4	O	0.818627	0.194691	-0.061113
O5	O	0.830343	-0.008625	0.060675
O6	O	0.722820	0.098897	0.060687
O7	O	0.926131	0.087163	0.060638
Zn8	Zn	0.824473	0.093029	0.079994
Zn9	Zn	0.824497	0.093037	-0.080432
O10	O	0.818608	0.194686	0.060649
C11	C	0.696818	0.098520	-0.000188
C12	C	0.619313	0.097380	-0.000169
C13	C	0.574389	0.160470	-0.000188
C14	C	0.501566	0.159399	-0.000196
C15	C	0.473669	0.095233	-0.000199
C16	C	0.518603	0.032133	-0.000175
C17	C	0.591425	0.033207	-0.000160
N18	N	0.365695	0.046188	-0.041663
N19	N	0.296516	0.045172	-0.041679
C20	C	0.254260	0.091994	-0.000243
N21	N	0.283795	0.139881	0.041200
N22	N	0.352980	0.140899	0.041213
C23	C	0.394707	0.094062	-0.000215
C24	C	0.130372	0.153928	-0.000270
C25	C	0.057547	0.152853	-0.000274
C26	C	0.074586	0.025586	-0.000261
C27	C	0.147409	0.026662	-0.000250
C28	C	0.175298	0.090835	-0.000258
C29	C	0.829972	-0.034634	-0.000204
C30	C	0.828831	-0.112138	-0.000197
C31	C	0.891922	-0.157062	-0.000209
C32	C	0.890850	-0.229886	-0.000220
C33	C	0.826684	-0.257782	-0.000206
C34	C	0.763585	-0.212849	-0.000198
C35	C	0.764658	-0.140026	-0.000194
N36	N	0.777631	-0.365789	0.041244
N37	N	0.776615	-0.434968	0.041242
C38	C	0.823446	-0.477191	-0.000220
N39	N	0.871341	-0.447624	-0.041669
N40	N	0.872359	-0.378439	-0.041664
C41	C	0.825513	-0.336745	-0.000210
C42	C	0.885379	-0.601079	-0.000245
C43	C	0.884305	-0.673904	-0.000261
C44	C	0.757038	-0.656865	-0.000231
C45	C	0.758114	-0.584042	-0.000222
C46	C	0.822287	-0.556154	-0.000226
C47	C	0.952151	0.087546	-0.000252
C48	C	1.029656	0.088687	-0.000276
C49	C	0.818997	0.220700	-0.000236
C50	C	0.820138	0.298204	-0.000247
N51	N	0.824461	0.093024	0.189481
N52	N	0.824513	0.093037	-0.189919
C53	C	0.872088	0.045436	0.227785
C54	C	0.872092	0.045433	0.304430
C55	C	0.824477	0.093030	0.342768
C56	C	0.776841	0.140621	0.304455
C57	C	0.776834	0.140618	0.227812
N58	N	0.815401	0.154837	0.463094
N59	N	0.815413	0.154838	0.535902
C60	C	0.824496	0.093040	0.573691
N61	N	0.833582	0.031239	0.535920
N62	N	0.833574	0.031240	0.463106
C63	C	0.824480	0.093038	0.425875
C64	C	0.872131	0.045444	0.695101
C65	C	0.872130	0.045440	0.771748
C66	C	0.776882	0.140634	0.771772
C67	C	0.776879	0.140632	0.695127
C68	C	0.824507	0.093038	0.656796
H69	H	0.020970	0.204232	-0.000285
H70	H	0.711340	-0.235567	-0.000187
O71	O	0.491624	-0.030259	-0.000150
C72	C	0.546895	-0.085717	-0.000150
H73	H	0.596294	-0.066299	0.022915
H74	H	0.557295	-0.105164	-0.058561
C75	C	0.465820	-0.170106	0.019271
C76	C	0.526491	-0.146258	0.047605
H77	H	0.453233	-0.207452	0.048726
H78	H	0.428582	-0.132743	0.019269
H79	H	0.474494	-0.186307	-0.029404
H80	H	0.517813	-0.130049	0.096276
H81	H	0.563727	-0.183619	0.047617
O82	O	0.157352	0.216323	-0.000238
C83	C	0.102081	0.271781	-0.000268
H84	H	0.052656	0.252360	0.022778
H85	H	0.091746	0.291236	-0.058686
C86	C	0.183134	0.356167	0.019176
C87	C	0.122431	0.332315	0.047487
H88	H	0.195688	0.393509	0.048630
H89	H	0.220372	0.318804	0.019193
H90	H	0.174514	0.372375	-0.029506
H91	H	0.131055	0.316100	0.096164
H92	H	0.085195	0.369677	0.047479
H93	H	0.597091	0.212725	-0.000196
H94	H	0.704792	-0.679578	-0.000222
H95	H	0.464982	0.210776	-0.000210
O96	O	0.047580	-0.036790	-0.000361
C97	C	0.070578	-0.075227	-0.063424
H98	H	0.121040	-0.056352	-0.084441
H99	H	0.028435	-0.067010	-0.107590
C100	C	0.022484	-0.176994	-0.018444
C101	C	0.084465	-0.153815	-0.044254
H102	H	0.031047	-0.225472	-0.006621
H103	H	0.006987	-0.151098	0.024042
H104	H	-0.012629	-0.170141	-0.055253
H105	H	0.119574	-0.160661	-0.007442
H106	H	0.099968	-0.179715	-0.086733
H107	H	0.944176	-0.134360	-0.000214
O108	O	0.918132	-0.000920	0.190439
C109	C	0.907799	0.009164	0.114577
H110	H	0.881798	0.064824	0.104033
H111	H	0.872622	-0.030097	0.093043
C112	C	1.011090	-0.070335	0.087994
C113	C	0.979161	-0.001970	0.075042
H114	H	1.055108	-0.077206	0.063605
H115	H	1.018051	-0.077131	0.139103
H116	H	0.981769	-0.103045	0.070048
H117	H	1.008478	0.030738	0.092996
H118	H	0.972207	0.004832	0.023935
H119	H	0.738100	0.179386	0.663938
O120	O	0.730560	0.186897	0.808891
C121	C	0.688536	0.228916	0.758642
H122	H	0.687832	0.200290	0.704016
H123	H	0.711044	0.280728	0.750467
C124	C	0.614042	0.278652	0.855683
C125	C	0.613173	0.243491	0.788591
H126	H	0.567555	0.287646	0.874157
H127	H	0.642356	0.250346	0.889537
H128	H	0.632802	0.321825	0.848861
H129	H	0.594422	0.200316	0.795416
H130	H	0.584854	0.271791	0.754739
H131	H	0.935683	-0.710481	-0.000274
H132	H	0.738049	0.179371	0.196624
H133	H	0.942228	-0.266470	-0.000233
O134	O	0.191122	-0.034580	-0.000339
C135	C	0.233777	-0.037770	-0.063402
H136	H	0.237303	0.017640	-0.084428
H137	H	0.209938	-0.069580	-0.107563
C138	C	0.303479	-0.141187	-0.018407
C139	C	0.307815	-0.073132	-0.044228
H140	H	0.349149	-0.163003	-0.006581
H141	H	0.274741	-0.139040	0.024079
H142	H	0.283611	-0.167687	-0.055212
H143	H	0.327675	-0.046631	-0.007420
H144	H	0.336559	-0.075275	-0.086707
H145	H	0.628003	-0.018171	-0.000145
O146	O	0.947774	-0.574099	-0.000294
C147	C	1.003232	-0.629371	-0.000299
H148	H	0.983814	-0.678778	-0.023347
H149	H	1.022681	-0.639749	0.058109
C150	C	1.087620	-0.548303	-0.019760
C151	C	1.063772	-0.608984	-0.048075
H152	H	1.124966	-0.535727	-0.049228
H153	H	1.050258	-0.511065	-0.019754
H154	H	1.103823	-0.556959	0.028913
H155	H	1.047562	-0.600324	-0.096743
H156	H	1.101133	-0.646221	-0.048090
H157	H	0.713281	-0.103448	-0.000184
H158	H	0.706738	-0.547464	-0.000208
H159	H	0.910877	0.006680	0.335623
H160	H	0.738071	0.179374	0.335674
O161	O	0.918415	-0.000859	0.657975
C162	C	0.960460	-0.042857	0.708223
H163	H	0.931842	-0.043574	0.762872
H164	H	1.012255	-0.020315	0.716344
C165	C	1.010230	-0.117333	0.611200
C166	C	0.975078	-0.118219	0.678318
H167	H	1.019250	-0.163820	0.592752
H168	H	0.981905	-0.089037	0.577346
H169	H	1.053388	-0.098545	0.617976
H170	H	0.931916	-0.136998	0.671539
H171	H	1.003396	-0.146520	0.712170
H172	H	0.910911	0.006685	0.802935
