data_functionalizedCrystal
_audit_creation_method	'MofGen! by Chris Wilmer'
_symmetry_space_group_name_H-M	'P1'
_symmetry_Int_Tables_number	1
_symmetry_cell_setting	triclinic
loop_
_symmetry_equiv_pos_as_xyz
  x,y,z
_cell_length_a	6.817900
_cell_length_b	12.000057
_cell_length_c	23.753023
_cell_angle_alpha	93.352551
_cell_angle_beta	100.067528
_cell_angle_gamma	119.141479
loop_
_atom_site_label
_atom_site_type_symbol
_atom_site_fract_x
_atom_site_fract_y
_atom_site_fract_z
V1	V	-4.076515	-0.178487	-0.179362
O2	O	-3.973619	0.006916	-0.174955
O3	O	-4.113733	-0.352313	-0.179091
O4	O	-4.010559	-0.176471	-0.257153
O5	O	-4.077507	-0.170143	-0.096353
V6	V	-4.551324	-0.156225	-0.169318
O7	O	-4.356889	-0.227322	-0.201396
O8	O	-4.721147	-0.107390	-0.147284
O9	O	-4.290899	0.017601	-0.169589
O10	O	-4.771616	-0.341628	-0.173725
O11	O	-4.667728	-0.164569	-0.252327
O12	O	-4.394073	-0.158242	-0.091527
C13	C	-3.980130	-0.394665	-0.176508
C14	C	-4.091730	-0.536774	-0.176805
C15	C	-3.848520	-0.170359	-0.276083
C16	C	-3.876444	-0.169861	-0.339683
C17	C	-4.081269	-0.740797	-0.174493
C18	C	-3.965923	-0.593920	-0.174188
C19	C	-4.145966	-0.284066	-0.742896
C20	C	-4.172248	-0.283617	-0.802657
O21	O	-4.267587	-0.383010	-0.841060
N22	N	-4.089337	-0.166246	-0.823735
C23	C	-3.980158	-0.049317	-0.785048
O24	O	-3.912051	0.050558	-0.808463
C25	C	-3.953892	-0.049767	-0.725288
C26	C	-4.036790	-0.167145	-0.704214
C27	C	-4.228858	-0.401434	-0.721822
C28	C	-4.202574	-0.401882	-0.662065
C29	C	-4.093397	-0.284962	-0.623382
C30	C	-4.010505	-0.167593	-0.644457
C31	C	-3.844729	0.067160	-0.686603
C32	C	-3.818471	0.066700	-0.626840
C33	C	-3.901369	-0.050678	-0.605766
C34	C	-3.875045	-0.051120	-0.546018
N35	N	-3.957955	-0.168491	-0.524941
C36	C	-4.067132	-0.285412	-0.563623
C37	C	-4.035329	-0.048380	-0.910548
C38	C	-4.061578	-0.047928	-0.970306
C39	C	-4.253671	-0.282229	-0.987912
C40	C	-4.227405	-0.282679	-0.928152
C41	C	-4.118239	-0.165751	-0.889470
C42	C	-4.011924	-0.286344	-0.438128
C43	C	-3.985620	-0.286781	-0.378365
C44	C	-3.793541	-0.052481	-0.360765
C45	C	-3.819831	-0.052043	-0.420523
C46	C	-3.929037	-0.168985	-0.459204
O47	O	-3.779739	0.048221	-0.507581
O48	O	-4.135248	-0.385271	-0.540199
C49	C	-4.087848	0.059946	-0.172170
C50	C	-3.955486	0.202054	-0.171878
C51	C	-4.219457	-0.164357	-0.072594
C52	C	-4.170768	-0.164849	-0.008994
H53	H	-3.772829	-0.534114	-0.171720
H54	H	-4.274350	-0.800605	-0.176956
H55	H	-3.752340	0.043535	-0.437682
O56	O	-4.292000	-0.528488	-0.639342
H57	H	-4.422681	-0.539095	-0.614735
O58	O	-4.347502	-0.615973	-0.180071
H59	H	-4.397973	-0.718909	-0.179802
O60	O	-3.699723	-0.718736	-0.168611
H61	H	-3.659806	-0.755173	-0.206529
O62	O	-4.075034	-0.413385	-0.355634
H63	H	-4.155386	-0.494609	-0.392576
H64	H	-3.704642	0.042713	-0.329259
H65	H	-4.100844	-0.381569	-0.469616
O66	O	-4.346564	-0.527549	-0.763539
H67	H	-4.399746	-0.609224	-0.738834
H68	H	-4.294909	-0.378259	-0.910998
H69	H	-3.994044	0.047654	-0.987458
O70	O	-3.917532	0.077744	-0.868826
H71	H	-3.864278	0.159426	-0.893527
H72	H	-4.342573	-0.377432	-1.019418
O73	O	-3.755194	0.193766	-0.709323
H74	H	-3.674850	0.274979	-0.672376
O75	O	-3.700705	0.192818	-0.585117
H76	H	-3.647466	0.274504	-0.609816
