data_functionalizedCrystal
_audit_creation_method	'MofGen! by Chris Wilmer'
_symmetry_space_group_name_H-M	'P1'
_symmetry_Int_Tables_number	1
_symmetry_cell_setting	triclinic
loop_
_symmetry_equiv_pos_as_xyz
  x,y,z
_cell_length_a	14.519731
_cell_length_b	13.596369
_cell_length_c	10.654550
_cell_angle_alpha	89.998281
_cell_angle_beta	84.086892
_cell_angle_gamma	89.993567
loop_
_atom_site_label
_atom_site_type_symbol
_atom_site_fract_x
_atom_site_fract_y
_atom_site_fract_z
O1	O	-1.224711	0.081807	-0.164753
O2	O	-0.891377	0.415141	0.168581
O3	O	-0.558044	0.748474	0.501914
O4	O	-0.956337	0.081803	-0.184111
O5	O	-0.623003	0.415136	0.149222
O6	O	-0.289670	0.748469	0.482555
O7	O	-1.096694	0.081809	0.008366
O8	O	-0.763361	0.415142	0.341699
O9	O	-0.430027	0.748476	0.675033
O10	O	-1.084353	0.081801	-0.357230
O11	O	-0.751020	0.415134	-0.023897
O12	O	-0.417687	0.748467	0.309437
O13	O	-1.096680	-0.081774	0.008376
O14	O	-0.763347	0.251559	0.341710
O15	O	-0.430013	0.584893	0.675043
O16	O	-0.956323	-0.081780	-0.184101
O17	O	-0.622989	0.251553	0.149232
O18	O	-0.289656	0.584886	0.482566
O19	O	-1.224696	-0.081776	-0.164742
O20	O	-0.891363	0.251558	0.168591
O21	O	-0.558030	0.584891	0.501924
Zn22	Zn	-1.090507	-0.107750	-0.174420
Zn23	Zn	-0.757174	0.225583	0.158913
Zn24	Zn	-0.423841	0.558916	0.492247
Zn25	Zn	-1.090526	0.107777	-0.174434
Zn26	Zn	-0.757193	0.441111	0.158900
Zn27	Zn	-0.423859	0.774444	0.492233
O28	O	-1.084339	-0.081782	-0.357220
O29	O	-0.751006	0.251551	-0.023886
O30	O	-0.417672	0.584884	0.309447
C31	C	-0.921965	0.000011	-0.183199
C32	C	-0.588632	0.333344	0.150134
C33	C	-0.255299	0.666677	0.483468
C34	C	-0.819571	0.000009	-0.180481
C35	C	-0.486238	0.333343	0.152852
C36	C	-0.152904	0.666676	0.486186
N37	N	-1.090501	-0.254842	-0.174410
N38	N	-0.757168	0.078491	0.158923
N39	N	-0.423835	0.411824	0.492257
C40	C	-0.736416	0.000012	-0.178272
C41	C	-0.403082	0.333345	0.155061
C42	C	-0.069749	0.666678	0.488394
C43	C	-0.632093	0.000010	-0.175513
C44	C	-0.298759	0.333343	0.157821
C45	C	0.034574	0.666677	0.491154
C46	C	-0.548942	0.000009	-0.173322
C47	C	-0.215609	0.333342	0.160011
C48	C	0.117725	0.666675	0.493344
C49	C	-0.444612	0.000009	-0.170563
C50	C	-0.111279	0.333342	0.162770
C51	C	0.222054	0.666675	0.496104
C52	C	-1.090525	-0.656133	-0.174435
C53	C	-0.757191	-0.322800	0.158898
C54	C	-0.423858	0.010534	0.492232
C55	C	-1.090515	-0.544482	-0.174432
C56	C	-0.757182	-0.211148	0.158901
C57	C	-0.423849	0.122185	0.492234
C58	C	-1.090513	-0.455491	-0.174423
C59	C	-0.757180	-0.122158	0.158910
C60	C	-0.423847	0.211175	0.492243
C61	C	-1.090503	-0.343833	-0.174419
C62	C	-0.757170	-0.010499	0.158914
C63	C	-0.423837	0.322834	0.492248
C64	C	-0.259068	0.000014	-0.165655
C65	C	0.074266	0.333347	0.167679
C66	C	0.407599	0.666680	0.501012
C67	C	-0.361462	0.000007	-0.168373
C68	C	-0.028129	0.333341	0.164961
C69	C	0.305205	0.666674	0.498294
C70	C	-1.085252	0.000008	-0.404014
C71	C	-0.751919	0.333342	-0.070681
C72	C	-0.418586	0.666675	0.262653
C73	C	-1.087963	0.000005	-0.543432
C74	C	-0.754630	0.333339	-0.210098
C75	C	-0.421297	0.666672	0.123235
N76	N	-1.090539	0.254869	-0.174434
N77	N	-0.757206	0.588202	0.158900
N78	N	-0.423872	0.921536	0.492233
C79	C	-1.005323	0.000006	-0.623703
C80	C	-0.671990	0.333340	-0.290370
C81	C	-0.338656	0.666673	0.042963
C82	C	-1.007876	0.000022	-0.754700
C83	C	-0.674543	0.333355	-0.421366
C84	C	-0.341209	0.666689	-0.088033
C85	C	-1.175716	0.000032	-0.725140
C86	C	-0.842383	0.333365	-0.391807
C87	C	-0.509050	0.666699	-0.058474
C88	C	-1.173163	0.000023	-0.594146
C89	C	-0.839829	0.333357	-0.260813
C90	C	-0.506496	0.666690	0.072520
C91	C	-1.095781	0.000021	0.055160
C92	C	-0.762448	0.333354	0.388494
C93	C	-0.429114	0.666687	0.721827
C94	C	-1.093070	0.000030	0.194578
C95	C	-0.759736	0.333363	0.527911
C96	C	-0.426403	0.666697	0.861245
H97	H	-0.935948	-0.000012	-0.582416
H98	H	-0.602615	0.333322	-0.249083
H99	H	-0.269282	0.666655	0.084250
Br100	Br	-1.285325	0.000032	-0.485196
Br101	Br	-0.951992	0.333366	-0.151863
Br102	Br	-0.618659	0.666699	0.181471
Br103	Br	-0.895716	0.000032	-0.863636
Br104	Br	-0.562383	0.333366	-0.530303
Br105	Br	-0.229049	0.666699	-0.196970
Br106	Br	-1.291338	0.000054	-0.793976
Br107	Br	-0.958005	0.333388	-0.460642
Br108	Br	-0.624672	0.666721	-0.127309
