data_functionalizedCrystal
_audit_creation_method	'MofGen! by Chris Wilmer'
_symmetry_space_group_name_H-M	'P1'
_symmetry_Int_Tables_number	1
_symmetry_cell_setting	triclinic
loop_
_symmetry_equiv_pos_as_xyz
  x,y,z
_cell_length_a	9.198806
_cell_length_b	14.971486
_cell_length_c	14.971486
_cell_angle_alpha	83.614129
_cell_angle_beta	89.996607
_cell_angle_gamma	90.001013
loop_
_atom_site_label
_atom_site_type_symbol
_atom_site_fract_x
_atom_site_fract_y
_atom_site_fract_z
O1	O	0.120726	-1.186944	-0.116561
O2	O	0.120766	-0.926544	-0.130520
O3	O	0.120734	-1.063724	0.006660
O4	O	0.120757	-1.049765	-0.253740
O5	O	-0.121051	-1.063713	0.006660
O6	O	-0.121019	-0.926533	-0.130519
O7	O	-0.121059	-1.186933	-0.116560
Cu8	Cu	-0.143116	-1.056732	-0.123540
Cu9	Cu	0.142823	-1.056745	-0.123540
O10	O	-0.121028	-1.049754	-0.253740
C11	C	-0.000122	-0.893214	-0.129895
C12	C	-0.000107	-0.793917	-0.128024
N13	N	-0.344230	-1.056730	-0.123539
C14	C	-0.000158	-1.063094	0.039985
C15	C	-0.000156	-1.061223	0.139282
C16	C	-0.416440	-1.114329	-0.065689
C17	C	-0.583853	-1.114343	-0.065686
N18	N	0.343937	-1.056755	-0.123534
C19	C	-0.000168	-1.220263	-0.117185
C20	C	-0.000174	-1.319561	-0.119056
C21	C	-0.000102	-0.736692	-0.208614
C22	C	-0.000124	-0.643392	-0.206850
C23	C	-0.000140	-0.607320	-0.124497
C24	C	-0.000150	-0.664552	-0.043902
C25	C	-0.000138	-0.757850	-0.045666
C26	C	-0.000170	-0.470090	-0.040231
C27	C	-0.000179	-0.376786	-0.038466
C28	C	-0.000156	-0.355632	-0.201415
C29	C	-0.000144	-0.448930	-0.203179
C30	C	-0.000151	-0.506156	-0.122584
C31	C	-0.000133	-1.050384	-0.287065
C32	C	-0.000125	-1.052254	-0.386362
C33	C	-0.000169	-1.141812	0.196507
C34	C	-0.000154	-1.140049	0.289807
C35	C	-0.000137	-1.057696	0.325879
C36	C	-0.000119	-0.977101	0.268646
C37	C	-0.000123	-0.978865	0.175349
C38	C	-0.000113	-0.973430	0.463109
C39	C	-0.000111	-0.971665	0.556413
C40	C	-0.000144	-1.134614	0.577567
C41	C	-0.000149	-1.136378	0.484269
C42	C	-0.000134	-1.055782	0.427043
H43	H	-0.354325	-1.163630	-0.016160
H44	H	-0.645950	-1.163660	-0.016161
C45	C	-0.428132	-0.990120	-0.190449
C46	C	-0.407365	-0.888218	-0.189079
C47	C	-0.491263	-0.821606	-0.255991
C48	C	-0.595926	-0.856897	-0.324272
C49	C	-0.616698	-0.958804	-0.325644
C50	C	-0.532800	-1.025415	-0.258733
H51	H	-0.329883	-0.862090	-0.138531
H52	H	-0.475886	-0.746168	-0.254975
H53	H	-0.658032	-0.807586	-0.373805
H54	H	-0.694180	-0.984932	-0.376193
H55	H	-0.548177	-1.100854	-0.259749
H56	H	-0.000152	-1.200238	0.624165
H57	H	-0.593975	-1.007442	-0.173067
H58	H	-0.000088	-0.766054	-0.275675
C59	C	-0.000175	-0.533042	0.048424
C60	C	-0.125730	-0.528952	0.115885
C61	C	-0.125726	-0.591905	0.204536
C62	C	-0.000167	-0.658949	0.225725
C63	C	0.125397	-0.663042	0.158262
C64	C	0.125394	-0.600088	0.069611
H65	H	-0.218684	-0.479320	0.100200
H66	H	-0.218678	-0.588875	0.254476
H67	H	-0.000165	-0.705550	0.291350
H68	H	0.218352	-0.712673	0.173947
H69	H	0.218345	-0.603119	0.019671
C70	C	-0.000119	-0.580448	-0.295503
C71	C	0.125447	-0.584540	-0.362956
C72	C	0.125446	-0.521598	-0.451614
C73	C	-0.000121	-0.454563	-0.472819
C74	C	-0.125696	-0.450469	-0.405364
C75	C	-0.125695	-0.513411	-0.316706
H76	H	0.218407	-0.634165	-0.347261
H77	H	0.218406	-0.524629	-0.501549
H78	H	-0.000122	-0.407970	-0.538449
H79	H	-0.218656	-0.400843	-0.421059
H80	H	-0.218655	-0.510379	-0.266771
H81	H	-0.000168	-1.205673	0.336396
C82	C	-0.000165	-1.226967	0.444590
C83	C	-0.125722	-1.293938	0.466148
C84	C	-0.125731	-1.384529	0.426470
C85	C	-0.000183	-1.408149	0.365233
C86	C	0.125384	-1.341176	0.343671
C87	C	0.125393	-1.250586	0.383349
H88	H	-0.218669	-1.276455	0.511483
H89	H	-0.218685	-1.434106	0.442432
H90	H	-0.000190	-1.475209	0.335860
H91	H	0.218331	-1.358660	0.298336
H92	H	0.218347	-1.201008	0.367387
C93	C	-0.000090	-0.886512	0.308326
C94	C	-0.125634	-0.862881	0.369562
C95	C	-0.125605	-0.772291	0.409241
C96	C	-0.000033	-0.705331	0.387684
C97	C	0.125520	-0.728959	0.326445
C98	C	0.125492	-0.819550	0.286766
H99	H	-0.218598	-0.912451	0.385522
H100	H	-0.218549	-0.754800	0.454574
H101	H	-0.000012	-0.638270	0.417056
H102	H	0.218484	-0.679390	0.310484
H103	H	0.218435	-0.837041	0.241433
H104	H	-0.000117	-0.478296	-0.270239
H105	H	-0.000157	-0.309033	-0.267039
H106	H	-0.000194	-0.347419	0.028593
H107	H	-0.000120	-0.904606	0.585780
H108	H	-0.000184	-0.635175	0.023152
H109	H	-0.000141	-0.804443	0.019958
H110	H	-0.000193	-1.208874	0.167145
H111	H	-0.000097	-0.907800	0.416517
H112	H	-0.000112	-0.913240	0.128756
