data_functionalizedCrystal
_audit_creation_method	'MofGen! by Chris Wilmer'
_symmetry_space_group_name_H-M	'P1'
_symmetry_Int_Tables_number	1
_symmetry_cell_setting	triclinic
loop_
_symmetry_equiv_pos_as_xyz
  x,y,z
_cell_length_a	18.215407
_cell_length_b	12.645330
_cell_length_c	18.215407
_cell_angle_alpha	90.007295
_cell_angle_beta	90.010236
_cell_angle_gamma	90.018140
loop_
_atom_site_label
_atom_site_type_symbol
_atom_site_fract_x
_atom_site_fract_y
_atom_site_fract_z
Zn1	Zn	1.125039	-0.422202	0.416141
Zn2	Zn	1.458372	-0.088869	0.749474
Zn3	Zn	1.791706	0.244464	1.082807
Zn4	Zn	1.124983	-0.599436	0.293085
Zn5	Zn	1.458317	-0.266102	0.626418
Zn6	Zn	1.791650	0.067231	0.959752
Zn7	Zn	1.001992	-0.422188	0.293088
Zn8	Zn	1.335326	-0.088855	0.626422
Zn9	Zn	1.668659	0.244478	0.959755
Zn10	Zn	1.001953	-0.599425	0.416110
Zn11	Zn	1.335286	-0.266092	0.749443
Zn12	Zn	1.668620	0.067241	1.082777
O13	O	1.063492	-0.510813	0.354606
O14	O	1.396825	-0.177480	0.687939
O15	O	1.730159	0.155854	1.021273
O16	O	1.228016	-0.445723	0.399829
O17	O	1.561349	-0.112389	0.733162
O18	O	1.894683	0.220944	1.066495
O19	O	1.108662	-0.575922	0.190101
O20	O	1.441995	-0.242589	0.523435
O21	O	1.775328	0.090745	0.856768
O22	O	1.018354	-0.273843	0.309426
O23	O	1.351688	0.059491	0.642759
O24	O	1.685021	0.392824	0.976092
O25	O	1.227975	-0.575936	0.309420
O26	O	1.561308	-0.242602	0.642754
O27	O	1.894642	0.090731	0.976087
O28	O	1.108756	-0.273853	0.399832
O29	O	1.442090	0.059480	0.733165
O30	O	1.775423	0.392814	1.066498
O31	O	1.018300	-0.445699	0.190104
O32	O	1.351634	-0.112366	0.523437
O33	O	1.684967	0.220968	0.856770
O34	O	0.899003	-0.445689	0.309396
O35	O	1.232336	-0.112356	0.642729
O36	O	1.565669	0.220978	0.976062
O37	O	1.018287	-0.575918	0.519098
O38	O	1.351621	-0.242585	0.852432
O39	O	1.684954	0.090749	1.185765
O40	O	0.898974	-0.575904	0.399779
O41	O	1.232307	-0.242571	0.733113
O42	O	1.565641	0.090762	1.066446
O43	O	1.108718	-0.445713	0.519121
O44	O	1.442051	-0.112379	0.852454
O45	O	1.775385	0.220954	1.185788
O46	O	1.108624	-0.747782	0.309390
O47	O	1.441957	-0.414448	0.642724
O48	O	1.775290	-0.081115	0.976057
O49	O	1.018233	-0.747774	0.399776
O50	O	1.351567	-0.414441	0.733110
O51	O	1.684900	-0.081107	1.066443
C52	C	0.872286	-0.510795	0.354585
C53	C	1.205619	-0.177461	0.687918
C54	C	1.538952	0.155872	1.021252
C55	C	0.790487	-0.510813	0.354593
C56	C	1.123820	-0.177479	0.687927
C57	C	1.457153	0.155854	1.021260
C58	C	0.602297	-0.578722	0.401597
C59	C	0.935630	-0.245389	0.734930
C60	C	1.268964	0.087944	1.068264
C61	C	0.525438	-0.578726	0.401606
C62	C	0.858772	-0.245392	0.734940
C63	C	1.192105	0.087941	1.068273
C64	C	0.525439	-0.442923	0.307631
C65	C	0.858772	-0.109589	0.640964
C66	C	1.192105	0.223744	0.974298
C67	C	0.602296	-0.442915	0.307626
C68	C	0.935629	-0.109582	0.640960
C69	C	1.268963	0.223752	0.974293
C70	C	0.640723	-0.510821	0.354608
C71	C	0.974057	-0.177487	0.687941
C72	C	1.307390	0.155846	1.021275
C73	C	0.487007	-0.510832	0.354622
C74	C	0.820340	-0.177499	0.687955
C75	C	1.153674	0.155835	1.021289
C76	C	0.403674	-0.510835	0.354632
C77	C	0.737007	-0.177502	0.687965
C78	C	1.070340	0.155832	1.021298
C79	C	0.724062	-0.510816	0.354600
C80	C	1.057396	-0.177483	0.687933
C81	C	1.390729	0.155850	1.021266
C82	C	1.063438	-0.786243	0.354596
C83	C	1.396772	-0.452909	0.687929
C84	C	1.730105	-0.119576	1.021262
C85	C	1.063483	-0.904073	0.354616
C86	C	1.396816	-0.570739	0.687949
C87	C	1.730149	-0.237406	1.021283
C88	C	1.006853	-1.071676	0.411653
C89	C	1.340186	-0.738343	0.744986
C90	C	1.673519	-0.405009	1.078320
C91	C	1.006563	-0.949117	0.411470
C92	C	1.339896	-0.615783	0.744803
C93	C	1.673230	-0.282450	1.078136
C94	C	1.042503	-0.948633	0.277057
C95	C	1.375836	-0.615299	0.610391
C96	C	1.709169	-0.281966	0.943724
C97	C	1.042157	-1.071231	0.277404
C98	C	1.375490	-0.737898	0.610737
C99	C	1.708824	-0.404565	0.944070
C100	C	1.141439	-1.071170	0.374508
C101	C	1.474772	-0.737837	0.707842
C102	C	1.808105	-0.404503	1.041175
C103	C	1.140961	-0.948564	0.376204
C104	C	1.474294	-0.615230	0.709538
C105	C	1.807627	-0.281897	1.042871
C106	C	1.255445	-0.510832	0.354628
C107	C	1.588778	-0.177499	0.687961
C108	C	1.922111	0.155835	1.021294
C109	C	1.337244	-0.510840	0.354637
C110	C	1.670577	-0.177507	0.687970
C111	C	2.003910	0.155827	1.021304
C112	C	1.063505	-0.510816	0.546559
C113	C	1.396838	-0.177482	0.879892
C114	C	1.730171	0.155851	1.213226
C115	C	1.063510	-0.510817	0.628358
C116	C	1.396843	-0.177484	0.961691
C117	C	1.730177	0.155850	1.295024
C118	C	1.063566	-0.234308	0.354632
C119	C	1.396899	0.099026	0.687966
C120	C	1.730233	0.432359	1.021299
C121	C	1.063597	-0.116478	0.354644
C122	C	1.396931	0.216856	0.687977
C123	C	1.730264	0.550189	1.021310
C124	C	1.110583	-0.443030	0.816565
C125	C	1.443916	-0.109697	1.149898
C126	C	1.777249	0.223636	1.483231
C127	C	1.110579	-0.443030	0.893423
C128	C	1.443912	-0.109696	1.226757
C129	C	1.777245	0.223637	1.560090
C130	C	1.016413	-0.578619	0.893389
C131	C	1.349747	-0.245286	1.226722
C132	C	1.683080	0.088048	1.560055
C133	C	1.016414	-0.578613	0.816531
C134	C	1.349748	-0.245280	1.149865
C135	C	1.683081	0.088053	1.483198
C136	C	1.063503	-0.510821	0.778121
C137	C	1.396836	-0.177487	1.111455
C138	C	1.730170	0.155846	1.444788
C139	C	1.063498	-0.510826	0.931837
C140	C	1.396831	-0.177492	1.265171
C141	C	1.730165	0.155841	1.598504
C142	C	1.063493	-0.510826	1.015171
C143	C	1.396827	-0.177492	1.348504
C144	C	1.730160	0.155841	1.681838
C145	C	1.063507	-0.510819	0.694782
C146	C	1.396840	-0.177486	1.028116
C147	C	1.730174	0.155848	1.361449
C148	C	1.063480	-0.510833	1.163400
C149	C	1.396813	-0.177500	1.496733
C150	C	1.730146	0.155834	1.830066
C151	C	1.063491	-0.510829	1.081601
C152	C	1.396825	-0.177496	1.414934
C153	C	1.730158	0.155837	1.748268
H154	H	1.019687	-0.918988	0.468979
H155	H	1.353021	-0.585654	0.802312
H156	H	1.686354	-0.252321	1.135645
Br157	Br	1.174487	-0.351024	0.764439
Br158	Br	1.507820	-0.017691	1.097772
Br159	Br	1.841154	0.315642	1.431106
Br160	Br	1.174480	-0.351032	0.945594
Br161	Br	1.507814	-0.017699	1.278927
Br162	Br	1.841147	0.315635	1.612261
H163	H	0.978071	-0.633816	0.785230
H164	H	1.311405	-0.300482	1.118563
H165	H	1.644738	0.032851	1.451896
H166	H	0.978077	-0.633816	0.924671
H167	H	1.311410	-0.300483	1.258005
H168	H	1.644744	0.032851	1.591338
Br169	Br	0.473291	-0.670877	0.465383
Br170	Br	0.806624	-0.337544	0.798717
Br171	Br	1.139958	-0.004210	1.132050
H172	H	0.633584	-0.387615	0.269362
H173	H	0.966917	-0.054281	0.602695
H174	H	1.300250	0.279052	0.936029
Br175	Br	0.654446	-0.670877	0.465359
Br176	Br	0.987780	-0.337544	0.798693
Br177	Br	1.321113	-0.004210	1.132026
H178	H	1.019856	-1.101113	0.469351
H179	H	1.353190	-0.767780	0.802684
H180	H	1.686523	-0.434447	1.136017
H181	H	0.494142	-0.387638	0.269379
H182	H	0.827475	-0.054305	0.602712
H183	H	1.160809	0.279029	0.936046
H184	H	0.986194	-0.918015	0.259925
H185	H	1.319527	-0.584681	0.593259
H186	H	1.652860	-0.251348	0.926592
Br187	Br	1.211906	-1.119474	0.305315
Br188	Br	1.545239	-0.786141	0.638648
Br189	Br	1.878572	-0.452808	0.971981
Br190	Br	1.167335	-0.900024	0.471341
Br191	Br	1.500669	-0.566691	0.804675
Br192	Br	1.834002	-0.233358	1.138008
Br193	Br	0.911271	-1.123198	0.390019
Br194	Br	1.244604	-0.789864	0.723352
Br195	Br	1.577938	-0.456531	1.056685
H196	H	0.985255	-1.099916	0.260576
H197	H	1.318588	-0.766582	0.593909
H198	H	1.651921	-0.433249	0.927242
Br199	Br	1.108047	-1.120636	0.204189
Br200	Br	1.441380	-0.787302	0.537522
Br201	Br	1.774713	-0.453969	0.870855
Br202	Br	0.910377	-0.900371	0.389540
Br203	Br	1.243710	-0.567038	0.722874
Br204	Br	1.577043	-0.233705	1.056207
H205	H	1.082523	-0.919455	0.233420
H206	H	1.415857	-0.586121	0.566754
H207	H	1.749190	-0.252788	0.900087
H208	H	1.185464	-0.917896	0.337706
H209	H	1.518797	-0.584563	0.671039
H210	H	1.852130	-0.251229	1.004372
Br211	Br	1.173344	-1.122618	0.467169
Br212	Br	1.506677	-0.789284	0.800503
Br213	Br	1.840010	-0.455951	1.133836
