data_functionalizedCrystal
_audit_creation_method	'MofGen! by Chris Wilmer'
_symmetry_space_group_name_H-M	'P1'
_symmetry_Int_Tables_number	1
_symmetry_cell_setting	triclinic
loop_
_symmetry_equiv_pos_as_xyz
  x,y,z
_cell_length_a	17.640280
_cell_length_b	16.959455
_cell_length_c	16.959447
_cell_angle_alpha	89.979626
_cell_angle_beta	78.773258
_cell_angle_gamma	78.796403
loop_
_atom_site_label
_atom_site_type_symbol
_atom_site_fract_x
_atom_site_fract_y
_atom_site_fract_z
Zn1	Zn	-0.314717	1.272058	-0.383493
Zn2	Zn	-0.446904	1.298725	-0.224625
Zn3	Zn	-0.314742	1.139892	-0.251311
Zn4	Zn	-0.446845	1.166584	-0.356761
O5	O	-0.380802	1.219315	-0.304048
O6	O	-0.332266	1.386209	-0.362438
O7	O	-0.429407	1.277645	-0.117547
O8	O	-0.204132	1.135093	-0.291201
O9	O	-0.429383	1.405801	-0.245718
O10	O	-0.204113	1.232195	-0.388314
O11	O	-0.332308	1.160951	-0.137153
O12	O	-0.332251	1.032819	-0.265281
O13	O	-0.429283	1.180586	-0.470925
O14	O	-0.429307	1.052429	-0.342754
O15	O	-0.332209	1.258077	-0.490565
O16	O	-0.557503	1.303527	-0.219797
O17	O	-0.557459	1.206443	-0.316877
C18	C	-0.380776	1.013943	-0.304013
C19	C	-0.380784	0.926088	-0.304013
C20	C	-0.586160	1.260797	-0.262558
C21	C	-0.674013	1.278616	-0.244835
C22	C	-0.431321	0.564797	-0.243256
C23	C	-0.330348	0.544449	-0.364922
C24	C	-0.330335	0.626992	-0.364906
C25	C	-0.380817	0.678442	-0.304064
C26	C	-0.431311	0.647348	-0.243239
C27	C	-0.279848	0.658093	-0.425734
C28	C	-0.279833	0.740641	-0.425720
C29	C	-0.330311	0.792091	-0.364875
C30	C	-0.380807	0.760993	-0.304047
C31	C	-0.431288	0.812443	-0.243205
C32	C	-0.481780	0.781346	-0.182373
C33	C	-0.481789	0.698799	-0.182393
C34	C	-0.330303	0.874638	-0.364855
C35	C	-0.431278	0.894995	-0.243188
C36	C	-0.962976	1.084273	-0.438975
C37	C	-1.045527	1.101017	-0.422296
C38	C	-1.045507	1.202173	-0.321309
C39	C	-0.962954	1.185440	-0.337982
C40	C	-0.921695	1.126488	-0.396815
C41	C	-0.921673	1.227655	-0.295822
C42	C	-0.839127	1.210919	-0.312490
C43	C	-0.797862	1.151969	-0.371319
C44	C	-0.839149	1.109752	-0.413483
C45	C	-0.962933	1.286603	-0.236985
C46	C	-0.921652	1.328818	-0.194825
C47	C	-0.839105	1.312087	-0.211497
C48	C	-0.797840	1.253136	-0.270326
C49	C	-0.797818	1.354303	-0.169333
C50	C	-0.715272	1.337567	-0.186002
C51	C	-0.715294	1.236400	-0.286995
C52	C	-0.174641	1.177692	-0.345716
C53	C	-0.086788	1.159955	-0.363473
C54	C	-0.380736	1.219334	-0.510229
C55	C	-0.380708	1.219343	-0.598091
C56	C	-0.380828	1.425488	-0.304083
C57	C	-0.380839	1.513347	-0.304098
C58	C	-0.431167	1.179074	-0.959361
C59	C	-0.330083	1.259767	-0.979807
C60	C	-0.330100	1.259749	-0.897258
C61	C	-0.380652	1.219394	-0.845756
C62	C	-0.431187	1.179057	-0.876803
C63	C	-0.279571	1.300092	-0.866203
C64	C	-0.279586	1.300077	-0.783649
C65	C	-0.330135	1.259717	-0.732146
C66	C	-0.380672	1.219377	-0.763198
C67	C	-0.431224	1.179022	-0.711697
C68	C	-0.481757	1.138678	-0.742748
C69	C	-0.481736	1.138697	-0.825301
C70	C	-0.330156	1.259697	-0.649593
C71	C	-0.431244	1.179005	-0.629139
C72	C	-0.380810	1.219329	-0.098680
C73	C	-0.380615	1.219429	-0.010863
H74	H	-0.472384	0.936880	-0.193641
H75	H	-0.238754	0.616198	-0.475272
C76	C	-0.536545	0.837100	-0.116201
C77	C	-0.519255	0.813475	-0.041518
C78	C	-0.569694	0.864813	0.019456
H79	H	-0.529358	0.890737	-0.124791
H80	H	-0.589681	0.834300	-0.116901
H81	H	-0.466132	0.816283	-0.040819
H82	H	-0.526446	0.759847	-0.032902
H83	H	-0.622829	0.862013	0.018756
H84	H	-0.562503	0.918447	0.010858
H85	H	-0.557974	0.848786	0.070136
C86	C	-0.536579	0.664888	-0.116448
C87	C	-0.525799	0.581589	-0.129502
C88	C	-0.576266	0.550321	-0.068778
H89	H	-0.524997	0.675944	-0.065662
H90	H	-0.589715	0.689120	-0.117199
H91	H	-0.472675	0.557365	-0.128743
H92	H	-0.537388	0.570510	-0.180276
H93	H	-0.629403	0.574553	-0.069529
H94	H	-0.564679	0.561383	-0.017996
H95	H	-0.568964	0.493801	-0.077631
H96	H	-0.955257	1.376814	-0.146921
H97	H	-0.730648	1.138338	-0.384884
C98	C	-0.275074	1.303508	-1.035646
C99	C	-0.196873	1.270514	-1.031368
C100	C	-0.146176	1.310795	-1.082792
H101	H	-0.282196	1.297770	-1.089292
H102	H	-0.286603	1.358954	-1.019775
H103	H	-0.185349	1.215082	-1.047244
H104	H	-0.189727	1.276252	-0.977735
H105	H	-0.157704	1.366242	-1.066921
H106	H	-0.153304	1.305055	-1.136434
H107	H	-0.093111	1.288421	-1.079891
H108	H	-0.831424	1.402296	-0.121426
H109	H	-0.289194	0.899954	-0.414384
H110	H	-1.079111	1.250170	-0.273404
H111	H	-0.681661	1.371943	-0.151670
C112	C	-0.486223	1.135184	-0.573349
C113	C	-0.530485	1.099879	-0.618211
C114	C	-0.581149	1.059517	-0.566844
H115	H	-0.456085	1.094581	-0.547228
H116	H	-0.520717	1.172365	-0.534198
H117	H	-0.495995	1.062701	-0.657348
H118	H	-0.560639	1.140464	-0.644331
H119	H	-0.615643	1.096698	-0.527693
H120	H	-0.551005	1.018918	-0.540725
H121	H	-0.611192	1.035563	-0.597274
C122	C	-1.052556	1.304863	-0.219036
C123	C	-1.079811	1.330533	-0.288800
C124	C	-1.162366	1.347375	-0.272294
H125	H	-1.071380	1.257708	-0.201568
H126	H	-1.071245	1.346046	-0.177988
H127	H	-1.061130	1.289354	-0.329834
H128	H	-1.061009	1.377693	-0.306277
H129	H	-1.181054	1.388557	-0.231247
H130	H	-1.181182	1.300217	-0.254826
H131	H	-1.180869	1.364800	-0.319624
H132	H	-0.472428	0.539473	-0.193726
H133	H	-0.522920	1.105825	-0.700804
H134	H	-0.289015	1.292548	-0.624314
H135	H	-0.681700	1.188401	-0.334909
C136	C	-0.275573	0.488456	-0.430884
C137	C	-0.286377	0.409507	-0.417870
C138	C	-0.235920	0.357899	-0.478613
H139	H	-0.287150	0.504261	-0.481664
H140	H	-0.222433	0.491187	-0.430124
H141	H	-0.339504	0.406778	-0.418638
H142	H	-0.274794	0.393677	-0.367101
H143	H	-0.182780	0.360631	-0.477854
H144	H	-0.247501	0.373711	-0.529389
H145	H	-0.243238	0.304326	-0.469788
H146	H	-0.238419	1.332953	-0.908140
C147	C	-0.536568	1.094980	-0.859163
C148	C	-0.525745	1.103653	-0.942479
C149	C	-0.576250	1.063402	-0.973702
H150	H	-0.525046	1.039509	-0.848058
H151	H	-0.589697	1.117277	-0.834939
H152	H	-0.472628	1.081353	-0.966695
H153	H	-0.537273	1.159115	-0.953607
H154	H	-0.629379	1.085699	-0.949478
H155	H	-0.564724	1.007934	-0.962590
H156	H	-0.568919	1.069288	-1.030233
C157	C	-0.224923	0.774239	-0.491806
C158	C	-0.180703	0.711509	-0.545079
C159	C	-0.130102	0.742428	-0.605959
H160	H	-0.255104	0.812570	-0.520162
H161	H	-0.190400	0.799423	-0.468606
H162	H	-0.215222	0.686337	-0.568278
H163	H	-0.150506	0.673173	-0.516748
H164	H	-0.095578	0.767613	-0.582759
H165	H	-0.160289	0.780759	-0.634308
H166	H	-0.100087	0.699871	-0.642108
H167	H	-0.472308	1.146223	-0.984648
H168	H	-0.238439	1.332927	-0.758374
H169	H	-0.929381	1.036274	-0.486888
C170	C	-0.794488	1.045701	-0.477374
C171	C	-0.848305	1.012303	-0.510727
C172	C	-0.807192	0.953297	-0.569578
H173	H	-0.762248	1.069303	-0.518418
H174	H	-0.762339	1.004718	-0.453620
H175	H	-0.880440	1.053280	-0.534482
H176	H	-0.880547	0.988686	-0.469704
H177	H	-0.775044	0.912313	-0.545823
H178	H	-0.774954	0.976905	-0.610616
H179	H	-0.843701	0.930624	-0.592210
H180	H	-1.079136	1.066646	-0.456642
