data_functionalizedCrystal
_audit_creation_method	'MofGen! by Chris Wilmer'
_symmetry_space_group_name_H-M	'P1'
_symmetry_Int_Tables_number	1
_symmetry_cell_setting	triclinic
loop_
_symmetry_equiv_pos_as_xyz
  x,y,z
_cell_length_a	15.297475
_cell_length_b	21.295417
_cell_length_c	15.296720
_cell_angle_alpha	80.361834
_cell_angle_beta	88.382886
_cell_angle_gamma	80.332118
loop_
_atom_site_label
_atom_site_type_symbol
_atom_site_fract_x
_atom_site_fract_y
_atom_site_fract_z
Zn1	Zn	1.253315	-0.489896	0.726513
Zn2	Zn	1.278561	-0.580536	0.580012
Zn3	Zn	1.132199	-0.454534	0.554760
Zn4	Zn	1.106789	-0.574348	0.701142
O5	O	1.192716	-0.524829	0.640607
O6	O	1.379239	-0.519309	0.728265
O7	O	1.280346	-0.551612	0.454090
O8	O	1.148333	-0.371150	0.577592
O9	O	1.397787	-0.585901	0.620632
O10	O	1.237317	-0.397130	0.703779
O11	O	1.172814	-0.459039	0.435537
O12	O	1.006253	-0.453039	0.552991
O13	O	1.105026	-0.575355	0.827080
O14	O	0.987585	-0.541066	0.660538
O15	O	1.212678	-0.513309	0.845720
O16	O	1.255707	-0.667790	0.596031
O17	O	1.129506	-0.663244	0.685025
C18	C	0.965136	-0.492545	0.601272
C19	C	0.867773	-0.478750	0.584465
C20	C	0.554602	-0.623422	0.760730
C21	C	0.646080	-0.636386	0.776518
C22	C	0.701507	-0.596978	0.728507
C23	C	0.665449	-0.544604	0.664703
C24	C	0.573963	-0.531641	0.648908
C25	C	0.720868	-0.505198	0.616685
C26	C	0.684809	-0.452823	0.552882
C27	C	0.593332	-0.439862	0.537090
C28	C	0.537904	-0.479270	0.585102
C29	C	0.812354	-0.518160	0.632480
C30	C	0.831715	-0.426380	0.520659
C31	C	0.740237	-0.413415	0.504870
C32	C	1.192609	-0.688359	0.640538
C33	C	1.192639	-0.758333	0.640552
C34	C	1.258392	-0.793558	0.594279
C35	C	1.258429	-0.859308	0.594306
C36	C	1.192700	-0.889827	0.640594
C37	C	1.126942	-0.854594	0.686877
C38	C	1.126911	-0.788847	0.686856
N39	N	1.114918	-0.982893	0.634027
N40	N	1.114951	-1.045351	0.634042
C41	C	1.192790	-1.087921	0.640661
N42	N	1.270600	-1.065673	0.647247
N43	N	1.270567	-1.003210	0.647228
C44	C	1.192726	-0.961119	0.640622
C45	C	1.258588	-1.194441	0.594415
C46	C	1.258626	-1.260193	0.594448
C47	C	1.127132	-1.255477	0.687013
C48	C	1.127101	-1.189727	0.686986
C49	C	1.192829	-1.159213	0.640682
C50	C	1.421184	-0.557239	0.680096
C51	C	1.518543	-0.571051	0.696923
C52	C	1.153201	-0.547586	0.869070
C53	C	1.136362	-0.557284	0.966428
C54	C	1.192843	-0.360665	0.640699
C55	C	1.192898	-0.290708	0.640738
C56	C	1.232127	-0.502121	0.413041
C57	C	1.249136	-0.492270	0.315713
C58	C	1.313098	-0.455410	1.279682
C59	C	1.328925	-0.446300	1.188211
C60	C	1.280785	-0.474045	1.132761
C61	C	1.216817	-0.510902	1.168791
C62	C	1.200994	-0.520017	1.260272
C63	C	1.168681	-0.538652	1.113350
C64	C	1.104713	-0.575509	1.149380
C65	C	1.088892	-0.584622	1.240852
C66	C	1.137031	-0.556877	1.296302
C67	C	1.184504	-0.529537	1.021869
C68	C	1.072400	-0.594144	1.002458
C69	C	1.056573	-0.603254	1.093930
H70	H	0.876845	-0.394291	0.481562
H71	H	0.775992	-0.607537	0.741366
H72	H	1.312175	-1.288874	0.556770
H73	H	1.293675	-0.466626	1.058281
H74	H	1.311976	-0.887995	0.556626
C75	C	0.953281	-0.586914	1.323378
C76	C	1.018595	-0.625146	1.280471
H77	H	0.909890	-0.611937	1.347843
H78	H	0.925958	-0.551193	1.281920
H79	H	0.979699	-0.571693	1.369483
H80	H	0.992177	-0.640364	1.234362
H81	H	1.045920	-0.660879	1.321932
C82	C	1.007150	-1.100350	0.678661
C83	C	1.054818	-1.150998	0.737841
H84	H	0.962529	-1.076439	0.710063
H85	H	0.980293	-1.117484	0.634704
H86	H	1.046302	-1.072772	0.651094
H87	H	1.015667	-1.178579	0.765403
H88	H	1.081676	-1.133863	0.781814
H89	H	1.073426	-0.879448	0.724567
C90	C	1.327017	-1.165520	0.453518
C91	C	1.330838	-1.160895	0.543527
H92	H	1.371625	-1.144813	0.422104
H93	H	1.270401	-1.145163	0.430485
H94	H	1.336452	-1.209722	0.446924
H95	H	1.321397	-1.116692	0.550122
H96	H	1.387468	-1.181250	0.566567
C97	C	0.947346	-0.666199	1.065560
C98	C	0.986264	-0.643770	1.133540
H99	H	0.903937	-0.691208	1.090016
H100	H	0.991659	-0.692135	1.036466
H101	H	0.920036	-0.630464	1.024104
H102	H	1.013581	-0.679506	1.174993
H103	H	0.941944	-0.617833	1.162648
H104	H	1.033202	-0.616738	0.957311
H105	H	0.710865	-0.370771	0.452921
H106	H	1.311913	-0.768716	0.556579
H107	H	1.381010	-0.416293	1.158883
C108	C	1.094528	-1.339374	0.802727
C109	C	1.054883	-1.289016	0.737898
H110	H	1.049923	-1.360084	0.834140
H111	H	1.126845	-1.322434	0.842839
H112	H	1.133693	-1.369763	0.775164
H113	H	1.015722	-1.258625	0.765462
H114	H	1.022551	-1.305956	0.697780
C115	C	0.814886	-0.567745	0.785580
C116	C	0.851985	-0.575723	0.702616
H117	H	0.839357	-0.603282	0.828883
H118	H	0.752481	-0.565666	0.783037
H119	H	0.827676	-0.528878	0.801091
H120	H	0.839189	-0.614588	0.687102
H121	H	0.914405	-0.577808	0.705157
H122	H	0.463414	-0.468716	0.572252
C123	C	1.232119	-0.426211	1.001156
C124	C	1.254808	-0.489019	0.982271
H125	H	1.275521	-0.401195	0.976706
H126	H	1.229586	-0.427677	1.063564
H127	H	1.175866	-0.407165	0.975991
H128	H	1.311058	-0.508068	1.007443
H129	H	1.257350	-0.487557	0.919851
H130	H	0.563978	-0.397221	0.485129
H131	H	1.124149	-0.564292	1.370787
C132	C	0.617747	-0.725801	0.885460
C133	C	0.685713	-0.693951	0.846651
H134	H	0.642216	-0.761338	0.928763
H135	H	0.588657	-0.740969	0.841072
H136	H	0.576280	-0.696697	0.912879
H137	H	0.727176	-0.723053	0.819226
H138	H	0.714816	-0.678784	0.891047
H139	H	1.352292	-0.432829	1.324838
H140	H	1.073367	-0.760165	0.724538
H141	H	0.509466	-0.655505	0.799809
