data_functionalizedCrystal
_audit_creation_method	'MofGen! by Chris Wilmer'
_symmetry_space_group_name_H-M	'P1'
_symmetry_Int_Tables_number	1
_symmetry_cell_setting	triclinic
loop_
_symmetry_equiv_pos_as_xyz
  x,y,z
_cell_length_a	12.759401
_cell_length_b	15.297510
_cell_length_c	12.759393
_cell_angle_alpha	99.643819
_cell_angle_beta	90.019377
_cell_angle_gamma	80.289982
loop_
_atom_site_label
_atom_site_type_symbol
_atom_site_fract_x
_atom_site_fract_y
_atom_site_fract_z
Zn1	Zn	1.533792	0.359067	0.666329
Zn2	Zn	1.503236	0.509955	0.521041
Zn3	Zn	1.358084	0.359118	0.490676
Zn4	Zn	1.327645	0.509890	0.696667
O5	O	1.430689	0.434507	0.593678
O6	O	1.676758	0.379088	0.647068
O7	O	1.483931	0.489995	0.370002
O8	O	1.406918	0.232866	0.488573
O9	O	1.654309	0.489945	0.540326
O10	O	1.536010	0.232828	0.617624
O11	O	1.377289	0.379176	0.347693
O12	O	1.207026	0.379112	0.517990
O13	O	1.355040	0.489834	0.839654
O14	O	1.184663	0.489884	0.669330
O15	O	1.506495	0.379025	0.817365
O16	O	1.454416	0.636192	0.569743
O17	O	1.325411	0.636144	0.698774
C18	C	1.157724	0.434497	0.593658
C19	C	1.040944	0.434514	0.593678
C20	C	0.888032	0.376892	0.649395
C21	C	0.997756	0.376890	0.649383
C22	C	0.974399	0.492152	0.537990
C23	C	0.864675	0.492158	0.538009
C24	C	0.901519	0.310343	0.713703
C25	C	1.011243	0.310341	0.713692
C26	C	1.383323	0.668902	0.640868
C27	C	1.363156	0.769177	0.661091
C28	C	1.575207	1.051810	0.449560
C29	C	1.594154	0.957596	0.430554
C30	C	1.536407	0.910487	0.488187
C31	C	1.459708	0.957600	0.564828
C32	C	1.440753	1.051822	0.583830
C33	C	1.401953	0.910500	0.622457
C34	C	1.325254	0.957613	0.699099
C35	C	1.306303	1.051826	0.718098
C36	C	1.364050	1.098935	0.660465
C37	C	1.420908	0.816277	0.603455
C38	C	1.286454	0.816290	0.737726
C39	C	1.267506	0.910503	0.756732
C40	C	1.704720	0.434518	0.593700
C41	C	1.821496	0.434523	0.593709
C42	C	1.430781	0.434416	0.867694
C43	C	1.430820	0.434378	0.984463
C44	C	1.478258	1.199198	0.546339
C45	C	1.498504	1.098923	0.526195
C46	C	1.430671	0.434533	0.320716
C47	C	1.430887	0.434318	0.203897
C48	C	1.509693	0.376674	1.027719
C49	C	1.509725	0.376641	1.137437
C50	C	1.352006	0.492024	1.160633
C51	C	1.351971	0.492051	1.050916
C52	C	1.600754	0.310061	1.014329
C53	C	1.600786	0.310029	1.124046
H54	H	0.867986	0.329136	0.798827
Cl55	Cl	1.517326	0.757061	0.507109
Cl56	Cl	0.869658	0.207832	0.648270
H57	H	1.243837	1.090183	0.780493
Cl58	Cl	1.171087	0.969741	0.853078
Cl59	Cl	1.560516	0.792046	0.464580
H60	H	1.672971	0.335106	0.985339
Cl61	Cl	1.056019	0.349096	0.840749
Cl62	Cl	1.690581	0.898376	0.334219
Cl63	Cl	1.079016	0.202434	0.658510
Cl64	Cl	1.647791	1.111037	0.377114
H65	H	1.348630	1.175652	0.675939
H66	H	1.585069	0.243645	1.144723
Cl67	Cl	1.252798	0.564581	0.996537
H68	H	1.239428	0.777934	0.784654
Cl69	Cl	1.720587	0.338904	1.175848
Cl70	Cl	1.588912	0.202198	0.946653
Cl71	Cl	0.781033	0.564611	0.467999
Cl72	Cl	1.028690	0.564603	0.467972
H73	H	1.287807	0.538978	1.214752
