data_functionalizedCrystal
_audit_creation_method	'MofGen! by Chris Wilmer'
_symmetry_space_group_name_H-M	'P1'
_symmetry_Int_Tables_number	1
_symmetry_cell_setting	triclinic
loop_
_symmetry_equiv_pos_as_xyz
  x,y,z
_cell_length_a	11.169417
_cell_length_b	18.215405
_cell_length_c	11.169409
_cell_angle_alpha	89.960202
_cell_angle_beta	89.980176
_cell_angle_gamma	90.025764
loop_
_atom_site_label
_atom_site_type_symbol
_atom_site_fract_x
_atom_site_fract_y
_atom_site_fract_z
Zn1	Zn	1.834841	-0.292907	-0.678481
Zn2	Zn	2.168174	0.040426	-0.345147
Zn3	Zn	2.501508	0.373759	-0.011814
Zn4	Zn	1.834679	-0.415999	-0.477771
Zn5	Zn	2.168013	-0.082665	-0.144438
Zn6	Zn	2.501346	0.250668	0.188895
Zn7	Zn	1.634127	-0.292952	-0.477815
Zn8	Zn	1.967460	0.040381	-0.144482
Zn9	Zn	2.300794	0.373714	0.188852
Zn10	Zn	1.634083	-0.415939	-0.678416
Zn11	Zn	1.967417	-0.082605	-0.345083
Zn12	Zn	2.300750	0.250728	-0.011749
O13	O	1.734433	-0.354449	-0.578121
O14	O	2.067766	-0.021116	-0.244787
O15	O	2.401099	0.312217	0.088546
O16	O	2.002769	-0.309242	-0.651865
O17	O	2.336103	0.024091	-0.318531
O18	O	2.669436	0.357425	0.014802
O19	O	1.808026	-0.399720	-0.309827
O20	O	2.141360	-0.066387	0.023506
O21	O	2.474693	0.266947	0.356839
O22	O	1.660838	-0.189962	-0.504479
O23	O	1.994171	0.143371	-0.171145
O24	O	2.327505	0.476705	0.162188
O25	O	2.002651	-0.399677	-0.504404
O26	O	2.335984	-0.066343	-0.171071
O27	O	2.669317	0.266990	0.162262
O28	O	1.808302	-0.189929	-0.651907
O29	O	2.141635	0.143404	-0.318574
O30	O	2.474968	0.476738	0.014760
O31	O	1.660681	-0.309319	-0.309859
O32	O	1.994014	0.024015	0.023474
O33	O	2.327348	0.357348	0.356807
O34	O	1.466171	-0.309260	-0.504416
O35	O	1.799505	0.024073	-0.171083
O36	O	2.132838	0.357406	0.162250
O37	O	1.660764	-0.399574	-0.846375
O38	O	1.994097	-0.066241	-0.513041
O39	O	2.327430	0.267092	-0.179708
O40	O	1.466140	-0.399618	-0.651797
O41	O	1.799473	-0.066285	-0.318464
O42	O	2.132806	0.267049	0.014869
O43	O	1.808260	-0.309184	-0.846422
O44	O	2.141593	0.024149	-0.513088
O45	O	2.474926	0.357483	-0.179755
O46	O	1.807984	-0.518975	-0.504342
O47	O	2.141317	-0.185642	-0.171009
O48	O	2.474651	0.147692	0.162325
O49	O	1.660607	-0.518931	-0.651755
O50	O	1.993940	-0.185598	-0.318422
O51	O	2.327274	0.147736	0.014912
C52	C	1.422608	-0.354438	-0.578105
C53	C	1.755941	-0.021105	-0.244772
C54	C	2.089275	0.312229	0.088561
C55	C	1.289208	-0.354451	-0.578127
C56	C	1.622541	-0.021118	-0.244794
C57	C	1.955875	0.312216	0.088540
C58	C	1.734306	-0.545656	-0.578063
C59	C	2.067639	-0.212322	-0.244730
C60	C	2.400973	0.121011	0.088604
C61	C	1.734362	-0.627454	-0.578078
C62	C	2.067695	-0.294121	-0.244745
C63	C	2.401028	0.039212	0.088588
C64	C	1.811281	-0.815647	-0.501462
C65	C	2.144614	-0.482313	-0.168128
C66	C	2.477948	-0.148980	0.165205
C67	C	1.811335	-0.892506	-0.501491
C68	C	2.144668	-0.559172	-0.168157
C69	C	2.478001	-0.225839	0.165176
C70	C	1.657738	-0.892500	-0.654866
C71	C	1.991071	-0.559166	-0.321533
C72	C	2.324405	-0.225833	0.011801
C73	C	1.657691	-0.815642	-0.654842
C74	C	1.991025	-0.482309	-0.321509
C75	C	2.324358	-0.148976	0.011825
C76	C	1.734461	-0.777218	-0.578133
C77	C	2.067794	-0.443885	-0.244800
C78	C	2.401128	-0.110551	0.088534
C79	C	1.734561	-0.930934	-0.578186
C80	C	2.067895	-0.597601	-0.244853
C81	C	2.401228	-0.264267	0.088481
C82	C	1.734619	-1.014268	-0.578218
C83	C	2.067952	-0.680934	-0.244885
C84	C	2.401286	-0.347601	0.088449
C85	C	1.734405	-0.693879	-0.578102
C86	C	2.067739	-0.360546	-0.244769
C87	C	2.401072	-0.027212	0.088564
C88	C	2.047475	-0.354461	-0.578137
C89	C	2.380808	-0.021128	-0.244804
C90	C	2.714142	0.312206	0.088530
C91	C	2.180875	-0.354466	-0.578144
C92	C	2.514208	-0.021133	-0.244810
C93	C	2.847542	0.312201	0.088523
C94	C	1.734525	-0.354368	-0.891163
C95	C	2.067858	-0.021034	-0.557830
C96	C	2.401192	0.312299	-0.224497
C97	C	1.734564	-0.354333	-1.024563
C98	C	2.067897	-0.020999	-0.691230
C99	C	2.401231	0.312334	-0.357897
C100	C	1.734593	-0.162496	-0.578205
C101	C	2.067926	0.170837	-0.244872
C102	C	2.401259	0.504170	0.088462
C103	C	1.734661	-0.080697	-0.578241
C104	C	2.067994	0.252636	-0.244907
C105	C	2.401327	0.585969	0.088426
C106	C	1.734410	-0.354478	-0.266296
C107	C	2.067743	-0.021144	0.067037
C108	C	2.401077	0.312189	0.400371
C109	C	1.734603	-0.354305	-0.132897
C110	C	2.067937	-0.020972	0.200437
C111	C	2.401270	0.312362	0.533770
H112	H	1.873891	-0.923791	-0.439059
H113	H	2.207224	-0.590458	-0.105726
H114	H	2.540558	-0.257124	0.227608
H115	H	1.873793	-0.784363	-0.439002
H116	H	2.207127	-0.451030	-0.105669
H117	H	2.540460	-0.117697	0.227664
C118	C	1.589598	-1.010315	-0.722994
C119	C	1.922931	-0.676981	-0.389661
C120	C	2.256264	-0.343648	-0.056327
C121	C	1.573343	-0.934739	-0.739169
C122	C	1.906676	-0.601405	-0.405835
C123	C	2.240010	-0.268072	-0.072502
H124	H	1.537486	-1.036388	-0.775034
H125	H	1.870819	-0.703055	-0.441701
H126	H	2.204153	-0.369722	-0.108367
H127	H	1.670223	-1.022858	-0.740642
H128	H	2.003557	-0.689525	-0.407309
H129	H	2.336890	-0.356191	-0.073975
H130	H	1.572087	-1.022953	-0.642338
H131	H	1.905420	-0.689620	-0.309004
H132	H	2.238754	-0.356286	0.024329
H133	H	1.590862	-0.922099	-0.819824
H134	H	1.924196	-0.588766	-0.486490
H135	H	2.257529	-0.255433	-0.153157
H136	H	1.492699	-0.922190	-0.721529
H137	H	1.826032	-0.588857	-0.388196
H138	H	2.159366	-0.255524	-0.054862
H139	H	1.595135	-0.784351	-0.717283
H140	H	1.928468	-0.451018	-0.383949
H141	H	2.261802	-0.117685	-0.050616
