data_functionalizedCrystal
_audit_creation_method	'MofGen! by Chris Wilmer'
_symmetry_space_group_name_H-M	'P1'
_symmetry_Int_Tables_number	1
_symmetry_cell_setting	triclinic
loop_
_symmetry_equiv_pos_as_xyz
  x,y,z
_cell_length_a	14.446369
_cell_length_b	14.446369
_cell_length_c	17.917603
_cell_angle_alpha	90.003104
_cell_angle_beta	63.036187
_cell_angle_gamma	59.996355
loop_
_atom_site_label
_atom_site_type_symbol
_atom_site_fract_x
_atom_site_fract_y
_atom_site_fract_z
Zr1	Zr	1.002606	0.897017	-0.093846
O2	O	1.182840	0.755641	-0.208060
O3	O	0.813436	0.940363	-0.058832
O4	O	0.989710	0.948770	-0.208054
O5	O	1.019855	0.740595	0.058869
O6	O	0.989702	1.101107	-0.208049
O7	O	1.006566	0.747234	-0.058839
O8	O	0.674380	1.086068	0.058881
O9	O	1.335177	0.755634	-0.208061
O10	O	0.894548	1.072529	-0.043897
O11	O	0.904471	0.953888	0.043944
O12	O	1.112011	0.963786	-0.131745
O13	O	1.121934	0.845144	-0.043905
Zr14	Zr	1.023788	1.129389	0.093892
Zr15	Zr	1.002594	1.139977	-0.093839
Zr16	Zr	1.023800	0.886430	0.093885
Zr17	Zr	1.245566	0.897006	-0.093847
Zr18	Zr	0.780828	1.129400	0.093893
O19	O	1.212958	1.086044	0.058878
O20	O	1.182823	1.101098	-0.208051
O21	O	1.212976	0.740586	0.058868
O22	O	0.843553	1.270766	0.208106
O23	O	0.813418	1.285820	-0.058822
O24	O	0.843571	0.925308	0.208097
O25	O	1.006539	1.285812	-0.058823
O26	O	1.036684	1.077636	0.208100
O27	O	1.036692	0.925300	0.208096
O28	O	1.019827	1.279173	0.058885
O29	O	1.335167	0.948755	-0.208056
O30	O	0.691226	1.077652	0.208102
O31	O	0.691216	1.270773	0.208107
O32	O	0.674370	1.279189	0.058887
O33	O	1.352024	0.747218	-0.058841
O34	O	1.352014	0.940339	-0.058835
O35	O	0.914383	1.062621	0.131791
O36	O	0.904459	1.181262	0.043951
O37	O	1.121923	1.072519	-0.043898
O38	O	1.131846	0.953877	0.043943
C39	C	0.709291	1.013217	0.000025
C40	C	0.606148	1.013222	0.000025
C41	C	0.560607	1.088052	-0.055385
C42	C	0.453654	1.087734	-0.055683
C43	C	0.542429	0.891882	-0.040102
C44	C	0.649757	0.892320	-0.040519
C45	C	0.490122	1.058689	0.095589
C46	C	0.381642	1.061172	0.095442
C47	C	1.013213	0.709298	0.000014
C48	C	1.013218	0.606155	0.000011
C49	C	0.986686	1.026447	-0.234799
C50	C	0.977689	1.030942	-0.314496
C51	C	1.317102	1.013190	0.000021
C52	C	1.420245	1.013185	0.000021
C53	C	1.150388	0.390889	-0.055115
C54	C	1.150450	0.498138	-0.055425
C55	C	0.937423	0.605114	-0.040400
C56	C	0.938288	0.497368	-0.040804
C57	C	0.950737	0.491037	0.095620
C58	C	0.953422	0.597015	0.095470
C59	C	1.013181	1.317109	0.000032
C60	C	1.013176	1.420252	0.000035
C61	C	0.961254	1.039176	-0.460427
C62	C	1.065135	0.987234	-0.539529
C63	C	1.055990	0.991815	-0.620731
C64	C	0.970396	1.034596	-0.379217
C65	C	1.039707	0.999960	0.234845
C66	C	1.048705	0.995465	0.314542
C67	C	0.709276	1.317123	0.000033
C68	C	0.606127	1.420270	0.000037
C69	C	0.735802	0.999973	0.234847
C70	C	0.641657	0.995483	0.314544
C71	C	0.735786	1.303879	0.234856
C72	C	0.641636	1.402531	0.314556
C73	C	1.290608	0.722528	-0.234810
C74	C	1.384758	0.623875	-0.314510
C75	C	1.317118	0.709284	0.000013
C76	C	1.420266	0.606137	0.000009
C77	C	1.290592	1.026433	-0.234801
C78	C	1.384737	1.030924	-0.314498
C79	C	0.602619	1.050131	0.397834
C80	C	0.514174	1.045908	0.472725
C81	C	0.464761	0.987042	0.464324
C82	C	0.503807	0.932387	0.381026
C83	C	0.592257	0.936604	0.306137
C84	C	0.592242	1.510800	0.306132
C85	C	0.503790	1.603504	0.381011
C86	C	0.464727	1.587938	0.464314
C87	C	0.514130	1.479658	0.472736
C88	C	0.602587	1.386956	0.397857
C89	C	1.434164	0.515607	-0.306086
C90	C	1.522646	0.422903	-0.380965
C91	C	1.561714	0.438469	-0.464268
C92	C	1.512304	0.546749	-0.472690
C93	C	1.423831	0.639450	-0.397811
C94	C	1.434123	1.089800	-0.306069
C95	C	1.522570	1.094040	-0.380946
C96	C	1.561637	1.039398	-0.464251
C97	C	1.512242	0.980520	-0.472678
C98	C	1.423790	0.976286	-0.397802
C99	C	0.466024	1.635537	0.055158
C100	C	0.572989	1.528282	0.055471
C101	C	0.483830	1.421325	0.040448
C102	C	0.376491	1.529076	0.040848
C103	C	0.536070	1.535389	-0.095577
C104	C	0.644566	1.429407	-0.095423
H105	H	0.732690	0.855597	-0.110831
N106	N	0.450513	1.720282	0.371916
H107	H	0.488677	1.716067	0.307781
H108	H	0.356507	1.761448	0.400991
H109	H	0.392740	0.983616	0.525311
H110	H	0.506620	1.510271	-0.136861
N111	N	0.655904	1.113622	0.406917
H112	H	0.749913	1.060825	0.377886
H113	H	0.635665	1.174987	0.377914
H114	H	1.209728	0.335409	-0.028146
N115	N	0.339470	1.206233	-0.020081
H116	H	0.311202	1.239434	0.041815
H117	H	0.361178	1.252322	-0.058056
H118	H	0.865459	1.087081	-0.453691
H119	H	1.160937	0.939321	-0.546266
H120	H	0.384264	1.686574	0.125242
N121	N	0.518437	0.815103	0.010795
H122	H	0.489795	0.844381	0.073630
H123	H	0.451222	0.811917	0.008940
H124	H	0.463562	0.884459	0.374199
N125	N	0.472068	1.104864	0.562561
H126	H	0.516786	1.142803	0.556512
H127	H	0.378512	1.162662	0.595634
N128	N	0.266863	1.590546	0.134039
H129	H	0.237207	1.541106	0.158331
H130	H	0.293891	1.610664	0.170885
N131	N	1.392044	0.498808	-0.216242
H132	H	1.298500	0.534497	-0.183126
H133	H	1.436866	0.416132	-0.222350
N134	N	0.634424	0.877591	0.216303
H135	H	0.589716	0.839642	0.222354
H136	H	0.613857	0.933890	0.183191
N137	N	0.634351	1.527605	0.216290
H138	H	0.589629	1.610266	0.222329
H139	H	0.727906	1.491837	0.183216
N140	N	1.575837	1.157538	-0.371834
H141	H	1.669846	1.104749	-0.400862
H142	H	1.555594	1.218912	-0.400828
N143	N	0.680444	1.327892	-0.154433
H144	H	0.753862	1.258709	-0.157093
H145	H	0.606771	1.320919	-0.130445
N146	N	0.515651	1.206845	-0.020069
H147	H	0.524342	1.213318	0.032204
H148	H	0.567881	1.227624	-0.067130
N149	N	0.687274	1.532459	0.019613
H150	H	0.757126	1.462646	0.019764
H151	H	0.715355	1.537277	-0.042295
H152	H	1.383604	0.727605	-0.404681
H153	H	0.853766	0.673666	0.140018
N154	N	1.391977	1.148754	-0.216223
H155	H	1.412583	1.092466	-0.183105
H156	H	1.436698	1.186701	-0.222327
H157	H	0.642489	1.057037	-0.125461
N158	N	1.657027	1.043981	-0.545006
H159	H	1.682377	1.089575	-0.527018
H160	H	1.733326	0.965611	-0.581026
N161	N	0.528845	0.986764	0.150538
H162	H	0.478433	0.952961	0.172739
H163	H	0.621080	0.925085	0.113708
N164	N	0.369319	1.687929	0.545072
H165	H	0.343959	1.758875	0.527087
H166	H	0.293029	1.685855	0.581083
N167	N	0.583265	0.842790	-0.132349
H168	H	0.514511	0.839703	-0.131547
H169	H	0.600703	0.891083	-0.169650
N170	N	0.492897	1.046231	-0.149059
H171	H	0.579825	1.028064	-0.190187
H172	H	0.493210	0.976782	-0.156655
H173	H	0.642792	1.298802	0.404729
H174	H	1.562861	0.334746	-0.374090
N175	N	1.554384	0.921586	-0.562530
H176	H	1.617916	0.933205	-0.608677
H177	H	1.593756	0.838982	-0.569475
H178	H	1.383589	0.928338	-0.404677
N179	N	1.657123	0.338481	-0.545029
H180	H	1.733481	0.340452	-0.581076
H181	H	1.682383	0.267587	-0.526976
H182	H	0.500218	1.691013	0.028189
H183	H	0.543481	1.526765	0.125984
N184	N	0.443145	1.413318	0.132741
H185	H	0.442214	1.344025	0.136789
H186	H	0.503771	1.409042	0.148469
H187	H	0.342296	1.504543	0.003273
H188	H	0.501764	1.345212	0.002215
H189	H	0.571828	1.587309	-0.129336
H190	H	0.731647	1.431626	-0.125611
N191	N	0.471991	1.462877	0.562586
H192	H	0.408455	1.538039	0.608736
H193	H	0.432626	1.419645	0.569527
N194	N	1.554439	0.563534	-0.562539
H195	H	1.647986	0.527829	-0.595650
H196	H	1.533758	0.527834	-0.595573
N197	N	1.228511	0.493966	-0.019501
H198	H	1.317367	0.426122	-0.057229
H199	H	1.228609	0.563828	-0.019621
N200	N	0.694797	0.814844	0.009508
H201	H	0.726692	0.736632	-0.019401
H202	H	0.764761	0.814619	0.009614
N203	N	0.442820	1.174936	0.140038
H204	H	0.511702	1.173219	0.143177
H205	H	0.416675	1.226923	0.105428
N206	N	0.266394	1.179517	0.135146
H207	H	0.195012	1.180152	0.137258
H208	H	0.242113	1.209874	0.196493
N209	N	0.345477	0.995875	0.154695
H210	H	0.418986	0.915165	0.130947
H211	H	0.321132	1.028679	0.215470
H212	H	1.198720	0.499666	-0.125936
N213	N	1.214109	0.323328	-0.147962
H214	H	1.154482	0.311655	-0.154454
H215	H	1.239124	0.364769	-0.189719
H216	H	0.837291	0.521907	-0.003233
N217	N	0.994822	0.435924	-0.133971
H218	H	1.018950	0.478946	-0.174393
H219	H	1.071882	0.359003	-0.151273
H220	H	0.979034	0.611176	-0.110071
N221	N	1.016562	0.422256	0.140348
H222	H	1.087534	0.344504	0.099096
H223	H	1.051188	0.458757	0.157190
N224	N	0.803392	0.705942	0.010229
H225	H	0.744679	0.680548	0.034648
H226	H	0.790597	0.753336	0.059929
H227	H	1.008768	0.594791	0.125659
H228	H	0.849733	0.516152	0.136906
