data_functionalizedCrystal
_audit_creation_method	'MofGen! by Chris Wilmer'
_symmetry_space_group_name_H-M	'P1'
_symmetry_Int_Tables_number	1
_symmetry_cell_setting	triclinic
loop_
_symmetry_equiv_pos_as_xyz
  x,y,z
_cell_length_a	17.699104
_cell_length_b	17.699083
_cell_length_c	16.176319
_cell_angle_alpha	89.992304
_cell_angle_beta	90.006745
_cell_angle_gamma	96.712734
loop_
_atom_site_label
_atom_site_type_symbol
_atom_site_fract_x
_atom_site_fract_y
_atom_site_fract_z
O1	O	1.004069	-0.095788	0.068735
O2	O	0.783693	-0.108224	0.068740
O3	O	0.900107	0.008183	0.068730
O4	O	0.887655	-0.212195	0.068745
O5	O	0.900091	0.008190	-0.068763
O6	O	0.783677	-0.108217	-0.068753
O7	O	1.004053	-0.095781	-0.068758
Cu8	Cu	0.893863	-0.101998	-0.081310
Cu9	Cu	0.893882	-0.102007	0.081292
O10	O	0.887639	-0.212187	-0.068748
C11	C	0.755488	-0.107772	-0.000006
C12	C	0.671471	-0.106427	-0.000005
N13	N	0.893856	-0.101991	-0.195675
C14	C	0.899653	0.036383	-0.000017
C15	C	0.898314	0.120402	-0.000017
C16	C	1.032258	-0.096233	-0.000010
C17	C	1.116275	-0.097578	-0.000006
C18	C	1.641146	-0.036834	-0.000012
C19	C	1.562202	-0.035575	-0.000008
C20	C	1.513585	-0.103910	-0.000003
C21	C	1.543914	-0.173509	0.000007
C22	C	1.622857	-0.174767	0.000009
C23	C	1.225548	-0.168436	-0.000001
C24	C	1.146601	-0.167172	-0.000005
C25	C	1.164894	-0.029243	-0.000018
C26	C	1.243836	-0.030502	-0.000016
C27	C	1.274159	-0.100100	-0.000001
C28	C	1.359759	-0.101464	-0.000004
C29	C	1.427986	-0.102546	-0.000006
C30	C	0.888093	-0.240388	0.000000
C31	C	0.889431	-0.324406	0.000006
C32	C	0.966647	0.169017	-0.000020
C33	C	0.965385	0.247961	-0.000012
C34	C	0.895789	0.278287	-0.000008
C35	C	0.827451	0.229665	-0.000003
C36	C	0.828714	0.150723	-0.000005
C37	C	0.822356	0.548028	0.000004
C38	C	0.821098	0.626976	0.000003
C39	C	0.959026	0.645266	-0.000004
C40	C	0.960289	0.566324	-0.000006
C41	C	0.891952	0.517709	0.000004
C42	C	0.893321	0.432110	-0.000002
C43	C	0.894419	0.363885	-0.000008
C44	C	0.945419	-0.050468	-0.238944
C45	C	0.945423	-0.050467	-0.325491
C46	C	0.893866	-0.101994	-0.368768
C47	C	0.842297	-0.153520	-0.325493
C48	C	0.842290	-0.153517	-0.238948
C49	C	0.842323	-0.153535	-0.674522
C50	C	0.842335	-0.153536	-0.761073
C51	C	0.945456	-0.050484	-0.761065
C52	C	0.945449	-0.050481	-0.674519
C53	C	0.893877	-0.102004	-0.631252
C54	C	0.893873	-0.102004	-0.537408
C55	C	0.893874	-0.101999	-0.462610
N56	N	0.893896	-0.102007	0.195657
H57	H	1.537516	0.021095	-0.000013
C58	C	1.001502	0.005498	-0.372319
C59	C	1.046672	0.050603	-0.315895
C60	C	1.098352	0.102159	-0.359002
H61	H	0.974440	0.037051	-0.406099
H62	H	1.032994	-0.021684	-0.406046
H63	H	1.015185	0.077783	-0.282182
H64	H	1.073751	0.019071	-0.282113
H65	H	1.129844	0.074977	-0.392729
H66	H	1.071283	0.133706	-0.392781
H67	H	1.129011	0.132764	-0.320725
C68	C	0.786265	-0.209511	-0.807912
C69	C	0.741084	-0.254618	-0.751498
C70	C	0.689421	-0.306180	-0.794616
H71	H	0.813341	-0.241063	-0.841664
H72	H	0.754780	-0.182335	-0.841670
H73	H	0.772565	-0.281793	-0.717755
H74	H	0.713991	-0.223088	-0.717745
H75	H	0.657936	-0.279004	-0.828374
H76	H	0.716503	-0.337726	-0.828366
H77	H	0.658754	-0.336787	-0.756346
C78	C	1.693801	0.037443	0.000027
C79	C	1.650343	0.098658	0.000045
C80	C	1.698821	0.167095	0.000096
H81	H	1.724992	0.039933	-0.047906
H82	H	1.724969	0.039856	0.047994
H83	H	1.619189	0.096246	-0.047917
H84	H	1.619154	0.096193	0.047974
H85	H	1.729988	0.169509	0.048064
H86	H	1.730009	0.169578	-0.047837
H87	H	1.669342	0.208638	0.000116
H88	H	1.021028	0.287541	-0.000016
H89	H	1.283417	0.025144	-0.000024
C90	C	1.258581	-0.243936	-0.000098
C91	C	1.303391	-0.248689	-0.070811
C92	C	1.333849	-0.318225	-0.070913
H93	H	1.218405	-0.284525	-0.000134
H94	H	1.289036	-0.247285	0.047834
H95	H	1.272937	-0.245348	-0.118730
H96	H	1.343578	-0.208116	-0.070790
H97	H	1.364304	-0.321574	-0.022982
H98	H	1.293668	-0.358808	-0.070947
H99	H	1.364261	-0.321456	-0.118887
H100	H	1.140196	0.027427	-0.000011
H101	H	1.504323	-0.229148	0.000016
C102	C	1.001458	0.005549	-0.627683
C103	C	1.046604	0.050688	-0.684101
C104	C	1.098200	0.102321	-0.640987
H105	H	1.032981	-0.021549	-0.593904
H106	H	0.974307	0.037066	-0.593953
H107	H	1.073753	0.019175	-0.717816
H108	H	1.015103	0.077803	-0.717881
H109	H	1.071049	0.133838	-0.607257
H110	H	1.129717	0.075216	-0.607210
H111	H	1.128832	0.132958	-0.679260
C112	C	1.093940	-0.241451	0.000050
C113	C	1.137390	-0.302672	0.000087
C114	C	1.088905	-0.371104	0.000149
H115	H	1.062743	-0.243936	-0.047885
H116	H	1.062778	-0.243862	0.048015
H117	H	1.168538	-0.300262	-0.047873
H118	H	1.168585	-0.300213	0.048019
H119	H	1.057744	-0.373516	0.048114
H120	H	1.057711	-0.373581	-0.047787
H121	H	1.118379	-0.412651	0.000182
H122	H	1.023320	0.144333	-0.000028
C123	C	0.748081	0.495379	-0.000041
C124	C	0.686865	0.538837	-0.000065
C125	C	0.618429	0.490359	-0.000121
H126	H	0.745597	0.464179	0.047892
H127	H	0.745661	0.464221	-0.048009
H128	H	0.689284	0.569981	0.047897
H129	H	0.689323	0.570035	-0.047994
H130	H	0.616009	0.459201	-0.048089
H131	H	0.615953	0.459161	0.047812
H132	H	0.576886	0.519838	-0.000145
H133	H	1.647545	-0.231437	0.000011
C134	C	0.786462	-0.209523	-0.627453
C135	C	0.826688	-0.255793	-0.577736
C136	C	0.775255	-0.307378	-0.534356
H137	H	0.755745	-0.240284	-0.665534
H138	H	0.755010	-0.182362	-0.593654
H139	H	0.858128	-0.282952	-0.611532
H140	H	0.857403	-0.225053	-0.539640
H141	H	0.743803	-0.280217	-0.500557
H142	H	0.744540	-0.338135	-0.572442
H143	H	0.802541	-0.338774	-0.500612
C144	C	0.786197	-0.209375	-0.372436
C145	C	0.711849	-0.197170	-0.351422
C146	C	0.660149	-0.248603	-0.394656
H147	H	0.794212	-0.259913	-0.358277
H148	H	0.793536	-0.201994	-0.430184
H149	H	0.704513	-0.204557	-0.293686
H150	H	0.703809	-0.146642	-0.365583
H151	H	0.667489	-0.241222	-0.452404
H152	H	0.668172	-0.299138	-0.380494
H153	H	0.609699	-0.240324	-0.380410
H154	H	0.764421	0.651664	0.000004
H155	H	0.770785	0.254362	0.000005
H156	H	0.773070	0.111140	-0.000002
C157	C	1.035774	0.533253	-0.000048
C158	C	1.022254	0.453713	-0.000069
C159	C	1.091773	0.423224	-0.000115
H160	H	1.063966	0.549859	0.047887
H161	H	1.063908	0.549910	-0.048014
H162	H	0.994132	0.437063	0.047892
H163	H	0.994074	0.437086	-0.048000
H164	H	1.119907	0.439881	-0.048080
H165	H	1.119959	0.439836	0.047820
H166	H	1.082609	0.369253	-0.000137
C167	C	0.786395	-0.209581	-0.192010
C168	C	0.798541	-0.283945	-0.213026
C169	C	0.747068	-0.335610	-0.169797
H170	H	0.735869	-0.201524	-0.206172
H171	H	0.793777	-0.202250	-0.134262
H172	H	0.791153	-0.291273	-0.270762
H173	H	0.849056	-0.292027	-0.198862
H174	H	0.754449	-0.328279	-0.112048
H175	H	0.696545	-0.327545	-0.183962
H176	H	0.755306	-0.386071	-0.184044
H177	H	1.014670	0.684858	-0.000008
H178	H	0.987406	-0.008511	-0.203713
H179	H	0.987446	-0.008529	-0.796302
