data_functionalizedCrystal
_audit_creation_method	'MofGen! by Chris Wilmer'
_symmetry_space_group_name_H-M	'P1'
_symmetry_Int_Tables_number	1
_symmetry_cell_setting	triclinic
loop_
_symmetry_equiv_pos_as_xyz
  x,y,z
_cell_length_a	14.044191
_cell_length_b	10.489741
_cell_length_c	13.101039
_cell_angle_alpha	93.396862
_cell_angle_beta	86.337551
_cell_angle_gamma	88.865475
loop_
_atom_site_label
_atom_site_type_symbol
_atom_site_fract_x
_atom_site_fract_y
_atom_site_fract_z
O1	O	1.264977	0.301339	-0.085164
O2	O	1.514977	0.551339	0.164836
O3	O	1.764977	0.801339	0.414836
O4	O	2.014977	1.051339	0.664836
O5	O	0.988932	0.290224	-0.085177
O6	O	1.238932	0.540224	0.164823
O7	O	1.488932	0.790224	0.414823
O8	O	1.738932	1.040224	0.664823
O9	O	1.133235	0.110821	-0.085164
O10	O	1.383235	0.360821	0.164836
O11	O	1.633235	0.610821	0.414836
O12	O	1.883235	0.860821	0.664836
O13	O	1.120673	0.480741	-0.085176
O14	O	1.370673	0.730741	0.164824
O15	O	1.620673	0.980741	0.414824
O16	O	1.870673	1.230741	0.664824
O17	O	1.122882	0.123716	0.085265
O18	O	1.372882	0.373716	0.335265
O19	O	1.622882	0.623716	0.585265
O20	O	1.872882	0.873716	0.835265
O21	O	0.978579	0.303119	0.085252
O22	O	1.228579	0.553119	0.335252
O23	O	1.478579	0.803119	0.585252
O24	O	1.728579	1.053119	0.835252
O25	O	1.254623	0.314234	0.085265
O26	O	1.504623	0.564234	0.335265
O27	O	1.754623	0.814234	0.585265
O28	O	2.004623	1.064234	0.835265
Zn29	Zn	1.114957	0.310724	0.112318
Zn30	Zn	1.364957	0.560724	0.362318
Zn31	Zn	1.614957	0.810724	0.612318
Zn32	Zn	1.864957	1.060724	0.862318
Zn33	Zn	1.128598	0.293734	-0.112229
Zn34	Zn	1.378598	0.543734	0.137771
Zn35	Zn	1.628598	0.793734	0.387771
Zn36	Zn	1.878598	1.043734	0.637771
O37	O	1.110320	0.493637	0.085252
O38	O	1.360320	0.743637	0.335252
O39	O	1.610320	0.993637	0.585252
O40	O	1.860320	1.243637	0.835252
C41	C	0.948408	0.291809	0.000036
C42	C	1.198408	0.541809	0.250036
C43	C	1.448408	0.791809	0.500036
C44	C	1.698408	1.041809	0.750036
C45	C	0.843083	0.277305	0.000031
C46	C	1.093083	0.527305	0.250031
C47	C	1.343083	0.777305	0.500031
C48	C	1.593083	1.027305	0.750031
C49	C	0.593317	0.353651	0.000039
C50	C	0.843317	0.603651	0.250039
C51	C	1.093317	0.853651	0.500039
C52	C	1.343317	1.103651	0.750039
C53	C	0.650244	0.250811	0.000041
C54	C	0.900244	0.500811	0.250041
C55	C	1.150244	0.750811	0.500041
C56	C	1.400244	1.000811	0.750041
C57	C	0.757550	0.265556	0.000036
C58	C	1.007550	0.515556	0.250036
C59	C	1.257550	0.765556	0.500036
C60	C	1.507550	1.015556	0.750036
C61	C	0.486002	0.338909	0.000044
C62	C	0.736002	0.588909	0.250044
C63	C	0.986002	0.838909	0.500044
C64	C	1.236002	1.088909	0.750044
C65	C	1.127110	0.069641	0.000050
C66	C	1.377110	0.319641	0.250050
C67	C	1.627110	0.569641	0.500050
C68	C	1.877110	0.819641	0.750050
C69	C	1.124271	-0.072277	0.000048
C70	C	1.374271	0.177723	0.250048
C71	C	1.624271	0.427723	0.500048
C72	C	1.874271	0.677723	0.750048
C73	C	1.032455	-0.149733	0.000036
C74	C	1.282455	0.100267	0.250036
C75	C	1.532455	0.350267	0.500036
C76	C	1.782455	0.600267	0.750036
C77	C	1.070724	-0.231097	0.084069
C78	C	1.320724	0.018903	0.334069
C79	C	1.570724	0.268903	0.584069
C80	C	1.820724	0.518903	0.834069
C81	C	1.080953	-0.243783	-0.083961
C82	C	1.330953	0.006217	0.166039
C83	C	1.580953	0.256217	0.416039
C84	C	1.830953	0.506217	0.666039
C85	C	1.162573	-0.151766	0.084150
C86	C	1.412573	0.098234	0.334150
C87	C	1.662573	0.348234	0.584150
C88	C	1.912573	0.598234	0.834150
C89	C	1.172794	-0.164450	-0.083955
C90	C	1.422794	0.085550	0.166045
C91	C	1.672794	0.335550	0.416045
C92	C	1.922794	0.585550	0.666045
C93	C	1.211128	-0.245778	0.000098
C94	C	1.461128	0.004222	0.250098
C95	C	1.711128	0.254222	0.500098
C96	C	1.961128	0.504222	0.750098
C97	C	1.295148	0.312649	0.000050
C98	C	1.545148	0.562649	0.250050
C99	C	1.795148	0.812649	0.500050
C100	C	2.045148	1.062649	0.750050
C101	C	1.400473	0.327152	0.000048
C102	C	1.650473	0.577152	0.250048
C103	C	1.900473	0.827152	0.500048
C104	C	2.150473	1.077152	0.750048
C105	C	1.116446	0.534817	0.000036
C106	C	1.366446	0.784817	0.250036
C107	C	1.616446	1.034817	0.500036
C108	C	1.866446	1.284817	0.750036
C109	C	1.119285	0.676734	0.000032
C110	C	1.369285	0.926734	0.250032
C111	C	1.619285	1.176734	0.500032
C112	C	1.869285	1.426734	0.750032
N113	N	1.105654	0.322319	0.265566
N114	N	1.355654	0.572319	0.515566
N115	N	1.605654	0.822319	0.765566
N116	N	1.855654	1.072319	1.015566
N117	N	1.137908	0.282129	-0.265477
N118	N	1.387908	0.532129	-0.015477
N119	N	1.637908	0.782129	0.234523
N120	N	1.887908	1.032129	0.484523
C121	C	1.092998	0.338106	0.474607
C122	C	1.342998	0.588106	0.724607
C123	C	1.592998	0.838106	0.974607
C124	C	1.842998	1.088106	1.224607
C125	C	1.150562	0.266346	0.525488
C126	C	1.400562	0.516346	0.775488
C127	C	1.650562	0.766346	1.025488
C128	C	1.900562	1.016346	1.275488
C129	C	1.143520	0.275130	0.641806
C130	C	1.393520	0.525130	0.891806
C131	C	1.643520	0.775130	1.141806
C132	C	1.893520	1.025130	1.391806
C133	C	1.100039	0.329324	0.358279
C134	C	1.350039	0.579324	0.608279
C135	C	1.600039	0.829324	0.858279
C136	C	1.850039	1.079324	1.108279
H137	H	0.625168	0.452761	0.000033
H138	H	0.875168	0.702761	0.250033
H139	H	1.125168	0.952761	0.500033
H140	H	1.375168	1.202761	0.750033
H141	H	0.618396	0.151688	-0.000028
H142	H	0.868396	0.401688	0.249972
H143	H	1.118396	0.651688	0.499972
H144	H	1.368396	0.901688	0.749972
Br145	Br	0.906626	-0.079736	0.000161
Br146	Br	1.156626	0.170264	0.250161
Br147	Br	1.406626	0.420264	0.500161
Br148	Br	1.656626	0.670264	0.750161
H149	H	1.205134	0.198314	0.481691
H150	H	1.455134	0.448314	0.731691
H151	H	1.705134	0.698314	0.981691
H152	H	1.955134	0.948314	1.231691
Br153	Br	0.998784	-0.280394	0.202476
Br154	Br	1.248784	-0.030394	0.452476
Br155	Br	1.498784	0.219606	0.702476
Br156	Br	1.748784	0.469606	0.952476
H157	H	1.197068	-0.111614	0.155272
H158	H	1.447068	0.138386	0.405272
H159	H	1.697068	0.388386	0.655272
H160	H	1.947068	0.638386	0.905272
Br161	Br	1.002047	0.451497	0.547599
Br162	Br	1.252047	0.701497	0.797599
Br163	Br	1.502047	0.951497	1.047599
Br164	Br	1.752047	1.201497	1.297599
H165	H	1.215927	-0.134842	-0.154999
H166	H	1.465927	0.115158	0.095001
H167	H	1.715927	0.365158	0.345001
H168	H	1.965927	0.615158	0.595001
Br169	Br	1.023367	-0.310962	-0.202362
Br170	Br	1.273367	-0.060962	0.047638
Br171	Br	1.523367	0.189038	0.297638
Br172	Br	1.773367	0.439038	0.547638
H173	H	1.286684	-0.287532	0.000148
H174	H	1.536684	-0.037532	0.250148
H175	H	1.786684	0.212468	0.500148
H176	H	2.036684	0.462468	0.750148
