data_functionalizedCrystal
_audit_creation_method	'MofGen! by Chris Wilmer'
_symmetry_space_group_name_H-M	'P1'
_symmetry_Int_Tables_number	1
_symmetry_cell_setting	triclinic
loop_
_symmetry_equiv_pos_as_xyz
  x,y,z
_cell_length_a	11.169417
_cell_length_b	14.908178
_cell_length_c	11.169409
_cell_angle_alpha	86.665446
_cell_angle_beta	89.980176
_cell_angle_gamma	93.314955
loop_
_atom_site_label
_atom_site_type_symbol
_atom_site_fract_x
_atom_site_fract_y
_atom_site_fract_z
Zn1	Zn	1.807331	-0.359096	-0.650924
Zn2	Zn	2.307331	0.140904	-0.150924
Zn3	Zn	1.795609	-0.510002	-0.438634
Zn4	Zn	2.295609	-0.010002	0.061366
Zn5	Zn	1.606613	-0.359151	-0.450254
Zn6	Zn	2.106613	0.140849	0.049746
Zn7	Zn	1.595018	-0.509929	-0.639285
Zn8	Zn	2.095018	-0.009929	-0.139285
O9	O	1.701143	-0.434545	-0.544774
O10	O	2.201143	0.065455	-0.044774
O11	O	1.973725	-0.379122	-0.622771
O12	O	2.473725	0.120878	-0.122771
O13	O	1.770484	-0.490045	-0.272222
O14	O	2.270484	0.009955	0.227778
O15	O	1.642997	-0.232888	-0.486607
O16	O	2.142997	0.267112	0.013393
O17	O	1.965113	-0.489992	-0.466803
O18	O	2.465113	0.010008	0.033197
O19	O	1.790464	-0.232848	-0.634039
O20	O	2.290464	0.267152	-0.134039
O21	O	1.631630	-0.379216	-0.280759
O22	O	2.131630	0.120784	0.219241
O23	O	1.437126	-0.379144	-0.475321
O24	O	1.937126	0.120856	0.024679
O25	O	1.623236	-0.489867	-0.808783
O26	O	2.123236	0.010133	-0.308783
O27	O	1.428607	-0.489920	-0.614201
O28	O	1.928607	0.010080	-0.114201
O29	O	1.779221	-0.379051	-0.817334
O30	O	2.279221	0.120949	-0.317334
O31	O	1.759242	-0.636248	-0.455517
O32	O	2.259242	-0.136248	0.044483
O33	O	1.611869	-0.636194	-0.602934
O34	O	2.111869	-0.136194	-0.102934
C35	C	1.389319	-0.434531	-0.544760
C36	C	1.889319	0.065469	-0.044760
C37	C	1.255918	-0.434547	-0.544781
C38	C	1.755918	0.065453	-0.044781
C39	C	1.683058	-0.668958	-0.526728
C40	C	2.183058	-0.168958	-0.026728
C41	C	1.675431	-0.769241	-0.519048
C42	C	2.175431	-0.269241	-0.019048
C43	C	1.814540	-0.957492	-0.658301
C44	C	2.314540	-0.457492	-0.158301
C45	C	1.807378	-1.051716	-0.651089
C46	C	2.307378	-0.551716	-0.151089
C47	C	1.653940	-1.051917	-0.497418
C48	C	2.153940	-0.551917	0.002582
C49	C	1.661102	-0.957693	-0.504630
C50	C	2.161102	-0.457693	-0.004630
C51	C	1.741406	-0.910483	-0.585073
C52	C	2.241406	-0.410483	-0.085073
C53	C	1.748573	-0.816256	-0.592278
C54	C	2.248573	-0.316256	-0.092278
C55	C	1.595129	-0.816459	-0.438615
C56	C	2.095129	-0.316459	0.061385
C57	C	1.587967	-0.910684	-0.431403
C58	C	2.087967	-0.410684	0.068597
C59	C	2.014184	-0.434559	-0.544789
C60	C	2.514184	0.065441	-0.044789
C61	C	2.147583	-0.434565	-0.544796
C62	C	2.647583	0.065435	-0.044796
C63	C	1.701243	-0.434444	-0.857825
C64	C	2.201243	0.065556	-0.357825
C65	C	1.701285	-0.434402	-0.991228
C66	C	2.201285	0.065598	-0.491228
C67	C	1.719331	-0.199216	-0.562917
C68	C	2.219331	0.300784	-0.062917
C69	C	1.727082	-0.098933	-0.570649
C70	C	2.227082	0.401067	-0.070649
C71	C	1.701117	-0.434579	-0.232947
C72	C	2.201117	0.065421	0.267053
C73	C	1.701327	-0.434368	-0.099564
C74	C	2.201327	0.065632	0.400436
H75	H	1.813964	-0.777819	-0.657776
H76	H	2.313964	-0.277819	-0.157776
H77	H	1.879935	-0.919053	-0.723792
H78	H	2.379935	-0.419053	-0.223792
C79	C	1.887826	-1.103427	-0.731633
C80	C	2.387826	-0.603427	-0.231633
H81	H	1.872056	-1.166306	-0.715825
H82	H	2.372056	-0.666306	-0.215825
H83	H	1.969652	-1.087941	-0.715330
H84	H	2.469652	-0.587941	-0.215330
H85	H	1.871383	-1.087946	-0.813445
H86	H	2.371383	-0.587946	-0.313445
C87	C	1.514679	-0.764752	-0.358055
C88	C	2.014679	-0.264752	0.141945
H89	H	1.465839	-0.806367	-0.309109
H90	H	1.965839	-0.306367	0.190891
H91	H	1.465153	-0.727996	-0.406721
H92	H	1.965153	-0.227996	0.093279
H93	H	1.563429	-0.728004	-0.308612
H94	H	2.063429	-0.228004	0.191388
H95	H	1.588554	-1.090372	-0.431931
H96	H	2.088554	-0.590372	0.068069
H97	H	1.522583	-0.949135	-0.365912
H98	H	2.022583	-0.449135	0.134088
