data_functionalizedCrystal
_audit_creation_method	'MofGen! by Chris Wilmer'
_symmetry_space_group_name_H-M	'P1'
_symmetry_Int_Tables_number	1
_symmetry_cell_setting	triclinic
loop_
_symmetry_equiv_pos_as_xyz
  x,y,z
_cell_length_a	16.120484
_cell_length_b	16.625548
_cell_length_c	16.625539
_cell_angle_alpha	89.979432
_cell_angle_beta	87.131385
_cell_angle_gamma	87.073374
loop_
_atom_site_label
_atom_site_type_symbol
_atom_site_fract_x
_atom_site_fract_y
_atom_site_fract_z
Zn1	Zn	-0.331882	-1.216388	0.472167
Zn2	Zn	0.001451	-0.883055	0.805500
Zn3	Zn	0.334784	-0.549721	1.138834
Zn4	Zn	-0.471307	-1.209447	0.344164
Zn5	Zn	-0.137974	-0.876113	0.677497
Zn6	Zn	0.195360	-0.542780	1.010831
Zn7	Zn	-0.331914	-1.081548	0.337349
Zn8	Zn	0.001419	-0.748215	0.670682
Zn9	Zn	0.334752	-0.414882	1.004016
Zn10	Zn	-0.471259	-1.074678	0.478951
Zn11	Zn	-0.137926	-0.741345	0.812285
Zn12	Zn	0.195408	-0.408011	1.145618
O13	O	-0.401591	-1.145515	0.408158
O14	O	-0.068257	-0.812182	0.741491
O15	O	0.265076	-0.478849	1.074824
O16	O	-0.350384	-1.328299	0.455200
O17	O	-0.017051	-0.994966	0.788533
O18	O	0.316283	-0.661633	1.121866
O19	O	-0.452849	-1.192451	0.230429
O20	O	-0.119516	-0.859118	0.563762
O21	O	0.213817	-0.525784	0.897096
O22	O	-0.215244	-1.105215	0.349541
O23	O	0.118089	-0.771882	0.682875
O24	O	0.451423	-0.438548	1.016208
O25	O	-0.452819	-1.323200	0.361156
O26	O	-0.119485	-0.989866	0.694490
O27	O	0.213848	-0.656533	1.027823
O28	O	-0.215221	-1.204281	0.448592
O29	O	0.118113	-0.870948	0.781925
O30	O	0.451446	-0.537615	1.115258
O31	O	-0.350438	-1.098484	0.225422
O32	O	-0.017105	-0.765151	0.558755
O33	O	0.316228	-0.431818	0.892089
O34	O	-0.350392	-0.967805	0.356120
O35	O	-0.017059	-0.634472	0.689453
O36	O	0.316275	-0.301138	1.022787
O37	O	-0.452737	-1.093506	0.590882
O38	O	-0.119404	-0.760173	0.924216
O39	O	0.213930	-0.426839	1.257549
O40	O	-0.452768	-0.962757	0.460155
O41	O	-0.119435	-0.629424	0.793488
O42	O	0.213899	-0.296091	1.126821
O43	O	-0.350338	-1.197620	0.585898
O44	O	-0.017004	-0.864286	0.919231
O45	O	0.316329	-0.530953	1.252564
O46	O	-0.587966	-1.185789	0.367735
O47	O	-0.254633	-0.852456	0.701068
O48	O	0.078700	-0.519123	1.034402
O49	O	-0.587931	-1.086775	0.466763
O50	O	-0.254598	-0.753442	0.800096
O51	O	0.078735	-0.420109	1.133430
C52	C	-0.401579	-0.936025	0.408135
C53	C	-0.068245	-0.602692	0.741468
C54	C	0.265088	-0.269358	1.074801
C55	C	-0.401594	-0.846403	0.408145
C56	C	-0.068260	-0.513070	0.741478
C57	C	0.265073	-0.179736	1.074812
C58	C	-0.618199	-1.134805	0.418742
C59	C	-0.284866	-0.801472	0.752076
C60	C	0.048468	-0.468139	1.085409
C61	C	-0.710865	-1.130297	0.423297
C62	C	-0.377532	-0.796964	0.756631
C63	C	-0.044198	-0.463631	1.089964
C64	C	-0.401529	-1.145571	0.618464
C65	C	-0.068195	-0.812237	0.951797
C66	C	0.265138	-0.478904	1.285130
C67	C	-0.401502	-1.145594	0.708084
C68	C	-0.068169	-0.812261	1.041417
C69	C	0.265165	-0.478928	1.374750
C70	C	-0.880527	-1.122072	0.431630
C71	C	-0.547193	-0.788738	0.764964
C72	C	-0.213860	-0.455405	1.098297
C73	C	-0.921814	-1.169103	0.384698
C74	C	-0.588481	-0.835770	0.718032
C75	C	-0.255147	-0.502437	1.051365
C76	C	-1.016220	-1.164526	0.389335
C77	C	-0.682886	-0.831193	0.722668
C78	C	-0.349553	-0.497860	1.056001
C79	C	-0.786113	-1.126648	0.426995
C80	C	-0.452779	-0.793314	0.760328
C81	C	-0.119446	-0.459981	1.093662
C82	C	-0.184136	-1.156289	0.397549
C83	C	0.149197	-0.822956	0.730883
C84	C	0.482530	-0.489622	1.064216
C85	C	-0.091470	-1.160880	0.393029
C86	C	0.241863	-0.827547	0.726362
C87	C	0.575196	-0.494213	1.059696
C88	C	-0.401603	-1.355823	0.408181
C89	C	-0.068270	-1.022490	0.741515
C90	C	0.265063	-0.689157	1.074848
C91	C	-0.401609	-1.445444	0.408192
C92	C	-0.068275	-1.112111	0.741525
C93	C	0.265058	-0.778778	1.074858
C94	C	-0.401599	-0.518227	0.408180
C95	C	-0.068266	-0.184894	0.741513
C96	C	0.265067	0.148439	1.074846
C97	C	-0.401595	-0.609536	0.408167
C98	C	-0.068262	-0.276203	0.741501
C99	C	0.265071	0.057131	1.074834
C100	C	-0.401597	-0.682312	0.408162
C101	C	-0.068264	-0.348979	0.741495
C102	C	0.265070	-0.015646	1.074828
C103	C	-0.401592	-0.773627	0.408150
C104	C	-0.068259	-0.440293	0.741484
C105	C	0.265074	-0.106960	1.074817
C106	C	-0.401592	-1.145509	0.198667
C107	C	-0.068259	-0.812176	0.532000
C108	C	0.265074	-0.478843	0.865334
C109	C	-0.401384	-1.145653	0.109036
C110	C	-0.068051	-0.812320	0.442369
C111	C	0.265283	-0.478987	0.775703
C112	C	-0.401409	-1.145636	1.036255
C113	C	-0.068075	-0.812303	1.369588
C114	C	0.265258	-0.478969	1.702922
C115	C	-0.401437	-1.145622	0.944948
C116	C	-0.068104	-0.812289	1.278281
C117	C	0.265229	-0.478955	1.611614
C118	C	-0.401456	-1.145616	0.872172
C119	C	-0.068123	-0.812282	1.205506
C120	C	0.265211	-0.478949	1.538839
C121	C	-0.401483	-1.145601	0.780859
C122	C	-0.068150	-0.812268	1.114193
C123	C	0.265183	-0.478934	1.447526
H124	H	-0.916078	-1.078373	0.475288
H125	H	-0.582745	-0.745039	0.808622
H126	H	-0.249412	-0.411706	1.141955
H127	H	-0.886260	-1.212805	0.341036
H128	H	-0.552927	-0.879471	0.674369
H129	H	-0.219593	-0.546138	1.007702
