data_functionalizedCrystal
_audit_creation_method	'MofGen! by Chris Wilmer'
_symmetry_space_group_name_H-M	'P1'
_symmetry_Int_Tables_number	1
_symmetry_cell_setting	triclinic
loop_
_symmetry_equiv_pos_as_xyz
  x,y,z
_cell_length_a	19.121241
_cell_length_b	29.839131
_cell_length_c	19.120904
_cell_angle_alpha	87.590850
_cell_angle_beta	90.124528
_cell_angle_gamma	92.475545
loop_
_atom_site_label
_atom_site_type_symbol
_atom_site_fract_x
_atom_site_fract_y
_atom_site_fract_z
Zn1	Zn	1.054797	-0.162207	0.442177
Zn2	Zn	1.554797	0.337793	0.942177
Zn3	Zn	1.059685	-0.234002	0.324933
Zn4	Zn	1.559685	0.265998	0.824933
Zn5	Zn	0.942563	-0.161940	0.319947
Zn6	Zn	1.442563	0.338060	0.819947
Zn7	Zn	0.937491	-0.240367	0.437119
Zn8	Zn	1.437491	0.259633	0.937119
O9	O	0.998634	-0.199629	0.381044
O10	O	1.498634	0.300371	0.881044
O11	O	1.153554	-0.169178	0.430828
O12	O	1.653554	0.330822	0.930828
O13	O	1.048317	-0.221668	0.226167
O14	O	1.548317	0.278332	0.726167
O15	O	0.957529	-0.099107	0.336191
O16	O	1.457529	0.400893	0.836191
O17	O	1.157145	-0.221926	0.344689
O18	O	1.657145	0.278074	0.844689
O19	O	1.039986	-0.099303	0.425993
O20	O	1.539986	0.400697	0.925993
O21	O	0.962268	-0.168724	0.222504
O22	O	1.462268	0.331276	0.722504
O23	O	0.843782	-0.174895	0.331286
O24	O	1.343782	0.325105	0.831286
O25	O	0.948883	-0.232774	0.535894
O26	O	1.448883	0.267226	1.035894
O27	O	0.840055	-0.232515	0.417372
O28	O	1.340055	0.267485	0.917372
O29	O	1.035067	-0.175350	0.539610
O30	O	1.535067	0.324650	1.039610
O31	O	1.043398	-0.297715	0.339784
O32	O	1.543398	0.202285	0.839784
O33	O	0.953623	-0.302391	0.422207
O34	O	1.453623	0.197609	0.922207
C35	C	0.816480	-0.204367	0.373240
C36	C	1.316480	0.295633	0.873240
C37	C	0.738553	-0.206406	0.369918
C38	C	1.238553	0.293594	0.869918
C39	C	0.700071	-0.179948	0.413273
C40	C	1.200071	0.320052	0.913273
C41	C	0.626850	-0.181861	0.410146
C42	C	1.126850	0.318139	0.910146
C43	C	0.592113	-0.210235	0.363666
C44	C	1.092113	0.289765	0.863666
C45	C	0.630601	-0.236693	0.320305
C46	C	1.130601	0.263307	0.820305
C47	C	0.703820	-0.234778	0.323430
C48	C	1.203820	0.265222	0.823430
C49	C	0.371132	-0.217388	0.351982
C50	C	0.871132	0.282612	0.851982
C51	C	0.297908	-0.219303	0.348862
C52	C	0.797908	0.280697	0.848862
C53	C	0.294162	-0.164470	0.438702
C54	C	0.794162	0.335530	0.938702
C55	C	0.367383	-0.162559	0.441825
C56	C	0.867383	0.337441	0.941825
C57	C	0.405864	-0.189016	0.398462
C58	C	0.905864	0.310984	0.898462
C59	C	0.517270	-0.212192	0.360470
C60	C	1.017270	0.287808	0.860470
C61	C	0.480706	-0.187056	0.401656
C62	C	0.980706	0.312944	0.901656
C63	C	0.998509	-0.316354	0.381004
C64	C	1.498509	0.183646	0.881004
C65	C	0.998518	-0.366288	0.381013
C66	C	1.498518	0.133712	0.881013
C67	C	1.045459	-0.673481	0.338195
C68	C	1.545459	-0.173481	0.838195
C69	C	1.045544	-0.861153	0.338226
C70	C	1.545544	-0.361153	0.838226
O71	O	1.085355	-0.883337	0.301791
O72	O	1.585355	-0.383337	0.801791
N73	N	0.998777	-0.887069	0.381103
N74	N	1.498777	-0.387069	0.881103
C75	C	0.951988	-0.866063	0.423978
C76	C	1.451988	-0.366063	0.923978
O77	O	0.912217	-0.892412	0.460454
O78	O	1.412217	-0.392412	0.960454
C79	C	0.951907	-0.678393	0.423951
C80	C	1.451907	-0.178393	0.923951
C81	C	0.998672	-0.652479	0.381066
C82	C	1.498672	-0.152479	0.881066
C83	C	1.092221	-0.647568	0.295315
C84	C	1.592221	-0.147568	0.795315
C85	C	1.092196	-0.600653	0.295305
C86	C	1.592196	-0.100653	0.795305
C87	C	1.045410	-0.579651	0.338175
C88	C	1.545410	-0.079651	0.838175
C89	C	0.998648	-0.605564	0.381056
C90	C	1.498648	-0.105564	0.881056
C91	C	0.905122	-0.657389	0.466829
C92	C	1.405122	-0.157389	0.966829
C93	C	0.905107	-0.610468	0.466820
C94	C	1.405107	-0.110468	0.966820
C95	C	0.951873	-0.584554	0.423935
C96	C	1.451873	-0.084554	0.923935
C97	C	0.951837	-0.537647	0.423916
C98	C	1.451837	-0.037647	0.923916
N99	N	0.998604	-0.511732	0.381040
N100	N	1.498604	-0.011732	0.881040
C101	C	1.045391	-0.532734	0.338169
C102	C	1.545391	-0.032734	0.838169
C103	C	0.952034	-0.964593	0.423989
C104	C	1.452034	-0.464593	0.923989
C105	C	0.952053	-1.011511	0.423995
C106	C	1.452053	-0.511511	0.923995
C107	C	1.045610	-1.006597	0.338244
C108	C	1.545610	-0.506597	0.838244
C109	C	1.045586	-0.959679	0.338234
C110	C	1.545586	-0.459679	0.838234
C111	C	0.998801	-0.938678	0.381112
C112	C	1.498801	-0.438678	0.881112
C113	C	1.045335	-0.434209	0.338151
C114	C	1.545335	0.065791	0.838151
C115	C	1.045305	-0.387290	0.338142
C116	C	1.545305	0.112710	0.838142
C117	C	0.951751	-0.392208	0.423896
C118	C	1.451751	0.107792	0.923896
C119	C	0.951779	-0.439123	0.423902
C120	C	1.451779	0.060877	0.923902
C121	C	0.998577	-0.460122	0.381027
C122	C	1.498577	0.039878	0.881027
O123	O	0.912052	-0.515434	0.460339
O124	O	1.412052	-0.015434	0.960339
O125	O	1.085167	-0.506377	0.301711
O126	O	1.585167	-0.006377	0.801711
C127	C	1.045483	-0.720396	0.338206
C128	C	1.545483	-0.220396	0.838206
C129	C	0.998721	-0.746310	0.381086
C130	C	1.498721	-0.246310	0.881086
C131	C	0.951935	-0.725308	0.423957
C132	C	1.451935	-0.225308	0.923957
C133	C	0.998741	-0.793227	0.381092
C134	C	1.498741	-0.293227	0.881092
C135	C	1.045527	-0.814229	0.338222
C136	C	1.545527	-0.314229	0.838222
C137	C	1.092294	-0.788313	0.295345
C138	C	1.592294	-0.288313	0.795345
C139	C	1.092270	-0.741398	0.295335
C140	C	1.592270	-0.241398	0.795335
C141	C	0.905168	-0.751223	0.466833
C142	C	1.405168	-0.251223	0.966833
C143	C	0.905195	-0.798138	0.466839
C144	C	1.405195	-0.298138	0.966839
C145	C	0.951982	-0.819140	0.423969
C146	C	1.451982	-0.319140	0.923969
C147	C	1.181499	-0.194872	0.388879
C148	C	1.681499	0.305128	0.888879
C149	C	1.259425	-0.192845	0.392218
C150	C	1.759425	0.307155	0.892218
C151	C	0.990864	-0.204801	0.563901
C152	C	1.490864	0.295199	1.063901
C153	C	0.987553	-0.207006	0.641823
C154	C	1.487553	0.292994	1.141823
C155	C	0.998778	-0.082448	0.381100
C156	C	1.498778	0.417552	0.881100
C157	C	0.998839	-0.032513	0.381124
C158	C	1.498839	0.467487	0.881124
C159	C	1.006414	-0.194443	0.198900
C160	C	1.506414	0.305557	0.698900
C161	C	1.009861	-0.192108	0.120984
C162	C	1.509861	0.307892	0.620984
C163	C	1.030867	-0.178145	0.680367
C164	C	1.530867	0.321855	1.180367
C165	C	1.027747	-0.180215	0.753584
C166	C	1.527747	0.319785	1.253584
C167	C	0.981317	-0.211148	0.788254
C168	C	1.481317	0.288852	1.288254
C169	C	0.937999	-0.240009	0.749705
C170	C	1.437999	0.259991	1.249705
C171	C	0.941115	-0.237937	0.676490
C172	C	1.441115	0.262063	1.176490
C173	C	0.969659	-0.218898	1.009219
C174	C	1.469659	0.281102	1.509219
C175	C	0.966547	-0.220969	1.082440
C176	C	1.466547	0.279031	1.582440
C177	C	1.056295	-0.161174	1.086313
C178	C	1.556295	0.338826	1.586313
C179	C	1.059411	-0.159106	1.013097
C180	C	1.559411	0.340894	1.513097
C181	C	1.016090	-0.187966	0.974554
C182	C	1.516090	0.312034	1.474554
C183	C	0.978129	-0.213265	0.863093
C184	C	1.478129	0.286735	1.363093
C185	C	1.019275	-0.185846	0.899716
C186	C	1.519275	0.314154	1.399716
H187	H	0.735152	-0.256322	0.288124
H188	H	1.235152	0.243678	0.788124
H189	H	1.083387	-0.366192	0.303218
H190	H	1.583387	0.133808	0.803218
H191	H	0.402455	-0.238932	0.316673
H192	H	0.902455	0.261068	0.816673
H193	H	1.083705	-1.023704	0.303337
H194	H	1.583705	-0.523704	0.803337
H195	H	0.602312	-0.259793	0.282457
H196	H	1.102312	0.240207	0.782457
H197	H	0.269627	-0.242410	0.311012
H198	H	0.769627	0.257590	0.811012
H199	H	1.063020	-0.156715	0.784963
H200	H	1.563020	0.343285	1.284963
H201	H	0.488979	-0.235293	0.322625
H202	H	0.988979	0.264707	0.822625
H203	H	0.867069	-0.734127	0.501745
H204	H	1.367069	-0.234127	1.001745
H205	H	0.913966	-1.032606	0.458909
H206	H	1.413966	-0.532606	0.958909
H207	H	1.068678	-0.152958	0.652144
H208	H	1.568678	0.347042	1.152144
H209	H	0.913701	-0.460223	0.458824
H210	H	1.413701	0.039777	0.958824
H211	H	0.867009	-0.593371	0.501738
H212	H	1.367009	-0.093371	1.001738
H213	H	0.913656	-0.375101	0.458798
H214	H	1.413656	0.124899	0.958798
H215	H	1.097221	-0.133918	0.984873
H216	H	1.597221	0.366082	1.484873
H217	H	0.508992	-0.163952	0.439497
H218	H	1.008992	0.336048	0.939497
H219	H	0.940328	-0.238452	0.891331
H220	H	1.440328	0.261548	1.391331
H221	H	0.395660	-0.139456	0.479677
H222	H	0.895660	0.360544	0.979677
H223	H	1.083444	-0.451301	0.303240
H224	H	1.583444	0.048699	0.803240
H225	H	1.057075	-0.160659	0.871484
H226	H	1.557075	0.339341	1.371484
H227	H	1.130387	-0.805421	0.260436
H228	H	1.630387	-0.305421	0.760436
H229	H	0.728348	-0.156845	0.451124
H230	H	1.228348	0.343155	0.951124
H231	H	1.130279	-0.579557	0.260387
H232	H	1.630279	-0.079557	0.760387
H233	H	0.928736	-0.246159	1.110666
H234	H	1.428736	0.253841	1.610666
H235	H	1.130324	-0.664663	0.260404
H236	H	1.630324	-0.164663	0.760404
H237	H	1.091564	-0.137677	1.117703
H238	H	1.591564	0.362323	1.617703
H239	H	0.934394	-0.242404	0.977847
H240	H	1.434394	0.257596	1.477847
H241	H	1.083667	-0.938582	0.303315
H242	H	1.583667	-0.438582	0.803315
H243	H	0.913933	-0.947498	0.458906
H244	H	1.413933	-0.447498	0.958906
H245	H	0.867038	-0.678479	0.501747
H246	H	1.367038	-0.178479	1.001747
H247	H	1.130350	-0.720303	0.260415
H248	H	1.630350	-0.220303	0.760415
H249	H	0.867107	-0.819233	0.501760
H250	H	1.367107	-0.319233	1.001760
H251	H	0.900192	-0.265194	0.777940
H252	H	1.400192	0.234806	1.277940
H253	H	0.905837	-0.261434	0.645108
H254	H	1.405837	0.238566	1.145108
H255	H	0.595521	-0.160317	0.445452
H256	H	1.095521	0.339683	0.945452
H257	H	0.262823	-0.142929	0.474005
H258	H	0.762823	0.357071	0.974005
