data_functionalizedCrystal
_audit_creation_method	'MofGen! by Chris Wilmer'
_symmetry_space_group_name_H-M	'P1'
_symmetry_Int_Tables_number	1
_symmetry_cell_setting	triclinic
loop_
_symmetry_equiv_pos_as_xyz
  x,y,z
_cell_length_a	16.992694
_cell_length_b	14.853567
_cell_length_c	15.455313
_cell_angle_alpha	92.672621
_cell_angle_beta	87.142206
_cell_angle_gamma	87.151577
loop_
_atom_site_label
_atom_site_type_symbol
_atom_site_fract_x
_atom_site_fract_y
_atom_site_fract_z
O1	O	1.044027	0.187488	-0.072010
O2	O	0.815740	0.185390	-0.072036
O3	O	0.935981	0.055640	-0.072025
O4	O	0.923785	0.317238	-0.072021
O5	O	0.929105	0.063027	0.072237
O6	O	0.808864	0.192777	0.072226
O7	O	1.037151	0.194875	0.072251
Cu8	Cu	0.922380	0.194501	0.085411
Cu9	Cu	0.930511	0.185764	-0.085195
O10	O	0.916909	0.324625	0.072241
C11	C	0.783087	0.186385	0.000092
C12	C	0.696034	0.178334	0.000081
C13	C	0.931991	0.025705	0.000103
C14	C	0.930335	-0.074496	0.000096
C15	C	0.645878	0.256009	0.000083
C16	C	0.564083	0.248440	0.000095
C17	C	0.532445	0.163195	0.000099
C18	C	0.582608	0.085514	0.000100
C19	C	0.664401	0.093084	0.000094
C20	C	0.288813	0.131820	0.000122
C21	C	0.207013	0.124255	0.000125
C22	C	0.188493	0.287183	0.000122
C23	C	0.270290	0.294745	0.000111
C24	C	0.320445	0.217064	0.000116
N25	N	0.448838	0.155456	0.000108
N26	N	0.404050	0.224804	0.000113
C27	C	0.851909	-0.492567	0.000103
C28	C	0.994758	-0.503760	0.000119
C29	C	0.996315	-0.409617	0.000114
C30	C	0.925668	-0.356944	0.000105
C31	C	0.853464	-0.398414	0.000101
C32	C	1.068518	-0.368139	0.000127
C33	C	1.070078	-0.273990	0.000123
C34	C	0.999430	-0.221316	0.000108
C35	C	0.927223	-0.262791	0.000103
C36	C	0.856576	-0.210118	0.000094
C37	C	0.784368	-0.251593	0.000082
C38	C	0.782816	-0.345740	0.000086
C39	C	1.000982	-0.127169	0.000105
C40	C	0.858131	-0.115966	0.000091
C41	C	1.069804	0.193880	0.000122
C42	C	1.156857	0.201931	0.000127
C43	C	0.920900	0.354560	0.000110
C44	C	0.922556	0.454760	0.000112
N45	N	0.916666	0.200645	0.205406
N46	N	0.936231	0.179613	-0.205190
C47	C	0.967766	0.145545	0.250805
C48	C	0.963453	0.150201	0.341612
C49	C	0.908042	0.209961	0.387019
C50	C	0.856936	0.265063	0.341614
C51	C	0.861246	0.260402	0.250808
C52	C	0.889436	0.230054	0.658599
C53	C	0.885131	0.234713	0.749411
C54	C	0.991647	0.119849	0.749403
C55	C	0.995956	0.115198	0.658595
C56	C	0.944847	0.170296	0.613198
N57	N	0.903633	0.214723	0.479839
N58	N	0.949253	0.165529	0.520380
H59	H	0.671631	0.325425	0.000080
H60	H	0.811815	0.313718	0.378590
C61	C	0.464881	0.330640	-0.074067
C62	C	0.508953	0.333825	0.000088
H63	H	0.430844	0.383355	-0.074068
H64	H	0.499565	0.327625	-0.124366
H65	H	0.434333	0.278788	-0.074048
H66	H	0.539505	0.385674	0.000066
H67	H	0.474264	0.336850	0.050400
C68	C	1.107177	0.097548	0.555958
C69	C	1.056498	0.049246	0.608454
H70	H	1.144449	0.056755	0.524938
H71	H	1.077331	0.129921	0.516115
H72	H	1.134132	0.138715	0.591222
H73	H	1.029539	0.008084	0.573189
H74	H	1.086349	0.016858	0.648302
C75	C	0.755535	0.374416	0.259931
C76	C	0.805079	0.320974	0.200902
H77	H	0.720861	0.411812	0.229120
H78	H	0.725610	0.336653	0.295355
H79	H	0.786536	0.411037	0.295343
H80	H	0.774078	0.284347	0.165495
H81	H	0.835006	0.358741	0.165464
H82	H	0.847822	0.274919	0.621644
C83	C	0.569684	-0.051889	0.074263
C84	C	0.547834	-0.008191	0.000104
H85	H	0.548214	-0.109737	0.074263
H86	H	0.625569	-0.058495	0.074255
H87	H	0.550076	-0.017074	0.124565
H88	H	0.567448	-0.043003	-0.050199
H89	H	0.491938	-0.001589	0.000104
C90	C	1.069192	0.036223	0.332483
C91	C	1.019636	0.089648	0.391514
H92	H	1.103883	-0.001154	0.363292
H93	H	1.038206	-0.000410	0.297079
H94	H	1.099104	0.074005	0.297052
H95	H	0.989720	0.051867	0.426941
H96	H	1.050626	0.126285	0.426933
C97	C	0.348040	0.401579	0.074221
C98	C	0.305082	0.388440	0.000081
H99	H	0.369528	0.459417	0.074186
H100	H	0.314131	0.397853	0.124530
H101	H	0.389605	0.356382	0.074218
H102	H	0.263514	0.433632	0.000087
H103	H	0.338993	0.392173	-0.050242
H104	H	0.147649	0.350426	0.000119
H105	H	1.126034	-0.411032	0.000143
H106	H	1.033256	0.074990	0.786374
C107	C	0.780251	0.347763	0.740303
C108	C	0.824207	0.300393	0.799325
H109	H	0.742637	0.388302	0.771120
H110	H	0.814596	0.380763	0.704882
H111	H	0.753697	0.306349	0.704889
H112	H	0.850765	0.341807	0.834735
H113	H	0.789857	0.267392	0.834761
C114	C	1.089134	-0.031586	-0.074043
C115	C	1.080342	-0.081574	0.000118
H116	H	1.138128	-0.003434	-0.074031
H117	H	1.087964	-0.070663	-0.124338
H118	H	1.047276	0.013252	-0.074044
H119	H	1.122197	-0.126417	0.000116
H120	H	1.081519	-0.042494	0.050426
H121	H	1.052275	-0.546652	0.000134
H122	H	0.181257	0.054835	0.000127
C123	C	0.659551	-0.209249	0.074226
C124	C	0.706714	-0.193688	0.000074
H125	H	0.611615	-0.173494	0.074221
H126	H	0.648287	-0.271246	0.074215
H127	H	0.686764	-0.193546	0.124532
H128	H	0.679504	-0.209397	-0.050233
H129	H	0.717976	-0.131677	0.000077
C130	C	0.298890	-0.029985	0.000119
C131	C	0.343936	0.046433	0.000121
H132	H	0.332926	-0.082701	0.000113
H133	H	0.264212	-0.026969	0.050423
H134	H	0.268993	-0.032117	-0.050191
H135	H	0.373829	0.048568	0.050434
H136	H	0.378628	0.043416	-0.050189
H137	H	0.705238	0.029832	0.000092
C138	C	1.211126	-0.294523	0.000133
C139	C	1.149447	-0.228406	0.000126
H140	H	1.260124	-0.266378	0.000127
H141	H	1.205152	-0.328425	0.050441
H142	H	1.209937	-0.333595	-0.050174
H143	H	1.150631	-0.189338	0.050436
H144	H	1.155422	-0.194489	-0.050187
H145	H	0.800601	-0.073085	0.000080
H146	H	0.793119	-0.526339	0.000091
C147	C	0.717007	-0.485087	0.000100
C148	C	0.703450	-0.391329	0.000086
H149	H	0.668009	-0.513233	0.000109
H150	H	0.748488	-0.505392	-0.050202
H151	H	0.743707	-0.500222	0.050413
H152	H	0.676755	-0.376194	-0.050230
H153	H	0.671957	-0.371017	0.050393
H154	H	1.012891	0.096886	0.213840
