data_functionalizedCrystal
_audit_creation_method	'MofGen! by Chris Wilmer'
_symmetry_space_group_name_H-M	'P1'
_symmetry_Int_Tables_number	1
_symmetry_cell_setting	triclinic
loop_
_symmetry_equiv_pos_as_xyz
  x,y,z
_cell_length_a	14.044220
_cell_length_b	9.065218
_cell_length_c	13.101039
_cell_angle_alpha	93.413922
_cell_angle_beta	93.659868
_cell_angle_gamma	90.897619
loop_
_atom_site_label
_atom_site_type_symbol
_atom_site_fract_x
_atom_site_fract_y
_atom_site_fract_z
O1	O	1.265907	-0.348622	0.085098
O2	O	0.989829	-0.335771	0.085124
O3	O	1.133574	-0.128187	0.085108
O4	O	1.122162	-0.556206	0.085113
O5	O	1.123261	-0.143108	-0.085321
O6	O	0.979516	-0.350692	-0.085305
O7	O	1.255594	-0.363543	-0.085331
Zn8	Zn	1.115917	-0.359486	-0.112377
Zn9	Zn	1.129505	-0.339828	0.112170
O10	O	1.111848	-0.571127	-0.085315
C11	C	0.949310	-0.337607	-0.000087
C12	C	0.843941	-0.320829	-0.000077
C13	C	1.127321	-0.080539	-0.000105
C14	C	1.124042	0.083668	-0.000099
N15	N	1.106650	-0.372903	-0.265625
C16	C	0.651015	-0.290159	-0.000098
C17	C	0.594403	-0.409148	-0.000101
C18	C	0.487052	-0.392083	-0.000112
C19	C	0.758375	-0.307222	-0.000086
C20	C	1.296113	-0.361707	-0.000118
C21	C	1.401483	-0.378485	-0.000121
C22	C	1.118102	-0.618775	-0.000101
C23	C	1.121382	-0.782981	-0.000099
C24	C	1.094043	-0.391170	-0.474666
C25	C	1.151384	-0.308137	-0.525548
C26	C	1.144369	-0.318301	-0.641866
C27	C	1.101057	-0.381008	-0.358338
N28	N	1.138780	-0.326400	0.265417
H29	H	0.626559	-0.523834	-0.000094
H30	H	1.039687	-0.469887	-0.518457
H31	H	1.205745	-0.229418	-0.481752
C32	C	0.607576	-0.135231	-0.000097
N33	N	0.574846	-0.018541	-0.000092
