data_functionalizedCrystal
_audit_creation_method	'MofGen! by Chris Wilmer'
_symmetry_space_group_name_H-M	'P1'
_symmetry_Int_Tables_number	1
_symmetry_cell_setting	triclinic
loop_
_symmetry_equiv_pos_as_xyz
  x,y,z
_cell_length_a	11.792241
_cell_length_b	11.026607
_cell_length_c	10.268362
_cell_angle_alpha	89.999104
_cell_angle_beta	90.000426
_cell_angle_gamma	96.389716
loop_
_atom_site_label
_atom_site_type_symbol
_atom_site_fract_x
_atom_site_fract_y
_atom_site_fract_z
O1	O	1.539979	0.166545	0.108167
O2	O	1.213047	0.183709	0.108197
O3	O	1.349417	-0.001704	0.108180
O4	O	1.403609	0.351958	0.108184
O5	O	1.349402	-0.001698	-0.108421
O6	O	1.213031	0.183716	-0.108404
O7	O	1.539964	0.166551	-0.108433
Cu8	Cu	1.376496	0.175134	-0.128196
Cu9	Cu	1.376514	0.175126	0.127959
O10	O	1.403593	0.351965	-0.108416
C11	C	1.170534	0.182634	-0.000100
C12	C	1.043879	0.179407	-0.000088
C13	C	1.339412	-0.046978	-0.000118
C14	C	1.309609	-0.181888	-0.000111
C15	C	1.391899	-0.255152	-0.000116
C16	C	1.361099	-0.394589	-0.000109
C17	C	0.811989	0.173473	-0.000126
C18	C	0.941029	0.176770	-0.000105
C19	C	1.582477	0.167626	-0.000134
C20	C	1.709131	0.170853	-0.000137
C21	C	1.413598	0.397238	-0.000116
C22	C	1.443401	0.532148	-0.000114
N23	N	1.376491	0.175138	-0.308362
C24	C	1.376500	0.175139	-0.426204
C25	C	1.376512	0.175128	-0.574042
N26	N	1.376526	0.175112	0.308125
H27	H	1.267839	-0.435088	-0.000092
N28	N	1.560392	-0.417040	-0.000118
N29	N	1.585250	-0.303843	-0.000121
H30	H	1.667874	-0.267955	-0.000123
N31	N	1.508883	-0.204329	-0.000142
N32	N	1.546858	-0.136630	-0.091450
H33	H	1.629480	-0.100735	-0.091470
N34	N	1.192626	-0.232710	-0.000112
N35	N	1.154635	-0.300413	-0.091409
H36	H	1.072013	-0.336306	-0.091412
