data_functionalizedCrystal
_audit_creation_method	'MofGen! by Chris Wilmer'
_symmetry_space_group_name_H-M	'P1'
_symmetry_Int_Tables_number	1
_symmetry_cell_setting	triclinic
loop_
_symmetry_equiv_pos_as_xyz
  x,y,z
_cell_length_a	19.121063
_cell_length_b	14.908795
_cell_length_c	14.908308
_cell_angle_alpha	89.788666
_cell_angle_beta	95.554627
_cell_angle_gamma	95.893289
loop_
_atom_site_label
_atom_site_type_symbol
_atom_site_fract_x
_atom_site_fract_y
_atom_site_fract_z
Zn1	Zn	-0.246874	1.331013	-0.600507
Zn2	Zn	0.086459	1.664346	-0.267174
Zn3	Zn	0.419793	1.997680	0.066160
Zn4	Zn	-0.357738	1.333172	-0.455839
Zn5	Zn	-0.024405	1.666505	-0.122506
Zn6	Zn	0.308929	1.999839	0.210827
Zn7	Zn	-0.246109	1.189371	-0.441439
Zn8	Zn	0.087224	1.522704	-0.108106
Zn9	Zn	0.420558	1.856037	0.225228
Zn10	Zn	-0.371252	1.173415	-0.598155
Zn11	Zn	-0.037919	1.506748	-0.264821
Zn12	Zn	0.295414	1.840082	0.068512
O13	O	-0.305493	1.256743	-0.523985
O14	O	0.027840	1.590076	-0.190652
O15	O	0.361173	1.923409	0.142682
O16	O	-0.256245	1.457436	-0.588328
O17	O	0.077089	1.790769	-0.254994
O18	O	0.410422	2.124103	0.078339
O19	O	-0.336954	1.321678	-0.327799
O20	O	-0.003621	1.655011	0.005534
O21	O	0.329712	1.988344	0.338868
O22	O	-0.147441	1.213934	-0.457498
O23	O	0.185893	1.547267	-0.124164
O24	O	0.519226	1.880601	0.209169
O25	O	-0.337696	1.459022	-0.482041
O26	O	-0.004363	1.792356	-0.148708
O27	O	0.328971	2.125689	0.184626
O28	O	-0.148002	1.317998	-0.574364
O29	O	0.185331	1.651331	-0.241031
O30	O	0.518664	1.984665	0.092302
O31	O	-0.254941	1.216027	-0.317219
O32	O	0.078392	1.549361	0.016114
O33	O	0.411726	1.882694	0.349447
O34	O	-0.268045	1.061118	-0.455216
O35	O	0.065288	1.394451	-0.121883
O36	O	0.398621	1.727784	0.211450
O37	O	-0.360729	1.186740	-0.724597
O38	O	-0.027396	1.520073	-0.391263
O39	O	0.305938	1.853406	-0.057930
O40	O	-0.359987	1.049395	-0.570355
O41	O	-0.026654	1.382728	-0.237022
O42	O	0.306679	1.716062	0.096312
O43	O	-0.269349	1.302526	-0.726325
O44	O	0.063985	1.635860	-0.392992
O45	O	0.397318	1.969193	-0.059658
O46	O	-0.458301	1.306206	-0.479760
O47	O	-0.124967	1.639539	-0.146427
O48	O	0.208366	1.972872	0.186907
O49	O	-0.468230	1.188833	-0.584318
O50	O	-0.134896	1.522166	-0.250985
O51	O	0.198437	1.855500	0.082348
C52	C	-0.315400	1.022550	-0.510968
C53	C	0.017933	1.355884	-0.177635
C54	C	0.351266	1.689217	0.155698
C55	C	-0.319657	0.922360	-0.505422
C56	C	0.013677	1.255693	-0.172089
C57	C	0.347010	1.589026	0.161245
C58	C	-0.367984	0.781982	-0.442174
C59	C	-0.034650	1.115316	-0.108841
C60	C	0.298683	1.448649	0.224493
C61	C	-0.363987	0.876120	-0.447385
C62	C	-0.030654	1.209454	-0.114052
C63	C	0.302679	1.542787	0.219282
C64	C	-0.279318	0.874454	-0.558250
C65	C	0.054015	1.207788	-0.224916
C66	C	0.387349	1.541121	0.108417
C67	C	-0.283314	0.780316	-0.553039
C68	C	0.050019	1.113650	-0.219705
C69	C	0.383353	1.446983	0.113628
C70	C	-0.327649	0.734083	-0.495000
C71	C	0.005684	1.067417	-0.161667
C72	C	0.339017	1.400750	0.171667
C73	C	-0.331649	0.639943	-0.489794
C74	C	0.001684	0.973277	-0.156461
C75	C	0.335018	1.306610	0.176872
C76	C	-0.246976	0.638279	-0.600654
C77	C	0.086357	0.971613	-0.267320
C78	C	0.419690	1.304946	0.066013
C79	C	-0.242980	0.732417	-0.605865
C80	C	0.090353	1.065751	-0.272531
C81	C	0.423687	1.399084	0.060802
C82	C	-0.488875	1.246045	-0.533368
C83	C	-0.155542	1.579379	-0.200034
C84	C	0.177792	1.912712	0.133299
C85	C	-0.567324	1.241550	-0.537416
C86	C	-0.233991	1.574883	-0.204083
C87	C	0.099342	1.908216	0.129251
C88	C	-0.598988	1.300589	-0.484930
C89	C	-0.265654	1.633923	-0.151597
C90	C	0.067679	1.967256	0.181736
C91	C	-0.672700	1.296366	-0.488744
C92	C	-0.339366	1.629700	-0.155410
C93	C	-0.006033	1.963033	0.177923
C94	C	-0.714747	1.233099	-0.545038
C95	C	-0.381414	1.566432	-0.211705
C96	C	-0.048080	1.899765	0.121628
C97	C	-0.683079	1.174056	-0.597530
C98	C	-0.349746	1.507390	-0.264197
C99	C	-0.016412	1.840723	0.069137
C100	C	-0.609368	1.178284	-0.593721
C101	C	-0.276035	1.511618	-0.260388
C102	C	0.057298	1.844951	0.072946
C103	C	-0.937565	1.217277	-0.559265
C104	C	-0.604232	1.550610	-0.225931
C105	C	-0.270899	1.883944	0.107402
C106	C	-1.011281	1.213052	-0.563068
C107	C	-0.677947	1.546385	-0.229735
C108	C	-0.344614	1.879718	0.103599
C109	C	-1.000896	1.335363	-0.454282
C110	C	-0.667563	1.668697	-0.120949
C111	C	-0.334230	2.002030	0.212384
C112	C	-0.927185	1.339582	-0.450474
C113	C	-0.593851	1.672915	-0.117141
C114	C	-0.260518	2.006249	0.216193
C115	C	-0.895523	1.280543	-0.502969
C116	C	-0.562190	1.613876	-0.169636
C117	C	-0.228856	1.947210	0.163697
C118	C	-0.790093	1.228778	-0.548935
C119	C	-0.456759	1.562112	-0.215602
C120	C	-0.123426	1.895445	0.117731
C121	C	-0.820179	1.284868	-0.499076
C122	C	-0.486845	1.618201	-0.165743
C123	C	-0.153512	1.951535	0.167590
C124	C	-0.121395	1.267505	-0.514587
C125	C	0.211938	1.600838	-0.181254
C126	C	0.545271	1.934172	0.152080
C127	C	-0.042944	1.272091	-0.510582
C128	C	0.290389	1.605425	-0.177249
C129	C	0.623723	1.938758	0.156085
C130	C	-0.316632	1.242612	-0.759079
C131	C	0.016702	1.575946	-0.425746
C132	C	0.350035	1.909279	-0.092413
C133	C	-0.321378	1.236591	-0.859263
C134	C	0.011955	1.569924	-0.525929
C135	C	0.345288	1.903257	-0.192596
C136	C	-0.295548	1.491849	-0.537053
C137	C	0.037785	1.825183	-0.203720
C138	C	0.371119	2.158516	0.129614
C139	C	-0.291310	1.592038	-0.542622
C140	C	0.042023	1.925371	-0.209289
C141	C	0.375357	2.258705	0.124045
C142	C	-0.235127	1.345842	-1.049318
C143	C	0.098207	1.679176	-0.715985
C144	C	0.431540	2.012509	-0.382651
C145	C	-0.239584	1.340188	-1.143449
C146	C	0.093749	1.673521	-0.810116
C147	C	0.427083	2.006854	-0.476783
C148	C	-0.334746	1.219622	-1.141657
C149	C	-0.001413	1.552956	-0.808324
C150	C	0.331921	1.886289	-0.474991
C151	C	-0.330289	1.225277	-1.047526
C152	C	0.003045	1.558611	-0.714193
C153	C	0.336378	1.891944	-0.380860
C154	C	-0.280478	1.288390	-1.001360
C155	C	0.052855	1.621724	-0.668027
C156	C	0.386189	1.955057	-0.334693
C157	C	-0.276025	1.294049	-0.907228
C158	C	0.057309	1.627382	-0.573894
C159	C	0.390642	1.960716	-0.240561
C160	C	-0.371183	1.173480	-0.905437
C161	C	-0.037850	1.506813	-0.572104
C162	C	0.295484	1.840147	-0.238770
C163	C	-0.375640	1.167825	-0.999568
C164	C	-0.042307	1.501158	-0.666235
C165	C	0.291027	1.834492	-0.332901
C166	C	-0.294345	1.270873	-0.289805
C167	C	0.038988	1.604206	0.043528
C168	C	0.372321	1.937540	0.376861
C169	C	-0.289393	1.277081	-0.189622
C170	C	0.043941	1.610414	0.143711
C171	C	0.377274	1.943747	0.477044
H172	H	-0.396831	0.915116	-0.404368
H173	H	-0.063498	1.248449	-0.071035
H174	H	0.269836	1.581783	0.262299
H175	H	-0.408113	1.126700	-0.866380
H176	H	-0.074780	1.460034	-0.533046
H177	H	0.258553	1.793367	-0.199713
H178	H	-0.206882	0.770073	-0.653116
H179	H	0.126452	1.103407	-0.319782
H180	H	0.459785	1.436740	0.013551
H181	H	-0.785942	1.336384	-0.453245
H182	H	-0.452608	1.669717	-0.119911
H183	H	-0.119275	2.003051	0.213422
H184	H	-0.194572	1.397236	-1.011729
H185	H	0.138761	1.730569	-0.678396
H186	H	0.472094	2.063903	-0.345063
H187	H	-0.564757	1.352105	-0.439085
H188	H	-0.231424	1.685438	-0.105752
H189	H	0.101910	2.018772	0.227582
H190	H	-0.416193	1.116439	-1.037169
H191	H	-0.082860	1.449772	-0.703836
H192	H	0.250474	1.783105	-0.370503
H193	H	-0.404089	0.744338	-0.394924
H194	H	-0.070755	1.077671	-0.061591
H195	H	0.262578	1.411005	0.271743
H196	H	-0.235467	1.345440	-0.869641
H197	H	0.097866	1.678773	-0.536307
H198	H	0.431199	2.012107	-0.202974
H199	H	-0.375299	1.168239	-1.179262
H200	H	-0.041966	1.501572	-0.845929
H201	H	0.291368	1.834905	-0.512595
H202	H	-0.243218	0.912114	-0.605497
H203	H	0.090115	1.245447	-0.272163
H204	H	0.423448	1.578781	0.061170
H205	H	-0.367751	0.602302	-0.442539
H206	H	-0.034418	0.935635	-0.109206
H207	H	0.298915	1.268968	0.224128
H208	H	-0.214134	0.599270	-0.643670
H209	H	0.119199	0.932603	-0.310336
H210	H	0.452533	1.265937	0.022997
H211	H	-0.698476	1.344442	-0.446003
H212	H	-0.365143	1.677775	-0.112670
H213	H	-0.031810	2.011109	0.220663
H214	H	-0.911792	1.169204	-0.602007
H215	H	-0.578459	1.502537	-0.268673
H216	H	-0.245125	1.835870	0.064660
H217	H	-0.824336	1.177264	-0.594769
H218	H	-0.491002	1.510597	-0.261436
H219	H	-0.157669	1.843931	0.071898
H220	H	-0.202652	1.386969	-1.182493
H221	H	0.130681	1.720302	-0.849160
H222	H	0.464014	2.053636	-0.515826
H223	H	-0.892951	1.391100	-0.404634
H224	H	-0.559618	1.724433	-0.071301
H225	H	-0.226284	2.057766	0.262032
H226	H	-1.026683	1.383431	-0.411545
H227	H	-0.693350	1.716764	-0.078212
H228	H	-0.360017	2.050097	0.255122
H229	H	-1.045514	1.161541	-0.608926
H230	H	-0.712181	1.494875	-0.275593
H231	H	-0.378848	1.828208	0.057741
H232	H	-0.717320	1.122546	-0.643371
H233	H	-0.383986	1.455879	-0.310037
H234	H	-0.050653	1.789213	0.023296
H235	H	-0.583589	1.130209	-0.636462
H236	H	-0.250256	1.463543	-0.303128
H237	H	0.083078	1.796876	0.030205
