data_functionalizedCrystal
_audit_creation_method	'MofGen! by Chris Wilmer'
_symmetry_space_group_name_H-M	'P1'
_symmetry_Int_Tables_number	1
_symmetry_cell_setting	triclinic
loop_
_symmetry_equiv_pos_as_xyz
  x,y,z
_cell_length_a	14.853566
_cell_length_b	13.339070
_cell_length_c	12.376457
_cell_angle_alpha	104.398083
_cell_angle_beta	78.693687
_cell_angle_gamma	99.631854
loop_
_atom_site_label
_atom_site_type_symbol
_atom_site_fract_x
_atom_site_fract_y
_atom_site_fract_z
O1	O	1.241699	0.112761	-0.093924
O2	O	1.741699	0.612761	0.406076
O3	O	0.983161	0.128497	-0.093942
O4	O	1.483161	0.628497	0.406058
O5	O	1.082758	-0.026676	-0.093932
O6	O	1.582758	0.473324	0.406068
O7	O	1.142102	0.267934	-0.093934
O8	O	1.642102	0.767934	0.406066
O9	O	1.057858	0.012064	0.094078
O10	O	1.557858	0.512064	0.594078
O11	O	0.958261	0.167238	0.094068
O12	O	1.458261	0.667238	0.594068
O13	O	1.216799	0.151501	0.094085
O14	O	1.716799	0.651501	0.594085
Zn15	Zn	1.083576	0.165520	0.123927
Zn16	Zn	1.583576	0.665520	0.623927
Zn17	Zn	1.116383	0.114478	-0.123784
Zn18	Zn	1.616383	0.614478	0.376216
O19	O	1.117202	0.306674	0.094075
O20	O	1.617202	0.806674	0.594075
C21	C	0.936945	0.147154	0.000060
C22	C	1.436945	0.647154	0.500060
C23	C	0.836330	0.145016	0.000053
C24	C	1.336330	0.645016	0.500053
C25	C	1.060284	-0.045009	0.000071
C26	C	1.560284	0.454991	0.500071
C27	C	1.030404	-0.157354	0.000064
C28	C	1.530404	0.342646	0.500064
C29	C	1.262735	-0.521819	0.000081
C30	C	1.762735	-0.021819	0.500081
C31	C	1.290810	-0.416264	0.000094
C32	C	1.790810	0.083736	0.500094
C33	C	1.225711	-0.351532	0.000086
C34	C	1.725711	0.148468	0.500086
C35	C	1.132532	-0.392364	0.000066
C36	C	1.632532	0.107636	0.500066
C37	C	1.104453	-0.497927	0.000063
C38	C	1.604453	0.002073	0.500063
C39	C	1.067429	-0.327640	0.000067
C40	C	1.567429	0.172360	0.500067
C41	C	0.974250	-0.368472	0.000048
C42	C	1.474250	0.131528	0.500048
C43	C	0.946176	-0.474025	0.000043
C44	C	1.446176	0.025975	0.500043
C45	C	1.011275	-0.538758	0.000051
C46	C	1.511275	-0.038758	0.500051
C47	C	1.095508	-0.222077	0.000071
C48	C	1.595508	0.277923	0.500071
C49	C	0.937226	-0.198185	0.000053
C50	C	1.437226	0.301815	0.500053
C51	C	0.909151	-0.303740	0.000040
C52	C	1.409151	0.196260	0.500040
C53	C	0.424465	0.114866	-0.102411
C54	C	0.924465	0.614866	0.397589
C55	C	0.397340	0.157103	0.102565
C56	C	0.897340	0.657103	0.602565
C57	C	0.491874	0.159108	0.102561
C58	C	0.991874	0.659108	0.602561
C59	C	0.552709	0.138994	0.000070
C60	C	1.052709	0.638994	0.500070
C61	C	0.519009	0.116874	-0.102417
C62	C	1.019009	0.616874	0.397583
C63	C	0.525582	0.181238	0.205047
C64	C	1.025582	0.681238	0.705047
C65	C	0.620122	0.183246	0.205047
C66	C	1.120122	0.683246	0.705047
C67	C	0.680957	0.163124	0.102555
C68	C	1.180957	0.663124	0.602555
C69	C	0.647252	0.141002	0.000063
C70	C	1.147252	0.641002	0.500063
C71	C	0.708087	0.120888	-0.102427
C72	C	1.208087	0.620888	0.397573
C73	C	0.674383	0.098758	-0.204920
C74	C	1.174383	0.598758	0.295080
C75	C	0.579845	0.096752	-0.204910
C76	C	1.079845	0.596752	0.295090
C77	C	0.775496	0.165130	0.102544
C78	C	1.275496	0.665130	0.602544
C79	C	0.802631	0.122896	-0.102434
C80	C	1.302631	0.622896	0.397566
C81	C	1.263015	0.132844	0.000081
C82	C	1.763015	0.632844	0.500081
C83	C	1.363631	0.134980	0.000080
C84	C	1.863631	0.634980	0.500080
C85	C	1.139676	0.325007	0.000070
C86	C	1.639676	0.825007	0.500070
C87	C	1.169557	0.437351	0.000069
C88	C	1.669557	0.937351	0.500069
N89	N	1.061193	0.200354	0.292983
N90	N	1.561193	0.700354	0.792983
N91	N	1.138772	0.079636	-0.292840
N92	N	1.638772	0.579636	0.207160
C93	C	1.190726	-0.001246	0.647981
C94	C	1.690726	0.498754	1.147981
C95	C	1.206387	-0.025626	0.529643
C96	C	1.706387	0.474374	1.029643
C97	C	1.170090	0.030866	0.470472
C98	C	1.670090	0.530866	0.970472
C99	C	1.118129	0.111745	0.529651
C100	C	1.618129	0.611745	1.029651
C101	C	1.102472	0.136133	0.648001
C102	C	1.602472	0.636133	1.148001
C103	C	1.081836	0.168245	0.470492
C104	C	1.581836	0.668245	0.970492
C105	C	1.029875	0.249124	0.529671
C106	C	1.529875	0.749124	1.029671
C107	C	1.014221	0.273508	0.648009
C108	C	1.514221	0.773508	1.148009
C109	C	1.050518	0.217015	0.707180
C110	C	1.550518	0.717015	1.207180
C111	C	1.097492	0.143857	0.352142
C112	C	1.597492	0.643857	0.852142
C113	C	1.009239	0.281236	0.352162
C114	C	1.509239	0.781236	0.852162
C115	C	0.993578	0.305617	0.470500
C116	C	1.493578	0.805617	0.970500
H117	H	1.171375	-0.188842	0.000087
H118	H	1.671375	0.311158	0.500087
H119	H	1.182843	0.011012	0.374116
H120	H	1.682843	0.511012	0.874116
H121	H	1.315727	-0.574530	0.000097
H122	H	1.815727	-0.074530	0.500097
H123	H	1.037764	0.236862	0.803541
H124	H	1.537764	0.736862	1.303541
H125	H	0.988421	-0.624711	0.000037
H126	H	1.488421	-0.124711	0.500037
H127	H	0.397018	0.096844	-0.185858
H128	H	0.897018	0.596844	0.314142
H129	H	0.979684	0.327240	0.303986
H130	H	1.479684	0.827240	0.803986
H131	H	0.647555	0.201263	0.288503
H132	H	1.147555	0.701263	0.788503
H133	H	0.347804	0.173486	0.186008
H134	H	0.847804	0.673486	0.686008
H135	H	0.802935	0.183158	0.185992
H136	H	1.302935	0.683158	0.685992
H137	H	0.870302	-0.507265	0.000036
H138	H	1.370302	-0.007265	0.500036
H139	H	1.248694	-0.091476	0.481464
H140	H	1.748694	0.408524	0.981464
H141	H	0.971920	0.339371	0.696193
H142	H	1.471920	0.839371	1.196193
H143	H	1.139799	0.078006	0.303969
H144	H	1.639799	0.578006	0.803969
H145	H	0.833282	-0.337001	0.000025
H146	H	1.333282	0.162999	0.500025
H147	H	0.951271	0.371470	0.518699
H148	H	1.451271	0.871470	1.018699
H149	H	0.884216	-0.145479	0.000052
H150	H	1.384216	0.354521	0.500052
H151	H	0.852157	0.106513	-0.185896
H152	H	1.352157	0.606513	0.314104
H153	H	0.723928	0.082388	-0.288368
H154	H	1.223928	0.582388	0.211632
H155	H	0.476045	0.197621	0.288489
H156	H	0.976045	0.697621	0.788489
H157	H	1.248576	-0.265585	0.000096
H158	H	1.748576	0.234415	0.500096
H159	H	1.366676	-0.383026	0.000111
H160	H	1.866676	0.116974	0.500111
H161	H	0.552393	0.078734	-0.288354
H162	H	1.052393	0.578734	0.211646
H163	H	1.220281	-0.047230	0.696166
H164	H	1.720281	0.452770	1.196166
