data_functionalizedCrystal
_audit_creation_method	'MofGen! by Chris Wilmer'
_symmetry_space_group_name_H-M	'P1'
_symmetry_Int_Tables_number	1
_symmetry_cell_setting	triclinic
loop_
_symmetry_equiv_pos_as_xyz
  x,y,z
_cell_length_a	18.050590
_cell_length_b	18.050590
_cell_length_c	18.050582
_cell_angle_alpha	89.976663
_cell_angle_beta	90.000767
_cell_angle_gamma	90.007719
loop_
_atom_site_label
_atom_site_type_symbol
_atom_site_fract_x
_atom_site_fract_y
_atom_site_fract_z
Zn1	Zn	1.135342	-0.295921	-0.419598
Zn2	Zn	1.135274	-0.420105	-0.295406
Zn3	Zn	1.011162	-0.295910	-0.295456
Zn4	Zn	1.011131	-0.420051	-0.419589
O5	O	1.073227	-0.357997	-0.357512
O6	O	1.239258	-0.312422	-0.403106
O7	O	1.118795	-0.403648	-0.191488
O8	O	1.027676	-0.191987	-0.311948
O9	O	1.239208	-0.403659	-0.311863
O10	O	1.118911	-0.191995	-0.403155
O11	O	1.027610	-0.312402	-0.191525
O12	O	0.907233	-0.312350	-0.311939
O13	O	1.027623	-0.403567	-0.523514
O14	O	0.907210	-0.403555	-0.403139
O15	O	1.118881	-0.312370	-0.523521
O16	O	1.118765	-0.524022	-0.311854
O17	O	1.027557	-0.523982	-0.403091
C18	C	0.880275	-0.357946	-0.357544
C19	C	0.797729	-0.357942	-0.357575
C20	C	0.598288	-0.407682	-0.407052
C21	C	0.548883	-0.339967	-0.425328
C22	C	0.646599	-0.357984	-0.357539
C23	C	0.548922	-0.425737	-0.339262
C24	C	0.500614	-0.358030	-0.357505
C25	C	0.598282	-0.290233	-0.375850
C26	C	0.598324	-0.376049	-0.289753
C27	C	0.548942	-0.308287	-0.308004
C28	C	0.730697	-0.357958	-0.357560
C29	C	0.416517	-0.358047	-0.357484
C30	C	1.073170	-0.550949	-0.357482
C31	C	1.073214	-0.633494	-0.357495
C32	C	1.122915	-0.832940	-0.307949
C33	C	1.141051	-0.882282	-0.375725
C34	C	1.073256	-0.784625	-0.357524
C35	C	1.055196	-0.882364	-0.289779
C36	C	1.073298	-0.930610	-0.357547
C37	C	1.091426	-0.832880	-0.425335
C38	C	1.005539	-0.832958	-0.339344
C39	C	1.023649	-0.882278	-0.407166
C40	C	1.073233	-0.700527	-0.357510
C41	C	1.073320	-1.014706	-0.357568
C42	C	1.266933	-0.358048	-0.357480
C43	C	1.349478	-0.358070	-0.357467
C44	C	1.073256	-0.357964	-0.551218
C45	C	1.073269	-0.357950	-0.633763
C46	C	1.073305	-0.164291	-0.357558
C47	C	1.073338	-0.081745	-0.357578
C48	C	1.023680	-0.407475	-0.833211
C49	C	1.091439	-0.425641	-0.882583
C50	C	1.073305	-0.357893	-0.784894
C51	C	1.005584	-0.339706	-0.882603
C52	C	1.073335	-0.357840	-0.930879
C53	C	1.141099	-0.376095	-0.833179
C54	C	1.055199	-0.290128	-0.833195
C55	C	1.123004	-0.308269	-0.882545
C56	C	1.073287	-0.357926	-0.700796
C57	C	1.073360	-0.357807	-1.014976
C58	C	1.073241	-0.357976	-0.164560
C59	C	1.073372	-0.357781	-0.082014
H60	H	0.619873	-0.232937	-0.391360
H61	H	0.981754	-0.449460	-0.811549
H62	H	1.106771	-0.482926	-0.904277
H63	H	1.039903	-0.904100	-0.232479
H64	H	1.198399	-0.391520	-0.811561
H65	H	1.039846	-0.232860	-0.811484
H66	H	0.620058	-0.391334	-0.232459
H67	H	1.164925	-0.811275	-0.266069
H68	H	0.527412	-0.266230	-0.266118
H69	H	0.527236	-0.483016	-0.323820
H70	H	1.165031	-0.266316	-0.904070
H71	H	1.198335	-0.903949	-0.391116
H72	H	0.948301	-0.324346	-0.904313
H73	H	1.106662	-0.811235	-0.482685
H74	H	0.981672	-0.903805	-0.449148
H75	H	0.619957	-0.449636	-0.448970
H76	H	0.527166	-0.324702	-0.482639
H77	H	0.948271	-0.811275	-0.323932
