data_functionalizedCrystal
_audit_creation_method	'MofGen! by Chris Wilmer'
_symmetry_space_group_name_H-M	'P1'
_symmetry_Int_Tables_number	1
_symmetry_cell_setting	triclinic
loop_
_symmetry_equiv_pos_as_xyz
  x,y,z
_cell_length_a	9.065218
_cell_length_b	14.971486
_cell_length_c	13.448316
_cell_angle_alpha	90.006811
_cell_angle_beta	90.006804
_cell_angle_gamma	84.315007
loop_
_atom_site_label
_atom_site_type_symbol
_atom_site_fract_x
_atom_site_fract_y
_atom_site_fract_z
O1	O	-1.957746	-0.131156	-0.082695
O2	O	-1.457746	0.368844	0.417305
O3	O	-1.528243	-0.141913	-0.082697
O4	O	-1.028243	0.358087	0.417303
O5	O	-1.754507	-0.006420	-0.082689
O6	O	-1.254507	0.493580	0.417311
O7	O	-1.731483	-0.266649	-0.082703
O8	O	-1.231483	0.233351	0.417297
O9	O	-1.754478	-0.006412	0.082695
O10	O	-1.254478	0.493588	0.582695
O11	O	-1.528215	-0.141905	0.082687
O12	O	-1.028215	0.358095	0.582687
O13	O	-1.957718	-0.131147	0.082689
O14	O	-1.457718	0.368853	0.582689
Cu15	Cu	-1.742964	-0.136525	0.097789
Cu16	Cu	-1.242964	0.363475	0.597789
Cu17	Cu	-1.742997	-0.136535	-0.097797
Cu18	Cu	-1.242997	0.363465	0.402203
O19	O	-1.731455	-0.266640	0.082681
O20	O	-1.231455	0.233360	0.582681
C21	C	-1.473263	-0.140875	-0.000005
C22	C	-0.973263	0.359125	0.499995
C23	C	-1.309483	-0.137784	-0.000005
C24	C	-0.809483	0.362216	0.499995
C25	C	-1.753463	0.026916	0.000003
C26	C	-1.253463	0.526916	0.500003
C27	C	-1.750377	0.126237	0.000002
C28	C	-1.250377	0.626237	0.500002
C29	C	-2.012698	-0.132185	-0.000005
C30	C	-1.512698	0.367815	0.499995
C31	C	-2.176478	-0.135277	-0.000011
C32	C	-1.676478	0.364723	0.499989
C33	C	-1.732498	-0.299977	-0.000013
C34	C	-1.232498	0.200023	0.499987
C35	C	-1.735584	-0.399297	-0.000019
C36	C	-1.235584	0.100703	0.499981
N37	N	-1.742951	-0.136517	0.235353
N38	N	-1.242951	0.363483	0.735353
C39	C	-1.883301	0.182471	0.000003
C40	C	-1.383301	0.682471	0.500003
C41	C	-1.880393	0.275792	-0.000007
C42	C	-1.380393	0.775792	0.499993
C43	C	-1.744560	0.312877	-0.000011
C44	C	-1.244560	0.812877	0.499989
C45	C	-1.611626	0.256635	-0.000015
C46	C	-1.111626	0.756635	0.499985
C47	C	-1.614535	0.163316	-0.000012
C48	C	-1.114535	0.663316	0.499988
C49	C	-1.605571	0.451143	-0.000019
C50	C	-1.105571	0.951143	0.499981
C51	C	-1.602660	0.544468	-0.000020
C52	C	-1.102660	1.044468	0.499980
C53	C	-1.871428	0.563619	-0.000013
C54	C	-1.371428	1.063619	0.499987
C55	C	-1.874338	0.470300	-0.000010
C56	C	-1.374338	0.970300	0.499990
C57	C	-1.741403	0.414064	-0.000013
C58	C	-1.241403	0.914064	0.499987
N59	N	-1.743022	-0.136536	-0.235361
N60	N	-1.243022	0.363464	0.264639
C61	C	-1.843171	-0.076546	0.287397
C62	C	-1.343171	0.423454	0.787397
C63	C	-1.843181	-0.076546	0.391500
C64	C	-1.343181	0.423454	0.891500
C65	C	-1.742975	-0.136521	0.443558
C66	C	-1.242975	0.363479	0.943558
C67	C	-1.642744	-0.196495	0.391507
C68	C	-1.142744	0.303505	0.891507
C69	C	-1.642729	-0.196491	0.287405
C70	C	-1.142729	0.303509	0.787405
C71	C	-1.642785	-0.196501	0.608487
C72	C	-1.142785	0.303499	1.108487
C73	C	-1.642802	-0.196507	0.712595
C74	C	-1.142802	0.303493	1.212595
C75	C	-1.843237	-0.076556	0.712582
C76	C	-1.343237	0.423444	1.212582
C77	C	-1.843222	-0.076552	0.608480
C78	C	-1.343222	0.423448	1.108480
C79	C	-1.742992	-0.136527	0.556436
C80	C	-1.242992	0.363473	1.056436
H81	H	-1.993912	0.152285	0.000013
H82	H	-1.493912	0.652285	0.500013
H83	H	-1.924776	-0.027711	0.245019
H84	H	-1.424776	0.472289	0.745019
H85	H	-1.492053	0.574659	-0.000007
H86	H	-0.992053	1.074659	0.499993
F87	F	-1.949844	-0.012717	0.446889
F88	F	-1.449844	0.487283	0.946889
F89	F	-2.018906	0.430834	-0.000008
F90	F	-1.518906	0.930834	0.499992
F91	F	-1.536146	-0.260340	0.767991
F92	F	-1.036146	0.239660	1.267991
F93	F	-1.536056	-0.260318	0.232018
F94	F	-1.036056	0.239682	0.732018
F95	F	-1.473060	0.103466	-0.000016
F96	F	-0.973060	0.603466	0.499984
H97	H	-1.924823	-0.027720	0.566095
H98	H	-1.424823	0.472280	1.066095
H99	H	-1.988633	0.321575	-0.000004
H100	H	-1.488633	0.821575	0.499996
H101	H	-1.979668	0.609411	-0.000015
H102	H	-1.479668	1.109411	0.499985
F103	F	-1.949909	-0.012728	0.767975
F104	F	-1.449909	0.487272	1.267975
H105	H	-1.561162	-0.245337	0.566116
H106	H	-1.061162	0.254663	1.066116
F107	F	-1.464086	0.391294	-0.000023
F108	F	-0.964086	0.891294	0.499977
F109	F	-1.467061	0.296106	-0.000031
F110	F	-0.967061	0.796106	0.499969
H111	H	-1.561147	-0.245325	0.433898
H112	H	-1.061147	0.254675	0.933898
