data_functionalizedCrystal
_audit_creation_method	'MofGen! by Chris Wilmer'
_symmetry_space_group_name_H-M	'P1'
_symmetry_Int_Tables_number	1
_symmetry_cell_setting	triclinic
loop_
_symmetry_equiv_pos_as_xyz
  x,y,z
_cell_length_a	21.295417
_cell_length_b	19.805407
_cell_length_c	19.805399
_cell_angle_alpha	89.982197
_cell_angle_beta	89.969157
_cell_angle_gamma	90.027823
loop_
_atom_site_label
_atom_site_type_symbol
_atom_site_fract_x
_atom_site_fract_y
_atom_site_fract_z
Zn1	Zn	-0.250669	1.034716	-0.382672
Zn2	Zn	-0.355938	1.034623	-0.269478
Zn3	Zn	-0.250681	0.921531	-0.269500
Zn4	Zn	-0.355899	0.921486	-0.382628
O5	O	-0.303297	0.978089	-0.326070
O6	O	-0.264644	1.129421	-0.367666
O7	O	-0.341996	1.019601	-0.174764
O8	O	-0.162590	0.936603	-0.284541
O9	O	-0.341984	1.129352	-0.284502
O10	O	-0.162581	1.019760	-0.367688
O11	O	-0.264665	0.936513	-0.174781
O12	O	-0.264628	0.826809	-0.284498
O13	O	-0.341919	0.936527	-0.477350
O14	O	-0.341931	0.826776	-0.367612
O15	O	-0.264607	1.019717	-0.477383
O16	O	-0.444022	1.019558	-0.284459
O17	O	-0.443994	0.936437	-0.367590
C18	C	-0.303277	0.802233	-0.326053
C19	C	-0.303284	0.727001	-0.326062
C20	C	-0.263084	0.691693	-0.369431
C21	C	-0.263087	0.621005	-0.369434
C22	C	-0.303294	0.585626	-0.326070
C23	C	-0.343496	0.620938	-0.282696
C24	C	-0.343489	0.691626	-0.282691
C25	C	-0.343524	0.335865	-0.282717
C26	C	-0.343529	0.265173	-0.282727
C27	C	-0.263122	0.265244	-0.369460
C28	C	-0.263115	0.335932	-0.369455
C29	C	-0.303315	0.371238	-0.326079
C30	C	-0.303310	0.447887	-0.326075
C31	C	-0.303303	0.508979	-0.326076
C32	C	-0.466848	0.978001	-0.326032
C33	C	-0.536816	0.978024	-0.326039
C34	C	-0.569677	1.021344	-0.282797
C35	C	-0.635419	1.021376	-0.282812
C36	C	-0.668299	0.978076	-0.326062
C37	C	-0.635431	0.934753	-0.369312
C38	C	-0.569689	0.934728	-0.369301
N39	N	-0.771562	0.918865	-0.331216
N40	N	-0.834014	0.918892	-0.331224
C41	C	-0.866374	0.978152	-0.326101
N42	N	-0.833923	1.037386	-0.320957
N43	N	-0.771466	1.037358	-0.320947
C44	C	-0.739584	0.978099	-0.326080
C45	C	-0.970520	1.021509	-0.282873
C46	C	-1.036263	1.021542	-0.282893
C47	C	-1.036273	0.934914	-0.369390
C48	C	-0.970531	0.934887	-0.369373
C49	C	-0.937658	0.978184	-0.326111
C50	C	-0.139106	0.978197	-0.326122
C51	C	-0.069138	0.978243	-0.326144
C52	C	-0.303257	0.978127	-0.502612
C53	C	-0.303240	0.978143	-0.577844
C54	C	-0.303317	1.154632	-0.326086
C55	C	-0.303326	1.229864	-0.326094
C56	C	-0.262982	1.021461	-0.613207
C57	C	-0.262963	1.021468	-0.683895
C58	C	-0.303207	0.978160	-0.719220
C59	C	-0.343468	0.934838	-0.683853
C60	C	-0.343482	0.934828	-0.613166
C61	C	-0.343409	0.934876	-0.968926
C62	C	-0.343393	0.934891	-1.039618
C63	C	-0.262890	1.021516	-1.039656
C64	C	-0.262905	1.021506	-0.968969
C65	C	-0.303162	0.978182	-0.933608
C66	C	-0.303181	0.978174	-0.856959
C67	C	-0.303193	0.978171	-0.795867
C68	C	-0.303291	0.978090	-0.150214
C69	C	-0.303130	0.978205	-0.074982
H70	H	-0.230353	0.592260	-0.404751
H71	H	-0.376233	0.899573	-0.712620
H72	H	-0.376165	0.899621	-1.068378
F73	F	-0.220136	1.067596	-0.721527
F74	F	-0.386324	0.227521	-0.236570
F75	F	-0.386255	0.888766	-0.931301
F76	F	-1.071262	0.888834	-0.415424
F77	F	-1.071236	1.067656	-0.236871
H78	H	-0.376259	0.899547	-0.584375
H79	H	-0.230136	1.056774	-0.940210
F80	F	-0.935557	0.888777	-0.415395
F81	F	-0.220151	1.067560	-0.575617
F82	F	-0.935532	1.067588	-0.236830
H83	H	-0.230108	1.056791	-1.068455
H84	H	-0.662180	1.056654	-0.247599
F85	F	-0.670424	0.888673	-0.415345
F86	F	-0.220325	0.373581	-0.415611
F87	F	-0.220292	0.729340	-0.415589
H88	H	-0.230388	0.236489	-0.404777
F89	F	-0.386284	0.583283	-0.236542
H90	H	-0.376257	0.364603	-0.247398
H91	H	-0.542934	0.899451	-0.404514
H92	H	-0.542914	1.056601	-0.247572
F93	F	-0.386276	0.729202	-0.236532
