data_functionalizedCrystal
_audit_creation_method	'MofGen! by Chris Wilmer'
_symmetry_space_group_name_H-M	'P1'
_symmetry_Int_Tables_number	1
_symmetry_cell_setting	triclinic
loop_
_symmetry_equiv_pos_as_xyz
  x,y,z
_cell_length_a	14.044191
_cell_length_b	10.540539
_cell_length_c	13.101039
_cell_angle_alpha	93.398267
_cell_angle_beta	86.337551
_cell_angle_gamma	88.858634
loop_
_atom_site_label
_atom_site_type_symbol
_atom_site_fract_x
_atom_site_fract_y
_atom_site_fract_z
O1	O	1.264949	0.299888	-0.085156
O2	O	0.988906	0.288826	-0.085169
O3	O	1.133225	0.110288	-0.085161
O4	O	1.120630	0.478427	-0.085164
O5	O	1.122871	0.123121	0.085269
O6	O	0.978551	0.301659	0.085260
O7	O	1.254595	0.312721	0.085274
Zn8	Zn	1.114929	0.309228	0.112326
Zn9	Zn	1.128572	0.292320	-0.112222
O10	O	1.110275	0.491260	0.085265
C11	C	0.948381	0.290404	0.000044
C12	C	0.843058	0.275970	0.000039
C13	C	0.593285	0.351949	0.000048
C14	C	0.650221	0.249604	0.000047
C15	C	0.757525	0.264277	0.000043
C16	C	0.485971	0.337277	0.000053
C17	C	1.127103	0.069305	0.000052
C18	C	1.124278	-0.071929	0.000046
C19	C	1.016012	-0.266336	-0.000341
C20	C	1.018853	-0.119400	0.000042
C21	C	1.169100	-0.121127	0.097372
C22	C	1.165497	-0.268029	0.097454
C23	C	1.179416	-0.282924	-0.096356
C24	C	1.180465	-0.135941	-0.097642
C25	C	1.295119	0.311143	0.000058
C26	C	1.400443	0.325577	0.000057
C27	C	1.116397	0.532242	0.000050
C28	C	1.119223	0.673475	0.000049
N29	N	1.105625	0.320767	0.265574
N30	N	1.137883	0.280771	-0.265470
C31	C	1.092967	0.336478	0.474616
C32	C	1.150538	0.265063	0.525495
C33	C	1.143495	0.273805	0.641813
C34	C	1.100009	0.327738	0.358288
H35	H	0.618383	0.150958	-0.000024
Br36	Br	0.646357	0.516347	0.000036
Br37	Br	1.002006	0.449323	0.547611
H38	H	0.983171	-0.086087	-0.069725
H39	H	0.978607	-0.304403	-0.070136
Br40	Br	1.241909	0.152797	0.452501
Br41	Br	0.939672	-0.315619	0.114974
Br42	Br	0.944767	-0.047797	0.116509
H43	H	1.123581	-0.294543	0.170204
H44	H	1.246301	-0.090671	0.100995
Br45	Br	1.291415	-0.334652	0.104832
H46	H	1.129456	-0.076638	0.169795
Br47	Br	1.126413	-0.082258	-0.217667
Br48	Br	1.309171	-0.083345	-0.107443
Br49	Br	1.306399	-0.348882	-0.097443
Br50	Br	1.130007	-0.350505	-0.219307
