data_functionalizedCrystal
_audit_creation_method	'MofGen! by Chris Wilmer'
_symmetry_space_group_name_H-M	'P1'
_symmetry_Int_Tables_number	1
_symmetry_cell_setting	triclinic
loop_
_symmetry_equiv_pos_as_xyz
  x,y,z
_cell_length_a	11.026623
_cell_length_b	22.010155
_cell_length_c	11.026607
_cell_angle_alpha	89.992657
_cell_angle_beta	71.413640
_cell_angle_gamma	89.990221
loop_
_atom_site_label
_atom_site_type_symbol
_atom_site_fract_x
_atom_site_fract_y
_atom_site_fract_z
O1	O	-1.726740	0.050525	0.533619
O2	O	-1.360160	0.050526	0.472853
O3	O	-1.513068	0.050523	0.319946
O4	O	-1.573832	0.050528	0.686526
O5	O	-1.513039	-0.050527	0.319967
O6	O	-1.360131	-0.050525	0.472875
O7	O	-1.726711	-0.050525	0.533640
Cu8	Cu	-1.543418	-0.059752	0.503259
Cu9	Cu	-1.543452	0.059752	0.503234
O10	O	-1.573802	-0.050523	0.686548
C11	C	-1.312485	0.000001	0.461654
C12	C	-1.170471	0.000001	0.428236
N13	N	-1.543403	-0.143804	0.503279
C14	C	-1.116822	0.000002	0.520505
C15	C	-0.970043	0.000003	0.485968
C16	C	-1.611168	-0.563585	0.435540
C17	C	-1.611172	-0.627192	0.435533
O18	O	-1.668741	-0.660085	0.377944
N19	N	-1.543446	-0.659011	0.503207
C20	C	-1.475701	-0.627219	0.570883
O21	O	-1.418094	-0.660125	0.628444
C22	C	-1.475690	-0.563613	0.570882
C23	C	-1.543431	-0.531797	0.503214
C24	C	-1.678902	-0.531769	0.367876
C25	C	-1.678900	-0.468166	0.367886
C26	C	-1.611163	-0.436378	0.435559
C27	C	-1.543429	-0.468194	0.503223
C28	C	-1.407938	-0.531822	0.638550
C29	C	-1.407933	-0.468211	0.638542
C30	C	-1.475674	-0.436396	0.570874
C31	C	-1.475690	-0.372803	0.570907
N32	N	-1.543416	-0.340984	0.503232
C33	C	-1.611153	-0.372772	0.435559
C34	C	-1.475726	-0.760797	0.570878
C35	C	-1.475744	-0.824402	0.570887
C36	C	-1.611213	-0.824371	0.435534
C37	C	-1.611203	-0.760765	0.435533
C38	C	-1.543452	-0.728978	0.503203
C39	C	-1.611144	-0.239200	0.435585
C40	C	-1.611140	-0.175592	0.435605
C41	C	-1.475665	-0.175629	0.570951
C42	C	-1.475674	-0.239232	0.570937
C43	C	-1.543416	-0.271016	0.503245
O44	O	-1.418146	-0.339871	0.628462
O45	O	-1.668736	-0.339859	0.377994
C46	C	-0.774385	0.000001	0.544838
C47	C	-0.916398	0.000004	0.578251
C48	C	-1.501844	-0.000001	0.272297
C49	C	-1.468427	0.000001	0.130283
N50	N	-1.543475	0.143805	0.503207
C51	C	-1.560696	0.000002	0.076634
C52	C	-1.526161	0.000004	-0.070145
C53	C	-1.585027	0.000003	0.734197
C54	C	-1.618444	0.000005	0.876211
H55	H	-1.179555	0.000000	0.625068
H56	H	-1.666366	-0.850264	0.380428
H57	H	-0.979126	0.000001	0.682822
H58	H	-0.907314	0.000017	0.381398
C59	C	-1.685675	-0.140595	0.361189
H60	H	-1.675994	-0.098160	0.370898
H61	H	-1.653280	-0.151010	0.273105
H62	H	-1.773754	-0.151020	0.393683
C63	C	-1.085736	0.000003	0.286978
H64	H	-0.998200	0.000008	0.282297
H65	H	-1.103349	-0.035235	0.245746
H66	H	-1.103373	0.035247	0.245746
H67	H	-1.666303	-0.265072	0.380461
H68	H	-1.734056	-0.442265	0.312780
C69	C	-1.753428	-0.566725	0.293436
H70	H	-1.793767	-0.538659	0.253153
H71	H	-1.696020	-0.591543	0.230341
H72	H	-1.816505	-0.591530	0.350908
C73	C	-1.685705	-0.725773	0.361087
H74	H	-1.726039	-0.753820	0.320781
H75	H	-1.748764	-0.700954	0.418538
H76	H	-1.628262	-0.700966	0.297987
H77	H	-1.723014	0.000050	-0.061061
H78	H	-1.420599	-0.850302	0.626005
C79	C	-1.401218	-0.725838	0.645340
H80	H	-1.360899	-0.753902	0.685650
H81	H	-1.338146	-0.701026	0.587893
H82	H	-1.458655	-0.701026	0.708438
C83	C	-1.333435	-0.566806	0.713000
H84	H	-1.293092	-0.538756	0.753289
H85	H	-1.390866	-0.591615	0.776092
H86	H	-1.270363	-0.591622	0.655542
H87	H	-1.420528	-0.265137	0.626054
C88	C	-1.333413	-0.433250	0.712989
H89	H	-1.293084	-0.461312	0.753293
H90	H	-1.270350	-0.408437	0.655536
H91	H	-1.390849	-0.408440	0.776090
C92	C	-1.384896	0.000005	-0.154877
H93	H	-1.380215	0.000002	-0.242413
H94	H	-1.343671	0.035242	-0.137255
H95	H	-1.343657	-0.035239	-0.137250
C96	C	-1.401150	-0.140654	0.645376
H97	H	-1.410842	-0.098217	0.635669
H98	H	-1.433547	-0.151077	0.733458
H99	H	-1.313068	-0.151085	0.612884
C100	C	-1.701954	-0.000001	0.161370
H101	H	-1.706634	-0.000006	0.248906
H102	H	-1.743202	0.035237	0.143742
H103	H	-1.743170	-0.035245	0.143749
H104	H	-1.363864	0.000005	0.067549
