data_functionalizedCrystal
_audit_creation_method	'MofGen! by Chris Wilmer'
_symmetry_space_group_name_H-M	'P1'
_symmetry_Int_Tables_number	1
_symmetry_cell_setting	triclinic
loop_
_symmetry_equiv_pos_as_xyz
  x,y,z
_cell_length_a	16.120530
_cell_length_b	16.120484
_cell_length_c	12.759387
_cell_angle_alpha	92.862335
_cell_angle_beta	87.081456
_cell_angle_gamma	90.167327
loop_
_atom_site_label
_atom_site_type_symbol
_atom_site_fract_x
_atom_site_fract_y
_atom_site_fract_z
Zn1	Zn	1.254491	-0.395542	-0.699366
Zn2	Zn	1.247330	-0.534617	-0.532098
Zn3	Zn	1.115426	-0.388526	-0.514372
Zn4	Zn	1.108343	-0.527495	-0.698404
O5	O	1.181397	-0.461545	-0.611060
O6	O	1.369906	-0.419907	-0.684998
O7	O	1.229800	-0.515282	-0.382726
O8	O	1.139834	-0.273094	-0.531895
O9	O	1.364645	-0.522085	-0.562107
O10	O	1.242004	-0.278249	-0.667810
O11	O	1.132890	-0.407950	-0.369703
O12	O	0.998120	-0.401044	-0.530963
O13	O	1.127762	-0.509947	-0.845552
O14	O	0.992917	-0.503144	-0.666171
O15	O	1.235136	-0.413001	-0.846259
O16	O	1.222932	-0.650035	-0.561175
O17	O	1.120819	-0.644802	-0.683360
C18	C	0.965346	-0.450560	-0.596540
C19	C	0.872917	-0.445881	-0.590355
C20	C	1.170352	-0.677591	-0.624111
C21	C	1.165703	-0.770020	-0.629734
C22	C	1.157220	-0.939250	-0.640023
C23	C	1.205723	-0.983006	-0.582124
C24	C	1.201003	-1.077172	-0.587849
C25	C	1.161939	-0.845076	-0.634300
C26	C	0.703690	-0.437318	-0.579069
C27	C	0.659942	-0.485833	-0.643131
C28	C	0.565778	-0.481069	-0.636852
C29	C	0.797863	-0.442082	-0.585347
C30	C	1.398292	-0.472573	-0.625637
C31	C	1.490719	-0.477273	-0.631849
C32	C	1.181458	-0.461462	-0.885092
C33	C	1.181484	-0.461427	-1.001868
C34	C	1.192508	-0.244656	-0.597983
C35	C	1.197243	-0.152231	-0.592410
C36	C	1.080579	-0.349654	-0.988326
C37	C	1.030143	-0.293753	-1.036416
C38	C	1.030170	-0.293724	-1.146137
C39	C	1.080636	-0.349605	-1.207772
C40	C	1.131072	-0.405506	-1.159683
C41	C	1.131042	-0.405527	-1.049958
C42	C	1.231971	-0.517281	-1.173225
C43	C	1.231950	-0.517307	-1.063503
C44	C	1.282437	-0.573162	-1.234860
C45	C	1.332879	-0.629061	-1.186770
C46	C	1.332851	-0.629087	-1.077042
C47	C	1.282386	-0.573209	-1.015414
C48	C	1.181387	-0.461570	-0.338093
C49	C	1.181535	-0.461379	-0.221314
H50	H	1.112153	-0.972508	-0.693887
H51	H	0.693207	-0.530944	-0.702693
H52	H	1.282361	-0.573222	-0.926072
H53	H	1.250793	-0.949746	-0.528254
O54	O	1.381873	-0.683258	-1.246796
C55	C	1.426585	-0.732792	-1.421835
C56	C	1.371071	-0.671357	-1.353978
H57	H	1.417858	-0.723203	-1.508505
H58	H	1.494401	-0.721608	-1.403976
H59	H	1.408549	-0.799095	-1.403250
H60	H	1.389034	-0.605031	-1.372525
H61	H	1.303269	-0.682613	-1.371848
O62	O	0.663880	-0.383576	-0.508044
C63	C	0.532360	-0.329720	-0.437027
C64	C	0.577351	-0.390629	-0.517495
H65	H	0.462394	-0.335389	-0.444655
H66	H	0.548534	-0.345089	-0.354241
H67	H	0.552856	-0.263539	-0.452662
H68	H	0.556880	-0.456831	-0.501957
H69	H	0.561176	-0.375189	-0.600255
O70	O	1.381920	-0.683424	-1.030500
C71	C	1.481956	-0.794333	-1.055526
C72	C	1.426441	-0.732825	-1.108364
H73	H	1.517953	-0.834302	-1.118455
H74	H	1.527442	-0.758433	-1.004815
H75	H	1.441519	-0.835841	-1.004178
H76	H	1.466812	-0.691303	-1.159764
H77	H	1.380950	-0.768777	-1.159012
H78	H	1.080560	-0.349666	-0.898984
O79	O	0.981201	-0.239501	-0.976388
C80	C	0.936403	-0.190032	-0.801353
C81	C	0.991885	-0.251500	-0.869203
H82	H	0.945009	-0.199723	-0.714681
H83	H	0.954457	-0.123704	-0.819794
H84	H	0.868617	-0.201203	-0.819365
H85	H	1.059687	-0.240405	-0.851229
H86	H	0.973761	-0.317808	-0.850751
O87	O	0.981154	-0.239343	-1.192688
C88	C	0.881029	-0.128513	-1.167689
C89	C	0.936513	-0.190039	-1.114835
H90	H	0.844909	-0.088646	-1.104769
H91	H	0.921417	-0.086910	-1.218970
H92	H	0.835641	-0.164480	-1.218470
H93	H	0.981909	-0.154139	-1.064002
H94	H	0.896074	-0.231642	-1.063617
H95	H	1.080645	-0.349583	-1.297113
H96	H	1.282451	-0.573138	-1.324200
