data_functionalizedCrystal
_audit_creation_method	'MofGen! by Chris Wilmer'
_symmetry_space_group_name_H-M	'P1'
_symmetry_Int_Tables_number	1
_symmetry_cell_setting	triclinic
loop_
_symmetry_equiv_pos_as_xyz
  x,y,z
_cell_length_a	9.065218
_cell_length_b	14.971486
_cell_length_c	13.448316
_cell_angle_alpha	90.006811
_cell_angle_beta	90.006804
_cell_angle_gamma	84.315007
loop_
_atom_site_label
_atom_site_type_symbol
_atom_site_fract_x
_atom_site_fract_y
_atom_site_fract_z
O1	O	-1.957746	-0.131156	-0.082695
O2	O	-1.528243	-0.141913	-0.082697
O3	O	-1.754507	-0.006420	-0.082689
O4	O	-1.731483	-0.266649	-0.082703
O5	O	-1.754478	-0.006412	0.082695
O6	O	-1.528215	-0.141905	0.082687
O7	O	-1.957718	-0.131147	0.082689
Cu8	Cu	-1.742964	-0.136525	0.097789
Cu9	Cu	-1.742997	-0.136535	-0.097797
O10	O	-1.731455	-0.266640	0.082681
C11	C	-1.473263	-0.140875	-0.000005
C12	C	-1.309483	-0.137784	-0.000005
C13	C	-1.753463	0.026916	0.000003
C14	C	-1.750377	0.126237	0.000002
C15	C	-2.012698	-0.132185	-0.000005
C16	C	-2.176478	-0.135277	-0.000011
C17	C	-1.732498	-0.299977	-0.000013
C18	C	-1.735584	-0.399297	-0.000019
N19	N	-1.742951	-0.136517	0.235353
C20	C	-1.883301	0.182471	0.000003
C21	C	-1.880393	0.275792	-0.000007
C22	C	-1.744560	0.312877	-0.000011
C23	C	-1.611626	0.256635	-0.000015
C24	C	-1.614535	0.163316	-0.000012
C25	C	-1.605571	0.451143	-0.000019
C26	C	-1.602660	0.544468	-0.000020
C27	C	-1.871428	0.563619	-0.000013
C28	C	-1.874338	0.470300	-0.000010
C29	C	-1.741403	0.414064	-0.000013
N30	N	-1.743022	-0.136536	-0.235361
C31	C	-1.843171	-0.076546	0.287397
C32	C	-1.843181	-0.076546	0.391500
C33	C	-1.742975	-0.136521	0.443558
C34	C	-1.642744	-0.196495	0.391507
C35	C	-1.642729	-0.196491	0.287405
C36	C	-1.642785	-0.196501	0.608487
C37	C	-1.642802	-0.196507	0.712595
C38	C	-1.843237	-0.076556	0.712582
C39	C	-1.843222	-0.076552	0.608480
C40	C	-1.742992	-0.136527	0.556436
H41	H	-1.993912	0.152285	0.000013
H42	H	-1.561147	-0.245325	0.433898
C43	C	-2.015717	0.624711	-0.000226
C44	C	-2.021939	0.678813	-0.085332
C45	C	-2.154840	0.735095	-0.085566
H46	H	-2.020305	0.661608	0.057374
H47	H	-2.097069	0.589288	-0.000274
H48	H	-1.940610	0.714233	-0.085276
H49	H	-2.017377	0.641940	-0.142947
H50	H	-2.236192	0.699672	-0.085613
H51	H	-2.159416	0.771986	-0.027961
H52	H	-2.159085	0.771804	-0.143313
C53	C	-1.951990	-0.011294	0.768950
C54	C	-1.927958	0.076809	0.743624
C55	C	-2.028131	0.136945	0.795523
H56	H	-1.937759	-0.019755	0.838421
H57	H	-2.050486	-0.021795	0.751849
H58	H	-1.829486	0.087306	0.760732
H59	H	-1.942201	0.085298	0.674163
H60	H	-2.126626	0.126443	0.778422
H61	H	-2.013891	0.128476	0.864991
H62	H	-2.011848	0.196728	0.778340
H63	H	-1.506295	0.117530	-0.000013
H64	H	-1.492053	0.574659	-0.000007
C65	C	-1.952035	-0.011328	0.231062
C66	C	-2.039777	0.041208	0.298927
C67	C	-2.140064	0.101309	0.247071
H68	H	-2.013636	-0.043918	0.190433
H69	H	-1.898935	0.026407	0.190489
H70	H	-2.092873	0.003478	0.339483
H71	H	-1.978217	0.073817	0.339558
H72	H	-2.086964	0.139044	0.206498
H73	H	-2.201654	0.068712	0.206444
H74	H	-2.199599	0.136967	0.293109
C75	C	-1.461083	0.390235	0.000028
C76	C	-1.341501	0.442683	0.000052
C77	C	-1.208382	0.386607	0.000111
H78	H	-1.456430	0.353408	-0.057629
H79	H	-1.456541	0.353453	0.057725
H80	H	-1.346041	0.479449	-0.057640
H81	H	-1.346104	0.479509	0.057704
H82	H	-1.203840	0.349825	0.057809
H83	H	-1.203745	0.349782	-0.057546
H84	H	-1.127230	0.422184	0.000137
H85	H	-1.988633	0.321575	-0.000004
H86	H	-1.501028	0.286837	-0.000025
H87	H	-1.561202	-0.245345	0.754975
C88	C	-1.534203	-0.261664	0.551851
C89	C	-1.612875	-0.317064	0.492045
C90	C	-1.512909	-0.377095	0.439848
H91	H	-1.474485	-0.297474	0.597646
H92	H	-1.472754	-0.228990	0.511198
H93	H	-1.674298	-0.349735	0.532694
H94	H	-1.672587	-0.281279	0.446231
H95	H	-1.451459	-0.344421	0.399195
H96	H	-1.453197	-0.412898	0.485650
H97	H	-1.566273	-0.414686	0.399257
H98	H	-1.924787	-0.027712	0.433874
H99	H	-1.561117	-0.245324	0.245032
H100	H	-1.984945	0.440109	0.000000
H101	H	-1.924823	-0.027720	0.566095
