data_functionalizedCrystal
_audit_creation_method	'MofGen! by Chris Wilmer'
_symmetry_space_group_name_H-M	'P1'
_symmetry_Int_Tables_number	1
_symmetry_cell_setting	triclinic
loop_
_symmetry_equiv_pos_as_xyz
  x,y,z
_cell_length_a	9.065218
_cell_length_b	17.699083
_cell_length_c	8.140239
_cell_angle_alpha	89.995596
_cell_angle_beta	89.997198
_cell_angle_gamma	84.149450
loop_
_atom_site_label
_atom_site_type_symbol
_atom_site_fract_x
_atom_site_fract_y
_atom_site_fract_z
O1	O	1.957109	0.110973	-0.136622
O2	O	2.457109	0.610973	0.363378
O3	O	1.527555	0.120075	-0.136624
O4	O	2.027555	0.620075	0.363376
O5	O	1.754468	0.005429	-0.136608
O6	O	2.254468	0.505429	0.363392
O7	O	1.730196	0.225619	-0.136637
O8	O	2.230196	0.725619	0.363363
O9	O	1.754455	0.005428	0.136619
O10	O	2.254455	0.505428	0.636619
O11	O	1.527542	0.120074	0.136603
O12	O	2.027542	0.620074	0.636603
O13	O	1.957097	0.110971	0.136605
O14	O	2.457097	0.610971	0.636605
Zn15	Zn	1.742317	0.115522	0.179985
Zn16	Zn	2.242317	0.615522	0.679985
Zn17	Zn	1.742334	0.115524	-0.180004
Zn18	Zn	2.242334	0.615524	0.319996
O19	O	1.730183	0.225617	0.136590
O20	O	2.230183	0.725617	0.636590
C21	C	1.472588	0.119200	-0.000011
C22	C	1.972588	0.619200	0.499989
C23	C	1.308822	0.116584	-0.000011
C24	C	1.808822	0.616584	0.499989
C25	C	1.753592	-0.022775	0.000005
C26	C	2.253592	0.477225	0.500005
C27	C	1.750983	-0.106813	0.000006
C28	C	2.250983	0.393187	0.500006
C29	C	1.884176	-0.154396	0.000009
C30	C	2.384176	0.345604	0.500009
C31	C	1.881716	-0.233358	-0.000005
C32	C	2.381716	0.266642	0.499995
C33	C	1.746060	-0.264737	-0.000011
C34	C	2.246060	0.235263	0.499989
C35	C	1.612857	-0.217149	-0.000019
C36	C	2.112857	0.282851	0.499981
C37	C	1.615319	-0.138188	-0.000017
C38	C	2.115319	0.361812	0.499983
C39	C	1.602925	-0.535589	-0.000033
C40	C	2.102925	-0.035589	0.499967
C41	C	1.600474	-0.614556	-0.000031
C42	C	2.100474	-0.114556	0.499969
C43	C	1.869322	-0.630760	-0.000022
C44	C	2.369322	-0.130760	0.499978
C45	C	1.871784	-0.551799	-0.000019
C46	C	2.371784	-0.051799	0.499981
C47	C	1.738581	-0.504217	-0.000036
C48	C	2.238581	-0.004217	0.499964
C49	C	1.741251	-0.418597	-0.000023
C50	C	2.241251	0.081403	0.499977
C51	C	1.743390	-0.350355	-0.000012
C52	C	2.243390	0.149645	0.499988
C53	C	2.012064	0.111847	-0.000012
C54	C	2.512064	0.611847	0.499988
C55	C	2.175829	0.114463	-0.000022
C56	C	2.675829	0.614463	0.499978
C57	C	1.731059	0.253822	-0.000028
C58	C	2.231059	0.753822	0.499972
C59	C	1.733669	0.337860	-0.000039
C60	C	2.233669	0.837860	0.499961
N61	N	1.742317	0.115521	0.425667
N62	N	2.242317	0.615521	0.925667
N63	N	1.742346	0.115520	-0.425686
N64	N	2.242346	0.615520	0.074314
H65	H	1.994642	-0.128854	0.000024
H66	H	2.494642	0.371146	0.500024
H67	H	1.982248	-0.526255	-0.000006
H68	H	2.482248	-0.026255	0.499994
C69	C	2.147714	-0.241444	0.000044
C70	C	2.647714	0.258556	0.500044
C71	C	2.028127	-0.285661	0.000017
C72	C	2.528127	0.214339	0.500017
H73	H	2.238104	-0.273735	0.000069
H74	H	2.738104	0.226265	0.500069
H75	H	2.143098	-0.210308	-0.095230
H76	H	2.643098	0.289692	0.404770
H77	H	2.143053	-0.210310	0.095332
H78	H	2.643053	0.289690	0.595332
H79	H	2.032781	-0.316791	-0.095277
H80	H	2.532781	0.183209	0.404723
H81	H	2.032745	-0.316810	0.095301
H82	H	2.532745	0.183190	0.595301
H83	H	1.506859	-0.099446	-0.000019
H84	H	2.006859	0.400554	0.499981
H85	H	1.490001	-0.640101	-0.000032
H86	H	1.990001	-0.140101	0.499968
C87	C	2.022560	-0.728948	-0.140493
C88	C	2.522560	-0.228948	0.359507
C89	C	2.015748	-0.683063	-0.000029
C90	C	2.515748	-0.183063	0.499971
H91	H	2.112960	-0.761232	-0.140495
H92	H	2.612960	-0.261232	0.359505
H93	H	1.941431	-0.758935	-0.140488
H94	H	2.441431	-0.258935	0.359512
H95	H	2.017935	-0.697793	-0.235757
H96	H	2.517935	-0.197793	0.264243
H97	H	2.020363	-0.714217	0.095236
H98	H	2.520363	-0.214217	0.595236
H99	H	2.096899	-0.653073	-0.000018
H100	H	2.596899	-0.153073	0.499982
C101	C	1.336929	-0.527515	-0.000005
C102	C	1.836929	-0.027515	0.499995
C103	C	1.456511	-0.483294	-0.000020
C104	C	1.956511	0.016706	0.499980
H105	H	1.246536	-0.495226	0.000018
H106	H	1.746536	0.004774	0.500018
H107	H	1.341559	-0.558642	-0.095283
H108	H	1.841559	-0.058642	0.404717
H109	H	1.341581	-0.558657	0.095278
H110	H	1.841581	-0.058657	0.595278
H111	H	1.451864	-0.452156	-0.095310
H112	H	1.951864	0.047844	0.404690
H113	H	1.451877	-0.452154	0.095268
H114	H	1.951877	0.047846	0.595268
H115	H	1.502404	-0.242703	-0.000035
H116	H	2.002404	0.257297	0.499965
