data_functionalizedCrystal
_audit_creation_method	'MofGen! by Chris Wilmer'
_symmetry_space_group_name_H-M	'P1'
_symmetry_Int_Tables_number	1
_symmetry_cell_setting	triclinic
loop_
_symmetry_equiv_pos_as_xyz
  x,y,z
_cell_length_a	17.699077
_cell_length_b	14.044220
_cell_length_c	13.101039
_cell_angle_alpha	93.667477
_cell_angle_beta	86.649861
_cell_angle_gamma	88.234727
loop_
_atom_site_label
_atom_site_type_symbol
_atom_site_fract_x
_atom_site_fract_y
_atom_site_fract_z
O1	O	1.016154	0.114581	-0.085204
O2	O	1.349487	0.447914	0.248130
O3	O	1.682820	0.781248	0.581463
O4	O	0.796851	0.130179	-0.085209
O5	O	1.130184	0.463513	0.248124
O6	O	1.463517	0.796846	0.581458
O7	O	0.903210	-0.015596	-0.085196
O8	O	1.236543	0.317737	0.248137
O9	O	1.569877	0.651070	0.581470
O10	O	0.909794	0.260356	-0.085216
O11	O	1.243128	0.593690	0.248117
O12	O	1.576461	0.927023	0.581450
O13	O	0.895580	-0.005120	0.085233
O14	O	1.228913	0.328214	0.418566
O15	O	1.562247	0.661547	0.751899
O16	O	0.789221	0.140656	0.085220
O17	O	1.122554	0.473989	0.418553
O18	O	1.455887	0.807322	0.751887
O19	O	1.008524	0.125057	0.085225
O20	O	1.341857	0.458391	0.418559
O21	O	1.675190	0.791724	0.751892
Zn22	Zn	0.897661	0.134520	0.112282
Zn23	Zn	1.230994	0.467853	0.445615
Zn24	Zn	1.564327	0.801187	0.778949
Zn25	Zn	0.907714	0.120717	-0.112266
Zn26	Zn	1.241047	0.454050	0.221068
Zn27	Zn	1.574380	0.787383	0.554401
O28	O	0.902164	0.270833	0.085213
O29	O	1.235498	0.604166	0.418546
O30	O	1.568831	0.937500	0.751879
C31	C	0.764800	0.134860	0.000005
C32	C	1.098134	0.468193	0.333338
C33	C	1.431467	0.801526	0.666672
C34	C	0.680667	0.133186	0.000003
C35	C	1.014000	0.466519	0.333337
C36	C	1.347333	0.799852	0.666670
C37	C	0.636986	0.138108	0.092905
C38	C	0.970319	0.471441	0.426238
C39	C	1.303652	0.804774	0.759572
C40	C	0.557933	0.136520	0.092906
C41	C	0.891267	0.469853	0.426240
C42	C	1.224600	0.803186	0.759573
C43	C	0.522564	0.130016	0.000005
C44	C	0.855897	0.463350	0.333338
C45	C	1.189230	0.796683	0.666671
C46	C	0.566250	0.125091	-0.092905
C47	C	0.899584	0.458425	0.240429
C48	C	1.232917	0.791758	0.573762
C49	C	0.645301	0.126672	-0.092905
C50	C	0.978635	0.460006	0.240429
C51	C	1.311968	0.793339	0.573762
C52	C	0.247447	0.118713	-0.092906
C53	C	0.580781	0.452047	0.240427
C54	C	0.914114	0.785380	0.573761
C55	C	0.168390	0.117135	-0.092899
C56	C	0.501724	0.450469	0.240435
C57	C	0.835057	0.783802	0.573768
C58	C	0.160079	0.128561	0.092905
C59	C	0.493413	0.461894	0.426238
C60	C	0.826746	0.795227	0.759572
C61	C	0.239130	0.130142	0.092905
C62	C	0.572464	0.463475	0.426238
C63	C	0.905797	0.796808	0.759572
C64	C	0.282810	0.125211	-0.000004
C65	C	0.616144	0.458545	0.333330
C66	C	0.949477	0.791878	0.666663
C67	C	0.368528	0.126931	-0.000004
C68	C	0.701861	0.460265	0.333330
C69	C	1.035194	0.793598	0.666663
C70	C	0.436847	0.128303	0.000004
C71	C	0.770181	0.461637	0.333337
C72	C	1.103514	0.794970	0.666670
C73	C	0.896513	-0.045666	0.000019
C74	C	1.229846	0.287668	0.333352
C75	C	1.563180	0.621001	0.666685
C76	C	0.887917	-0.150871	0.000020
C77	C	1.221251	0.182462	0.333353
C78	C	1.554584	0.515795	0.666686
C79	C	0.872203	-0.343497	0.000005
C80	C	1.205536	-0.010164	0.333338
C81	C	1.538869	0.323170	0.666671
C82	C	0.933169	-0.401272	0.000003
C83	C	1.266502	-0.067939	0.333336
C84	C	1.599835	0.265394	0.666670
C85	C	0.924425	-0.508456	-0.000006
C86	C	1.257758	-0.175123	0.333328
C87	C	1.591092	0.158211	0.666661
C88	C	0.880945	-0.236303	0.000013
C89	C	1.214279	0.097030	0.333346
C90	C	1.547612	0.430363	0.666680
C91	C	1.040574	0.120377	0.000009
C92	C	1.373907	0.453710	0.333343
C93	C	1.707241	0.787044	0.666676
C94	C	1.124708	0.122051	0.000004
C95	C	1.458042	0.455384	0.333338
C96	C	1.791375	0.788717	0.666671
C97	C	0.908861	0.300902	-0.000004
C98	C	1.242195	0.634236	0.333329
C99	C	1.575528	0.967569	0.666662
C100	C	0.917458	0.406108	-0.000012
C101	C	1.250791	0.739441	0.333321
C102	C	1.584124	1.072774	0.666654
N103	N	0.890805	0.143940	0.265530
N104	N	1.224139	0.477273	0.598863
N105	N	1.557472	0.810606	0.932196
N106	N	0.914574	0.111289	-0.265513
N107	N	1.247908	0.444623	0.067820
N108	N	1.581241	0.777956	0.401153
C109	C	0.881479	0.156764	0.474571
C110	C	1.214812	0.490098	0.807904
C111	C	1.548146	0.823431	1.141238
C112	C	0.923898	0.098468	0.525452
C113	C	1.257232	0.431801	0.858785
C114	C	1.590565	0.765135	1.192119
C115	C	0.918709	0.105604	0.641770
C116	C	1.252042	0.438937	0.975103
C117	C	1.585376	0.772270	1.308436
C118	C	0.886667	0.149630	0.358243
C119	C	1.220001	0.482963	0.691576
C120	C	1.553334	0.816296	1.024909
H121	H	0.522372	0.140512	0.168556
H122	H	0.855705	0.473845	0.501890
H123	H	1.189039	0.807179	0.835223
H124	H	0.813446	-0.374530	0.000001
H125	H	1.146779	-0.041196	0.333334
H126	H	1.480112	0.292137	0.666667
H127	H	0.841269	0.212029	0.518363
H128	H	1.174602	0.545363	0.851697
H129	H	1.507935	0.878696	1.185030
H130	H	0.665777	0.143411	0.168557
H131	H	0.999111	0.476744	0.501890
H132	H	1.332444	0.810078	0.835223
H133	H	0.267924	0.135442	0.168555
H134	H	0.601257	0.468775	0.501888
H135	H	0.934591	0.802109	0.835222
H136	H	0.124505	0.132571	0.168556
H137	H	0.457839	0.465904	0.501889
H138	H	0.791172	0.799237	0.835222
H139	H	0.964113	0.043201	0.481654
H140	H	1.297446	0.376534	0.814988
H141	H	1.630779	0.709867	1.148321
H142	H	0.139595	0.111839	-0.168555
H143	H	0.472928	0.445172	0.164778
H144	H	0.806262	0.778505	0.498111
H145	H	0.991933	-0.370242	-0.000064
H146	H	1.325267	-0.036909	0.333269
H147	H	1.658600	0.296424	0.666602
H148	H	0.283002	0.114696	-0.168558
H149	H	0.616336	0.448029	0.164775
H150	H	0.949669	0.781362	0.498109
H151	H	0.537446	0.119789	-0.168547
H152	H	0.870780	0.453123	0.164786
H153	H	1.204113	0.786456	0.498120
H154	H	0.680866	0.122666	-0.168555
H155	H	1.014199	0.455999	0.164778
H156	H	1.347532	0.789333	0.498112
