data_functionalizedCrystal
_audit_creation_method	'MofGen! by Chris Wilmer'
_symmetry_space_group_name_H-M	'P1'
_symmetry_Int_Tables_number	1
_symmetry_cell_setting	triclinic
loop_
_symmetry_equiv_pos_as_xyz
  x,y,z
_cell_length_a	14.971482
_cell_length_b	13.448316
_cell_length_c	14.971494
_cell_angle_alpha	90.004885
_cell_angle_beta	83.615083
_cell_angle_gamma	90.006202
loop_
_atom_site_label
_atom_site_type_symbol
_atom_site_fract_x
_atom_site_fract_y
_atom_site_fract_z
O1	O	1.186953	0.082675	0.116548
O2	O	0.926553	0.082679	0.130511
O3	O	1.063728	0.082675	-0.006670
O4	O	1.049777	0.082680	0.253729
O5	O	1.063711	-0.082709	-0.006679
O6	O	0.926536	-0.082704	0.130502
O7	O	1.186936	-0.082709	0.116540
Cu8	Cu	1.056734	-0.097807	0.123520
Cu9	Cu	1.056754	0.097778	0.123530
O10	O	1.049760	-0.082704	0.253721
C11	C	0.893219	-0.000012	0.129883
C12	C	0.793922	-0.000010	0.128013
N13	N	1.056726	-0.235372	0.123513
C14	C	0.747268	-0.090162	0.127128
C15	C	0.653969	-0.090163	0.125357
C16	C	0.607326	-0.000011	0.124478
C17	C	0.653987	0.090148	0.125361
C18	C	0.747284	0.090148	0.127125
C19	C	0.459525	0.090141	0.121685
C20	C	0.366220	0.090141	0.119923
C21	C	0.366210	-0.090170	0.119918
C22	C	0.459507	-0.090169	0.121682
C23	C	0.506162	-0.000010	0.122566
C24	C	1.117486	-0.287414	0.062794
C25	C	1.117492	-0.391517	0.062793
C26	C	1.056741	-0.443576	0.123516
C27	C	0.995974	-0.391527	0.184238
C28	C	0.995965	-0.287425	0.184234
C29	C	0.995999	-0.608507	0.184244
C30	C	0.996009	-0.712615	0.184250
C31	C	1.117526	-0.712599	0.062804
C32	C	1.117517	-0.608497	0.062799
C33	C	1.056751	-0.556455	0.123522
C34	C	1.220269	-0.000015	0.117168
C35	C	1.319566	-0.000010	0.119037
N36	N	1.056769	0.235342	0.123531
C37	C	1.063094	-0.000015	-0.039999
C38	C	1.061221	-0.000011	-0.139296
C39	C	1.060352	0.090141	-0.185936
C40	C	1.058586	0.090142	-0.279235
C41	C	1.057695	-0.000009	-0.325893
C42	C	1.058561	-0.090168	-0.279246
C43	C	1.060321	-0.090168	-0.185948
C44	C	1.054895	-0.090161	-0.473709
C45	C	1.053137	-0.090162	-0.567014
C46	C	1.053160	0.090149	-0.566996
C47	C	1.054920	0.090149	-0.473698
C48	C	1.055787	-0.000010	-0.427057
C49	C	1.050394	-0.000012	0.287050
C50	C	1.052268	-0.000010	0.386346
H51	H	0.615990	-0.163574	0.124622
C52	C	1.055852	-0.189335	-0.422401
C53	C	0.979450	-0.214131	-0.348188
C54	C	0.980412	-0.313301	-0.296879
C55	C	1.057776	-0.387675	-0.319783
C56	C	1.134184	-0.362880	-0.393999
C57	C	1.133221	-0.263711	-0.445308
H58	H	0.922175	-0.159074	-0.331230
H59	H	0.923850	-0.331655	-0.241939
H60	H	1.058488	-0.461086	-0.281801
H61	H	1.191458	-0.417938	-0.410957
H62	H	1.189784	-0.245357	-0.500248
H63	H	0.328246	0.163551	0.119207
H64	H	1.166967	-0.433890	0.013351
H65	H	0.946538	-0.754996	0.233695
H66	H	0.785269	0.163558	0.127847
C67	C	0.929129	-0.230175	0.251027
C68	C	0.862335	-0.287435	0.317853
C69	C	0.795493	-0.230187	0.384646
C70	C	0.795446	-0.115679	0.384612
C71	C	0.862243	-0.058414	0.317784
C72	C	0.929084	-0.115662	0.250992
H73	H	0.862367	-0.372206	0.317880
H74	H	0.746046	-0.272579	0.434116
H75	H	0.745966	-0.073301	0.434056
H76	H	0.862210	0.026357	0.317757
H77	H	0.978532	-0.073269	0.201521
H78	H	1.061015	-0.163579	-0.147973
H79	H	1.166961	-0.245034	0.013350
H80	H	1.057830	-0.163571	-0.317241
H81	H	1.061082	0.163553	-0.147954
C82	C	1.057637	0.189315	-0.330534
C83	C	1.135506	0.263678	-0.327770
C84	C	1.134558	0.362857	-0.379066
C85	C	1.055741	0.387674	-0.433125
C86	C	0.977866	0.313310	-0.435891
C87	C	0.978814	0.214130	-0.384595
H88	H	1.193856	0.245308	-0.287750
H89	H	1.192206	0.417906	-0.377018
H90	H	1.055039	0.461093	-0.471097
H91	H	0.919516	0.331679	-0.475910
H92	H	0.921166	0.159081	-0.386643
H93	H	0.785238	-0.163574	0.127852
C94	C	1.052207	0.189330	-0.618292
C95	C	1.128612	0.214117	-0.692504
C96	C	1.127668	0.313295	-0.743803
C97	C	1.050319	0.387685	-0.720890
C98	C	0.973908	0.362899	-0.646675
C99	C	0.974852	0.263722	-0.595376
H100	H	1.185876	0.159047	-0.709468
H101	H	1.184233	0.331642	-0.798742
H102	H	1.049620	0.461102	-0.758865
H103	H	0.916645	0.417969	-0.629710
H104	H	0.918288	0.245374	-0.540436
H105	H	0.497481	-0.163579	0.122404
H106	H	1.055652	0.163559	-0.435712
C107	C	1.052102	-0.189313	-0.618356
C108	C	0.974683	-0.263634	-0.595463
C109	C	0.973626	-0.362779	-0.646813
C110	C	1.049989	-0.387604	-0.721056
C111	C	1.127414	-0.313281	-0.743952
C112	C	1.128471	-0.214136	-0.692602
H113	H	0.918149	-0.245259	-0.540501
H114	H	0.916310	-0.417798	-0.629863
H115	H	1.049207	-0.460997	-0.759068
H116	H	1.183948	-0.331656	-0.798914
H117	H	1.185787	-0.159117	-0.709552
H118	H	0.497508	0.163558	0.122405
C119	C	0.314900	-0.189349	0.118935
C120	C	0.317640	-0.263722	0.196786
C121	C	0.266327	-0.362899	0.195806
C122	C	0.212273	-0.387703	0.116975
C123	C	0.209530	-0.313328	0.039119
C124	C	0.260843	-0.214152	0.040099
H125	H	0.357656	-0.245362	0.255146
H126	H	0.268358	-0.417956	0.253441
H127	H	0.174288	-0.461120	0.116250
H128	H	0.169514	-0.331688	-0.019241
H129	H	0.258812	-0.159095	-0.017536
H130	H	1.166989	-0.566111	0.013359
H131	H	0.616003	0.163551	0.124638
H132	H	0.946505	-0.433919	0.233677
C133	C	1.184366	-0.769844	-0.003995
C134	C	1.149354	-0.841425	-0.072462
C135	C	1.216194	-0.898676	-0.139254
C136	C	1.318045	-0.884346	-0.137579
C137	C	1.353061	-0.812762	-0.069110
C138	C	1.286221	-0.755510	-0.002318
H139	H	1.073954	-0.852036	-0.073704
H140	H	1.190272	-0.951668	-0.189939
H141	H	1.367523	-0.926727	-0.187023
H142	H	1.428461	-0.802151	-0.067868
H143	H	1.312143	-0.702519	0.048367
H144	H	0.946514	-0.566137	0.233688
