data_functionalizedCrystal
_audit_creation_method	'MofGen! by Chris Wilmer'
_symmetry_space_group_name_H-M	'P1'
_symmetry_Int_Tables_number	1
_symmetry_cell_setting	triclinic
loop_
_symmetry_equiv_pos_as_xyz
  x,y,z
_cell_length_a	16.625539
_cell_length_b	19.805407
_cell_length_c	16.625545
_cell_angle_alpha	89.972502
_cell_angle_beta	90.028107
_cell_angle_gamma	89.977631
loop_
_atom_site_label
_atom_site_type_symbol
_atom_site_fract_x
_atom_site_fract_y
_atom_site_fract_z
Zn1	Zn	-0.455949	1.034753	0.320958
Zn2	Zn	-0.321117	1.034665	0.455802
Zn3	Zn	-0.321125	0.921564	0.320991
Zn4	Zn	-0.455903	0.921533	0.455757
O5	O	-0.388524	0.978129	0.388377
O6	O	-0.438079	1.129458	0.338850
O7	O	-0.208286	1.019639	0.437951
O8	O	-0.339033	0.936628	0.208154
O9	O	-0.339019	1.129394	0.437919
O10	O	-0.438088	1.019788	0.208130
O11	O	-0.208292	0.936543	0.338906
O12	O	-0.338988	0.826843	0.338863
O13	O	-0.568741	0.936575	0.437844
O14	O	-0.438008	0.826820	0.437875
O15	O	-0.568775	1.019758	0.338808
O16	O	-0.338973	1.019609	0.568628
O17	O	-0.438000	0.936490	0.568596
C18	C	-0.388494	0.802273	0.388369
C19	C	-0.388501	0.727041	0.388385
C20	C	-0.440215	0.265286	0.336889
C21	C	-0.440209	0.335975	0.336890
C22	C	-0.388550	0.371279	0.388389
C23	C	-0.336899	0.335891	0.439896
C24	C	-0.336909	0.265204	0.439898
C25	C	-0.336856	0.620964	0.439890
C26	C	-0.336848	0.691656	0.439883
C27	C	-0.440156	0.691735	0.336882
C28	C	-0.440166	0.621048	0.336884
C29	C	-0.388518	0.585666	0.388393
C30	C	-0.388526	0.509018	0.388392
C31	C	-0.388537	0.447926	0.388387
C32	C	-0.598833	0.978173	0.388317
C33	C	-0.688454	0.978191	0.388291
C34	C	-1.016630	0.978223	0.388201
C35	C	-0.925321	0.978212	0.388229
C36	C	-0.852545	0.978207	0.388247
C37	C	-0.761230	0.978196	0.388273
C38	C	-0.179033	0.978124	0.388379
C39	C	-0.089412	0.978236	0.388177
C40	C	-0.388498	0.978055	0.597868
C41	C	-0.388514	0.978086	0.687489
C42	C	-0.388553	1.154671	0.388386
C43	C	-0.388566	1.229903	0.388390
C44	C	-0.388567	0.978221	0.178068
C45	C	-0.388585	0.978260	0.088447
C46	C	-0.388530	0.978112	0.760272
C47	C	-0.388548	0.978151	0.851580
C48	C	-0.388558	0.978186	0.924356
C49	C	-0.388575	0.978225	1.015671
H50	H	-0.482269	0.364781	0.294955
C51	C	-0.280089	0.226282	0.496552
N52	N	-0.237292	0.196968	0.539226
H53	H	-0.482229	0.592307	0.294945
C54	C	-0.280028	0.582053	0.496539
N55	N	-0.237219	0.552743	0.539205
C56	C	-0.280069	0.374728	0.496543
N57	N	-0.237261	0.403979	0.539207
C58	C	-0.497045	0.226459	0.280234
N59	N	-0.539854	0.197215	0.237563
C60	C	-0.496975	0.730662	0.280225
N61	N	-0.539769	0.759980	0.237551
C62	C	-0.280020	0.730489	0.496543
N63	N	-0.237220	0.759738	0.539218
