data_functionalizedCrystal
_audit_creation_method	'MofGen! by Chris Wilmer'
_symmetry_space_group_name_H-M	'P1'
_symmetry_Int_Tables_number	1
_symmetry_cell_setting	triclinic
loop_
_symmetry_equiv_pos_as_xyz
  x,y,z
_cell_length_a	12.827893
_cell_length_b	19.121111
_cell_length_c	12.827885
_cell_angle_alpha	92.406008
_cell_angle_beta	90.019272
_cell_angle_gamma	87.529784
loop_
_atom_site_label
_atom_site_type_symbol
_atom_site_fract_x
_atom_site_fract_y
_atom_site_fract_z
Zn1	Zn	1.579826	0.279579	0.608554
Zn2	Zn	1.572223	0.397046	0.441253
Zn3	Zn	1.405065	0.279614	0.433830
Zn4	Zn	1.397558	0.396994	0.615950
O5	O	1.488668	0.338308	0.524896
O6	O	1.725053	0.295169	0.586372
O7	O	1.550008	0.381505	0.294034
O8	O	1.434571	0.181325	0.450805
O9	O	1.719467	0.381471	0.463457
O10	O	1.562967	0.181300	0.579174
O11	O	1.427198	0.295227	0.288580
O12	O	1.257834	0.295177	0.457977
O13	O	1.421777	0.381382	0.761202
O14	O	1.252319	0.381415	0.591779
O15	O	1.555688	0.295118	0.755769
O16	O	1.542730	0.495323	0.470629
O17	O	1.414405	0.495285	0.598978
C18	C	1.217159	0.338295	0.524876
C19	C	1.101005	0.338306	0.524893
C20	C	1.476956	0.520788	0.536434
C21	C	1.472041	0.598854	0.541405
C22	C	1.046515	0.381046	0.591009
C23	C	0.926464	0.381059	0.591028
C24	C	1.536596	0.635526	0.476971
C25	C	1.531980	0.708877	0.481652
C26	C	1.462803	0.745554	0.550763
C27	C	1.398245	0.708877	0.615203
C28	C	1.402867	0.635528	0.610527
C29	C	1.445506	0.967023	0.568228
C30	C	1.440887	1.040378	0.572898
C31	C	1.574623	1.040373	0.439347
C32	C	1.579235	0.967021	0.434672
C33	C	1.514681	0.930351	0.499117
C34	C	1.458080	0.820531	0.555547
C35	C	1.519410	0.855375	0.494337
C36	C	1.761237	0.338322	0.524918
C37	C	1.877390	0.338328	0.524927
C38	C	1.488743	0.338241	0.797463
C39	C	1.488775	0.338212	0.913614
C40	C	1.500445	1.155116	0.513350
C41	C	1.505442	1.077050	0.508464
C42	C	1.488656	0.338325	0.253388
C43	C	1.488839	0.338156	0.137224
C44	C	1.555046	0.295518	0.962709
C45	C	1.555081	0.295487	1.082758
H46	H	1.088741	0.417626	0.647603
H47	H	1.627181	1.070238	0.386882
N48	N	1.630177	0.247132	0.900671
H49	H	1.674408	0.218636	0.949927
H50	H	1.589676	0.214665	0.853332
N51	N	1.333230	0.595978	0.680021
H52	H	1.286741	0.565594	0.635573
H53	H	1.377662	0.565536	0.726535
N54	N	1.413656	0.386599	0.975663
H55	H	1.426631	0.436800	0.959898
H56	H	1.339700	0.375644	0.956007
N57	N	1.413671	0.386581	1.081315
H58	H	1.454069	0.419118	1.038085
H59	H	1.367123	0.357972	1.034281
H60	H	1.341924	0.738746	0.671479
N61	N	1.045082	0.289850	0.449923
H62	H	1.063297	0.300689	0.375899
H63	H	1.067264	0.239685	0.463168
N64	N	0.864417	0.429537	0.666005
H65	H	0.787452	0.422676	0.655389
H66	H	0.884170	0.418675	0.739994
N67	N	0.939434	0.289846	0.449953
H68	H	0.890185	0.261331	0.405846
H69	H	0.982872	0.318415	0.403359
N70	N	1.611205	0.595969	0.402427
H71	H	1.651402	0.630334	0.362321
H72	H	1.661463	0.565487	0.443065
N73	N	1.601606	0.748431	0.412156
H74	H	1.646125	0.714066	0.367661
H75	H	1.557171	0.778915	0.365705
H76	H	1.384567	1.070239	0.629194
H77	H	1.392942	0.937171	0.620699
N78	N	1.383457	0.860093	0.630072
H79	H	1.343254	0.825734	0.670182
H80	H	1.424054	0.890477	0.680408
N81	N	1.630247	0.247070	1.138686
H82	H	1.619619	0.253912	1.216516
H83	H	1.617222	0.196901	1.116496
H84	H	1.635564	0.937160	0.378397
H85	H	1.575738	0.825511	0.438071
