data_functionalizedCrystal
_audit_creation_method	'MofGen! by Chris Wilmer'
_symmetry_space_group_name_H-M	'P1'
_symmetry_Int_Tables_number	1
_symmetry_cell_setting	triclinic
loop_
_symmetry_equiv_pos_as_xyz
  x,y,z
_cell_length_a	14.044220
_cell_length_b	10.540539
_cell_length_c	13.101039
_cell_angle_alpha	93.398267
_cell_angle_beta	86.340132
_cell_angle_gamma	88.857185
loop_
_atom_site_label
_atom_site_type_symbol
_atom_site_fract_x
_atom_site_fract_y
_atom_site_fract_z
O1	O	1.264944	0.299850	-0.085096
O2	O	1.764944	0.799850	0.414904
O3	O	0.988901	0.288796	-0.085123
O4	O	1.488901	0.788796	0.414877
O5	O	1.133220	0.110253	-0.085108
O6	O	1.633220	0.610253	0.414892
O7	O	1.120625	0.478393	-0.085111
O8	O	1.620625	0.978393	0.414889
O9	O	1.122866	0.123087	0.085321
O10	O	1.622866	0.623087	0.585321
O11	O	0.978547	0.301630	0.085306
O12	O	1.478547	0.801630	0.585306
O13	O	1.254589	0.312683	0.085332
O14	O	1.754589	0.812683	0.585332
Zn15	Zn	1.114924	0.309194	0.112379
Zn16	Zn	1.614924	0.809194	0.612379
Zn17	Zn	1.128566	0.292285	-0.112169
Zn18	Zn	1.628566	0.792285	0.387831
O19	O	1.110270	0.491226	0.085317
O20	O	1.610270	0.991226	0.585317
C21	C	0.948377	0.290375	0.000088
C22	C	1.448377	0.790375	0.500088
C23	C	0.843054	0.275945	0.000078
C24	C	1.343054	0.775945	0.500078
C25	C	1.127098	0.069271	0.000105
C26	C	1.627098	0.569271	0.500105
C27	C	1.124273	-0.071963	0.000099
C28	C	1.624273	0.428037	0.500099
C29	C	0.650213	0.249565	0.000099
C30	C	1.150213	0.749565	0.500099
C31	C	0.593272	0.351908	0.000102
C32	C	1.093272	0.851908	0.500102
C33	C	0.485969	0.337230	0.000114
C34	C	0.985969	0.837230	0.500114
C35	C	0.757526	0.264241	0.000087
C36	C	1.257526	0.764241	0.500087
C37	C	1.016007	-0.266367	-0.000294
C38	C	1.516007	0.233633	0.499706
C39	C	1.018849	-0.119430	0.000090
C40	C	1.518849	0.380570	0.500090
C41	C	1.169094	-0.121162	0.097427
C42	C	1.669094	0.378838	0.597427
C43	C	1.165492	-0.268064	0.097509
C44	C	1.665492	0.231936	0.597509
C45	C	1.179411	-0.282960	-0.096300
C46	C	1.679411	0.217040	0.403700
C47	C	1.180460	-0.135977	-0.097587
C48	C	1.680460	0.364023	0.402413
C49	C	1.295114	0.311104	0.000119
C50	C	1.795114	0.811104	0.500119
C51	C	1.400437	0.325534	0.000123
C52	C	1.900437	0.825534	0.500123
C53	C	1.116392	0.532208	0.000103
C54	C	1.616392	1.032208	0.500103
C55	C	1.119218	0.673442	0.000102
C56	C	1.619218	1.173442	0.500102
N57	N	1.105620	0.320734	0.265626
N58	N	1.605620	0.820734	0.765626
N59	N	1.137878	0.280737	-0.265416
N60	N	1.637878	0.780737	0.234584
C61	C	1.092962	0.336445	0.474667
C62	C	1.592962	0.836445	0.974667
C63	C	1.150533	0.265029	0.525549
C64	C	1.650533	0.765029	1.025549
C65	C	1.143490	0.273771	0.641867
C66	C	1.643490	0.773771	1.141867
C67	C	1.100004	0.327705	0.358339
C68	C	1.600004	0.827705	0.858339
H69	H	0.625112	0.450550	0.000096
H70	H	1.125112	0.950550	0.500096
H71	H	1.205111	0.197322	0.481752
H72	H	1.705111	0.697322	0.981752
C73	C	1.019234	0.427907	0.533832
C74	C	1.519234	0.927907	1.033832
N75	N	0.963703	0.496797	0.578406
N76	N	1.463703	0.996797	1.078406
H77	H	0.618376	0.150932	0.000105
H78	H	1.118376	0.650932	0.500105
C79	C	1.115534	-0.061070	0.195267
C80	C	1.615534	0.438930	0.695267
N81	N	1.075185	-0.015812	0.268958
N82	N	1.575185	0.484188	0.768958
C83	C	0.970636	-0.074421	-0.094160
C84	C	1.470636	0.425579	0.405840
N85	N	0.934314	-0.040526	-0.165150
N86	N	1.434314	0.459474	0.334850
C87	C	0.965466	-0.317806	-0.094578
C88	C	1.465466	0.182194	0.405422
N89	N	0.927397	-0.356563	-0.165594
N90	N	1.427397	0.143437	0.334406
H91	H	0.970315	-0.295542	0.069103
H92	H	1.470315	0.204458	0.569103
H93	H	1.123576	-0.294577	0.170256
H94	H	1.623576	0.205423	0.670256
C95	C	0.958807	-0.061396	0.094495
C96	C	1.458807	0.438604	0.594495
N97	N	0.913582	-0.017686	0.165606
N98	N	1.413582	0.482314	0.665606
C99	C	1.267554	-0.322065	0.103499
C100	C	1.767554	0.177935	0.603499
N101	N	1.344426	-0.362732	0.108018
N102	N	1.844426	0.137268	0.608018
C103	C	1.284784	-0.093364	-0.105514
C104	C	1.784784	0.406636	0.394486
N105	N	1.363365	-0.061272	-0.111475
N106	N	1.863365	0.438728	0.388525
C107	C	1.273382	-0.079995	0.102342
C108	C	1.773382	0.420005	0.602342
N109	N	1.351930	-0.048976	0.106047
N110	N	1.851930	0.451024	0.606047
C111	C	1.139367	-0.337745	-0.195958
C112	C	1.639367	0.162255	0.304042
N113	N	1.109194	-0.379007	-0.271016
N114	N	1.609194	0.120993	0.228984
C115	C	1.136267	-0.093096	-0.194861
C116	C	1.636267	0.406904	0.305139
N117	N	1.102972	-0.060802	-0.268126
N118	N	1.602972	0.439198	0.231874
H119	H	1.255598	-0.322536	-0.096948
H120	H	1.755598	0.177464	0.403052
