data_functionalizedCrystal
_audit_creation_method	'MofGen! by Chris Wilmer'
_symmetry_space_group_name_H-M	'P1'
_symmetry_Int_Tables_number	1
_symmetry_cell_setting	triclinic
loop_
_symmetry_equiv_pos_as_xyz
  x,y,z
_cell_length_a	11.792254
_cell_length_b	22.610064
_cell_length_c	11.792241
_cell_angle_alpha	90.003956
_cell_angle_beta	95.803993
_cell_angle_gamma	90.008232
loop_
_atom_site_label
_atom_site_type_symbol
_atom_site_fract_x
_atom_site_fract_y
_atom_site_fract_z
O1	O	1.506908	0.049184	-0.155621
O2	O	1.176569	0.049186	-0.171639
O3	O	1.349755	0.049181	0.001540
O4	O	1.333722	0.049189	-0.328800
O5	O	1.349724	-0.049188	0.001515
O6	O	1.176538	-0.049184	-0.171664
O7	O	1.506877	-0.049185	-0.155646
Zn8	Zn	1.341703	-0.064802	-0.163659
Zn9	Zn	1.341743	0.064803	-0.163626
O10	O	1.333691	-0.049180	-0.328825
C11	C	1.134263	0.000001	-0.170642
C12	C	1.008250	0.000002	-0.167622
C13	C	0.905913	0.000004	-0.165168
C14	C	0.777527	0.000004	-0.162100
N15	N	1.341684	-0.153255	-0.163681
C16	C	1.418434	-0.561898	-0.086954
C17	C	1.418439	-0.623818	-0.086946
O18	O	1.483647	-0.655839	-0.021726
N19	N	1.341742	-0.654792	-0.163602
C20	C	1.265027	-0.623843	-0.240264
O21	O	1.199789	-0.655874	-0.305465
C22	C	1.265016	-0.561924	-0.240266
C23	C	1.341726	-0.530953	-0.163612
C24	C	1.495136	-0.530928	-0.010306
C25	C	1.495132	-0.469012	-0.010316
C26	C	1.418424	-0.438067	-0.086974
C27	C	1.341722	-0.469038	-0.163622
C28	C	1.188296	-0.530976	-0.316922
C29	C	1.188292	-0.469053	-0.316916
C30	C	1.265002	-0.438082	-0.240263
C31	C	1.265010	-0.376177	-0.240290
N32	N	1.341707	-0.345203	-0.163634
C33	C	1.418414	-0.376148	-0.086976
C34	C	1.265053	-0.753876	-0.240253
C35	C	1.265068	-0.815794	-0.240258
C36	C	1.418479	-0.815765	-0.086938
C37	C	1.418469	-0.753847	-0.086939
C38	C	1.341750	-0.722903	-0.163597
C39	C	1.418399	-0.246121	-0.087003
C40	C	1.418391	-0.184200	-0.087023
C41	C	1.264976	-0.184234	-0.240338
C42	C	1.264988	-0.246150	-0.240323
C43	C	1.341704	-0.277092	-0.163646
O44	O	1.199832	-0.344117	-0.305474
O45	O	1.483630	-0.344110	-0.021776
C46	C	1.549183	0.000001	-0.156643
C47	C	1.675196	0.000004	-0.159663
C48	C	1.348732	-0.000004	0.043819
C49	C	1.345718	-0.000003	0.169832
N50	N	1.341771	0.153256	-0.163595
C51	C	1.334714	0.000006	-0.371104
C52	C	1.337728	0.000009	-0.497118
C53	C	1.340175	0.000007	0.400545
C54	C	1.343255	0.000001	0.272160
H55	H	1.480861	-0.158986	-0.024602
C56	C	1.180596	-0.150188	-0.324657
C57	C	1.051344	-0.158713	-0.321863
C58	C	0.966956	-0.124666	-0.406176
C59	C	1.011819	-0.082095	-0.493284
C60	C	1.141077	-0.073568	-0.496081
C61	C	1.225465	-0.107615	-0.411768
H62	H	1.018128	-0.190229	-0.257378
H63	H	0.871271	-0.130979	-0.404105
H64	H	0.949350	-0.056892	-0.555697
H65	H	1.174293	-0.042052	-0.560566
H66	H	1.321151	-0.101303	-0.413840
H67	H	1.202535	-0.271366	-0.302753
C68	C	1.180695	-0.849858	-0.324587
C69	C	1.093623	-0.892430	-0.279649
C70	C	1.009242	-0.926491	-0.363975
C71	C	1.011933	-0.917981	-0.493240
C72	C	1.099007	-0.875408	-0.538184
C73	C	1.183388	-0.841346	-0.453858
H74	H	1.091629	-0.898731	-0.183954
H75	H	0.944784	-0.958007	-0.330704
H76	H	0.949469	-0.943196	-0.555663
H77	H	1.101001	-0.869106	-0.633879
H78	H	1.247846	-0.809830	-0.487129
C79	C	1.103907	-0.565034	-0.401235
C80	C	0.974657	-0.556526	-0.398430
C81	C	0.890260	-0.590585	-0.482746
C82	C	0.935113	-0.633152	-0.569865
C83	C	1.064369	-0.641663	-0.572673
C84	C	1.148766	-0.607604	-0.488358
H85	H	0.941449	-0.525013	-0.333936
H86	H	0.794576	-0.584284	-0.480667
H87	H	0.872637	-0.658364	-0.632280
H88	H	1.097577	-0.673175	-0.637167
H89	H	1.244450	-0.613904	-0.490437
H90	H	1.480937	-0.840972	-0.024517
H91	H	1.125814	-0.443861	-0.379339
C92	C	1.502843	-0.719782	-0.002613
C93	C	1.589912	-0.677206	-0.047542
C94	C	1.674288	-0.643146	0.036791
C95	C	1.671596	-0.651661	0.166053
C96	C	1.584524	-0.694239	0.210990
C97	C	1.500148	-0.728299	0.126657
H98	H	1.591908	-0.670901	-0.143236
H99	H	1.738745	-0.611627	0.003525
H100	H	1.734056	-0.626448	0.228482
H101	H	1.582528	-0.700544	0.306684
H102	H	1.435691	-0.759818	0.159922
H103	H	1.480867	-0.271307	-0.024564
C104	C	1.579502	-0.434948	0.074015
C105	C	1.576797	-0.443462	0.203277
C106	C	1.661167	-0.409401	0.287616
C107	C	1.748242	-0.366827	0.242694
C108	C	1.750950	-0.358311	0.113426
C109	C	1.666580	-0.392371	0.029086
H110	H	1.512336	-0.474980	0.236537
H111	H	1.659162	-0.415706	0.383309
H112	H	1.810698	-0.341613	0.305127
H113	H	1.815412	-0.326793	0.080166
H114	H	1.668586	-0.386067	-0.066607
H115	H	1.202582	-0.728685	-0.302686
H116	H	1.557601	-0.556118	0.052124
