data_functionalizedCrystal
_audit_creation_method	'MofGen! by Chris Wilmer'
_symmetry_space_group_name_H-M	'P1'
_symmetry_Int_Tables_number	1
_symmetry_cell_setting	triclinic
loop_
_symmetry_equiv_pos_as_xyz
  x,y,z
_cell_length_a	16.625546
_cell_length_b	18.215407
_cell_length_c	18.215399
_cell_angle_alpha	90.020595
_cell_angle_beta	89.970824
_cell_angle_gamma	89.977611
loop_
_atom_site_label
_atom_site_type_symbol
_atom_site_fract_x
_atom_site_fract_y
_atom_site_fract_z
Zn1	Zn	-0.321012	-1.125084	-0.416125
Zn2	Zn	-0.455852	-1.124998	-0.293056
Zn3	Zn	-0.321037	-1.002017	-0.293070
Zn4	Zn	-0.455806	-1.001988	-0.416079
O5	O	-0.388426	-1.063522	-0.354582
O6	O	-0.338907	-1.228057	-0.399812
O7	O	-0.437998	-1.108660	-0.190073
O8	O	-0.208201	-1.018390	-0.309419
O9	O	-0.437974	-1.227994	-0.309394
O10	O	-0.208183	-1.108807	-0.399826
O11	O	-0.338950	-1.018307	-0.190084
O12	O	-0.338905	-0.899029	-0.309375
O13	O	-0.437895	-1.018341	-0.519069
O14	O	-0.437920	-0.899008	-0.399749
O15	O	-0.338862	-1.108779	-0.519103
O16	O	-0.568678	-1.108632	-0.309350
O17	O	-0.568644	-1.018257	-0.399734
C18	C	-0.388411	-0.872315	-0.354559
C19	C	-0.388423	-0.790517	-0.354566
C20	C	-0.440059	-0.602331	-0.401562
C21	C	-0.440061	-0.525472	-0.401570
C22	C	-0.336798	-0.525465	-0.307605
C23	C	-0.336793	-0.602322	-0.307601
C24	C	-0.388428	-0.640753	-0.354579
C25	C	-0.388435	-0.487037	-0.354591
C26	C	-0.388437	-0.403703	-0.354599
C27	C	-0.388426	-0.724092	-0.354571
C28	C	-0.597917	-1.063452	-0.354552
C29	C	-0.687538	-1.063490	-0.354563
C30	C	-1.015714	-1.063618	-0.354640
C31	C	-0.924406	-1.063580	-0.354620
C32	C	-0.851629	-1.063553	-0.354601
C33	C	-0.760315	-1.063516	-0.354582
C34	C	-0.178118	-1.063612	-0.354629
C35	C	-0.088496	-1.063650	-0.354649
C36	C	-0.388371	-1.063567	-0.546535
C37	C	-0.388347	-1.063586	-0.628334
C38	C	-0.388440	-0.255475	-0.354603
C39	C	-0.388440	-0.337274	-0.354604
C40	C	-0.336733	-1.110694	-0.816547
C41	C	-0.336709	-1.110703	-0.893406
C42	C	-0.439837	-1.016530	-0.893360
C43	C	-0.439856	-1.016518	-0.816502
C44	C	-0.388305	-1.063604	-0.778098
C45	C	-0.388263	-1.063625	-0.931814
C46	C	-0.388237	-1.063634	-1.015148
C47	C	-0.388329	-1.063594	-0.694759
C48	C	-0.388424	-1.063519	-0.163376
C49	C	-0.388220	-1.063643	-0.081578
H50	H	-0.294760	-0.494165	-0.269357
H51	H	-0.482103	-0.494192	-0.439830
H52	H	-0.294713	-1.149047	-0.924708
C53	C	-0.496545	-0.964746	-0.935607
H54	H	-0.489155	-0.971502	-0.986887
H55	H	-0.484749	-0.915301	-0.923006
H56	H	-0.550726	-0.975500	-0.922997
H57	H	-0.294744	-0.633606	-0.269342
H58	H	-0.294754	-1.149033	-0.785280
C59	C	-0.496593	-0.964721	-0.774205
H60	H	-0.527302	-0.936688	-0.808084
H61	H	-0.465758	-0.932663	-0.744222
H62	H	-0.531734	-0.992863	-0.744222
H63	H	-0.482102	-0.633619	-0.439816
