data_functionalizedCrystal
_audit_creation_method	'MofGen! by Chris Wilmer'
_symmetry_space_group_name_H-M	'P1'
_symmetry_Int_Tables_number	1
_symmetry_cell_setting	triclinic
loop_
_symmetry_equiv_pos_as_xyz
  x,y,z
_cell_length_a	19.188905
_cell_length_b	19.188925
_cell_length_c	7.540329
_cell_angle_alpha	89.996768
_cell_angle_beta	89.989921
_cell_angle_gamma	83.138552
loop_
_atom_site_label
_atom_site_type_symbol
_atom_site_fract_x
_atom_site_fract_y
_atom_site_fract_z
O1	O	0.926153	0.087084	-0.147773
O2	O	1.426153	0.587084	0.352227
O3	O	0.722839	0.098836	-0.147712
O4	O	1.222839	0.598836	0.352288
O5	O	0.830365	-0.008697	-0.147735
O6	O	1.330365	0.491303	0.352265
O7	O	0.818627	0.194616	-0.147751
O8	O	1.318627	0.694616	0.352249
O9	O	0.830359	-0.008698	0.147230
O10	O	1.330359	0.491302	0.647230
O11	O	0.722832	0.098835	0.147253
O12	O	1.222832	0.598835	0.647253
O13	O	0.926146	0.087082	0.147192
O14	O	1.426146	0.587082	0.647192
Cu15	Cu	0.824489	0.092958	0.174155
Cu16	Cu	1.324489	0.592958	0.674155
Cu17	Cu	0.824496	0.092960	-0.174676
Cu18	Cu	1.324496	0.592960	0.325324
O19	O	0.818620	0.194615	0.147214
O20	O	1.318620	0.694615	0.647214
C21	C	0.696824	0.098458	-0.000222
C22	C	1.196824	0.598458	0.499778
C23	C	0.619319	0.097324	-0.000199
C24	C	1.119319	0.597324	0.499801
C25	C	0.582931	0.096780	-0.160989
C26	C	1.082931	0.596780	0.339011
C27	C	0.510107	0.095707	-0.161011
C28	C	1.010107	0.595707	0.338989
C29	C	0.473676	0.095164	-0.000234
C30	C	0.973676	0.595164	0.499766
C31	C	0.510073	0.095712	0.160578
C32	C	1.010073	0.595712	0.660578
C33	C	0.582894	0.096792	0.160595
C34	C	1.082894	0.596792	0.660595
N35	N	0.364654	0.053735	0.119421
N36	N	0.864654	0.553735	0.619421
N37	N	0.295477	0.052707	0.119393
N38	N	0.795477	0.552707	0.619393
C39	C	0.254270	0.091911	-0.000276
C40	C	0.754270	0.591911	0.499724
N41	N	0.284854	0.132173	-0.119944
N42	N	0.784854	0.632173	0.380056
N43	N	0.354037	0.133197	-0.119922
N44	N	0.854037	0.633197	0.380078
C45	C	0.394714	0.093993	-0.000234
C46	C	0.894714	0.593993	0.499766
C47	C	0.138918	0.090205	-0.161101
C48	C	0.638918	0.590205	0.338899
C49	C	0.066092	0.089136	-0.161116
C50	C	0.566092	0.589136	0.338884
C51	C	0.066060	0.089134	0.160477
C52	C	0.566060	0.589134	0.660477
C53	C	0.138884	0.090210	0.160488
C54	C	0.638884	0.590210	0.660488
C55	C	0.175308	0.090742	-0.000306
C56	C	0.675308	0.590742	0.499694
C57	C	0.829982	-0.034708	-0.000253
C58	C	1.329982	0.465292	0.499747
C59	C	0.828843	-0.112213	-0.000256
C60	C	1.328843	0.387787	0.499744
C61	C	0.884308	-0.673988	-0.000318
C62	C	1.384308	-0.173988	0.499682
C63	C	0.885384	-0.601165	-0.000302
C64	C	1.385384	-0.101165	0.499698
C65	C	0.822291	-0.556225	-0.000284
C66	C	1.322291	-0.056225	0.499716
C67	C	0.758117	-0.584113	-0.000236
C68	C	1.258117	-0.084113	0.499764
C69	C	0.757043	-0.656935	-0.000234
C70	C	1.257043	-0.156935	0.499766
N71	N	0.776617	-0.435540	-0.100669
N72	N	1.276617	0.064460	0.399331
N73	N	0.777642	-0.366363	-0.100674
N74	N	1.277642	0.133637	0.399326
C75	C	0.825525	-0.336816	-0.000286
C76	C	1.325525	0.163184	0.499714
N77	N	0.872356	-0.379061	0.100086
N78	N	1.372356	0.120939	0.600086
N79	N	0.871332	-0.448245	0.100084
N80	N	1.371332	0.051755	0.600084
C81	C	0.823450	-0.477261	-0.000285
C82	C	1.323450	0.022739	0.499715
C83	C	0.890863	-0.229973	-0.000304
C84	C	1.390863	0.270027	0.499696
C85	C	0.891937	-0.157148	-0.000278
C86	C	1.391937	0.342852	0.499722
C87	C	0.764668	-0.140097	-0.000229
C88	C	1.264668	0.359903	0.499771
C89	C	0.763596	-0.212921	-0.000238
C90	C	1.263596	0.287079	0.499762
C91	C	0.826695	-0.257855	-0.000284
C92	C	1.326695	0.242145	0.499716
C93	C	0.952161	0.087461	-0.000302
C94	C	1.452161	0.587461	0.499698
C95	C	1.029666	0.088594	-0.000337
C96	C	1.529666	0.588594	0.499663
C97	C	0.819003	0.220627	-0.000271
C98	C	1.319003	0.720627	0.499729
C99	C	0.820142	0.298131	-0.000280
C100	C	1.320142	0.798131	0.499720
N101	N	0.824489	0.092957	0.419503
N102	N	1.324489	0.592957	0.919503
N103	N	0.824502	0.092956	-0.420024
N104	N	1.324502	0.592956	0.079976
H105	H	0.612583	0.097214	-0.291920
H106	H	1.112583	0.597214	0.208080
H107	H	0.168575	0.090646	-0.292029
H108	H	0.668575	0.590646	0.207971
Cl109	Cl	0.970186	-0.286464	-0.000352
Cl110	Cl	1.470186	0.213536	0.499648
Cl111	Cl	0.963633	-0.730472	-0.000356
Cl112	Cl	1.463633	-0.230472	0.499644
H113	H	0.704790	-0.679634	-0.000199
H114	H	1.204790	-0.179634	0.499801
H115	H	0.480474	0.095265	-0.291950
H116	H	0.980474	0.595265	0.208050
Cl117	Cl	0.682925	-0.247973	-0.000207
Cl118	Cl	1.182925	0.252027	0.499793
Cl119	Cl	0.972610	-0.122098	-0.000333
Cl120	Cl	1.472610	0.377902	0.499667
H121	H	0.706747	-0.547518	-0.000215
H122	H	1.206747	-0.047518	0.499785
Cl123	Cl	0.464275	0.095034	0.362698
Cl124	Cl	0.964275	0.595034	0.862698
H125	H	0.937637	-0.578460	-0.000333
H126	H	1.437637	-0.078460	0.499667
H127	H	0.036399	0.088696	0.291385
H128	H	0.536399	0.588696	0.791385
Cl129	Cl	0.628642	0.097475	0.362749
Cl130	Cl	1.128642	0.597475	0.862749
H131	H	0.036465	0.088698	-0.292056
H132	H	0.536465	0.588698	0.207944
H133	H	0.168512	0.090648	0.291420
H134	H	0.668512	0.590648	0.791420
Cl135	Cl	0.685350	-0.083608	-0.000182
Cl136	Cl	1.185350	0.416392	0.499818
