data_functionalizedCrystal
_audit_creation_method	'MofGen! by Chris Wilmer'
_symmetry_space_group_name_H-M	'P1'
_symmetry_Int_Tables_number	1
_symmetry_cell_setting	triclinic
loop_
_symmetry_equiv_pos_as_xyz
  x,y,z
_cell_length_a	27.440280
_cell_length_b	18.878441
_cell_length_c	27.440280
_cell_angle_alpha	60.004384
_cell_angle_beta	90.008003
_cell_angle_gamma	59.999415
loop_
_atom_site_label
_atom_site_type_symbol
_atom_site_fract_x
_atom_site_fract_y
_atom_site_fract_z
Zr1	Zr	0.469506	0.775268	-0.063909
Zr2	Zr	0.969506	1.275268	0.436091
O3	O	0.391687	0.923048	-0.141733
O4	O	0.891687	1.423048	0.358267
O5	O	0.493361	0.627489	-0.040050
O6	O	0.993361	1.127489	0.459950
O7	O	0.493361	0.775251	-0.141716
O8	O	0.993361	1.275251	0.358284
O9	O	0.391688	0.775299	0.040127
O10	O	0.891688	1.275299	0.540127
O11	O	0.573563	0.775237	-0.141706
O12	O	1.073563	1.275237	0.358294
O13	O	0.391687	0.775286	-0.040066
O14	O	0.891687	1.275286	0.459934
O15	O	0.573564	0.510917	0.040156
O16	O	1.073564	1.010917	0.540156
O17	O	0.391688	1.039620	-0.141735
O18	O	0.891688	1.539620	0.358265
O19	O	0.563390	0.688262	-0.029870
O20	O	1.063390	1.188262	0.470130
O21	O	0.503537	0.688283	0.029970
O22	O	1.003537	1.188283	0.529970
O23	O	0.503536	0.862254	-0.089729
O24	O	1.003536	1.362254	0.410271
O25	O	0.443682	0.862275	-0.029889
O26	O	0.943682	1.362275	0.470111
Zr27	Zr	0.597422	0.775268	0.064006
Zr28	Zr	1.097422	1.275268	0.564006
Zr29	Zr	0.597420	0.775247	-0.063893
Zr30	Zr	1.097420	1.275247	0.436107
Zr31	Zr	0.469508	0.775290	0.063990
Zr32	Zr	0.969508	1.275290	0.563990
Zr33	Zr	0.469507	0.961186	-0.063914
Zr34	Zr	0.969507	1.461186	0.436086
Zr35	Zr	0.597421	0.589351	0.064010
Zr36	Zr	1.097421	1.089351	0.564010
O37	O	0.573567	0.923048	0.040146
O38	O	1.073567	1.423048	0.540146
O39	O	0.573564	0.923017	-0.141710
O40	O	1.073564	1.423017	0.358290
O41	O	0.391689	0.923079	0.040124
O42	O	0.891689	1.423079	0.540124
O43	O	0.675241	0.627489	0.141829
O44	O	1.175241	1.127489	0.641829
O45	O	0.675238	0.627458	-0.040027
O46	O	1.175238	1.127458	0.459973
O47	O	0.493364	0.627520	0.141806
O48	O	0.993364	1.127520	0.641806
O49	O	0.675239	0.775237	-0.040031
O50	O	1.175239	1.275237	0.459969
O51	O	0.573567	0.775286	0.141813
O52	O	1.073567	1.275286	0.641813
O53	O	0.493365	0.775299	0.141803
O54	O	0.993365	1.275299	0.641803
O55	O	0.675241	0.775251	0.040163
O56	O	1.175241	1.275251	0.540163
O57	O	0.493362	1.039602	-0.141723
O58	O	0.993362	1.539602	0.358277
O59	O	0.573566	0.510935	0.141819
O60	O	1.073566	1.010935	0.641819
O61	O	0.675240	0.510917	0.141832
O62	O	1.175240	1.010917	0.641832
O63	O	0.675239	0.510900	0.040169
O64	O	1.175239	1.010900	0.540169
O65	O	0.391689	1.039637	-0.040073
O66	O	0.891689	1.539637	0.459927
O67	O	0.493364	1.039620	-0.040060
O68	O	0.993364	1.539620	0.459940
O69	O	0.563392	0.688283	0.089825
O70	O	1.063392	1.188283	0.589825
O71	O	0.623245	0.688262	0.029985
O72	O	1.123245	1.188262	0.529985
O73	O	0.563391	0.862254	-0.029874
O74	O	1.063391	1.362254	0.470126
O75	O	0.503538	0.862275	0.029966
O76	O	1.003538	1.362275	0.529966
C77	C	0.533462	0.542714	0.000054
C78	C	1.033462	1.042714	0.500054
C79	C	0.533462	0.463787	0.000056
C80	C	1.033462	0.963787	0.500056
C81	C	0.564708	0.123823	-0.031195
C82	C	1.064708	0.623823	0.468805
C83	C	0.564704	0.197985	-0.031196
C84	C	1.064704	0.697985	0.468804
C85	C	0.533462	0.235068	0.000044
C86	C	1.033462	0.735068	0.500044
C87	C	0.502217	0.197993	0.031281
C88	C	1.002217	0.697993	0.531281
C89	C	0.502217	0.123837	0.031277
C90	C	1.002217	0.623837	0.531277
C91	C	0.502220	0.352555	0.031287
C92	C	1.002220	0.852555	0.531287
C93	C	0.502220	0.426714	0.031292
C94	C	1.002220	0.926714	0.531292
C95	C	0.564707	0.426702	-0.031186
C96	C	1.064707	0.926702	0.468814
C97	C	0.564707	0.352547	-0.031189
C98	C	1.064707	0.852547	0.468811
C99	C	0.533462	0.315475	0.000049
C100	C	1.033462	0.815475	0.500049
C101	C	0.373463	0.775296	0.000028
C102	C	0.873463	1.275296	0.500028
C103	C	0.319160	0.775305	0.000021
C104	C	0.819160	1.275305	0.500021
C105	C	0.013705	0.684430	0.031310
C106	C	0.513705	1.184430	0.531310
C107	C	-0.037313	0.684424	0.031316
C108	C	0.462687	1.184424	0.531316
O109	O	-0.037130	0.607184	0.057907
O110	O	0.462870	1.107184	0.557907
N111	N	-0.094073	0.775245	0.000069
N112	N	0.405927	1.275245	0.500069
C113	C	-0.099814	0.866078	-0.031180
C114	C	0.400186	1.366078	0.468820
O115	O	-0.152777	0.943327	-0.057756
O116	O	0.347223	1.443327	0.442244
C117	C	-0.048796	0.866082	-0.031181
C118	C	0.451204	1.366082	0.468819
C119	C	0.007963	0.775255	0.000063
C120	C	0.507963	1.275255	0.500063
C121	C	0.070462	0.593611	0.062552
C122	C	0.570462	1.093611	0.562552
C123	C	0.121477	0.593616	0.062546
C124	C	0.621477	1.093616	0.562546
C125	C	0.115735	0.684442	0.031298
C126	C	0.615735	1.184442	0.531298
C127	C	0.058978	0.775261	0.000056
C128	C	0.558978	1.275261	0.500056
C129	C	-0.054537	0.956914	-0.062426
C130	C	0.445463	1.456914	0.437574
C131	C	-0.003513	0.956910	-0.062424
C132	C	0.496487	1.456910	0.437576
C133	C	0.053246	0.866083	-0.031181
C134	C	0.553246	1.366083	0.468819
C135	C	0.104251	0.866093	-0.031198
C136	C	0.604251	1.366093	0.468802
N137	N	0.161011	0.775272	0.000048
N138	N	0.661011	1.275272	0.500048
C139	C	0.166753	0.684446	0.031296
C140	C	0.666753	1.184446	0.531296
C141	C	-0.206952	0.866061	-0.031173
C142	C	0.293048	1.366061	0.468827
C143	C	-0.257970	0.866058	-0.031176
C144	C	0.242030	1.366058	0.468824
C145	C	-0.195465	0.684404	0.031321
C146	C	0.304535	1.184404	0.531321
C147	C	-0.144447	0.684409	0.031319
C148	C	0.355553	1.184409	0.531319
C149	C	-0.150193	0.775240	0.000073
C150	C	0.349807	1.275240	0.500073
C151	C	0.273885	0.684466	0.031280
C152	C	0.773885	1.184466	0.531280
C153	C	0.324902	0.684480	0.031269
C154	C	0.824902	1.184480	0.531269
C155	C	0.262393	0.866133	-0.031224
C156	C	0.762393	1.366133	0.468776
C157	C	0.211381	0.866119	-0.031216
C158	C	0.711381	1.366119	0.468784
C159	C	0.217131	0.775278	0.000041
C160	C	0.717131	1.275278	0.500041
O161	O	0.104114	0.943294	-0.057774
O162	O	0.604114	1.443294	0.442226
O163	O	0.219718	0.607210	0.057875
O164	O	0.719718	1.107210	0.557875
C165	C	0.693465	0.775241	0.000068
C166	C	1.193465	1.275241	0.500068
C167	C	0.747768	0.775232	0.000075
C168	C	1.247768	1.275232	0.500075
C169	C	0.533462	0.775241	-0.159934
C170	C	1.033462	1.275241	0.340066
C171	C	0.533461	0.775232	-0.214231
C172	C	1.033461	1.275232	0.285769
C173	C	0.533466	1.007823	0.000043
C174	C	1.033466	1.507823	0.500043
C175	C	0.533466	1.086750	0.000041
C176	C	1.033466	1.586750	0.500041
C177	C	0.502226	0.866107	-0.582211
C178	C	1.002226	1.366107	-0.082211
C179	C	0.502228	0.866112	-0.633233
C180	C	1.002228	1.366112	-0.133233
O181	O	0.475675	0.943353	-0.686194
O182	O	0.975675	1.443353	-0.186194
N183	N	0.533470	0.775291	-0.627505
N184	N	1.033470	1.275291	-0.127505
C185	C	0.564717	0.684459	-0.570749
C186	C	1.064717	1.184459	-0.070749
O187	O	0.591292	0.607209	-0.570562
O188	O	1.091292	1.107209	-0.070562
C189	C	0.564719	0.684455	-0.519728
C190	C	1.064719	1.184455	-0.019728
C191	C	0.533470	0.775282	-0.525461
C192	C	1.033470	1.275282	-0.025461
C193	C	0.470980	0.956926	-0.587941
C194	C	0.970980	1.456926	-0.087941
C195	C	0.470978	0.956920	-0.536923
C196	C	0.970978	1.456920	-0.036923
C197	C	0.502221	0.866095	-0.480173
C198	C	1.002221	1.366095	0.019827
C199	C	0.533467	0.775276	-0.474443
C200	C	1.033467	1.275276	0.025557
C201	C	0.595969	0.593623	-0.462974
C202	C	1.095969	1.093623	0.037026
C203	C	0.595968	0.593627	-0.411952
C204	C	1.095968	1.093627	0.088048
C205	C	0.564719	0.684454	-0.417686
C206	C	1.064719	1.184454	0.082314
C207	C	0.564708	0.684444	-0.366674
C208	C	1.064708	1.184444	0.133326
N209	N	0.533466	0.775265	-0.372403
N210	N	1.033466	1.275265	0.127597
C211	C	0.502222	0.866091	-0.429152
C212	C	1.002222	1.366091	0.070848
C213	C	0.564713	0.684475	-0.677899
C214	C	1.064713	1.184475	-0.177899
C215	C	0.564708	0.684479	-0.728919
C216	C	1.064708	1.184479	-0.228919
C217	C	0.502220	0.866133	-0.791399
C218	C	1.002220	1.366133	-0.291399
C219	C	0.502221	0.866128	-0.740378
C220	C	1.002221	1.366128	-0.240378
C221	C	0.533471	0.775296	-0.683628
C222	C	1.033471	1.275296	-0.183628
C223	C	0.502219	0.866071	-0.322006
C224	C	1.002219	1.366071	0.177994
C225	C	0.502217	0.866057	-0.270980
C226	C	1.002217	1.366057	0.229020
C227	C	0.564708	0.684404	-0.208504
C228	C	1.064708	1.184404	0.291496
C229	C	0.564708	0.684418	-0.259526
C230	C	1.064708	1.184418	0.240474
C231	C	0.533462	0.775259	-0.316278
C232	C	1.033462	1.275259	0.183722
O233	O	0.591249	0.607243	-0.313694
O234	O	1.091249	1.107243	0.186306
O235	O	0.475659	0.943327	-0.429329
O236	O	0.975659	1.443327	0.070671
C237	C	0.533466	0.775296	0.160031
C238	C	1.033466	1.275296	0.660031
C239	C	0.533467	0.775305	0.214327
C240	C	1.033467	1.275305	0.714327
C241	C	0.693463	0.542686	0.000074
C242	C	1.193463	1.042686	0.500074
C243	C	0.747766	0.463750	0.000082
C244	C	1.247766	0.963750	0.500082
C245	C	0.533465	0.542741	0.160036
C246	C	1.033465	1.042741	0.660036
C247	C	0.533465	0.463823	0.214335
C248	C	1.033465	0.963823	0.714335
C249	C	0.693466	0.542714	0.160056
C250	C	1.193466	1.042714	0.660056
C251	C	0.747769	0.463787	0.214361
C252	C	1.247769	0.963787	0.714361
C253	C	0.373462	1.007823	-0.159960
C254	C	0.873462	1.507823	0.340040
C255	C	0.319159	1.086750	-0.214265
C256	C	0.819159	1.586750	0.285735
C257	C	0.373464	1.007851	0.000023
C258	C	0.873464	1.507851	0.500023
C259	C	0.319162	1.086787	0.000014
C260	C	0.819162	1.586787	0.500014
C261	C	0.533463	1.007796	-0.159940
C262	C	1.033463	1.507796	0.340060
C263	C	0.533463	1.086714	-0.214238
C264	C	1.033463	1.586714	0.285762
C265	C	0.742023	0.426681	-0.031162
C266	C	1.242023	0.926681	0.468838
C267	C	0.793041	0.352522	-0.031166
C268	C	1.293041	0.852522	0.468834
C269	C	0.849801	0.315429	0.000079
C270	C	1.349801	0.815429	0.500079
C271	C	0.855543	0.352506	0.031325
C272	C	1.355543	0.852506	0.531325
C273	C	0.804525	0.426668	0.031325
C274	C	1.304525	0.926668	0.531325
C275	C	0.564709	0.426763	0.271083
C276	C	1.064709	0.926763	0.771083
C277	C	0.564707	0.352621	0.322107
C278	C	1.064707	0.852621	0.822107
C279	C	0.533464	0.315537	0.316381
C280	C	1.033464	0.815537	0.816381
C281	C	0.502216	0.352605	0.259627
C282	C	1.002216	0.852605	0.759627
C283	C	0.502215	0.426750	0.208605
C284	C	1.002215	0.926750	0.708605
C285	C	0.804519	0.426711	0.208628
C286	C	1.304519	0.926711	0.708628
C287	C	0.855547	0.352561	0.259649
C288	C	1.355547	0.852561	0.759649
C289	C	0.849825	0.315483	0.316402
C290	C	1.349825	0.815483	0.816402
C291	C	0.793069	0.352566	0.322135
C292	C	1.293069	0.852566	0.822135
C293	C	0.742042	0.426720	0.271114
C294	C	1.242042	0.926720	0.771114
C295	C	0.262409	1.123835	-0.208532
C296	C	0.762409	1.623835	0.291468
C297	C	0.211381	1.198008	-0.259552
C298	C	0.711381	1.698008	0.240448
C299	C	0.217103	1.235090	-0.316306
C300	C	0.717103	1.735090	0.183694
C301	C	0.273859	1.198002	-0.322038
C302	C	0.773859	1.698002	0.177962
C303	C	0.324886	1.123836	-0.271018
C304	C	0.824886	1.623836	0.228982
C305	C	0.324905	1.123864	0.031253
C306	C	0.824905	1.623864	0.531253
C307	C	0.273887	1.198043	0.031243
C308	C	0.773887	1.698043	0.531243
C309	C	0.217127	1.235139	-0.000004
C310	C	0.717127	1.735139	0.499996
C311	C	0.211385	1.198059	-0.031247
C312	C	0.711385	1.698059	0.468753
C313	C	0.262402	1.123886	-0.031240
C314	C	0.762402	1.623886	0.468760
C315	C	0.564712	1.123775	-0.208494
C316	C	1.064712	1.623775	0.291506
C317	C	0.564723	1.197916	-0.259508
C318	C	1.064723	1.697916	0.240492
C319	C	0.533482	1.235001	-0.316266
C320	C	1.033482	1.735001	0.183734
C321	C	0.502232	1.197933	-0.322010
C322	C	1.002232	1.697933	0.177990
C323	C	0.502225	1.123787	-0.270996
C324	C	1.002225	1.623787	0.229004
H325	H	0.590143	0.228169	-0.056631
H326	H	1.090143	0.728169	0.443369
H327	H	0.901755	0.322376	0.254971
H328	H	1.401755	0.822376	0.754971
F329	F	0.150983	1.237463	-0.253439
F330	F	0.650983	1.737463	0.246561
H331	H	0.891379	0.255102	0.357941
H332	H	1.391379	0.755102	0.857941
H333	H	0.621416	0.519662	-0.458294
H334	H	1.121416	1.019662	0.041706
F335	F	0.256305	1.084381	-0.148135
F336	F	0.756305	1.584381	0.351865
H337	H	0.476776	0.228196	0.056714
H338	H	0.976776	0.728196	0.556714
H339	H	-0.190798	0.610449	0.056762
H340	H	0.309202	1.110449	0.556762
H341	H	0.476779	0.322400	0.254974
H342	H	0.976779	0.822400	0.754974
F343	F	0.385282	1.084369	-0.277129
F344	F	0.885282	1.584369	0.222871
F345	F	0.810647	0.466107	0.064585
F346	F	1.310647	0.966107	0.564585
H347	H	0.476796	1.228139	-0.368229
H348	H	0.976796	1.728139	0.131771
H349	H	0.590150	0.322348	-0.056623
H350	H	1.090150	0.822348	0.443377
F351	F	0.468962	0.466180	0.148210
F352	F	0.968962	0.966180	0.648210
F353	F	0.786918	0.313073	-0.064422
F354	F	1.286918	0.813073	0.435578
F355	F	0.468963	0.084386	0.064521
F356	F	0.968963	0.584386	0.564521
H357	H	0.175549	1.295481	-0.357845
H358	H	0.675549	1.795481	0.142155
F359	F	-0.213075	0.962744	-0.064437
F360	F	0.286925	1.462744	0.435563
F361	F	0.533494	1.313916	-0.370555
F362	F	1.033494	1.813916	0.129445
F363	F	0.437724	1.053604	-0.648336
F364	F	0.937724	1.553604	-0.148336
H365	H	0.891338	0.255040	0.000075
H366	H	1.391338	0.755040	0.500075
F367	F	0.468970	0.962798	-0.851806
F368	F	0.968970	1.462798	-0.351806
H369	H	-0.100745	1.030875	-0.087867
H370	H	0.399255	1.530875	0.412133
F371	F	0.468964	0.466188	0.064535
F372	F	0.968964	0.966188	0.564535
F373	F	0.786988	0.313094	0.382541
F374	F	1.286988	0.813094	0.882541
F375	F	0.681646	0.466166	0.277226
F376	F	1.181646	0.966166	0.777226
F377	F	0.279940	1.237476	-0.382445
F378	F	0.779940	1.737476	0.117555
H379	H	0.278574	1.228221	0.056687
H380	H	0.778574	1.728221	0.556687
F381	F	0.468952	0.962732	-0.277088
F382	F	0.968952	1.462732	0.222912
F383	F	0.468958	1.084359	-0.277119
F384	F	0.968958	1.584359	0.222881
H385	H	0.371117	1.093666	0.056702
H386	H	0.871117	1.593666	0.556702
H387	H	0.476775	0.940087	-0.745052
H388	H	0.976775	1.440087	-0.245052
F389	F	0.150972	1.237547	-0.064499
F390	F	0.650972	1.737547	0.435501
H391	H	0.590147	0.456891	-0.056621
H392	H	1.090147	0.956891	0.443379
F393	F	-0.009634	1.053589	-0.095680
F394	F	0.490366	1.553589	0.404320
F395	F	0.597966	0.466214	0.277190
F396	F	1.097966	0.966214	0.777190
F397	F	0.280013	0.587782	0.064547
F398	F	0.780013	1.087782	0.564547
H399	H	0.476774	0.322378	0.056721
H400	H	0.976774	0.822378	0.556721
F401	F	0.597965	0.084355	-0.064440
F402	F	1.097965	0.584355	0.435560
F403	F	0.597966	1.084319	-0.148092
F404	F	1.097966	1.584319	0.351908
H405	H	0.809189	0.456889	0.162421
H406	H	1.309189	0.956889	0.662421
F407	F	0.076586	0.496933	0.095815
F408	F	0.576586	0.996933	0.595815
F409	F	0.385310	0.587805	0.064523
F410	F	0.885310	1.087805	0.564523
H411	H	0.167689	0.519656	0.087985
H412	H	0.667689	1.019656	0.587985
H413	H	0.175590	1.295535	-0.000005
H414	H	0.675590	1.795535	0.499995
H415	H	0.695810	0.456881	-0.056613
H416	H	1.195810	0.956881	0.443387
F417	F	-0.084043	0.587740	0.064573
F418	F	0.415957	1.087740	0.564573
F419	F	0.437710	1.053592	-0.543033
F420	F	0.937710	1.553592	-0.043033
F421	F	0.597968	0.313182	0.382503
F422	F	1.097968	0.813182	0.882503
F423	F	0.256281	1.084428	-0.064488
F424	F	0.756281	1.584428	0.435512
F425	F	0.597982	1.237358	-0.253383
F426	F	1.097982	1.737358	0.246617
F427	F	0.468964	0.962755	-0.382401
F428	F	0.968964	1.462755	0.117599
F429	F	0.256293	0.962790	-0.064472
F430	F	0.756293	1.462790	0.435528
H431	H	-0.304182	0.940018	-0.056625
H432	H	0.195818	1.440018	0.443375
H433	H	0.901764	0.322294	0.056763
H434	H	1.401764	0.822294	0.556763
H435	H	0.590146	0.610519	-0.724243
H436	H	1.090146	1.110519	-0.224243
F437	F	0.150972	0.962786	-0.064480
F438	F	0.650972	1.462786	0.435520
F439	F	0.597968	0.587793	-0.617501
F440	F	1.097968	1.087793	-0.117501
H441	H	0.590145	0.610459	-0.254857
H442	H	1.090145	1.110459	0.245143
F443	F	0.629234	0.496948	-0.351554
F444	F	1.129234	0.996948	0.148446
F445	F	0.597957	0.587746	-0.148100
F446	F	1.097957	1.087746	0.351900
F447	F	0.533471	0.236624	0.370690
F448	F	1.033471	0.736624	0.870690
