data_functionalizedCrystal
_audit_creation_method	'MofGen! by Chris Wilmer'
_symmetry_space_group_name_H-M	'P1'
_symmetry_Int_Tables_number	1
_symmetry_cell_setting	triclinic
loop_
_symmetry_equiv_pos_as_xyz
  x,y,z
_cell_length_a	16.974897
_cell_length_b	15.625429
_cell_length_c	15.455301
_cell_angle_alpha	111.052974
_cell_angle_beta	96.650569
_cell_angle_gamma	82.697080
loop_
_atom_site_label
_atom_site_type_symbol
_atom_site_fract_x
_atom_site_fract_y
_atom_site_fract_z
O1	O	1.057204	0.124005	0.185264
O2	O	0.826512	0.138052	0.173507
O3	O	0.946224	-0.002246	0.137773
O4	O	0.937493	0.264302	0.220998
O5	O	0.939911	-0.009418	-0.009188
O6	O	0.820199	0.130880	0.026546
O7	O	1.050891	0.116832	0.038303
Cu8	Cu	0.934969	0.123201	0.019006
Cu9	Cu	0.942435	0.131683	0.192804
O10	O	0.931180	0.257130	0.074037
C11	C	0.942047	-0.039945	0.053493
C12	C	0.938998	-0.141593	0.021313
C13	C	0.793799	0.133796	0.097743
C14	C	0.705730	0.131789	0.090937
C15	C	0.667789	0.134758	0.167842
C16	C	0.585036	0.132886	0.161438
C17	C	0.540227	0.128039	0.078126
C18	C	0.578174	0.125073	0.001216
C19	C	0.660924	0.126951	0.007623
C20	C	0.292371	0.122008	0.050377
C21	C	0.209616	0.120127	0.043976
C22	C	0.216483	0.127942	0.204199
C23	C	0.299235	0.129815	0.210596
C24	C	0.337174	0.126853	0.133688
N25	N	0.455641	0.126123	0.071578
N26	N	0.421758	0.128776	0.140239
C27	C	0.946153	-0.456354	0.315987
C28	C	0.943283	-0.551869	0.285722
C29	C	0.936401	-0.559674	0.125515
C30	C	0.939274	-0.464159	0.155767
C31	C	0.944149	-0.412506	0.251004
C32	C	0.937271	-0.420311	0.090784
C33	C	0.940139	-0.324803	0.121034
C34	C	0.945012	-0.273144	0.216266
C35	C	0.947018	-0.316999	0.281254
C36	C	0.932390	-0.471964	-0.004453
C37	C	0.930386	-0.428116	-0.069436
C38	C	0.933261	-0.332608	-0.039187
C39	C	0.938133	-0.280949	0.056046
C40	C	0.931255	-0.288753	-0.104174
C41	C	0.934123	-0.193246	-0.073924
C42	C	0.941002	-0.185441	0.086296
C43	C	1.083604	0.121088	0.114069
C44	C	1.171674	0.123096	0.120881
C45	C	0.935357	0.294830	0.158319
C46	C	0.938406	0.396478	0.190504
N47	N	0.929724	0.117235	-0.103235
C48	C	0.976650	0.170656	-0.128532
C49	C	0.972694	0.166138	-0.221039
C50	C	0.921806	0.108203	-0.288245
C51	C	0.874878	0.054776	-0.262943
C52	C	0.878839	0.059290	-0.170439
C53	C	0.904719	0.088729	-0.567151
C54	C	0.900760	0.084222	-0.659660
C55	C	0.998577	0.195582	-0.617749
C56	C	1.002530	0.200095	-0.525244
C57	C	0.955605	0.146664	-0.499951
N58	N	0.917759	0.103586	-0.382802
N59	N	0.959657	0.151277	-0.405397
N60	N	0.947686	0.137643	0.315043
H61	H	0.554148	0.135303	0.224062
H62	H	1.018083	0.217838	-0.073816
H63	H	0.950994	-0.274941	0.358805
C64	C	0.853053	0.030021	-0.539319
H65	H	0.862688	0.041012	-0.474600
H66	H	0.798402	0.046180	-0.552986
H67	H	0.866192	-0.033340	-0.573186
H68	H	0.335714	0.133755	0.278435
C69	C	0.844785	0.020490	-0.733590
H70	H	0.849141	0.025465	-0.792302
H71	H	0.859258	-0.041377	-0.737159
H72	H	0.791415	0.038083	-0.716925
C73	C	0.948204	-0.168093	0.249549
H74	H	0.951400	-0.143614	0.315575
H75	H	0.993710	-0.154836	0.227869
H76	H	0.901470	-0.141019	0.225749
H77	H	0.932475	-0.157541	-0.126840
H78	H	0.704267	0.138702	0.235682
H79	H	0.950129	-0.414297	0.393538
H80	H	0.691815	0.124538	-0.055000
C81	C	0.827217	0.000534	-0.142606
H82	H	0.836869	0.011514	-0.077891
H83	H	0.772554	0.016646	-0.156262
H84	H	0.840396	-0.062815	-0.176488
C85	C	0.818902	-0.008948	-0.336867
H86	H	0.823256	-0.003979	-0.395581
H87	H	0.833372	-0.070815	-0.340431
H88	H	0.765534	0.008651	-0.320198
C89	C	0.174747	0.131212	0.288794
H90	H	0.119046	0.129407	0.273052
H91	H	0.194982	0.079782	0.306354
H92	H	0.184455	0.186482	0.339166
C93	C	0.160348	0.114548	-0.047745
H94	H	0.105640	0.113767	-0.040568
H95	H	0.167150	0.166513	-0.063385
H96	H	0.177859	0.059832	-0.095886
H97	H	1.043970	0.247268	-0.470529
H98	H	0.944908	-0.587565	0.338646
H99	H	0.541683	0.121132	-0.066616
H100	H	0.926414	-0.470184	-0.146979
C101	C	0.334093	0.118762	-0.034215
H102	H	0.295553	0.115602	-0.084749
H103	H	0.360960	0.172685	-0.018627
H104	H	0.371501	0.065984	-0.051470
C105	C	1.050197	0.254342	-0.645577
H106	H	1.040557	0.243353	-0.710295
H107	H	1.037026	0.317687	-0.611696
H108	H	1.104863	0.238219	-0.631922
H109	H	0.944978	-0.143384	0.163848
C110	C	1.024310	0.224904	-0.248862
H111	H	1.055176	0.260063	-0.195586
H112	H	1.058721	0.185734	-0.294187
H113	H	0.990872	0.265188	-0.273964
C114	C	0.925884	-0.345572	-0.208928
H115	H	0.925096	-0.305777	-0.243299
H116	H	0.970735	-0.389877	-0.222994
H117	H	0.878494	-0.376103	-0.225122
C118	C	0.931045	-0.616497	0.020761
H119	H	0.929629	-0.679659	0.012051
H120	H	0.883987	-0.595570	-0.008275
H121	H	0.976229	-0.609327	-0.006117
H122	H	0.930046	-0.549731	-0.029080
