data_functionalizedCrystal
_audit_creation_method	'MofGen! by Chris Wilmer'
_symmetry_space_group_name_H-M	'P1'
_symmetry_Int_Tables_number	1
_symmetry_cell_setting	triclinic
loop_
_symmetry_equiv_pos_as_xyz
  x,y,z
_cell_length_a	15.995350
_cell_length_b	14.853567
_cell_length_c	13.930277
_cell_angle_alpha	89.999243
_cell_angle_beta	89.996430
_cell_angle_gamma	83.563652
loop_
_atom_site_label
_atom_site_type_symbol
_atom_site_fract_x
_atom_site_fract_y
_atom_site_fract_z
O1	O	1.111124	0.116206	-0.079741
O2	O	0.867365	0.130556	-0.079760
O3	O	0.995756	-0.007858	-0.079753
O4	O	0.982734	0.254619	-0.079748
O5	O	0.995738	-0.007861	0.079909
O6	O	0.867348	0.130553	0.079902
O7	O	1.111106	0.116203	0.079921
Zn8	Zn	0.989224	0.123377	0.105261
Zn9	Zn	0.989248	0.123381	-0.105100
O10	O	0.982716	0.254616	0.079914
C11	C	0.995157	-0.041447	0.000075
C12	C	0.993389	-0.141528	0.000067
C13	C	0.836161	0.129961	0.000068
C14	C	0.743209	0.128182	0.000061
C15	C	0.909648	-0.553949	0.000078
C16	C	1.062178	-0.575436	0.000090
C17	C	1.063841	-0.481405	0.000084
C18	C	0.988406	-0.423641	0.000077
C19	C	0.911308	-0.459909	0.000076
C20	C	1.140937	-0.445129	0.000096
C21	C	1.142603	-0.351093	0.000091
C22	C	1.067167	-0.293327	0.000077
C23	C	0.990066	-0.329600	0.000075
C24	C	0.914631	-0.271837	0.000068
C25	C	0.837529	-0.308108	0.000058
C26	C	0.835872	-0.402144	0.000062
C27	C	1.068824	-0.199292	0.000074
C28	C	0.916291	-0.177796	0.000065
C29	C	0.405454	0.121795	0.000081
C30	C	0.452773	0.023220	0.000435
C31	C	0.549465	0.024999	0.000069
C32	C	0.573018	0.124963	0.000071
C33	C	0.531998	0.173586	-0.091099
C34	C	0.435359	0.171110	-0.091168
C35	C	0.435002	0.173143	0.090397
C36	C	0.531947	0.173119	0.091595
C37	C	0.667717	0.126759	0.000063
C38	C	0.310754	0.120002	0.000083
C39	C	1.142311	0.116798	0.000090
C40	C	1.235263	0.118576	0.000091
C41	C	0.983315	0.288206	0.000083
C42	C	0.985083	0.388287	0.000085
N43	N	0.989214	0.123374	0.248827
N44	N	0.989264	0.123377	-0.248667
C45	C	0.932394	0.184647	0.701093
C46	C	1.046124	0.062109	0.701069
C47	C	1.046114	0.062106	0.600573
C48	C	0.989244	0.123375	0.550333
C49	C	0.932384	0.184648	0.600588
C50	C	1.102979	0.000841	0.550310
C51	C	1.102972	0.000836	0.449808
C52	C	1.046097	0.062102	0.399566
C53	C	0.989234	0.123376	0.449828
C54	C	0.932364	0.184646	0.399587
C55	C	0.875496	0.245916	0.449847
C56	C	0.875509	0.245913	0.550346
C57	C	1.046084	0.062105	0.299067
C58	C	0.932354	0.184646	0.299082
H59	H	0.776110	-0.261065	0.000059
H60	H	0.773099	-0.431685	0.000055
N61	N	0.550827	0.270864	-0.095605
H62	H	0.586213	0.284384	-0.038453
H63	H	0.582493	0.280857	-0.156713
N64	N	0.587072	-0.025638	0.086622
H65	H	0.617208	0.016576	0.127658
H66	H	0.540800	-0.049317	0.125294
N67	N	1.107452	-0.003970	0.755263
H68	H	1.097732	-0.067962	0.737780
H69	H	1.166861	0.006521	0.737744
H70	H	0.559215	0.137625	0.159043
N71	N	0.569534	0.128863	-0.180983
H72	H	0.613100	0.077116	-0.162854
H73	H	0.523636	0.104935	-0.220050
N74	N	0.826491	-0.593062	0.000063
H75	H	0.836880	-0.661398	0.000063
H76	H	0.793471	-0.571933	0.059249
H77	H	0.417017	0.135654	-0.159322
N78	N	0.834931	-0.115490	0.000071
H79	H	0.832225	-0.075991	-0.059113
H80	H	0.785884	-0.152796	0.000105
N81	N	0.552404	0.269683	0.098900
H82	H	0.588744	0.283645	0.042731
H83	H	0.498517	0.312210	0.098124
H84	H	0.886091	0.234530	0.742017
H85	H	0.403195	0.243482	-0.095304
H86	H	1.149285	-0.049039	0.591219
N87	N	1.143537	-0.637732	0.000113
H88	H	1.130786	-0.702807	0.000119
H89	H	1.177141	-0.625996	-0.059073
H90	H	0.403325	0.245822	0.091016
N91	N	0.407754	0.130458	0.181942
H92	H	0.344389	0.133158	0.183229
H93	H	0.433306	0.065181	0.184894
H94	H	1.149275	-0.049054	0.408893
H95	H	0.886040	0.234536	0.258183
N96	N	1.222293	-0.507430	0.000092
H97	H	1.271387	-0.470186	0.000098
H98	H	1.224920	-0.546919	0.059278
N99	N	1.225757	-0.311974	0.000102
H100	H	1.273292	-0.362837	0.000108
H101	H	1.229776	-0.273431	-0.059090
N102	N	1.151972	-0.160168	0.000094
H103	H	1.199508	-0.211030	0.000105
H104	H	1.155995	-0.121624	-0.059096
N105	N	1.107417	-0.003964	0.244857
H106	H	1.143449	-0.042774	0.291934
H107	H	1.075319	-0.043845	0.203168
N108	N	0.814163	0.312003	0.395656
H109	H	0.822793	0.302704	0.324365
H110	H	0.754756	0.301549	0.413225
H111	H	0.829210	0.295798	0.591274
H112	H	0.434198	-0.016185	0.065817
H113	H	0.433141	-0.016001	-0.064587
H114	H	0.577286	-0.013477	-0.065401
