data_functionalizedCrystal
_audit_creation_method	'MofGen! by Chris Wilmer'
_symmetry_space_group_name_H-M	'P1'
_symmetry_Int_Tables_number	1
_symmetry_cell_setting	triclinic
loop_
_symmetry_equiv_pos_as_xyz
  x,y,z
_cell_length_a	10.540539
_cell_length_b	14.519709
_cell_length_c	13.596369
_cell_angle_alpha	89.999709
_cell_angle_beta	89.996161
_cell_angle_gamma	95.897182
loop_
_atom_site_label
_atom_site_type_symbol
_atom_site_fract_x
_atom_site_fract_y
_atom_site_fract_z
O1	O	0.166400	-1.224765	-0.081658
O2	O	0.666400	-0.724765	0.418342
O3	O	0.185995	-0.956394	-0.081688
O4	O	0.685995	-0.456394	0.418312
O5	O	-0.008572	-1.096702	-0.081671
O6	O	0.491428	-0.596702	0.418329
O7	O	0.360966	-1.084457	-0.081675
O8	O	0.860966	-0.584457	0.418325
O9	O	-0.008582	-1.096688	0.081912
O10	O	0.491418	-0.596688	0.581912
O11	O	0.185985	-0.956380	0.081895
O12	O	0.685985	-0.456380	0.581895
O13	O	0.166389	-1.224751	0.081924
O14	O	0.666389	-0.724751	0.581924
Zn15	Zn	0.176185	-1.090563	0.107882
Zn16	Zn	0.676185	-0.590563	0.607882
Zn17	Zn	0.176199	-1.090582	-0.107646
Zn18	Zn	0.676199	-0.590582	0.392354
O19	O	0.360956	-1.084442	0.081908
O20	O	0.860956	-0.584442	0.581908
C21	C	0.185077	-0.922022	0.000100
C22	C	0.685077	-0.422022	0.500100
C23	C	0.182340	-0.819626	0.000088
C24	C	0.682340	-0.319626	0.500088
C25	C	-0.055870	-1.095777	0.000118
C26	C	0.444130	-0.595777	0.500118
C27	C	-0.196790	-1.093029	0.000113
C28	C	0.303210	-0.593029	0.500113
C29	C	0.167308	-1.259123	0.000135
C30	C	0.667308	-0.759123	0.500135
C31	C	0.170044	-1.361519	0.000140
C32	C	0.670044	-0.861519	0.500140
C33	C	-0.379142	-0.987750	-0.000266
C34	C	0.120858	-0.487750	0.499734
C35	C	-0.232553	-0.990535	0.000102
C36	C	0.267447	-0.490535	0.500102
C37	C	-0.258957	-1.142346	0.093532
C38	C	0.241043	-0.642346	0.593532
C39	C	-0.405466	-1.138848	0.093610
C40	C	0.094534	-0.638848	0.593610
C41	C	-0.405994	-1.140949	-0.092414
C42	C	0.094006	-0.640949	0.407586
C43	C	-0.259022	-1.141893	-0.093649
C44	C	0.240978	-0.641893	0.406351
C45	C	0.408255	-1.085368	0.000116
C46	C	0.908255	-0.585368	0.500116
C47	C	0.549175	-1.088115	0.000115
C48	C	1.049175	-0.588115	0.500115
N49	N	0.176175	-1.090557	0.254974
N50	N	0.676175	-0.590557	0.754974
C51	C	0.172265	-0.444676	0.000133
C52	C	0.672265	0.055324	0.500133
C53	C	0.175063	-0.548999	0.000120
C54	C	0.675063	-0.048999	0.500120
C55	C	0.177303	-0.632148	0.000110
C56	C	0.677303	-0.132148	0.500110
C57	C	0.180101	-0.736477	0.000099
C58	C	0.680101	-0.236477	0.500099
N59	N	0.176199	-1.090595	-0.254737
N60	N	0.676199	-0.590595	0.245263
C61	C	0.176200	-1.090580	0.656265
C62	C	0.676200	-0.590580	1.156265
C63	C	0.176198	-1.090571	0.544613
C64	C	0.676198	-0.590571	1.044613
C65	C	0.176189	-1.090569	0.455623
C66	C	0.676189	-0.590569	0.955623
C67	C	0.176184	-1.090559	0.343964
C68	C	0.676184	-0.590559	0.843964
H69	H	-0.189549	-0.951729	-0.066865
H70	H	0.310451	-0.451729	0.433135
O71	O	-0.442348	-1.090545	0.186091
O72	O	0.057652	-0.590545	0.686091
H73	H	-0.355579	-1.069896	0.230335
H74	H	0.144421	-0.569896	0.730335
O75	O	-0.227955	-1.240879	-0.101115
O76	O	0.272045	-0.740879	0.398885
H77	H	-0.317726	-1.288082	-0.100193
H78	H	0.182274	-0.788082	0.399807
O79	O	-0.418608	-0.934327	0.087966
O80	O	0.081392	-0.434327	0.587966
H81	H	-0.367464	-0.863588	0.086982
H82	H	0.132536	-0.363588	0.586982
H83	H	-0.216013	-1.108076	0.163044
H84	H	0.283987	-0.608076	0.663044
O85	O	-0.230353	-1.242045	0.098160
O86	O	0.269647	-0.742045	0.598160
H87	H	-0.269165	-1.279239	0.031628
H88	H	0.230835	-0.779239	0.531628
H89	H	-0.437204	-1.107782	-0.163219
H90	H	0.062796	-0.607782	0.336781
O91	O	-0.416497	-0.934117	-0.088994
O92	O	0.083503	-0.434117	0.411006
H93	H	-0.391370	-0.970466	-0.156985
H94	H	0.108630	-0.470466	0.343015
O95	O	-0.470019	-1.236481	0.099259
O96	O	0.029981	-0.736481	0.599259
H97	H	-0.396551	-1.285982	0.101930
H98	H	0.103449	-0.785982	0.601930
O99	O	-0.204307	-1.094171	-0.185202
O100	O	0.295693	-0.594171	0.314798
H101	H	-0.133080	-1.035896	-0.164028
H102	H	0.366920	-0.535896	0.335972
O103	O	-0.469554	-1.239009	-0.093252
O104	O	0.030446	-0.739009	0.406748
H105	H	-0.532775	-1.250109	-0.028125
H106	H	-0.032775	-0.750109	0.471875
H107	H	-0.190402	-0.951446	0.067172
H108	H	0.309598	-0.451446	0.567172
