data_functionalizedCrystal
_audit_creation_method	'MofGen! by Chris Wilmer'
_symmetry_space_group_name_H-M	'P1'
_symmetry_Int_Tables_number	1
_symmetry_cell_setting	triclinic
loop_
_symmetry_equiv_pos_as_xyz
  x,y,z
_cell_length_a	10.654550
_cell_length_b	10.654550
_cell_length_c	9.730223
_cell_angle_alpha	89.999957
_cell_angle_beta	89.995747
_cell_angle_gamma	84.484931
loop_
_atom_site_label
_atom_site_type_symbol
_atom_site_fract_x
_atom_site_fract_y
_atom_site_fract_z
O1	O	-0.176399	-1.667839	0.114187
O2	O	-0.193205	-1.302361	0.114212
O3	O	-0.002062	-1.493503	0.114190
O4	O	-0.367541	-1.476697	0.114209
O5	O	-0.002057	-1.493490	-0.114390
O6	O	-0.193199	-1.302348	-0.114368
O7	O	-0.176393	-1.667827	-0.114393
Zn8	Zn	-0.184796	-1.485085	-0.150672
Zn9	Zn	-0.184802	-1.485102	0.150492
O10	O	-0.367536	-1.476684	-0.114371
C11	C	-0.191968	-1.255556	-0.000075
C12	C	-0.188276	-1.116113	-0.000065
C13	C	0.044738	-1.492263	-0.000099
C14	C	0.184181	-1.488571	-0.000096
C15	C	-0.177630	-1.714631	-0.000103
C16	C	-0.181322	-1.854074	-0.000104
C17	C	-0.414336	-1.477925	-0.000079
C18	C	-0.553779	-1.481617	-0.000072
C19	C	0.263667	-1.601112	-0.000104
C20	C	0.394688	-1.597636	-0.000087
C21	C	0.366725	-1.369066	-0.000061
C22	C	0.235706	-1.372544	-0.000068
N23	N	-0.184790	-1.485083	-0.356209
C24	C	-0.300818	-1.036628	-0.000064
C25	C	-0.297341	-0.905607	-0.000088
C26	C	-0.068772	-0.933570	-0.000109
C27	C	-0.072250	-1.064588	-0.000095
C28	C	-0.100188	-1.569750	-0.428144
C29	C	-0.100189	-1.569763	-0.572027
C30	C	-0.269404	-1.400438	-0.572026
C31	C	-0.269396	-1.400420	-0.428146
N32	N	-0.184798	-1.485114	0.356028
H33	H	0.221720	-1.695588	-0.000124
H34	H	0.019401	-1.129309	-0.000100
H35	H	-0.395294	-1.078574	-0.000049
H36	H	-0.388984	-0.840894	-0.000089
O37	O	-0.351463	-1.318032	-0.641851
C38	C	-0.423066	-1.100304	-0.685842
C39	C	-0.330041	-1.193488	-0.606708
H40	H	-0.405797	-0.999591	-0.657436
H41	H	-0.408539	-1.114753	-0.801050
H42	H	-0.523802	-1.117594	-0.657552
H43	H	-0.229268	-1.176255	-0.634882
H44	H	-0.344678	-1.179017	-0.491519
O45	O	-0.351761	-1.318296	-0.358323
C46	C	-0.569454	-1.246534	-0.314331
C47	C	-0.476326	-1.339628	-0.393465
H48	H	-0.670185	-1.263731	-0.342736
H49	H	-0.555022	-1.261061	-0.199123
H50	H	-0.552087	-1.145820	-0.342622
H51	H	-0.493638	-1.440379	-0.365289
H52	H	-0.490780	-1.324992	-0.508654
H53	H	-0.031295	-1.638687	-0.369576
O54	O	0.471720	-1.707077	-0.000159
C55	C	0.485620	-1.934153	-0.000110
C56	C	0.398238	-1.810301	-0.000063
H57	H	0.426245	-2.017642	-0.000003
H58	H	0.547648	-1.938318	-0.095787
H59	H	0.547670	-1.938181	0.095534
H60	H	0.336108	-1.806190	-0.095642
H61	H	0.336295	-1.806188	0.095677
O62	O	0.043963	-0.883577	-0.000366
C63	C	0.240422	-0.867462	-0.118751
C64	C	0.112779	-0.924132	-0.118656
H65	H	0.296107	-0.900250	-0.214363
H66	H	0.223656	-0.760160	-0.118843
H67	H	0.296037	-0.900093	-0.023047
H68	H	0.057098	-0.891598	-0.214343
H69	H	0.129634	-1.031428	-0.118492
O70	O	0.158614	-1.263130	0.000121
C71	C	0.094554	-1.068887	0.118607
C72	C	0.181952	-1.192728	0.118540
H73	H	0.113373	-1.011944	0.214353
H74	H	0.113438	-1.011747	0.023019
H75	H	-0.007928	-1.091335	0.118536
H76	H	0.284464	-1.170393	0.118659
H77	H	0.162959	-1.249831	0.214119
O78	O	-0.017963	-1.652132	-0.641692
C79	C	0.149923	-1.820029	-0.626499
C80	C	0.056844	-1.726832	-0.547435
H81	H	0.210447	-1.880431	-0.550327
H82	H	0.095176	-1.883327	-0.693809
H83	H	0.213116	-1.765253	-0.693911
H84	H	-0.006371	-1.781506	-0.479948
H85	H	0.111670	-1.663535	-0.480212
H86	H	0.408693	-1.274601	-0.000041
