data_functionalizedCrystal
_audit_creation_method	'MofGen! by Chris Wilmer'
_symmetry_space_group_name_H-M	'P1'
_symmetry_Int_Tables_number	1
_symmetry_cell_setting	triclinic
loop_
_symmetry_equiv_pos_as_xyz
  x,y,z
_cell_length_a	8.559649
_cell_length_b	11.804365
_cell_length_c	8.634740
_cell_angle_alpha	76.293997
_cell_angle_beta	85.174486
_cell_angle_gamma	100.160627
loop_
_atom_site_label
_atom_site_type_symbol
_atom_site_fract_x
_atom_site_fract_y
_atom_site_fract_z
O1	O	2.139208	0.099009	-0.085702
O2	O	1.686047	0.099013	-0.007493
O3	O	1.891176	0.099009	-0.268532
O4	O	1.934079	0.099013	0.175338
O5	O	1.837164	-0.099046	-0.199872
O6	O	1.632035	-0.099042	0.061167
O7	O	2.085196	-0.099046	-0.017042
Cu8	Cu	1.853684	-0.117128	0.028332
Cu9	Cu	1.917559	0.117095	-0.052866
O10	O	1.880067	-0.099042	0.243998
C11	C	1.600423	-0.000014	0.032764
C12	C	1.425760	-0.000012	0.050406
N13	N	1.808768	-0.281868	0.085440
C14	C	2.070339	-0.655821	-0.247155
C15	C	2.104315	-0.531160	-0.290364
C16	C	2.030430	-0.468831	-0.196417
C17	C	1.922566	-0.531175	-0.059253
C18	C	1.888596	-0.655848	-0.016033
C19	C	1.848688	-0.468858	0.034705
C20	C	1.740823	-0.531202	0.171869
C21	C	1.706858	-0.655863	0.215081
C22	C	1.780743	-0.718192	0.121134
C23	C	1.882657	-0.344185	-0.008515
C24	C	1.700915	-0.344211	0.222608
C25	C	1.666939	-0.468872	0.265816
C26	C	2.170820	-0.000017	-0.057299
C27	C	2.345486	-0.000011	-0.074944
C28	C	1.854452	-0.000016	-0.290502
C29	C	1.825475	-0.000010	-0.458256
N30	N	1.962485	0.281835	-0.109988
C31	C	1.916792	-0.000014	0.265967
C32	C	1.945771	-0.000013	0.433718
H33	H	1.970481	-0.293435	-0.120193
H34	H	1.410384	-0.000006	-0.195761
H35	H	1.700316	-0.000004	-0.494106
C36	C	2.114870	-0.000015	-0.517851
N37	N	2.242232	-0.000020	-0.481369
H38	H	1.360857	-0.000004	0.171226
C39	C	2.067796	-0.331700	-0.243961
N40	N	2.095937	-0.228408	-0.279784
H41	H	2.192138	-0.480405	-0.402040
H42	H	2.130495	-0.706578	-0.323628
H43	H	1.753075	-0.819701	0.156310
H44	H	1.619043	-0.706623	0.326777
H45	H	1.579113	-0.519648	0.377499
H46	H	1.640754	-0.293464	0.299111
