data_functionalizedCrystal
_audit_creation_method	'MofGen! by Chris Wilmer'
_symmetry_space_group_name_H-M	'P1'
_symmetry_Int_Tables_number	1
_symmetry_cell_setting	triclinic
loop_
_symmetry_equiv_pos_as_xyz
  x,y,z
_cell_length_a	16.625548
_cell_length_b	12.759399
_cell_length_c	12.759393
_cell_angle_alpha	90.030906
_cell_angle_beta	90.022725
_cell_angle_gamma	90.016184
loop_
_atom_site_label
_atom_site_type_symbol
_atom_site_fract_x
_atom_site_fract_y
_atom_site_fract_z
Zn1	Zn	-1.232739	0.418185	-0.594067
Zn2	Zn	-0.899405	0.751519	-0.260734
Zn3	Zn	-0.566072	1.084852	0.072599
Zn4	Zn	-1.232654	0.593901	-0.418386
Zn5	Zn	-0.899321	0.927234	-0.085053
Zn6	Zn	-0.565988	1.260568	0.248281
Zn7	Zn	-1.097896	0.418240	-0.418397
Zn8	Zn	-0.764562	0.751573	-0.085064
Zn9	Zn	-0.431229	1.084907	0.248270
Zn10	Zn	-1.097888	0.593826	-0.594018
Zn11	Zn	-0.764555	0.927160	-0.260684
Zn12	Zn	-0.431222	1.260493	0.072649
O13	O	-1.165294	0.506038	-0.506217
O14	O	-0.831961	0.839372	-0.172884
O15	O	-0.498628	1.172705	0.160450
O16	O	-1.345560	0.441503	-0.570779
O17	O	-1.012227	0.774836	-0.237446
O18	O	-0.678893	1.108170	0.095888
O19	O	-1.214746	0.570653	-0.271366
O20	O	-0.881413	0.903987	0.061967
O21	O	-0.548079	1.237320	0.395300
O22	O	-1.115821	0.271212	-0.441725
O23	O	-0.782488	0.604545	-0.108392
O24	O	-0.449155	0.937878	0.224942
O25	O	-1.345498	0.570601	-0.441707
O26	O	-1.012165	0.903934	-0.108373
O27	O	-0.678831	1.237267	0.224960
O28	O	-1.214890	0.271172	-0.570789
O29	O	-0.881557	0.604505	-0.237456
O30	O	-0.548223	0.937838	0.095877
O31	O	-1.115739	0.441596	-0.271374
O32	O	-0.782406	0.774929	0.061959
O33	O	-0.449073	1.108263	0.395292
O34	O	-0.985062	0.441523	-0.441677
O35	O	-0.651729	0.774857	-0.108344
O36	O	-0.318396	1.108190	0.224989
O37	O	-1.115809	0.570473	-0.741046
O38	O	-0.782476	0.903806	-0.407712
O39	O	-0.449142	1.237140	-0.074379
O40	O	-0.985057	0.570526	-0.570705
O41	O	-0.651724	0.903859	-0.237372
O42	O	-0.318390	1.237193	0.095961
O43	O	-1.214883	0.441431	-0.741082
O44	O	-0.881550	0.774764	-0.407748
O45	O	-0.548216	1.108097	-0.074415
O46	O	-1.214739	0.740912	-0.441659
O47	O	-0.881406	1.074246	-0.108325
O48	O	-0.548072	1.407579	0.225008
O49	O	-1.115727	0.740857	-0.570695
O50	O	-0.782394	1.074191	-0.237361
O51	O	-0.449060	1.407524	0.095972
C52	C	-1.165245	0.779006	-0.506193
C53	C	-0.831911	1.112339	-0.172860
C54	C	-0.498578	1.445672	0.160474
C55	C	-1.165297	0.895782	-0.506218
C56	C	-0.831964	1.229116	-0.172885
C57	C	-0.498631	1.562449	0.160449
C58	C	-0.955803	0.506023	-0.506188
C59	C	-0.622470	0.839357	-0.172854
C60	C	-0.289137	1.172690	0.160479
C61	C	-0.866182	0.506042	-0.506200
C62	C	-0.532849	0.839375	-0.172867
C63	C	-0.199516	1.172709	0.160467
C64	C	-1.375603	0.506054	-0.506247
C65	C	-1.042270	0.839387	-0.172914
C66	C	-0.708936	1.172721	0.160420
C67	C	-1.465224	0.506061	-0.506260
C68	C	-1.131891	0.839394	-0.172927
C69	C	-0.798558	1.172727	0.160407
C70	C	-0.538007	0.506049	-0.506245
C71	C	-0.204673	0.839382	-0.172912
C72	C	0.128660	1.172716	0.160422
C73	C	-0.629315	0.506044	-0.506229
C74	C	-0.295982	0.839377	-0.172896
C75	C	0.037352	1.172711	0.160438
C76	C	-0.702092	0.506046	-0.506222
C77	C	-0.368758	0.839379	-0.172888
C78	C	-0.035425	1.172713	0.160445
C79	C	-0.793406	0.506040	-0.506207
C80	C	-0.460073	0.839373	-0.172874
C81	C	-0.126739	1.172707	0.160459
C82	C	-1.165355	0.505937	-0.780250
C83	C	-0.832021	0.839271	-0.446917
C84	C	-0.498688	1.172604	-0.113584
C85	C	-1.165380	0.505894	-0.897027
C86	C	-0.832047	0.839228	-0.563694
C87	C	-0.498714	1.172561	-0.230361
C88	C	-1.165366	0.232005	-0.506264
C89	C	-0.832033	0.565338	-0.172931
C90	C	-0.498699	0.898672	0.160403
C91	C	-1.165396	0.115228	-0.506284
C92	C	-0.832063	0.448562	-0.172951
C93	C	-0.498730	0.781895	0.160383
C94	C	-1.216912	0.950638	-0.439105
C95	C	-0.883578	1.283971	-0.105772
C96	C	-0.550245	1.617305	0.227561
C97	C	-1.216964	1.060362	-0.439141
C98	C	-0.883630	1.393695	-0.105807
C99	C	-0.550297	1.727029	0.227526
C100	C	-1.113780	1.060365	-0.573404
C101	C	-0.780446	1.393698	-0.240071
C102	C	-0.447113	1.727032	0.093263
C103	C	-1.113733	0.950643	-0.573373
C104	C	-0.780399	1.283976	-0.240040
C105	C	-0.447066	1.617310	0.093293
C106	C	-1.216972	0.438691	-0.951910
C107	C	-0.883639	0.772025	-0.618576
C108	C	-0.550305	1.105358	-0.285243
C109	C	-1.216986	0.438646	-1.061634
C110	C	-0.883652	0.771979	-0.728301
C111	C	-0.550319	1.105313	-0.394967
C112	C	-1.113814	0.573016	-1.061583
C113	C	-0.780480	0.906349	-0.728250
C114	C	-0.447147	1.239683	-0.394917
C115	C	-1.113797	0.573055	-0.951861
C116	C	-0.780463	0.906389	-0.618528
C117	C	-0.447130	1.239722	-0.285194
C118	C	-1.165281	0.506063	-0.233250
C119	C	-0.831947	0.839396	0.100084
C120	C	-0.498614	1.172730	0.433417
C121	C	-1.165411	0.505810	-0.116474
C122	C	-0.832078	0.839143	0.216860
C123	C	-0.498744	1.172477	0.550193
H124	H	-1.258900	0.905973	-0.384425
H125	H	-0.925567	1.239306	-0.051092
H126	H	-0.592234	1.572640	0.282242
H127	H	-1.071779	0.627779	-0.907175
H128	H	-0.738445	0.961113	-0.573841
H129	H	-0.405112	1.294446	-0.240508
C130	C	-1.262939	1.228553	-0.379683
C131	C	-0.929606	1.561886	-0.046350
C132	C	-0.596273	1.895220	0.286984
C133	C	-1.273754	1.120660	-0.365441
C134	C	-0.940421	1.453994	-0.032107
C135	C	-0.607088	1.787327	0.301226
H136	H	-1.298023	1.265776	-0.334208
H137	H	-0.964690	1.599109	-0.000874
H138	H	-0.631356	1.932443	0.332459
H139	H	-1.208804	1.246643	-0.364179
H140	H	-0.875471	1.579977	-0.030846
H141	H	-0.542137	1.913310	0.302488
H142	H	-1.274671	1.246412	-0.450320
H143	H	-0.941337	1.579746	-0.116987
H144	H	-0.608004	1.913079	0.216346
H145	H	-1.262017	1.102800	-0.294805
H146	H	-0.928684	1.436133	0.038529
H147	H	-0.595351	1.769467	0.371862
H148	H	-1.327902	1.102563	-0.380937
H149	H	-0.994569	1.435896	-0.047604
H150	H	-0.661236	1.769229	0.285729
H151	H	-1.071796	1.105046	-0.628078
H152	H	-0.738463	1.438379	-0.294745
H153	H	-0.405130	1.771712	0.038589
H154	H	-1.071818	0.627698	-1.106242
H155	H	-0.738484	0.961032	-0.772909
H156	H	-0.405151	1.294365	-0.439576
H157	H	-1.258995	0.383921	-1.106314
H158	H	-0.925662	0.717254	-0.772981
H159	H	-0.592329	1.050587	-0.439648
H160	H	-1.258973	0.384002	-0.907267
H161	H	-0.925639	0.717335	-0.573934
H162	H	-0.592306	1.050668	-0.240601
H163	H	-1.071702	0.905976	-0.628029
H164	H	-0.738369	1.239310	-0.294696
H165	H	-0.405035	1.572643	0.038637
