data_functionalizedCrystal
_audit_creation_method	'MofGen! by Chris Wilmer'
_symmetry_space_group_name_H-M	'P1'
_symmetry_Int_Tables_number	1
_symmetry_cell_setting	triclinic
loop_
_symmetry_equiv_pos_as_xyz
  x,y,z
_cell_length_a	13.033286
_cell_length_b	18.101397
_cell_length_c	13.033109
_cell_angle_alpha	97.149218
_cell_angle_beta	90.884484
_cell_angle_gamma	82.851152
loop_
_atom_site_label
_atom_site_type_symbol
_atom_site_fract_x
_atom_site_fract_y
_atom_site_fract_z
Zn1	Zn	1.645902	-0.477115	-0.381327
Zn2	Zn	1.623948	-0.583519	-0.209365
Zn3	Zn	1.452107	-0.446216	-0.231267
Zn4	Zn	1.473901	-0.587419	-0.403155
O5	O	1.548965	-0.523567	-0.306278
O6	O	1.786889	-0.502528	-0.340214
O7	O	1.582844	-0.550742	-0.068368
O8	O	1.477882	-0.346691	-0.251204
O9	O	1.770759	-0.580703	-0.213875
O10	O	1.620262	-0.369392	-0.361452
O11	O	1.456594	-0.449867	-0.084460
O12	O	1.311099	-0.453648	-0.272370
O13	O	1.515026	-0.587350	-0.544161
O14	O	1.327111	-0.557389	-0.398655
O15	O	1.641395	-0.506310	-0.528124
O16	O	1.603976	-0.687660	-0.235041
O17	O	1.493738	-0.690525	-0.377417
C18	C	1.281794	-0.502589	-0.340259
C19	C	1.167500	-0.493635	-0.354820
C20	C	1.108551	-0.528243	-0.298704
C21	C	0.990423	-0.518989	-0.313753
C22	C	1.548870	-0.715966	-0.306240
C23	C	1.548928	-0.798286	-0.306246
C24	C	1.549072	-1.097396	-0.306323
C25	C	1.618182	-1.064199	-0.216559
C26	C	1.618483	-0.978622	-0.216730
C27	C	1.549000	-0.949004	-0.306284
C28	C	1.592143	-0.993304	-0.410940
C29	C	1.592701	-1.078953	-0.410428
C30	C	1.436726	-1.054552	-0.292395
C31	C	1.436956	-0.968699	-0.289907
C32	C	1.548959	-0.865139	-0.306268
C33	C	1.549116	-1.181262	-0.306345
C34	C	1.817179	-0.544627	-0.272166
C35	C	1.931476	-0.553602	-0.257630
C36	C	1.583090	-0.550712	-0.574498
C37	C	1.597633	-0.562279	-0.688798
C38	C	1.549090	-0.330422	-0.306336
C39	C	1.549144	-0.248115	-0.306361
C40	C	1.541650	-0.517525	-0.747718
C41	C	1.556679	-0.529479	-0.865852
C42	C	1.515031	-0.496479	-0.039095
C43	C	1.500688	-0.484719	0.075230
H44	H	1.130514	-0.457159	-0.414006
F45	F	1.581067	-0.938685	-0.114752
H46	H	0.968457	-0.590091	-0.198450
H47	H	1.701423	-0.966266	-0.224849
H48	H	1.145538	-0.564725	-0.239525
F49	F	0.942090	-0.471309	-0.391121
F50	F	1.394756	-0.929376	-0.189330
H51	H	1.589788	-1.075245	-0.138255
H52	H	1.700655	-1.093798	-0.224523
H53	H	1.675230	-1.107498	-0.423835
F54	F	1.633869	-0.591137	-0.914224
H55	H	1.441626	-0.437551	-0.887762
F56	F	1.530730	-1.108519	-0.499849
H57	H	1.656687	-0.609445	-0.725813
F58	F	1.529137	-0.969042	-0.499934
F59	F	1.698917	-0.976431	-0.429134
H60	H	1.385064	-1.076069	-0.357943
F61	F	1.388900	-1.069832	-0.195320
F62	F	1.364571	-0.941495	-0.370557
H63	H	1.482590	-0.470362	-0.710703
