data_functionalizedCrystal
_audit_creation_method	'MofGen! by Chris Wilmer'
_symmetry_space_group_name_H-M	'P1'
_symmetry_Int_Tables_number	1
_symmetry_cell_setting	triclinic
loop_
_symmetry_equiv_pos_as_xyz
  x,y,z
_cell_length_a	8.597213
_cell_length_b	10.654551
_cell_length_c	7.681481
_cell_angle_alpha	84.205011
_cell_angle_beta	88.167023
_cell_angle_gamma	84.910113
loop_
_atom_site_label
_atom_site_type_symbol
_atom_site_fract_x
_atom_site_fract_y
_atom_site_fract_z
O1	O	2.038727	0.223907	-0.455708
O2	O	1.588800	0.232830	-0.387452
O3	O	1.824108	0.045811	-0.423150
O4	O	1.803420	0.410926	-0.420010
O5	O	1.853069	0.022738	-0.134686
O6	O	1.617762	0.209757	-0.098988
O7	O	2.067689	0.200835	-0.167243
Zn8	Zn	1.847324	0.201633	-0.087316
Zn9	Zn	1.809166	0.232032	-0.467380
O10	O	1.832382	0.387854	-0.131546
C11	C	1.545670	0.219050	-0.234481
C12	C	1.374007	0.212351	-0.208440
C13	C	1.837069	-0.012550	-0.278691
C14	C	1.832522	-0.152072	-0.278014
C15	C	1.814603	-0.205044	-0.434929
C16	C	1.810319	-0.336140	-0.434271
C17	C	1.841882	-0.361281	-0.119770
C18	C	1.846154	-0.230187	-0.120428
C19	C	1.800970	-0.126930	-0.592515
C20	C	1.783052	-0.179902	-0.749443
C21	C	1.778768	-0.310998	-0.748785
C22	C	1.792403	-0.389122	-0.591199
C23	C	2.110819	0.214615	-0.320219
C24	C	2.282482	0.221315	-0.346272
C25	C	1.819420	0.446215	-0.276008
C26	C	1.823966	0.585737	-0.276698
N27	N	1.873378	0.180885	0.172066
N28	N	1.783124	0.252769	-0.726764
H29	H	1.804461	-0.020184	-0.593069
H30	H	1.788891	-0.495866	-0.590672
H31	H	1.852984	-0.424900	0.008529
H32	H	1.335450	0.234126	-0.484191
H33	H	1.321029	0.199554	-0.070510
Br34	Br	1.870478	-0.158287	0.092531
H35	H	1.764162	-0.354122	-0.876561
Br36	Br	2.026969	0.058603	0.274100
Br37	Br	1.764538	-0.073881	-0.963297
Br38	Br	1.629565	0.375067	0.171203
