data_functionalizedCrystal
_audit_creation_method	'MofGen! by Chris Wilmer'
_symmetry_space_group_name_H-M	'P1'
_symmetry_Int_Tables_number	1
_symmetry_cell_setting	triclinic
loop_
_symmetry_equiv_pos_as_xyz
  x,y,z
_cell_length_a	10.686220
_cell_length_b	19.077068
_cell_length_c	19.077174
_cell_angle_alpha	85.342852
_cell_angle_beta	91.882865
_cell_angle_gamma	83.477335
loop_
_atom_site_label
_atom_site_type_symbol
_atom_site_fract_x
_atom_site_fract_y
_atom_site_fract_z
Zn1	Zn	1.937147	0.210211	-0.323598
Zn2	Zn	1.920694	0.324100	-0.211174
Zn3	Zn	1.717997	0.215279	-0.215485
Zn4	Zn	1.717913	0.337847	-0.338048
O5	O	1.823438	0.271859	-0.272076
O6	O	2.111543	0.217445	-0.300833
O7	O	1.886955	0.306032	-0.113403
O8	O	1.753989	0.115648	-0.225583
O9	O	2.099455	0.301119	-0.218236
O10	O	1.914997	0.111925	-0.305013
O11	O	1.738035	0.226082	-0.116570
O12	O	1.541407	0.239411	-0.239595
O13	O	1.753846	0.324548	-0.434474
O14	O	1.541345	0.329462	-0.329641
O15	O	1.914915	0.230774	-0.423858
O16	O	1.886874	0.424882	-0.232247
O17	O	1.737892	0.434981	-0.325461
C18	C	1.495591	0.286479	-0.286654
C19	C	1.355337	0.292751	-0.292908
C20	C	1.810623	0.455589	-0.279968
C21	C	1.805259	0.534186	-0.283363
C22	C	1.836206	0.278629	-0.455378
C23	C	1.841648	0.281514	-0.533491
C24	C	2.152564	0.257183	-0.257442
C25	C	2.292818	0.250929	-0.251205
C26	C	1.836337	0.087410	-0.264167
C27	C	1.841834	0.008809	-0.260797
C28	C	1.880370	0.565827	-0.236461
C29	C	1.875332	0.639677	-0.239658
C30	C	1.795175	0.681884	-0.289754
C31	C	1.720060	0.650238	-0.336661
C32	C	1.725106	0.576389	-0.333467
C33	C	1.771766	0.903314	-0.304510
C34	C	1.766723	0.977168	-0.307699
C35	C	1.921997	0.966602	-0.210696
C36	C	1.927030	0.892753	-0.207504
C37	C	1.851920	0.861113	-0.254413
N38	N	1.790020	0.757370	-0.293021
N39	N	1.857083	0.785627	-0.251149
C40	C	1.766673	0.241244	-0.571836
C41	C	1.771780	0.243961	-0.645232
C42	C	1.851870	0.286945	-0.680279
C43	C	1.926848	0.327219	-0.641929
C44	C	1.921733	0.324506	-0.568535
C45	C	1.875475	0.299527	-0.899606
C46	C	1.880587	0.302236	-0.973005
C47	C	1.725517	0.218979	-0.976303
C48	C	1.720415	0.216266	-0.902907
C49	C	1.795388	0.256543	-0.864563
N50	N	1.857095	0.289721	-0.755301
N51	N	1.790155	0.253770	-0.789543
C52	C	1.810795	0.265061	-0.089482
C53	C	1.805612	0.261966	-0.011350
H54	H	1.301557	0.333361	-0.333395
C55	C	1.631886	0.696663	-0.391764
H56	H	1.639627	0.745177	-0.386944
H57	H	1.654398	0.685457	-0.437649
H58	H	1.547220	0.688003	-0.384682
H59	H	1.982795	0.357292	-0.537314
C60	C	1.968546	0.519406	-0.181356
H61	H	2.012566	0.548830	-0.153886
H62	H	1.920158	0.491652	-0.151612
H63	H	2.027337	0.489104	-0.204579
H64	H	1.936495	0.665436	-0.201464
C65	C	1.365454	0.196072	-0.196512
H66	H	1.453354	0.198905	-0.199348
H67	H	1.339897	0.205552	-0.150668
H68	H	1.347943	0.149908	-0.205791
C69	C	1.689126	0.868520	-0.356097
H70	H	1.640652	0.904236	-0.386380
H71	H	1.741439	0.838653	-0.383352
H72	H	1.634273	0.841211	-0.330377
C73	C	1.632326	0.168978	-0.864359
H74	H	1.588401	0.145385	-0.897709
H75	H	1.680769	0.134959	-0.832264
H76	H	1.573450	0.197420	-0.839329
C77	C	2.015211	0.846330	-0.152402
H78	H	2.059233	0.875752	-0.124930
H79	H	1.966821	0.818576	-0.122660
H80	H	2.074001	0.816028	-0.175626
C81	C	1.968699	0.349514	-1.011556
H82	H	2.012615	0.373115	-0.978209
H83	H	2.027564	0.321062	-1.036577
H84	H	1.920270	0.383537	-1.043659
C85	C	2.004619	1.001408	-0.159106
H86	H	1.990145	1.051434	-0.168184
H87	H	1.983761	0.988411	-0.112175
H88	H	2.090940	0.985858	-0.165141
C89	C	1.678557	1.023595	-0.362812
H90	H	1.634557	0.994174	-0.390298
H91	H	1.619767	1.053899	-0.339599
H92	H	1.726970	1.051345	-0.392550
H93	H	1.663944	0.550627	-0.371660
C94	C	1.689315	0.199660	-0.687408
H95	H	1.640898	0.173664	-0.656023
H96	H	1.634433	0.230216	-0.719644
H97	H	1.741748	0.167753	-0.712571
C98	C	1.678562	0.193968	-0.533291
H99	H	1.634631	0.170382	-0.566643
H100	H	1.726978	0.159943	-0.501190
H101	H	1.619693	0.222423	-0.508269
C102	C	1.643039	0.174687	-1.018483
H103	H	1.657543	0.182463	-1.067214
H104	H	1.663981	0.125905	-1.003600
H105	H	1.556692	0.188382	-1.010666
C106	C	1.957962	0.343819	-0.857436
H107	H	2.006404	0.369797	-0.888822
H108	H	1.905556	0.375728	-0.832269
H109	H	2.012842	0.313249	-0.825204
H110	H	1.992052	0.362221	-0.670471
