data_functionalizedCrystal
_audit_creation_method	'MofGen! by Chris Wilmer'
_symmetry_space_group_name_H-M	'P1'
_symmetry_Int_Tables_number	1
_symmetry_cell_setting	triclinic
loop_
_symmetry_equiv_pos_as_xyz
  x,y,z
_cell_length_a	14.044220
_cell_length_b	14.044220
_cell_length_c	13.101039
_cell_angle_alpha	86.332523
_cell_angle_beta	93.659868
_cell_angle_gamma	93.188878
loop_
_atom_site_label
_atom_site_type_symbol
_atom_site_fract_x
_atom_site_fract_y
_atom_site_fract_z
O1	O	-1.281968	-0.225348	-0.085109
O2	O	-1.005298	-0.217041	-0.085135
O3	O	-1.139480	-0.082860	-0.085112
O4	O	-1.147787	-0.359530	-0.085132
O5	O	-1.129854	-0.092504	0.085316
O6	O	-0.995673	-0.226686	0.085293
O7	O	-1.272343	-0.234993	0.085319
Zn8	Zn	-1.132479	-0.232371	0.112365
Zn9	Zn	-1.145162	-0.219663	-0.112181
O10	O	-1.138161	-0.369175	0.085296
C11	C	-1.131031	-0.052060	0.000102
C12	C	-1.120187	0.054083	0.000102
C13	C	-0.964864	-0.218228	0.000076
C14	C	-0.858722	-0.207383	0.000066
C15	C	-1.312777	-0.233806	0.000106
C16	C	-1.418920	-0.244651	0.000109
C17	C	-0.664383	-0.187558	0.000088
C18	C	-0.613253	-0.264472	0.000087
C19	C	-0.505116	-0.253441	0.000099
C20	C	-0.772529	-0.198587	0.000076
C21	C	-1.146610	-0.399974	0.000080
C22	C	-1.157455	-0.506116	0.000073
N23	N	-1.123831	-0.241043	0.265612
C24	C	-1.100362	0.248421	0.000086
C25	C	-1.177276	0.299551	0.000090
C26	C	-1.166245	0.407688	0.000080
C27	C	-1.111391	0.140275	0.000095
N28	N	-1.153817	-0.210984	-0.265428
C29	C	-1.112065	-0.252851	0.474653
C30	C	-1.165580	-0.199179	0.525538
C31	C	-1.159034	-0.205749	0.641855
C32	C	-1.118610	-0.246282	0.358325
H33	H	-0.650693	-0.338605	0.000077
H34	H	-1.251413	0.262115	0.000028
C35	C	-1.001438	0.298161	0.000026
C36	C	-0.932638	0.229740	0.000003
C37	C	-0.841503	0.275537	-0.000063
H38	H	-0.990464	0.333549	0.059440
H39	H	-0.997257	0.340242	-0.059432
H40	H	-0.936817	0.187676	0.059455
H41	H	-0.943581	0.194348	-0.059406
H42	H	-0.837321	0.317619	-0.059521
H43	H	-0.830538	0.310925	0.059352
H44	H	-0.794812	0.229122	-0.000088
C45	C	-1.044490	-0.320851	0.532904
C46	C	-1.069491	-0.414506	0.506873
C47	C	-1.007258	-0.477171	0.560514
H48	H	-1.048968	-0.316435	0.604470
H49	H	-0.980832	-0.304254	0.515365
H50	H	-1.133134	-0.431098	0.524418
H51	H	-1.065008	-0.418952	0.435315
H52	H	-0.943600	-0.460574	0.542975
H53	H	-1.011740	-0.472747	0.632078
H54	H	-1.024207	-0.540722	0.542852
C55	C	-1.233260	-0.131242	0.467338
C56	C	-1.281335	-0.083000	0.537148
C57	C	-1.343679	-0.020407	0.483568
H58	H	-1.278361	-0.166475	0.425479
H59	H	-1.197831	-0.086257	0.425506
H60	H	-1.316761	-0.127979	0.578962
H61	H	-1.236258	-0.047749	0.579009
H62	H	-1.308250	0.024578	0.441736
H63	H	-1.388773	-0.055647	0.441711
H64	H	-1.376299	0.012339	0.530926
H65	H	-0.626945	-0.113431	0.000099
