data_functionalizedCrystal
_audit_creation_method	'MofGen! by Chris Wilmer'
_symmetry_space_group_name_H-M	'P1'
_symmetry_Int_Tables_number	1
_symmetry_cell_setting	triclinic
loop_
_symmetry_equiv_pos_as_xyz
  x,y,z
_cell_length_a	6.817900
_cell_length_b	16.306198
_cell_length_c	16.305550
_cell_angle_alpha	95.373122
_cell_angle_beta	103.455250
_cell_angle_gamma	103.467075
loop_
_atom_site_label
_atom_site_type_symbol
_atom_site_fract_x
_atom_site_fract_y
_atom_site_fract_z
V1	V	-4.026246	-0.117432	-0.263332
O2	O	-4.013841	0.004910	-0.258012
O3	O	-3.977698	-0.232142	-0.261826
O4	O	-3.977652	-0.115947	-0.378045
O5	O	-4.013887	-0.112090	-0.140988
V6	V	-4.509919	-0.102760	-0.248662
O7	O	-4.287177	-0.149615	-0.295509
O8	O	-4.699185	-0.070577	-0.216485
O9	O	-4.335260	0.011951	-0.250168
O10	O	-4.639720	-0.225102	-0.253982
O11	O	-4.639675	-0.108102	-0.371006
O12	O	-4.335306	-0.104245	-0.133949
C13	C	-3.822669	-0.260096	-0.257748
C14	C	-3.864260	-0.353876	-0.257281
C15	C	-4.015214	-0.694623	-0.255576
C16	C	-4.219298	-0.664089	-0.260538
C17	C	-4.176361	-0.566600	-0.261349
C18	C	-3.940325	-0.525574	-0.256421
C19	C	-3.888744	-0.571230	-0.334676
C20	C	-3.933440	-0.668848	-0.334288
C21	C	-3.845294	-0.643281	-0.172946
C22	C	-3.805619	-0.545629	-0.172460
C23	C	-3.897991	-0.430035	-0.256902
C24	C	-4.057544	-0.790162	-0.255101
C25	C	-3.822610	-0.111876	-0.405996
C26	C	-3.864161	-0.111421	-0.499776
C27	C	-4.015248	-0.109658	-0.840517
C28	C	-3.779200	-0.104423	-0.799575
C29	C	-3.736007	-0.105246	-0.702082
C30	C	-3.940291	-0.110532	-0.671472
C31	C	-4.107324	-0.193848	-0.722311
C32	C	-4.149188	-0.193376	-0.819859
C33	C	-4.070003	-0.032243	-0.794476
C34	C	-4.022074	-0.031583	-0.696632
C35	C	-3.897941	-0.111029	-0.575935
C36	C	-4.057607	-0.109167	-0.936055
C37	C	-4.153632	0.039900	-0.254244
C38	C	-4.091278	0.133679	-0.254716
C39	C	-4.153691	-0.108318	-0.105994
C40	C	-4.091377	-0.108769	-0.012212
H41	H	-4.286051	-0.680462	-0.204400
N42	N	-3.910874	-0.665198	-0.093660
H43	H	-3.921275	-0.611918	-0.059904
H44	H	-3.803851	-0.689744	-0.057517
H45	H	-3.784363	-0.689223	-0.334123
N46	N	-3.643717	-0.668651	-0.167085
H47	H	-3.662268	-0.713177	-0.217674
H48	H	-3.605337	-0.692881	-0.112583
H49	H	-4.282463	-0.554520	-0.321608
N50	N	-4.101303	-0.271003	-0.860303
H51	H	-3.987300	-0.252321	-0.889831
H52	H	-4.231373	-0.307461	-0.903411
N53	N	-4.091283	-0.714151	-0.416689
H54	H	-4.131233	-0.670646	-0.452922
H55	H	-4.219809	-0.749423	-0.403567
H56	H	-4.242068	-0.035337	-0.821300
N57	N	-3.856394	-0.504897	-0.095714
H58	H	-3.966190	-0.473581	-0.115242
H59	H	-3.725819	-0.463292	-0.057710
H60	H	-3.985083	-0.558145	-0.396811
N61	N	-4.033922	-0.271504	-0.700243
H62	H	-3.892594	-0.252900	-0.657353
H63	H	-4.022699	-0.304763	-0.753643
N64	N	-3.861751	0.050049	-0.650882
H65	H	-3.915231	0.100600	-0.667314
H66	H	-3.726882	0.052898	-0.667531
N67	N	-4.217078	-0.030164	-0.668293
H68	H	-4.255358	-0.080911	-0.638621
H69	H	-4.335612	-0.032824	-0.719738
H70	H	-3.718146	-0.544677	-0.334048
H71	H	-4.323024	-0.200683	-0.847870
N72	N	-3.948948	0.051380	-0.811968
H73	H	-3.857379	0.039925	-0.849921
H74	H	-3.858813	0.087424	-0.756267
H75	H	-4.260480	-0.200729	-0.703416
H76	H	-3.631654	-0.516663	-0.163961
N77	N	-3.647958	-0.179758	-0.680699
H78	H	-3.752032	-0.234766	-0.712264
H79	H	-3.619447	-0.180534	-0.617196
H80	H	-3.609509	-0.045342	-0.666906
H81	H	-3.673061	-0.044237	-0.811785
H82	H	-3.734110	-0.160043	-0.831230
N83	N	-4.387241	-0.711379	-0.339496
H84	H	-4.331700	-0.752496	-0.372066
H85	H	-4.429858	-0.669137	-0.376886
H86	H	-4.221391	-0.535490	-0.205421
