data_functionalizedCrystal
_audit_creation_method	'MofGen! by Chris Wilmer'
_symmetry_space_group_name_H-M	'P1'
_symmetry_Int_Tables_number	1
_symmetry_cell_setting	triclinic
loop_
_symmetry_equiv_pos_as_xyz
  x,y,z
_cell_length_a	31.640172
_cell_length_b	31.640172
_cell_length_c	27.440280
_cell_angle_alpha	60.013424
_cell_angle_beta	59.991654
_cell_angle_gamma	89.999305
loop_
_atom_site_label
_atom_site_type_symbol
_atom_site_fract_x
_atom_site_fract_y
_atom_site_fract_z
Zr1	Zr	0.869830	0.407032	-0.533453
O2	O	0.890517	0.339550	-0.533466
O3	O	0.802341	0.427721	-0.533440
O4	O	0.890517	0.427706	-0.635113
O5	O	0.802344	0.339575	-0.351601
O6	O	0.960074	0.497242	-0.715305
O7	O	0.802341	0.339565	-0.431793
O8	O	0.802343	0.497270	-0.533430
O9	O	0.960074	0.339547	-0.533476
O10	O	0.899344	0.488436	-0.593291
O11	O	0.847436	0.436549	-0.473600
O12	O	0.951252	0.436531	-0.593307
O13	O	0.899344	0.384644	-0.473615
Zr14	Zr	0.980769	0.517949	-0.533453
Zr15	Zr	0.980765	0.517934	-0.661349
Zr16	Zr	0.869834	0.407047	-0.405557
Zr17	Zr	0.980766	0.407027	-0.533470
Zr18	Zr	0.869834	0.517953	-0.533437
O19	O	1.048258	0.497259	-0.533467
O20	O	1.048253	0.497238	-0.715318
O21	O	0.890523	0.339571	-0.351614
O22	O	0.960082	0.585431	-0.533441
O23	O	0.960077	0.585409	-0.715292
O24	O	0.802346	0.427743	-0.351588
O25	O	1.048256	0.585406	-0.715305
O26	O	0.960082	0.497275	-0.431793
O27	O	0.890525	0.427739	-0.351602
O28	O	1.048258	0.585415	-0.635114
O29	O	1.048253	0.427699	-0.635137
O30	O	0.802346	0.497282	-0.431770
O31	O	0.890525	0.585434	-0.533430
O32	O	0.890522	0.585422	-0.635090
O33	O	0.960077	0.339559	-0.431816
O34	O	1.048256	0.427711	-0.533477
O35	O	0.899347	0.488450	-0.473600
O36	O	0.951255	0.540337	-0.593292
O37	O	1.003163	0.488432	-0.593307
O38	O	0.951256	0.436545	-0.473615
C39	C	0.786536	0.462496	-0.533433
C40	C	0.739441	0.462498	-0.533425
C41	C	0.447438	0.424177	-0.533471
C42	C	0.270453	0.424173	-0.533483
O43	O	0.247580	0.391600	-0.533518
N44	N	0.248322	0.462487	-0.533476
C45	C	0.270443	0.500807	-0.533471
O46	O	0.247562	0.533398	-0.533473
C47	C	0.447429	0.500812	-0.533464
C48	C	0.469554	0.462493	-0.533464
C49	C	0.469563	0.385860	-0.533471
C50	C	0.513805	0.385860	-0.533464
C51	C	0.535922	0.424176	-0.533457
C52	C	0.513796	0.462492	-0.533457
C53	C	0.469552	0.539134	-0.533464
C54	C	0.513802	0.539133	-0.533464
C55	C	0.535927	0.500813	-0.533464
C56	C	0.580155	0.500808	-0.533443
N57	N	0.602285	0.462494	-0.533450
C58	C	0.580169	0.424178	-0.533457
C59	C	0.177522	0.500800	-0.533473
C60	C	0.133275	0.500799	-0.533474
C61	C	0.133288	0.424165	-0.533487
C62	C	0.177534	0.424165	-0.533481
C63	C	0.199652	0.462486	-0.533480
C64	C	0.673080	0.424180	-0.533442
C65	C	0.717324	0.424182	-0.533433
C66	C	0.717309	0.500817	-0.533423
C67	C	0.673067	0.500814	-0.533429
C68	C	0.650954	0.462493	-0.533441
O69	O	0.603058	0.533367	-0.533415
O70	O	0.603064	0.391598	-0.533470
C71	C	0.403196	0.424177	-0.533478
C72	C	0.381070	0.462493	-0.533477
C73	C	0.403187	0.500809	-0.533470
C74	C	0.336823	0.462491	-0.533478
C75	C	0.314707	0.424175	-0.533485
C76	C	0.336837	0.385861	-0.533491
C77	C	0.381079	0.385861	-0.533485
C78	C	0.381057	0.539123	-0.533464
C79	C	0.336815	0.539120	-0.533470
C80	C	0.314698	0.500804	-0.533477
C81	C	0.925295	0.323745	-0.533473
C82	C	0.925294	0.276655	-0.533480
C83	C	0.898209	-0.042464	-0.470969
C84	C	0.898211	-0.219460	-0.470957
O85	O	0.875187	-0.265380	-0.417821
N86	N	0.925306	-0.214505	-0.533434
C87	C	0.952405	-0.165297	-0.595919
O88	O	0.975455	-0.165145	-0.649060
C89	C	0.952405	0.011697	-0.595931
C90	C	0.925304	0.006739	-0.533449
C91	C	0.871111	-0.047420	-0.408492
C92	C	0.871108	-0.003174	-0.408496
C93	C	0.898204	0.046029	-0.470976
C94	C	0.925302	0.050985	-0.533453
C95	C	0.979506	0.060904	-0.658415
C96	C	0.979505	0.105153	-0.658412
C97	C	0.952404	0.100194	-0.595930
C98	C	0.952394	0.144434	-0.595936
N99	N	0.925300	0.139480	-0.533459
C100	C	0.898204	0.090277	-0.470979
C101	C	0.952402	-0.258224	-0.595909
C102	C	0.952401	-0.302472	-0.595906
C103	C	0.898208	-0.356631	-0.470944
C104	C	0.898206	-0.312382	-0.470947
C105	C	0.925307	-0.263178	-0.533431
C106	C	0.898201	0.183200	-0.470991
C107	C	0.898199	0.227453	-0.471000
C108	C	0.952393	0.281608	-0.595962
C109	C	0.952393	0.237359	-0.595954
C110	C	0.925296	0.188154	-0.533462
O111	O	0.975412	0.190370	-0.649044
O112	O	0.875167	0.090136	-0.417846
C113	C	0.898212	-0.086711	-0.470965
C114	C	0.925309	-0.081754	-0.533442
C115	C	0.952405	-0.032552	-0.595922
C116	C	0.925309	-0.126003	-0.533439
C117	C	0.898213	-0.175205	-0.470959
C118	C	0.871119	-0.180160	-0.408481
C119	C	0.871116	-0.135913	-0.408485
C120	C	0.979499	-0.027597	-0.658399
C121	C	0.979499	-0.071846	-0.658391
C122	C	0.952404	-0.121049	-0.595910
C123	C	1.064063	0.462485	-0.533474
C124	C	1.111158	0.462483	-0.533481
C125	C	0.925295	0.462472	-0.693431
C126	C	0.925293	0.462465	-0.747727
C127	C	0.925304	0.601236	-0.533433
C128	C	0.925306	0.648325	-0.533426
C129	C	0.963620	0.500812	-1.128647
C130	C	0.963620	0.500817	-1.179670
O131	O	0.996199	0.533408	-1.243631
N132	N	0.925301	0.462509	-1.161010
C133	C	0.886977	0.424196	-1.091320
O134	O	0.854383	0.391613	-1.080132
C135	C	0.886975	0.424194	-1.040298
C136	C	0.925299	0.462502	-1.058965
C137	C	1.001941	0.539118	-1.147310
C138	C	1.001941	0.539112	-1.096290
C139	C	0.963620	0.500802	-1.026608
C140	C	0.925299	0.462497	-1.007945
C141	C	0.848648	0.385884	-0.970610
C142	C	0.848649	0.385886	-0.919589
C143	C	0.886974	0.424194	-0.938255
C144	C	0.886979	0.424181	-0.887242
N145	N	0.925298	0.462489	-0.905903
C146	C	0.963618	0.500800	-0.975586
C147	C	0.886983	0.424204	-1.198472
C148	C	0.886987	0.424203	-1.249492
C149	C	0.963630	0.500825	-1.337840
C150	C	0.963628	0.500823	-1.286818
C151	C	0.925302	0.462512	-1.217133
C152	C	0.963616	0.500786	-0.868438
C153	C	0.963614	0.500776	-0.817409
C154	C	0.886970	0.424156	-0.729067
C155	C	0.886973	0.424164	-0.780090
C156	C	0.925299	0.462483	-0.849778
O157	O	0.854416	0.391608	-0.823269
O158	O	0.996203	0.533382	-0.986761
C159	C	0.925304	0.462509	-0.373475
C160	C	0.925306	0.462515	-0.319180
C161	C	0.786537	0.323769	-0.373474
C162	C	0.739442	0.276688	-0.319179
C163	C	0.925299	0.601217	-0.693411
C164	C	0.925299	0.648300	-0.747700
C165	C	0.786541	0.462515	-0.373454
C166	C	0.739447	0.462523	-0.319152
C167	C	0.925300	0.323763	-0.373495
C168	C	0.925300	0.276681	-0.319207
C169	C	1.064063	0.601212	-0.693432
C170	C	1.111158	0.648292	-0.747727
C171	C	1.064059	0.462466	-0.693452
C172	C	1.111152	0.462457	-0.747754
C173	C	0.690225	0.281673	-0.293668
C174	C	0.645970	0.237440	-0.242645
C175	C	0.650933	0.188223	-0.217137
C176	C	0.700154	0.183239	-0.242650
C177	C	0.744408	0.227472	-0.293669
C178	C	0.898202	0.643319	-0.773199
C179	C	0.898204	0.687554	-0.824216
C180	C	0.925300	0.736770	-0.849729
C181	C	0.952401	0.741750	-0.824227
C182	C	0.952402	0.697515	-0.773215
C183	C	0.744429	0.489619	-0.293646
C184	C	0.700184	0.489625	-0.242616
C185	C	0.650958	0.462538	-0.217097
C186	C	0.645977	0.435439	-0.242605
C187	C	0.690222	0.435430	-0.293631
C188	C	0.952402	0.281662	-0.293713
C189	C	0.952413	0.237427	-0.242710
C190	C	0.925318	0.188211	-0.217199
C191	C	0.898215	0.183231	-0.242698
C192	C	0.898208	0.227465	-0.293704
C193	C	1.106179	0.697501	-0.773222
C194	C	1.150425	0.741742	-0.824246
C195	C	1.199650	0.736774	-0.849769
C196	C	1.204628	0.687561	-0.824272
C197	C	1.160383	0.643321	-0.773254
C198	C	1.160369	0.489550	-0.773261
C199	C	1.204623	0.489552	-0.824290
C200	C	1.199658	0.462459	-0.849809
C201	C	1.150435	0.435366	-0.824301
C202	C	1.106183	0.435367	-0.773276
H203	H	0.735334	0.392974	-0.533428
H204	H	0.849048	-0.139957	-0.357606
Cl205	Cl	0.925292	0.792374	-0.913858
H206	H	1.033147	0.570317	-1.204048
Cl207	Cl	0.864134	0.121348	-0.392429
Cl208	Cl	1.166625	0.523615	-0.741192
Cl209	Cl	1.266496	0.523611	-0.856343
H210	H	0.974462	0.781827	-0.845007
Cl211	Cl	0.986466	0.703787	-0.741159
H212	H	1.066110	0.413303	-0.752511
Cl213	Cl	0.584089	0.401390	-0.210518
Cl214	Cl	0.838797	0.375999	-0.756620
H215	H	0.876134	0.683489	-0.844971
Cl216	Cl	0.864137	0.581453	-0.741140
Cl217	Cl	0.541606	0.587312	-0.533465
H218	H	0.784507	0.511677	-0.314416
Cl219	Cl	0.986485	0.243699	-0.210661
H220	H	0.655047	0.532012	-0.533419
Cl221	Cl	0.864144	-0.418494	-0.392398
Cl222	Cl	0.683950	0.401367	-0.325693
Cl223	Cl	0.800466	0.337725	-0.947131
Cl224	Cl	1.255296	0.462461	-0.913953
Cl225	Cl	1.011799	0.548959	-0.956038
H226	H	0.605896	0.241507	-0.221881
H227	H	0.655082	0.392977	-0.533454
H228	H	1.146362	0.781810	-0.844995
Cl229	Cl	0.706384	0.121362	-0.210577
H230	H	1.146400	0.413307	-0.845086
Cl231	Cl	0.838797	0.375996	-0.641460
Cl232	Cl	0.837056	-0.242023	-0.329936
H233	H	0.704249	0.511694	-0.221856
Cl234	Cl	0.595293	0.132620	-0.153000
Cl235	Cl	0.595340	0.462555	-0.152951
H236	H	0.686175	0.321744	-0.314423
Cl237	Cl	1.266516	0.681325	-0.856354
Cl238	Cl	0.806279	0.221197	-0.325738
H239	H	0.974462	-0.298430	-0.646785
Cl240	Cl	1.044301	0.703760	-0.741149
H241	H	0.994835	0.532017	-1.302023
Cl242	Cl	0.925331	0.132606	-0.153076
H243	H	0.974465	0.321732	-0.314474
H244	H	0.974471	-0.218161	-0.646793
Cl245	Cl	0.864153	0.121356	-0.210617
Cl246	Cl	0.205319	0.548978	-0.533466
H247	H	1.001574	0.064949	-0.709293
Cl248	Cl	1.013578	0.167008	-0.736969
Cl249	Cl	0.864129	0.221194	-0.325743
H250	H	0.974455	0.241398	-0.646832
H251	H	0.318821	0.354662	-0.533495
H252	H	1.001564	0.012463	-0.709278
H253	H	1.235674	0.772802	-0.891312
H254	H	0.531819	0.354660	-0.533473
Cl255	Cl	0.205344	0.375991	-0.533483
Cl256	Cl	0.441766	0.337684	-0.533478
Cl257	Cl	0.105477	0.375998	-0.533498
Cl258	Cl	1.166651	0.581460	-0.741203
H259	H	0.115260	0.531998	-0.533463
H260	H	0.735323	0.532012	-0.533415
H261	H	0.451545	0.570338	-0.533465
H262	H	0.399088	0.354656	-0.533483
H263	H	0.318802	0.570325	-0.533464
H264	H	0.399061	0.570326	-0.533459
H265	H	0.974452	0.321675	-0.646833
H266	H	0.876127	0.223410	-0.420118
H267	H	0.849044	-0.007218	-0.357617
Cl268	Cl	1.013567	-0.065604	-0.736947
H269	H	0.849047	-0.087481	-0.357611
H270	H	0.876137	-0.316424	-0.420069
H271	H	0.994824	0.531971	-0.832616
H272	H	1.033147	0.570307	-1.111495
H273	H	0.994832	0.532020	-1.394587
H274	H	0.855774	0.393003	-1.141730
Cl275	Cl	0.838811	0.376037	-1.226018
H276	H	0.817438	0.354689	-0.862848
