data_functionalizedCrystal
_audit_creation_method	'MofGen! by Chris Wilmer'
_symmetry_space_group_name_H-M	'P1'
_symmetry_Int_Tables_number	1
_symmetry_cell_setting	triclinic
loop_
_symmetry_equiv_pos_as_xyz
  x,y,z
_cell_length_a	12.759401
_cell_length_b	17.640280
_cell_length_c	17.637815
_cell_angle_alpha	87.852258
_cell_angle_beta	78.802612
_cell_angle_gamma	78.801088
loop_
_atom_site_label
_atom_site_type_symbol
_atom_site_fract_x
_atom_site_fract_y
_atom_site_fract_z
Zn1	Zn	1.611794	-0.389103	0.368265
Zn2	Zn	1.679969	-0.490430	0.215636
Zn3	Zn	1.463352	-0.363464	0.241294
Zn4	Zn	1.477107	-0.516047	0.342597
O5	O	1.558056	-0.439761	0.291948
O6	O	1.767860	-0.402553	0.348022
O7	O	1.674010	-0.452137	0.112768
O8	O	1.448756	-0.260602	0.279617
O9	O	1.817948	-0.476998	0.235886
O10	O	1.557816	-0.279439	0.372902
O11	O	1.514862	-0.358855	0.131619
O12	O	1.318155	-0.383695	0.254727
O13	O	1.472198	-0.520659	0.452273
O14	O	1.328260	-0.495798	0.329154
O15	O	1.571152	-0.427393	0.471131
O16	O	1.687347	-0.600091	0.210997
O17	O	1.538304	-0.618912	0.304275
C18	C	1.285086	-0.439745	0.291940
C19	C	1.168310	-0.439760	0.291951
C20	C	1.118780	-0.498193	0.330609
C21	C	1.009057	-0.498204	0.330616
C22	C	0.998406	-0.381346	0.253300
C23	C	1.108125	-0.381332	0.253298
C24	C	1.178966	-0.556621	0.369262
C25	C	1.129436	-0.615059	0.407923
C26	C	1.019713	-0.615071	0.407929
C27	C	0.959520	-0.556643	0.369275
C28	C	1.621741	-0.637057	0.252083
C29	C	1.649077	-0.721466	0.235054
C30	C	1.350762	-1.048154	0.421590
C31	C	1.376456	-1.127464	0.405565
C32	C	1.531716	-1.107820	0.308533
C33	C	1.506039	-1.028507	0.324552
C34	C	1.415560	-0.998680	0.381081
C35	C	1.570836	-0.979034	0.284044
C36	C	1.545158	-0.899727	0.300060
C37	C	1.454681	-0.869893	0.356584
C38	C	1.389881	-0.919373	0.397097
C39	C	1.661310	-1.008861	0.227512
C40	C	1.726108	-0.959388	0.187003
C41	C	1.700434	-0.880080	0.203022
C42	C	1.609958	-0.850247	0.259547
C43	C	1.765234	-0.830600	0.162510
C44	C	1.739555	-0.751293	0.178526
C45	C	1.584279	-0.770940	0.275563
C46	C	1.832091	-0.439778	0.291956
C47	C	1.948869	-0.439785	0.291959
C48	C	1.515605	-0.479743	0.490028
C49	C	1.497515	-0.496781	0.574438
C50	C	1.494147	-0.241698	0.331985
C51	C	1.466912	-0.157295	0.349046
C52	C	1.600384	-0.399879	0.094649
C53	C	1.618609	-0.382627	0.010283
C54	C	1.695623	-0.310045	0.901139
C55	C	1.678618	-0.326072	0.980452
C56	C	1.575585	-0.423181	0.960806
C57	C	1.592586	-0.407165	0.881490
C58	C	1.652604	-0.350595	0.851663
C59	C	1.549567	-0.447715	0.832014
C60	C	1.566562	-0.431697	0.752705
C61	C	1.626575	-0.375129	0.722872
C62	C	1.669599	-0.334577	0.772354
C63	C	1.489543	-0.504281	0.861843
C64	C	1.446524	-0.544831	0.812366
C65	C	1.463525	-0.528817	0.733055
C66	C	1.523538	-0.472249	0.703223
C67	C	1.420501	-0.569369	0.683573
C68	C	1.437496	-0.553351	0.604264
C69	C	1.540533	-0.456231	0.623914
H70	H	1.178450	-0.662625	0.439399
Cl71	Cl	1.470541	-0.733439	0.346636
H72	H	1.433769	-0.805315	0.369618
Cl73	Cl	1.371074	-0.615944	0.849871
H74	H	1.640411	-0.362088	0.658293
H75	H	1.799773	-0.983684	0.140975
Cl76	Cl	0.922735	-0.307902	0.204707
Cl77	Cl	1.732659	-0.275060	1.042655
Cl78	Cl	0.957447	-0.688529	0.456537
H79	H	0.870174	-0.556652	0.369291
Cl80	Cl	1.170397	-0.307872	0.204699
H81	H	1.316211	-0.895089	0.443134
Cl82	Cl	1.237024	-1.010652	0.492663
H83	H	1.371626	-0.615423	0.707871
Cl84	Cl	1.294974	-1.189657	0.456488
Cl85	Cl	1.383414	-0.604328	0.542062
Cl86	Cl	1.645458	-1.145325	0.237473
H87	H	1.268309	-0.556619	0.369260
Cl88	Cl	1.693624	-1.108568	0.207405
Cl89	Cl	1.878968	-0.868106	0.091443
Cl90	Cl	1.821007	-0.689093	0.127593
H91	H	1.589412	-0.410170	0.599627
H92	H	1.744501	-0.263984	0.876853
Cl93	Cl	1.745067	-0.263468	0.734850
H94	H	1.526716	-0.469239	0.985102
Cl95	Cl	1.468162	-0.524408	0.961548
