data_functionalizedCrystal
_audit_creation_method	'MofGen! by Chris Wilmer'
_symmetry_space_group_name_H-M	'P1'
_symmetry_Int_Tables_number	1
_symmetry_cell_setting	triclinic
loop_
_symmetry_equiv_pos_as_xyz
  x,y,z
_cell_length_a	18.215407
_cell_length_b	18.215404
_cell_length_c	18.215399
_cell_angle_alpha	89.973156
_cell_angle_beta	89.979405
_cell_angle_gamma	90.023139
loop_
_atom_site_label
_atom_site_type_symbol
_atom_site_fract_x
_atom_site_fract_y
_atom_site_fract_z
Zn1	Zn	-1.125080	0.292993	0.416136
Zn2	Zn	-1.124992	0.416065	0.293073
Zn3	Zn	-1.002013	0.293016	0.293082
Zn4	Zn	-1.001983	0.416023	0.416096
O5	O	-1.063517	0.354524	0.354597
O6	O	-1.228053	0.309327	0.399825
O7	O	-1.108655	0.399769	0.190090
O8	O	-1.018388	0.190029	0.309427
O9	O	-1.227988	0.399747	0.309410
O10	O	-1.108805	0.190012	0.399834
O11	O	-1.018302	0.309366	0.190097
O12	O	-0.899025	0.309325	0.309387
O13	O	-1.018336	0.399675	0.519086
O14	O	-0.899002	0.399697	0.399765
O15	O	-1.108775	0.309286	0.519115
O16	O	-1.108625	0.519043	0.309371
O17	O	-1.018250	0.519012	0.399755
C18	C	-0.872311	0.354510	0.354573
C19	C	-0.790512	0.354521	0.354580
C20	C	-0.602326	0.401650	0.401579
C21	C	-0.525467	0.401652	0.401587
C22	C	-0.525461	0.307402	0.307618
C23	C	-0.602318	0.307397	0.307614
C24	C	-0.640748	0.354526	0.354593
C25	C	-0.487032	0.354532	0.354605
C26	C	-0.403699	0.354533	0.354614
C27	C	-0.724087	0.354524	0.354586
C28	C	-1.063445	0.545731	0.354574
C29	C	-1.063481	0.627529	0.354589
C30	C	-0.255470	0.354537	0.354618
C31	C	-0.337269	0.354536	0.354618
C32	C	-1.110680	0.892579	0.307636
C33	C	-1.110649	0.815720	0.307616
C34	C	-1.016456	0.815729	0.401652
C35	C	-1.016484	0.892586	0.401668
C36	C	-1.063600	0.931009	0.354661
C37	C	-1.063541	0.777293	0.354625
C38	C	-1.063507	0.693959	0.354603
C39	C	-1.063633	1.014348	0.354682
C40	C	-1.063562	0.354473	0.546550
C41	C	-1.063581	0.354452	0.628349
C42	C	-1.063612	1.162571	0.354647
C43	C	-1.063660	1.080772	0.354698
C44	C	-1.063515	0.354522	0.163391
C45	C	-1.063638	0.354336	0.081592
C46	C	-1.110690	0.307342	0.816559
C47	C	-1.110699	0.307321	0.893418
C48	C	-1.016524	0.401448	0.893376
C49	C	-1.016512	0.401465	0.816519
C50	C	-1.063599	0.354413	0.778112
C51	C	-1.063620	0.354375	0.931828
C52	C	-1.063629	0.354352	1.015162
C53	C	-1.063589	0.354435	0.694773
H54	H	-1.149045	0.923860	0.269360
O55	O	-1.156454	0.778503	0.261914
C56	C	-1.198029	0.828900	0.220418
H57	H	-1.200577	0.883663	0.250578
H58	H	-1.171120	0.837136	0.164499
C59	C	-1.273220	0.731590	0.172841
C60	C	-1.276355	0.798849	0.209888
H61	H	-1.321534	0.713053	0.166342
H62	H	-1.245209	0.697636	0.200796
H63	H	-1.250793	0.738463	0.126246
H64	H	-1.298773	0.791974	0.256485
H65	H	-1.304372	0.832802	0.181940
O66	O	-0.970744	0.447263	0.779280
C67	C	-0.929178	0.488780	0.829657
H68	H	-0.959327	0.491320	0.884450
H69	H	-0.873298	0.461827	0.837825
C70	C	-0.881503	0.563991	0.732337
C71	C	-0.918536	0.567115	0.799634
H72	H	-0.874935	0.612310	0.713817
H73	H	-0.909504	0.536018	0.698397
H74	H	-0.834941	0.541526	0.739154
H75	H	-0.965100	0.589571	0.792815
H76	H	-0.890542	0.595094	0.833573
H77	H	-1.149029	0.269028	0.785291
H78	H	-0.978095	0.784437	0.439925
O79	O	-0.488062	0.447467	0.447124
C80	C	-0.443582	0.494960	0.405146
H81	H	-0.432052	0.468933	0.349421
H82	H	-0.473179	0.549486	0.396962
C83	C	-0.384752	0.540306	0.514064
C84	C	-0.370584	0.508337	0.445624
H85	H	-0.339724	0.548561	0.539033
H86	H	-0.414720	0.508311	0.542346
H87	H	-0.409418	0.585741	0.507234
H88	H	-0.345927	0.462899	0.452455
H89	H	-0.340610	0.540324	0.417344
O90	O	-0.639533	0.261595	0.261899
C91	C	-0.589134	0.219991	0.220443
H92	H	-0.534336	0.250132	0.217843
H93	H	-0.580991	0.164132	0.247490
C94	C	-0.686412	0.172263	0.145331
C95	C	-0.619108	0.209287	0.142132
H96	H	-0.704901	0.165657	0.097026
H97	H	-0.720367	0.200290	0.173262
H98	H	-0.679616	0.125718	0.167873
H99	H	-0.625906	0.255834	0.119599
H100	H	-0.585155	0.181267	0.114195
H101	H	-0.978142	0.923877	0.439963
H102	H	-1.149043	0.268990	0.924719
H103	H	-0.633613	0.440024	0.439834
O104	O	-0.488014	0.261695	0.262007
C105	C	-0.411938	0.271789	0.272098
H106	H	-0.401430	0.328616	0.296099
H107	H	-0.390160	0.228190	0.311367
C108	C	-0.385355	0.195153	0.168171
C109	C	-0.372449	0.264951	0.197645
H110	H	-0.360995	0.190932	0.122247
H111	H	-0.436609	0.188350	0.161374
H112	H	-0.367206	0.158828	0.200903
H113	H	-0.390606	0.301274	0.164917
H114	H	-0.321197	0.271761	0.204435
H115	H	-0.978189	0.439757	0.924656
