data_functionalizedCrystal
_audit_creation_method	'MofGen! by Chris Wilmer'
_symmetry_space_group_name_H-M	'P1'
_symmetry_Int_Tables_number	1
_symmetry_cell_setting	triclinic
loop_
_symmetry_equiv_pos_as_xyz
  x,y,z
_cell_length_a	13.339070
_cell_length_b	10.654550
_cell_length_c	12.376985
_cell_angle_alpha	101.390630
_cell_angle_beta	104.399301
_cell_angle_gamma	79.942888
loop_
_atom_site_label
_atom_site_type_symbol
_atom_site_fract_x
_atom_site_fract_y
_atom_site_fract_z
O1	O	1.327425	-0.648472	-0.094038
O2	O	1.032318	-0.565632	-0.094032
O3	O	1.186658	-0.426602	-0.094028
O4	O	1.173085	-0.787501	-0.094042
O5	O	1.225199	-0.391907	0.093969
O6	O	1.070859	-0.530936	0.093965
O7	O	1.365966	-0.613776	0.093958
Zn8	Zn	1.224532	-0.566847	0.123810
Zn9	Zn	1.173753	-0.612561	-0.123884
O10	O	1.211626	-0.752806	0.093955
C11	C	1.013802	-0.534291	-0.000032
C12	C	0.901208	-0.492580	-0.000030
N13	N	1.259195	-0.535651	0.292855
C14	C	1.204932	-0.362120	-0.000030
C15	C	1.201951	-0.221671	-0.000032
C16	C	0.538684	-0.816900	-0.000060
C17	C	0.644470	-0.856094	-0.000066
C18	C	0.708660	-0.765219	-0.000057
C19	C	0.667053	-0.635144	-0.000042
C20	C	0.561254	-0.595948	-0.000045
C21	C	0.731230	-0.544266	-0.000041
C22	C	0.689623	-0.414191	-0.000027
C23	C	0.583834	-0.375001	-0.000028
C24	C	0.519645	-0.465877	-0.000038
C25	C	0.837029	-0.583462	-0.000039
C26	C	0.859599	-0.362509	-0.000023
C27	C	0.753812	-0.323316	-0.000017
C28	C	1.384482	-0.645118	-0.000043
C29	C	1.497075	-0.686829	-0.000053
C30	C	1.193352	-0.817288	-0.000046
C31	C	1.196332	-0.957739	-0.000051
C32	C	1.292823	-0.172869	-0.000034
C33	C	1.290013	-0.040903	-0.000048
C34	C	1.105452	-0.006549	-0.000052
C35	C	1.108261	-0.138515	-0.000047
C36	C	1.058595	-0.716207	0.647920
C37	C	1.034315	-0.738045	0.529590
C38	C	1.090533	-0.687448	0.470400
C39	C	1.171035	-0.615010	0.529552
C40	C	1.195313	-0.593161	0.647894
C41	C	1.227250	-0.564403	0.470374
C42	C	1.307753	-0.491964	0.529526
C43	C	1.332026	-0.470120	0.647856
C44	C	1.275808	-0.520716	0.707046
C45	C	1.202973	-0.586252	0.352033
C46	C	1.339690	-0.463206	0.352007
C47	C	1.363971	-0.441368	0.470337
N48	N	1.139091	-0.643762	0.707072
H49	H	0.870895	-0.689369	-0.000046
H50	H	1.429517	-0.382386	0.518513
H51	H	1.385466	-0.422003	0.303815
H52	H	0.794795	-0.797139	-0.000064
H53	H	1.034257	-0.178248	-0.000048
H54	H	1.364010	-0.001177	-0.000053
H55	H	0.549959	-0.269088	-0.000029
H56	H	1.137428	-0.645231	0.303881
H57	H	1.070760	-0.705232	0.374050
H58	H	1.369110	-0.240572	-0.000025
H59	H	0.678338	-0.962003	-0.000087
H60	H	0.968770	-0.797022	0.481433
H61	H	0.486410	-0.890878	-0.000078
H62	H	0.433504	-0.433971	-0.000033
H63	H	1.029173	0.061172	-0.000062
H64	H	1.012824	-0.757388	0.696120
H65	H	1.295580	-0.502941	0.803400
H66	H	1.397568	-0.411124	0.696018
H67	H	0.911861	-0.288512	-0.000020
H68	H	0.719918	-0.217408	-0.000014
