data_functionalizedCrystal
_audit_creation_method	'MofGen! by Chris Wilmer'
_symmetry_space_group_name_H-M	'P1'
_symmetry_Int_Tables_number	1
_symmetry_cell_setting	triclinic
loop_
_symmetry_equiv_pos_as_xyz
  x,y,z
_cell_length_a	13.262533
_cell_length_b	13.262508
_cell_length_c	16.776229
_cell_angle_alpha	105.911687
_cell_angle_beta	105.909677
_cell_angle_gamma	80.095184
loop_
_atom_site_label
_atom_site_type_symbol
_atom_site_fract_x
_atom_site_fract_y
_atom_site_fract_z
O1	O	1.393220	0.141378	0.266420
O2	O	1.087718	0.156749	0.203517
O3	O	1.248159	-0.003690	0.203521
O4	O	1.232779	0.301816	0.266416
O5	O	1.248138	-0.003700	0.336090
O6	O	1.087697	0.156739	0.336087
O7	O	1.393198	0.141368	0.398989
Zn8	Zn	1.240444	0.149052	0.388586
Zn9	Zn	1.240472	0.149065	0.213920
O10	O	1.232757	0.301806	0.398986
C11	C	1.048601	0.155882	0.261137
C12	C	0.932078	0.153302	0.235314
C13	C	1.247288	-0.042801	0.261139
C14	C	1.244712	-0.159326	0.235315
C15	C	0.603564	0.146023	0.451584
C16	C	0.713042	0.148452	0.475850
C17	C	0.767807	0.149664	0.415718
C18	C	0.713082	0.148448	0.331316
C19	C	0.603592	0.146027	0.307049
C20	C	0.767835	0.149669	0.271183
C21	C	0.713110	0.148453	0.186781
C22	C	0.603630	0.146031	0.162518
C23	C	0.548866	0.144819	0.222650
C24	C	0.877325	0.152089	0.295450
C25	C	0.877353	0.152094	0.150915
C26	C	0.767874	0.149665	0.126649
C27	C	1.237399	-0.487825	0.451582
C28	C	1.239811	-0.378343	0.475845
C29	C	1.241037	-0.323584	0.415714
C30	C	1.239850	-0.378317	0.331317
C31	C	1.237429	-0.487808	0.307050
C32	C	1.241067	-0.323567	0.271182
C33	C	1.239880	-0.378300	0.186785
C34	C	1.237460	-0.487781	0.162522
C35	C	1.236234	-0.542540	0.222653
C36	C	1.243487	-0.214075	0.295449
C37	C	1.243517	-0.214058	0.150917
C38	C	1.241105	-0.323540	0.126655
C39	C	1.432315	0.142234	0.341368
C40	C	1.548838	0.144814	0.367185
C41	C	1.233628	0.340918	0.341365
C42	C	1.236204	0.457443	0.367185
N43	N	1.240432	0.149042	0.507793
N44	N	1.240492	0.149066	0.094713
C45	C	1.311498	0.078029	0.549523
C46	C	1.311504	0.078029	0.632976
C47	C	1.240448	0.149046	0.674700
C48	C	1.169375	0.220062	0.632964
C49	C	1.169365	0.220057	0.549510
C50	C	1.169414	0.220083	0.969524
C51	C	1.169431	0.220085	1.052984
C52	C	1.311552	0.078054	1.052990
C53	C	1.311542	0.078049	0.969536
C54	C	1.240466	0.149061	0.927805
C55	C	1.240459	0.149060	0.837315
C56	C	1.240459	0.149053	0.765191
H57	H	0.921871	0.153082	0.364172
H58	H	0.921941	0.153085	0.101951
H59	H	1.244444	-0.169521	0.364165
H60	H	0.558964	0.145043	0.500536
C61	C	0.888238	0.152325	0.442413
N62	N	0.978952	0.154323	0.462522
C63	C	1.236037	-0.548066	0.517712
N64	N	1.235008	-0.593441	0.567526
C65	C	1.389705	-0.000078	0.923643
N66	N	1.448576	-0.058929	0.889076
C67	C	1.091204	0.298173	0.678859
N68	N	1.032323	0.357007	0.713426
H69	H	0.757592	0.149441	0.544570
H70	H	0.459720	0.142831	0.202895
C71	C	1.091254	0.298207	1.098876
N72	N	1.032374	0.357045	1.133442
C73	C	0.543435	0.144695	0.069673
N74	N	0.498099	0.143685	-0.000259
C75	C	0.707662	0.148333	0.033809
N76	N	0.662308	0.147331	-0.036118
H77	H	1.242999	-0.234438	0.435474
C78	C	1.091196	0.298185	0.503611
N79	N	1.032318	0.357034	0.469041
H80	H	1.369363	0.020203	0.515558
C81	C	1.241117	-0.318145	0.568679
N82	N	1.242102	-0.272804	0.638607
H83	H	1.369423	0.020229	1.086975
H84	H	1.234276	-0.631690	0.202903
C85	C	1.236210	-0.547991	0.069693
N86	N	1.235292	-0.593343	-0.000222
C87	C	1.239791	-0.383759	0.033817
N88	N	1.238799	-0.429118	-0.036108
H89	H	1.244508	-0.169472	0.101953
C90	C	1.389656	-0.000116	0.678864
N91	N	1.448514	-0.058989	0.713422
H92	H	1.111543	0.277905	0.935554
