data_functionalizedCrystal
_audit_creation_method	'MofGen! by Chris Wilmer'
_symmetry_space_group_name_H-M	'P1'
_symmetry_Int_Tables_number	1
_symmetry_cell_setting	triclinic
loop_
_symmetry_equiv_pos_as_xyz
  x,y,z
_cell_length_a	17.699083
_cell_length_b	10.654550
_cell_length_c	9.730223
_cell_angle_alpha	90.003749
_cell_angle_beta	89.997786
_cell_angle_gamma	96.116042
loop_
_atom_site_label
_atom_site_type_symbol
_atom_site_fract_x
_atom_site_fract_y
_atom_site_fract_z
O1	O	0.106299	-1.665973	-0.114406
O2	O	0.116427	-1.300318	-0.114384
O3	O	0.001240	-1.493476	-0.114384
O4	O	0.221487	-1.472815	-0.114407
O5	O	0.001243	-1.493474	0.114196
O6	O	0.116430	-1.300315	0.114196
O7	O	0.106302	-1.665971	0.114174
Zn8	Zn	0.111366	-1.483143	0.150477
Zn9	Zn	0.111363	-1.483146	-0.150687
O10	O	0.221490	-1.472813	0.114173
C11	C	0.115685	-1.253531	-0.000091
C12	C	0.113460	-1.114127	-0.000083
C13	C	-0.026961	-1.492735	-0.000093
C14	C	-0.110993	-1.490514	-0.000093
C15	C	0.107044	-1.712757	-0.000122
C16	C	0.109269	-1.852161	-0.000140
C17	C	-0.158893	-1.603894	-0.000097
C18	C	-0.237850	-1.601799	-0.000109
C19	C	-0.268905	-1.486324	-0.000107
C20	C	-0.220998	-1.372935	-0.000106
C21	C	-0.142043	-1.375031	-0.000104
C22	C	-0.539415	-1.364481	-0.000117
C23	C	-0.618376	-1.362394	-0.000115
C24	C	-0.635222	-1.591249	-0.000122
C25	C	-0.556266	-1.593345	-0.000120
C26	C	-0.508367	-1.479957	-0.000127
C27	C	-0.422753	-1.482229	-0.000116
C28	C	-0.354517	-1.484050	-0.000107
C29	C	0.249690	-1.473554	-0.000120
C30	C	0.333722	-1.475775	-0.000130
N31	N	0.111369	-1.483150	0.356013
C32	C	0.181281	-1.033454	-0.000110
C33	C	0.179185	-0.902470	-0.000133
C34	C	0.041443	-0.932845	-0.000108
C35	C	0.043539	-1.063826	-0.000075
C36	C	0.260805	-1.015917	-0.000130
C37	C	0.258710	-0.884933	-0.000154
N38	N	0.111355	-1.483149	-0.356223
C39	C	0.060381	-1.568702	0.427940
C40	C	0.060372	-1.568699	0.571823
C41	C	0.162345	-1.397587	0.571840
C42	C	0.162349	-1.397585	0.427960
C43	C	0.001510	-1.667496	0.427931
C44	C	0.001501	-1.667493	0.571814
H45	H	-0.133615	-1.697927	-0.000091
H46	H	0.286125	-1.051130	-0.098820
H47	H	0.288672	-0.842676	-0.095824
N48	N	-0.522774	-1.717895	-0.000135
H49	H	-0.465488	-1.702018	-0.000132
H50	H	-0.540256	-1.767501	0.084598
H51	H	-0.103043	-1.282705	-0.000100
N52	N	0.025917	-1.787850	0.368788
H53	H	0.072776	-1.767391	0.310354
H54	H	0.037666	-1.845948	0.446114
N55	N	0.217329	-1.305290	0.350379
H56	H	0.249622	-1.251088	0.417793
H57	H	0.251067	-1.353240	0.290673
N58	N	-0.487760	-1.242188	-0.000121
H59	H	-0.454623	-1.237949	0.084609
H60	H	-0.454678	-1.238034	-0.084917
H61	H	-0.053472	-1.637942	0.616437
H62	H	0.203851	-1.327922	0.630435
N63	N	0.018682	-1.795025	0.623537
H64	H	0.066380	-1.784747	0.681224
H65	H	-0.025223	-1.833766	0.681141
N66	N	-0.289514	-1.724087	-0.000107
H67	H	-0.257860	-1.797557	-0.000096
H68	H	-0.322642	-1.728190	0.084631
H69	H	-0.056663	-1.647071	0.388884
H70	H	-0.643658	-1.268354	-0.000110
N71	N	-0.686890	-1.713546	-0.000119
H72	H	-0.720021	-1.717788	-0.084856
H73	H	-0.655185	-1.786947	-0.000060
N74	N	0.290542	-0.823878	0.130562
H75	H	0.345226	-0.841075	0.141807
H76	H	0.287786	-0.729788	0.125696
N77	N	-0.254484	-1.248380	-0.000104
H78	H	-0.286867	-1.242408	-0.084836
H79	H	-0.286829	-1.242481	0.084689
N80	N	-0.029614	-1.150828	-0.000017
H81	H	-0.060097	-1.134699	-0.084745
H82	H	-0.017621	-1.241404	0.000062
N83	N	-0.033968	-0.878591	-0.000089
H84	H	-0.025006	-0.783373	-0.000108
H85	H	-0.063682	-0.908135	-0.084814
N86	N	0.302010	-1.054062	0.126570
H87	H	0.318881	-0.976609	0.183094
H88	H	0.266785	-1.114532	0.183030
