data_functionalizedCrystal
_audit_creation_method	'MofGen! by Chris Wilmer'
_symmetry_space_group_name_H-M	'P1'
_symmetry_Int_Tables_number	1
_symmetry_cell_setting	triclinic
loop_
_symmetry_equiv_pos_as_xyz
  x,y,z
_cell_length_a	6.817900
_cell_length_b	11.353959
_cell_length_c	19.453030
_cell_angle_alpha	106.015894
_cell_angle_beta	101.707737
_cell_angle_gamma	107.526623
loop_
_atom_site_label
_atom_site_type_symbol
_atom_site_fract_x
_atom_site_fract_y
_atom_site_fract_z
V1	V	-4.045485	-0.182404	-0.241307
O2	O	-3.993163	0.007364	-0.213929
O3	O	-4.034844	-0.360329	-0.261569
O4	O	-3.987928	-0.180213	-0.336551
O5	O	-4.040404	-0.173999	-0.138427
V6	V	-4.525407	-0.159633	-0.226339
O7	O	-4.314643	-0.232354	-0.274138
O8	O	-4.706447	-0.109683	-0.193508
O9	O	-4.312842	0.018291	-0.206077
O10	O	-4.695127	-0.349401	-0.253717
O11	O	-4.647886	-0.168039	-0.329218
O12	O	-4.359758	-0.161824	-0.131094
C13	C	-3.889327	-0.403684	-0.263416
C14	C	-3.961852	-0.549143	-0.280618
C15	C	-3.957658	-0.595856	-0.224940
C16	C	-4.032616	-0.746195	-0.242717
C17	C	-3.829479	-0.173927	-0.359063
C18	C	-3.863953	-0.173313	-0.437070
C19	C	-3.944828	-0.292918	-0.498403
C20	C	-3.977246	-0.292355	-0.571702
C21	C	-3.928745	-0.172179	-0.583664
C22	C	-3.847869	-0.052559	-0.522319
C23	C	-3.815473	-0.053126	-0.449022
N24	N	-3.817073	-0.077956	-0.677634
N25	N	-3.847848	-0.077426	-0.747265
C26	C	-4.026352	-0.170463	-0.804501
N27	N	-4.172904	-0.264071	-0.789480
N28	N	-4.142120	-0.264605	-0.719844
C29	C	-3.963867	-0.171551	-0.663139
C30	C	-4.142386	-0.289466	-0.945315
C31	C	-4.174815	-0.288899	-1.018615
C32	C	-4.045415	-0.049098	-0.969229
C33	C	-4.013008	-0.049670	-0.895932
C34	C	-4.061488	-0.169857	-0.883980
C35	C	-4.121703	0.061640	-0.204229
C36	C	-4.028416	0.207098	-0.187032
C37	C	-4.181550	-0.168114	-0.108580
C38	C	-4.126313	-0.168722	-0.030571
H39	H	-4.091707	-0.817500	-0.303550
F40	F	-3.996451	-0.420834	-0.485688
H41	H	-3.898586	-0.524548	-0.164112
H42	H	-4.043099	-0.389755	-0.621649
H43	H	-4.240686	-0.386300	-1.068555
F44	F	-4.039092	-0.642343	-0.360128
H45	H	-4.005936	0.048751	-0.978967
F46	F	-4.193983	-0.417378	-0.932592
F47	F	-3.926866	0.077634	-0.830652
H48	H	-3.969340	-0.721599	-0.126199
H49	H	-3.808386	0.045290	-0.532062
F50	F	-3.729374	0.074181	-0.383743
