data_functionalizedCrystal
_audit_creation_method	'MofGen! by Chris Wilmer'
_symmetry_space_group_name_H-M	'P1'
_symmetry_Int_Tables_number	1
_symmetry_cell_setting	triclinic
loop_
_symmetry_equiv_pos_as_xyz
  x,y,z
_cell_length_a	6.817900
_cell_length_b	13.167930
_cell_length_c	14.125465
_cell_angle_alpha	100.455984
_cell_angle_beta	100.398878
_cell_angle_gamma	105.754568
loop_
_atom_site_label
_atom_site_type_symbol
_atom_site_fract_x
_atom_site_fract_y
_atom_site_fract_z
V1	V	-4.008991	-0.147929	-0.313183
V2	V	-3.508991	0.352071	0.186817
O3	O	-3.978545	0.008060	-0.293547
O4	O	-3.478545	0.508060	0.206453
O5	O	-3.978227	-0.294233	-0.324193
O6	O	-3.478227	0.205767	0.175807
O7	O	-3.944811	-0.145236	-0.443772
O8	O	-3.444811	0.354764	0.056228
O9	O	-4.012192	-0.141969	-0.173139
O10	O	-3.512192	0.358031	0.326861
V11	V	-4.492378	-0.129320	-0.294835
V12	V	-3.992378	0.370680	0.205165
O13	O	-4.270547	-0.188749	-0.353431
O14	O	-3.770547	0.311251	0.146569
O15	O	-4.681020	-0.088500	-0.254587
O16	O	-4.181020	0.411500	0.245413
O17	O	-4.299936	0.016984	-0.283825
O18	O	-3.799936	0.516984	0.216175
O19	O	-4.640221	-0.285309	-0.314471
O20	O	-4.140221	0.214691	0.185529
O21	O	-4.606574	-0.135281	-0.434879
O22	O	-4.106574	0.364719	0.065121
O23	O	-4.333351	-0.132013	-0.164245
O24	O	-3.833351	0.367987	0.335755
C25	C	-3.828029	-0.329912	-0.322646
C26	C	-3.328029	0.170088	0.177354
C27	C	-3.884057	-0.449515	-0.332518
C28	C	-3.384057	0.050485	0.167482
C29	C	-3.926093	-0.644076	-0.172142
C30	C	-3.426093	-0.144076	0.327858
C31	C	-3.978735	-0.756453	-0.181413
C32	C	-3.478735	-0.256453	0.318587
C33	C	-4.041999	-0.786647	-0.360331
C34	C	-3.541999	-0.286647	0.139669
C35	C	-3.989357	-0.674270	-0.351060
C36	C	-3.489357	-0.174270	0.148940
C37	C	-3.931401	-0.602988	-0.256962
C38	C	-3.431401	-0.102988	0.243038
C39	C	-3.878744	-0.490609	-0.247691
C40	C	-3.378744	0.009391	0.252309
C41	C	-3.942023	-0.520805	-0.426609
C42	C	-3.442023	-0.020805	0.073391
C43	C	-3.994665	-0.633182	-0.435880
C44	C	-3.494665	-0.133182	0.064120
C45	C	-3.785403	-0.139850	-0.475180
C46	C	-3.285403	0.360150	0.024820
C47	C	-3.814329	-0.138617	-0.582024
C48	C	-3.314329	0.361383	-0.082024
C49	C	-3.867349	-0.136355	-0.777645
C50	C	-3.367349	0.363645	-0.277645
C51	C	-4.053389	-0.140892	-0.830372
C52	C	-3.553389	0.359108	-0.330372
C53	C	-4.082892	-0.139634	-0.939222
C54	C	-3.582892	0.360366	-0.439222
C55	C	-3.837838	-0.137613	-0.668785
C56	C	-3.337838	0.362387	-0.168785
C57	C	-4.113477	0.052657	-0.285370
C58	C	-3.613477	0.552657	0.214630
C59	C	-4.036686	0.172259	-0.275504
C60	C	-3.536686	0.672259	0.224496
C61	C	-4.156103	-0.137403	-0.132833
C62	C	-3.656103	0.362597	0.367167
C63	C	-4.106415	-0.138631	-0.025987
C64	C	-3.606415	0.361369	0.474013
H65	H	-3.974410	-0.789902	-0.112343
H66	H	-3.474410	-0.289902	0.387657
H67	H	-4.089223	-0.844704	-0.436941
H68	H	-3.589223	-0.344704	0.063059
H69	H	-3.878876	-0.586036	-0.095523
H70	H	-3.378876	-0.086036	0.404477
H71	H	-4.041867	-0.691234	-0.512492
H72	H	-3.541867	-0.191234	-0.012492
Cl73	Cl	-3.948690	-0.469146	-0.533246
Cl74	Cl	-3.448690	0.030854	-0.033246
Cl75	Cl	-3.655670	-0.128910	-0.834166
Cl76	Cl	-3.155670	0.371090	-0.334166
Cl77	Cl	-3.805880	-0.400999	-0.129398
Cl78	Cl	-3.305880	0.099001	0.370602
Cl79	Cl	-4.265086	-0.148342	-0.773853
Cl80	Cl	-3.765086	0.351658	-0.273853
