data_functionalizedCrystal
_audit_creation_method	'MofGen! by Chris Wilmer'
_symmetry_space_group_name_H-M	'P1'
_symmetry_Int_Tables_number	1
_symmetry_cell_setting	triclinic
loop_
_symmetry_equiv_pos_as_xyz
  x,y,z
_cell_length_a	10.686220
_cell_length_b	16.120444
_cell_length_c	10.685910
_cell_angle_alpha	91.264872
_cell_angle_beta	89.676032
_cell_angle_gamma	97.071939
loop_
_atom_site_label
_atom_site_type_symbol
_atom_site_fract_x
_atom_site_fract_y
_atom_site_fract_z
Zn1	Zn	1.957719	-0.203331	0.579079
Zn2	Zn	1.930887	-0.354077	0.381682
Zn3	Zn	1.730395	-0.224582	0.387136
Zn4	Zn	1.737360	-0.352464	0.607333
O5	O	1.839090	-0.283614	0.488807
O6	O	2.130287	-0.215110	0.538788
O7	O	1.890147	-0.346468	0.207641
O8	O	1.768864	-0.105156	0.403055
O9	O	2.110574	-0.325862	0.393761
O10	O	1.935878	-0.089544	0.544076
O11	O	1.742846	-0.251328	0.211647
O12	O	1.555191	-0.249764	0.430452
O13	O	1.780735	-0.323113	0.778349
O14	O	1.560308	-0.343719	0.592229
O15	O	1.942632	-0.213546	0.757592
O16	O	1.896900	-0.470470	0.421157
O17	O	1.754717	-0.469285	0.586941
C18	C	1.512081	-0.298873	0.514999
C19	C	1.372187	-0.305419	0.526235
C20	C	1.823689	-0.500109	0.506548
C21	C	1.817219	-0.592719	0.514170
C22	C	1.872983	-0.804093	0.449512
C23	C	1.805431	-0.762272	0.528097
C24	C	1.811992	-0.667924	0.520346
C25	C	1.866424	-0.898449	0.457262
C26	C	2.167376	-0.268296	0.462514
C27	C	2.307271	-0.261768	0.451310
C28	C	1.865454	-0.265779	0.814552
C29	C	1.876688	-0.258179	0.953365
C30	C	1.854587	-0.066270	0.471022
C31	C	1.861191	0.026349	0.463443
C32	C	1.812820	-0.301400	1.164332
C33	C	1.801592	-0.309004	1.025519
H34	H	1.358718	-0.219388	0.378566
C35	C	1.720634	-0.809621	0.626847
C36	C	1.642370	-0.761261	0.717880
C37	C	1.557572	-0.808614	0.816621
C38	C	1.551039	-0.904328	0.824329
C39	C	1.629305	-0.952694	0.733293
C40	C	1.714103	-0.905341	0.634552
H41	H	1.647205	-0.690402	0.712176
H42	H	1.499635	-0.772810	0.884012
H43	H	1.488266	-0.939382	0.897424
H44	H	1.624471	-1.023552	0.738996
H45	H	1.772041	-0.941145	0.567161
H46	H	1.728707	-0.358334	0.981096
H47	H	1.935739	-0.769043	0.376416
C48	C	1.975167	-0.191534	1.013371
C49	C	1.986652	-0.183766	1.156852
C50	C	2.085129	-0.117122	1.216858
C51	C	2.172120	-0.058247	1.133384
C52	C	2.160638	-0.066013	0.989894
C53	C	2.062161	-0.132656	0.929888
H54	H	1.922254	-0.227351	1.218653
H55	H	2.093629	-0.111374	1.323079
H56	H	2.245019	-0.008913	1.177804
H57	H	2.225037	-0.022427	0.928094
H58	H	2.053662	-0.138405	0.823667
H59	H	1.320733	-0.347807	0.598976
