data_functionalizedCrystal
_audit_creation_method	'MofGen! by Chris Wilmer'
_symmetry_space_group_name_H-M	'P1'
_symmetry_Int_Tables_number	1
_symmetry_cell_setting	triclinic
loop_
_symmetry_equiv_pos_as_xyz
  x,y,z
_cell_length_a	18.426585
_cell_length_b	20.875641
_cell_length_c	20.875641
_cell_angle_alpha	89.846015
_cell_angle_beta	57.588487
_cell_angle_gamma	57.592486
loop_
_atom_site_label
_atom_site_type_symbol
_atom_site_fract_x
_atom_site_fract_y
_atom_site_fract_z
Zr1	Zr	0.746520	-0.063026	0.639071
O2	O	0.916275	-0.173552	0.528534
O3	O	0.589494	-0.029147	0.672956
O4	O	0.752885	-0.168261	0.667654
O5	O	0.743425	0.075301	0.538019
O6	O	0.743426	-0.164083	0.777394
O7	O	0.752884	-0.034439	0.533837
O8	O	0.451150	0.084766	0.786879
O9	O	1.035701	-0.173548	0.528534
O10	O	0.642308	-0.011576	0.769305
O11	O	0.642308	0.067203	0.690529
O12	O	0.834679	-0.096585	0.684286
O13	O	0.834679	-0.017806	0.605510
Zr14	Zr	0.716348	0.118659	0.820763
Zr15	Zr	0.731434	-0.056363	0.814093
Zr16	Zr	0.731434	0.111996	0.645741
Zr17	Zr	0.936991	-0.063019	0.639070
Zr18	Zr	0.525877	0.118653	0.820764
O19	O	0.873374	0.084780	0.786877
O20	O	0.894825	-0.164078	0.777393
O21	O	0.894824	0.075306	0.538018
O22	O	0.546594	0.229185	0.931299
O23	O	0.568044	-0.019673	0.921815
O24	O	0.568043	0.219711	0.682440
O25	O	0.719443	-0.019668	0.921815
O26	O	0.709984	0.223894	0.792180
O27	O	0.719442	0.219716	0.682440
O28	O	0.709984	0.090072	0.925997
O29	O	1.023710	-0.168252	0.667653
O30	O	0.439158	0.223885	0.792180
O31	O	0.427167	0.229181	0.931300
O32	O	0.439159	0.090063	0.925998
O33	O	1.023709	-0.034429	0.533836
O34	O	1.011718	-0.029133	0.672955
O35	O	0.628189	0.152218	0.775548
O36	O	0.628190	0.073439	0.854324
O37	O	0.820561	-0.011570	0.769305
O38	O	0.820560	0.067209	0.690528
C39	C	0.493184	0.027808	0.729918
C40	C	0.412324	0.027806	0.729918
C41	C	0.750304	0.019482	0.510991
C42	C	0.756708	0.016653	0.436689
C43	C	0.712564	0.246742	0.738260
C44	C	0.706159	0.321043	0.741092
C45	C	0.116213	0.027829	0.729914
C46	C	0.198600	0.027824	0.729913
C47	C	0.264266	0.027817	0.729915
C48	C	0.346658	0.027813	0.729916
C49	C	0.969684	0.027825	0.729916
C50	C	1.050544	0.027827	0.729916
C51	C	0.750305	-0.191109	0.721574
C52	C	0.756709	-0.265410	0.718742
C53	C	0.803563	0.311578	0.698044
C54	C	0.797540	0.381395	0.700702
C55	C	0.694110	0.460676	0.746411
C56	C	0.596699	0.470139	0.789460
C57	C	0.602724	0.400323	0.786797
C58	C	0.665323	0.674237	0.759128
C59	C	0.659305	0.744055	0.761789
C60	C	0.860147	0.655306	0.673030
C61	C	0.866162	0.585493	0.670375
C62	C	0.768751	0.594961	0.713420
N63	N	0.687950	0.532041	0.749130
N64	N	0.774913	0.523597	0.710696
C65	C	0.659304	0.059693	0.446159
C66	C	0.665328	0.057034	0.376342
C67	C	0.768758	0.011328	0.297056
C68	C	0.866169	-0.031714	0.287588
C69	C	0.860143	-0.029049	0.357404
C70	C	0.797546	-0.001397	0.083493
C71	C	0.803564	-0.004060	0.013675
C72	C	0.602722	0.084689	0.102434
C73	C	0.596706	0.087346	0.172248
C74	C	0.694117	0.044308	0.162774
N75	N	0.774918	0.008606	0.225691
N76	N	0.687956	0.047035	0.234139
C77	C	0.712564	0.036151	0.948843
C78	C	0.706160	0.038980	1.023144
C79	C	0.474314	0.036143	0.948844
C80	C	0.387050	0.038969	1.023145
C81	C	0.474313	0.246734	0.738261
C82	C	0.387049	0.321032	0.741093
C83	C	0.455444	0.255069	0.957187
C84	C	0.361775	0.332196	1.034320
C85	C	1.007425	-0.199436	0.502647
C86	C	1.101093	-0.276563	0.425513
C87	C	0.988554	0.019490	0.510990
C88	C	1.075818	0.016664	0.436688
C89	C	0.988555	-0.191101	0.721573
C90	C	1.075819	-0.265399	0.718741
C91	C	0.353440	-0.004088	1.013659
C92	C	0.271458	-0.001449	1.083466
C93	C	0.223083	0.044252	1.162759
C94	C	0.256700	0.087311	1.172244
C95	C	0.338686	0.084667	1.102437
C96	C	0.338699	0.400308	0.786802
C97	C	0.256715	0.470126	0.789460
C98	C	0.223077	0.460666	0.746413
C99	C	0.271436	0.381382	0.700698
C100	C	0.353424	0.311566	0.698036
C101	C	0.317787	0.327294	1.111671
C102	C	0.229786	0.399757	1.184152
C103	C	0.185769	0.477121	1.179281
C104	C	0.229766	0.482021	1.101923
C105	C	0.317771	0.409559	1.029443
C106	C	1.145091	-0.271661	0.348163
C107	C	1.233115	-0.344124	0.275682
C108	C	1.277136	-0.421488	0.280552
C109	C	1.233134	-0.426388	0.357911
C110	C	1.145116	-0.353926	0.430391
C111	C	1.109437	0.059714	0.446174
C112	C	1.191441	0.057056	0.376366
C113	C	1.239819	0.011352	0.297074
C114	C	1.206198	-0.031703	0.287589
C115	C	1.124201	-0.029050	0.357396
C116	C	1.109429	-0.255913	0.761797
C117	C	1.191412	-0.325717	0.759152
C118	C	1.239788	-0.405007	0.713446
C119	C	1.206170	-0.414491	0.670389
C120	C	1.124183	-0.344688	0.673039
H121	H	0.887787	0.247028	0.660826
H122	H	0.950383	-0.068924	0.223027
Br123	Br	1.271863	-0.093724	0.179971
Br124	Br	0.470528	0.413169	0.845215
Br125	Br	0.992340	0.642461	0.614613
H126	H	0.156317	0.517522	0.748588
Br127	Br	1.043794	-0.148314	0.823833
H128	H	0.876866	-0.036456	0.075767
Br129	Br	1.237049	0.115495	0.389258
Br130	Br	1.237022	-0.312826	0.817588
H131	H	0.512484	0.124548	0.236802
Br132	Br	1.006536	0.477899	0.608338
Br133	Br	1.396591	-0.519823	0.182178
Br134	Br	1.085365	-0.166677	0.341530
H135	H	0.366040	0.119734	1.110173
H136	H	0.114110	0.536118	1.238305
H137	H	1.306545	-0.461838	0.711295
Br138	Br	0.225773	0.368558	0.642282
H139	H	0.523416	0.119729	0.110138
H140	H	0.366076	0.408026	0.821856
H141	H	1.096828	-0.352423	0.637974
Br142	Br	1.078582	-0.087477	0.344507
Br143	Br	1.351101	0.007759	0.202343
H144	H	1.245570	-0.479058	0.633176
Br145	Br	0.377454	0.416226	0.924470
Br146	Br	0.377509	0.222310	1.118304
H147	H	0.217349	0.534676	0.826688
Br148	Br	1.085411	-0.360593	0.535363
H149	H	0.876856	0.373681	0.665649
H150	H	0.575076	0.808611	0.799011
Br151	Br	1.292887	-0.531389	0.364507
Br152	Br	0.533122	0.687097	0.817545
Br153	Br	0.518929	0.121719	0.553758
Br154	Br	0.456329	0.577734	0.851488
Br155	Br	0.225851	-0.059888	1.070575
H156	H	0.392782	0.247019	0.660817
H157	H	0.887793	-0.041283	-0.050886
Br158	Br	0.533130	0.115461	0.389200
Br159	Br	0.419078	-0.066120	0.906056
Br160	Br	0.992339	-0.087457	0.344551
Br161	Br	0.111816	0.047832	1.257489
H162	H	0.217301	0.124519	1.236813
Br163	Br	1.043801	0.121744	0.553777
Br164	Br	0.170092	0.393087	1.289127
Br165	Br	0.170017	0.587022	1.095326
H166	H	1.268927	-0.340118	0.212700
