data_functionalizedCrystal
_audit_creation_method	'MofGen! by Chris Wilmer'
_symmetry_space_group_name_H-M	'P1'
_symmetry_Int_Tables_number	1
_symmetry_cell_setting	triclinic
loop_
_symmetry_equiv_pos_as_xyz
  x,y,z
_cell_length_a	19.077236
_cell_length_b	18.101397
_cell_length_c	19.076919
_cell_angle_alpha	92.268541
_cell_angle_beta	89.887323
_cell_angle_gamma	92.313125
loop_
_atom_site_label
_atom_site_type_symbol
_atom_site_fract_x
_atom_site_fract_y
_atom_site_fract_z
Zn1	Zn	1.058310	-0.268826	-0.440528
Zn2	Zn	1.558310	0.231174	0.059472
Zn3	Zn	1.062958	-0.387506	-0.323016
Zn4	Zn	1.562958	0.112494	0.176984
Zn5	Zn	0.945525	-0.268438	-0.318308
Zn6	Zn	1.445525	0.231562	0.181692
Zn7	Zn	0.940778	-0.397386	-0.435753
Zn8	Zn	1.440778	0.102614	0.064247
O9	O	1.001893	-0.330539	-0.379401
O10	O	1.501893	0.169461	0.120599
O11	O	1.157260	-0.280597	-0.428908
O12	O	1.657260	0.219403	0.071092
O13	O	1.051312	-0.367414	-0.224061
O14	O	1.551312	0.132586	0.275939
O15	O	0.960528	-0.164856	-0.334549
O16	O	1.460528	0.335144	0.165451
O17	O	1.160675	-0.367791	-0.342572
O18	O	1.660675	0.132209	0.157428
O19	O	1.043390	-0.165141	-0.424344
O20	O	1.543390	0.334859	0.075656
O21	O	0.965035	-0.279935	-0.220602
O22	O	1.465035	0.220065	0.279398
O23	O	0.846562	-0.289515	-0.329919
O24	O	1.346562	0.210485	0.170081
O25	O	0.952437	-0.384630	-0.534717
O26	O	1.452437	0.115370	-0.034717
O27	O	0.843074	-0.384253	-0.416206
O28	O	1.343074	0.115747	0.083794
O29	O	1.038787	-0.290177	-0.538225
O30	O	1.538787	0.209823	-0.038225
O31	O	1.046709	-0.492450	-0.337942
O32	O	1.546709	0.007550	0.162058
O33	O	0.956944	-0.499709	-0.420770
O34	O	1.456944	0.000291	0.079230
C35	C	0.819321	-0.337915	-0.372034
C36	C	1.319321	0.162085	0.127966
C37	C	0.741216	-0.341089	-0.368899
C38	C	1.241216	0.158911	0.131101
C39	C	0.702742	-0.297261	-0.412445
C40	C	1.202742	0.202739	0.087555
C41	C	0.629353	-0.300239	-0.409493
C42	C	1.129353	0.199761	0.090507
C43	C	0.594441	-0.347050	-0.362998
C44	C	1.094441	0.152950	0.137002
C45	C	0.632920	-0.390879	-0.319447
C46	C	1.132920	0.109121	0.180553
C47	C	0.706307	-0.387896	-0.322396
C48	C	1.206307	0.112104	0.177604
C49	C	0.375148	-0.360827	-0.349348
C50	C	0.875148	0.139173	0.150652
C51	C	0.301756	-0.363808	-0.346404
C52	C	0.801756	0.136192	0.153596
C53	C	0.298194	-0.273166	-0.436449
C54	C	0.798194	0.226834	0.063551
C55	C	0.371583	-0.270191	-0.439397
C56	C	0.871583	0.229809	0.060603
C57	C	0.410056	-0.314017	-0.395843
C58	C	0.910056	0.185983	0.104157
N59	N	0.519426	-0.350097	-0.359981
N60	N	1.019426	0.149903	0.140019
N61	N	0.485069	-0.310966	-0.398857
N62	N	0.985069	0.189034	0.101143
C63	C	1.001834	-0.522950	-0.379365
C64	C	1.501834	-0.022950	0.120635
C65	C	1.001872	-0.605263	-0.379375
C66	C	1.501872	-0.105263	0.120625
C67	C	1.001959	-0.904353	-0.379443
C68	C	1.501959	-0.404353	0.120557
C69	C	1.058291	-0.868430	-0.327179
C70	C	1.558291	-0.368430	0.172821
C71	C	1.058473	-0.782810	-0.327327
C72	C	1.558473	-0.282810	0.172673
C73	C	1.001916	-0.755971	-0.379409
C74	C	1.501916	-0.255971	0.120591
C75	C	1.019012	-0.789424	-0.454283
C76	C	1.519012	-0.289424	0.045717
C77	C	1.019443	-0.875039	-0.454003
C78	C	1.519443	-0.375039	0.045997
C79	C	0.928361	-0.875038	-0.357469
C80	C	1.428361	-0.375038	0.142531
C81	C	0.928795	-0.789301	-0.355830
C82	C	1.428795	-0.289301	0.144170
C83	C	1.001890	-0.672112	-0.379394
C84	C	1.501890	-0.172112	0.120606
C85	C	1.001987	-0.988213	-0.379463
C86	C	1.501987	-0.488213	0.120537
C87	C	1.185177	-0.323135	-0.386798
C88	C	1.685177	0.176865	0.113202
C89	C	1.263282	-0.319980	-0.389950
C90	C	1.763282	0.180020	0.110050
C91	C	0.994564	-0.338549	-0.562680
C92	C	1.494564	0.161451	-0.062680
C93	C	0.991440	-0.341962	-0.640783
C94	C	1.491440	0.158038	-0.140783
C95	C	1.001970	-0.137376	-0.379454
C96	C	1.501970	0.362624	0.120546
C97	C	1.002003	-0.055061	-0.379477
C98	C	1.502003	0.444939	0.120523
C99	C	1.034929	-0.294391	-0.679303
C100	C	1.534929	0.205609	-0.179303
C101	C	1.031986	-0.297596	-0.752688
C102	C	1.531986	0.202404	-0.252688
C103	C	0.985557	-0.348375	-0.787552
C104	C	1.485557	0.151625	-0.287552
C105	C	0.942064	-0.395948	-0.749027
C106	C	1.442064	0.104052	-0.249027
C107	C	0.945004	-0.392739	-0.675642
C108	C	1.445004	0.107261	-0.175642
C109	C	0.971940	-0.363242	-1.006831
C110	C	1.471940	0.136758	-0.506831
C111	C	0.969005	-0.366448	-1.080220
C112	C	1.469005	0.133552	-0.580220
C113	C	1.058926	-0.268095	-1.083877
C114	C	1.558926	0.231905	-0.583877
C115	C	1.061864	-0.264894	-1.010491
C116	C	1.561864	0.235106	-0.510491
C117	C	1.018369	-0.312464	-0.971972
C118	C	1.518369	0.187536	-0.471972
N119	N	0.982549	-0.351654	-0.862564
N120	N	1.482549	0.148346	-0.362564
N121	N	1.021374	-0.309181	-0.896962
N122	N	1.521374	0.190819	-0.396962
C123	C	1.009234	-0.322505	-0.196837
C124	C	1.509234	0.177495	0.303163
C125	C	1.012493	-0.318878	-0.118741
C126	C	1.512493	0.181122	0.381259
H127	H	0.266862	-0.237484	-0.471907
H128	H	0.766862	0.262516	0.028093
H129	H	0.904259	-0.437291	-0.777418
H130	H	1.404259	0.062709	-0.277418
H131	H	1.073151	-0.893465	-0.472269
H132	H	1.573151	-0.393465	0.027731
H133	H	0.979108	-0.772445	-0.494400
H134	H	1.479108	-0.272445	0.005600
H135	H	0.273332	-0.401930	-0.308541
H136	H	0.773332	0.098070	0.191459
H137	H	1.072738	-0.253043	-0.650923
H138	H	1.572738	0.246957	-0.150923
O139	O	0.412552	-0.403293	-0.306975
O140	O	0.912552	0.096707	0.193025
C141	C	0.499213	-0.405597	-0.215447
C142	C	0.999213	0.094403	0.284553
C143	C	0.456882	-0.357412	-0.263379
C144	C	0.956882	0.142588	0.236621
H145	H	0.535076	-0.368523	-0.180198
H146	H	1.035076	0.131477	0.319802
H147	H	0.461689	-0.439553	-0.181662
H148	H	0.961689	0.060447	0.318338
H149	H	0.532250	-0.444398	-0.249037
H150	H	1.032250	0.055602	0.250963
H151	H	0.423843	-0.318569	-0.229844
H152	H	0.923843	0.181431	0.270156
H153	H	0.494445	-0.323506	-0.297168
H154	H	0.994445	0.176494	0.202832
H155	H	0.915850	-0.767257	-0.300715
H156	H	1.415850	-0.267257	0.199285
O157	O	1.046157	-0.755643	-0.261160
O158	O	1.546157	-0.255643	0.238840
C159	C	1.023485	-0.783867	-0.140627
C160	C	1.523485	-0.283867	0.359373
C161	C	1.037435	-0.814727	-0.215529
C162	C	1.537435	-0.314727	0.284471
H163	H	1.016415	-0.831622	-0.103717
H164	H	1.516415	-0.331622	0.396283
H165	H	1.069819	-0.746276	-0.122356
H166	H	1.569819	-0.246276	0.377644
H167	H	0.973840	-0.750849	-0.140370
H168	H	1.473840	-0.250849	0.359630
H169	H	1.087057	-0.847779	-0.215845
H170	H	1.587057	-0.347779	0.284155
H171	H	0.991063	-0.852278	-0.233770
H172	H	1.491063	-0.352278	0.266230
O173	O	0.736572	-0.251834	-0.457706
O174	O	1.236572	0.248166	0.042294
C175	C	0.754302	-0.220423	-0.578202
C176	C	1.254302	0.279577	-0.078202
C177	C	0.715933	-0.271912	-0.527021
C178	C	1.215933	0.228088	-0.027021
H179	H	0.737641	-0.236647	-0.634255
H180	H	1.237641	0.263353	-0.134255
H181	H	0.740357	-0.160730	-0.565444
H182	H	1.240357	0.339270	-0.065444
H183	H	0.813361	-0.225806	-0.572796
H184	H	1.313361	0.274194	-0.072796
H185	H	0.656866	-0.266594	-0.532399
H186	H	1.156866	0.233406	-0.032399
H187	H	0.729936	-0.331584	-0.539793
H188	H	1.229936	0.168416	-0.039793
O189	O	1.082322	-0.762085	-0.476492
O190	O	1.582322	-0.262085	0.023508
C191	C	1.168681	-0.761702	-0.568839
C192	C	1.668681	-0.261702	-0.068839
C193	C	1.096964	-0.792704	-0.543787
C194	C	1.596964	-0.292704	-0.043787
H195	H	1.180548	-0.786456	-0.623243
H196	H	1.680548	-0.286456	-0.123243
H197	H	1.167432	-0.698932	-0.571166
H198	H	1.667432	-0.198932	-0.071166
H199	H	1.211184	-0.776803	-0.530625
H200	H	1.711184	-0.276803	-0.030625
H201	H	1.054421	-0.777658	-0.581977
H202	H	1.554421	-0.277658	-0.081977
H203	H	1.098272	-0.855468	-0.541441
H204	H	1.598272	-0.355468	-0.041441
H205	H	0.912233	-0.895103	-0.303662
H206	H	1.412233	-0.395103	0.196338
H207	H	1.112574	-0.888227	-0.341798
H208	H	1.612574	-0.388227	0.158202
O209	O	0.598972	-0.436436	-0.274381
O210	O	1.098972	0.063564	0.225619
C211	C	0.516448	-0.539326	-0.261424
C212	C	1.016448	-0.039326	0.238576
C213	C	0.554858	-0.487793	-0.312539
C214	C	1.054858	0.012207	0.187461
H215	H	0.480763	-0.580851	-0.292254
H216	H	0.980763	-0.080851	0.207746
H217	H	0.556522	-0.570194	-0.230816
H218	H	1.056522	-0.070194	0.269184
H219	H	0.483588	-0.505041	-0.223349
H220	H	0.983588	-0.005041	0.276651
H221	H	0.587718	-0.522022	-0.350657
H222	H	1.087718	-0.022022	0.149343
H223	H	0.514748	-0.456921	-0.343096
H224	H	1.014748	0.043079	0.156904
O225	O	0.743575	-0.430547	-0.280071
O226	O	1.243575	0.069453	0.219929
C227	C	0.739369	-0.520736	-0.190421
C228	C	1.239369	-0.020736	0.309579
C229	C	0.697078	-0.472488	-0.238329
C230	C	1.197078	0.027512	0.261671
H231	H	0.701794	-0.554646	-0.156649
H232	H	1.201794	-0.054646	0.343351
H233	H	0.772420	-0.559571	-0.223961
H234	H	1.272420	-0.059571	0.276039
H235	H	0.775212	-0.483665	-0.155149
H236	H	1.275212	0.016335	0.344851
H237	H	0.661196	-0.509502	-0.273609
H238	H	1.161196	-0.009502	0.226391
H239	H	0.664073	-0.433647	-0.204747
H240	H	1.164073	0.066353	0.295253
H241	H	0.931195	-0.407801	-1.108604
H242	H	1.431195	0.092199	-0.608604
H243	H	1.067400	-0.258861	-0.784049
H244	H	1.567400	0.241139	-0.284049
H245	H	0.909584	-0.431469	-0.644280
H246	H	1.409584	0.068531	-0.144280
H247	H	0.598031	-0.264551	-0.444954
H248	H	1.098031	0.235449	0.055046
O249	O	1.046178	-0.890892	-0.260902
O250	O	1.546178	-0.390892	0.239098
C251	C	1.035527	-0.993878	-0.184803
C252	C	1.535527	-0.493878	0.315197
C253	C	1.049279	-0.968536	-0.259890
C254	C	1.549279	-0.468536	0.240110
H255	H	1.038014	-1.056656	-0.183963
H256	H	1.538014	-0.556656	0.316037
H257	H	1.077003	-0.967189	-0.147894
H258	H	1.577003	-0.467189	0.352106
H259	H	0.981326	-0.976547	-0.166972
H260	H	1.481326	-0.476547	0.333028
H261	H	1.103459	-0.985861	-0.277787
H262	H	1.603459	-0.485861	0.222213
H263	H	1.007760	-0.995219	-0.296755
H264	H	1.507760	-0.495219	0.203245
O265	O	0.929655	-0.409516	-0.969527
O266	O	1.429655	0.090484	-0.469527
C267	C	0.840100	-0.507352	-0.973649
C268	C	1.340100	-0.007352	-0.473649
C269	C	0.887970	-0.455006	-1.015986
C270	C	1.387970	0.044994	-0.515986
H271	H	0.806376	-0.544132	-1.011192
H272	H	1.306376	-0.044132	-0.511192
H273	H	0.873669	-0.543329	-0.940592
H274	H	1.373669	-0.043329	-0.440592
H275	H	0.804781	-0.473303	-0.937810
H276	H	1.304781	0.026697	-0.437810
H277	H	0.923298	-0.488996	-1.051863
H278	H	1.423298	0.011004	-0.551863
H279	H	0.854359	-0.419026	-1.048997
H280	H	1.354359	0.080974	-0.548997
O281	O	1.106981	-0.215498	-0.976736
O282	O	1.606981	0.284502	-0.476736
C283	C	1.195889	-0.118313	-0.988111
C284	C	1.695889	0.381687	-0.488111
C285	C	1.144813	-0.174204	-1.026427
C286	C	1.644813	0.325796	-0.526427
H287	H	1.226500	-0.084923	-1.028270
H288	H	1.726500	0.415077	-0.528270
H289	H	1.165053	-0.079341	-0.952482
H290	H	1.665053	0.420659	-0.452482
H291	H	1.233964	-0.149342	-0.955211
H292	H	1.733964	0.350658	-0.455211
H293	H	1.106726	-0.143237	-1.059365
H294	H	1.606726	0.356763	-0.559365
H295	H	1.175694	-0.213175	-1.062014
H296	H	1.675694	0.286825	-0.562014
H297	H	0.400003	-0.232075	-0.477261
H298	H	0.900003	0.267925	0.022739
H299	H	0.980048	-0.899138	-0.494448
H300	H	1.480048	-0.399138	0.005552
O301	O	1.123612	-0.756420	-0.345002
O302	O	1.623612	-0.256420	0.154998
C303	C	1.241788	-0.786047	-0.376883
C304	C	1.741788	-0.286047	0.123117
C305	C	1.168044	-0.816033	-0.356885
C306	C	1.668044	-0.316033	0.143115
H307	H	1.277736	-0.834229	-0.386482
H308	H	1.777736	-0.334229	0.113518
H309	H	1.238421	-0.753447	-0.426605
H310	H	1.738421	-0.253447	0.073395
H311	H	1.263812	-0.748254	-0.332313
H312	H	1.763812	-0.248254	0.167687
H313	H	1.145977	-0.853857	-0.401409
H314	H	1.645977	-0.353857	0.098591
H315	H	1.171456	-0.848591	-0.307142
H316	H	1.671456	-0.348591	0.192858
O317	O	0.876267	-0.767902	-0.397641
O318	O	1.376267	-0.267902	0.102359
C319	C	0.782909	-0.806541	-0.477476
C320	C	1.282909	-0.306541	0.022524
C321	C	0.842358	-0.830875	-0.430130
C322	C	1.342358	-0.330875	0.069870
H323	H	0.755486	-0.857439	-0.503767
H324	H	1.255486	-0.357439	-0.003767
H325	H	0.743437	-0.774794	-0.444403
H326	H	1.243437	-0.274794	0.055597
H327	H	0.805828	-0.769361	-0.519350
H328	H	1.305828	-0.269361	-0.019350
H329	H	0.819502	-0.868080	-0.388249
H330	H	1.319502	-0.368080	0.111751
H331	H	0.881820	-0.862581	-0.463250
H332	H	1.381820	-0.362581	0.036750
H333	H	0.886426	-0.898681	-0.395499
H334	H	1.386426	-0.398681	0.104501
H335	H	1.094336	-0.229365	-1.115247
H336	H	1.594336	0.270635	-0.615247
