data_functionalizedCrystal
_audit_creation_method	'MofGen! by Chris Wilmer'
_symmetry_space_group_name_H-M	'P1'
_symmetry_Int_Tables_number	1
_symmetry_cell_setting	triclinic
loop_
_symmetry_equiv_pos_as_xyz
  x,y,z
_cell_length_a	14.971482
_cell_length_b	10.489741
_cell_length_c	13.448316
_cell_angle_alpha	89.993703
_cell_angle_beta	89.993798
_cell_angle_gamma	84.075891
loop_
_atom_site_label
_atom_site_type_symbol
_atom_site_fract_x
_atom_site_fract_y
_atom_site_fract_z
O1	O	1.187895	0.166200	-0.082678
O2	O	1.687895	0.666200	0.417322
O3	O	0.927608	0.186110	-0.082683
O4	O	1.427608	0.686110	0.417317
O5	O	1.063674	-0.009512	-0.082675
O6	O	1.563674	0.490488	0.417325
O7	O	1.051829	0.361821	-0.082687
O8	O	1.551829	0.861821	0.417313
O9	O	1.063657	-0.009524	0.082709
O10	O	1.563657	0.490476	0.582709
O11	O	0.927591	0.186098	0.082701
O12	O	1.427591	0.686098	0.582701
O13	O	1.187878	0.166188	0.082705
O14	O	1.687878	0.666188	0.582705
Cu15	Cu	1.057733	0.176142	0.097804
Cu16	Cu	1.557733	0.676142	0.597804
Cu17	Cu	1.057753	0.176156	-0.097782
Cu18	Cu	1.557753	0.676156	0.402218
O19	O	1.051812	0.361809	0.082697
O20	O	1.551812	0.861809	0.582697
C21	C	0.894270	0.185215	0.000008
C22	C	1.394270	0.685215	0.500008
C23	C	0.794957	0.182549	0.000006
C24	C	1.294957	0.682549	0.500006
C25	C	0.748296	0.181287	0.090158
C26	C	1.248296	0.681287	0.590158
C27	C	0.654983	0.178761	0.090159
C28	C	1.154983	0.678761	0.590159
C29	C	0.608332	0.177508	0.000008
C30	C	1.108332	0.677508	0.500008
C31	C	0.655000	0.178766	-0.090151
C32	C	1.155000	0.678766	0.409849
C33	C	0.748312	0.181282	-0.090151
C34	C	1.248312	0.681282	0.409849
C35	C	0.460509	0.173525	-0.090144
C36	C	0.960509	0.673525	0.409856
C37	C	0.367190	0.171011	-0.090145
C38	C	0.867190	0.671011	0.409855
C39	C	0.367179	0.171004	0.090166
C40	C	0.867179	0.671004	0.590166
C41	C	0.460491	0.173520	0.090166
C42	C	0.960491	0.673520	0.590166
C43	C	0.507153	0.174781	0.000007
C44	C	1.007153	0.674781	0.500007
C45	C	1.062771	-0.057039	0.000017
C46	C	1.562771	0.442961	0.500017
C47	C	1.060094	-0.198637	0.000015
C48	C	1.560094	0.301363	0.500015
C49	C	0.973519	-0.265774	0.000006
C50	C	1.473519	0.234226	0.500006
C51	C	1.014408	-0.358376	0.081549
C52	C	1.514408	0.141624	0.581549
C53	C	1.014446	-0.358339	-0.081506
C54	C	1.514446	0.141661	0.418494
C55	C	1.101019	-0.289375	0.081626
C56	C	1.601019	0.210625	0.581626
C57	C	1.101044	-0.289328	-0.081503
C58	C	1.601044	0.210672	0.418497
C59	C	1.141996	-0.381904	0.000060
C60	C	1.641996	0.118096	0.500060
C61	C	1.221216	0.167083	0.000012
C62	C	1.721216	0.667083	0.500012
C63	C	1.320529	0.169749	0.000007
C64	C	1.820529	0.669749	0.500007
C65	C	1.052715	0.409337	0.000004
C66	C	1.552715	0.909337	0.500004
C67	C	1.055392	0.550935	-0.000001
C68	C	1.555392	1.050935	0.499999
N69	N	1.057725	0.176131	0.235368
N70	N	1.557725	0.676131	0.735368
N71	N	1.057768	0.176157	-0.235346
N72	N	1.557768	0.676157	0.264654
C73	C	1.117994	0.089545	0.287412
C74	C	1.617994	0.589545	0.787412
C75	C	1.118000	0.089544	0.391516
C76	C	1.618000	0.589544	0.891516
C77	C	1.057740	0.176136	0.443573
C78	C	1.557740	0.676136	0.943573
C79	C	0.997464	0.262726	0.391521
C80	C	1.497464	0.762726	0.891521
C81	C	0.997455	0.262720	0.287420
C82	C	1.497455	0.762720	0.787420
C83	C	0.997489	0.262734	0.608501
C84	C	1.497489	0.762734	1.108501
C85	C	0.997499	0.262742	0.712610
C86	C	1.497499	0.762742	1.212610
C87	C	1.118034	0.089559	0.712597
C88	C	1.618034	0.589559	1.212597
C89	C	1.118025	0.089553	0.608496
C90	C	1.618025	0.589553	1.108496
C91	C	1.057750	0.176145	0.556451
C92	C	1.557750	0.676145	1.056451
H93	H	0.786271	0.182318	0.163570
H94	H	1.286271	0.682318	0.663570
F95	F	1.182144	-0.002611	0.446905
F96	F	1.682144	0.497389	0.946905
F97	F	0.605325	0.177436	0.186112
F98	F	1.105325	0.677436	0.686112
H99	H	0.329183	0.169978	0.163577
H100	H	0.829183	0.669978	0.663577
F101	F	0.966520	-0.398363	0.171657
F102	F	1.466520	0.101637	0.671657
H103	H	0.617011	0.177736	-0.163554
H104	H	1.117011	0.677736	0.336446
F105	F	0.880480	-0.199799	0.000106
F106	F	1.380480	0.300201	0.500106
F107	F	1.182164	-0.002599	0.553092
F108	F	1.682164	0.497401	1.053092
H109	H	0.498471	0.174549	0.163576
H110	H	0.998471	0.674549	0.663576
H111	H	1.137612	-0.258972	0.150642
H112	H	1.637612	0.241028	0.650642
F113	F	1.235118	-0.447588	0.000118
F114	F	1.735118	0.052412	0.500118
H115	H	0.948404	0.333243	0.566131
H116	H	1.448404	0.833243	1.066131
H117	H	1.137652	-0.258703	-0.150445
H118	H	1.637652	0.241297	0.349555
H119	H	0.977810	-0.388873	-0.150451
H120	H	1.477810	0.111127	0.349549
F121	F	1.182137	-0.002613	0.232019
F122	F	1.682137	0.497387	0.732019
F123	F	0.317543	0.169675	-0.186094
F124	F	0.817543	0.669675	0.313906
F125	F	0.797973	0.182620	-0.186103
F126	F	1.297973	0.682620	0.313897
H127	H	0.498498	0.174552	-0.163562
H128	H	0.998498	0.674552	0.336438
H129	H	1.167111	0.019053	0.754977
H130	H	1.667111	0.519053	1.254977
F131	F	0.933360	0.354904	0.768006
F132	F	1.433360	0.854904	1.268006
F133	F	0.933325	0.354879	0.446925
F134	F	1.433325	0.854879	0.946925
H135	H	0.948376	0.333225	0.245047
H136	H	1.448376	0.833225	0.745047
