data_functionalizedCrystal
_audit_creation_method	'MofGen! by Chris Wilmer'
_symmetry_space_group_name_H-M	'P1'
_symmetry_Int_Tables_number	1
_symmetry_cell_setting	triclinic
loop_
_symmetry_equiv_pos_as_xyz
  x,y,z
_cell_length_a	14.908783
_cell_length_b	12.827892
_cell_length_c	12.827885
_cell_angle_alpha	89.970214
_cell_angle_beta	86.678907
_cell_angle_gamma	93.306471
loop_
_atom_site_label
_atom_site_type_symbol
_atom_site_fract_x
_atom_site_fract_y
_atom_site_fract_z
Zn1	Zn	1.379294	-0.323906	-0.683226
Zn2	Zn	1.379203	-0.498689	-0.508480
Zn3	Zn	1.228422	-0.334028	-0.498395
Zn4	Zn	1.228409	-0.508678	-0.673081
O5	O	1.303832	-0.416325	-0.590795
O6	O	1.505530	-0.338674	-0.668512
O7	O	1.359168	-0.476902	-0.360904
O8	O	1.248479	-0.186446	-0.522938
O9	O	1.505463	-0.467087	-0.540127
O10	O	1.359324	-0.179009	-0.658733
O11	O	1.248390	-0.355927	-0.353494
O12	O	1.102172	-0.365613	-0.513101
O13	O	1.248457	-0.484111	-0.820665
O14	O	1.102163	-0.493927	-0.641442
O15	O	1.359312	-0.348360	-0.828118
O16	O	1.359156	-0.646253	-0.530289
O17	O	1.248369	-0.653592	-0.651221
C18	C	1.303776	-0.687839	-0.590773
C19	C	1.303834	-0.803988	-0.590804
C20	C	1.069433	-0.431953	-0.575077
C21	C	0.969156	-0.438664	-0.568377
C22	C	1.358720	-0.852102	-0.531038
C23	C	1.358782	-0.972149	-0.531069
C24	C	0.780793	-0.317740	-0.689679
C25	C	0.686574	-0.324042	-0.683388
C26	C	0.686497	-0.457563	-0.549498
C27	C	0.780716	-0.451261	-0.555789
C28	C	0.827861	-0.381349	-0.625884
C29	C	0.922082	-0.375053	-0.632180
C30	C	0.922003	-0.508567	-0.498285
C31	C	0.827784	-0.514869	-0.491994
C32	C	1.539146	-0.400637	-0.606576
C33	C	1.639423	-0.393952	-0.613301
C34	C	1.303893	-0.416221	-0.863370
C35	C	1.303920	-0.416176	-0.979525
C36	C	1.303913	-0.143750	-0.590842
C37	C	1.303948	-0.027594	-0.590862
C38	C	1.358780	-0.348989	-1.034998
C39	C	1.358808	-0.348942	-1.155050
C40	C	1.303823	-0.416350	-0.319285
C41	C	1.303971	-0.416089	-0.203142
H42	H	1.405669	-0.804423	-0.479851
H43	H	1.257004	-0.473617	-1.155457
H44	H	1.256967	-0.473656	-1.020910
Cl45	Cl	1.431330	-1.036048	-0.452059
Cl46	Cl	1.231387	-0.963703	-0.669862
H47	H	1.256893	-0.851669	-0.641999
H48	H	0.960466	-0.318128	-0.689255
H49	H	0.819179	-0.260820	-0.746757
Cl50	Cl	1.431243	-0.260206	-0.971110
H51	H	0.648096	-0.514470	-0.492419
Cl52	Cl	0.627406	-0.244072	-0.763589
H53	H	0.789386	-0.571786	-0.434922
Cl54	Cl	0.981179	-0.588544	-0.418087
H55	H	1.405779	-0.291424	-1.202742
