data_functionalizedCrystal
_audit_creation_method	'MofGen! by Chris Wilmer'
_symmetry_space_group_name_H-M	'P1'
_symmetry_Int_Tables_number	1
_symmetry_cell_setting	triclinic
loop_
_symmetry_equiv_pos_as_xyz
  x,y,z
_cell_length_a	8.497374
_cell_length_b	19.077105
_cell_length_c	19.077068
_cell_angle_alpha	89.884684
_cell_angle_beta	92.284024
_cell_angle_gamma	92.300019
loop_
_atom_site_label
_atom_site_type_symbol
_atom_site_fract_x
_atom_site_fract_y
_atom_site_fract_z
Zn1	Zn	1.016648	1.062860	0.323110
Zn2	Zn	0.762970	1.058079	0.440586
Zn3	Zn	0.741875	0.945387	0.318369
Zn4	Zn	1.015701	0.940595	0.435851
O5	O	0.884299	1.001730	0.379479
O6	O	0.992222	1.160556	0.342659
O7	O	0.539410	1.043135	0.424372
O8	O	0.769893	0.964977	0.220667
O9	O	0.805846	1.157044	0.428968
O10	O	0.971767	1.051283	0.224150
O11	O	0.523911	0.960341	0.334579
O12	O	0.768974	0.846421	0.329988
O13	O	1.236588	0.956809	0.420898
O14	O	0.970152	0.842901	0.416301
O15	O	1.237285	1.046636	0.338067
O16	O	0.804927	1.038488	0.538289
O17	O	0.990607	0.952173	0.534810
C18	C	0.867172	0.819165	0.372117
C19	C	0.859884	0.741062	0.368984
C20	C	0.899989	0.994311	0.562047
C21	C	0.906761	0.991201	0.640152
C22	C	0.961050	0.702552	0.412519
C23	C	0.954209	0.629166	0.409566
C24	C	0.846193	0.594292	0.363082
C25	C	0.745023	0.632808	0.319542
C26	C	0.751873	0.706192	0.322492
C27	C	0.814499	0.375011	0.349430
C28	C	0.807654	0.301621	0.346485
C29	C	1.016843	0.297985	0.436509
C30	C	1.023677	0.371371	0.439457
C31	C	0.922512	0.409880	0.395915
N32	N	0.839195	0.519280	0.360064
N33	N	0.929519	0.484891	0.398930
C34	C	1.295778	1.001725	0.379480
C35	C	1.474423	1.001726	0.379487
C36	C	0.901493	1.185009	0.386870
C37	C	0.908820	1.263111	0.390020
C38	C	0.868583	1.009198	0.196199
C39	C	0.861886	1.012380	0.118097
C40	C	0.813355	1.034715	0.678636
C41	C	0.819734	1.031794	0.752025
C42	C	0.919510	0.985356	0.786928
C43	C	1.012926	0.941841	0.748439
C44	C	1.006555	0.944765	0.675052
C45	C	0.948930	0.971789	1.006221
C46	C	0.955291	0.968866	1.079613
C47	C	0.762100	1.058821	1.083193
C48	C	0.755730	1.061739	1.009804
C49	C	0.849152	1.018226	0.971322
N50	N	0.926029	0.982368	0.861943
N51	N	0.842641	1.021218	0.896309
H52	H	1.036588	0.597814	0.445018
H53	H	0.674484	1.099553	0.981387
H54	H	1.082618	0.909333	0.643719
H55	H	0.743672	1.067227	0.783355
C56	C	1.065066	0.917790	1.118013
C57	C	0.995827	0.860635	1.166305
C58	C	1.105595	0.809563	1.204707
C59	C	1.284602	0.815645	1.194818
C60	C	1.353851	0.872802	1.146524
C61	C	1.244082	0.923874	1.108122
H62	H	0.863307	0.856131	1.173627
H63	H	1.054332	0.767252	1.240458
H64	H	1.365859	0.777839	1.223246
H65	H	1.486371	0.877307	1.139202
H66	H	1.295346	0.966185	1.072371
C67	C	0.659354	1.106689	1.125525
C68	C	0.666356	1.103479	1.206248
C69	C	0.563611	1.151351	1.248579
C70	C	0.453864	1.202433	1.210187
C71	C	0.446857	1.205645	1.129459
C72	C	0.549602	1.157773	1.087128
H73	H	0.747602	1.065663	1.234672
H74	H	0.568799	1.148973	1.308339
H75	H	0.377805	1.237871	1.241523
H76	H	0.365611	1.243461	1.101035
H77	H	0.544415	1.160151	1.027368
H78	H	0.732099	1.072527	0.650222
C79	C	1.051685	0.923919	0.963901
C80	C	0.973693	0.870783	0.911287
C81	C	1.076454	0.822909	0.868965
C82	C	1.257208	0.828172	0.879258
C83	C	1.335210	0.881310	0.931874
C84	C	1.232449	0.929184	0.974196
H85	H	0.839879	0.866886	0.903665
H86	H	1.018710	0.783573	0.830015
H87	H	1.333278	0.792732	0.847929
H88	H	1.469024	0.885207	0.939496
H89	H	1.290193	0.968521	1.013146
H90	H	1.094174	0.904033	0.776864
H91	H	1.049004	0.730941	0.450374
H92	H	0.719703	0.273229	0.308624
C93	C	1.142509	0.409726	0.490589
C94	C	1.135271	0.396389	0.570056
C95	C	1.254102	0.434742	0.621190
C96	C	1.380171	0.486434	0.592857
C97	C	1.387414	0.499774	0.513387
C98	C	1.268583	0.461420	0.462252
H99	H	1.041942	0.358121	0.591033
H100	H	1.248740	0.424867	0.680020
H101	H	1.468137	0.514825	0.630710
H102	H	1.480743	0.538041	0.492409
H103	H	1.273945	0.471296	0.403423
C104	C	1.128133	0.255624	0.484397
C105	C	1.120615	0.174904	0.481155
C106	C	1.231916	0.132544	0.529042
C107	C	1.350734	0.170903	0.580172
C108	C	1.358257	0.251628	0.583416
C109	C	1.246956	0.293988	0.535528
H110	H	1.032654	0.146504	0.443304
H111	H	1.226347	0.072786	0.526640
H112	H	1.433126	0.139546	0.615621
H113	H	1.446217	0.280028	0.621267
H114	H	1.252525	0.353746	0.537930
H115	H	0.732112	0.406356	0.313981
H116	H	0.657081	0.604407	0.281691
H117	H	0.669500	0.737547	0.287037
