data_functionalizedCrystal
_audit_creation_method	'MofGen! by Chris Wilmer'
_symmetry_space_group_name_H-M	'P1'
_symmetry_Int_Tables_number	1
_symmetry_cell_setting	triclinic
loop_
_symmetry_equiv_pos_as_xyz
  x,y,z
_cell_length_a	16.109301
_cell_length_b	10.654545
_cell_length_c	14.586319
_cell_angle_alpha	89.998553
_cell_angle_beta	89.999213
_cell_angle_gamma	83.973454
loop_
_atom_site_label
_atom_site_type_symbol
_atom_site_fract_x
_atom_site_fract_y
_atom_site_fract_z
O1	O	1.104091	0.161419	-0.076178
O2	O	1.604091	0.661419	0.423822
O3	O	0.862149	0.181507	-0.076192
O4	O	1.362149	0.681507	0.423808
O5	O	0.988682	-0.011352	-0.076184
O6	O	1.488682	0.488648	0.423816
O7	O	0.977558	0.354278	-0.076186
O8	O	1.477558	0.854278	0.423814
O9	O	0.988673	-0.011354	0.076297
O10	O	1.488673	0.488646	0.576297
O11	O	0.862140	0.181504	0.076289
O12	O	1.362140	0.681504	0.576289
O13	O	1.104082	0.161416	0.076303
O14	O	1.604082	0.661416	0.576303
Cu15	Cu	0.983110	0.171460	0.090219
Cu16	Cu	1.483110	0.671460	0.590219
Cu17	Cu	0.983121	0.171463	-0.090107
Cu18	Cu	1.483121	0.671463	0.409893
O19	O	0.977549	0.354275	0.076295
O20	O	1.477549	0.854275	0.576295
C21	C	0.831164	0.180692	0.000047
C22	C	1.331164	0.680692	0.500047
C23	C	0.738855	0.178253	0.000042
C24	C	1.238855	0.678253	0.500042
C25	C	0.517229	0.287019	0.000052
C26	C	1.017229	0.787019	0.500052
C27	C	0.430495	0.284717	0.000057
C28	C	0.930495	0.784717	0.500057
C29	C	0.449008	0.055896	0.000055
C30	C	0.949008	0.555896	0.500055
C31	C	0.535741	0.058199	0.000056
C32	C	1.035741	0.558199	0.500056
C33	C	0.569849	0.173764	0.000049
C34	C	1.069849	0.673764	0.500049
C35	C	0.396382	0.169159	0.000054
C36	C	0.896382	0.669159	0.500054
C37	C	0.302341	0.166662	0.000061
C38	C	0.802341	0.666662	0.500061
C39	C	0.663895	0.176262	0.000045
C40	C	1.163895	0.676262	0.500045
C41	C	0.987860	-0.058140	0.000055
C42	C	1.487860	0.441860	0.500055
C43	C	0.985416	-0.197550	0.000050
C44	C	1.485416	0.302450	0.500050
C45	C	0.985436	-0.197556	-0.166190
C46	C	1.485436	0.302444	0.333810
C47	C	0.984300	-0.263053	-0.249309
C48	C	1.484300	0.236947	0.250691
C49	C	0.982004	-0.394040	-0.249310
C50	C	1.482004	0.105960	0.250690
C51	C	0.980840	-0.459533	-0.166183
C52	C	1.480840	0.040467	0.333817
C53	C	0.981976	-0.394036	-0.083064
C54	C	1.481976	0.105964	0.416936
C55	C	0.984275	-0.263046	-0.083072
C56	C	1.484275	0.236954	0.416928
C57	C	0.981950	-0.394029	0.083173
C58	C	1.481950	0.105971	0.583173
C59	C	0.984252	-0.263043	0.083177
C60	C	1.484252	0.236957	0.583177
C61	C	0.980786	-0.459522	0.166300
C62	C	1.480786	0.040478	0.666300
C63	C	0.981928	-0.394026	0.249422
C64	C	1.481928	0.105974	0.749422
C65	C	0.984225	-0.263031	0.249419
C66	C	1.484225	0.236969	0.749419
C67	C	0.985388	-0.197546	0.166296
C68	C	1.485388	0.302454	0.666296
C69	C	1.135066	0.162231	0.000063
C70	C	1.635066	0.662231	0.500063
C71	C	1.227376	0.164671	0.000062
C72	C	1.727376	0.664671	0.500062
C73	C	0.978370	0.401063	0.000055
C74	C	1.478370	0.901063	0.500055
C75	C	0.980815	0.540473	0.000054
C76	C	1.480815	1.040473	0.500054
N77	N	0.983109	0.171457	0.217051
N78	N	1.483109	0.671457	0.717051
N79	N	0.983128	0.171457	-0.216939
N80	N	1.483128	0.671457	0.283061
C81	C	1.039157	0.086088	0.452061
C82	C	1.539157	0.586088	0.952061
C83	C	1.039159	0.086084	0.548042
C84	C	1.539159	0.586084	1.048042
C85	C	0.927075	0.256830	0.548044
C86	C	1.427075	0.756830	1.048044
C87	C	0.927069	0.256826	0.452065
C88	C	1.427069	0.756826	0.952065
C89	C	0.983115	0.171456	0.404075
C90	C	1.483115	0.671456	0.904075
C91	C	0.983123	0.171457	0.596036
C92	C	1.483123	0.671457	1.096036
C93	C	0.983125	0.171455	0.700103
C94	C	1.483125	0.671455	1.200103
C95	C	0.983112	0.171457	0.300002
C96	C	1.483112	0.671457	0.800002
H97	H	0.387655	0.376940	0.000061
H98	H	0.887655	0.876940	0.500061
H99	H	0.421227	-0.038193	0.000066
H100	H	0.921227	0.461807	0.500066
C101	C	1.100803	-0.007838	0.600821
C102	C	1.600803	0.492162	1.100821
N103	N	1.147233	-0.078589	0.640574
N104	N	1.647233	0.421411	1.140574
C105	C	0.593626	-0.066396	0.000053
C106	C	1.093626	0.433604	0.500053
N107	N	0.637225	-0.160237	0.000054
N108	N	1.137225	0.339763	0.500054
H109	H	0.881429	0.326344	0.412993
H110	H	1.381429	0.826344	0.912993
H111	H	0.980975	-0.447360	0.317097
H112	H	1.480975	0.052640	0.817097
H113	H	0.987315	-0.090900	-0.166197
H114	H	1.487315	0.409100	0.333803
H115	H	0.544997	0.381119	0.000053
H116	H	1.044997	0.881119	0.500053
C117	C	0.985588	-0.191003	-0.340745
C118	C	1.485588	0.308997	0.159255
N119	N	0.986559	-0.136738	-0.409614
N120	N	1.486559	0.363262	0.090386
C121	C	0.978245	-0.603610	0.166297
C122	C	1.478245	-0.103610	0.666297
N123	N	0.976330	-0.712137	0.166296
N124	N	1.476330	-0.212137	0.666296
C125	C	0.980757	-0.466090	-0.340745
C126	C	1.480757	0.033910	0.159255
N127	N	0.979821	-0.520357	-0.409614
N128	N	1.479821	-0.020357	0.090386
H129	H	0.978960	-0.566188	-0.166192
H130	H	1.478960	-0.066188	0.333808
H131	H	0.985137	-0.209709	0.317106
H132	H	1.485137	0.290291	0.817106
H133	H	0.987263	-0.090890	0.166286
H134	H	1.487263	0.409110	0.666286
H135	H	1.084791	0.016573	0.412990
H136	H	1.584791	0.516573	0.912990
C137	C	0.865426	0.350729	0.600842
C138	C	1.365426	0.850729	1.100842
N139	N	0.818991	0.421456	0.640608
N140	N	1.318991	0.921456	1.140608
