data_functionalizedCrystal
_audit_creation_method	'MofGen! by Chris Wilmer'
_symmetry_space_group_name_H-M	'P1'
_symmetry_Int_Tables_number	1
_symmetry_cell_setting	triclinic
loop_
_symmetry_equiv_pos_as_xyz
  x,y,z
_cell_length_a	12.759401
_cell_length_b	12.645330
_cell_length_c	12.759393
_cell_angle_alpha	89.967766
_cell_angle_beta	89.980163
_cell_angle_gamma	90.014171
loop_
_atom_site_label
_atom_site_type_symbol
_atom_site_fract_x
_atom_site_fract_y
_atom_site_fract_z
Zn1	Zn	1.606270	-0.421933	-0.594016
Zn2	Zn	2.106270	0.078067	-0.094016
Zn3	Zn	1.606171	-0.599237	-0.418334
Zn4	Zn	2.106171	-0.099237	0.081666
Zn5	Zn	1.430572	-0.421993	-0.418351
Zn6	Zn	1.930572	0.078007	0.081649
Zn7	Zn	1.430567	-0.599160	-0.593971
Zn8	Zn	1.930567	-0.099160	-0.093971
O9	O	1.518395	-0.510581	-0.506168
O10	O	2.018395	-0.010581	-0.006168
O11	O	1.753278	-0.445460	-0.570723
O12	O	2.253278	0.054540	-0.070723
O13	O	1.582838	-0.575783	-0.271315
O14	O	2.082838	-0.075783	0.228685
O15	O	1.453922	-0.273638	-0.441679
O16	O	1.953922	0.226362	0.058321
O17	O	1.753205	-0.575725	-0.441650
O18	O	2.253205	-0.075725	0.058350
O19	O	1.583007	-0.273594	-0.570739
O20	O	2.083007	0.226406	-0.070739
O21	O	1.453826	-0.445562	-0.271327
O22	O	1.953826	0.054438	0.228673
O23	O	1.283550	-0.445487	-0.441636
O24	O	1.783550	0.054513	0.058364
O25	O	1.453914	-0.575593	-0.740998
O26	O	1.953914	-0.075593	-0.240998
O27	O	1.283547	-0.575651	-0.570663
O28	O	1.783547	-0.075651	-0.070663
O29	O	1.583002	-0.445385	-0.741031
O30	O	2.083002	0.054615	-0.241031
O31	O	1.582833	-0.747574	-0.441607
O32	O	2.082833	-0.247574	0.058393
O33	O	1.453817	-0.747517	-0.570647
O34	O	1.953817	-0.247517	-0.070647
C35	C	1.245428	-0.510568	-0.506147
C36	C	1.745428	-0.010568	-0.006147
C37	C	1.128651	-0.510588	-0.506163
C38	C	1.628651	-0.010588	-0.006163
C39	C	1.518342	-0.786011	-0.506143
C40	C	2.018342	-0.286011	-0.006143
C41	C	1.518416	-0.903841	-0.506168
C42	C	2.018416	-0.403841	-0.006168
C43	C	1.073814	-0.578467	-0.573242
C44	C	1.573814	-0.078467	-0.073242
C45	C	0.964090	-0.578471	-0.573263
C46	C	1.464090	-0.078471	-0.073263
C47	C	0.964049	-0.442714	-0.439117
C48	C	1.464049	0.057286	0.060883
C49	C	1.073771	-0.442705	-0.439102
C50	C	1.573771	0.057295	0.060898
C51	C	1.599449	-1.071396	-0.424824
C52	C	2.099449	-0.571396	0.075176
C53	C	1.599713	-0.948836	-0.425023
C54	C	2.099713	-0.448836	0.074977
C55	C	1.548443	-0.948212	-0.616912
C56	C	2.048443	-0.448212	-0.116912
C57	C	1.549086	-1.070810	-0.616481
C58	C	2.049086	-0.570810	-0.116481
C59	C	1.407323	-1.071174	-0.477858
C60	C	1.907323	-0.571174	0.022142
C61	C	1.407856	-0.948569	-0.475374
C62	C	1.907856	-0.448569	0.024626
C63	C	1.792428	-0.510595	-0.506189
C64	C	2.292428	-0.010595	-0.006189
C65	C	1.909205	-0.510600	-0.506199
C66	C	2.409205	-0.010600	-0.006199
C67	C	1.518468	-0.510474	-0.780201
C68	C	2.018468	-0.010474	-0.280201
C69	C	1.518500	-0.510428	-0.896978
C70	C	2.018500	-0.010428	-0.396978
C71	C	1.518476	-0.234076	-0.506216
C72	C	2.018476	0.265924	-0.006216
C73	C	1.518511	-0.116245	-0.506236
C74	C	2.018511	0.383755	-0.006236
C75	C	1.451347	-0.442610	-0.951846
C76	C	1.951347	0.057390	-0.451846
C77	C	1.451372	-0.442577	-1.061570
C78	C	1.951372	0.057423	-0.561570
C79	C	1.585710	-0.578184	-1.061549
C80	C	2.085710	-0.078184	-0.561549
C81	C	1.585679	-0.578221	-0.951827
C82	C	2.085679	-0.078221	-0.451827
C83	C	1.518382	-0.510611	-0.233200
C84	C	2.018382	-0.010611	0.266800
C85	C	1.518555	-0.510358	-0.116424
C86	C	2.018555	-0.010358	0.383576
H87	H	0.919447	-0.633744	-0.627887
H88	H	1.419447	-0.133744	-0.127887
O89	O	1.378956	-0.369419	-1.120753
O90	O	1.878956	0.130581	-0.620753
H91	H	1.296485	-0.387585	-1.099679
H92	H	1.796485	0.112415	-0.599679
H93	H	1.491287	-0.919062	-0.679196
H94	H	1.991287	-0.419062	-0.179196
H95	H	0.919352	-0.387448	-0.384517
H96	H	1.419352	0.112552	0.115483
H97	H	1.681360	-1.102123	-0.443384
H98	H	2.181360	-0.602123	0.056616
H99	H	1.640406	-0.633378	-1.106220
H100	H	2.140406	-0.133378	-0.606220
O101	O	1.323656	-0.908011	-0.548151
O102	O	1.823656	-0.408011	-0.048151
H103	H	1.341681	-0.932825	-0.629613
H104	H	1.841681	-0.432825	-0.129613
H105	H	1.118420	-0.387423	-0.384478
H106	H	1.618420	0.112577	0.115522
H107	H	1.682066	-0.919424	-0.443793
H108	H	2.182066	-0.419424	0.056207
O109	O	1.378887	-0.369494	-0.892691
O110	O	1.878887	0.130506	-0.392691
H111	H	1.390153	-0.380902	-0.807176
H112	H	1.890153	0.119098	-0.307176
O113	O	1.474381	-1.110107	-0.699559
O114	O	1.974381	-0.610107	-0.199559
H115	H	1.474271	-1.197881	-0.699865
H116	H	1.974271	-0.697881	-0.199865
O117	O	1.658123	-0.651359	-0.892635
O118	O	2.158123	-0.151359	-0.392635
H119	H	1.704857	-0.698478	-0.949206
H120	H	2.204857	-0.198478	-0.449206
H121	H	1.580926	-0.918841	-0.342907
H122	H	2.080926	-0.418841	0.157093
O123	O	1.133012	-0.651667	-0.645580
O124	O	1.633012	-0.151667	-0.145580
H125	H	1.076442	-0.698859	-0.692236
H126	H	1.576442	-0.198859	-0.192236
O127	O	1.575006	-1.111422	-0.316014
O128	O	2.075006	-0.611422	0.183986
H129	H	1.495105	-1.085640	-0.292993
H130	H	1.995105	-0.585640	0.207007
O131	O	1.656741	-1.108586	-0.648308
O132	O	2.156741	-0.608586	-0.148308
H133	H	1.707854	-1.039290	-0.663858
H134	H	2.207854	-0.539290	-0.163858
O135	O	1.654941	-0.907719	-0.649457
O136	O	2.154941	-0.407719	-0.149457
H137	H	1.653422	-0.820026	-0.652937
H138	H	2.153422	-0.320026	-0.152937
O139	O	1.371151	-1.112237	-0.372744
O140	O	1.871151	-0.612237	0.127256
H141	H	1.432026	-1.165235	-0.339553
H142	H	1.932026	-0.665235	0.160447
O143	O	1.377846	-0.910167	-0.367426
O144	O	1.877846	-0.410167	0.132574
H145	H	1.441399	-0.859430	-0.335829
H146	H	1.941399	-0.359430	0.164171
H147	H	1.347018	-1.100177	-0.537154
H148	H	1.847018	-0.600177	-0.037154
