data_functionalizedCrystal
_audit_creation_method	'MofGen! by Chris Wilmer'
_symmetry_space_group_name_H-M	'P1'
_symmetry_Int_Tables_number	1
_symmetry_cell_setting	triclinic
loop_
_symmetry_equiv_pos_as_xyz
  x,y,z
_cell_length_a	16.992694
_cell_length_b	14.185569
_cell_length_c	16.992695
_cell_angle_alpha	104.070102
_cell_angle_beta	90.668223
_cell_angle_gamma	75.925569
loop_
_atom_site_label
_atom_site_type_symbol
_atom_site_fract_x
_atom_site_fract_y
_atom_site_fract_z
O1	O	1.034137	0.083296	0.183621
O2	O	1.367470	0.416629	0.516954
O3	O	1.700804	0.749962	0.850287
O4	O	0.805731	0.083325	0.181795
O5	O	1.139064	0.416659	0.515129
O6	O	1.472398	0.749992	0.848462
O7	O	0.919020	0.083303	0.068506
O8	O	1.252353	0.416636	0.401840
O9	O	1.585687	0.749969	0.735173
O10	O	0.920848	0.083318	0.296910
O11	O	1.254181	0.416652	0.630243
O12	O	1.587515	0.749985	0.963576
O13	O	0.952487	-0.083539	0.035044
O14	O	1.285820	0.249795	0.368377
O15	O	1.619153	0.583128	0.701710
O16	O	0.839198	-0.083516	0.148333
O17	O	1.172531	0.249817	0.481666
O18	O	1.505864	0.583151	0.814999
O19	O	1.067604	-0.083545	0.150158
O20	O	1.400937	0.249788	0.483491
O21	O	1.734270	0.583121	0.816825
Cu22	Cu	0.956456	-0.098765	0.146190
Cu23	Cu	1.289790	0.234569	0.479523
Cu24	Cu	1.623123	0.567902	0.812857
Cu25	Cu	0.916878	0.098544	0.185763
Cu26	Cu	1.250211	0.431878	0.519097
Cu27	Cu	1.583545	0.765211	0.852430
O28	O	0.954315	-0.083523	0.263447
O29	O	1.287648	0.249810	0.596780
O30	O	1.620981	0.583144	0.930114
C31	C	0.793103	-0.000092	0.162709
C32	C	1.126437	0.333242	0.496042
C33	C	1.459770	0.666575	0.829376
C34	C	0.705617	-0.000081	0.155683
C35	C	1.038950	0.333253	0.489016
C36	C	1.372283	0.666586	0.822349
N37	N	0.984299	-0.237541	0.118356
N38	N	1.317633	0.095792	0.451689
N39	N	1.650966	0.429125	0.785023
C40	C	0.659625	-0.000077	0.223501
C41	C	0.992958	0.333257	0.556835
C42	C	1.326292	0.666590	0.890168
C43	C	0.577427	-0.000091	0.216889
C44	C	0.910760	0.333242	0.550223
C45	C	1.244094	0.666576	0.883556
C46	C	0.541221	-0.000102	0.142460
C47	C	0.874554	0.333231	0.475793
C48	C	1.207888	0.666565	0.809126
C49	C	0.587219	-0.000109	0.074635
C50	C	0.920553	0.333225	0.407969
C51	C	1.253886	0.666558	0.741302
C52	C	0.669417	-0.000102	0.081246
C53	C	1.002750	0.333232	0.414580
C54	C	1.336084	0.666565	0.747913
C55	C	0.295912	-0.000131	0.115059
C56	C	0.629246	0.333203	0.448393
C57	C	0.962579	0.666536	0.781726
C58	C	0.213708	-0.000135	0.108454
C59	C	0.547041	0.333199	0.441787
C60	C	0.880375	0.666532	0.775121
C61	C	0.203922	-0.000119	0.250709
C62	C	0.537255	0.333215	0.584042
C63	C	0.870588	0.666548	0.917375
C64	C	0.286120	-0.000106	0.257314
C65	C	0.619454	0.333228	0.590648
C66	C	0.952787	0.666561	0.923981
C67	C	0.332112	-0.000118	0.189489
C68	C	0.665446	0.333216	0.522822
C69	C	0.998779	0.666549	0.856155
N70	N	0.457201	-0.000113	0.135700
N71	N	0.790534	0.333220	0.469033
N72	N	1.123868	0.666553	0.802367
N73	N	0.416132	-0.000113	0.196248
N74	N	0.749466	0.333220	0.529581
N75	N	1.082799	0.666553	0.862914
C76	C	0.807236	-0.605156	0.295334
C77	C	1.140569	-0.271823	0.628667
C78	C	1.473903	0.061511	0.962000
C79	C	0.828333	-0.710182	0.274255
C80	C	1.161666	-0.376848	0.607589
C81	C	1.494999	-0.043515	0.940922
C82	C	0.928674	-0.710163	0.173979
C83	C	1.262007	-0.376829	0.507313
C84	C	1.595341	-0.043496	0.840646
C85	C	0.907583	-0.605135	0.195046
C86	C	1.240917	-0.271801	0.528380
C87	C	1.574250	0.061532	0.861713
C88	C	0.846864	-0.552640	0.255725
C89	C	1.180198	-0.219306	0.589058
C90	C	1.513531	0.114027	0.922391
C91	C	0.947212	-0.552618	0.155437
C92	C	1.280545	-0.219285	0.488771
C93	C	1.613878	0.114048	0.822104
C94	C	0.926125	-0.447600	0.176506
C95	C	1.259458	-0.114266	0.509839
C96	C	1.592792	0.219067	0.843173
C97	C	0.865410	-0.395097	0.237184
C98	C	1.198744	-0.061764	0.570517
C99	C	1.532077	0.271569	0.903850
C100	C	0.825778	-0.447621	0.276793
C101	C	1.159111	-0.114288	0.610127
C102	C	1.492445	0.219046	0.943460
C103	C	1.007934	-0.605116	0.094763
C104	C	1.341268	-0.271782	0.428097
C105	C	1.674601	0.061551	0.761430
C106	C	1.047563	-0.552599	0.055154
C107	C	1.380896	-0.219266	0.388488
C108	C	1.714229	0.114067	0.721821
C109	C	1.026472	-0.447579	0.076219
C110	C	1.359806	-0.114245	0.409552
C111	C	1.693139	0.219088	0.742885
C112	C	0.965758	-0.395076	0.136896
C113	C	1.299091	-0.061743	0.470230
C114	C	1.632424	0.271590	0.803563
C115	C	1.066105	-0.395055	0.036609
C116	C	1.399438	-0.061722	0.369942
C117	C	1.732771	0.271612	0.703276
C118	C	1.045018	-0.290036	0.057678
C119	C	1.378352	0.043297	0.391011
C120	C	1.711685	0.376630	0.724344
C121	C	0.944671	-0.290057	0.157965
C122	C	1.278004	0.043276	0.491298
C123	C	1.611338	0.376609	0.824632
C124	C	1.080231	-0.000126	0.169245
C125	C	1.413564	0.333207	0.502578
C126	C	1.746897	0.666540	0.835911
C127	C	1.167716	-0.000131	0.176273
C128	C	1.501050	0.333202	0.509606
C129	C	1.834383	0.666536	0.842939
C130	C	0.933397	-0.000118	0.022415
C131	C	1.266731	0.333216	0.355748
C132	C	1.600064	0.666549	0.689082
C133	C	0.926368	-0.000116	-0.065069
C134	C	1.259702	0.333217	0.268264
C135	C	1.593035	0.666550	0.601597
N136	N	0.889041	0.237321	0.213592
N137	N	1.222374	0.570654	0.546925
N138	N	1.555708	0.903988	0.880258
C139	C	0.994188	-0.000126	-0.111062
C140	C	1.327522	0.333207	0.222271
C141	C	1.660855	0.666541	0.555605
C142	C	0.987577	-0.000116	-0.193261
C143	C	1.320911	0.333218	0.140073
C144	C	1.654244	0.666551	0.473406
C145	C	0.913147	-0.000103	-0.229467
C146	C	1.246480	0.333231	0.103867
C147	C	1.579814	0.666564	0.437200
C148	C	0.845322	-0.000090	-0.183467
C149	C	1.178655	0.333243	0.149866
C150	C	1.511988	0.666577	0.483200
C151	C	0.851932	-0.000093	-0.101268
C152	C	1.185265	0.333240	0.232065
C153	C	1.518599	0.666574	0.565398
C154	C	0.885749	-0.000085	-0.474777
C155	C	1.219082	0.333248	-0.141444
C156	C	1.552416	0.666581	0.191889
C157	C	0.879144	-0.000085	-0.556983
C158	C	1.212478	0.333248	-0.223649
C159	C	1.545811	0.666581	0.109684
C160	C	1.021401	-0.000109	-0.566770
C161	C	1.354734	0.333224	-0.233437
C162	C	1.688067	0.666557	0.099896
C163	C	1.028006	-0.000118	-0.484571
C164	C	1.361339	0.333215	-0.151238
C165	C	1.694672	0.666548	0.182096
C166	C	0.960179	-0.000100	-0.438578
C167	C	1.293512	0.333233	-0.105244
C168	C	1.626846	0.666566	0.228089
N169	N	0.906388	-0.000095	-0.313487
N170	N	1.239722	0.333238	0.019846
N171	N	1.573055	0.666571	0.353179
N172	N	0.966937	-0.000101	-0.354557
N173	N	1.300270	0.333233	-0.021224
N174	N	1.633604	0.666566	0.312110
C175	C	0.939937	-0.000100	0.309539
C176	C	1.273270	0.333233	0.642872
C177	C	1.606603	0.666566	0.976206
C178	C	0.946964	-0.000095	0.397025
C179	C	1.280298	0.333238	0.730358
C180	C	1.613631	0.666572	1.063691
H181	H	0.689097	-0.000067	0.284110
H182	H	1.022431	0.333266	0.617443
H183	H	1.355764	0.666600	0.950777
H184	H	1.042804	-0.000126	-0.230705
H185	H	1.376138	0.333207	0.102628
H186	H	1.709471	0.666541	0.435961
H187	H	0.166467	-0.000111	0.305928
H188	H	0.499800	0.333222	0.639261
H189	H	0.833133	0.666556	0.972594
H190	H	1.025103	-0.690629	0.077614
H191	H	1.358436	-0.357295	0.410948
H192	H	1.691770	-0.023962	0.744281
F193	F	1.073410	-0.000150	-0.072539
F194	F	1.406743	0.333184	0.260794
F195	F	1.740076	0.666517	0.594128
H196	H	1.076621	-0.000122	-0.604227
H197	H	1.409954	0.333211	-0.270893
H198	H	1.743287	0.666545	0.062440
H199	H	0.757787	-0.562412	0.344738
H200	H	1.091120	-0.229079	0.678072
H201	H	1.424453	0.104254	1.011405
F202	F	0.761146	-0.391749	0.341367
F203	F	1.094479	-0.058416	0.674701
F204	F	1.427812	0.274918	1.008034
F205	F	0.813560	-0.000064	-0.425838
F206	F	1.146894	0.333270	-0.092504
F207	F	1.480227	0.666603	0.240829
H208	H	1.077289	-0.247277	0.025424
H209	H	1.410622	0.086056	0.358758
H210	H	1.743956	0.419389	0.692091
H211	H	1.088615	-0.000129	-0.455099
H212	H	1.421948	0.333204	-0.121765
H213	H	1.755281	0.666537	0.211568
H214	H	0.818535	-0.000091	-0.586461
H215	H	1.151868	0.333242	-0.253128
H216	H	1.485201	0.666576	0.080205
H217	H	0.796705	-0.000085	-0.063822
H218	H	1.130039	0.333248	0.269512
H219	H	1.463372	0.666582	0.602845
H220	H	0.539984	-0.000087	0.272115
H221	H	0.873317	0.333247	0.605449
H222	H	1.206650	0.666580	0.938782
F223	F	0.175180	-0.000164	0.029228
F224	F	0.508514	0.333169	0.362562
F225	F	0.841847	0.666503	0.695895
H226	H	0.978114	-0.752916	0.124576
H227	H	1.311448	-0.419583	0.457909
H228	H	1.644781	-0.086250	0.791243
F229	F	0.766104	-0.000065	-0.222000
F230	F	1.099438	0.333269	0.111334
F231	F	1.432771	0.666602	0.444667
H232	H	1.097003	-0.595353	0.005751
H233	H	1.430336	-0.262020	0.339085
H234	H	1.763669	0.071314	0.672418
H235	H	0.796058	-0.752935	0.306516
H236	H	1.129391	-0.419602	0.639850
H237	H	1.462724	-0.086269	0.973183
H238	H	0.333350	-0.000141	0.059830
H239	H	0.666683	0.333192	0.393164
H240	H	1.000017	0.666525	0.726497
F241	F	0.324646	-0.000089	0.336534
F242	F	0.657980	0.333245	0.669867
F243	F	0.991313	0.666578	1.003200
F244	F	0.718365	-0.000109	0.009063
F245	F	1.051699	0.333224	0.342397
F246	F	1.385032	0.666557	0.675730
F247	F	0.548685	-0.000127	-0.004580
F248	F	0.882019	0.333206	0.328753
F249	F	1.215352	0.666540	0.662086
F250	F	1.130732	-0.450935	-0.027960
F251	F	1.464065	-0.117602	0.305373
F252	F	1.797399	0.215731	0.638707
F253	F	0.880039	-0.234186	0.222539
F254	F	1.213372	0.099148	0.555872
F255	F	1.546705	0.432481	0.889206
F256	F	0.842972	-0.283326	0.259610
F257	F	1.176306	0.050008	0.592943
F258	F	1.509639	0.383341	0.926276
