data_functionalizedCrystal
_audit_creation_method	'MofGen! by Chris Wilmer'
_symmetry_space_group_name_H-M	'P1'
_symmetry_Int_Tables_number	1
_symmetry_cell_setting	triclinic
loop_
_symmetry_equiv_pos_as_xyz
  x,y,z
_cell_length_a	19.077105
_cell_length_b	11.169416
_cell_length_c	11.169409
_cell_angle_alpha	90.030874
_cell_angle_beta	87.679347
_cell_angle_gamma	92.293056
loop_
_atom_site_label
_atom_site_type_symbol
_atom_site_fract_x
_atom_site_fract_y
_atom_site_fract_z
Zn1	Zn	1.076092	0.551539	-0.752302
Zn2	Zn	1.576092	1.051539	-0.252302
Zn3	Zn	1.076028	0.752275	-0.551620
Zn4	Zn	1.576028	1.252275	-0.051620
Zn5	Zn	0.958386	0.543533	-0.543570
Zn6	Zn	1.458386	1.043533	-0.043570
Zn7	Zn	0.958390	0.744103	-0.744203
Zn8	Zn	1.458390	1.244103	-0.244203
O9	O	1.017224	0.647862	-0.647924
O10	O	1.517224	1.147862	-0.147924
O11	O	1.174576	0.584937	-0.732440
O12	O	1.674576	1.084937	-0.232440
O13	O	1.060393	0.724654	-0.382600
O14	O	1.560393	1.224654	0.117400
O15	O	0.974025	0.376647	-0.571279
O16	O	1.474025	0.876647	-0.071279
O17	O	1.174528	0.732417	-0.584999
O18	O	1.674528	1.232417	-0.084999
O19	O	1.060504	0.382529	-0.724634
O20	O	1.560504	0.882529	-0.224634
O21	O	0.973962	0.571293	-0.376686
O22	O	1.473962	1.071293	0.123314
O23	O	0.859894	0.563369	-0.563426
O24	O	1.359894	1.063369	-0.063426
O25	O	0.974033	0.718489	-0.913229
O26	O	1.474033	1.218489	-0.413229
O27	O	0.859898	0.710727	-0.710830
O28	O	1.359898	1.210727	-0.210830
O29	O	1.060508	0.577013	-0.919180
O30	O	1.560508	1.077013	-0.419180
O31	O	1.060397	0.919139	-0.577146
O32	O	1.560397	1.419139	-0.077146
O33	O	0.973970	0.913135	-0.718635
O34	O	1.473970	1.413135	-0.218635
C35	C	0.834358	0.635293	-0.635376
C36	C	1.334358	1.135293	-0.135376
C37	C	0.756127	0.629945	-0.630036
C38	C	1.256127	1.129945	-0.130036
C39	C	0.719394	0.704270	-0.704153
C40	C	1.219394	1.204270	-0.204153
C41	C	0.645888	0.699229	-0.699141
C42	C	1.145888	1.199229	-0.199141
C43	C	0.609116	0.619868	-0.620007
C44	C	1.109116	1.119868	-0.120007
C45	C	0.645854	0.545536	-0.545888
C46	C	1.145854	1.045536	-0.045888
C47	C	0.719359	0.550571	-0.550906
C48	C	1.219359	1.050571	-0.050906
C49	C	0.389278	0.596562	-0.596788
C50	C	0.889278	1.096562	-0.096788
C51	C	0.315768	0.591534	-0.591773
C52	C	0.815768	1.091534	-0.091773
C53	C	0.315807	0.745226	-0.745029
C54	C	0.815807	1.245226	-0.245029
C55	C	0.389313	0.750260	-0.750035
C56	C	0.889313	1.250260	-0.250035
C57	C	0.426045	0.675923	-0.675920
C58	C	0.926045	1.175923	-0.175920
N59	N	0.533981	0.614716	-0.614880
N60	N	1.033981	1.114716	-0.114880
N61	N	0.501179	0.681070	-0.681054
N62	N	1.001179	1.181070	-0.181054
C63	C	1.017196	0.959685	-0.647913
C64	C	1.517196	1.459685	-0.147913
C65	C	1.017249	1.093089	-0.647952
C66	C	1.517249	1.593089	-0.147952
C67	C	1.017278	0.647733	-0.960970
C68	C	1.517278	1.147733	-0.460970
C69	C	1.017301	0.647678	-1.094372
C70	C	1.517301	1.147678	-0.594372
C71	C	1.200804	0.660481	-0.660521
C72	C	1.700804	1.160481	-0.160521
C73	C	1.279035	0.665859	-0.665889
C74	C	1.779035	1.165859	-0.165889
C75	C	1.017271	0.334823	-0.647962
C76	C	1.517271	0.834823	-0.147962
C77	C	1.017291	0.201425	-0.647979
C78	C	1.517291	0.701425	-0.147979
C79	C	1.017211	0.647908	-0.336098
C80	C	1.517211	1.147908	0.163902
C81	C	1.017324	0.647634	-0.202706
C82	C	1.517324	1.147634	0.297294
H83	H	0.419248	0.814887	-0.814472
H84	H	0.919248	1.314887	-0.314472
H85	H	0.615983	0.759753	-0.759494
H86	H	1.115983	1.259753	-0.259494
Br87	Br	0.265953	0.846111	-0.845603
Br88	Br	0.765953	1.346111	-0.345603
Br89	Br	0.439119	0.495669	-0.496210
Br90	Br	0.939119	0.995669	0.003790
Br91	Br	0.265863	0.483837	-0.484356
Br92	Br	0.765863	0.983837	0.015644
H93	H	0.615909	0.480914	-0.481460
H94	H	1.115909	0.980914	0.018540
Br95	Br	0.769212	0.449692	-0.450322
Br96	Br	1.269212	0.949692	0.049678
H97	H	0.749329	0.768897	-0.768589
H98	H	1.249329	1.268897	-0.268589
