data_functionalizedCrystal
_audit_creation_method	'MofGen! by Chris Wilmer'
_symmetry_space_group_name_H-M	'P1'
_symmetry_Int_Tables_number	1
_symmetry_cell_setting	triclinic
loop_
_symmetry_equiv_pos_as_xyz
  x,y,z
_cell_length_a	25.639239
_cell_length_b	19.805407
_cell_length_c	19.805399
_cell_angle_alpha	89.980427
_cell_angle_beta	89.971274
_cell_angle_gamma	90.038686
loop_
_atom_site_label
_atom_site_type_symbol
_atom_site_fract_x
_atom_site_fract_y
_atom_site_fract_z
Zn1	Zn	-0.208163	1.034678	-0.382714
Zn2	Zn	0.291837	1.534678	0.117286
Zn3	Zn	-0.295597	1.034569	-0.269524
Zn4	Zn	0.204403	1.534569	0.230476
Zn5	Zn	-0.208177	0.921493	-0.269539
Zn6	Zn	0.291823	1.421493	0.230461
Zn7	Zn	-0.295569	0.921432	-0.382670
Zn8	Zn	0.204431	1.421432	0.117330
O9	O	-0.251877	0.978043	-0.326112
O10	O	0.248123	1.478043	0.173888
O11	O	-0.219767	1.129380	-0.367711
O12	O	0.280233	1.629380	0.132289
O13	O	-0.284018	1.019548	-0.174809
O14	O	0.215982	1.519548	0.325191
O15	O	-0.135010	0.936578	-0.284576
O16	O	0.364990	1.436578	0.215424
O17	O	-0.284004	1.129300	-0.284551
O18	O	0.215996	1.629300	0.215449
O19	O	-0.135000	1.019735	-0.367726
O20	O	0.365000	1.519735	0.132274
O21	O	-0.219791	0.936472	-0.174820
O22	O	0.280209	1.436472	0.325180
O23	O	-0.219764	0.826768	-0.284534
O24	O	0.280236	1.326768	0.215466
O25	O	-0.283957	0.936475	-0.477393
O26	O	0.216043	1.436475	0.022607
O27	O	-0.283971	0.826723	-0.367651
O28	O	0.216029	1.326723	0.132349
O29	O	-0.219740	1.019676	-0.477425
O30	O	0.280260	1.519676	0.022575
O31	O	-0.368758	1.019489	-0.284508
O32	O	0.131242	1.519489	0.215492
O33	O	-0.368738	0.936368	-0.367637
O34	O	0.131262	1.436368	0.132363
C35	C	-0.251867	0.802187	-0.326090
C36	C	0.248133	1.302187	0.173910
C37	C	-0.251875	0.726955	-0.326097
C38	C	0.248125	1.226955	0.173903
C39	C	-0.285357	0.691605	-0.369306
C40	C	0.214643	1.191605	0.130694
C41	C	-0.285358	0.620917	-0.369315
C42	C	0.214642	1.120917	0.130685
C43	C	-0.251879	0.585579	-0.326112
C44	C	0.248121	1.085579	0.173888
C45	C	-0.218393	0.620934	-0.282901
C46	C	0.281607	1.120934	0.217099
C47	C	-0.218390	0.691621	-0.282895
C48	C	0.281610	1.191621	0.217105
C49	C	-0.218404	0.335860	-0.282923
C50	C	0.281596	0.835860	0.217077
C51	C	-0.218411	0.265168	-0.282931
C52	C	0.281589	0.765168	0.217069
C53	C	-0.285373	0.265156	-0.369343
C54	C	0.214627	0.765156	0.130657
C55	C	-0.285370	0.335843	-0.369338
C56	C	0.214630	0.835843	0.130662
C57	C	-0.251882	0.371192	-0.326129
C58	C	0.248118	0.871192	0.173871
C59	C	-0.251881	0.447840	-0.326121
C60	C	0.248119	0.947840	0.173879
C61	C	-0.251883	0.508932	-0.326117
C62	C	0.248117	1.008932	0.173883
C63	C	-0.387719	0.977929	-0.326081
C64	C	0.112281	1.477929	0.173919
C65	C	-0.445833	0.977942	-0.326090
C66	C	0.054167	1.477942	0.173910
C67	C	-0.806194	1.021437	-0.282901
C68	C	-0.306194	1.521437	0.217099
C69	C	-0.860799	1.021463	-0.282910
C70	C	-0.360799	1.521463	0.217090
O71	O	-0.889034	1.058326	-0.246154
O72	O	-0.389034	1.558326	0.253846
N73	N	-0.888116	0.978162	-0.326157
N74	N	-0.388116	1.478162	0.173843
C75	C	-0.860825	0.934836	-0.369402
C76	C	-0.360825	1.434836	0.130598
O77	O	-0.889075	0.898008	-0.406189
O78	O	-0.389075	1.398008	0.093811
C79	C	-0.806222	0.934814	-0.369396
C80	C	-0.306222	1.434814	0.130604
C81	C	-0.778908	0.978113	-0.326141
C82	C	-0.278908	1.478113	0.173859
C83	C	-0.778880	1.064733	-0.239650
C84	C	-0.278880	1.564733	0.260350
C85	C	-0.724279	1.064706	-0.239640
C86	C	-0.224279	1.564706	0.260360
C87	C	-0.696993	1.021382	-0.282881
C88	C	-0.196993	1.521382	0.217119
C89	C	-0.724307	0.978086	-0.326132
C90	C	-0.224307	1.478086	0.173868
C91	C	-0.778933	0.891492	-0.412645
C92	C	-0.278933	1.391492	0.087355
C93	C	-0.724326	0.891474	-0.412635
C94	C	-0.224326	1.391474	0.087365
C95	C	-0.697012	0.934773	-0.369381
C96	C	-0.197012	1.434773	0.130619
C97	C	-0.642421	0.934735	-0.369363
C98	C	-0.142421	1.434735	0.130637
N99	N	-0.615104	0.978036	-0.326116
N100	N	-0.115104	1.478036	0.173884
C101	C	-0.642390	1.021360	-0.282875
C102	C	-0.142390	1.521360	0.217125
C103	C	-0.975496	0.934887	-0.369413
C104	C	-0.475496	1.434887	0.130587
C105	C	-1.030098	0.934906	-0.369416
C106	C	-0.530098	1.434906	0.130584
C107	C	-1.030068	1.021533	-0.282924
C108	C	-0.530068	1.521533	0.217076
C109	C	-0.975464	1.021511	-0.282918
C110	C	-0.475464	1.521511	0.217082
C111	C	-0.948179	0.978188	-0.326166
C112	C	-0.448179	1.478188	0.173834
C113	C	-0.527725	1.021299	-0.282857
C114	C	-0.027725	1.521299	0.217143
C115	C	-0.473119	1.021266	-0.282849
C116	C	0.026881	1.521266	0.217151
C117	C	-0.473155	0.934641	-0.369343
C118	C	0.026845	1.434641	0.130657
C119	C	-0.527756	0.934671	-0.369349
C120	C	-0.027756	1.434671	0.130651
C121	C	-0.555039	0.978006	-0.326104
C122	C	-0.055039	1.478006	0.173896
O123	O	-0.614151	0.897893	-0.406101
O124	O	-0.114151	1.397893	0.093899
O125	O	-0.614134	1.058188	-0.246101
O126	O	-0.114134	1.558188	0.253899
C127	C	-0.115504	0.978175	-0.326158
C128	C	0.384496	1.478175	0.173842
C129	C	-0.057389	0.978232	-0.326177
C130	C	0.442611	1.478232	0.173823
C131	C	-0.251844	0.978081	-0.502655
C132	C	0.248156	1.478081	-0.002655
C133	C	-0.251830	0.978097	-0.577887
C134	C	0.248170	1.478097	-0.077887
C135	C	-0.251887	1.154585	-0.326134
C136	C	0.248113	1.654585	0.173866
C137	C	-0.251891	1.229817	-0.326144
C138	C	0.248109	1.729817	0.173856
C139	C	-0.218390	1.021421	-0.613249
C140	C	0.281610	1.521421	-0.113249
C141	C	-0.218375	1.021428	-0.683937
C142	C	0.281625	1.521428	-0.183937
C143	C	-0.251802	0.978114	-0.719262
C144	C	0.248198	1.478114	-0.219262
C145	C	-0.285243	0.934785	-0.683895
C146	C	0.214757	1.434785	-0.183895
C147	C	-0.285255	0.934775	-0.613208
C148	C	0.214745	1.434775	-0.113208
C149	C	-0.285194	0.934823	-0.968969
C150	C	0.214806	1.434823	-0.468969
C151	C	-0.285181	0.934838	-1.039661
C152	C	0.214819	1.434838	-0.539661
C153	C	-0.218314	1.021476	-1.039698
C154	C	0.281686	1.521476	-0.539698
C155	C	-0.218326	1.021466	-0.969011
C156	C	0.281674	1.521466	-0.469011
C157	C	-0.251765	0.978135	-0.933650
C158	C	0.248235	1.478135	-0.433650
C159	C	-0.251780	0.978127	-0.857001
C160	C	0.248220	1.478127	-0.357001
C161	C	-0.251790	0.978125	-0.795909
C162	C	0.248210	1.478125	-0.295909
C163	C	-0.251872	0.978044	-0.150256
C164	C	0.248128	1.478044	0.349744
C165	C	-0.251738	0.978159	-0.075024
C166	C	0.248262	1.478159	0.424976
H167	H	-0.191145	0.236399	-0.247749
H168	H	0.308855	0.736399	0.252251
H169	H	-0.312458	0.899515	-0.712663
H170	H	0.187542	1.399515	-0.212663
Br171	Br	-0.330636	0.875972	-0.565216
Br172	Br	0.169364	1.375972	-0.065216
Br173	Br	-0.172962	1.080255	-0.921073
Br174	Br	0.327038	1.580255	-0.421073
Br175	Br	-0.687299	0.832678	-0.471335
Br176	Br	-0.187299	1.332678	0.028665
H177	H	-0.450930	0.899365	-0.404548
H178	H	0.049070	1.399365	0.095452
H179	H	-0.191171	1.056694	-0.584492
H180	H	0.308829	1.556694	-0.084492
H181	H	-0.312402	0.899563	-1.068421
H182	H	0.187598	1.399563	-0.568421
Br183	Br	-0.173015	1.080259	-0.731926
Br184	Br	0.326985	1.580259	-0.231926
H185	H	-0.801163	0.856230	-0.447864
H186	H	-0.301163	1.356230	0.052136
H187	H	-0.549996	0.899415	-0.404573
H188	H	-0.049996	1.399415	0.095427
Br189	Br	-0.330811	0.383798	-0.427969
Br190	Br	0.169189	0.883798	0.072031
Br191	Br	-0.172953	0.383825	-0.224287
Br192	Br	0.327047	0.883825	0.275713
Br193	Br	-0.436053	1.080032	-0.224141
Br194	Br	0.063947	1.580032	0.275859
Br195	Br	-0.172931	1.080283	-1.087691
Br196	Br	0.327069	1.580283	-0.587691
H197	H	-0.312622	0.720372	-0.404485
H198	H	0.187378	1.220372	0.095515
Br199	Br	-0.330800	0.572944	-0.427961
Br200	Br	0.169200	1.072944	0.072039
H201	H	-0.191131	0.592156	-0.247727
H202	H	0.308869	1.092156	0.252273
Br203	Br	-0.330823	0.217180	-0.427983
Br204	Br	0.169177	0.717180	0.072017
Br205	Br	-0.564744	1.080111	-0.224167
Br206	Br	-0.064744	1.580111	0.275833
H207	H	-0.953228	1.056769	-0.247697
H208	H	-0.453228	1.556769	0.252303
Br209	Br	-0.172944	0.739597	-0.224256
Br210	Br	0.327056	1.239597	0.275744
Br211	Br	-0.687219	1.123482	-0.180944
Br212	Br	-0.187219	1.623482	0.319056
Br213	Br	-1.067110	1.080328	-0.224236
Br214	Br	-0.567110	1.580328	0.275764
H215	H	-0.801091	1.100016	-0.204438
H216	H	-0.301091	1.600016	0.295562
H217	H	-1.052333	0.899641	-0.404632
H218	H	-0.552333	1.399641	0.095368
Br219	Br	-0.938471	0.876082	-0.428108
Br220	Br	-0.438471	1.376082	0.071892
Br221	Br	-0.330575	0.876016	-0.920988
Br222	Br	0.169425	1.376016	-0.420988
