data_functionalizedCrystal
_audit_creation_method	'MofGen! by Chris Wilmer'
_symmetry_space_group_name_H-M	'P1'
_symmetry_Int_Tables_number	1
_symmetry_cell_setting	triclinic
loop_
_symmetry_equiv_pos_as_xyz
  x,y,z
_cell_length_a	12.645331
_cell_length_b	18.050589
_cell_length_c	12.645324
_cell_angle_alpha	89.967661
_cell_angle_beta	89.977038
_cell_angle_gamma	90.027200
loop_
_atom_site_label
_atom_site_type_symbol
_atom_site_fract_x
_atom_site_fract_y
_atom_site_fract_z
Zn1	Zn	1.620657	-0.295623	-0.599442
Zn2	Zn	1.620505	-0.419837	-0.422180
Zn3	Zn	1.443370	-0.295663	-0.422186
Zn4	Zn	1.443320	-0.419774	-0.599396
O5	O	1.531963	-0.357724	-0.510801
O6	O	1.768984	-0.312110	-0.575945
O7	O	1.596965	-0.403409	-0.273834
O8	O	1.466972	-0.191733	-0.445722
O9	O	1.768872	-0.403370	-0.445711
O10	O	1.597224	-0.191704	-0.575951
O11	O	1.466825	-0.312179	-0.273838
O12	O	1.295017	-0.312117	-0.445677
O13	O	1.466887	-0.403262	-0.747749
O14	O	1.294980	-0.403300	-0.575872
O15	O	1.597175	-0.312049	-0.747783
O16	O	1.596917	-0.523753	-0.445666
O17	O	1.466740	-0.523707	-0.575866
C18	C	1.256533	-0.357707	-0.510770
C19	C	1.138703	-0.357717	-0.510783
C20	C	0.971127	-0.300090	-0.429329
C21	C	1.093687	-0.300239	-0.428970
C22	C	1.094162	-0.435953	-0.480267
C23	C	0.971564	-0.435638	-0.479711
C24	C	0.971560	-0.337853	-0.623067
C25	C	1.094166	-0.336106	-0.622443
C26	C	1.531835	-0.550677	-0.510784
C27	C	1.531877	-0.633222	-0.510811
C28	C	1.461157	-0.832675	-0.581589
C29	C	1.435310	-0.882125	-0.484854
C30	C	1.531982	-0.784353	-0.510825
C31	C	1.557881	-0.881984	-0.607571
C32	C	1.532080	-0.930338	-0.510847
C33	C	1.506084	-0.832716	-0.414039
C34	C	1.628699	-0.832570	-0.536821
C35	C	1.602889	-0.881999	-0.440020
C36	C	1.531922	-0.700254	-0.510814
C37	C	1.532140	-1.014434	-0.510847
C38	C	1.808468	-0.357743	-0.510832
C39	C	1.926298	-0.357750	-0.510846
C40	C	1.532043	-0.357644	-0.787307
C41	C	1.532076	-0.357609	-0.905137
C42	C	1.532120	-0.164019	-0.510842
C43	C	1.532188	-0.081473	-0.510859
C44	C	1.614360	-0.300393	-1.072722
C45	C	1.614096	-0.300187	-0.950162
C46	C	1.420400	-0.336341	-0.949615
C47	C	1.420900	-0.335906	-1.072214
C48	C	1.560563	-0.436177	-1.072333
C49	C	1.563007	-0.435782	-0.949728
C50	C	1.531945	-0.357751	-0.235371
C51	C	1.532117	-0.357576	-0.117542
H52	H	0.942914	-0.452510	-0.397672
Br53	Br	1.693972	-0.468416	-1.123885
Br54	Br	1.460719	-0.507190	-1.120633
H55	H	1.123803	-0.242224	-0.448097
Br56	Br	1.582707	-0.203139	-0.901296
Br57	Br	1.299056	-0.918401	-0.448206
H58	H	1.579747	-0.903626	-0.689379
Br59	Br	0.922048	-0.203099	-0.460862
H60	H	1.396784	-0.278450	-1.100824
H61	H	0.941908	-0.480055	-0.536495
Br62	Br	1.142717	-0.240154	-0.660813
Br63	Br	1.361190	-0.796574	-0.681194
Br64	Br	1.142740	-0.509475	-0.576128
H65	H	1.710426	-0.810790	-0.558835
Br66	Br	0.919682	-0.321748	-0.291540
H67	H	1.484123	-0.811163	-0.332209
Br68	Br	1.142489	-0.322153	-0.290361
Br69	Br	1.702793	-0.917869	-0.340186
H70	H	1.696907	-0.313507	-0.920091
H71	H	1.697445	-0.313546	-1.102215
H72	H	1.595769	-0.242489	-1.103547
H73	H	1.124813	-0.453115	-0.399108
H74	H	1.124814	-0.375039	-0.686428
H75	H	1.357537	-0.375744	-1.101860
Br76	Br	0.923244	-0.407851	-0.724301
H77	H	1.357455	-0.376710	-0.920448
Br78	Br	0.920093	-0.244424	-0.669323
Br79	Br	1.379466	-0.241641	-0.898468
H80	H	1.507457	-0.480680	-0.919075
Br81	Br	1.699993	-0.462513	-0.901288
