data_functionalizedCrystal
_audit_creation_method	'MofGen! by Chris Wilmer'
_symmetry_space_group_name_H-M	'P1'
_symmetry_Int_Tables_number	1
_symmetry_cell_setting	triclinic
loop_
_symmetry_equiv_pos_as_xyz
  x,y,z
_cell_length_a	12.759400
_cell_length_b	12.594517
_cell_length_c	12.759393
_cell_angle_alpha	90.014978
_cell_angle_beta	90.031169
_cell_angle_gamma	90.014373
loop_
_atom_site_label
_atom_site_type_symbol
_atom_site_fract_x
_atom_site_fract_y
_atom_site_fract_z
Zn1	Zn	-0.418206	1.627286	0.593886
Zn2	Zn	-0.593924	1.627180	0.418207
Zn3	Zn	-0.418260	1.449288	0.418236
Zn4	Zn	-0.593843	1.449277	0.593859
O5	O	-0.506058	1.538258	0.506047
O6	O	-0.441526	1.776218	0.570580
O7	O	-0.570679	1.603542	0.271190
O8	O	-0.271232	1.472949	0.441559
O9	O	-0.570626	1.776140	0.441510
O10	O	-0.271192	1.603723	0.570608
O11	O	-0.441619	1.472846	0.271211
O12	O	-0.441540	1.300341	0.441534
O13	O	-0.570487	1.472930	0.740884
O14	O	-0.570540	1.300333	0.570563
O15	O	-0.441447	1.603713	0.740903
O16	O	-0.740935	1.603532	0.441484
O17	O	-0.740875	1.472828	0.570535
C18	C	-0.506038	1.261717	0.506049
C19	C	-0.506055	1.143411	0.506075
C20	C	-0.779026	1.538196	0.506027
C21	C	-0.895802	1.538267	0.506053
C22	C	-0.576345	1.003421	0.576125
C23	C	-0.601923	1.074191	0.480238
C24	C	-0.480523	1.074213	0.601951
C25	C	-0.531716	1.003396	0.410107
C26	C	-0.410272	1.003411	0.531884
C27	C	-0.435814	1.074149	0.435932
C28	C	-1.060284	1.606386	0.573340
C29	C	-0.950560	1.606329	0.573310
C30	C	-0.950774	1.470265	0.438814
C31	C	-1.060496	1.470329	0.438840
C32	C	-1.115036	1.674445	0.640608
C33	C	-1.060071	1.742448	0.707846
C34	C	-0.950347	1.742391	0.707817
C35	C	-0.895588	1.674330	0.640549
C36	C	-0.232025	1.538349	0.506090
C37	C	-0.115248	1.538388	0.506108
C38	C	-0.505952	1.538332	0.780080
C39	C	-0.505907	1.538364	0.896857
C40	C	-0.506079	1.815879	0.506045
C41	C	-0.506088	1.934184	0.506044
C42	C	-0.506088	1.538245	0.233079
C43	C	-0.505837	1.538419	0.116303
C44	C	-0.438710	1.606472	0.951731
C45	C	-0.438672	1.606497	1.061455
C46	C	-0.573038	1.470304	1.061422
C47	C	-0.573070	1.470274	0.951700
C48	C	-0.371547	1.674562	0.896888
C49	C	-0.304345	1.742676	0.951762
C50	C	-0.304307	1.742701	1.061486
C51	C	-0.371471	1.674612	1.116337
H52	H	-0.635818	0.972366	0.635302
H53	H	-0.682938	1.105281	0.458388
O54	O	-0.891711	1.396863	0.366269
H55	H	-0.948366	1.349596	0.319513
O56	O	-1.119792	1.396984	0.366334
H57	H	-1.063288	1.349635	0.319567
O58	O	-1.233380	1.674588	0.640617
H59	H	-1.262302	1.653076	0.719844
O60	O	-0.371586	1.674527	0.778544
H61	H	-0.313591	1.733309	0.749624
O62	O	-0.231908	1.816116	0.892612
H63	H	-0.243230	1.804667	0.807096
H64	H	-0.249580	1.798155	1.106162
O65	O	-0.371415	1.674630	1.234683
H66	H	-0.429402	1.615839	1.263601
O67	O	-0.645480	1.396871	1.120574
H68	H	-0.634174	1.408341	1.206090
H69	H	-0.627772	1.414798	0.907020
H70	H	-0.376386	1.105009	0.376612
O71	O	-0.560467	0.962380	0.302654
H72	H	-0.560295	0.874255	0.303495
H73	H	-1.104663	1.797866	0.762607
H74	H	-0.329280	0.972297	0.553762
H75	H	-0.905596	1.797769	0.762557
O76	O	-0.451879	1.115409	0.709366
H77	H	-0.510325	1.087066	0.767375
H78	H	-0.806243	1.674297	0.640522
