data_functionalizedCrystal
_audit_creation_method	'MofGen! by Chris Wilmer'
_symmetry_space_group_name_H-M	'P1'
_symmetry_Int_Tables_number	1
_symmetry_cell_setting	triclinic
loop_
_symmetry_equiv_pos_as_xyz
  x,y,z
_cell_length_a	17.699083
_cell_length_b	14.519709
_cell_length_c	16.776229
_cell_angle_alpha	89.992406
_cell_angle_beta	89.998886
_cell_angle_gamma	83.481580
loop_
_atom_site_label
_atom_site_type_symbol
_atom_site_fract_x
_atom_site_fract_y
_atom_site_fract_z
O1	O	1.004412	0.116624	-0.066178
O2	O	0.784077	0.131797	-0.066204
O3	O	0.900087	-0.010052	-0.066183
O4	O	0.888403	0.258474	-0.066199
O5	O	0.900071	-0.010061	0.066393
O6	O	0.784062	0.131789	0.066372
O7	O	1.004397	0.116616	0.066398
Zn8	Zn	0.894227	0.124201	0.087435
Zn9	Zn	0.894247	0.124212	-0.087241
O10	O	0.888388	0.258465	0.066377
C11	C	0.755871	0.131249	0.000080
C12	C	0.671848	0.129618	0.000071
C13	C	0.899534	-0.044414	0.000105
C14	C	0.897903	-0.146789	0.000105
C15	C	0.623466	0.212881	0.000066
C16	C	0.544518	0.211343	0.000076
C17	C	0.513954	0.126541	0.000086
C18	C	0.562343	0.043272	0.000093
C19	C	0.641289	0.044811	0.000088
C20	C	0.243962	0.037064	0.000113
C21	C	0.165010	0.035531	0.000115
C22	C	0.147191	0.203596	0.000101
C23	C	0.226137	0.205135	0.000097
C24	C	0.274519	0.121866	0.000108
C25	C	0.360123	0.123535	0.000098
C26	C	0.428352	0.124872	0.000090
C27	C	0.891896	-0.521659	0.000084
C28	C	0.893564	-0.417358	0.000090
C29	C	0.894899	-0.334227	0.000095
C30	C	0.896568	-0.229920	0.000100
C31	C	1.032603	0.117164	0.000112
C32	C	1.116626	0.118795	0.000116
C33	C	0.888940	0.292827	0.000087
C34	C	0.890572	0.395202	0.000082
N35	N	0.894219	0.124192	0.206646
N36	N	0.894262	0.124213	-0.206452
C37	C	0.945603	0.061407	0.248372
C38	C	0.945607	0.061406	0.331824
C39	C	0.894230	0.124196	0.373549
C40	C	0.842840	0.186984	0.331816
C41	C	0.842833	0.186980	0.248366
C42	C	0.842867	0.187002	0.668364
C43	C	0.842880	0.187004	0.751820
C44	C	0.945642	0.061429	0.751822
C45	C	0.945635	0.061424	0.668372
C46	C	0.894242	0.124209	0.626647
C47	C	0.894238	0.124208	0.536158
C48	C	0.894238	0.124202	0.464036
H49	H	0.648344	0.281937	0.000058
O50	O	0.995453	0.000464	0.207721
C51	C	0.984402	0.013885	0.125117
H52	H	0.956256	0.087267	0.113697
H53	H	0.946327	-0.038224	0.101479
C54	C	1.096356	-0.090320	0.096268
C55	C	1.061791	-0.000188	0.082242
H56	H	1.144092	-0.099005	0.069820
H57	H	1.103800	-0.099365	0.151920
H58	H	1.064619	-0.133734	0.076569
H59	H	1.093523	0.043223	0.101950
H60	H	1.054354	0.008864	0.026592
H61	H	0.987487	0.010303	0.785804
H62	H	0.801004	0.238106	0.365793
H63	H	0.537452	-0.025775	0.000112
H64	H	0.987448	0.010281	0.365798
H65	H	0.283346	-0.030739	0.000123
O66	O	0.792995	0.248099	0.207866
C67	C	0.805404	0.339376	0.228254
H68	H	0.866000	0.339739	0.251187
H69	H	0.763495	0.366530	0.276694
C70	C	0.719293	0.401468	0.125947
C71	C	0.793720	0.401914	0.154106
H72	H	0.712082	0.440046	0.080211
H73	H	0.710930	0.339973	0.112212
H74	H	0.684377	0.424094	0.166321
H75	H	0.828634	0.379277	0.113737
H76	H	0.802089	0.463407	0.167833
H77	H	0.505128	0.279144	0.000072
O78	O	0.255700	0.287592	0.000123
C79	C	0.196066	0.360754	0.000103
H80	H	0.142403	0.335021	0.025206
H81	H	0.184929	0.386436	-0.063501
C82	C	0.284370	0.472348	0.021259
C83	C	0.218462	0.440745	0.052097
H84	H	0.298185	0.521692	0.053327
H85	H	0.324547	0.423058	0.021269
H86	H	0.275080	0.493743	-0.031745
H87	H	0.227755	0.419340	0.105095
H88	H	0.178286	0.490033	0.052096
H89	H	0.801040	0.238137	0.785791
H90	H	0.107789	0.271397	0.000096
O91	O	0.995571	0.000341	0.627965
C92	C	1.040938	-0.055063	0.682690
H93	H	1.009915	-0.056054	0.742182
H94	H	1.097201	-0.025205	0.691551
C95	C	1.094504	-0.153360	0.577065
C96	C	1.056398	-0.154584	0.650132
H97	H	1.104044	-0.214748	0.556982
H98	H	1.063942	-0.116032	0.540195
H99	H	1.141386	-0.128474	0.584460
H100	H	1.009514	-0.179458	0.642735
H101	H	1.086954	-0.191918	0.687000
H102	H	0.801023	0.238126	0.634398
H103	H	0.140129	-0.033529	0.000124
H104	H	0.680683	-0.022990	0.000091
