data_functionalizedCrystal
_audit_creation_method	'MofGen! by Chris Wilmer'
_symmetry_space_group_name_H-M	'P1'
_symmetry_Int_Tables_number	1
_symmetry_cell_setting	triclinic
loop_
_symmetry_equiv_pos_as_xyz
  x,y,z
_cell_length_a	14.971486
_cell_length_b	8.140239
_cell_length_c	14.971486
_cell_angle_alpha	90.003728
_cell_angle_beta	83.614129
_cell_angle_gamma	89.997766
loop_
_atom_site_label
_atom_site_type_symbol
_atom_site_fract_x
_atom_site_fract_y
_atom_site_fract_z
O1	O	1.186943	0.136425	0.116561
O2	O	1.686943	0.636425	0.616561
O3	O	0.926542	0.136470	0.130520
O4	O	1.426542	0.636470	0.630520
O5	O	1.063722	0.136435	-0.006659
O6	O	1.563722	0.636435	0.493341
O7	O	1.049763	0.136461	0.253741
O8	O	1.549763	0.636461	0.753741
O9	O	1.063714	-0.136792	-0.006661
O10	O	1.563714	0.363208	0.493339
O11	O	0.926535	-0.136757	0.130519
O12	O	1.426535	0.363243	0.630519
O13	O	1.186935	-0.136802	0.116560
O14	O	1.686935	0.363198	0.616560
Zn15	Zn	1.056734	-0.180160	0.123539
Zn16	Zn	1.556734	0.319840	0.623539
Zn17	Zn	1.056744	0.179828	0.123541
Zn18	Zn	1.556744	0.679828	0.623541
O19	O	1.049756	-0.136766	0.253739
O20	O	1.549756	0.363234	0.753739
C21	C	0.893214	-0.000138	0.129895
C22	C	1.393214	0.499862	0.629895
C23	C	0.793917	-0.000121	0.128024
C24	C	1.293917	0.499879	0.628024
N25	N	1.056733	-0.425843	0.123537
N26	N	1.556733	0.074157	0.623537
C27	C	0.736692	-0.000115	0.208614
C28	C	1.236692	0.499885	0.708614
C29	C	0.643392	-0.000140	0.206850
C30	C	1.143392	0.499860	0.706850
C31	C	0.607320	-0.000159	0.124497
C32	C	1.107320	0.499841	0.624497
C33	C	0.664552	-0.000169	0.043902
C34	C	1.164552	0.499831	0.543902
C35	C	0.757850	-0.000156	0.045666
C36	C	1.257850	0.499844	0.545666
C37	C	0.470090	-0.000192	0.040231
C38	C	0.970090	0.499808	0.540231
C39	C	0.376786	-0.000202	0.038466
C40	C	0.876786	0.499798	0.538466
C41	C	0.355632	-0.000176	0.201415
C42	C	0.855632	0.499824	0.701415
C43	C	0.448930	-0.000163	0.203179
C44	C	0.948930	0.499837	0.703179
C45	C	0.506156	-0.000170	0.122584
C46	C	1.006156	0.499830	0.622584
C47	C	1.220263	-0.000190	0.117185
C48	C	1.720263	0.499810	0.617185
C49	C	1.319561	-0.000196	0.119056
C50	C	1.819561	0.499804	0.619056
C51	C	1.063094	-0.000178	-0.039985
C52	C	1.563094	0.499822	0.460015
C53	C	1.061223	-0.000176	-0.139282
C54	C	1.561223	0.499824	0.360718
N55	N	1.056751	0.425511	0.123536
N56	N	1.556751	0.925511	0.623536
C57	C	1.141812	-0.000191	-0.196507
C58	C	1.641812	0.499809	0.303493
C59	C	1.140049	-0.000175	-0.289807
C60	C	1.640049	0.499825	0.210193
C61	C	1.057696	-0.000154	-0.325879
C62	C	1.557696	0.499846	0.174121
C63	C	0.977101	-0.000134	-0.268646
C64	C	1.477101	0.499866	0.231354
C65	C	0.978865	-0.000139	-0.175349
C66	C	1.478865	0.499861	0.324651
C67	C	0.973430	-0.000128	-0.463109
C68	C	1.473430	0.499872	0.036891
C69	C	0.971665	-0.000126	-0.556413
C70	C	1.471665	0.499874	-0.056413
C71	C	1.134614	-0.000163	-0.577567
C72	C	1.634614	0.499837	-0.077567
C73	C	1.136378	-0.000168	-0.484269
C74	C	1.636378	0.499832	0.015731
C75	C	1.055782	-0.000151	-0.427043
C76	C	1.555782	0.499849	0.072957
C77	C	1.050384	-0.000150	0.287065
C78	C	1.550384	0.499850	0.787065
C79	C	1.052254	-0.000141	0.386362
C80	C	1.552254	0.499859	0.886362
H81	H	0.596802	-0.000133	0.272474
H82	H	1.096802	0.499867	0.772474
H83	H	0.907800	-0.000110	-0.416517
H84	H	1.407800	0.499890	0.083483
O85	O	1.225205	-0.000184	-0.445368
O86	O	1.725205	0.499816	0.054632
H87	H	1.229908	-0.111556	-0.403379
H88	H	1.729908	0.388444	0.096621
H89	H	0.516682	-0.000201	-0.025399
H90	H	1.016682	0.499799	0.474601
O91	O	1.221546	-0.000189	-0.639282
O92	O	1.721546	0.499811	-0.139282
H93	H	1.260966	0.111149	-0.626435
H94	H	1.760966	0.611149	-0.126435
O95	O	0.775597	-0.000111	0.297438
O96	O	1.275597	0.499889	0.797438
H97	H	0.720127	-0.000133	0.353180
H98	H	1.220127	0.499867	0.853180
H99	H	1.208874	-0.000218	-0.167145
H100	H	1.708874	0.499782	0.332855
H101	H	0.635175	-0.000208	-0.023152
H102	H	1.135175	0.499792	0.476848
O103	O	0.337881	-0.000243	-0.050359
O104	O	0.837881	0.499757	0.449641
H105	H	0.295881	-0.111610	-0.055042
H106	H	0.795881	0.388390	0.444958
O107	O	0.819579	-0.000157	-0.041254
O108	O	1.319579	0.499843	0.458746
H109	H	0.778823	-0.000157	-0.098817
H110	H	1.278823	0.499843	0.401183
O111	O	1.226969	-0.000218	-0.351532
O112	O	1.726969	0.499782	0.148468
H113	H	1.284531	-0.000263	-0.310774
H114	H	1.784531	0.499737	0.189226
H115	H	0.309033	-0.000177	0.267039
H116	H	0.809033	0.499823	0.767039
O117	O	0.882844	-0.000076	-0.595326
O118	O	1.382844	0.499924	-0.095326
H119	H	0.827097	-0.000034	-0.539861
H120	H	1.327097	0.499966	-0.039861
H121	H	0.910047	-0.000108	-0.298024
H122	H	1.410047	0.499892	0.201976
H123	H	0.478296	-0.000132	0.270239
H124	H	0.978296	0.499868	0.770239
H125	H	0.913240	-0.000127	-0.128756
H126	H	1.413240	0.499873	0.371244
