data_functionalizedCrystal
_audit_creation_method	'MofGen! by Chris Wilmer'
_symmetry_space_group_name_H-M	'P1'
_symmetry_Int_Tables_number	1
_symmetry_cell_setting	triclinic
loop_
_symmetry_equiv_pos_as_xyz
  x,y,z
_cell_length_a	14.971486
_cell_length_b	13.339070
_cell_length_c	14.048226
_cell_angle_alpha	89.996915
_cell_angle_beta	89.998499
_cell_angle_gamma	99.621712
loop_
_atom_site_label
_atom_site_type_symbol
_atom_site_fract_x
_atom_site_fract_y
_atom_site_fract_z
O1	O	1.219550	0.131873	-0.079045
O2	O	0.963054	0.147665	-0.079070
O3	O	1.061865	-0.007530	-0.079057
O4	O	1.120740	0.287068	-0.079057
O5	O	1.061846	-0.007539	0.079264
O6	O	0.963035	0.147656	0.079251
O7	O	1.219531	0.131864	0.079276
Zn8	Zn	1.091280	0.139758	0.104401
Zn9	Zn	1.091305	0.139770	-0.104194
O10	O	1.120721	0.287059	0.079264
C11	C	0.929545	0.146954	0.000087
C12	C	0.829725	0.144838	0.000077
C13	C	0.795041	0.236011	0.000079
C14	C	0.701248	0.234016	0.000093
C15	C	0.642141	0.140847	0.000099
C16	C	0.676832	0.049667	0.000101
C17	C	0.770623	0.051663	0.000093
C18	C	0.481342	0.045514	0.000114
C19	C	0.387545	0.043518	0.000119
C20	C	0.411968	0.227867	0.000114
C21	C	0.505759	0.229863	0.000106
C22	C	0.540442	0.138682	0.000106
C23	C	1.051910	-0.045236	0.000101
C24	C	1.022266	-0.157574	0.000094
C25	C	1.252762	-0.522088	0.000117
C26	C	1.280617	-0.416541	0.000129
C27	C	1.216032	-0.351794	0.000120
C28	C	1.123587	-0.392604	0.000100
C29	C	1.095729	-0.498161	0.000096
C30	C	1.058999	-0.327867	0.000098
C31	C	0.966554	-0.368677	0.000078
C32	C	0.938701	-0.474224	0.000073
C33	C	1.003286	-0.538970	0.000082
C34	C	1.086856	-0.222311	0.000102
C35	C	0.929823	-0.198383	0.000081
C36	C	0.901968	-0.303930	0.000069
C37	C	1.253040	0.132575	0.000117
C38	C	1.352860	0.134691	0.000121
C39	C	1.130675	0.324765	0.000103
C40	C	1.160319	0.437102	0.000104
N41	N	1.091270	0.139749	0.246761
N42	N	1.091321	0.139771	-0.246555
C43	C	1.135049	0.071057	0.296585
C44	C	1.135055	0.071057	0.396243
C45	C	1.091287	0.139754	0.446075
C46	C	1.047502	0.208449	0.396244
C47	C	1.047491	0.208444	0.296589
C48	C	1.047529	0.208457	0.603959
C49	C	1.047541	0.208463	0.703621
C50	C	1.135094	0.071069	0.703613
C51	C	1.135083	0.071064	0.603957
C52	C	1.091299	0.139761	0.554133
H53	H	1.162125	-0.189094	0.000119
O54	O	0.613080	-0.050821	0.000113
H55	H	0.652959	-0.113885	0.000122
H56	H	1.011899	0.264403	0.744190
H57	H	1.011872	0.264394	0.563395
H58	H	1.011840	0.264379	0.256023
H59	H	0.673013	0.308258	0.000093
H60	H	1.170703	0.015122	0.436809
O61	O	1.182285	-0.003031	0.550203
H62	H	1.212724	-0.050807	0.601589
H63	H	1.355886	-0.383322	0.000147
O64	O	0.323789	-0.056967	0.000138
H65	H	0.363661	-0.120036	0.000153
H66	H	1.170744	0.015134	0.744185
H67	H	1.305338	-0.574813	0.000132
O68	O	0.973250	-0.652816	0.000074
H69	H	0.932028	-0.675477	-0.064465
O70	O	0.802263	-0.347957	0.000054
H71	H	0.762027	-0.285210	0.000042
O72	O	0.858789	0.336502	0.000070
H73	H	0.902111	0.341810	0.064592
H74	H	0.509578	-0.028735	0.000115
O75	O	0.860150	-0.128566	0.000074
H76	H	0.869086	-0.079904	-0.064457
H77	H	0.863426	-0.507447	0.000064
O78	O	1.182253	-0.003042	0.242838
H79	H	1.212687	-0.050815	0.294231
O80	O	1.000301	0.282555	0.449985
H81	H	0.946250	0.239887	0.495410
O82	O	0.374560	0.326212	0.000123
H83	H	0.431417	0.391332	0.000106
H84	H	0.798860	-0.022579	0.000091
O85	O	1.246067	-0.237953	0.000130
H86	H	1.287313	-0.215281	-0.064396
O87	O	0.569515	0.330348	0.000112
H88	H	0.529642	0.393417	0.000127
