data_functionalizedCrystal
_audit_creation_method	'MofGen! by Chris Wilmer'
_symmetry_space_group_name_H-M	'P1'
_symmetry_Int_Tables_number	1
_symmetry_cell_setting	triclinic
loop_
_symmetry_equiv_pos_as_xyz
  x,y,z
_cell_length_a	14.908571
_cell_length_b	16.625546
_cell_length_c	14.908803
_cell_angle_alpha	86.716477
_cell_angle_beta	89.810884
_cell_angle_gamma	86.718495
loop_
_atom_site_label
_atom_site_type_symbol
_atom_site_fract_x
_atom_site_fract_y
_atom_site_fract_z
Zn1	Zn	1.345147	-0.420950	0.587549
Zn2	Zn	1.353757	-0.548440	0.437183
Zn3	Zn	1.203499	-0.405416	0.428549
Zn4	Zn	1.194752	-0.547524	0.578833
O5	O	1.274289	-0.480583	0.508029
O6	O	1.472113	-0.444746	0.574863
O7	O	1.341088	-0.523351	0.310215
O8	O	1.222346	-0.294649	0.449675
O9	O	1.478439	-0.538413	0.464390
O10	O	1.326414	-0.306062	0.566491
O11	O	1.230694	-0.418272	0.303872
O12	O	1.076514	-0.417383	0.441224
O13	O	1.207439	-0.536851	0.705812
O14	O	1.070089	-0.521789	0.551637
O15	O	1.317933	-0.443858	0.712215
O16	O	1.332607	-0.661147	0.455939
O17	O	1.215787	-0.660473	0.560009
C18	C	1.040677	-0.467801	0.494548
C19	C	0.940735	-0.462354	0.488803
C20	C	0.746300	-0.560988	0.592824
C21	C	0.652396	-0.555872	0.587429
C22	C	0.659021	-0.447004	0.472622
C23	C	0.752925	-0.452119	0.478017
C24	C	0.796561	-0.509114	0.538120
C25	C	0.890468	-0.514233	0.543510
C26	C	0.897090	-0.405361	0.428708
C27	C	0.803186	-0.400246	0.423312
C28	C	1.274206	-0.690067	0.507986
C29	C	1.274251	-0.779691	0.508003
C30	C	1.274402	-1.107880	0.508105
C31	C	1.274357	-1.016568	0.508079
C32	C	1.274326	-0.943789	0.508053
C33	C	1.274282	-0.852471	0.508028
C34	C	1.508813	-0.493415	0.521562
C35	C	1.608753	-0.498883	0.527329
C36	C	1.260750	-0.491985	0.742550
C37	C	1.254981	-0.496844	0.842489
C38	C	1.274395	-0.270283	0.508092
C39	C	1.274441	-0.180665	0.508120
C40	C	1.359194	-0.409121	1.036954
C41	C	1.353776	-0.413684	1.130856
C42	C	1.238722	-0.510527	1.124196
C43	C	1.244141	-0.505965	1.030294
C44	C	1.304379	-0.455261	0.986677
C45	C	1.309801	-0.450703	0.892773
C46	C	1.194744	-0.547541	0.886115
C47	C	1.189326	-0.552104	0.980016
C48	C	1.287770	-0.469243	1.274419
C49	C	1.293543	-0.464386	1.174480
H50	H	0.925995	-0.560643	0.592447
H51	H	0.767644	-0.353840	0.374381
H52	H	0.938023	-0.363123	0.384161
H53	H	1.358852	-0.409418	0.857262
H54	H	0.611477	-0.598112	0.631977
H55	H	1.140279	-0.593384	1.015542
C56	C	1.425450	-0.353350	0.988972
H57	H	1.457318	-0.326521	1.032366
H58	H	1.466725	-0.384552	0.954588
H59	H	1.393176	-0.314556	0.950371
H60	H	0.623475	-0.400596	0.423695
C61	C	0.794304	-0.623680	0.658929
H62	H	0.750920	-0.653841	0.690739
H63	H	0.832910	-0.659081	0.626568
H64	H	0.828685	-0.596789	0.700276
C65	C	1.414077	-0.362935	1.186159
H66	H	1.450731	-0.332091	1.146730
H67	H	1.377587	-0.327705	1.220818
H68	H	1.451130	-0.397706	1.225038
C69	C	1.134444	-0.598296	0.830808
H70	H	1.146293	-0.588315	0.768635
H71	H	1.146690	-0.653935	0.846944
H72	H	1.073144	-0.583936	0.842713
C73	C	1.172459	-0.566287	1.172185
H74	H	1.177086	-0.562393	1.235310
H75	H	1.112941	-0.550434	1.153311
H76	H	1.186481	-0.620438	1.157551
