data_functionalizedCrystal
_audit_creation_method	'MofGen! by Chris Wilmer'
_symmetry_space_group_name_H-M	'P1'
_symmetry_Int_Tables_number	1
_symmetry_cell_setting	triclinic
loop_
_symmetry_equiv_pos_as_xyz
  x,y,z
_cell_length_a	14.971486
_cell_length_b	10.489741
_cell_length_c	14.048226
_cell_angle_alpha	89.993872
_cell_angle_beta	89.998499
_cell_angle_gamma	84.076651
loop_
_atom_site_label
_atom_site_type_symbol
_atom_site_fract_x
_atom_site_fract_y
_atom_site_fract_z
O1	O	1.187893	0.166222	-0.079050
O2	O	0.927606	0.186127	-0.079076
O3	O	1.063672	-0.009492	-0.079057
O4	O	1.051827	0.361841	-0.079070
O5	O	1.063656	-0.009503	0.079264
O6	O	0.927590	0.186116	0.079245
O7	O	1.187876	0.166211	0.079271
Zn8	Zn	1.057730	0.176161	0.104395
Zn9	Zn	1.057752	0.176177	-0.104200
O10	O	1.051810	0.361830	0.079252
C11	C	0.894268	0.185232	0.000081
C12	C	0.794956	0.182564	0.000071
C13	C	0.738385	0.297485	0.000069
C14	C	0.645071	0.294971	0.000083
C15	C	0.608330	0.177534	0.000093
C16	C	0.664909	0.062604	0.000098
C17	C	0.758221	0.065120	0.000091
C18	C	0.470416	0.057369	0.000112
C19	C	0.377098	0.054853	0.000117
C20	C	0.357267	0.287220	0.000104
C21	C	0.450579	0.289736	0.000096
C22	C	0.507151	0.174805	0.000100
C23	C	1.062769	-0.057019	0.000103
C24	C	1.060093	-0.198617	0.000101
C25	C	0.973518	-0.265755	0.000085
C26	C	1.014407	-0.358357	0.078150
C27	C	1.014444	-0.358320	-0.077942
C28	C	1.101017	-0.289354	0.078230
C29	C	1.101042	-0.289308	-0.077933
C30	C	1.141994	-0.381882	0.000151
C31	C	1.221215	0.167106	0.000111
C32	C	1.320527	0.169774	0.000115
C33	C	1.052713	0.409357	0.000090
C34	C	1.055390	0.550955	0.000085
N35	N	1.057722	0.176150	0.246755
N36	N	1.057768	0.176178	-0.246561
C37	C	1.117991	0.089566	0.296582
C38	C	1.117997	0.089565	0.396240
C39	C	1.057738	0.176156	0.446069
C40	C	0.997462	0.262744	0.396235
C41	C	0.997452	0.262738	0.296580
C42	C	0.997488	0.262754	0.603950
C43	C	0.997498	0.262762	0.703612
C44	C	1.118033	0.089581	0.703610
C45	C	1.118023	0.089574	0.603954
C46	C	1.057748	0.176165	0.554127
H47	H	0.599014	0.388551	0.000080
H48	H	0.480489	0.385363	0.000079
H49	H	0.311201	0.380801	0.000105
H50	H	0.516476	-0.036219	0.000116
H51	H	0.948402	0.333261	0.563384
C52	C	1.009495	-0.363007	-0.248732
C53	C	0.964991	-0.399567	-0.167040
H54	H	0.978963	-0.388476	-0.303732
H55	H	1.010360	-0.272596	-0.249058
H56	H	1.069340	-0.403175	-0.248814
H57	H	0.905147	-0.359391	-0.166954
H58	H	0.964116	-0.489995	-0.166714
H59	H	1.137650	-0.258682	-0.143927
H60	H	0.347187	-0.040774	0.000127
H61	H	0.634987	-0.033015	0.000120
C62	C	1.009443	-0.363151	0.248937
C63	C	0.964951	-0.399668	0.167234
H64	H	0.978903	-0.388646	0.303930
H65	H	1.069283	-0.403306	0.249022
H66	H	1.010304	-0.272727	0.249277
H67	H	0.964096	-0.490093	0.166891
H68	H	0.905095	-0.359516	0.167150
C69	C	0.878319	0.433931	0.306586
C70	C	0.931206	0.357920	0.241806
H71	H	0.837423	0.492696	0.272770
H72	H	0.845811	0.380764	0.345464
H73	H	0.915857	0.479900	0.345446
H74	H	0.893668	0.311944	0.202951
H75	H	0.963716	0.411095	0.202912
H76	H	0.768291	0.393115	0.000060
H77	H	1.167065	0.019059	0.256018
C78	C	0.875931	0.290138	0.508332
C79	C	0.931224	0.357925	0.451010
H80	H	0.835044	0.348904	0.542150
H81	H	0.843414	0.236978	0.469467
H82	H	0.911839	0.238576	0.552264
H83	H	0.895316	0.409480	0.407073
H84	H	0.963743	0.411106	0.489879
H85	H	0.804281	-0.028461	0.000092
H86	H	1.213239	-0.432131	0.000202
C87	C	1.237164	-0.081615	0.613956
C88	C	1.184260	-0.005608	0.549179
H89	H	1.278051	-0.140382	0.580138
H90	H	1.269683	-0.028445	0.652811
H91	H	1.199636	-0.127581	0.652839
H92	H	1.221788	0.040366	0.510300
H93	H	1.151740	-0.058784	0.510308
C94	C	1.136355	-0.083987	0.815679
C95	C	1.184287	-0.005611	0.758370
H96	H	1.177261	-0.142754	0.849482
H97	H	1.100478	-0.032424	0.859617
H98	H	1.098831	-0.129954	0.776801
H99	H	1.221807	0.040363	0.797249
H100	H	1.220181	-0.057181	0.714427
C101	C	1.152437	-0.115168	0.166650
C102	C	1.150412	-0.248321	0.167430
H103	H	1.182924	-0.089836	0.221722
H104	H	1.182993	-0.090992	0.111297
H105	H	1.092763	-0.074373	0.166419
H106	H	1.210087	-0.289116	0.167654
H107	H	1.119858	-0.272509	0.222798
C108	C	0.878323	0.433903	0.693611
C109	C	0.931244	0.357919	0.758387
H110	H	0.837414	0.492638	0.727429
H111	H	0.915832	0.479894	0.654737
H112	H	0.845822	0.380705	0.654745
H113	H	0.963750	0.411117	0.797248
H114	H	0.893730	0.311924	0.797277
H115	H	1.167073	0.019061	0.436808
H116	H	0.902336	-0.215280	0.000157
