data_functionalizedCrystal
_audit_creation_method	'MofGen! by Chris Wilmer'
_symmetry_space_group_name_H-M	'P1'
_symmetry_Int_Tables_number	1
_symmetry_cell_setting	triclinic
loop_
_symmetry_equiv_pos_as_xyz
  x,y,z
_cell_length_a	10.489741
_cell_length_b	8.965430
_cell_length_c	14.853567
_cell_angle_alpha	90.003105
_cell_angle_beta	95.912948
_cell_angle_gamma	89.994421
loop_
_atom_site_label
_atom_site_type_symbol
_atom_site_fract_x
_atom_site_fract_y
_atom_site_fract_z
O1	O	1.692613	0.123933	-0.127191
O2	O	1.321283	0.123955	-0.139130
O3	O	1.516867	0.123948	-0.001986
O4	O	1.497029	0.123940	-0.264335
O5	O	1.516876	-0.124131	-0.001991
O6	O	1.321292	-0.124124	-0.139134
O7	O	1.692622	-0.124146	-0.127195
Cu8	Cu	1.506958	-0.146786	-0.133165
Cu9	Cu	1.506947	0.146596	-0.133160
O10	O	1.497038	-0.124139	-0.264339
C11	C	1.273766	-0.000081	-0.138230
C12	C	1.132167	-0.000072	-0.135533
C13	C	1.065006	-0.000084	-0.048272
C14	C	0.972412	0.122228	-0.089491
C15	C	0.972455	-0.122359	-0.089516
C16	C	1.041438	0.122340	-0.176787
C17	C	1.041491	-0.122356	-0.176800
C18	C	0.948923	-0.000015	-0.218083
N19	N	1.506975	-0.353135	-0.133168
C20	C	1.597455	-0.450404	-0.069748
C21	C	1.482164	-0.549801	-0.051489
C22	C	1.622221	-0.549866	-0.151369
C23	C	1.391626	-0.450343	-0.114868
C24	C	1.531759	-0.450399	-0.214784
C25	C	1.416385	-0.549751	-0.196559
C26	C	1.740139	-0.000106	-0.128095
C27	C	1.881738	-0.000105	-0.130793
C28	C	1.515973	-0.000087	0.031605
C29	C	1.513279	-0.000074	0.131704
N30	N	1.506941	0.352945	-0.133150
C31	C	1.497933	-0.000100	-0.297930
C32	C	1.500626	-0.000104	-0.398029
C33	C	1.385712	-0.000095	0.544953
C34	C	1.618070	-0.000108	0.564931
C35	C	1.620602	-0.000100	0.470883
C36	C	1.505688	-0.000091	0.413866
C37	C	1.388241	-0.000091	0.450896
C38	C	1.738047	-0.000115	0.433846
C39	C	1.740585	-0.000108	0.339793
C40	C	1.625669	-0.000088	0.282773
C41	C	1.508217	-0.000087	0.319809
C42	C	1.393303	-0.000078	0.262791
C43	C	1.275850	-0.000065	0.299825
C44	C	1.273325	-0.000071	0.393877
C45	C	1.628193	-0.000083	0.188722
C46	C	1.395832	-0.000074	0.168735
H47	H	0.941896	-0.225764	-0.052580
H48	H	0.941809	0.225637	-0.052567
H49	H	1.072126	-0.225770	-0.213694
N50	N	1.744506	-0.604708	-0.170680
N51	N	1.842795	-0.572873	-0.119422
H52	H	1.929163	-0.611603	-0.133053
N53	N	1.748154	-0.000066	0.150894
N54	N	1.775492	0.104513	0.100653
H55	H	1.860222	0.104529	0.073938
N56	N	1.735456	-0.000138	0.623157
N57	N	1.813532	-0.104714	0.619334
H58	H	1.896443	-0.104736	0.660459
N59	N	1.153371	-0.000054	0.431722
N60	N	1.151134	-0.000062	0.515697
H61	H	1.066418	-0.000052	0.542430
H62	H	1.461178	-0.593466	0.017539
H63	H	1.294128	-0.406811	-0.099388
N64	N	1.278447	-0.000030	0.110494
N65	N	1.200381	0.104557	0.114311
H66	H	1.117478	0.104592	0.073179
N67	N	1.855419	-0.000155	0.492088
N68	N	1.879922	-0.104730	0.546797
H69	H	1.962819	-0.104759	0.587936
H70	H	1.339771	-0.593097	-0.250186
N71	N	1.860554	-0.000139	0.301968
N72	N	1.938064	-0.104718	0.319154
H73	H	2.022794	-0.104739	0.292439
H74	H	1.552781	-0.406703	-0.283791
H75	H	1.673898	-0.406782	-0.016088
H76	H	1.182287	-0.000068	0.253390
N77	N	1.128310	0.000034	0.041728
N78	N	1.109278	-0.103916	0.094803
H79	H	1.153986	-0.103830	0.158365
N80	N	1.265755	-0.000101	0.582794
N81	N	1.238430	-0.104671	0.633046
H82	H	1.153710	-0.104678	0.659775
N83	N	1.079593	0.252183	-0.223086
N84	N	1.195238	0.273168	-0.232613
H85	H	1.222189	0.364862	-0.265316
H86	H	0.898693	0.000050	-0.289892
