data_functionalizedCrystal
_audit_creation_method	'MofGen! by Chris Wilmer'
_symmetry_space_group_name_H-M	'P1'
_symmetry_Int_Tables_number	1
_symmetry_cell_setting	triclinic
loop_
_symmetry_equiv_pos_as_xyz
  x,y,z
_cell_length_a	35.277591
_cell_length_b	35.282833
_cell_length_c	35.277630
_cell_angle_alpha	89.995914
_cell_angle_beta	59.993636
_cell_angle_gamma	119.984925
loop_
_atom_site_label
_atom_site_type_symbol
_atom_site_fract_x
_atom_site_fract_y
_atom_site_fract_z
O1	O	-0.334278	-0.322989	0.594414
O2	O	-0.256668	-0.267882	0.461665
O3	O	-0.334294	-0.267882	0.539291
O4	O	-0.256652	-0.322989	0.516788
O5	O	-0.271265	-0.204854	0.539289
O6	O	-0.193639	-0.204854	0.461663
O7	O	-0.271249	-0.259961	0.594413
Cu8	Cu	-0.226689	-0.226653	0.528038
Cu9	Cu	-0.301228	-0.301191	0.528040
O10	O	-0.193623	-0.259961	0.516786
C11	C	-0.465869	-0.095943	0.562171
C12	C	-0.443285	-0.050336	0.562491
C13	C	-0.534509	-0.095941	0.562168
C14	C	-0.511821	-0.050334	0.562488
C15	C	-0.465887	-0.027319	0.562168
C16	C	-0.511803	-0.118854	0.562491
C17	C	-0.411497	-0.207102	0.549751
C18	C	-0.386373	-0.228855	0.546239
C19	C	-0.339409	-0.205408	0.544477
C20	C	-0.312160	-0.228988	0.540660
C21	C	-0.317574	-0.160207	0.546230
C22	C	-0.342703	-0.138461	0.549747
C23	C	-0.389666	-0.161910	0.551508
C24	C	-0.342318	0.138162	0.549739
C25	C	-0.317060	0.185025	0.546225
C26	C	-0.338752	0.208537	0.544457
C27	C	-0.311366	0.259350	0.540639
C28	C	-0.385712	0.185180	0.546209
C29	C	-0.410974	0.138317	0.549732
C30	C	-0.389270	0.114811	0.551494
C31	C	-0.687577	-0.207094	0.549736
C32	C	-0.730928	-0.228843	0.546215
C33	C	-0.752685	-0.205393	0.544448
C34	C	-0.799687	-0.228971	0.540628
C35	C	-0.731086	-0.160195	0.546200
C36	C	-0.687735	-0.138448	0.549719
C37	C	-0.665986	-0.161904	0.551491
C38	C	-0.416908	-0.138324	0.555318
C39	C	-0.438624	-0.119525	0.558357
C40	C	-0.581512	-0.119521	0.558349
C41	C	-0.618980	-0.138318	0.555307
C42	C	-0.438497	0.023493	0.558351
C43	C	-0.416664	0.063996	0.555309
O44	O	-0.925297	-0.322977	0.516765
O45	O	-0.815069	-0.267867	0.539264
O46	O	-0.815057	-0.267870	0.461640
O47	O	-0.925309	-0.322973	0.594390
O48	O	-0.815076	-0.204842	0.461637
O49	O	-0.815088	-0.204839	0.539261
O50	O	-0.925315	-0.259948	0.516763
Cu51	Cu	-0.870203	-0.226639	0.528012
Cu52	Cu	-0.870182	-0.301177	0.528015
O53	O	-0.925327	-0.259945	0.594387
C54	C	-0.061849	-0.095943	0.089504
C55	C	-0.015922	-0.050336	0.066585
C56	C	-0.061847	-0.095945	0.158146
C57	C	-0.015920	-0.050337	0.135122
C58	C	0.006774	-0.027321	0.089502
C59	C	-0.084439	-0.118856	0.135124
C60	C	-0.185436	-0.207100	0.047593
C61	C	-0.210703	-0.228851	0.025989
C62	C	-0.189019	-0.205402	-0.019217
C63	C	-0.216418	-0.228980	-0.042641
C64	C	-0.142066	-0.160201	-0.042820
C65	C	-0.116799	-0.138456	-0.021218
C66	C	-0.138487	-0.161907	0.023991
C67	C	0.159826	0.138164	-0.021686
C68	C	0.203175	0.185027	-0.043444
C69	C	0.224920	0.208538	-0.019991
C70	C	0.271916	0.259351	-0.043575
C71	C	0.203317	0.185179	0.025222
C72	C	0.159976	0.138315	0.046976
C73	C	0.138231	0.114811	0.023517
C74	C	-0.185428	-0.207104	0.323680
C75	C	-0.210696	-0.228854	0.370559
C76	C	-0.189010	-0.205406	0.394074
C77	C	-0.216407	-0.228986	0.444905
C78	C	-0.142061	-0.160207	0.370710
C79	C	-0.116796	-0.138459	0.323833
C80	C	-0.138482	-0.161913	0.300319
C81	C	-0.111088	-0.138322	0.047412
C82	C	-0.089248	-0.119524	0.066082
C83	C	-0.089244	-0.119527	0.208974
C84	C	-0.111081	-0.138325	0.249489
C85	C	0.053769	0.023492	0.065914
C86	C	0.091231	0.063996	0.047111
C87	C	-0.071197	-0.364400	0.504464
C88	C	-0.024420	-0.341014	0.507681
C89	C	-0.093884	-0.410006	0.504143
C90	C	-0.139844	-0.364403	0.504469
C91	C	-0.166465	-0.341020	0.507692
C92	C	-0.162427	-0.410009	0.504148
C93	C	-0.139820	-0.433023	0.504466
C94	C	-0.166414	-0.483010	0.507684
C95	C	-0.093909	-0.341490	0.504146
C96	C	-0.187901	-0.523394	0.510285
C97	C	0.013370	-0.322121	0.510281
C98	C	-0.187972	-0.322129	0.510296
C99	C	-0.214856	-0.574058	0.513548
C100	C	0.060781	-0.298418	0.513542
C101	C	-0.214954	-0.298430	0.513563
O102	O	-0.256552	0.408811	0.516769
O103	O	-0.334139	0.276107	0.539266
O104	O	-0.256531	0.353700	0.461642
O105	O	-0.334160	0.331219	0.594393
O106	O	-0.193488	0.353696	0.461646
O107	O	-0.271096	0.276104	0.539270
O108	O	-0.193509	0.408808	0.516773
Cu109	Cu	-0.226546	0.342455	0.528022
Cu110	Cu	-0.301102	0.342460	0.528017
O111	O	-0.271117	0.331215	0.594397
O112	O	0.397509	0.408810	-0.074557
O113	O	0.287301	0.276106	-0.019434
O114	O	0.287269	0.353697	-0.019421
O115	O	0.397541	0.331219	-0.074570
O116	O	0.287267	0.353698	-0.082467
O117	O	0.287300	0.276107	-0.082480
O118	O	0.397507	0.408812	-0.137603
Cu119	Cu	0.342403	0.342460	-0.115798
Cu120	Cu	0.342405	0.342458	-0.041239
O121	O	0.397539	0.331221	-0.137616
O122	O	-0.271265	-0.259956	-0.137290
O123	O	-0.193657	-0.204846	-0.082172
O124	O	-0.271285	-0.204851	-0.082157
O125	O	-0.193636	-0.259951	-0.137305
O126	O	-0.334312	-0.267880	-0.019110
O127	O	-0.256683	-0.267875	-0.019125
O128	O	-0.334291	-0.322985	-0.074243
Cu129	Cu	-0.301242	-0.301185	-0.040927
Cu130	Cu	-0.226706	-0.226646	-0.115488
O131	O	-0.256662	-0.322980	-0.074258
C132	C	-0.456639	-0.433027	0.821281
C133	C	-0.503408	-0.483014	0.844674
C134	C	-0.433945	-0.410011	0.844200
C135	C	-0.388012	-0.364406	0.752635
C136	C	-0.361406	-0.341022	0.702632
C137	C	-0.365422	-0.341494	0.775658
C138	C	-0.388015	-0.364404	0.821280
C139	C	-0.361413	-0.341020	0.844671
C140	C	-0.433941	-0.410012	0.775660
C141	C	-0.339919	-0.322127	0.863569
C142	C	-0.541193	-0.523398	0.863573
C143	C	-0.339910	-0.322130	0.662233
C144	C	-0.312956	-0.298426	0.887277
C145	C	-0.588596	-0.574062	0.887282
C146	C	-0.312943	-0.298430	0.611552
C147	C	-1.139879	-0.364387	0.821257
C148	C	-1.166500	-0.341002	0.844649
C149	C	-1.162465	-0.409993	0.844177
C150	C	-1.071226	-0.364388	0.752612
C151	C	-1.024444	-0.341005	0.702608
C152	C	-1.093917	-0.409994	0.775636
C153	C	-1.139857	-0.433009	0.821259
C154	C	-1.166455	-0.482995	0.844652
C155	C	-1.093939	-0.341476	0.775635
C156	C	-1.187945	-0.523379	0.863551
C157	C	-1.188007	-0.322110	0.863547
C158	C	-0.986649	-0.322114	0.662209
C159	C	-1.214903	-0.574043	0.887260
C160	C	-1.214989	-0.298409	0.887255
C161	C	-0.939233	-0.298414	0.611527
C162	C	-0.387922	0.318923	0.821265
C163	C	-0.361328	0.322119	0.844665
C164	C	-0.433847	0.318631	0.844177
C165	C	-0.387905	0.318937	0.752614
C166	C	-0.361293	0.322148	0.702611
C167	C	-0.433830	0.318645	0.775630
C168	C	-0.456532	0.318973	0.821250
C169	C	-0.503297	0.322221	0.844634
C170	C	-0.365324	0.318596	0.775645
C171	C	-0.541078	0.324847	0.863525
C172	C	-0.339842	0.324701	0.863569
C173	C	-0.339793	0.324743	0.662214
C174	C	-0.588476	0.328140	0.887225
C175	C	-0.312887	0.327940	0.887285
C176	C	-0.312820	0.327997	0.611533
C177	C	-0.465815	-0.027633	0.089460
C178	C	-0.443208	-0.050650	0.066543
C179	C	-0.534447	-0.096252	0.158109
C180	C	-0.511736	-0.119165	0.135087
C181	C	-0.465796	-0.096256	0.089465
C182	C	-0.511755	-0.050646	0.135083
C183	C	-0.411512	0.137849	0.047534
C184	C	-0.386403	0.184712	0.025926
C185	C	-0.339433	0.208218	-0.019284
C186	C	-0.312200	0.259032	-0.042712
C187	C	-0.317576	0.184858	-0.042885
C188	C	-0.342689	0.137998	-0.021278
C189	C	-0.389659	0.114493	0.023933
C190	C	-0.342156	-0.138167	-0.021722
C191	C	-0.316876	-0.159768	-0.043478
C192	C	-0.338555	-0.204959	-0.020022
C193	C	-0.311145	-0.228382	-0.043604
C194	C	-0.385521	-0.228552	0.025194
C195	C	-0.410805	-0.206955	0.046946
C196	C	-0.389114	-0.161758	0.023483
C197	C	-0.687560	-0.138146	0.323646
C198	C	-0.730919	-0.159741	0.370527
C199	C	-0.752662	-0.204934	0.394046
C200	C	-0.799673	-0.228350	0.444878
C201	C	-0.731041	-0.228529	0.370684
C202	C	-0.687682	-0.206932	0.323805
C203	C	-0.665948	-0.161741	0.300288
C204	C	-0.416883	0.063681	0.047360
C205	C	-0.438586	0.023179	0.066034
C206	C	-0.581458	-0.119666	0.208939
C207	C	-0.618932	-0.138329	0.249456
C208	C	-0.438383	-0.119675	0.065878
C209	C	-0.416532	-0.138341	0.047076
O210	O	-1.271133	-0.723878	0.917820
O211	O	-1.193551	-0.591175	0.862693
O212	O	-1.271143	-0.668771	0.862690
O213	O	-1.193541	-0.646282	0.917822
O214	O	-1.334199	-0.668771	0.925740
O215	O	-1.256607	-0.591176	0.925743
O216	O	-1.334190	-0.723878	0.980869
Cu217	Cu	-1.301156	-0.657527	0.959063
Cu218	Cu	-1.226585	-0.657526	0.884499
O219	O	-1.256597	-0.646283	0.980872
C220	C	0.006737	0.376568	0.089470
C221	C	-0.015959	0.376890	0.066547
C222	C	-0.061914	0.376573	0.158113
C223	C	-0.084506	0.376895	0.135087
C224	C	-0.061901	0.376572	0.089464
C225	C	-0.015972	0.376891	0.135092
C226	C	0.159841	0.364135	0.047563
C227	C	0.203206	0.360619	0.025959
C228	C	0.224965	0.358854	-0.019250
C229	C	0.271979	0.355034	-0.042674
C230	C	0.203359	0.360608	-0.042856
C231	C	0.160002	0.364130	-0.021254
C232	C	0.138243	0.365893	0.023957
C233	C	-0.116218	0.364150	-0.021738
C234	C	-0.141330	0.360639	-0.043500
C235	C	-0.188302	0.358876	-0.020048
C236	C	-0.215539	0.355062	-0.043636
C237	C	-0.210157	0.360632	0.025168
C238	C	-0.185041	0.364151	0.046925
C239	C	-0.138069	0.365908	0.023467
C240	C	-0.116281	0.364154	0.323656
C241	C	-0.141410	0.360638	0.370538
C242	C	-0.188382	0.358877	0.394052
C243	C	-0.215632	0.355062	0.444884
C244	C	-0.210225	0.360630	0.370685
C245	C	-0.185095	0.364144	0.323805
C246	C	-0.138120	0.365911	0.300293
C247	C	0.091226	0.369708	0.047379
C248	C	0.053750	0.372750	0.066048
C249	C	-0.089160	0.372760	0.208944
C250	C	-0.110877	0.369722	0.249461
C251	C	-0.089134	0.372758	0.065872
C252	C	-0.110840	0.369720	0.047065
H253	H	-0.530785	-0.156324	0.563000
H254	H	-1.074904	-0.428469	0.757152
Cl255	Cl	-0.064548	-0.438538	0.503355
Cl256	Cl	-0.269280	0.358411	0.400245
Cl257	Cl	-0.660233	-0.236580	0.551960
H258	H	-1.199431	-0.428468	0.881663
H259	H	-1.074951	-0.304005	0.757151
Cl260	Cl	-0.463262	-0.438541	0.747120
H261	H	-0.449209	0.119302	0.551161
Cl262	Cl	-0.541052	-0.177016	0.163630
H263	H	-0.452791	0.318183	0.757125
Cl264	Cl	-0.315255	-0.081643	0.551953
Cl265	Cl	-0.057775	-0.081638	-0.050891
Cl266	Cl	-0.660506	-0.236596	0.294438
Cl267	Cl	-0.463185	0.317839	0.902050
H268	H	-0.748519	-0.140525	0.389547
H269	H	-0.248401	0.359202	0.044261
Cl270	Cl	-0.308262	0.317775	0.747112
Cl271	Cl	-0.386132	-0.022124	0.008671
Cl272	Cl	-0.541099	-0.022115	0.163620
Cl273	Cl	0.132493	0.366354	0.104398
H274	H	-0.199391	-0.428487	0.503635
H275	H	-0.078031	0.365593	0.304515
H276	H	-0.278825	0.204039	0.544797
Cl277	Cl	-0.463277	-0.438535	0.902075
Cl278	Cl	-0.660228	-0.081330	0.294086
H279	H	-0.449757	0.118716	0.084346
H280	H	-0.404202	0.203728	0.045145
Cl281	Cl	-0.258534	0.214408	-0.099718
Cl282	Cl	0.230658	0.214729	0.054705
Cl283	Cl	-0.758072	-0.285659	0.544006
H284	H	-0.124404	-0.141115	0.389859
Cl285	Cl	-0.315213	0.108634	-0.050948
H286	H	-0.324495	-0.101369	-0.040830
H287	H	0.142125	0.119029	-0.040791
H288	H	-0.278636	-0.140555	-0.080291
H289	H	-0.403172	-0.265348	0.044293
H290	H	-0.074918	-0.304017	0.503629
Cl291	Cl	-0.470537	-0.236585	0.551967
Cl292	Cl	-0.308362	-0.283641	0.747120
H293	H	-0.279338	-0.141121	0.544797
H294	H	-0.449046	-0.226168	0.083758
H295	H	-0.203099	-0.226199	0.084403
Cl296	Cl	-0.758370	-0.285342	0.400250
Cl297	Cl	-0.141589	0.377684	0.163625
H298	H	0.003054	0.377414	0.029059
H299	H	0.003029	0.377413	0.153575
H300	H	-0.123621	0.359212	0.389560
H301	H	-0.404153	-0.265655	0.544810
Cl302	Cl	0.230362	0.358412	0.055636
Cl303	Cl	0.230326	0.214389	-0.100277
Cl304	Cl	0.230716	0.358392	-0.099689
Cl305	Cl	-0.212513	0.366361	0.103762
H306	H	0.142419	0.365565	-0.040479
H307	H	-0.077971	0.365583	-0.040842
H308	H	-0.123532	0.359210	-0.080314
Cl309	Cl	-0.212555	0.366350	0.294431
H310	H	-0.324645	0.119026	0.551178
H311	H	-0.406325	-0.031861	0.563011
Cl312	Cl	-0.541160	-0.021803	0.563281
H313	H	-0.403379	0.204322	0.544775
H314	H	-0.748801	-0.141100	0.544758
Cl315	Cl	0.013402	-0.021805	0.163660
Cl316	Cl	0.013405	-0.021807	0.008713
Cl317	Cl	-0.660588	-0.081630	0.551923
Cl318	Cl	-0.212692	-0.236588	0.294122
H319	H	-0.121394	-0.156329	0.153606
H320	H	-0.248924	-0.265656	0.389580
H321	H	-0.248932	-0.265652	0.045210
H322	H	-0.124413	-0.141114	-0.079628
Cl323	Cl	0.132824	0.108953	0.103809
H324	H	-0.078565	-0.101659	0.304810
