data_functionalizedCrystal
_audit_creation_method	'MofGen! by Chris Wilmer'
_symmetry_space_group_name_H-M	'P1'
_symmetry_Int_Tables_number	1
_symmetry_cell_setting	triclinic
loop_
_symmetry_equiv_pos_as_xyz
  x,y,z
_cell_length_a	23.532407
_cell_length_b	19.188930
_cell_length_c	18.266242
_cell_angle_alpha	90.011475
_cell_angle_beta	90.003702
_cell_angle_gamma	82.996730
loop_
_atom_site_label
_atom_site_type_symbol
_atom_site_fract_x
_atom_site_fract_y
_atom_site_fract_z
O1	O	-0.755443	-0.084758	-0.060798
O2	O	-0.589606	-0.097021	-0.060820
O3	O	-0.677310	0.010782	-0.060794
O4	O	-0.667739	-0.192560	-0.060824
O5	O	-0.677295	0.010787	0.060968
O6	O	-0.589591	-0.097016	0.060942
O7	O	-0.755428	-0.084752	0.060964
Zn8	Zn	-0.672507	-0.090883	0.080285
Zn9	Zn	-0.672527	-0.090890	-0.080141
O10	O	-0.667724	-0.192555	0.060938
C11	C	-0.676993	0.036794	0.000089
C12	C	-0.676062	0.114296	0.000095
C13	C	-0.568382	-0.096706	0.000058
C14	C	-0.505163	-0.095767	0.000050
C15	C	-0.776652	-0.085067	0.000084
C16	C	-0.839871	-0.086006	0.000088
C17	C	-0.106183	-0.153674	0.000075
C18	C	-0.046780	-0.152801	0.000079
O19	O	-0.010150	-0.206481	0.000098
N20	N	-0.024018	-0.088713	0.000087
C21	C	-0.060662	-0.025492	0.000098
O22	O	-0.035846	0.029100	0.000107
C23	C	-0.120062	-0.026365	0.000099
C24	C	-0.142821	-0.090458	0.000083
C25	C	-0.128942	-0.217761	0.000060
C26	C	-0.188340	-0.218633	0.000054
C27	C	-0.224979	-0.155417	0.000063
C28	C	-0.202219	-0.091330	0.000078
C29	C	-0.156705	0.036855	0.000115
C30	C	-0.216109	0.035976	0.000117
C31	C	-0.238868	-0.028116	0.000101
C32	C	-0.298256	-0.028986	0.000080
N33	N	-0.321018	-0.093075	0.000072
C34	C	-0.284379	-0.156290	0.000063
C35	C	0.064085	-0.023664	0.000098
C36	C	0.123485	-0.022790	0.000093
C37	C	0.137362	-0.150099	0.000075
C38	C	0.077961	-0.150972	0.000075
C39	C	0.041323	-0.087752	0.000090
C40	C	-0.409120	-0.158117	0.000050
C41	C	-0.468524	-0.158983	0.000041
C42	C	-0.482396	-0.031674	0.000063
C43	C	-0.422997	-0.030807	0.000068
C44	C	-0.386360	-0.094034	0.000064
O45	O	-0.334921	0.024666	0.000065
O46	O	-0.309203	-0.210874	0.000065
C47	C	-0.668041	-0.218568	0.000053
C48	C	-0.668972	-0.296069	0.000042
N49	N	-0.672498	-0.090878	0.189772
C50	C	-0.727524	0.159384	0.000106
C51	C	-0.726650	0.232205	0.000094
C52	C	-0.674311	0.259935	0.000086
C53	C	-0.622842	0.214837	0.000072
C54	C	-0.623718	0.142017	0.000076
N55	N	-0.634299	0.367814	0.041519
N56	N	-0.633471	0.436990	0.041516
C57	C	-0.671670	0.479335	0.000071
N58	N	-0.710737	0.449892	-0.041362
N59	N	-0.711567	0.380710	-0.041356
C60	C	-0.673356	0.338894	0.000081
C61	C	-0.722188	0.603384	0.000068
C62	C	-0.721311	0.676206	0.000051
C63	C	-0.617502	0.658836	0.000036
C64	C	-0.618380	0.586016	0.000045
C65	C	-0.670724	0.558295	0.000064
N66	N	-0.672541	-0.090890	-0.189628
C67	C	-0.711346	-0.043166	0.228093
C68	C	-0.711350	-0.043163	0.304738
C69	C	-0.672511	-0.090883	0.343059
C70	C	-0.633655	-0.138599	0.304729
C71	C	-0.633649	-0.138596	0.228086
N72	N	-0.665108	-0.152714	0.463382
N73	N	-0.665117	-0.152715	0.536190
C74	C	-0.672527	-0.090893	0.573982
N75	N	-0.679937	-0.029069	0.536215
N76	N	-0.679931	-0.029069	0.463400
C77	C	-0.672513	-0.090891	0.426166
C78	C	-0.711381	-0.043174	0.695409
C79	C	-0.711381	-0.043170	0.772056
C80	C	-0.633689	-0.138612	0.772046
C81	C	-0.633686	-0.138610	0.695401
C82	C	-0.672536	-0.090892	0.657087
H83	H	-0.487050	-0.211177	0.000028
H84	H	-0.743013	-0.004317	0.664213
O85	O	-0.776606	0.276084	0.000206
C86	C	-0.779196	0.318723	0.063278
H87	H	-0.733995	0.322094	0.084287
H88	H	-0.800548	0.373604	0.049102
H89	H	-0.805137	0.294953	0.107445
H90	H	-0.742986	-0.004308	0.335944
O91	O	-0.373618	-0.219598	0.000009
C92	C	-0.406454	-0.276344	0.000011
H93	H	-0.450831	-0.258294	-0.023037
H94	H	-0.384445	-0.320612	-0.035351
H95	H	-0.410638	-0.296010	0.058421
O96	O	-0.749064	0.003154	0.809396
C97	C	-0.740748	-0.007087	0.885260
H98	H	-0.695405	-0.033460	0.895730
H99	H	-0.747224	0.045829	0.914399
H100	H	-0.772891	-0.041911	0.906997
O101	O	-0.748982	0.003190	0.190733
C102	C	-0.784024	-0.033806	0.146206
H103	H	-0.785098	-0.088823	0.169283
H104	H	-0.829284	-0.004824	0.145126
H105	H	-0.766028	-0.037686	0.088205
O106	O	-0.134537	0.099071	0.000231
C107	C	-0.100604	0.103395	0.063305
H108	H	-0.085672	0.048261	0.084315
H109	H	-0.061775	0.130958	0.049132
H110	H	-0.126925	0.134464	0.107470
H111	H	-0.602031	-0.177452	0.335935
H112	H	-0.581810	0.105305	0.000068
O113	O	-0.251617	0.097455	0.000095
C114	C	-0.218786	0.154205	0.000127
H115	H	-0.174409	0.136161	-0.022924
H116	H	-0.240800	0.198472	-0.035219
H117	H	-0.214603	0.173871	0.058546
O118	O	0.172902	-0.211555	0.000169
C119	C	0.162624	-0.250481	0.063235
H120	H	0.117520	-0.233022	0.084258
H121	H	0.166949	-0.308744	0.049047
H122	H	0.195092	-0.241154	0.107397
H123	H	-0.206864	-0.270824	0.000041
H124	H	-0.099116	-0.269242	0.000055
O125	O	-0.572036	0.241853	-0.000032
C126	C	-0.568427	0.283429	-0.063105
H127	H	-0.613363	0.301873	-0.084121
H128	H	-0.545843	0.330964	-0.048927
H129	H	-0.543157	0.251071	-0.107267
O130	O	-0.596014	-0.184940	0.809375
C131	C	-0.604337	-0.174698	0.885241
H132	H	-0.649680	-0.148323	0.895708
H133	H	-0.597866	-0.227614	0.914359
H134	H	-0.572195	-0.139877	0.907004
O135	O	-0.400980	0.031512	0.000106
C136	C	-0.446060	0.087120	0.000087
H137	H	-0.486369	0.067838	0.023130
H138	H	-0.433754	0.131895	0.035445
H139	H	-0.454508	0.106594	-0.058327
H140	H	0.142009	0.029401	0.000094
O141	O	-0.595891	-0.185016	0.190971
C142	C	-0.561598	-0.227123	0.241225
H143	H	-0.584946	-0.227767	0.295856
H144	H	-0.552767	-0.282937	0.219069
H145	H	-0.519351	-0.204714	0.249388
H146	H	-0.602055	-0.177464	0.664198
O147	O	-0.518073	0.029667	0.000106
C148	C	-0.575380	0.015146	0.000084
H149	H	-0.577521	-0.039682	0.023120
H150	H	-0.602390	0.055460	0.035446
H151	H	-0.592569	0.017917	-0.058331
H152	H	-0.770147	0.136819	0.000119
H153	H	-0.764810	0.580813	0.000080
O154	O	-0.771343	0.719936	-0.000037
C155	C	-0.803138	0.707418	-0.063097
H156	H	-0.789018	0.652072	-0.084119
H157	H	-0.850647	0.712872	-0.048901
H158	H	-0.795460	0.747187	-0.107262
H159	H	-0.574886	0.681413	0.000026
H160	H	-0.576474	0.549304	0.000041
O161	O	0.055787	-0.213187	0.000160
C162	C	0.021859	-0.217513	0.063231
H163	H	0.006932	-0.162379	0.084268
H164	H	-0.016973	-0.245071	0.049044
H165	H	0.048181	-0.248587	0.107382
O166	O	0.028577	0.037817	0.000069
C167	C	0.061412	0.094564	0.000093
H168	H	0.105788	0.076515	-0.022959
H169	H	0.039400	0.138830	-0.035255
H170	H	0.065599	0.114234	0.058510
