data_functionalizedCrystal
_audit_creation_method	'MofGen! by Chris Wilmer'
_symmetry_space_group_name_H-M	'P1'
_symmetry_Int_Tables_number	1
_symmetry_cell_setting	triclinic
loop_
_symmetry_equiv_pos_as_xyz
  x,y,z
_cell_length_a	13.032891
_cell_length_b	13.897448
_cell_length_c	13.032268
_cell_angle_alpha	97.148041
_cell_angle_beta	90.886842
_cell_angle_gamma	82.823134
loop_
_atom_site_label
_atom_site_type_symbol
_atom_site_fract_x
_atom_site_fract_y
_atom_site_fract_z
Zn1	Zn	1.498473	-0.651404	-0.780820
Zn2	Zn	1.998473	-0.151404	-0.280820
Zn3	Zn	1.520216	-0.795119	-0.608836
Zn4	Zn	2.020216	-0.295119	-0.108836
Zn5	Zn	1.348333	-0.611111	-0.587061
Zn6	Zn	1.848333	-0.111111	-0.087061
Zn7	Zn	1.326466	-0.789906	-0.758961
Zn8	Zn	1.826466	-0.289906	-0.258961
O9	O	1.423372	-0.711885	-0.683919
O10	O	1.923372	-0.211885	-0.183919
O11	O	1.645277	-0.689513	-0.776266
O12	O	2.145277	-0.189513	-0.276266
O13	O	1.515666	-0.756029	-0.462031
O14	O	2.015666	-0.256029	0.037969
O15	O	1.368301	-0.481485	-0.612799
O16	O	1.868301	0.018515	-0.112799
O17	O	1.661252	-0.795099	-0.649910
O18	O	2.161252	-0.295099	-0.149910
O19	O	1.478609	-0.511088	-0.755152
O20	O	1.978609	-0.011088	-0.255152
O21	O	1.389384	-0.620839	-0.446033
O22	O	1.889384	-0.120839	0.053967
O23	O	1.201512	-0.615784	-0.591604
O24	O	1.701512	-0.115784	-0.091604
O25	O	1.331032	-0.786215	-0.905777
O26	O	1.831032	-0.286215	-0.405777
O27	O	1.185446	-0.747144	-0.717898
O28	O	1.685446	-0.247144	-0.217898
O29	O	1.457405	-0.684458	-0.921836
O30	O	1.957405	-0.184458	-0.421836
O31	O	1.494463	-0.929399	-0.628715
O32	O	1.994463	-0.429399	-0.128715
O33	O	1.352115	-0.925569	-0.739012
O34	O	1.852115	-0.425569	-0.239012
C35	C	1.156162	-0.676527	-0.650017
C36	C	1.656162	-0.176527	-0.150017
C37	C	1.041846	-0.661426	-0.635537
C38	C	1.541846	-0.161426	-0.135537
C39	C	0.864817	-0.704166	-0.676521
C40	C	1.364817	-0.204166	-0.176521
C41	C	0.982969	-0.719778	-0.691484
C42	C	1.482969	-0.219778	-0.191484
C43	C	1.423301	-0.962486	-0.683880
C44	C	1.923301	-0.462486	-0.183880
C45	C	1.423360	-1.069711	-0.683910
C46	C	1.923360	-0.569711	-0.183910
C47	C	1.423460	-1.266027	-0.683988
C48	C	1.923460	-0.766027	-0.183988
C49	C	1.423401	-1.156783	-0.683947
C50	C	1.923401	-0.656783	-0.183947
C51	C	1.691625	-0.747382	-0.717955
C52	C	2.191625	-0.247382	-0.217955
C53	C	1.805938	-0.762509	-0.732459
C54	C	2.305938	-0.262509	-0.232459
C55	C	1.389354	-0.739249	-0.952166
C56	C	1.889354	-0.239249	-0.452166
C57	C	1.374858	-0.750911	-1.066477
C58	C	1.874858	-0.250911	-0.566477
C59	C	1.423469	-0.460311	-0.683985
C60	C	1.923469	0.039689	-0.183985
C61	C	1.423510	-0.353105	-0.684013
C62	C	1.923510	0.146895	-0.184013
C63	C	1.430922	-0.705762	-1.125386
C64	C	1.930922	-0.205762	-0.625386
C65	C	1.415940	-0.717813	-1.243532
C66	C	1.915940	-0.217813	-0.743532
C67	C	1.457317	-0.684565	-0.416724
C68	C	1.957317	-0.184565	0.083276
C69	C	1.472012	-0.672659	-0.302439
C70	C	1.972012	-0.172659	0.197561
H71	H	1.004788	-0.599910	-0.576568
H72	H	1.504788	-0.099910	-0.076568
H73	H	0.843001	-0.824013	-0.791433
H74	H	1.343001	-0.324013	-0.291433
H75	H	1.490008	-0.658183	-1.088352
H76	H	1.990008	-0.158183	-0.588352
O77	O	1.027000	-0.793183	-0.761917
O78	O	1.527000	-0.293183	-0.261917
C79	C	0.999390	-0.927615	-0.890724
C80	C	1.499390	-0.427615	-0.390724
C81	C	0.949388	-0.844511	-0.811014
C82	C	1.449388	-0.344511	-0.311014
H83	H	0.936666	-0.969149	-0.930426
H84	H	1.436666	-0.469149	-0.430426
H85	H	1.042842	-0.895552	-0.950974
H86	H	1.542842	-0.395552	-0.450974
H87	H	1.055698	-0.979711	-0.849721
H88	H	1.555698	-0.479711	-0.349721
H89	H	0.893035	-0.792385	-0.851927
H90	H	1.393035	-0.292385	-0.351927
H91	H	0.906001	-0.876642	-0.750769
H92	H	1.406001	-0.376642	-0.250769
O93	O	1.345521	-0.774577	-1.287868
O94	O	1.845521	-0.274577	-0.787868
C95	C	1.266316	-0.838266	-1.446042
C96	C	1.766316	-0.338266	-0.946042
C97	C	1.346114	-0.773971	-1.395966
C98	C	1.846114	-0.273971	-0.895966
H99	H	1.266754	-0.837780	-1.533444
H100	H	1.766754	-0.337780	-1.033444
H101	H	1.286996	-0.916325	-1.427329
H102	H	1.786996	-0.416325	-0.927329
H103	H	1.186062	-0.808234	-1.414404
H104	H	1.686062	-0.308234	-0.914404
H105	H	1.426397	-0.803916	-1.427575
H106	H	1.926397	-0.303916	-0.927575
H107	H	1.325345	-0.695921	-1.414673
H108	H	1.825345	-0.195921	-0.914673
O109	O	1.542482	-0.615948	-1.258111
O110	O	2.042482	-0.115948	-0.758111
C111	C	1.621565	-0.552122	-1.099925
C112	C	2.121565	-0.052122	-0.599925
C113	C	1.541753	-0.616405	-1.149995
C114	C	2.041753	-0.116405	-0.649995
H115	H	1.620987	-0.552454	-1.012505
H116	H	2.120987	-0.052454	-0.512505
H117	H	1.701879	-0.582141	-1.131417
H118	H	2.201879	-0.082141	-0.631417
H119	H	1.600860	-0.474118	-1.118791
H120	H	2.100860	0.025882	-0.618791
H121	H	1.562361	-0.694423	-1.131149
H122	H	2.062361	-0.194423	-0.631149
H123	H	1.461461	-0.586306	-1.118501
H124	H	1.961461	-0.086306	-0.618501
H125	H	1.315761	-0.798478	-1.103509
H126	H	1.815761	-0.298478	-0.603509
H127	H	0.827753	-0.642655	-0.617556
H128	H	1.327753	-0.142655	-0.117556
