data_functionalizedCrystal
_audit_creation_method	'MofGen! by Chris Wilmer'
_symmetry_space_group_name_H-M	'P1'
_symmetry_Int_Tables_number	1
_symmetry_cell_setting	triclinic
loop_
_symmetry_equiv_pos_as_xyz
  x,y,z
_cell_length_a	14.853567
_cell_length_b	14.853567
_cell_length_c	13.930277
_cell_angle_alpha	90.002109
_cell_angle_beta	89.998167
_cell_angle_gamma	83.634930
loop_
_atom_site_label
_atom_site_type_symbol
_atom_site_fract_x
_atom_site_fract_y
_atom_site_fract_z
O1	O	-1.196366	-0.117700	0.079756
O2	O	-0.933906	-0.131721	0.079772
O3	O	-1.072147	0.006519	0.079767
O4	O	-1.058125	-0.255941	0.079762
O5	O	-1.072133	0.006515	-0.079895
O6	O	-0.933892	-0.131725	-0.079890
O7	O	-1.196352	-0.117704	-0.079905
Zn8	Zn	-1.065120	-0.124715	-0.105247
Zn9	Zn	-1.065138	-0.124710	0.105114
O10	O	-1.058111	-0.255944	-0.079900
C11	C	-0.900311	-0.131088	-0.000057
C12	C	-0.800227	-0.129184	-0.000051
C13	C	-1.071504	0.040106	-0.000061
C14	C	-1.069601	0.140189	-0.000053
C15	C	-1.229947	-0.118337	-0.000075
C16	C	-1.330031	-0.120241	-0.000075
C17	C	-1.058754	-0.289531	-0.000070
C18	C	-1.060657	-0.389615	-0.000072
C19	C	-0.387693	-0.039019	-0.000070
C20	C	-0.366412	-0.203251	-0.000073
C21	C	-0.460446	-0.205042	-0.000070
C22	C	-0.518108	-0.123819	-0.000066
C23	C	-0.481736	-0.040806	-0.000065
C24	C	-0.496825	-0.288053	-0.000061
C25	C	-0.590864	-0.289846	-0.000057
C26	C	-0.648528	-0.208623	-0.000060
C27	C	-0.612150	-0.125607	-0.000060
C28	C	-0.669812	-0.044384	-0.000056
C29	C	-0.633437	0.038633	-0.000063
C30	C	-0.539399	0.040417	-0.000067
C31	C	-0.742565	-0.210407	-0.000055
C32	C	-0.763855	-0.046172	-0.000050
N33	N	-1.065114	-0.124718	-0.248814
C34	C	-0.979435	0.552723	-0.000066
C35	C	-1.143668	0.574004	-0.000076
C36	C	-1.145458	0.479971	-0.000070
C37	C	-1.064235	0.422309	-0.000064
C38	C	-0.981223	0.458680	-0.000063
C39	C	-1.228469	0.443591	-0.000080
C40	C	-1.230262	0.349552	-0.000076
C41	C	-1.149039	0.291889	-0.000063
C42	C	-1.066023	0.328266	-0.000061
C43	C	-0.984800	0.270604	-0.000055
C44	C	-0.901783	0.306979	-0.000047
C45	C	-0.899999	0.401017	-0.000050
C46	C	-1.150823	0.197851	-0.000059
C47	C	-0.986588	0.176561	-0.000052
C48	C	-1.003893	-0.185912	-0.299075
C49	C	-1.126341	-0.063521	-0.299058
C50	C	-1.126351	-0.063517	-0.399553
C51	C	-1.065130	-0.124711	-0.449814
C52	C	-1.003899	-0.185909	-0.399580
C53	C	-1.187574	-0.002314	-0.449796
C54	C	-1.187586	-0.002307	-0.550297
C55	C	-1.126368	-0.063506	-0.600560
C56	C	-1.065136	-0.124707	-0.550319
C57	C	-1.003914	-0.185901	-0.600580
C58	C	-0.942685	-0.247107	-0.550341
C59	C	-0.942681	-0.247108	-0.449842
C60	C	-1.126372	-0.063506	-0.701059
C61	C	-1.003920	-0.185898	-0.701085
N62	N	-1.065151	-0.124700	0.248680
H63	H	-0.810798	0.019971	-0.000050
C64	C	-1.321573	0.309542	-0.000082
H65	H	-1.311007	0.245279	-0.000084
H66	H	-1.355028	0.329333	0.055590
H67	H	-1.355011	0.329321	-0.055772
C68	C	-0.782576	-0.301713	-0.000044
H69	H	-0.734766	-0.349830	-0.000048
H70	H	-0.818819	-0.305818	0.055635
H71	H	-0.818815	-0.305830	-0.055728
H72	H	-0.954044	-0.235748	-0.258167
C73	C	-0.936578	-0.253212	-0.756369
H74	H	-0.945352	-0.244450	-0.823419
H75	H	-0.876399	-0.243320	-0.739901
H76	H	-0.946454	-0.313402	-0.739904
H77	H	-0.892830	-0.296939	-0.408931
C78	C	-0.808689	0.441027	-0.000042
H79	H	-0.760570	0.393220	-0.000027
H80	H	-0.804571	0.477266	-0.055720
H81	H	-0.804589	0.477273	0.055642
C82	C	-1.193678	0.003791	-0.243778
H83	H	-1.230142	0.040242	-0.288092
H84	H	-1.231240	-0.028707	-0.204567
H85	H	-1.161192	0.041381	-0.204579
C86	C	-0.888123	0.592731	-0.000061
H87	H	-0.898687	0.656995	-0.000068
H88	H	-0.854679	0.572947	0.055617
H89	H	-0.854676	0.572944	-0.055745
H90	H	-1.176220	-0.013669	-0.741959
H91	H	-0.680397	0.104764	-0.000053
C92	C	-1.254911	0.064996	-0.394514
H93	H	-1.291370	0.101453	-0.438826
H94	H	-1.292477	0.032497	-0.355309
H95	H	-1.222423	0.102580	-0.355308
H96	H	-1.237442	0.047529	-0.591196
C97	C	-1.233007	0.637424	-0.000083
H98	H	-1.282702	0.602293	-0.000088
H99	H	-1.235726	0.674558	0.055591
H100	H	-1.235719	0.674543	-0.055772
C101	C	-0.499384	0.131725	-0.000065
H102	H	-0.435121	0.121155	-0.000057
H103	H	-0.519164	0.165176	-0.055739
H104	H	-0.519169	0.165170	0.055623
H105	H	-0.358072	0.028572	-0.000080
C106	C	-0.897241	0.113140	-0.000047
H107	H	-0.847548	0.148274	-0.000048
H108	H	-0.894529	0.076013	0.055629
H109	H	-0.894519	0.076015	-0.055733
C110	C	-1.317807	0.507014	-0.000087
H111	H	-1.367503	0.471884	-0.000100
H112	H	-1.320527	0.544141	0.055592
H113	H	-1.320515	0.544138	-0.055770
H114	H	-0.835652	0.260019	-0.000048
H115	H	-0.319459	-0.269379	-0.000068
C116	C	-1.242127	0.157836	-0.000072
H117	H	-1.231560	0.093573	-0.000074
H118	H	-1.275586	0.177626	0.055599
H119	H	-1.275562	0.177614	-0.055764
H120	H	-0.449870	-0.354180	-0.000054
C121	C	-0.875324	-0.314398	-0.605630
H122	H	-0.838848	-0.350842	-0.561322
H123	H	-0.907785	-0.351984	-0.644853
H124	H	-0.837764	-0.281869	-0.644819
C125	C	-0.630869	-0.381159	-0.000062
H126	H	-0.583059	-0.429274	-0.000073
H127	H	-0.667116	-0.385274	0.055612
H128	H	-0.667106	-0.385267	-0.055750
