data_functionalizedCrystal
_audit_creation_method	'MofGen! by Chris Wilmer'
_symmetry_space_group_name_H-M	'P1'
_symmetry_Int_Tables_number	1
_symmetry_cell_setting	triclinic
loop_
_symmetry_equiv_pos_as_xyz
  x,y,z
_cell_length_a	23.532407
_cell_length_b	23.532407
_cell_length_c	7.540329
_cell_angle_alpha	89.991770
_cell_angle_beta	90.002386
_cell_angle_gamma	82.848678
loop_
_atom_site_label
_atom_site_type_symbol
_atom_site_fract_x
_atom_site_fract_y
_atom_site_fract_z
O1	O	0.755258	0.069134	-0.147279
O2	O	1.255258	0.569134	0.352721
O3	O	0.589395	0.079137	-0.147334
O4	O	1.089395	0.579137	0.352666
O5	O	0.677328	-0.008796	-0.147272
O6	O	1.177328	0.491204	0.352728
O7	O	0.667325	0.157067	-0.147340
O8	O	1.167325	0.657067	0.352660
O9	O	0.677323	-0.008797	0.147693
O10	O	1.177323	0.491203	0.647693
O11	O	0.589390	0.079136	0.147632
O12	O	1.089390	0.579136	0.647632
O13	O	0.755253	0.069133	0.147686
O14	O	1.255253	0.569133	0.647686
Cu15	Cu	0.672321	0.074134	0.174591
Cu16	Cu	1.172321	0.574134	0.674591
Cu17	Cu	0.672327	0.074136	-0.174239
Cu18	Cu	1.172327	0.574136	0.325761
O19	O	0.667320	0.157066	0.147625
O20	O	1.167320	0.657066	0.647625
C21	C	0.568176	0.078882	0.000142
C22	C	1.068176	0.578882	0.500142
C23	C	0.504959	0.078116	0.000123
C24	C	1.004959	0.578116	0.500123
C25	C	0.677071	-0.030013	0.000215
C26	C	1.177071	0.469987	0.500215
C27	C	0.676305	-0.093230	0.000228
C28	C	1.176305	0.406770	0.500228
C29	C	0.723539	-0.492333	0.000147
C30	C	1.223539	0.007667	0.500147
C31	C	0.722827	-0.551733	0.000133
C32	C	1.222827	-0.051733	0.500133
O33	O	0.766613	-0.588478	0.000082
O34	O	1.266613	-0.088478	0.500082
N35	N	0.670551	-0.574359	0.000117
N36	N	1.170551	-0.074359	0.500117
C37	C	0.618983	-0.537582	0.000097
C38	C	1.118983	-0.037582	0.500097
O39	O	0.574452	-0.562281	0.000080
O40	O	1.074452	-0.062281	0.500080
C41	C	0.619695	-0.478182	0.000098
C42	C	1.119695	0.021818	0.500098
C43	C	0.671974	-0.455560	0.000132
C44	C	1.171974	0.044440	0.500132
C45	C	0.775814	-0.469710	0.000179
C46	C	1.275814	0.030290	0.500179
C47	C	0.776525	-0.410313	0.000196
C48	C	1.276525	0.089687	0.500196
C49	C	0.724961	-0.373540	0.000181
C50	C	1.224961	0.126460	0.500181
C51	C	0.672685	-0.396164	0.000149
C52	C	1.172685	0.103836	0.500149
C53	C	0.568127	-0.441406	0.000065
C54	C	1.068127	0.058594	0.500065
C55	C	0.568844	-0.382004	0.000064
C56	C	1.068844	0.117996	0.500064
C57	C	0.621123	-0.359381	0.000098
C58	C	1.121123	0.140619	0.500098
C59	C	0.621832	-0.299995	0.000151
C60	C	1.121832	0.200005	0.500151
N61	N	0.674109	-0.277368	0.000167
N62	N	1.174109	0.222632	0.500167
C63	C	0.725673	-0.314141	0.000182
C64	C	1.225673	0.185859	0.500182
C65	C	0.617491	-0.662324	0.000091
C66	C	1.117491	-0.162324	0.500091
C67	C	0.616778	-0.721722	0.000103
C68	C	1.116778	-0.221722	0.500103
C69	C	0.720623	-0.735869	0.000136
C70	C	1.220623	-0.235869	0.500136
C71	C	0.721335	-0.676470	0.000137
C72	C	1.221335	-0.176470	0.500137
C73	C	0.669767	-0.639698	0.000107
C74	C	1.169767	-0.139698	0.500107
C75	C	0.727163	-0.189405	0.000219
C76	C	1.227163	0.310595	0.500219
C77	C	0.727869	-0.130003	0.000243
C78	C	1.227869	0.369997	0.500243
C79	C	0.624025	-0.115860	0.000201
C80	C	1.124025	0.384140	0.500201
C81	C	0.623318	-0.175257	0.000186
C82	C	1.123318	0.324743	0.500186
C83	C	0.674891	-0.212029	0.000189
C84	C	1.174891	0.287971	0.500189
O85	O	0.578070	-0.263215	0.000194
O86	O	1.078070	0.236785	0.500194
O87	O	0.770196	-0.289433	0.000175
O88	O	1.270196	0.210567	0.500175
C89	C	0.105856	0.125350	0.000184
C90	C	0.605856	0.625350	0.500184
C91	C	0.046456	0.124638	0.000195
C92	C	0.546456	0.624638	0.500195
O93	O	0.009711	0.168424	0.000241
O94	O	0.509711	0.668424	0.500241
N95	N	0.023830	0.072362	0.000214
N96	N	0.523830	0.572362	0.500214
C97	C	0.060607	0.020794	0.000239
C98	C	0.560607	0.520794	0.500239
O99	O	0.035908	-0.023737	0.000258
O100	O	0.535908	0.476263	0.500258
C101	C	0.120006	0.021506	0.000241
C102	C	0.620006	0.521506	0.500241
C103	C	0.142629	0.073785	0.000204
C104	C	0.642629	0.573785	0.500204
C105	C	0.128479	0.177625	0.000149
C106	C	0.628479	0.677625	0.500149
C107	C	0.187876	0.178336	0.000135
C108	C	0.687876	0.678336	0.500135
C109	C	0.224649	0.126772	0.000155
C110	C	0.724649	0.626772	0.500155
C111	C	0.202025	0.074496	0.000190
C112	C	0.702025	0.574496	0.500190
C113	C	0.156783	-0.030062	0.000279
C114	C	0.656783	0.469938	0.500279
C115	C	0.216185	-0.029345	0.000282
C116	C	0.716185	0.470655	0.500282
C117	C	0.238808	0.022934	0.000245
C118	C	0.738808	0.522934	0.500245
C119	C	0.298194	0.023643	0.000195
C120	C	0.798194	0.523643	0.500195
N121	N	0.320820	0.075920	0.000177
N122	N	0.820820	0.575920	0.500177
C123	C	0.284048	0.127484	0.000157
C124	C	0.784048	0.627484	0.500157
C125	C	-0.064135	0.019302	0.000239
C126	C	0.435865	0.519302	0.500239
C127	C	-0.123533	0.018589	0.000225
C128	C	0.376467	0.518589	0.500225
C129	C	-0.137680	0.122434	0.000184
C130	C	0.362320	0.622434	0.500184
C131	C	-0.078281	0.123146	0.000186
C132	C	0.421719	0.623146	0.500186
C133	C	-0.041509	0.071578	0.000220
C134	C	0.458491	0.571578	0.500220
C135	C	0.408784	0.128974	0.000125
C136	C	0.908784	0.628974	0.500125
C137	C	0.468186	0.129680	0.000103
C138	C	0.968186	0.629680	0.500103
C139	C	0.482329	0.025836	0.000153
C140	C	0.982329	0.525836	0.500153
C141	C	0.422932	0.025129	0.000165
C142	C	0.922932	0.525129	0.500165
C143	C	0.386160	0.076702	0.000157
C144	C	0.886160	0.576702	0.500157
O145	O	0.334974	-0.020119	0.000156
O146	O	0.834974	0.479881	0.500156
O147	O	0.308755	0.172007	0.000161
O148	O	0.808755	0.672007	0.500161
C149	C	0.776472	0.069388	0.000206
C150	C	1.276472	0.569388	0.500206
C151	C	0.839689	0.070154	0.000214
C152	C	1.339689	0.570154	0.500214
C153	C	0.667577	0.178283	0.000134
C154	C	1.167577	0.678283	0.500134
C155	C	0.668343	0.241500	0.000109
C156	C	1.168343	0.741500	0.500109
N157	N	0.672321	0.074133	0.419940
N158	N	1.172321	0.574133	0.919940
N159	N	0.672332	0.074132	-0.419587
N160	N	1.172332	0.574132	0.080413
H161	H	0.770443	-0.111587	0.000275
H162	H	1.270443	0.388413	0.500275
H163	H	0.582043	-0.085909	0.000195
H164	H	1.082043	0.414091	0.500195
H165	H	-0.141947	-0.023982	0.000227
H166	H	0.358053	0.476018	0.500227
H167	H	0.769159	-0.219337	0.000214
H168	H	1.269159	0.280663	0.500214
H169	H	0.819097	-0.391900	0.000216
H170	H	1.319097	0.108100	0.500216
O171	O	0.492588	0.186069	0.000092
O172	O	0.992588	0.686069	0.500092
H173	H	0.457034	0.221804	0.000107
H174	H	0.957034	0.721804	0.500107
O175	O	0.369128	0.184597	0.000101
O176	O	0.869128	0.684597	0.500101
H177	H	0.394847	0.221063	0.000057
H178	H	0.894847	0.721063	0.500057
H179	H	-0.059867	0.165717	0.000166
H180	H	0.440133	0.665717	0.500166
O181	O	0.255849	-0.084966	0.000312
O182	O	0.755849	0.415034	0.500312
H183	H	0.230134	-0.121435	0.000325
H184	H	0.730134	0.378565	0.500325
H185	H	0.404512	-0.017441	0.000169
H186	H	0.904512	0.482559	0.500169
H187	H	0.762610	-0.765821	0.000141
H188	H	1.262610	-0.265821	0.500141
O189	O	0.566929	-0.199656	0.000171
O190	O	1.066929	0.300344	0.500171
H191	H	0.564115	-0.226386	0.120389
H192	H	1.064115	0.273614	0.620389
O193	O	0.521995	-0.029779	0.000200
O194	O	1.021995	0.470221	0.500200
H195	H	0.567098	-0.020496	0.000213
H196	H	1.067098	0.479504	0.500213
O197	O	0.212273	0.234723	0.000148
O198	O	0.712273	0.734723	0.500148
H199	H	0.176716	0.270455	0.000166
H200	H	0.676716	0.770455	0.500166
O201	O	0.513220	-0.342345	0.000052
O202	O	1.013220	0.157655	0.500052
H203	H	0.511057	-0.314938	-0.120170
H204	H	1.011057	0.185062	0.379830
O205	O	0.831434	-0.509368	0.000220
O206	O	1.331434	-0.009368	0.500220
H207	H	0.867898	-0.483648	0.000260
H208	H	1.367898	0.016352	0.500260
O209	O	0.132396	-0.086452	0.000355
O210	O	0.632396	0.413548	0.500355
H211	H	0.147194	-0.111221	-0.119835
H212	H	0.647194	0.388779	0.380165
O213	O	0.560391	-0.746118	0.000105
O214	O	1.060391	-0.246118	0.500105
H215	H	0.557580	-0.772838	-0.120115
H216	H	1.057580	-0.272838	0.379885
H217	H	-0.167632	0.164421	0.000176
H218	H	0.332368	0.664421	0.500176
O219	O	0.777721	-0.652071	0.000140
O220	O	1.277721	-0.152071	0.500140
H221	H	0.813454	-0.687626	0.000136
H222	H	1.313454	-0.187626	0.500136
O223	O	0.561868	-0.622662	0.000107
O224	O	1.061868	-0.122662	0.500107
H225	H	0.525402	-0.648380	0.000118
H226	H	1.025402	-0.148380	0.500118
H227	H	0.525555	-0.459814	0.000026
H228	H	1.025555	0.040186	0.500026
H229	H	0.098544	0.219617	0.000139
H230	H	0.598544	0.719617	0.500139
H231	H	-0.034198	-0.022693	0.000252
H232	H	0.465802	0.477307	0.500252
