data_functionalizedCrystal
_audit_creation_method	'MofGen! by Chris Wilmer'
_symmetry_space_group_name_H-M	'P1'
_symmetry_Int_Tables_number	1
_symmetry_cell_setting	triclinic
loop_
_symmetry_equiv_pos_as_xyz
  x,y,z
_cell_length_a	17.639762
_cell_length_b	17.637651
_cell_length_c	17.639306
_cell_angle_alpha	87.868629
_cell_angle_beta	92.196240
_cell_angle_gamma	114.333457
loop_
_atom_site_label
_atom_site_type_symbol
_atom_site_fract_x
_atom_site_fract_y
_atom_site_fract_z
Zn1	Zn	1.223710	-0.103159	0.179040
Zn2	Zn	1.171462	-0.216719	0.034435
Zn3	Zn	1.068579	-0.113774	0.076046
Zn4	Zn	1.058000	-0.268865	0.178912
O5	O	1.130438	-0.175629	0.117108
O6	O	1.329186	-0.091958	0.142497
O7	O	1.140375	-0.185682	-0.063613
O8	O	1.115450	0.000066	0.107177
O9	O	1.290799	-0.175389	0.036257
O10	O	1.229424	0.007864	0.182846
O11	O	1.064788	-0.110048	-0.033041
O12	O	0.954769	-0.160612	0.107052
O13	O	1.097421	-0.264265	0.282496
O14	O	0.946997	-0.274558	0.182627
O15	O	1.219166	-0.142522	0.282591
O16	O	1.130118	-0.336068	0.036132
O17	O	1.046758	-0.374379	0.142278
C18	C	0.921737	-0.224396	0.149341
C19	C	0.832452	-0.245281	0.163145
C20	C	0.702554	-0.334098	0.221857
C21	C	0.786450	-0.314467	0.208881
C22	C	0.794569	-0.195696	0.130370
C23	C	0.710672	-0.215315	0.143342
C24	C	0.664671	-0.284518	0.189086
C25	C	0.672790	-0.165734	0.110571
C26	C	0.588899	-0.185354	0.123539
C27	C	0.542891	-0.254555	0.169278
C28	C	0.580780	-0.304138	0.202054
C29	C	0.718791	-0.096535	0.064823
C30	C	0.680908	-0.046954	0.032052
C31	C	0.597018	-0.066570	0.045024
C32	C	0.551010	-0.135771	0.090764
C33	C	0.559129	-0.016987	0.012249
C34	C	0.475238	-0.036608	0.025217
C35	C	0.467119	-0.155391	0.103732
C36	C	1.081645	-0.384373	0.084689
C37	C	1.060849	-0.473662	0.070833
C38	C	1.288984	-0.746816	0.222523
C39	C	1.269415	-0.830720	0.209494
C40	C	1.150788	-0.838916	0.130598
C41	C	1.170349	-0.755010	0.143617
C42	C	1.239448	-0.708967	0.189581
C43	C	1.120812	-0.717161	0.110674
C44	C	1.140369	-0.633263	0.123696
C45	C	1.209464	-0.587215	0.169659
C46	C	1.259005	-0.625069	0.202602
C47	C	1.051710	-0.763207	0.064715
C48	C	1.002173	-0.725358	0.031773
C49	C	1.021734	-0.641457	0.044790
C50	C	1.090828	-0.595409	0.090753
C51	C	0.972192	-0.603603	0.011847
C52	C	0.991750	-0.519705	0.024869
C53	C	1.110385	-0.511511	0.103775
C54	C	1.339953	-0.126673	0.084750
C55	C	1.429236	-0.105810	0.070960
C56	C	1.162942	-0.208027	0.310148
C57	C	1.176793	-0.221832	0.392410
C58	C	1.179445	0.033932	0.149667
C59	C	1.200330	0.123235	0.163542
C60	C	1.098120	-0.143289	-0.075179
C61	C	1.084477	-0.129221	-0.157429
C62	C	1.025593	-0.070376	0.742559
C63	C	1.038623	-0.083361	0.819851
C64	C	1.117324	-0.162110	0.788000
C65	C	1.104304	-0.149128	0.710704
C66	C	1.058437	-0.103261	0.687990
C67	C	1.137149	-0.182013	0.656135
C68	C	1.124126	-0.169035	0.578845
C69	C	1.078260	-0.123173	0.556124
C70	C	1.045415	-0.090283	0.610700
C71	C	1.183010	-0.227885	0.678850
C72	C	1.215855	-0.260770	0.624281
C73	C	1.202838	-0.247788	0.546990
C74	C	1.156971	-0.201925	0.524269
C75	C	1.235682	-0.280677	0.492414
C76	C	1.222660	-0.267699	0.415124
C77	C	1.143948	-0.188947	0.446979
H78	H	0.718373	0.009390	-0.005195
H79	H	1.253196	-0.298118	0.642786
C80	C	1.364997	-0.696155	0.273078
C81	C	1.436143	-0.618324	0.240261
C82	C	1.512151	-0.567661	0.290814
C83	C	1.517014	-0.594829	0.374184
C84	C	1.445866	-0.672664	0.407005
C85	C	1.369857	-0.723327	0.356453
H86	H	1.432546	-0.598209	0.178542
H87	H	1.564820	-0.510042	0.266517
H88	H	1.573280	-0.557325	0.411606
H89	H	1.449463	-0.692779	0.468725
H90	H	1.317189	-0.780945	0.380750
H91	H	1.166658	-0.474018	0.141197
H92	H	0.596593	0.039353	-0.025001
C93	C	1.286120	-0.331144	0.517400
C94	C	1.377178	-0.301479	0.493683
C95	C	1.427611	-0.351953	0.518664
C96	C	1.386988	-0.432091	0.567362
C97	C	1.295926	-0.461760	0.591082
C98	C	1.245492	-0.411286	0.566100
H99	H	1.407254	-0.242152	0.457631
H100	H	1.495022	-0.329989	0.501106
H101	H	1.424322	-0.469454	0.585855
H102	H	1.265849	-0.521086	0.627133
H103	H	1.178081	-0.433249	0.583659
H104	H	0.543326	-0.360483	0.239311
C105	C	1.093500	-0.138488	0.421983
C106	C	1.123208	-0.047403	0.445788
C107	C	1.072762	0.003053	0.420789
C108	C	0.992607	-0.037576	0.371985
C109	C	0.962894	-0.128666	0.348177
C110	C	1.013341	-0.179122	0.373176
H111	H	1.182547	-0.017322	0.481919
H112	H	1.094758	0.070484	0.438414
H113	H	0.955264	-0.000226	0.353479
H114	H	0.903555	-0.158747	0.312047
H115	H	0.991345	-0.246553	0.355551
C116	C	0.896186	-0.654259	-0.038709
C117	C	0.891332	-0.627086	-0.122079
C118	C	0.815325	-0.677741	-0.172636
C119	C	0.744171	-0.755569	-0.139824
C120	C	0.749022	-0.782745	-0.056449
C121	C	0.825030	-0.732090	-0.005892
H122	H	0.944007	-0.569470	-0.146373
H123	H	0.811734	-0.657623	-0.234356
H124	H	0.687906	-0.793067	-0.177249
H125	H	0.696348	-0.840361	-0.032156
H126	H	0.828620	-0.752208	0.055827
H127	H	0.945912	-0.762859	-0.005649
C128	C	1.231055	-0.494908	0.183974
C129	C	1.233100	-0.465500	0.265441
C130	C	1.254727	-0.373186	0.279750
C131	C	1.274309	-0.310280	0.212593
C132	C	1.272264	-0.339687	0.131121
C133	C	1.250637	-0.432001	0.116812
H134	H	1.218604	-0.512068	0.315159
H135	H	1.256241	-0.351417	0.340061
H136	H	1.290319	-0.241944	0.223186
H137	H	1.286760	-0.293119	0.081402
H138	H	1.249124	-0.453770	0.056500
C139	C	1.167766	-0.212570	0.812997
C140	C	1.138053	-0.303653	0.789185
C141	C	1.188492	-0.354116	0.814183
C142	C	1.268645	-0.313496	0.862992
C143	C	1.298362	-0.222407	0.886806
C144	C	1.247923	-0.171944	0.861809
H145	H	1.078715	-0.333728	0.753052
H146	H	1.166493	-0.421546	0.796554
H147	H	1.305984	-0.350851	0.881496
H148	H	1.357700	-0.192333	0.922940
H149	H	1.269922	-0.104514	0.879438
H150	H	0.988254	-0.033016	0.724065
H151	H	1.249418	-0.294464	0.370692
H152	H	0.429665	-0.211737	0.140989
H153	H	0.474582	-0.270529	0.179835
C154	C	0.994962	-0.039826	0.585709
C155	C	0.914805	-0.080457	0.536909
C156	C	0.864353	-0.030005	0.511918
C157	C	0.894059	0.061079	0.535727
C158	C	0.974221	0.101715	0.584530
C159	C	1.024672	0.051262	0.609521
H160	H	0.892811	-0.147887	0.519281
H161	H	0.805012	-0.060086	0.475790
H162	H	0.856711	0.098427	0.517227
H163	H	0.996214	0.169145	0.602158
H164	H	1.084014	0.081344	0.645649
H165	H	0.665099	-0.390444	0.259114
C166	C	1.002491	-0.047185	0.879882
C167	C	0.907852	-0.073302	0.882348
C168	C	0.871719	-0.037132	0.942379
C169	C	0.930225	0.025155	0.999945
C170	C	1.024870	0.051275	0.997481
C171	C	1.061004	0.015105	0.937450
H172	H	0.864537	-0.119413	0.839732
H173	H	0.801656	-0.056468	0.944202
H174	H	0.903477	0.051930	1.044384
H175	H	1.068186	0.097386	1.040096
H176	H	1.131067	0.034441	0.935626
C177	C	0.433564	0.017938	-0.010819
C178	C	0.484166	0.094066	-0.061124
C179	C	0.442492	0.148614	-0.097160
C180	C	0.350217	0.127034	-0.082890
C181	C	0.299611	0.050903	-0.032583
C182	C	0.341284	-0.003645	0.003453
H183	H	0.552478	0.110043	-0.071689
H184	H	0.479955	0.204971	-0.134401
H185	H	0.319368	0.167414	-0.109566
H186	H	0.231298	0.034926	-0.022017
H187	H	0.303821	-0.060002	0.040694
H188	H	1.193614	-0.238447	0.741785
C189	C	0.937265	-0.478061	-0.011367
C190	C	0.927038	-0.473942	-0.098315
C191	C	0.872550	-0.432297	-0.134547
C192	C	0.828288	-0.394772	-0.083831
C193	C	0.838513	-0.398890	0.003122
C194	C	0.893002	-0.440535	0.039354
H195	H	0.959804	-0.501722	-0.135863
H196	H	0.864981	-0.429249	-0.198916
H197	H	0.787953	-0.363944	-0.110653
H198	H	0.805747	-0.371110	0.040670
H199	H	0.900571	-0.443583	0.103723
C200	C	0.828126	-0.369008	0.244934
C201	C	0.794211	-0.461992	0.226351
C202	C	0.835887	-0.516532	0.262399
C203	C	0.911477	-0.478089	0.317030
C204	C	0.945396	-0.385100	0.335616
C205	C	0.903720	-0.330560	0.299568
H206	H	0.738251	-0.490454	0.185907
H207	H	0.810777	-0.585368	0.248640
H208	H	0.942328	-0.518463	0.343715
H209	H	1.001356	-0.356638	0.376060
H210	H	0.928830	-0.261724	0.313327
C211	C	1.323910	-0.872358	0.245731
C212	C	1.416931	-0.838423	0.227459
C213	C	1.471420	-0.880064	0.263696
C214	C	1.432889	-0.955640	0.318204
C215	C	1.339863	-0.989579	0.336478
C216	C	1.285374	-0.947938	0.300242
H217	H	1.445459	-0.782474	0.187106
H218	H	1.540284	-0.854940	0.250168
H219	H	1.473225	-0.986465	0.345029
H220	H	1.311336	-1.045528	0.376831
H221	H	1.216510	-0.973062	0.313770
H222	H	0.787100	-0.080563	0.054265
H223	H	0.832034	-0.139353	0.093123
H224	H	1.315277	-0.587576	0.240024
H225	H	1.035783	-0.831525	0.054123
H226	H	1.094526	-0.876417	0.093176
H227	H	1.067651	-0.112614	0.493189
