data_functionalizedCrystal
_audit_creation_method	'MofGen! by Chris Wilmer'
_symmetry_space_group_name_H-M	'P1'
_symmetry_Int_Tables_number	1
_symmetry_cell_setting	triclinic
loop_
_symmetry_equiv_pos_as_xyz
  x,y,z
_cell_length_a	14.519709
_cell_length_b	14.519731
_cell_length_c	11.892095
_cell_angle_alpha	93.895723
_cell_angle_beta	86.099364
_cell_angle_gamma	83.684499
loop_
_atom_site_label
_atom_site_type_symbol
_atom_site_fract_x
_atom_site_fract_y
_atom_site_fract_z
O1	O	1.229754	0.115013	-0.093858
O2	O	1.729754	0.615013	0.406142
O3	O	0.961280	0.129247	-0.093893
O4	O	1.461280	0.629247	0.406107
O5	O	1.102625	-0.012106	-0.093864
O6	O	1.602625	0.487894	0.406136
O7	O	1.088410	0.256367	-0.093886
O8	O	1.588410	0.756367	0.406114
O9	O	1.090840	-0.000339	0.094141
O10	O	1.590840	0.499661	0.594141
O11	O	0.949495	0.141015	0.094112
O12	O	1.449495	0.641015	0.594112
O13	O	1.217969	0.126781	0.094147
O14	O	1.717969	0.626781	0.594147
Zn15	Zn	1.081861	0.135766	0.123980
Zn16	Zn	1.581861	0.635766	0.623980
Zn17	Zn	1.097388	0.120262	-0.123725
Zn18	Zn	1.597388	0.620262	0.376275
O19	O	1.076625	0.268134	0.094119
O20	O	1.576625	0.768134	0.594119
C21	C	0.921028	0.134467	0.000105
C22	C	1.421028	0.634467	0.500105
C23	C	0.818648	0.132478	0.000092
C24	C	1.318648	0.632478	0.500092
C25	C	0.443748	0.125162	0.000145
C26	C	0.943748	0.625162	0.500145
C27	C	0.548057	0.127194	0.000130
C28	C	1.048057	0.627194	0.500130
C29	C	0.631195	0.128820	0.000117
C30	C	1.131195	0.628820	0.500117
C31	C	0.735510	0.130852	0.000105
C32	C	1.235510	0.630852	0.500105
C33	C	1.096066	-0.040582	0.000139
C34	C	1.596066	0.459418	0.500139
C35	C	1.094070	-0.142962	0.000139
C36	C	1.594070	0.357038	0.500139
C37	C	1.092448	-0.226106	0.000136
C38	C	1.592448	0.273894	0.500136
C39	C	1.090422	-0.330416	0.000127
C40	C	1.590422	0.169584	0.500127
C41	C	1.088814	-0.413555	0.000120
C42	C	1.588814	0.086445	0.500120
C43	C	1.086788	-0.517871	0.000113
C44	C	1.586788	-0.017871	0.500113
C45	C	1.258221	0.121560	0.000147
C46	C	1.758221	0.621560	0.500147
C47	C	1.360602	0.123549	0.000152
C48	C	1.860602	0.623549	0.500152
C49	C	1.083184	0.296610	0.000113
C50	C	1.583184	0.796610	0.500113
C51	C	1.085180	0.398989	0.000106
C52	C	1.585180	0.898989	0.500106
N53	N	1.071271	0.146347	0.293032
N54	N	1.571271	0.646347	0.793032
N55	N	1.107986	0.109674	-0.292777
N56	N	1.607986	0.609674	0.207223
C57	C	1.181678	0.035995	0.529702
C58	C	1.681678	0.535995	1.029702
C59	C	1.174282	0.043398	0.648042
C60	C	1.674282	0.543398	1.148042
C61	C	1.049080	0.168550	0.648055
C62	C	1.549080	0.668550	1.148055
C63	C	1.056475	0.161147	0.529715
C64	C	1.556475	0.661147	1.029715
C65	C	1.122777	0.094869	0.470542
C66	C	1.622777	0.594869	0.970542
C67	C	1.130177	0.087471	0.352200
C68	C	1.630177	0.587471	0.852200
C69	C	1.004971	0.212618	0.352214
C70	C	1.504971	0.712618	0.852214
C71	C	0.997575	0.220020	0.470555
C72	C	1.497575	0.720020	0.970555
H73	H	1.184166	0.033506	0.304022
H74	H	1.684166	0.533506	0.804022
H75	H	0.943591	0.273981	0.518747
H76	H	1.443591	0.773981	1.018747
O77	O	1.231368	-0.013878	0.705563
O78	O	1.731368	0.486122	1.205563
C79	C	1.177601	-0.066580	0.774048
C80	C	1.677601	0.433420	1.274048
H81	H	1.107100	-0.070525	0.738396
H82	H	1.607100	0.429475	1.238396
H83	H	1.215015	-0.139717	0.775390
H84	H	1.715015	0.360283	1.275390
H85	H	1.167213	-0.032116	0.863735
H86	H	1.667213	0.467884	1.363735
H87	H	0.957013	0.260559	0.304033
H88	H	1.457013	0.760559	0.804033
O89	O	0.984548	0.232822	0.705501
O90	O	1.484548	0.732822	1.205501
C91	C	0.895045	0.215828	0.676573
C92	C	1.395045	0.715828	1.176573
H93	H	0.896511	0.139959	0.644023
H94	H	1.396511	0.639959	1.144023
H95	H	0.843919	0.231181	0.754409
H96	H	1.343919	0.731181	1.254409
H97	H	0.872330	0.262600	0.607899
H98	H	1.372330	0.762600	1.107899
H99	H	1.235669	-0.017965	0.481523
H100	H	1.735669	0.482035	0.981523
