data_functionalizedCrystal
_audit_creation_method	'MofGen! by Chris Wilmer'
_symmetry_space_group_name_H-M	'P1'
_symmetry_Int_Tables_number	1
_symmetry_cell_setting	triclinic
loop_
_symmetry_equiv_pos_as_xyz
  x,y,z
_cell_length_a	20.919309
_cell_length_b	20.875641
_cell_length_c	20.875641
_cell_angle_alpha	60.089808
_cell_angle_beta	90.163804
_cell_angle_gamma	59.943851
loop_
_atom_site_label
_atom_site_type_symbol
_atom_site_fract_x
_atom_site_fract_y
_atom_site_fract_z
Zr1	Zr	0.669315	0.644057	-0.078792
O2	O	0.572116	0.777601	-0.185974
O3	O	0.695475	0.510837	-0.042806
O4	O	0.705243	0.634126	-0.175885
O5	O	0.558780	0.662033	0.048519
O6	O	0.814392	0.625925	-0.171485
O7	O	0.562348	0.654311	-0.052896
O8	O	0.796919	0.405383	0.066568
O9	O	0.576253	0.882575	-0.189534
O10	O	0.792483	0.559392	-0.027956
O11	O	0.708363	0.571275	0.044446
O12	O	0.719863	0.716433	-0.112237
O13	O	0.635743	0.728315	-0.039835
Zr14	Zr	0.837705	0.643292	0.089970
Zr15	Zr	0.843396	0.630978	-0.071776
Zr16	Zr	0.663624	0.656372	0.082953
Zr17	Zr	0.675913	0.811479	-0.084469
Zr18	Zr	0.831107	0.475871	0.095647
O19	O	0.811545	0.776513	0.053984
O20	O	0.819637	0.759003	-0.175997
O21	O	0.564025	0.795111	0.044007
O22	O	0.934904	0.509749	0.197152
O23	O	0.942995	0.492239	-0.032830
O24	O	0.687384	0.528347	0.187175
O25	O	0.948240	0.625317	-0.037342
O26	O	0.801777	0.653224	0.187063
O27	O	0.692628	0.661425	0.182663
O28	O	0.944672	0.633038	0.064074
O29	O	0.714624	0.872178	-0.183956
O30	O	0.792396	0.415171	0.195134
O31	O	0.930767	0.404775	0.200711
O32	O	0.935290	0.394986	0.072145
O33	O	0.571730	0.892364	-0.060967
O34	O	0.710101	0.881967	-0.055390
O35	O	0.787157	0.570917	0.123414
O36	O	0.871277	0.559034	0.051013
O37	O	0.798657	0.716075	-0.033268
O38	O	0.714537	0.727957	0.039134
C39	C	0.745257	0.434256	0.012689
C40	C	0.742456	0.363181	0.015099
C41	C	0.785048	0.323587	-0.021562
C42	C	0.782418	0.256800	-0.019290
C43	C	0.737191	0.229613	0.019638
C44	C	0.694598	0.269210	0.056304
C45	C	0.697233	0.335991	0.054037
C46	C	0.724606	0.030547	0.030477
C47	C	0.721972	-0.036237	0.032739
C48	C	0.809793	-0.048643	-0.042854
C49	C	0.812421	0.018143	-0.045122
C50	C	0.769831	0.057731	-0.008452
N51	N	0.734500	0.161348	0.021959
N52	N	0.772527	0.125990	-0.010769
C53	C	0.535761	0.660036	-0.003188
C54	C	0.461860	0.665588	-0.006167
C55	C	0.465045	0.586226	0.036424
C56	C	0.395604	0.591448	0.033623
C57	C	0.322978	0.676034	-0.011773
C58	C	0.319795	0.755403	-0.054365
C59	C	0.389235	0.750180	-0.051559
C60	C	0.111417	0.695907	-0.022441
C61	C	0.041975	0.701124	-0.025246
C62	C	0.117789	0.537169	0.062743
C63	C	0.187227	0.531952	0.065541
C64	C	0.184038	0.611321	0.022953
C65	C	0.251997	0.681375	-0.014639
C66	C	0.255018	0.605981	0.025824
C67	C	0.971259	0.627314	0.014366
C68	C	1.045160	0.621761	0.017345
C69	C	0.760628	0.628271	-0.196730
C70	C	0.763044	0.623043	-0.265396
C71	C	0.761763	0.853094	-0.001512
C72	C	0.764564	0.924169	-0.003921
C73	C	0.726273	0.702558	-0.341648
C74	C	0.728554	0.697640	-0.406164
C75	C	0.767600	0.613206	-0.394424
C76	C	0.804375	0.533685	-0.318164
C77	C	0.802099	0.538603	-0.253650
C78	C	0.778476	0.589705	-0.582652
C79	C	0.780747	0.584792	-0.647174
C80	C	0.704926	0.748748	-0.735169
C81	C	0.702650	0.753659	-0.670650
C82	C	0.739428	0.674138	-0.594395
N83	N	0.769929	0.608177	-0.460368
N84	N	0.737103	0.679167	-0.528453
C85	C	0.746392	0.659079	0.207908
C86	C	0.743976	0.664307	0.276574
C87	C	0.963006	0.417895	0.021466
C88	C	1.034107	0.341267	0.026855
C89	C	0.738139	0.449660	0.215009
C90	C	0.732922	0.383813	0.286084
C91	C	0.955888	0.433299	0.223786
C92	C	1.024573	0.361899	0.297840
C93	C	0.551132	0.854051	-0.212608
C94	C	0.482447	0.925451	-0.286662
C95	C	0.544014	0.869455	-0.010288
C96	C	0.472913	0.946083	-0.015677
C97	C	0.768881	0.837690	-0.203831
C98	C	0.774098	0.903537	-0.274906
C99	C	1.026367	0.305468	-0.011842
C100	C	1.093168	0.233477	-0.006794
C101	C	1.167708	0.197282	0.036955
C102	C	1.175446	0.233087	0.075653
C103	C	1.108646	0.305082	0.070600
C104	C	0.771602	0.352704	0.360689
C105	C	0.766697	0.290844	0.427477
C106	C	0.723117	0.260089	0.419659
C107	C	0.684433	0.291204	0.345046
C108	C	0.689333	0.353068	0.278259
C109	C	1.100745	0.322166	0.294823
C110	C	1.165289	0.255087	0.364399
C111	C	1.153659	0.227737	0.436990
C112	C	1.077479	0.267478	0.440004
C113	C	1.012937	0.334560	0.370429
C114	C	0.406275	0.965192	-0.283646
C115	C	0.341732	1.032292	-0.353222
C116	C	0.353362	1.059645	-0.425813
C117	C	0.429542	1.019900	-0.428827
C118	C	0.494084	0.952806	-0.359252
C119	C	0.480654	0.981888	0.023013
C120	C	0.413854	1.053896	0.017947
C121	C	0.339314	1.090094	-0.025805
C122	C	0.331576	1.054285	-0.064500
C123	C	0.398375	0.982282	-0.059438
C124	C	0.817685	0.934272	-0.267063
C125	C	0.822602	0.996133	-0.333838
C126	C	0.783927	1.027262	-0.408457
C127	C	0.740338	0.996520	-0.416298
C128	C	0.735427	0.934656	-0.349523
H129	H	0.657778	0.247064	0.088005
C130	C	1.084643	0.194093	-0.049357
C131	C	1.002647	0.233899	-0.097463
C132	C	0.994120	0.194516	-0.140023
C133	C	1.067588	0.115326	-0.134477
C134	C	1.149590	0.075516	-0.086368
C135	C	1.158117	0.114899	-0.043808
H136	H	0.948257	0.292524	-0.101571
H137	H	0.933417	0.223987	-0.175637
H138	H	1.061276	0.086173	-0.165982
H139	H	1.203980	0.016891	-0.082260
H140	H	1.218820	0.085428	-0.008194
C141	C	0.862192	0.048021	-0.087927
C142	C	0.844838	0.089048	-0.176193
C143	C	0.894615	0.118917	-0.218996
C144	C	0.961746	0.107759	-0.173533
C145	C	0.979104	0.066729	-0.085263
C146	C	0.929326	0.036860	-0.042460
H147	H	0.795140	0.097310	-0.209852
H148	H	0.881765	0.149290	-0.284340
H149	H	0.998594	0.129870	-0.205218
H150	H	1.028801	0.058468	-0.051604
H151	H	0.942176	0.006488	0.022884
C152	C	0.650380	0.379548	0.094363
C153	C	0.600629	0.349648	0.137182
C154	C	0.553778	0.393202	0.177513
C155	C	0.556678	0.466655	0.175025
C156	C	0.606431	0.496559	0.132204
C157	C	0.653282	0.453005	0.091873
H158	H	0.598481	0.295270	0.139026
H159	H	0.516948	0.371065	0.209212
H160	H	0.521996	0.498896	0.204880
H161	H	0.608579	0.550936	0.130360
H162	H	0.690112	0.475142	0.060174
H163	H	0.120377	0.472551	0.097417
H164	H	0.817099	0.224562	-0.049141
H165	H	0.708851	1.021875	-0.477062
C166	C	0.870543	1.029948	-0.325201
C167	C	0.913068	0.995717	-0.243121
C168	C	0.961008	1.029531	-0.234482
C169	C	0.966422	1.097577	-0.307922
C170	C	0.923896	1.131812	-0.390008
C171	C	0.875956	1.097998	-0.398647
H172	H	0.909061	0.945342	-0.188751
H173	H	0.992489	1.004187	-0.173716
H174	H	1.001910	1.122608	-0.301527
H175	H	0.927903	1.182187	-0.444378
H176	H	0.844475	1.123342	-0.459413
H177	H	0.844469	-0.080883	-0.072707
H178	H	0.524176	0.517347	0.073393
H179	H	0.699930	0.909639	-0.355921
C180	C	0.809261	0.256618	0.509546
C181	C	0.803877	0.188572	0.583018
C182	C	0.846442	0.154347	0.665083
C183	C	0.894390	0.188168	0.673676
C184	C	0.899776	0.256217	0.600202
C185	C	0.857211	0.290442	0.518136
H186	H	0.768382	0.163533	0.576659
H187	H	0.842455	0.103973	0.719474
H188	H	0.925899	0.162832	0.734426
H189	H	0.935272	0.281256	0.606561
H190	H	0.861198	0.340817	0.463746
C191	C	1.257443	0.193256	0.123786
C192	C	1.330912	0.114055	0.129348
C193	C	1.412910	0.074215	0.177489
C194	C	1.421439	0.113576	0.220068
C195	C	1.347967	0.192781	0.214508
C196	C	1.265969	0.232622	0.166367
H197	H	1.324601	0.084914	0.097827
H198	H	1.467299	0.015581	0.181605
H199	H	1.482138	0.084083	0.255705
H200	H	1.354277	0.221922	0.246029
H201	H	1.211580	0.291255	0.162251
C202	C	0.385733	0.837480	-0.098411
C203	C	0.305849	0.930524	-0.148349
C204	C	0.302345	1.017828	-0.195199
C205	C	0.378725	1.012087	-0.192112
C206	C	0.458614	0.919039	-0.142173
C207	C	0.462118	0.831736	-0.095322
H208	H	0.249304	0.934778	-0.150636
H209	H	0.243206	1.086708	-0.232168
H210	H	0.376131	1.076714	-0.226794
H211	H	0.515160	0.914786	-0.139886
H212	H	0.521258	0.762855	-0.058354
H213	H	0.719133	0.209715	0.474048
H214	H	0.108810	0.760534	-0.057134
C215	C	0.265838	1.169293	-0.031363
C216	C	0.183842	1.209115	-0.079483
C217	C	0.110369	1.288312	-0.085035
C218	C	0.118893	1.327686	-0.042467
C219	C	0.200893	1.287864	0.005656
C220	C	0.274365	1.208667	0.011208
H221	H	0.177529	1.179968	-0.110997
H222	H	0.049668	1.317791	-0.120659
H223	H	0.064504	1.386312	-0.046578
H224	H	0.207205	1.317011	0.037170
H225	H	0.335067	1.179188	0.046832
C226	C	0.847318	0.440808	-0.305253
C227	C	0.916586	0.410573	-0.335198
C228	C	0.959524	0.317697	-0.322287
C229	C	0.933194	0.255055	-0.279430
C230	C	0.863923	0.285289	-0.249482
C231	C	0.820985	0.378166	-0.262393
H232	H	0.936080	0.456945	-0.366926
H233	H	1.010803	0.295316	-0.344457
H234	H	0.964979	0.186302	-0.269873
H235	H	0.844429	0.238917	-0.217755
H236	H	0.769706	0.400546	-0.240223
C237	C	0.672228	-0.066153	0.075572
C238	C	0.625385	-0.022615	0.115912
C239	C	0.575644	-0.052531	0.158742
C240	C	0.572746	-0.125986	0.161232
C241	C	0.619590	-0.169528	0.120890
C242	C	0.669331	-0.139612	0.078060
H243	H	0.627529	0.031765	0.114070
H244	H	0.540967	-0.020298	0.188606
H245	H	0.535924	-0.148132	0.192938
H246	H	0.617446	-0.223908	0.122732
H247	H	0.704009	-0.171845	0.048197
H248	H	0.689930	0.062769	0.060339
H249	H	0.821872	0.345722	-0.053265
H250	H	0.832041	0.473854	-0.191561
H251	H	0.398204	0.526823	0.068306
H252	H	0.279709	1.064642	-0.350752
H253	H	0.965679	0.334937	-0.047477
H254	H	0.270877	1.083768	-0.100122
C255	C	0.442325	1.049991	-0.508682
C256	C	0.407842	1.039321	-0.565036
C257	C	0.420621	1.069410	-0.644893
C258	C	0.467884	1.110170	-0.668396
C259	C	0.502370	1.120842	-0.612041
C260	C	0.489591	1.090753	-0.532184
H261	H	0.372853	1.009146	-0.547638
H262	H	0.395092	1.061510	-0.686610
H263	H	0.477344	1.132444	-0.727511
H264	H	0.537360	1.151016	-0.629439
H265	H	0.515120	1.098653	-0.490466
C266	C	0.334903	0.512938	0.075758
C267	C	0.394938	0.482762	0.036554
C268	C	0.474830	0.389719	0.086485
C269	C	0.494688	0.326852	0.175620
C270	C	0.434652	0.357027	0.214828
C271	C	0.354759	0.450069	0.164897
H272	H	0.380239	0.529301	-0.029433
H273	H	0.519272	0.367382	0.057460
H274	H	0.553829	0.257976	0.212582
H275	H	0.449351	0.310488	0.280816
H276	H	0.310317	0.472406	0.193923
H277	H	0.246359	0.463072	0.102493
H278	H	1.222094	0.138659	0.041063
H279	H	0.392062	0.953132	-0.090942
C280	C	0.659703	0.846535	-0.683561
C281	C	0.590432	0.876760	-0.653617
C282	C	0.547484	0.969635	-0.666525
C283	C	0.573806	1.032286	-0.709376
C284	C	0.643081	1.002062	-0.739322
C285	C	0.686029	0.909187	-0.726415
H286	H	0.570944	0.830381	-0.621894
H287	H	0.496202	0.992009	-0.644356
H288	H	0.542013	1.101038	-0.718931
H289	H	0.662570	1.048441	-0.771046
H290	H	0.737311	0.886813	-0.748583
H291	H	0.657837	0.378388	0.217515
C292	C	1.064698	0.237372	0.519860
C293	C	1.099172	0.248030	0.576231
C294	C	1.086395	0.217912	0.656091
C295	C	1.039144	0.177137	0.679580
C296	C	1.004666	0.166477	0.623207
C297	C	1.017444	0.196595	0.543348
H298	H	1.134153	0.278216	0.558845
H299	H	1.111918	0.225803	0.697821
H300	H	1.029685	0.154842	0.738696
H301	H	0.969686	0.136291	0.640594
H302	H	0.991921	0.188704	0.501617
H303	H	0.950916	0.366903	0.372896
H304	H	0.808424	0.524953	-0.520570
H305	H	-0.017161	0.770008	-0.062216
H306	H	0.192858	0.750245	-0.051600
H307	H	0.807089	0.377738	0.367070
C308	C	0.239905	0.848447	-0.104307
C309	C	0.220065	0.911298	-0.193441
C310	C	0.140175	1.004342	-0.243389
C311	C	0.080126	1.034536	-0.204204
C312	C	0.099965	0.971683	-0.115065
C313	C	0.179855	0.878639	-0.065117
H314	H	0.264518	0.888948	-0.222452
H315	H	0.125489	1.050869	-0.309375
H316	H	0.020987	1.103413	-0.241178
H317	H	0.055512	0.994033	-0.086054
H318	H	0.194541	0.832112	0.000869
H319	H	0.694472	0.771314	-0.351216
H320	H	0.300801	1.114278	-0.482459
H321	H	0.698613	0.762389	-0.468250
C322	C	0.577873	0.909089	-0.362577
C323	C	0.590656	0.939180	-0.442429
C324	C	0.674443	0.895468	-0.445761
C325	C	0.745448	0.821665	-0.369241
C326	C	0.732667	0.791570	-0.289383
C327	C	0.648879	0.835281	-0.286051
H328	H	0.538092	0.993817	-0.499079
H329	H	0.683904	0.917748	-0.504877
H330	H	0.807472	0.789307	-0.371707
H331	H	0.785231	0.736932	-0.232733
H332	H	0.639419	0.813002	-0.226934
H333	H	1.114959	0.334220	0.102117
H334	H	0.541341	0.952422	0.058645
H335	H	0.420170	1.083040	0.049461
H336	H	0.674984	0.813489	-0.797261
H337	H	0.849179	0.908937	-0.206311
H338	H	0.812542	0.516032	-0.637607
H339	H	0.648950	0.266154	0.338692
H340	H	0.787933	1.077636	-0.462823
H341	H	1.110229	0.344423	0.235723
H342	H	1.206220	0.173113	0.493636
H343	H	1.227313	0.222736	0.361931
H344	H	0.396791	0.942926	-0.224545
