data_functionalizedCrystal
_audit_creation_method	'MofGen! by Chris Wilmer'
_symmetry_space_group_name_H-M	'P1'
_symmetry_Int_Tables_number	1
_symmetry_cell_setting	triclinic
loop_
_symmetry_equiv_pos_as_xyz
  x,y,z
_cell_length_a	15.944545
_cell_length_b	15.944493
_cell_length_c	15.072220
_cell_angle_alpha	90.004743
_cell_angle_beta	89.990287
_cell_angle_gamma	83.485608
loop_
_atom_site_label
_atom_site_type_symbol
_atom_site_fract_x
_atom_site_fract_y
_atom_site_fract_z
O1	O	1.114515	0.108304	-0.073713
O2	O	0.869962	0.121666	-0.073726
O3	O	0.998942	-0.007293	-0.073727
O4	O	0.985535	0.237264	-0.073713
O5	O	0.998910	-0.007286	0.073838
O6	O	0.869930	0.121674	0.073839
O7	O	1.114483	0.108311	0.073852
Zn8	Zn	0.992202	0.114994	0.097274
Zn9	Zn	0.992244	0.114984	-0.097149
O10	O	0.985503	0.237271	0.073852
C11	C	0.838652	0.121116	0.000054
C12	C	0.745406	0.119456	0.000049
C13	C	0.474791	0.034560	0.000053
C14	C	0.525349	0.075494	0.072815
C15	C	0.409764	0.113535	0.000064
C16	C	0.525361	0.075508	-0.072672
C17	C	0.574677	0.116440	0.000055
C18	C	0.459093	0.154448	0.072886
C19	C	0.459101	0.154450	-0.072667
C20	C	0.509626	0.195442	0.000112
C21	C	0.314762	0.111860	0.000070
C22	C	0.669676	0.118122	0.000055
C23	C	0.998378	-0.038584	0.000052
C24	C	0.996735	-0.131833	0.000041
C25	C	1.072656	-0.367594	0.000061
C26	C	1.031731	-0.418165	-0.072698
C27	C	0.993691	-0.302554	0.000051
C28	C	1.031681	-0.418134	0.072790
C29	C	0.990757	-0.467463	0.000065
C30	C	0.952787	-0.351896	-0.072768
C31	C	0.952749	-0.351862	0.072785
C32	C	0.911766	-0.402400	0.000008
C33	C	0.995384	-0.207554	0.000042
C34	C	0.989058	-0.562460	0.000068
C35	C	1.145793	0.108862	0.000069
C36	C	1.239039	0.110522	0.000069
C37	C	0.986067	0.268562	0.000072
C38	C	0.987710	0.361811	0.000077
N39	N	0.992179	0.115000	0.229963
N40	N	0.992273	0.114972	-0.229838
C41	C	0.992242	0.114981	0.589165
C42	C	0.922996	0.183753	0.551558
C43	C	0.923154	0.184004	0.448732
C44	C	0.992210	0.114990	0.410961
C45	C	1.079850	0.134136	0.448258
C46	C	1.079462	0.134625	0.551116
C47	C	0.974630	0.026859	0.551259
C48	C	0.972619	0.027447	0.448395
C49	C	0.992198	0.114994	0.310247
C50	C	0.992260	0.114979	0.689878
H51	H	1.140674	-0.351967	-0.000008
C52	C	0.907788	-0.312974	-0.155963
C53	C	0.814231	-0.323475	-0.172395
C54	C	0.769235	-0.284550	-0.255589
C55	C	0.817796	-0.235125	-0.322350
C56	C	0.911358	-0.224622	-0.305920
C57	C	0.956354	-0.263546	-0.222726
H58	H	0.778279	-0.360064	-0.122973
H59	H	0.699974	-0.292326	-0.267752
H60	H	0.784488	-0.206311	-0.383935
H61	H	0.947311	-0.188033	-0.355342
H62	H	1.025615	-0.255771	-0.210563
H63	H	0.934085	0.248779	0.577401
C64	C	1.100424	0.221445	0.583527
C65	C	1.185120	0.252717	0.558137
C66	C	1.206080	0.339541	0.590542
C67	C	1.142345	0.395092	0.648337
C68	C	1.057644	0.363820	0.673730
C69	C	1.036683	0.276997	0.641325
H70	H	1.232306	0.211594	0.515351
H71	H	1.268782	0.362690	0.571744
H72	H	1.157861	0.459364	0.672325
H73	H	1.010458	0.404943	0.716515
H74	H	0.973981	0.253848	0.660122
H75	H	0.430161	0.187771	-0.134180
H76	H	1.095743	0.197670	0.422494
C77	C	1.151529	0.069809	0.584456
C78	C	1.222144	0.098957	0.642627
C79	C	1.294388	0.034279	0.675831
C80	C	1.296018	-0.059547	0.650865
C81	C	1.225401	-0.088700	0.592692
C82	C	1.153156	-0.024021	0.559487
H83	H	1.220940	0.168417	0.661110
H84	H	1.346664	0.055859	0.718895
H85	H	1.349498	-0.107426	0.675445
H86	H	1.226605	-0.158159	0.574208
H87	H	1.100880	-0.045602	0.516423
H88	H	0.430263	0.187779	0.134466
H89	H	1.065092	-0.447114	-0.134207
C90	C	0.564452	0.030435	-0.155773
C91	C	0.613333	0.079141	-0.222899
C92	C	0.652421	0.034062	-0.305995
C93	C	0.642628	-0.059724	-0.321964
C94	C	0.593745	-0.108436	-0.254836
C95	C	0.554656	-0.063357	-0.171740
H96	H	0.620584	0.148572	-0.211080
H97	H	0.688608	0.070122	-0.355688
H98	H	0.671564	-0.093095	-0.383477
H99	H	0.586494	-0.177867	-0.266656
H100	H	0.518470	-0.099417	-0.122048
C101	C	0.819810	-0.423301	-0.000049
C102	C	0.787745	-0.475460	-0.076329
C103	C	0.695791	-0.496364	-0.076392
C104	C	0.635902	-0.465109	-0.000175
C105	C	0.667966	-0.412946	0.076110
C106	C	0.759920	-0.392042	0.076174
H107	H	0.832080	-0.498601	-0.132754
H108	H	0.672056	-0.534979	-0.132864
H109	H	0.567833	-0.480583	-0.000222
H110	H	0.623632	-0.389806	0.132536
H111	H	0.783655	-0.353428	0.132646
H112	H	1.132609	0.085379	0.423789
C113	C	0.907720	-0.312724	0.155882
C114	C	0.940881	-0.339076	0.248894
C115	C	0.895860	-0.299937	0.331999
C116	C	0.817678	-0.234446	0.322092
C117	C	0.784513	-0.208090	0.229075
C118	C	0.829534	-0.247229	0.145970
H119	H	0.998760	-0.387560	0.256232
H120	H	0.920412	-0.319448	0.400856
H121	H	0.784351	-0.205473	0.383611
H122	H	0.726634	-0.159606	0.221738
H123	H	0.804982	-0.227718	0.077113
C124	C	0.885537	0.007800	0.415447
C125	C	0.851555	-0.074976	0.443094
C126	C	0.764478	-0.094625	0.410130
C127	C	0.711381	-0.031499	0.349521
C128	C	0.745362	0.051283	0.321872
C129	C	0.832439	0.070932	0.354835
H130	H	0.890861	-0.121711	0.487963
H131	H	0.739323	-0.155906	0.430599
H132	H	0.646921	-0.046044	0.325120
H133	H	0.706056	0.098018	0.277002
H134	H	0.857594	0.132213	0.334367
H135	H	0.459152	-0.033454	0.000120
C136	C	1.036327	-0.044935	0.413669
C137	C	1.107576	-0.025731	0.350431
C138	C	1.171292	-0.098111	0.315706
C139	C	1.163759	-0.189696	0.344217
C140	C	1.092507	-0.208905	0.407458
C141	C	1.028791	-0.136525	0.442184
H142	H	1.113155	0.042070	0.329322
H143	H	1.224037	-0.083891	0.268891
H144	H	1.210925	-0.243277	0.318511
H145	H	1.086928	-0.276705	0.428567
H146	H	0.976046	-0.150745	0.488999
C147	C	1.076727	-0.457208	0.155891
C148	C	1.170513	-0.447427	0.171857
C149	C	1.215566	-0.486499	0.254952
C150	C	1.166833	-0.535351	0.322082
C151	C	1.073042	-0.545133	0.306117
C152	C	1.027989	-0.506062	0.223022
H153	H	1.206593	-0.411262	0.122162
H154	H	1.284996	-0.479257	0.266769
H155	H	1.200184	-0.564274	0.383594
H156	H	1.036962	-0.581298	0.355812
H157	H	0.958559	-0.513304	0.211205
H158	H	0.912112	0.008450	0.577244
C159	C	0.835143	0.168611	0.414665
C160	C	0.798054	0.086600	0.439160
C161	C	0.710036	0.071212	0.405100
C162	C	0.659109	0.137836	0.346545
C163	C	0.696198	0.219853	0.322047
C164	C	0.784215	0.235240	0.356107
H165	H	0.835754	0.037276	0.482508
H166	H	0.682581	0.010498	0.423235
H167	H	0.593953	0.126446	0.321332
H168	H	0.658498	0.269177	0.278699
H169	H	0.811671	0.295955	0.337972
H170	H	0.554273	0.042143	0.134326
H171	H	0.857640	0.172533	0.576315
H172	H	0.934399	0.249398	0.424123
H173	H	0.525104	0.263508	0.000159
H174	H	1.025128	-0.024319	0.575577
