data_functionalizedCrystal
_audit_creation_method	'MofGen! by Chris Wilmer'
_symmetry_space_group_name_H-M	'P1'
_symmetry_Int_Tables_number	1
_symmetry_cell_setting	triclinic
loop_
_symmetry_equiv_pos_as_xyz
  x,y,z
_cell_length_a	6.817900
_cell_length_b	15.301126
_cell_length_c	11.168136
_cell_angle_alpha	93.625843
_cell_angle_beta	108.508683
_cell_angle_gamma	104.177575
loop_
_atom_site_label
_atom_site_type_symbol
_atom_site_fract_x
_atom_site_fract_y
_atom_site_fract_z
V1	V	-4.087806	-0.124772	-0.394083
O2	O	-4.070525	0.005982	-0.386186
O3	O	-4.042399	-0.247389	-0.391768
O4	O	-4.064435	-0.122859	-0.565783
O5	O	-4.048336	-0.119410	-0.210966
V6	V	-4.567803	-0.109132	-0.372135
O7	O	-4.356799	-0.159081	-0.442228
O8	O	-4.749007	-0.074823	-0.323989
O9	O	-4.390003	0.013485	-0.374450
O10	O	-4.702481	-0.239886	-0.380031
O11	O	-4.724669	-0.114494	-0.555251
O12	O	-4.367967	-0.111045	-0.200435
C13	C	-3.887318	-0.277280	-0.385649
C14	C	-3.931646	-0.377521	-0.384900
C15	C	-3.915426	-0.118429	-0.607621
C16	C	-3.977621	-0.117676	-0.747989
C17	C	-4.135628	-0.429207	-0.390861
C18	C	-4.177271	-0.523395	-0.390165
C19	C	-4.014924	-0.565893	-0.383499
C20	C	-3.810926	-0.514201	-0.377542
C21	C	-3.769290	-0.420016	-0.378247
C22	C	-3.897718	-0.710511	-0.376069
C23	C	-3.939354	-0.804702	-0.375362
C24	C	-4.305699	-0.813891	-0.387987
C25	C	-4.264064	-0.719706	-0.388692
C26	C	-4.060067	-0.668019	-0.382733
C27	C	-4.179432	-0.121617	-0.816693
C28	C	-4.243717	-0.120839	-0.961771
C29	C	-4.208426	0.043371	-0.380565
C30	C	-4.143337	0.143611	-0.381322
C31	C	-4.180317	-0.115478	-0.158590
C32	C	-4.097361	-0.116227	-0.018221
H33	H	-4.343372	-0.565475	-0.395021
O34	O	-4.449978	-0.124751	-1.032056
C35	C	-4.738068	-0.053724	-1.066338
C36	C	-4.504462	-0.049190	-0.986619
H37	H	-4.782177	0.007369	-1.029650
H38	H	-4.851771	-0.119443	-1.057661
H39	H	-4.753148	-0.052426	-1.170794
H40	H	-4.489174	-0.050452	-0.882134
H41	H	-4.390871	0.016522	-0.995405
H42	H	-3.807173	-0.839306	-0.369971
O43	O	-4.293252	-0.387847	-0.397500
C44	C	-4.513618	-0.299141	-0.515604
C45	C	-4.335046	-0.345917	-0.508222
H46	H	-4.547496	-0.265245	-0.605129
H47	H	-4.459175	-0.245334	-0.427502
H48	H	-4.666504	-0.352277	-0.519683
H49	H	-4.182097	-0.292849	-0.504183
H50	H	-4.389668	-0.399741	-0.596322
H51	H	-3.924475	-0.112858	-0.959169
H52	H	-4.396261	-0.685106	-0.394113
O53	O	-3.699557	-0.660186	-0.370113
C54	C	-3.385237	-0.536304	-0.253592
C55	C	-3.609638	-0.593213	-0.260205
H56	H	-3.312452	-0.482156	-0.164724
H57	H	-3.400642	-0.501799	-0.342353
H58	H	-3.276419	-0.582878	-0.248764
H59	H	-3.718577	-0.546702	-0.264991
H60	H	-3.594066	-0.627728	-0.171446
O61	O	-3.570991	-0.369818	-0.372223
C62	C	-3.190465	-0.320940	-0.251746
C63	C	-3.414918	-0.377806	-0.258385
H64	H	-3.064214	-0.327395	-0.159728
H65	H	-3.188430	-0.246302	-0.253312
H66	H	-3.152575	-0.347078	-0.337346
H67	H	-3.452950	-0.351748	-0.172803
H68	H	-3.416838	-0.452436	-0.256880
H69	H	-4.471793	-0.855976	-0.392821
H70	H	-3.678746	-0.548811	-0.372122
H71	H	-4.304613	-0.125561	-0.768107
H72	H	-3.852432	-0.113720	-0.796573
