data_functionalizedCrystal
_audit_creation_method	'MofGen! by Chris Wilmer'
_symmetry_space_group_name_H-M	'P1'
_symmetry_Int_Tables_number	1
_symmetry_cell_setting	triclinic
loop_
_symmetry_equiv_pos_as_xyz
  x,y,z
_cell_length_a	12.837943
_cell_length_b	14.519709
_cell_length_c	11.892095
_cell_angle_alpha	93.895429
_cell_angle_beta	85.689438
_cell_angle_gamma	89.254542
loop_
_atom_site_label
_atom_site_type_symbol
_atom_site_fract_x
_atom_site_fract_y
_atom_site_fract_z
O1	O	1.382515	0.234472	-0.093988
O2	O	1.080688	0.222627	-0.093995
O3	O	1.239604	0.095003	-0.093981
O4	O	1.223600	0.362096	-0.094002
O5	O	1.226354	0.105626	0.094025
O6	O	1.067438	0.233250	0.094012
O7	O	1.369265	0.245095	0.094018
Zn8	Zn	1.216248	0.240859	0.123865
Zn9	Zn	1.233706	0.226863	-0.123842
O10	O	1.210350	0.372719	0.094005
C11	C	1.035435	0.223937	0.000008
C12	C	0.920336	0.212002	0.000006
C13	C	1.232233	0.065890	0.000022
C14	C	1.229998	-0.036684	0.000023
C15	C	0.679644	0.355473	0.000011
C16	C	0.571497	0.344264	0.000010
C17	C	0.595894	0.178377	0.000010
C18	C	0.704041	0.189586	0.000012
C19	C	0.745911	0.278137	0.000010
C20	C	0.854060	0.289344	0.000003
C21	C	0.878455	0.123458	0.000012
C22	C	0.770308	0.112249	0.000011
C23	C	1.221771	-0.412293	-0.000007
C24	C	1.224055	-0.307787	0.000002
C25	C	1.225884	-0.224492	0.000009
C26	C	1.228169	-0.119979	0.000016
C27	C	1.414519	0.243785	0.000013
C28	C	1.529618	0.255719	0.000008
C29	C	1.217721	0.401831	-0.000001
C30	C	1.219957	0.504405	-0.000009
N31	N	1.204341	0.250411	0.292918
N32	N	1.245621	0.217304	-0.292895
C33	C	1.328473	0.150784	0.529576
C34	C	1.320158	0.157468	0.647918
C35	C	1.179391	0.270458	0.647944
C36	C	1.187707	0.263774	0.529603
C37	C	1.262251	0.203936	0.470423
C38	C	1.270570	0.197257	0.352080
C39	C	1.129800	0.310242	0.352108
C40	C	1.121484	0.316926	0.470449
H41	H	0.713735	0.427575	0.000008
H42	H	1.389177	0.102068	0.481392
O43	O	1.107025	0.328694	0.705310
C44	C	1.044032	0.485754	0.741591
C45	C	1.126042	0.419906	0.676538
H46	H	1.059392	0.559515	0.718371
H47	H	0.962592	0.465149	0.718307
H48	H	1.049441	0.481348	0.836328
H49	H	1.120729	0.424279	0.581785
H50	H	1.207447	0.440532	0.699916
H51	H	1.075880	0.353524	0.303932
O52	O	0.729762	0.026181	-0.000143
C53	C	0.724335	-0.124506	-0.097593
C54	C	0.770348	-0.027074	-0.097540
H55	H	0.757113	-0.167585	-0.176342
H56	H	0.746104	-0.158833	-0.018971
H57	H	0.635655	-0.119207	-0.097538
H58	H	0.859032	-0.032291	-0.097635
H59	H	0.748496	0.007216	-0.176156
O60	O	1.384598	0.105800	0.705205
C61	C	1.525047	-0.007024	0.692685
C62	C	1.452152	0.051458	0.627668
H63	H	1.579668	-0.050989	0.630025
H64	H	1.573097	0.040456	0.748047
H65	H	1.476281	-0.053885	0.748131
H66	H	1.500837	0.098325	0.572161
H67	H	1.404097	0.003924	0.572378
O68	O	0.555379	0.092303	0.000061
C69	C	0.590982	-0.071058	-0.000015
C70	C	0.637001	0.026369	-0.000043
H71	H	0.656952	-0.124394	-0.000123
H72	H	0.535455	-0.076069	0.078685
H73	H	0.546463	-0.084840	-0.078675
H74	H	0.681571	0.040215	0.078564
H75	H	0.692472	0.031331	-0.078795
H76	H	1.060789	0.365642	0.518647
H77	H	0.888149	0.361447	0.000004
H78	H	0.932423	0.060485	0.000004
O79	O	0.507276	0.419484	-0.000045
C80	C	0.494490	0.585208	0.000021
C81	C	0.567341	0.500097	0.000055
H82	H	0.543021	0.650406	0.000125
H83	H	0.448815	0.579731	-0.078679
H84	H	0.437684	0.588496	0.078682
H85	H	0.624209	0.496756	-0.078553
H86	H	0.612942	0.505609	0.078807
H87	H	1.331271	0.148537	0.303897
