data_functionalizedCrystal
_audit_creation_method	'MofGen! by Chris Wilmer'
_symmetry_space_group_name_H-M	'P1'
_symmetry_Int_Tables_number	1
_symmetry_cell_setting	triclinic
loop_
_symmetry_equiv_pos_as_xyz
  x,y,z
_cell_length_a	27.732048
_cell_length_b	17.019282
_cell_length_c	15.500215
_cell_angle_alpha	90.690105
_cell_angle_beta	93.208767
_cell_angle_gamma	96.982976
loop_
_atom_site_label
_atom_site_type_symbol
_atom_site_fract_x
_atom_site_fract_y
_atom_site_fract_z
O1	O	0.061381	-1.045661	-0.005978
O2	O	0.069716	-0.816670	0.011092
O3	O	-0.004836	-0.938277	0.002010
O4	O	0.135933	-0.924054	0.003104
O5	O	-0.008828	-0.931794	-0.141397
O6	O	0.065724	-0.810188	-0.132315
O7	O	0.057389	-1.039178	-0.149385
Cu8	Cu	0.061192	-0.924091	-0.153944
Cu9	Cu	0.065913	-0.931757	0.015651
O10	O	0.131941	-0.917572	-0.140303
C11	C	-0.024840	-0.934737	-0.069673
C12	C	-0.078496	-0.933837	-0.069613
C13	C	0.067484	-0.784142	-0.058429
C14	C	0.066775	-0.696876	-0.051925
C15	C	0.059621	-1.071707	-0.079862
C16	C	0.060330	-1.158973	-0.086361
C17	C	-0.417191	-1.000041	-0.074504
C18	C	-0.618857	-0.996706	-0.074243
O19	O	-0.650003	-1.057245	-0.078718
N20	N	-0.638110	-0.924598	-0.068869
C21	C	-0.606943	-0.853319	-0.063554
O22	O	-0.627946	-0.791910	-0.058968
C23	C	-0.405278	-0.856655	-0.063808
C24	C	-0.386029	-0.928767	-0.069192
C25	C	-0.397941	-1.072148	-0.079886
C26	C	-0.347528	-1.072981	-0.079956
C27	C	-0.316365	-1.001707	-0.074643
C28	C	-0.335615	-0.929600	-0.069261
C29	C	-0.374112	-0.785377	-0.058487
C30	C	-0.323693	-0.786217	-0.058549
C31	C	-0.304444	-0.858330	-0.063932
C32	C	-0.254039	-0.859159	-0.064019
N33	N	-0.234786	-0.931267	-0.069393
C34	C	-0.265949	-1.002541	-0.074706
C35	C	-0.712820	-0.851572	-0.063422
C36	C	-0.763236	-0.850738	-0.063360
C37	C	-0.775146	-0.994125	-0.074048
C38	C	-0.724730	-0.994959	-0.074116
C39	C	-0.693567	-0.923680	-0.068796
C40	C	-0.160077	-1.004285	-0.074853
C41	C	-0.109659	-1.005111	-0.074925
C42	C	-0.097753	-0.861724	-0.064233
C43	C	-0.148167	-0.860897	-0.064165
C44	C	-0.179328	-0.932184	-0.069472
O45	O	-0.222864	-0.798653	-0.059537
O46	O	-0.244936	-1.063942	-0.079272
C47	C	-0.467605	-0.999208	-0.074434
C48	C	-0.486855	-0.927102	-0.069052
C49	C	-0.455692	-0.855828	-0.063740
C50	C	-0.537271	-0.926267	-0.068990
C51	C	-0.568434	-0.997541	-0.074302
C52	C	-0.549181	-1.069649	-0.079676
C53	C	-0.498768	-1.070482	-0.079746
C54	C	-0.474945	-0.783720	-0.058366
C55	C	-0.525359	-0.782893	-0.058297
C56	C	-0.556522	-0.854166	-0.063609
C57	C	0.151944	-0.921112	-0.068618
C58	C	0.205601	-0.922011	-0.068672
N59	N	0.057870	-0.918705	-0.273229
C60	C	0.064264	-0.652349	-0.127042
C61	C	0.063590	-0.570355	-0.120933
C62	C	0.065430	-0.532888	-0.039706
C63	C	0.067939	-0.577421	0.035417
C64	C	0.068610	-0.659415	0.029307
C65	C	0.063510	-0.285499	-0.017348
C66	C	0.062841	-0.203499	-0.011243
C67	C	0.058491	-0.196439	-0.167594
C68	C	0.059164	-0.278434	-0.173697
C69	C	0.061671	-0.322960	-0.098574
C70	C	0.064742	-0.449077	-0.033460
C71	C	0.062355	-0.406770	-0.104821
C72	C	0.085817	-0.963992	-0.321871
C73	C	0.083302	-0.959929	-0.412142
C74	C	0.052843	-0.910574	-0.453769
C75	C	0.024894	-0.865285	-0.405120
C76	C	0.027406	-0.869353	-0.314852
C77	C	0.043794	-0.895929	-0.726147
C78	C	0.041284	-0.891863	-0.816423
C79	C	0.099692	-0.986508	-0.823438
C80	C	0.102204	-0.990568	-0.733167
C81	C	0.074253	-0.945282	-0.684526
C82	C	0.050273	-0.906418	-0.546040
C83	C	0.076821	-0.949443	-0.592257
N84	N	0.069230	-0.937150	0.134935
H85	H	-0.093989	-1.063836	-0.079312
H86	H	0.060855	-0.437280	-0.170956
O87	O	0.069744	-0.540899	0.114254
C88	C	0.070613	-0.417722	0.192960
C89	C	0.068575	-0.458978	0.103622
H90	H	0.069658	-0.351485	0.184394
H91	H	0.105652	-0.427918	0.230901
H92	H	0.037998	-0.443239	0.229729
H93	H	0.101165	-0.433487	0.066781
H94	H	0.033515	-0.448786	0.065746
H95	H	0.106058	-0.996808	-0.451742
H96	H	0.064341	-0.172997	0.054905
H97	H	0.127005	-1.030760	-0.699281
H98	H	0.004649	-0.832475	-0.275248
O99	O	-0.682505	-0.782373	-0.058378
C100	C	-0.620772	-0.696707	-0.126567
C101	C	-0.655068	-0.775105	-0.132375
H102	H	-0.598587	-0.690797	-0.186394
H103	H	-0.595163	-0.696204	-0.066353
H104	H	-0.643206	-0.645047	-0.122677
H105	H	-0.632673	-0.826808	-0.136299
H106	H	-0.680678	-0.775539	-0.192579
H107	H	0.070655	-0.695667	0.090476
O108	O	-0.781960	-0.780701	-0.058293
C109	C	-0.834058	-0.693193	-0.126278
C110	C	-0.812883	-0.772526	-0.132144
H111	H	-0.859072	-0.686565	-0.185970
H112	H	-0.803141	-0.642365	-0.122542
H113	H	-0.855666	-0.691942	-0.065938
H114	H	-0.791281	-0.773854	-0.192480
H115	H	-0.843821	-0.823318	-0.135832
O116	O	0.126813	-1.030618	-0.870602
C117	C	0.144575	-1.161462	-0.908073
C118	C	0.113837	-1.111596	-0.854599
H119	H	0.134088	-1.226943	-0.895167
H120	H	0.184810	-1.144317	-0.888962
H121	H	0.137558	-1.150039	-0.979733
H122	H	0.120813	-1.122994	-0.782925
H123	H	0.073612	-1.128751	-0.873782
O124	O	-0.190275	-1.073602	-0.080055
C125	C	-0.196753	-1.215911	-0.090622
C126	C	-0.162500	-1.137469	-0.084749
H127	H	-0.174310	-1.267569	-0.094400
H128	H	-0.222323	-1.216450	-0.150892
H129	H	-0.218988	-1.221784	-0.030854
H130	H	-0.140234	-1.131545	-0.144472
H131	H	-0.136962	-1.136964	-0.024441
O132	O	0.016725	-0.851871	-0.678818
C133	C	0.017052	-0.750268	-0.569092
C134	C	0.047760	-0.800141	-0.622617
H135	H	0.042131	-0.708421	-0.523653
H136	H	-0.008563	-0.791092	-0.529663
H137	H	-0.005151	-0.714329	-0.614386
H138	H	0.069992	-0.836086	-0.577386
H139	H	0.073344	-0.759274	-0.662056
H140	H	0.016481	-0.851668	-0.850312
O141	O	-0.293353	-0.717048	-0.053351
C142	C	-0.210409	-0.654772	-0.048769
C143	C	-0.244711	-0.733162	-0.054636
H144	H	-0.171075	-0.667771	-0.049823
H145	H	-0.215671	-0.621961	0.013913
H146	H	-0.219092	-0.616541	-0.106119
H147	H	-0.236049	-0.771455	0.002669
H148	H	-0.239443	-0.765911	-0.117352
H149	H	0.065550	-0.321743	0.043823
H150	H	0.066240	-0.418563	0.032676
O151	O	-0.067452	-0.792521	-0.058919
C152	C	-0.001516	-0.713650	0.021489
C153	C	-0.035811	-0.792047	0.015579
H154	H	0.024081	-0.713248	0.081707
H155	H	-0.023904	-0.661933	0.025407
H156	H	0.020687	-0.707752	-0.038316
H157	H	-0.058021	-0.798022	0.075368
H158	H	-0.013395	-0.843725	0.011619
O159	O	0.106465	-0.997267	-0.551778
C160	C	0.174539	-1.005589	-0.450070
C161	C	0.141007	-0.951340	-0.495877
H162	H	0.202468	-0.968481	-0.404850
H163	H	0.194123	-1.037243	-0.500297
H164	H	0.151824	-1.051220	-0.411105
H165	H	0.163686	-0.905665	-0.534840
H166	H	0.121421	-0.919743	-0.445607
H167	H	-0.331860	-1.131702	-0.084336
H168	H	-0.389776	-0.726655	-0.054098
O169	O	0.055965	-0.153172	-0.240541
C170	C	0.010818	-0.065886	-0.325069
C171	C	0.013615	-0.114865	-0.242430
H172	H	-0.023414	-0.034888	-0.326615
H173	H	0.009585	-0.106720	-0.384205
H174	H	0.044238	-0.019744	-0.325537
H175	H	-0.019797	-0.161011	-0.241878
H176	H	0.014872	-0.073981	-0.183332
O177	O	-0.805355	-1.063433	-0.079246
C178	C	-0.811861	-1.205746	-0.089778
C179	C	-0.777594	-1.127319	-0.083925
H180	H	-0.789430	-1.257419	-0.093544
H181	H	-0.837432	-1.206285	-0.150047
H182	H	-0.834095	-1.211593	-0.030007
H183	H	-0.755329	-1.121420	-0.143651
H184	H	-0.752056	-1.126814	-0.023619
H185	H	-0.423310	-1.130191	-0.084209
O186	O	0.061062	-0.527094	-0.193883
C187	C	0.015906	-0.439826	-0.278421
C188	C	0.018708	-0.488795	-0.195776
H189	H	-0.018328	-0.408835	-0.279971
H190	H	0.014675	-0.480665	-0.337552
H191	H	0.049323	-0.393678	-0.278896
H192	H	-0.014701	-0.534946	-0.195218
H193	H	0.019963	-0.447906	-0.136683
H194	H	-0.483100	-1.129204	-0.084130
H195	H	0.000091	-0.825103	-0.439021
H196	H	-0.163841	-0.802176	-0.059805
O197	O	-0.705971	-1.064963	-0.079219
C198	C	-0.653922	-1.152511	-0.011167
C199	C	-0.675118	-1.073196	-0.005291
H200	H	-0.628981	-1.159200	0.048603
H201	H	-0.632258	-1.153792	-0.071438
H202	H	-0.684869	-1.203289	-0.014996
H203	H	-0.644201	-1.022373	-0.001429
H204	H	-0.696796	-1.071983	0.054968
O205	O	-0.579473	-1.138872	-0.084680
C206	C	-0.641258	-1.224462	-0.016526
C207	C	-0.606966	-1.146059	-0.010748
H208	H	-0.663502	-1.230290	0.043231
H209	H	-0.618866	-1.276184	-0.020327
H210	H	-0.666816	-1.224930	-0.076802
H211	H	-0.581401	-1.145514	0.049524
H212	H	-0.629388	-1.094372	-0.006994
H213	H	-0.541027	-0.724165	-0.053921
H214	H	0.025473	-0.866233	-0.579943
H215	H	0.062769	-0.682847	-0.193186
O216	O	-0.444747	-0.714407	-0.053243
C217	C	-0.438266	-0.572101	-0.042596
C218	C	-0.472518	-0.650545	-0.048406
H219	H	-0.460704	-0.520449	-0.038665
H220	H	-0.416053	-0.566137	-0.102389
H221	H	-0.412675	-0.571651	0.017636
H222	H	-0.498138	-0.651050	-0.108601
H223	H	-0.494696	-0.656478	0.011429
O224	O	0.057352	-0.314706	-0.252670
C225	C	0.053000	-0.299040	-0.407103
C226	C	0.055034	-0.257865	-0.317722
H227	H	0.051135	-0.253100	-0.459721
H228	H	0.019369	-0.344840	-0.414509
H229	H	0.087027	-0.329664	-0.413246
H230	H	0.021031	-0.227196	-0.311518
H231	H	0.088687	-0.212108	-0.310356
O232	O	0.115472	-1.011885	-0.281530
C233	C	0.197526	-1.042808	-0.256059
C234	C	0.163997	-0.988520	-0.301806
H235	H	0.236767	-1.023927	-0.272420
H236	H	0.186136	-1.106701	-0.278639
H237	H	0.194498	-1.037953	-0.183190
H238	H	0.167008	-0.993306	-0.374680
H239	H	0.175396	-0.924649	-0.279156
