data_functionalizedCrystal
_audit_creation_method	'MofGen! by Chris Wilmer'
_symmetry_space_group_name_H-M	'P1'
_symmetry_Int_Tables_number	1
_symmetry_cell_setting	triclinic
loop_
_symmetry_equiv_pos_as_xyz
  x,y,z
_cell_length_a	15.995292
_cell_length_b	10.489716
_cell_length_c	15.072220
_cell_angle_alpha	90.002992
_cell_angle_beta	89.986330
_cell_angle_gamma	83.998876
loop_
_atom_site_label
_atom_site_type_symbol
_atom_site_fract_x
_atom_site_fract_y
_atom_site_fract_z
O1	O	1.112006	0.164048	-0.073799
O2	O	0.868346	0.184428	-0.073794
O3	O	0.995731	-0.011441	-0.073800
O4	O	0.984621	0.359917	-0.073793
O5	O	0.995699	-0.011430	0.073766
O6	O	0.868314	0.184439	0.073771
O7	O	1.111974	0.164059	0.073767
Zn8	Zn	0.990139	0.174251	0.097198
Zn9	Zn	0.990181	0.174236	-0.097225
O10	O	0.984589	0.359928	0.073772
C11	C	0.837129	0.183604	-0.000011
C12	C	0.744161	0.181117	-0.000010
C13	C	0.406368	0.171975	-0.000020
C14	C	0.430525	0.313349	-0.000347
C15	C	0.527217	0.316036	-0.000010
C16	C	0.573951	0.176512	-0.000015
C17	C	0.544409	0.105838	0.084247
C18	C	0.447609	0.104136	0.084314
C19	C	0.447772	0.101237	-0.083495
C20	C	0.544296	0.106476	-0.084605
C21	C	0.668663	0.179068	-0.000010
C22	C	0.311657	0.169415	-0.000019
C23	C	0.994880	-0.058956	-0.000020
C24	C	0.992383	-0.200551	-0.000028
C25	C	1.070499	-0.299343	-0.000021
C26	C	1.029236	-0.376118	-0.072775
C27	C	1.029187	-0.376071	0.072712
C28	C	0.951152	-0.275462	-0.072842
C29	C	0.951115	-0.275409	0.072711
C30	C	0.909794	-0.352135	-0.000061
C31	C	1.143191	0.164883	-0.000018
C32	C	1.236158	0.167370	-0.000026
C33	C	0.985440	0.407443	-0.000010
C34	C	0.987937	0.549038	-0.000008
N35	N	0.990117	0.174260	0.229887
N36	N	0.990210	0.174217	-0.229914
C37	C	0.990179	0.174231	0.589088
C38	C	0.921785	0.278686	0.551484
C39	C	0.921945	0.279067	0.448659
C40	C	0.990147	0.174246	0.410884
C41	C	1.077688	0.203286	0.448175
C42	C	1.077306	0.204028	0.551032
C43	C	0.971810	0.040427	0.551187
C44	C	0.969811	0.041320	0.448323
C45	C	0.990135	0.174251	0.310171
C46	C	0.990197	0.174229	0.689802
H47	H	0.545940	0.371728	0.060497
H48	H	0.576659	0.004637	-0.089698
C49	C	1.098993	0.335865	0.583434
N50	N	1.115322	0.435172	0.607835
H51	H	1.138447	-0.275639	-0.000096
C52	C	1.039174	-0.064587	0.584043
N53	N	1.089914	-0.143673	0.608796
C54	C	0.428026	-0.039342	-0.084272
N55	N	0.413148	-0.145222	-0.084851
C56	C	1.073805	-0.435535	-0.155869
N57	N	1.107379	-0.480287	-0.218452
C58	C	0.906655	-0.216336	-0.156036
N59	N	0.873144	-0.171799	-0.218699
H60	H	0.841795	-0.375592	-0.000099
H61	H	0.918154	-0.231415	0.134224
C62	C	1.073737	-0.435418	0.155811
N63	N	1.107297	-0.480113	0.218399
C64	C	0.937527	0.412076	0.586391
N65	N	0.949388	0.512544	0.612684
C66	C	0.834068	0.255721	0.414599
N67	N	0.767873	0.238144	0.388949
C68	C	0.937908	0.413209	0.415404
N69	N	0.949937	0.514248	0.390358
H70	H	0.419723	0.145420	-0.147362
C71	C	1.148199	0.105189	0.584637
N72	N	1.201606	0.030760	0.609944
H73	H	0.421070	0.153091	0.147306
H74	H	0.856531	0.261673	0.576246
C75	C	1.148134	0.103243	0.415114
N76	N	1.201193	0.027889	0.390211
H77	H	1.094117	0.299755	0.422407
C78	C	0.427112	-0.035895	0.089485
N79	N	0.411677	-0.141364	0.093384
H80	H	0.909319	0.012495	0.577177
H81	H	0.905411	0.019281	0.423952
C82	C	1.032668	-0.068607	0.413609
N83	N	1.080024	-0.151400	0.387469
C84	C	0.586661	-0.032849	0.088500
N85	N	0.618496	-0.137302	0.091708
H86	H	0.563186	0.157933	-0.146942
C87	C	0.553392	0.390734	-0.081644
N88	N	0.573105	0.446976	-0.143144
H89	H	0.401817	0.367542	0.059744
C90	C	0.393156	0.386966	-0.081982
N91	N	0.365005	0.442415	-0.143471
C92	C	0.571875	0.172161	0.168970
N93	N	0.592559	0.222125	0.232781
