data_functionalizedCrystal
_audit_creation_method	'MofGen! by Chris Wilmer'
_symmetry_space_group_name_H-M	'P1'
_symmetry_Int_Tables_number	1
_symmetry_cell_setting	triclinic
loop_
_symmetry_equiv_pos_as_xyz
  x,y,z
_cell_length_a	19.188929
_cell_length_b	10.654545
_cell_length_c	18.266242
_cell_angle_alpha	89.991516
_cell_angle_beta	90.026921
_cell_angle_gamma	96.186069
loop_
_atom_site_label
_atom_site_type_symbol
_atom_site_fract_x
_atom_site_fract_y
_atom_site_fract_z
O1	O	-0.098047	1.665778	-0.060913
O2	O	-0.107393	1.300101	-0.060920
O3	O	-0.001133	1.493492	-0.060871
O4	O	-0.204307	1.472387	-0.060962
O5	O	-0.001130	1.493459	0.060891
O6	O	-0.107390	1.300068	0.060842
O7	O	-0.098044	1.665745	0.060849
Zn8	Zn	-0.102716	1.482901	0.080178
Zn9	Zn	-0.102720	1.482945	-0.080249
O10	O	-0.204303	1.472354	0.060800
C11	C	-0.106706	1.253301	-0.000039
C12	C	-0.104655	1.113901	-0.000039
C13	C	-0.103687	1.048399	0.066334
C14	C	-0.101749	0.917420	0.066335
C15	C	-0.101747	0.917457	-0.066416
C16	C	-0.103681	1.048434	-0.066416
C17	C	-0.230321	1.473054	-0.000092
C18	C	-0.307838	1.475106	-0.000127
C19	C	-0.352021	1.361630	-0.000114
C20	C	-0.424858	1.363557	-0.000098
C21	C	-0.453508	1.478967	-0.000079
C22	C	-0.409315	1.592457	-0.000096
C23	C	-0.336481	1.590527	-0.000120
N24	N	-0.562051	1.567172	0.041407
N25	N	-0.631242	1.568998	0.041431
C26	C	-0.672955	1.484791	-0.000009
N27	N	-0.642864	1.398670	-0.041465
N28	N	-0.573668	1.396839	-0.041486
C29	C	-0.532484	1.481073	-0.000054
C30	C	-0.796115	1.373398	0.000021
C31	C	-0.868953	1.375330	0.000033
C32	C	-0.853409	1.604233	0.000042
C33	C	-0.780573	1.602298	0.000023
C34	C	-0.751931	1.486876	0.000015
C35	C	0.024884	1.492792	0.000020
C36	C	0.102402	1.490741	0.000050
C37	C	-0.098731	1.712545	-0.000033
C38	C	-0.100782	1.851945	-0.000038
N39	N	-0.102713	1.482881	0.189665
N40	N	-0.102718	1.482975	-0.189736
C41	C	-0.145454	1.558799	0.227949
C42	C	-0.145452	1.558819	0.304594
C43	C	-0.102717	1.482899	0.342952
C44	C	-0.059967	1.406977	0.304658
C45	C	-0.059965	1.406968	0.228015
N46	N	-0.100279	1.372919	0.463305
N47	N	-0.100285	1.372930	0.536113
C48	C	-0.102720	1.482924	0.573874
N49	N	-0.105162	1.592907	0.536077
N50	N	-0.105160	1.592893	0.463263
C51	C	-0.102714	1.482901	0.426059
C52	C	-0.145462	1.558871	0.695266
C53	C	-0.145455	1.558894	0.771912
C54	C	-0.059974	1.407040	0.771975
C55	C	-0.059976	1.407028	0.695330
C56	C	-0.102724	1.482942	0.656980
H57	H	-0.328706	1.267645	-0.000127
H58	H	-0.180260	1.620618	0.196729
H59	H	-0.876735	1.698202	0.000004
H60	H	-0.025159	1.345144	0.196844
F61	F	-0.190945	1.639626	0.345347
F62	F	-0.104720	1.118070	0.136979
H63	H	-0.100961	0.864094	0.120383
F64	F	-0.439808	1.715284	-0.000080
H65	H	-0.025177	1.345226	0.803205
H66	H	-0.460838	1.271149	-0.000086
H67	H	-0.025171	1.345163	0.335894
H68	H	-0.300506	1.682935	-0.000131
H69	H	-0.772794	1.279415	0.000019
H70	H	-0.180258	1.620725	0.803082
H71	H	-0.100955	0.864138	-0.120459
F72	F	-0.104706	1.118151	-0.137064
F73	F	-0.915976	1.254547	0.000038
F74	F	-0.733549	1.723076	0.000015
H75	H	-0.180269	1.620685	0.664039
F76	F	-0.014496	1.326205	0.654584
