data_functionalizedCrystal
_audit_creation_method	'MofGen! by Chris Wilmer'
_symmetry_space_group_name_H-M	'P1'
_symmetry_Int_Tables_number	1
_symmetry_cell_setting	triclinic
loop_
_symmetry_equiv_pos_as_xyz
  x,y,z
_cell_length_a	17.077404
_cell_length_b	18.215405
_cell_length_c	17.077396
_cell_angle_alpha	89.969816
_cell_angle_beta	89.982664
_cell_angle_gamma	90.018118
loop_
_atom_site_label
_atom_site_type_symbol
_atom_site_fract_x
_atom_site_fract_y
_atom_site_fract_z
Zn1	Zn	1.200037	-0.293063	-0.443848
Zn2	Zn	1.700037	0.206937	0.056152
Zn3	Zn	1.199950	-0.416140	-0.312582
Zn4	Zn	1.699950	0.083860	0.187418
Zn5	Zn	1.068774	-0.293082	-0.312595
Zn6	Zn	1.568774	0.206918	0.187405
Zn7	Zn	1.068737	-0.416083	-0.443805
Zn8	Zn	1.568737	0.083917	0.056195
O9	O	1.134374	-0.354592	-0.378207
O10	O	1.634374	0.145408	0.121793
O11	O	1.309872	-0.309406	-0.426448
O12	O	1.809872	0.190594	0.073552
O13	O	1.182528	-0.399848	-0.202736
O14	O	1.682528	0.100152	0.297264
O15	O	1.086238	-0.190095	-0.330030
O16	O	1.586238	0.309905	0.169970
O17	O	1.309808	-0.399830	-0.330007
O18	O	1.809808	0.100170	0.169993
O19	O	1.182676	-0.190081	-0.426461
O20	O	1.682676	0.309919	0.073539
O21	O	1.086154	-0.309438	-0.202746
O22	O	1.586154	0.190562	0.297254
O23	O	0.958922	-0.309382	-0.329988
O24	O	1.458922	0.190618	0.170012
O25	O	1.086175	-0.399732	-0.553657
O26	O	1.586175	0.100268	-0.053657
O27	O	0.958895	-0.399750	-0.426387
O28	O	1.458895	0.100250	0.073613
O29	O	1.182640	-0.309350	-0.553689
O30	O	1.682640	0.190650	-0.053689
O31	O	1.182492	-0.519117	-0.329965
O32	O	1.682492	-0.019117	0.170035
O33	O	1.086090	-0.519075	-0.426374
O34	O	1.586090	-0.019075	0.073626
C35	C	0.930426	-0.354563	-0.378185
C36	C	1.430426	0.145437	0.121815
C37	C	0.843177	-0.354568	-0.378194
C38	C	1.343177	0.145432	0.121806
C39	C	0.467368	-0.401752	-0.428346
C40	C	0.967368	0.098248	0.071654
C41	C	0.549349	-0.401742	-0.428334
C42	C	1.049349	0.098258	0.071666
C43	C	0.590328	-0.354612	-0.378220
C44	C	1.090328	0.145388	0.121780
C45	C	0.549322	-0.307493	-0.328109
C46	C	1.049322	0.192507	0.171891
C47	C	0.467343	-0.307506	-0.328117
C48	C	0.967343	0.192494	0.171883
C49	C	0.720192	-0.307466	-0.328096
C50	C	1.220192	0.192534	0.171904
C51	C	0.802176	-0.307451	-0.328088
C52	C	1.302176	0.192549	0.171912
C53	C	0.802198	-0.401702	-0.428312
C54	C	1.302198	0.098298	0.071688
C55	C	0.720219	-0.401716	-0.428321
C56	C	1.220219	0.098284	0.071679
C57	C	0.679219	-0.354595	-0.378211
C58	C	1.179219	0.145405	0.121789
C59	C	1.134299	-0.545798	-0.378180
C60	C	1.634299	-0.045798	0.121820
C61	C	1.134339	-0.627597	-0.378195
C62	C	1.634339	-0.127597	0.121805
C63	C	1.184578	-0.815723	-0.428474
C64	C	1.684578	-0.315723	0.071526
C65	C	1.184606	-0.892582	-0.428489
C66	C	1.684606	-0.392582	0.071511
C67	C	1.084268	-0.892709	-0.327989
C68	C	1.584268	-0.392709	0.172011
C69	C	1.084236	-0.815852	-0.327979
C70	C	1.584236	-0.315852	0.172021
C71	C	1.134395	-0.777361	-0.378220
C72	C	1.634395	-0.277361	0.121780
C73	C	1.134456	-0.931077	-0.378245
C74	C	1.634456	-0.431077	0.121755
C75	C	1.134486	-1.014410	-0.378261
C76	C	1.634486	-0.514410	0.121739
C77	C	1.134364	-0.694022	-0.378206
C78	C	1.634364	-0.194022	0.121794
C79	C	1.339118	-0.354622	-0.378231
C80	C	1.839118	0.145378	0.121769
C81	C	1.426368	-0.354635	-0.378240
C82	C	1.926368	0.145365	0.121760
C83	C	1.134413	-0.354532	-0.582952
C84	C	1.634413	0.145468	-0.082952
C85	C	1.134429	-0.354507	-0.670202
C86	C	1.634429	0.145493	-0.170202
C87	C	1.134471	-0.162639	-0.378252
C88	C	1.634471	0.337361	0.121748
C89	C	1.134512	-0.080840	-0.378271
C90	C	1.634512	0.419160	0.121729
C91	C	1.184683	-0.401498	-1.046013
C92	C	1.684683	0.098502	-0.546013
C93	C	1.184663	-0.401519	-0.964033
C94	C	1.684663	0.098481	-0.464033
C95	C	1.134480	-0.354455	-0.923051
C96	C	1.634480	0.145545	-0.423051
C97	C	1.084308	-0.307371	-0.964053
C98	C	1.584308	0.192629	-0.464053
C99	C	1.084324	-0.307354	-1.046032
C100	C	1.584324	0.192646	-0.546032
C101	C	1.084279	-0.307409	-0.793183
C102	C	1.584279	0.192591	-0.293183
C103	C	1.084263	-0.307426	-0.711198
C104	C	1.584263	0.192574	-0.211198
C105	C	1.184617	-0.401575	-0.711184
C106	C	1.684617	0.098425	-0.211184
C107	C	1.184634	-0.401557	-0.793163
C108	C	1.684634	0.098443	-0.293163
C109	C	1.134462	-0.354473	-0.834160
C110	C	1.634462	0.145527	-0.334160
C111	C	1.134381	-0.354598	-0.174260
C112	C	1.634381	0.145402	0.325740
C113	C	1.134516	-0.354416	-0.087010
C114	C	1.634516	0.145584	0.412990
H115	H	0.433961	-0.269137	-0.287318
H116	H	0.933961	0.230863	0.212682
O117	O	1.035446	-0.261734	-0.924279
O118	O	1.535446	0.238266	-0.424279
C119	C	0.957206	-0.277788	-0.944311
C120	C	1.457206	0.222212	-0.444311
H121	H	0.953217	-0.336575	-0.966828
H122	H	1.453217	0.163425	-0.466828
H123	H	0.918419	-0.271455	-0.890395
H124	H	1.418419	0.228545	-0.390395
H125	H	0.936716	-0.238318	-0.991905
H126	H	1.436716	0.261682	-0.491905
O127	O	1.035402	-0.778549	-0.279270
O128	O	1.535402	-0.278549	0.220730
C129	C	0.984669	-0.734086	-0.323910
C130	C	1.484669	-0.234086	0.176090
H131	H	0.979790	-0.757216	-0.385731
H132	H	1.479790	-0.257216	0.114269
H133	H	0.924277	-0.733268	-0.295462
H134	H	1.424277	-0.233268	0.204538
H135	H	1.008915	-0.675820	-0.326632
H136	H	1.508915	-0.175820	0.173368
O137	O	1.035518	-0.261602	-0.832887
O138	O	1.535518	0.238398	-0.332887
C139	C	0.991209	-0.220076	-0.779138
C140	C	1.491209	0.279924	-0.279138
H141	H	1.023350	-0.217548	-0.720704
H142	H	1.523350	0.282452	-0.220704
H143	H	0.982874	-0.162086	-0.802842
H144	H	1.482874	0.337914	-0.302842
H145	H	0.931574	-0.247015	-0.770406
H146	H	1.431574	0.252985	-0.270406
O147	O	0.589005	-0.261690	-0.279349
O148	O	1.089005	0.238310	0.220651
C149	C	0.535234	-0.220096	-0.235137
C150	C	1.035234	0.279904	0.264863
H151	H	0.476790	-0.250245	-0.232371
H152	H	0.976790	0.249755	0.267629
H153	H	0.558895	-0.212173	-0.173301
H154	H	1.058895	0.287827	0.326699
H155	H	0.526537	-0.164236	-0.263986
H156	H	1.026537	0.335764	0.236014
O157	O	1.233318	-0.778446	-0.477358
O158	O	1.733318	-0.278446	0.022642
C159	C	1.277628	-0.828790	-0.521705
C160	C	1.777628	-0.328790	-0.021705
H161	H	1.245496	-0.883597	-0.524394
H162	H	1.745496	-0.383597	-0.024394
H163	H	1.285945	-0.806543	-0.583559
H164	H	1.785945	-0.306543	-0.083559
H165	H	1.337270	-0.836941	-0.493023
H166	H	1.837270	-0.336941	0.006977
O167	O	1.035438	-0.930069	-0.279266
O168	O	1.535438	-0.430069	0.220734
C169	C	0.957183	-0.911318	-0.296328
C170	C	1.457183	-0.411318	0.203672
H171	H	0.953167	-0.890156	-0.359032
H172	H	1.453167	-0.390156	0.140968
H173	H	0.918430	-0.961894	-0.289534
H174	H	1.418430	-0.461894	0.210466
H175	H	0.936674	-0.866745	-0.254217
H176	H	1.436674	-0.366745	0.245783
H177	H	1.043474	-0.269015	-1.079411
H178	H	1.543474	0.230985	-0.579411
O179	O	1.233243	-0.929879	-0.477388
O180	O	1.733243	-0.429879	0.022612
C181	C	1.188539	-0.974346	-0.528041
C182	C	1.688539	-0.474346	-0.028041
H183	H	1.126703	-0.951222	-0.532829
H184	H	1.626703	-0.451222	-0.032829
H185	H	1.216893	-0.975160	-0.588478
H186	H	1.716893	-0.475160	-0.088478
H187	H	1.185874	-1.032613	-0.503779
H188	H	1.685874	-0.532613	-0.003779
O189	O	0.427686	-0.447601	-0.477057
O190	O	0.927686	0.052399	0.022943
C191	C	0.481458	-0.489171	-0.521293
C192	C	0.981458	0.010829	-0.021293
H193	H	0.539880	-0.491674	-0.489127
H194	H	1.039880	0.008326	0.010873
H195	H	0.457766	-0.547168	-0.529563
H196	H	0.957766	-0.047168	-0.029563
H197	H	0.490209	-0.462288	-0.580959
H198	H	0.990209	0.037712	-0.080959
H199	H	0.582728	-0.440111	-0.469133
H200	H	1.082728	0.059889	0.030867
O201	O	1.035587	-0.261735	-0.671265
O202	O	1.535587	0.238265	-0.171265
C203	C	1.046323	-0.271860	-0.590118
C204	C	1.546323	0.228140	-0.090118
H205	H	1.106890	-0.295971	-0.578926
H206	H	1.606890	0.204029	-0.078926
H207	H	1.041020	-0.216742	-0.558977
H208	H	1.541020	0.283258	-0.058977
H209	H	0.999742	-0.311051	-0.566834
H210	H	1.499742	0.188949	-0.066834
H211	H	0.835584	-0.440067	-0.469116
H212	H	1.335584	0.059933	0.030884
H213	H	1.225551	-0.439820	-1.079375
H214	H	1.725551	0.060180	-0.579375
O215	O	1.233476	-0.447271	-0.924330
O216	O	1.733476	0.052729	-0.424330
C217	C	1.277764	-0.488814	-0.978081
C218	C	1.777764	0.011186	-0.478081
H219	H	1.280503	-0.458659	-1.036529
H220	H	1.780503	0.041341	-0.536529
H221	H	1.339605	-0.496671	-0.954401
H222	H	1.839605	0.003329	-0.454401
H223	H	1.249000	-0.544704	-0.986778
H224	H	1.749000	-0.044704	-0.486778
O225	O	1.233277	-0.447294	-0.671243
O226	O	1.733277	0.052706	-0.171243
C227	C	1.222514	-0.437210	-0.590098
C228	C	1.722514	0.062790	-0.090098
H229	H	1.161945	-0.413101	-0.578903
H230	H	1.661945	0.086899	-0.078903
H231	H	1.227803	-0.492344	-0.558928
H232	H	1.727803	0.007656	-0.058928
H233	H	1.269090	-0.398033	-0.566848
H234	H	1.769090	0.101967	-0.066848
O235	O	0.680279	-0.261653	-0.279531
O236	O	1.180279	0.238347	0.220469
C237	C	0.632902	-0.214173	-0.324326
C238	C	1.132902	0.285827	0.175674
H239	H	0.620640	-0.240208	-0.383762
H240	H	1.120640	0.259792	0.116238
H241	H	0.575243	-0.204274	-0.292379
H242	H	1.075243	0.295726	0.207621
H243	H	0.664512	-0.159643	-0.333059
H244	H	1.164512	0.340357	0.166941
H245	H	1.225501	-0.439878	-0.826528
H246	H	1.725501	0.060122	-0.326528
O247	O	0.680532	-0.447568	-0.477025
O248	O	1.180532	0.052432	0.022975
C249	C	0.734297	-0.489143	-0.521263
C250	C	1.234297	0.010857	-0.021263
H251	H	0.792723	-0.491644	-0.489105
H252	H	1.292723	0.008356	0.010895
H253	H	0.710602	-0.547140	-0.529522
H254	H	1.210602	-0.047140	-0.029522
H255	H	0.743039	-0.462267	-0.580934
H256	H	1.243039	0.037733	-0.080934
O257	O	0.841863	-0.261658	-0.279320
O258	O	1.341863	0.238342	0.220680
C259	C	0.788099	-0.220069	-0.235097
C260	C	1.288099	0.279931	0.264903
H261	H	0.729651	-0.250212	-0.232339
H262	H	1.229651	0.249788	0.267661
H263	H	0.811761	-0.212164	-0.173259
H264	H	1.311761	0.287836	0.326741
H265	H	0.779409	-0.164202	-0.263930
H266	H	1.279409	0.335798	0.236070
