data_functionalizedCrystal
_audit_creation_method	'MofGen! by Chris Wilmer'
_symmetry_space_group_name_H-M	'P1'
_symmetry_Int_Tables_number	1
_symmetry_cell_setting	triclinic
loop_
_symmetry_equiv_pos_as_xyz
  x,y,z
_cell_length_a	16.992694
_cell_length_b	17.699083
_cell_length_c	16.176319
_cell_angle_alpha	90.007696
_cell_angle_beta	90.001613
_cell_angle_gamma	86.975619
loop_
_atom_site_label
_atom_site_type_symbol
_atom_site_fract_x
_atom_site_fract_y
_atom_site_fract_z
O1	O	-1.040089	-0.160469	-0.068646
O2	O	-0.540089	0.339531	0.431354
O3	O	-0.811807	-0.158709	-0.068670
O4	O	-0.311807	0.341291	0.431330
O5	O	-0.932397	-0.049802	-0.068650
O6	O	-0.432397	0.450198	0.431350
O7	O	-0.919498	-0.269377	-0.068666
O8	O	-0.419498	0.230623	0.431334
O9	O	-0.932381	-0.049793	0.068843
O10	O	-0.432381	0.450207	0.568843
O11	O	-0.811790	-0.158701	0.068823
O12	O	-0.311790	0.341299	0.568823
O13	O	-1.040072	-0.160461	0.068847
O14	O	-0.540072	0.339539	0.568847
Cu15	Cu	-0.925930	-0.159580	0.081389
Cu16	Cu	-0.425930	0.340420	0.581389
Cu17	Cu	-0.925949	-0.159590	-0.081212
Cu18	Cu	-0.425949	0.340410	0.418788
O19	O	-0.919482	-0.269368	0.068827
O20	O	-0.419482	0.230632	0.568827
C21	C	-0.782590	-0.156440	0.000073
C22	C	-0.282590	0.343560	0.500073
C23	C	-0.695559	-0.149683	0.000064
C24	C	-0.195559	0.350317	0.500064
C25	C	-0.931927	-0.021572	0.000097
C26	C	-0.431927	0.478428	0.500097
C27	C	-0.930540	0.062533	0.000097
C28	C	-0.430540	0.562533	0.500097
C29	C	-1.069289	-0.162730	0.000102
C30	C	-0.569289	0.337270	0.500102
C31	C	-1.156320	-0.169487	0.000105
C32	C	-0.656320	0.330513	0.500105
C33	C	-0.645194	-0.214881	0.000060
C34	C	-0.145194	0.285119	0.500060
C35	C	-0.563420	-0.208527	0.000072
C36	C	-0.063420	0.291473	0.500072
C37	C	-0.532012	-0.136975	0.000082
C38	C	-0.032012	0.363025	0.500082
C39	C	-0.582383	-0.071772	0.000089
C40	C	-0.082383	0.428228	0.500089
C41	C	-0.664156	-0.078127	0.000083
C42	C	-0.164156	0.421873	0.500083
C43	C	-0.288464	-0.110639	0.000106
C44	C	0.211536	0.389361	0.500106
C45	C	-0.206685	-0.104290	0.000110
C46	C	0.293315	0.395710	0.500110
C47	C	-0.187727	-0.241045	0.000095
C48	C	0.312273	0.258955	0.500095
C49	C	-0.269503	-0.247393	0.000084
C50	C	0.230497	0.252607	0.500084
C51	C	-0.319867	-0.182190	0.000095
C52	C	0.180133	0.317810	0.500095
N53	N	-0.448425	-0.130479	0.000092
N54	N	0.051575	0.369521	0.500092
N55	N	-0.403451	-0.188687	0.000091
N56	N	0.096549	0.311313	0.500091
C57	C	-0.919952	-0.297598	0.000079
C58	C	-0.419952	0.202402	0.500079
C59	C	-0.921339	-0.381703	0.000073
C60	C	-0.421339	0.118297	0.500073
N61	N	-0.925922	-0.159573	0.195755
N62	N	-0.425922	0.340427	0.695755
C63	C	-1.001324	0.106747	0.000105
C64	C	-0.501324	0.606747	0.500105
C65	C	-1.000017	0.185771	0.000098
C66	C	-0.500017	0.685771	0.500098
C67	C	-0.927924	0.220581	0.000088
C68	C	-0.427924	0.720581	0.500088
C69	C	-0.857135	0.176361	0.000077
C70	C	-0.357135	0.676361	0.500077
C71	C	-0.858443	0.097338	0.000078
C72	C	-0.358443	0.597338	0.500078
C73	C	-0.851857	0.495053	0.000069
C74	C	-0.351857	0.995053	0.500069
C75	C	-0.850554	0.574082	0.000070
C76	C	-0.350554	1.074082	0.500070
C77	C	-0.993430	0.583486	0.000089
C78	C	-0.493430	1.083486	0.500089
C79	C	-0.994739	0.504463	0.000091
C80	C	-0.494739	1.004463	0.500091
C81	C	-0.923950	0.460250	0.000075
C82	C	-0.423950	0.960250	0.500075
C83	C	-0.925368	0.374563	0.000082
C84	C	-0.425368	0.874563	0.500082
C85	C	-0.926505	0.306267	0.000087
C86	C	-0.426505	0.806267	0.500087
N87	N	-0.925963	-0.159592	-0.195578
N88	N	-0.425963	0.340408	0.304422
C89	C	-0.979335	-0.111371	0.239028
C90	C	-0.479335	0.388629	0.739028
C91	C	-0.979339	-0.111370	0.325575
C92	C	-0.479339	0.388630	0.825575
C93	C	-0.925933	-0.159576	0.368847
C94	C	-0.425933	0.340424	0.868847
C95	C	-0.872513	-0.207781	0.325568
C96	C	-0.372513	0.292219	0.825568
C97	C	-0.872506	-0.207777	0.239022
C98	C	-0.372506	0.292223	0.739022
C99	C	-0.872540	-0.207796	0.674596
C100	C	-0.372540	0.292204	1.174596
C101	C	-0.872553	-0.207798	0.761148
C102	C	-0.372553	0.292202	1.261148
C103	C	-0.979373	-0.111390	0.761148
C104	C	-0.479373	0.388610	1.261148
C105	C	-0.979366	-0.111386	0.674603
C106	C	-0.479366	0.388614	1.174603
C107	C	-0.925944	-0.159587	0.631331
C108	C	-0.425944	0.340413	1.131331
C109	C	-0.925940	-0.159586	0.537487
C110	C	-0.425940	0.340414	1.037487
C111	C	-0.925940	-0.159582	0.462690
C112	C	-0.425940	0.340418	0.962690
H113	H	-0.670760	-0.273146	0.000051
H114	H	-0.170760	0.226854	0.500051
C115	C	-0.547836	0.006933	0.000098
C116	C	-0.047836	0.506933	0.500098
H117	H	-0.491921	0.001381	0.000092
H118	H	0.008079	0.501381	0.500092
H119	H	-0.565133	0.033991	0.048046
H120	H	-0.065133	0.533991	0.548046
H121	H	-0.565133	0.033981	-0.047854
H122	H	-0.065133	0.533981	0.452146
H123	H	-0.791844	0.602420	0.000064
H124	H	-0.291844	1.102420	0.500064
H125	H	-0.829044	-0.247045	0.639371
H126	H	-0.329044	0.252955	1.139371
H127	H	-1.053444	0.476126	0.000103
H128	H	-0.553444	0.976126	0.500103
C129	C	-0.780581	0.048702	0.000071
C130	C	-0.280581	0.548702	0.500071
H131	H	-0.737457	0.080750	0.000071
H132	H	-0.237457	0.580750	0.500071
H133	H	-0.778128	0.017674	-0.047876
H134	H	-0.278128	0.517674	0.452124
H135	H	-0.778115	0.017686	0.048024
H136	H	-0.278115	0.517686	0.548024
H137	H	-0.829025	-0.247028	0.360805
H138	H	-0.329025	0.252972	0.860805
H139	H	-1.022870	-0.072139	0.796389
H140	H	-0.522870	0.427861	1.296389
H141	H	-0.829011	-0.247027	0.203790
H142	H	-0.329011	0.252973	0.703790
H143	H	-0.181116	-0.046020	0.000117
H144	H	0.318884	0.453980	0.500117
C145	C	-0.304050	-0.326098	0.000069
C146	C	0.195950	0.173902	0.500069
H147	H	-0.359964	-0.320544	0.000056
H148	H	0.140036	0.179456	0.500056
H149	H	-0.286758	-0.353156	0.048011
H150	H	0.213242	0.146844	0.548011
H151	H	-0.286750	-0.353147	-0.047889
H152	H	0.213250	0.146853	0.452111
H153	H	-1.060030	0.078411	0.000119
H154	H	-0.560030	0.578411	0.500119
C155	C	-0.343854	-0.038919	0.000112
C156	C	0.156146	0.461081	0.500112
H157	H	-0.313434	0.004603	0.000110
H158	H	0.186566	0.504603	0.500110
H159	H	-0.376148	-0.038550	0.048058
H160	H	0.123852	0.461450	0.548058
H161	H	-0.376146	-0.038555	-0.047842
H162	H	0.123854	0.461445	0.452158
H163	H	-0.794216	0.459064	0.000057
H164	H	-0.294216	0.959064	0.500057
C165	C	-1.077879	0.234404	0.000116
C166	C	-0.577879	0.734404	0.500116
H167	H	-1.121002	0.202355	0.000134
H168	H	-0.621002	0.702355	0.500134
H169	H	-1.080353	0.265421	-0.047830
H170	H	-0.580353	0.765421	0.452170
H171	H	-1.080327	0.265431	0.048070
H172	H	-0.580327	0.765431	0.548070
C173	C	-1.038082	-0.058342	0.191435
C174	C	-0.538082	0.441658	0.691435
H175	H	-1.069888	-0.029630	0.229606
H176	H	-0.569888	0.470370	0.729606
H177	H	-1.070661	-0.087554	0.157663
H178	H	-0.570661	0.412446	0.657663
H179	H	-1.009933	-0.025113	0.157687
H180	H	-0.509933	0.474887	0.657687
H181	H	-0.829060	-0.247055	0.796379
H182	H	-0.329060	0.252945	1.296379
H183	H	-0.146713	-0.294129	0.000087
H184	H	0.353287	0.205871	0.500087
C185	C	-0.508022	-0.280245	0.000065
C186	C	-0.008022	0.219755	0.500065
H187	H	-0.538439	-0.323768	0.000048
H188	H	-0.038439	0.176232	0.500048
H189	H	-0.475730	-0.280610	0.048015
H190	H	0.024270	0.219390	0.548015
H191	H	-0.475726	-0.280608	-0.047885
H192	H	0.024274	0.219392	0.452115
C193	C	-0.719560	-0.006412	0.000086
C194	C	-0.219560	0.493588	0.500086
H195	H	-0.772759	-0.020443	0.000090
H196	H	-0.272759	0.479557	0.500090
H197	H	-0.710055	0.022725	-0.047856
H198	H	-0.210055	0.522725	0.452144
H199	H	-0.710054	0.022722	0.048044
H200	H	-0.210054	0.522722	0.548044
H201	H	-1.051070	0.619494	0.000098
H202	H	-0.551070	1.119494	0.500098
C203	C	-0.777835	0.214649	0.000068
C204	C	-0.277835	0.714649	0.500068
H205	H	-0.787192	0.268045	0.000077
H206	H	-0.287192	0.768045	0.500077
H207	H	-0.748699	0.199761	-0.047881
H208	H	-0.248699	0.699761	0.452119
H209	H	-0.748693	0.199769	0.048018
H210	H	-0.248693	0.699769	0.548018
H211	H	-1.022832	-0.072120	0.360807
H212	H	-0.522832	0.427880	0.860807
C213	C	-1.038110	-0.058357	0.627008
C214	C	-0.538110	0.441643	1.127008
H215	H	-1.069918	-0.029643	0.665176
H216	H	-0.569918	0.470357	1.165176
H217	H	-1.070688	-0.087569	0.593233
H218	H	-0.570688	0.412431	1.093233
H219	H	-1.009959	-0.025130	0.593260
H220	H	-0.509959	0.474870	1.093260
