data_functionalizedCrystal
_audit_creation_method	'MofGen! by Chris Wilmer'
_symmetry_space_group_name_H-M	'P1'
_symmetry_Int_Tables_number	1
_symmetry_cell_setting	triclinic
loop_
_symmetry_equiv_pos_as_xyz
  x,y,z
_cell_length_a	12.594517
_cell_length_b	13.897447
_cell_length_c	13.897441
_cell_angle_alpha	90.029327
_cell_angle_beta	89.973307
_cell_angle_gamma	89.985532
loop_
_atom_site_label
_atom_site_type_symbol
_atom_site_fract_x
_atom_site_fract_y
_atom_site_fract_z
Zn1	Zn	-1.627250	-0.384114	0.545543
Zn2	Zn	-1.293917	-0.050781	0.878876
Zn3	Zn	-0.960584	0.282552	1.212210
Zn4	Zn	-1.627128	-0.545436	0.384248
Zn5	Zn	-1.293794	-0.212103	0.717581
Zn6	Zn	-0.960461	0.121231	1.050915
Zn7	Zn	-1.449252	-0.384142	0.384245
Zn8	Zn	-1.115918	-0.050809	0.717578
Zn9	Zn	-0.782585	0.282524	1.050911
Zn10	Zn	-1.449226	-0.545355	0.545484
Zn11	Zn	-1.115892	-0.212021	0.878817
Zn12	Zn	-0.782559	0.121312	1.212150
O13	O	-1.538214	-0.464762	0.464880
O14	O	-1.204881	-0.131429	0.798213
O15	O	-0.871547	0.201905	1.131547
O16	O	-1.776180	-0.405536	0.524173
O17	O	-1.442847	-0.072203	0.857506
O18	O	-1.109513	0.261130	1.190840
O19	O	-1.603492	-0.524086	0.249266
O20	O	-1.270158	-0.190752	0.582599
O21	O	-0.936825	0.142581	0.915932
O22	O	-1.472926	-0.249157	0.405665
O23	O	-1.139592	0.084176	0.738998
O24	O	-0.806259	0.417510	1.072331
O25	O	-1.776090	-0.524059	0.405670
O26	O	-1.442757	-0.190725	0.739004
O27	O	-1.109423	0.142608	1.072337
O28	O	-1.603701	-0.249136	0.524170
O29	O	-1.270367	0.084197	0.857503
O30	O	-0.937034	0.417530	1.190836
O31	O	-1.472807	-0.405584	0.249263
O32	O	-1.139473	-0.072251	0.582597
O33	O	-0.806140	0.261083	0.915930
O34	O	-1.300302	-0.405505	0.405607
O35	O	-0.966969	-0.072172	0.738941
O36	O	-0.633636	0.261161	1.072274
O37	O	-1.472882	-0.523920	0.680473
O38	O	-1.139548	-0.190587	1.013807
O39	O	-0.806215	0.142746	1.347140
O40	O	-1.300283	-0.523947	0.524069
O41	O	-0.966950	-0.190614	0.857402
O42	O	-0.633617	0.142719	1.190736
O43	O	-1.603676	-0.405458	0.680517
O44	O	-1.270342	-0.072124	1.013850
O45	O	-0.937009	0.261209	1.347184
O46	O	-1.603467	-0.680407	0.405613
O47	O	-1.270133	-0.347074	0.738946
O48	O	-0.936800	-0.013740	1.072280
O49	O	-1.472763	-0.680347	0.524072
O50	O	-1.139429	-0.347014	0.857406
O51	O	-0.806096	-0.013681	1.190739
C52	C	-1.261673	-0.464721	0.464832
C53	C	-0.928340	-0.131388	0.798165
C54	C	-0.595006	0.201945	1.131498
C55	C	-1.143367	-0.464727	0.464834
C56	C	-0.810034	-0.131394	0.798167
C57	C	-0.476701	0.201939	1.131501
C58	C	-1.538127	-0.715376	0.464858
C59	C	-1.204794	-0.382043	0.798191
C60	C	-0.871461	-0.048710	1.131524
C61	C	-1.538188	-0.822590	0.464880
C62	C	-1.204854	-0.489257	0.798214
C63	C	-0.871521	-0.155924	1.131547
C64	C	-1.074094	-0.400213	0.400521
C65	C	-0.740760	-0.066880	0.733854
C66	C	-0.407427	0.266453	1.067187
C67	C	-1.003277	-0.488194	0.376789
C68	C	-0.669943	-0.154861	0.710122
C69	C	-0.336610	0.178472	1.043456
C70	C	-1.003386	-0.376773	0.488568
C71	C	-0.670052	-0.043440	0.821901
C72	C	-0.336719	0.289894	1.155234
C73	C	-1.074108	-0.552754	0.441056
C74	C	-0.740775	-0.219421	0.774390
C75	C	-0.407442	0.113912	1.107723
C76	C	-1.074224	-0.441274	0.552876
C77	C	-0.740891	-0.107941	0.886209
C78	C	-0.407557	0.225393	1.219543
C79	C	-1.003439	-0.529316	0.529177
C80	C	-0.670105	-0.195982	0.862511
C81	C	-0.336772	0.137351	1.195844
C82	C	-0.815835	-0.464784	0.464911
C83	C	-0.482501	-0.131451	0.798244
C84	C	-0.149168	0.201883	1.131577
C85	C	-0.934140	-0.464744	0.464878
C86	C	-0.600807	-0.131411	0.798212
C87	C	-0.267473	0.201923	1.131545
C88	C	-1.538239	-0.909660	0.464902
C89	C	-1.204906	-0.576327	0.798236
C90	C	-0.871572	-0.242993	1.131569
C91	C	-1.538314	-1.018892	0.464927
C92	C	-1.204980	-0.685559	0.798260
C93	C	-0.871647	-0.352226	1.131594
C94	C	-1.538289	-0.464677	0.716473
C95	C	-1.204956	-0.131343	1.049806
C96	C	-0.871623	0.201990	1.383140
C97	C	-1.538322	-0.464640	0.823687
C98	C	-1.204988	-0.131307	1.157020
C99	C	-0.871655	0.202026	1.490354
C100	C	-1.538330	-0.213169	0.464923
C101	C	-1.204996	0.120164	0.798257
C102	C	-0.871663	0.453498	1.131590
C103	C	-1.538379	-0.105955	0.464942
C104	C	-1.205046	0.227378	0.798275
C105	C	-0.871713	0.560712	1.131609
C106	C	-1.538200	-0.464777	0.214266
C107	C	-1.204867	-0.131444	0.547599
C108	C	-0.871533	0.201889	0.880932
C109	C	-1.538374	-0.464542	0.107052
C110	C	-1.205041	-0.131209	0.440385
C111	C	-0.871707	0.202125	0.773719
C112	C	-1.538351	-0.464575	1.019982
C113	C	-1.205017	-0.131242	1.353316
C114	C	-0.871684	0.202092	1.686649
C115	C	-1.538331	-0.464614	0.910750
C116	C	-1.204998	-0.131281	1.244083
C117	C	-0.871665	0.202053	1.577416
H118	H	-1.105117	-0.345716	0.346072
H119	H	-0.771784	-0.012383	0.679406
H120	H	-0.438451	0.320950	1.012739
N121	N	-0.961996	-0.514498	0.278195
N122	N	-0.628663	-0.181165	0.611528
N123	N	-0.295330	0.152169	0.944861
H124	H	-0.987185	-0.465417	0.229732
H125	H	-0.653852	-0.132083	0.563065
H126	H	-0.320518	0.201250	0.896398
H127	H	-0.881823	-0.515479	0.279329
H128	H	-0.548490	-0.182146	0.612662
H129	H	-0.215157	0.151187	0.945996
N130	N	-1.115074	-0.651322	0.414377
N131	N	-0.781740	-0.317988	0.747710
N132	N	-0.448407	0.015345	1.081043
H133	H	-1.195264	-0.650700	0.414496
H134	H	-0.861931	-0.317367	0.747829
H135	H	-0.528598	0.015967	1.081163
H136	H	-1.088561	-0.669130	0.348122
H137	H	-0.755228	-0.335797	0.681455
H138	H	-0.421894	-0.002463	1.014788
N139	N	-0.962594	-0.601667	0.601248
N140	N	-0.629261	-0.268333	0.934582
N141	N	-0.295927	0.065000	1.267915
H142	H	-0.988460	-0.668052	0.583215
H143	H	-0.655126	-0.334719	0.916548
H144	H	-0.321793	-0.001385	1.249881
H145	H	-0.882410	-0.600801	0.601240
H146	H	-0.549076	-0.267468	0.934573
H147	H	-0.215743	0.065865	1.267907
H148	H	-1.105411	-0.421396	0.627290
H149	H	-0.772078	-0.088063	0.960623
H150	H	-0.438744	0.245270	1.293957
H151	H	-0.972264	-0.302394	0.508590
H152	H	-0.638931	0.030939	0.841923
H153	H	-0.305598	0.364273	1.175256
