data_functionalizedCrystal
_audit_creation_method	'MofGen! by Chris Wilmer'
_symmetry_space_group_name_H-M	'P1'
_symmetry_Int_Tables_number	1
_symmetry_cell_setting	triclinic
loop_
_symmetry_equiv_pos_as_xyz
  x,y,z
_cell_length_a	19.188905
_cell_length_b	19.188924
_cell_length_c	17.666332
_cell_angle_alpha	89.991448
_cell_angle_beta	89.983521
_cell_angle_gamma	83.138260
loop_
_atom_site_label
_atom_site_type_symbol
_atom_site_fract_x
_atom_site_fract_y
_atom_site_fract_z
O1	O	0.926159	0.087086	-0.063076
O2	O	0.722845	0.098838	-0.063051
O3	O	0.830371	-0.008694	-0.063056
O4	O	0.818632	0.194619	-0.063072
O5	O	0.830352	-0.008700	0.062841
O6	O	0.722826	0.098833	0.062846
O7	O	0.926140	0.087080	0.062820
Cu8	Cu	0.824481	0.092956	0.074328
Cu9	Cu	0.824503	0.092963	-0.074559
O10	O	0.818613	0.194613	0.062825
C11	C	0.696824	0.098458	-0.000099
C12	C	0.619318	0.097324	-0.000089
C13	C	0.582937	0.096783	-0.068718
C14	C	0.510113	0.095710	-0.068727
C15	C	0.473676	0.095164	-0.000104
C16	C	0.510066	0.095710	0.068533
C17	C	0.582887	0.096790	0.068541
N18	N	0.364649	0.053733	0.050969
N19	N	0.295472	0.052706	0.050957
C20	C	0.254269	0.091911	-0.000122
N21	N	0.284858	0.132175	-0.051201
N22	N	0.354042	0.133199	-0.051191
C23	C	0.394713	0.093993	-0.000104
C24	C	0.138924	0.090207	-0.068765
C25	C	0.066098	0.089139	-0.068772
C26	C	0.066053	0.089132	0.068491
C27	C	0.138876	0.090207	0.068495
C28	C	0.175308	0.090742	-0.000135
C29	C	0.829982	-0.034708	-0.000106
C30	C	0.828844	-0.112213	-0.000104
C31	C	0.828322	-0.148609	-0.068731
C32	C	0.827243	-0.221431	-0.068736
C33	C	0.826698	-0.257857	-0.000112
C34	C	0.827215	-0.221452	0.068524
C35	C	0.828288	-0.148630	0.068528
N36	N	0.864739	-0.377526	0.050959
N37	N	0.863721	-0.446704	0.050951
C38	C	0.823464	-0.477266	-0.000119
N39	N	0.784272	-0.436037	-0.051191
N40	N	0.785293	-0.366853	-0.051185
C41	C	0.825534	-0.336821	-0.000108
C42	C	0.821771	-0.592624	-0.068756
C43	C	0.820686	-0.665448	-0.068759
C44	C	0.820666	-0.665468	0.068504
C45	C	0.821743	-0.592645	0.068504
C46	C	0.822299	-0.556228	-0.000127
C47	C	0.952160	0.087461	-0.000133
C48	C	1.029666	0.088594	-0.000148
C49	C	0.819002	0.220627	-0.000126
C50	C	0.820141	0.298132	-0.000133
N51	N	0.824471	0.092951	0.179048
N52	N	0.824519	0.092962	-0.179279
C53	C	0.872099	0.045358	0.218656
C54	C	0.872103	0.045355	0.297903
C55	C	0.824485	0.092956	0.337540
C56	C	0.776848	0.140552	0.297923
C57	C	0.776841	0.140549	0.218677
N58	N	0.815407	0.154764	0.461954
N59	N	0.815419	0.154765	0.537235
C60	C	0.824504	0.092966	0.576304
N61	N	0.833591	0.031165	0.537249
N62	N	0.833583	0.031165	0.461961
C63	C	0.824488	0.092964	0.423469
C64	C	0.872139	0.045366	0.701841
C65	C	0.872138	0.045362	0.781090
C66	C	0.776887	0.140565	0.781108
C67	C	0.776884	0.140563	0.701861
C68	C	0.824514	0.092964	0.662232
H69	H	0.480393	0.095267	0.124406
C70	C	0.178910	0.090789	0.143984
C71	C	0.237093	0.030912	0.162854
C72	C	0.277130	0.031494	0.238345
C73	C	0.258982	0.091953	0.294966
C74	C	0.200796	0.151834	0.276098
C75	C	0.160759	0.151252	0.200607
H76	H	0.250530	-0.013848	0.120938
H77	H	0.320203	-0.012835	0.252312
H78	H	0.288620	0.092383	0.350849
H79	H	0.187359	0.196594	0.318014
H80	H	0.117686	0.195581	0.186640
C81	C	0.622910	0.097375	0.144038
C82	C	0.604756	0.157835	0.200656
C83	C	0.644781	0.158416	0.276155
C84	C	0.702959	0.098537	0.295035
C85	C	0.721115	0.038072	0.238416
C86	C	0.681091	0.037491	0.162917
H87	H	0.561687	0.202166	0.186681
H88	H	0.631340	0.203177	0.318068
H89	H	0.732587	0.098967	0.350924
H90	H	0.764185	-0.006259	0.252391
H91	H	0.694532	-0.007270	0.121004
C92	C	0.924483	-0.007004	0.175062
C93	C	0.976873	-0.059361	0.218632
C94	C	1.029255	-0.111724	0.175035
C95	C	1.029247	-0.111730	0.087868
C96	C	0.976855	-0.059370	0.044292
C97	C	0.924473	-0.007007	0.087889
H98	H	0.976881	-0.059359	0.283163
H99	H	1.068039	-0.150484	0.207293
H100	H	1.068023	-0.150492	0.055595
H101	H	0.976847	-0.059373	-0.020239
H102	H	0.885689	0.031752	0.055632
C103	C	0.822372	-0.552560	-0.144248
C104	C	0.762500	-0.494369	-0.163113
C105	C	0.763101	-0.454308	-0.238606
C106	C	0.823574	-0.472438	-0.295235
C107	C	0.883450	-0.530632	-0.276372
C108	C	0.882849	-0.570693	-0.200879
H109	H	0.717731	-0.480946	-0.121191
H110	H	0.718776	-0.411230	-0.252569
H111	H	0.824019	-0.442783	-0.351119
H112	H	0.928220	-0.544055	-0.318293
H113	H	0.927174	-0.613772	-0.186915
H114	H	0.828773	-0.118962	-0.124616
H115	H	0.910921	0.006602	0.813339
C116	C	0.724451	0.192908	0.175102
C117	C	0.672089	0.245289	0.218694
C118	C	0.619700	0.297649	0.175118
C119	C	0.619672	0.297627	0.087950
C120	C	0.672036	0.245244	0.044354
C121	C	0.724425	0.192884	0.087930
H122	H	0.672108	0.245307	0.283225
H123	H	0.580937	0.336427	0.207391
H124	H	0.580890	0.336387	0.055692
H125	H	0.672017	0.245226	-0.020177
H126	H	0.763188	0.154106	0.055657
H127	H	0.168587	0.090650	-0.124648
C128	C	0.820078	-0.705535	0.143989
C129	C	0.880840	-0.703655	0.200591
C130	C	0.880255	-0.743729	0.276077
C131	C	0.818907	-0.785684	0.294961
C132	C	0.758140	-0.787566	0.238358
C133	C	0.758726	-0.747492	0.162872
H134	H	0.926258	-0.672595	0.186613
H135	H	0.925239	-0.742335	0.317978
H136	H	0.818474	-0.815349	0.350841
H137	H	0.712723	-0.818625	0.252337
H138	H	0.713742	-0.748886	0.120971
C139	C	0.828868	-0.108592	0.144022
C140	C	0.768098	-0.110489	0.200648
C141	C	0.768680	-0.070449	0.276143
C142	C	0.830033	-0.028513	0.295011
C143	C	0.890808	-0.026614	0.238384
C144	C	0.890226	-0.066654	0.162889
H145	H	0.722676	-0.141534	0.186682
H146	H	0.723690	-0.071855	0.318062
H147	H	0.830464	0.001127	0.350897
H148	H	0.936229	0.004431	0.252350
H149	H	0.935216	-0.065248	0.120969
H150	H	0.910889	0.006598	0.330158
H151	H	0.036477	0.088702	-0.124659
C152	C	0.025983	0.088533	0.143979
C153	C	-0.032212	0.148406	0.162846
C154	C	-0.072286	0.147810	0.238338
C155	C	-0.054165	0.087342	0.294962
C156	C	0.004032	0.027465	0.276096
C157	C	0.044106	0.028060	0.200605
H158	H	-0.045628	0.193172	0.120928
H159	H	-0.115367	0.192136	0.252303
H160	H	-0.083830	0.086901	0.350845
H161	H	0.017448	-0.017301	0.318014
H162	H	0.087188	-0.016265	0.186640
H163	H	0.826814	-0.251070	-0.124622
C164	C	0.924523	-0.006997	0.658245
C165	C	0.976907	-0.059357	0.701820
C166	C	1.029292	-0.111721	0.658227
C167	C	1.029293	-0.111725	0.571060
C168	C	0.976907	-0.059363	0.527480
C169	C	0.924522	-0.006999	0.571072
H170	H	0.976908	-0.059356	0.766351
H171	H	1.068071	-0.150483	0.690489
H172	H	1.068071	-0.150488	0.538790
H173	H	0.976906	-0.059364	0.462949
H174	H	0.885743	0.031763	0.538811
H175	H	0.826770	-0.251115	0.124399
H176	H	0.738076	0.179308	0.330199
H177	H	0.738113	0.179320	0.813380
C178	C	0.820113	-0.705484	-0.144255
C179	C	0.880892	-0.703586	-0.200870
C180	C	0.880319	-0.743622	-0.276368
C181	C	0.818968	-0.785556	-0.295250
C182	C	0.758185	-0.787456	-0.238633
C183	C	0.758757	-0.747420	-0.163135
H184	H	0.926312	-0.672542	-0.186894
H185	H	0.925315	-0.742215	-0.318280
H186	H	0.818544	-0.815194	-0.351138
H187	H	0.712765	-0.818500	-0.252609
H188	H	0.713761	-0.748827	-0.121223
H189	H	0.612595	0.097218	-0.124602
H190	H	0.822174	-0.563012	0.124388
H191	H	0.738104	0.179320	0.669610
C192	C	0.470083	0.095105	-0.144222
C193	C	0.510156	0.095690	-0.219711
C194	C	0.470129	0.095083	-0.295205
C195	C	0.390029	0.093890	-0.295211
C196	C	0.349952	0.093304	-0.219720
C197	C	0.389979	0.093912	-0.144225
H198	H	0.569455	0.096574	-0.219709
H199	H	0.499797	0.095516	-0.351089
H200	H	0.360399	0.093440	-0.351097
H201	H	0.290653	0.092421	-0.219722
H202	H	0.360311	0.093479	-0.088342
