data_functionalizedCrystal
_audit_creation_method	'MofGen! by Chris Wilmer'
_symmetry_space_group_name_H-M	'P1'
_symmetry_Int_Tables_number	1
_symmetry_cell_setting	triclinic
loop_
_symmetry_equiv_pos_as_xyz
  x,y,z
_cell_length_a	10.489746
_cell_length_b	8.965430
_cell_length_c	12.837942
_cell_angle_alpha	89.999233
_cell_angle_beta	90.314879
_cell_angle_gamma	89.994189
loop_
_atom_site_label
_atom_site_type_symbol
_atom_site_fract_x
_atom_site_fract_y
_atom_site_fract_z
O1	O	1.710178	0.123937	-0.146406
O2	O	1.340497	0.123962	-0.160140
O3	O	1.517140	0.123941	-0.002309
O4	O	1.533535	0.123958	-0.304237
O5	O	1.517150	-0.124138	-0.002314
O6	O	1.340507	-0.124117	-0.160145
O7	O	1.710188	-0.124141	-0.146411
Cu8	Cu	1.525348	-0.146781	-0.153278
Cu9	Cu	1.525337	0.146601	-0.153273
O10	O	1.533545	-0.124120	-0.304242
C11	C	1.292856	-0.000074	-0.159104
C12	C	1.150884	-0.000065	-0.155997
C13	C	0.986752	-0.000092	-0.053735
C14	C	1.069788	-0.122400	-0.104864
C15	C	1.069736	0.122186	-0.104883
C16	C	0.980966	-0.122511	-0.201643
C17	C	0.980907	0.122185	-0.201648
C18	C	1.063902	-0.000154	-0.252849
N19	N	1.525365	-0.353130	-0.153282
C20	C	1.607087	-0.450405	-0.080295
C21	C	1.489275	-0.549803	-0.059280
C22	C	1.643125	-0.549859	-0.174230
C23	C	1.407490	-0.450339	-0.132220
C24	C	1.561421	-0.450386	-0.247211
C25	C	1.443530	-0.549739	-0.226235
C26	C	1.757829	-0.000102	-0.147447
C27	C	1.899800	-0.000101	-0.150554
C28	C	1.511607	-0.000097	0.036351
C29	C	1.495089	-0.000094	0.151551
N30	N	1.525328	0.352950	-0.153261
C31	C	1.539078	-0.000079	-0.342902
C32	C	1.555596	-0.000073	-0.458102
C33	C	1.693664	-0.000076	0.391024
C34	C	1.678150	-0.000072	0.499266
C35	C	1.448548	-0.000072	0.476279
C36	C	1.464062	-0.000076	0.368037
C37	C	1.586624	-0.000080	0.325414
C38	C	1.602137	-0.000094	0.217170
C39	C	1.372536	-0.000083	0.194185
C40	C	1.357022	-0.000080	0.302427
H41	H	1.108667	0.225591	-0.063991
H42	H	1.108762	-0.225811	-0.063995
O43	O	0.941666	-0.000285	0.057767
H44	H	0.883977	0.101315	0.072327
O45	O	0.929230	0.259173	-0.255726
H46	H	0.961525	0.260128	-0.337911
O47	O	1.698529	-0.392607	0.001496
H48	H	1.668275	-0.432423	0.079403
O49	O	1.108639	-0.000227	-0.364445
H50	H	1.214422	0.000754	-0.365954
H51	H	1.458755	-0.593474	0.020163
O52	O	1.316362	-0.000049	0.522257
H53	H	1.264290	-0.101155	0.495972
H54	H	1.257235	-0.000071	0.337146
O55	O	1.734326	-0.000094	0.171199
H56	H	1.727136	-0.000111	0.084908
O57	O	1.775062	-0.607751	-0.197721
H58	H	1.773655	-0.731540	-0.198225
O59	O	1.351866	-0.607191	-0.307977
H60	H	1.254222	-0.567124	-0.290325
H61	H	1.307853	-0.406808	-0.114402
O62	O	1.257071	-0.000082	0.123421
H63	H	1.288445	-0.000078	0.040992
O64	O	1.601881	-0.392477	-0.352409
H65	H	1.699727	-0.432263	-0.369630
O66	O	1.825849	-0.000074	0.345045
H67	H	1.877931	-0.101183	0.371338
O68	O	0.929627	-0.259663	-0.255729
H69	H	0.823891	-0.258637	-0.252960
O70	O	1.793598	-0.000086	0.570037
H71	H	1.881424	-0.000103	0.522209
