data_functionalizedCrystal
_audit_creation_method	'MofGen! by Chris Wilmer'
_symmetry_space_group_name_H-M	'P1'
_symmetry_Int_Tables_number	1
_symmetry_cell_setting	triclinic
loop_
_symmetry_equiv_pos_as_xyz
  x,y,z
_cell_length_a	14.044191
_cell_length_b	14.044220
_cell_length_c	11.295483
_cell_angle_alpha	94.468632
_cell_angle_beta	85.522629
_cell_angle_gamma	93.190327
loop_
_atom_site_label
_atom_site_type_symbol
_atom_site_fract_x
_atom_site_fract_y
_atom_site_fract_z
O1	O	1.283056	0.224317	-0.098972
O2	O	1.006385	0.216004	-0.098987
O3	O	1.140567	0.081826	-0.098968
O4	O	1.148874	0.358496	-0.098991
O5	O	1.128780	0.093591	0.099081
O6	O	0.994598	0.227769	0.099062
O7	O	1.271269	0.236083	0.099077
Cu8	Cu	1.131857	0.233000	0.117153
Cu9	Cu	1.145797	0.219086	-0.117063
O10	O	1.137087	0.370261	0.099058
C11	C	0.964869	0.218250	0.000036
C12	C	0.858727	0.207402	0.000030
C13	C	0.613268	0.264503	0.000037
C14	C	0.664393	0.187587	0.000042
C15	C	0.772530	0.198615	0.000035
C16	C	0.505121	0.253477	0.000044
C17	C	1.131038	0.052086	0.000057
C18	C	1.120193	-0.054057	0.000058
C19	C	1.100368	-0.248396	0.000039
C20	C	1.177283	-0.299524	0.000040
C21	C	1.166252	-0.407661	0.000030
C22	C	1.111398	-0.140249	0.000050
C23	C	1.312785	0.233837	0.000051
C24	C	1.418928	0.244684	0.000049
C25	C	1.146616	0.400000	0.000030
C26	C	1.157462	0.506143	0.000022
N27	N	1.122060	0.242787	0.281888
N28	N	1.155601	0.209293	-0.281798
C29	C	1.226125	0.138793	0.531192
C30	C	1.218728	0.146196	0.655855
C31	C	1.099865	0.264990	0.655878
C32	C	1.107262	0.257587	0.531215
C33	C	1.170395	0.194487	0.468877
C34	C	1.177796	0.187090	0.344212
C35	C	1.058928	0.305879	0.344237
C36	C	1.051532	0.313282	0.468900
H37	H	0.626954	0.113450	-0.000036
O38	O	0.662855	0.362697	0.000014
H39	H	0.741240	0.356056	-0.000001
O40	O	1.275479	-0.249928	0.000057
H41	H	1.319611	-0.275713	-0.080667
H42	H	1.026241	-0.285835	0.000033
H43	H	1.229205	0.135714	0.293457
H44	H	1.048457	0.316357	0.706650
O45	O	0.983446	0.381343	0.536137
H46	H	0.987670	0.377141	0.633293
H47	H	1.277537	0.087422	0.480435
O48	O	1.278847	0.086138	0.723072
H49	H	1.323995	0.041028	0.658776
H50	H	1.013552	0.351232	0.293486
