data_functionalizedCrystal
_audit_creation_method	'MofGen! by Chris Wilmer'
_symmetry_space_group_name_H-M	'P1'
_symmetry_Int_Tables_number	1
_symmetry_cell_setting	triclinic
loop_
_symmetry_equiv_pos_as_xyz
  x,y,z
_cell_length_a	12.645323
_cell_length_b	19.805407
_cell_length_c	19.805405
_cell_angle_alpha	89.977440
_cell_angle_beta	89.967550
_cell_angle_gamma	90.023054
loop_
_atom_site_label
_atom_site_type_symbol
_atom_site_fract_x
_atom_site_fract_y
_atom_site_fract_z
Zn1	Zn	-0.599401	-1.034761	-0.269527
Zn2	Zn	-0.422118	-1.034669	-0.382722
Zn3	Zn	-0.422144	-0.921568	-0.269545
Zn4	Zn	-0.599332	-0.921540	-0.382672
O5	O	-0.510749	-0.978135	-0.326117
O6	O	-0.575902	-1.129466	-0.284556
O7	O	-0.273774	-1.019639	-0.367737
O8	O	-0.445698	-0.936635	-0.174826
O9	O	-0.445653	-1.129397	-0.367720
O10	O	-0.575928	-1.019797	-0.174813
O11	O	-0.273793	-0.936545	-0.284586
O12	O	-0.445631	-0.826848	-0.284538
O13	O	-0.747688	-0.936585	-0.367635
O14	O	-0.575810	-0.826827	-0.367652
O15	O	-0.747739	-1.019769	-0.284508
O16	O	-0.445585	-1.019611	-0.477432
O17	O	-0.575784	-0.936495	-0.477395
C18	C	-0.510716	-0.802278	-0.326092
C19	C	-0.510728	-0.727047	-0.326097
C20	C	-0.578650	-0.691738	-0.282870
C21	C	-0.578652	-0.621050	-0.282872
C22	C	-0.510735	-0.585671	-0.326106
C23	C	-0.442805	-0.620984	-0.369335
C24	C	-0.442799	-0.691671	-0.369329
C25	C	-0.442826	-0.335911	-0.369360
C26	C	-0.442840	-0.265218	-0.369364
C27	C	-0.578679	-0.265290	-0.282903
C28	C	-0.578673	-0.335977	-0.282897
C29	C	-0.510740	-0.371284	-0.326123
C30	C	-0.510738	-0.447932	-0.326120
C31	C	-0.510742	-0.509024	-0.326113
C32	C	-0.787254	-0.978184	-0.326064
C33	C	-0.905084	-0.978206	-0.326042
C34	C	-1.072617	-0.925713	-0.378091
C35	C	-0.950057	-0.925851	-0.378348
C36	C	-0.949601	-1.049521	-0.345404
C37	C	-1.072199	-1.049233	-0.345731
C38	C	-1.072297	-0.960057	-0.254340
C39	C	-0.949690	-0.958466	-0.254769
C40	C	-0.235319	-0.978124	-0.326120
C41	C	-0.117490	-0.978234	-0.325951
C42	C	-0.510697	-0.978058	-0.501973
C43	C	-0.510711	-0.978088	-0.577205
C44	C	-0.510772	-0.154677	-0.326137
C45	C	-0.510758	-0.229909	-0.326132
C46	C	-0.442988	-1.021408	-0.612545
C47	C	-0.443011	-1.021437	-0.683234
C48	C	-0.510753	-0.978141	-0.718580
C49	C	-0.578484	-0.934819	-0.683234
C50	C	-0.578465	-0.934794	-0.612547
C51	C	-0.578563	-0.934919	-0.968308
C52	C	-0.578574	-0.934946	-1.039000
C53	C	-0.443108	-1.021561	-1.038994
C54	C	-0.443090	-1.021537	-0.968307
C55	C	-0.510824	-0.978217	-0.932967
C56	C	-0.510799	-0.978187	-0.856319
C57	C	-0.510773	-0.978167	-0.795227
C58	C	-0.510823	-0.978229	-0.149574
C59	C	-0.510855	-0.978270	-0.074342
H60	H	-0.633981	-0.364779	-0.247694
N61	N	-0.370066	-1.068295	-1.077112
H62	H	-0.327147	-1.095716	-1.043993
H63	H	-0.320975	-1.040772	-1.106487
H64	H	-0.387530	-0.236415	-0.404571
H65	H	-1.103204	-0.908961	-0.236691
N66	N	-0.369556	-0.373986	-0.415978
H67	H	-0.326537	-0.340846	-0.443367
H68	H	-0.412608	-0.403321	-0.447335
H69	H	-1.101885	-1.089690	-0.309404
H70	H	-0.387501	-0.592173	-0.404533
H71	H	-0.387863	-1.056712	-0.712005
H72	H	-0.633746	-0.899690	-1.067777
H73	H	-0.633959	-0.720539	-0.247666
N74	N	-0.911231	-0.941772	-0.448669
H75	H	-0.867055	-0.984232	-0.447566
H76	H	-0.866916	-0.902985	-0.465914
N77	N	-0.651606	-0.888193	-0.930197
H78	H	-0.694515	-0.860767	-0.963317
H79	H	-0.608396	-0.856875	-0.900913
H80	H	-0.633646	-0.899570	-0.712019
N81	N	-0.369535	-0.729757	-0.415949
H82	H	-0.326511	-0.696620	-0.443339
H83	H	-0.412590	-0.759091	-0.447305
N84	N	-0.370028	-1.068235	-0.930183
H85	H	-0.327131	-1.095686	-0.963298
H86	H	-0.413227	-1.099530	-0.900814
N87	N	-0.910174	-0.855811	-0.362269
H88	H	-0.972235	-0.824568	-0.354953
H89	H	-0.865903	-0.838656	-0.401119
N90	N	-1.110094	-1.069641	-0.415071
H91	H	-1.047159	-1.078739	-0.445138
H92	H	-1.153928	-1.031991	-0.435039
H93	H	-0.920474	-1.089701	-0.308630
H94	H	-0.633614	-0.899519	-0.583774
H95	H	-1.102092	-0.872674	-0.366090
H96	H	-0.633990	-0.236534	-0.247703
H97	H	-0.633963	-0.592305	-0.247673
H98	H	-1.103425	-0.937595	-0.430848
N99	N	-0.911149	-0.888951	-0.235418
H100	H	-0.864985	-0.870318	-0.272659
H101	H	-0.868920	-0.891920	-0.192252
H102	H	-0.918902	-1.065193	-0.397206
N103	N	-0.909149	-1.005433	-0.200586
H104	H	-0.861081	-1.040330	-0.221567
H105	H	-0.970842	-1.028741	-0.178053
H106	H	-0.387819	-1.056661	-0.583771
N107	N	-1.110733	-1.010725	-0.202880
H108	H	-1.157191	-1.045288	-0.225805
H109	H	-1.152628	-0.986653	-0.166752
