data_functionalizedCrystal
_audit_creation_method	'MofGen! by Chris Wilmer'
_symmetry_space_group_name_H-M	'P1'
_symmetry_Int_Tables_number	1
_symmetry_cell_setting	triclinic
loop_
_symmetry_equiv_pos_as_xyz
  x,y,z
_cell_length_a	12.594517
_cell_length_b	21.295417
_cell_length_c	12.594509
_cell_angle_alpha	89.965303
_cell_angle_beta	89.978379
_cell_angle_gamma	90.030306
loop_
_atom_site_label
_atom_site_type_symbol
_atom_site_fract_x
_atom_site_fract_y
_atom_site_fract_z
Zn1	Zn	1.627163	-0.250603	-0.601801
Zn2	Zn	1.627008	-0.355879	-0.423797
Zn3	Zn	1.449166	-0.250627	-0.423830
Zn4	Zn	1.449104	-0.355838	-0.601727
O5	O	1.538110	-0.303237	-0.512789
O6	O	1.776088	-0.264575	-0.578205
O7	O	1.603378	-0.341944	-0.274856
O8	O	1.472868	-0.162535	-0.447482
O9	O	1.775974	-0.341921	-0.447427
O10	O	1.603642	-0.162517	-0.578237
O11	O	1.472718	-0.264616	-0.274879
O12	O	1.300212	-0.264577	-0.447411
O13	O	1.472763	-0.341851	-0.750683
O14	O	1.300167	-0.341875	-0.578112
O15	O	1.603582	-0.264536	-0.750737
O16	O	1.603318	-0.443963	-0.447356
O17	O	1.472613	-0.443933	-0.578080
C18	C	1.261569	-0.303224	-0.512757
C19	C	1.143264	-0.303234	-0.512769
C20	C	1.074005	-0.261134	-0.441817
C21	C	1.003169	-0.318554	-0.415623
C22	C	1.003301	-0.245842	-0.538981
C23	C	1.073987	-0.360684	-0.486525
C24	C	1.074124	-0.287934	-0.609928
C25	C	1.003321	-0.345393	-0.583771
C26	C	1.537971	-0.466789	-0.512730
C27	C	1.538009	-0.536757	-0.512740
C28	C	1.606127	-0.569618	-0.444742
C29	C	1.606177	-0.635361	-0.444766
C30	C	1.538089	-0.668239	-0.512777
C31	C	1.469966	-0.635370	-0.580789
C32	C	1.469926	-0.569629	-0.580770
N33	N	1.444979	-0.771504	-0.520881
N34	N	1.445020	-0.833956	-0.520892
C35	C	1.538209	-0.866314	-0.512838
N36	N	1.631356	-0.833861	-0.504752
N37	N	1.631313	-0.771404	-0.504735
C38	C	1.538126	-0.739524	-0.512805
C39	C	1.606387	-0.970461	-0.444862
C40	C	1.606439	-1.036204	-0.444893
C41	C	1.470218	-1.036212	-0.580910
C42	C	1.470176	-0.970470	-0.580885
C43	C	1.538259	-0.937598	-0.512855
C44	C	1.815731	-0.303250	-0.512821
C45	C	1.934037	-0.303256	-0.512835
C46	C	1.538183	-0.303186	-0.790410
C47	C	1.538214	-0.303165	-0.908715
C48	C	1.538279	-0.139047	-0.512871
C49	C	1.538352	-0.069078	-0.512906
C50	C	1.467106	-0.345164	-1.048703
C51	C	1.441108	-0.287758	-0.977915
C52	C	1.564165	-0.360565	-0.977932
C53	C	1.512226	-0.245649	-1.048713
C54	C	1.635328	-0.318495	-1.048736
C55	C	1.609367	-0.261049	-0.977980
C56	C	1.538099	-0.303242	-0.236248
C57	C	1.538275	-0.303086	-0.117943
H58	H	1.104907	-0.409243	-0.464291
F59	F	1.388418	-0.391572	-1.089297
F60	F	1.114891	-0.270980	-0.717258
H61	H	0.972004	-0.331509	-0.333486
F62	F	0.962708	-0.182393	-0.567922
F63	F	1.397669	-0.935495	-0.653255
F64	F	1.742611	-0.335514	-1.089432
F65	F	1.678599	-0.534637	-0.372350
F66	F	1.678951	-1.071178	-0.372523
H67	H	1.414784	-1.062982	-0.636291
F68	F	1.678680	-0.670341	-0.372389
F69	F	1.592815	-0.424056	-0.937282
H70	H	1.414530	-0.662144	-0.636166
F71	F	1.397421	-0.534654	-0.653147
H72	H	1.661828	-0.943695	-0.389471
H73	H	1.359006	-0.274754	-0.946806
F74	F	1.483447	-0.182138	-1.089177
H75	H	1.669526	-0.225458	-0.947124
F76	F	0.963007	-0.391992	-0.662236
H77	H	1.105040	-0.225567	-0.381741
