data_functionalizedCrystal
_audit_creation_method	'MofGen! by Chris Wilmer'
_symmetry_space_group_name_H-M	'P1'
_symmetry_Int_Tables_number	1
_symmetry_cell_setting	triclinic
loop_
_symmetry_equiv_pos_as_xyz
  x,y,z
_cell_length_a	16.625539
_cell_length_b	11.169417
_cell_length_c	16.625546
_cell_angle_alpha	89.976283
_cell_angle_beta	90.030397
_cell_angle_gamma	89.983071
loop_
_atom_site_label
_atom_site_type_symbol
_atom_site_fract_x
_atom_site_fract_y
_atom_site_fract_z
Zn1	Zn	-0.455819	1.834831	0.320973
Zn2	Zn	-0.205819	2.084831	0.570973
Zn3	Zn	0.044181	2.334831	0.820973
Zn4	Zn	0.294181	2.584831	1.070973
Zn5	Zn	-0.320982	1.834686	0.455816
Zn6	Zn	-0.070982	2.084686	0.705816
Zn7	Zn	0.179018	2.334686	0.955816
Zn8	Zn	0.429018	2.584686	1.205816
Zn9	Zn	-0.321008	1.634125	0.321004
Zn10	Zn	-0.071008	1.884125	0.571004
Zn11	Zn	0.178992	2.134125	0.821004
Zn12	Zn	0.428992	2.384125	1.071004
Zn13	Zn	-0.455780	1.634081	0.455771
Zn14	Zn	-0.205780	1.884081	0.705771
Zn15	Zn	0.044220	2.134081	0.955771
Zn16	Zn	0.294220	2.384081	1.205771
O17	O	-0.388397	1.734431	0.388391
O18	O	-0.138397	1.984431	0.638391
O19	O	0.111603	2.234431	0.888391
O20	O	0.361603	2.484431	1.138391
O21	O	-0.437938	2.002761	0.338867
O22	O	-0.187938	2.252761	0.588867
O23	O	0.062062	2.502761	0.838867
O24	O	0.312062	2.752761	1.088867
O25	O	-0.208153	1.808040	0.437966
O26	O	0.041847	2.058040	0.687966
O27	O	0.291847	2.308040	0.937966
O28	O	0.541847	2.558040	1.187966
O29	O	-0.338919	1.660828	0.208168
O30	O	-0.088919	1.910828	0.458168
O31	O	0.161081	2.160828	0.708168
O32	O	0.411081	2.410828	0.958168
O33	O	-0.338873	2.002655	0.437935
O34	O	-0.088873	2.252655	0.687935
O35	O	0.161127	2.502655	0.937935
O36	O	0.411127	2.752655	1.187935
O37	O	-0.437964	1.808285	0.208145
O38	O	-0.187964	2.058285	0.458145
O39	O	0.062036	2.308285	0.708145
O40	O	0.312036	2.558285	0.958145
O41	O	-0.208172	1.660688	0.338920
O42	O	0.041828	1.910688	0.588920
O43	O	0.291828	2.160688	0.838920
O44	O	0.541828	2.410688	1.088920
O45	O	-0.338881	1.466170	0.338875
O46	O	-0.088881	1.716170	0.588875
O47	O	0.161119	1.966170	0.838875
O48	O	0.411119	2.216170	1.088875
O49	O	-0.568618	1.660753	0.437857
O50	O	-0.318618	1.910753	0.687857
O51	O	-0.068618	2.160753	0.937857
O52	O	0.181382	2.410753	1.187857
O53	O	-0.437897	1.466138	0.437887
O54	O	-0.187897	1.716138	0.687887
O55	O	0.062103	1.966138	0.937887
O56	O	0.312103	2.216138	1.187887
O57	O	-0.568647	1.808243	0.338822
O58	O	-0.318647	2.058243	0.588822
O59	O	-0.068647	2.308243	0.838822
O60	O	0.181353	2.558243	1.088822
O61	O	-0.338835	1.807997	0.568643
O62	O	-0.088835	2.057997	0.818643
O63	O	0.161165	2.307997	1.068643
O64	O	0.411165	2.557997	1.318643
O65	O	-0.437871	1.660613	0.568609
O66	O	-0.187871	1.910613	0.818609
O67	O	0.062129	2.160613	1.068609
O68	O	0.312129	2.410613	1.318609
C69	C	-0.388388	1.422606	0.388380
C70	C	-0.138388	1.672606	0.638380
C71	C	0.111612	1.922606	0.888380
C72	C	0.361612	2.172606	1.138380
C73	C	-0.388403	1.289206	0.388395
C74	C	-0.138403	1.539206	0.638395
C75	C	0.111597	1.789206	0.888395
C76	C	0.361597	2.039206	1.138395
C77	C	-0.598706	1.734509	0.388331
C78	C	-0.348706	1.984509	0.638331
C79	C	-0.098706	2.234509	0.888331
C80	C	0.151294	2.484509	1.138331
C81	C	-0.688328	1.734542	0.388306
C82	C	-0.438328	1.984542	0.638306
C83	C	-0.188328	2.234542	0.888306
C84	C	0.061672	2.484542	1.138306
C85	C	-1.016503	1.734598	0.388215
C86	C	-0.766503	1.984598	0.638215
C87	C	-0.516503	2.234598	0.888215
C88	C	-0.266503	2.484598	1.138215
C89	C	-0.925195	1.734579	0.388243
C90	C	-0.675195	1.984579	0.638243
C91	C	-0.425195	2.234579	0.888243
C92	C	-0.175195	2.484579	1.138243
C93	C	-0.852418	1.734571	0.388261
C94	C	-0.602418	1.984571	0.638261
C95	C	-0.352418	2.234571	0.888261
C96	C	-0.102418	2.484571	1.138261
C97	C	-0.761104	1.734551	0.388287
C98	C	-0.511104	1.984551	0.638287
C99	C	-0.261104	2.234551	0.888287
C100	C	-0.011104	2.484551	1.138287
C101	C	-0.178907	1.734422	0.388393
C102	C	0.071093	1.984422	0.638393
C103	C	0.321093	2.234422	0.888393
C104	C	0.571093	2.484422	1.138393
C105	C	-0.089286	1.734622	0.388191
C106	C	0.160714	1.984622	0.638191
C107	C	0.410714	2.234622	0.888191
C108	C	0.660714	2.484622	1.138191
C109	C	-0.388364	1.734317	0.597882
C110	C	-0.138364	1.984317	0.847882
C111	C	0.111636	2.234317	1.097882
C112	C	0.361636	2.484317	1.347882
C113	C	-0.388376	1.734379	0.687503
C114	C	-0.138376	1.984379	0.937503
C115	C	0.111624	2.234379	1.187503
C116	C	0.361624	2.484379	1.437503
C117	C	-0.388407	2.047473	0.388403
C118	C	-0.138407	2.297473	0.638403
C119	C	0.111593	2.547473	0.888403
C120	C	0.361593	2.797473	1.138403
C121	C	-0.388411	2.180873	0.388408
C122	C	-0.138411	2.430873	0.638408
C123	C	0.111589	2.680873	0.888408
C124	C	0.361589	2.930873	1.138408
C125	C	-0.388449	1.734578	0.178082
C126	C	-0.138449	1.984578	0.428082
C127	C	0.111551	2.234578	0.678082
C128	C	0.361551	2.484578	0.928082
C129	C	-0.388471	1.734640	0.088461
C130	C	-0.138471	1.984640	0.338461
C131	C	0.111529	2.234640	0.588461
C132	C	0.361529	2.484640	0.838461
C133	C	-0.388460	1.734588	1.015679
C134	C	-0.138460	1.984588	1.265679
C135	C	0.111540	2.234588	1.515679
C136	C	0.361540	2.484588	1.765679
C137	C	-0.388439	1.734526	0.924370
C138	C	-0.138439	1.984526	1.174370
C139	C	0.111561	2.234526	1.424370
C140	C	0.361561	2.484526	1.674370
C141	C	-0.388418	1.734482	0.851594
C142	C	-0.138418	1.984482	1.101594
C143	C	0.111582	2.234482	1.351594
C144	C	0.361582	2.484482	1.601594
C145	C	-0.388397	1.734422	0.760280
C146	C	-0.138397	1.984422	1.010280
C147	C	0.111603	2.234422	1.260280
C148	C	0.361603	2.484422	1.510280
