data_functionalizedCrystal
_audit_creation_method	'MofGen! by Chris Wilmer'
_symmetry_space_group_name_H-M	'P1'
_symmetry_Int_Tables_number	1
_symmetry_cell_setting	triclinic
loop_
_symmetry_equiv_pos_as_xyz
  x,y,z
_cell_length_a	15.995350
_cell_length_b	15.995350
_cell_length_c	14.472310
_cell_angle_alpha	90.001162
_cell_angle_beta	89.990621
_cell_angle_gamma	83.492375
loop_
_atom_site_label
_atom_site_type_symbol
_atom_site_fract_x
_atom_site_fract_y
_atom_site_fract_z
O1	O	1.110997	0.107921	-0.076758
O2	O	0.867221	0.121248	-0.076776
O3	O	0.995773	-0.007303	-0.076766
O4	O	0.982445	0.236472	-0.076769
O5	O	0.995740	-0.007296	0.076916
O6	O	0.867188	0.121256	0.076906
O7	O	1.110963	0.107928	0.076924
Cu8	Cu	0.989073	0.114593	0.090947
Cu9	Cu	0.989112	0.114584	-0.090800
O10	O	0.982412	0.236480	0.076913
C11	C	0.836010	0.120701	0.000062
C12	C	0.743060	0.119049	0.000055
C13	C	0.995205	-0.038494	0.000073
C14	C	0.993553	-0.131444	0.000068
C15	C	0.405312	0.113117	0.000074
C16	C	0.452746	0.021565	0.000418
C17	C	0.549436	0.023217	0.000065
C18	C	0.572873	0.116060	0.000065
C19	C	0.531804	0.161212	-0.087692
C20	C	0.435169	0.158912	-0.087759
C21	C	0.434792	0.160812	0.087007
C22	C	0.531737	0.160790	0.088160
C23	C	0.667570	0.117727	0.000057
C24	C	0.310614	0.111452	0.000076
C25	C	0.987621	-0.469192	0.000071
C26	C	0.896069	-0.421758	-0.000281
C27	C	0.897721	-0.325068	0.000066
C28	C	0.990564	-0.301631	0.000069
C29	C	1.035701	-0.342705	0.087831
C30	C	1.033401	-0.439340	0.087904
C31	C	1.035330	-0.439707	-0.086861
C32	C	1.035309	-0.342762	-0.088021
C33	C	0.992231	-0.206934	0.000071
C34	C	0.985956	-0.563890	0.000075
C35	C	1.142175	0.108476	0.000083
C36	C	1.235125	0.110127	0.000084
C37	C	0.982980	0.267671	0.000072
C38	C	0.984631	0.360621	0.000071
N39	N	0.989051	0.114598	0.218778
N40	N	0.989140	0.114572	-0.218631
C41	C	0.989111	0.114581	0.592869
C42	C	0.920095	0.183135	0.553698
C43	C	0.920254	0.183385	0.446610
C44	C	0.989081	0.114590	0.407278
C45	C	1.076445	0.133671	0.446122
C46	C	1.076057	0.134159	0.553243
C47	C	0.971542	0.026741	0.553398
C48	C	0.969538	0.027327	0.446270
C49	C	0.989069	0.114593	0.302390
C50	C	0.989128	0.114579	0.697757
H51	H	0.577852	-0.012275	0.062973
F52	F	0.428515	-0.026264	0.082678
H53	H	0.433166	-0.014865	-0.062168
H54	H	1.005412	-0.460250	-0.153379
H55	H	0.545930	0.229421	-0.090955
H56	H	1.091540	0.198219	0.578220
H57	H	0.859626	-0.441349	0.062299
F58	F	0.834934	0.168511	0.587380
H59	H	0.577308	-0.012521	-0.062951
H60	H	0.416874	0.125979	-0.153359
F61	F	0.568907	0.120214	-0.173059
H62	H	0.931159	0.247952	0.580608
F63	F	1.145140	0.071312	0.587113
F64	F	0.393016	0.246766	-0.092965
H65	H	0.414242	0.130885	0.153524
H66	H	0.559040	0.127830	0.153082
F67	F	0.551814	0.249287	0.095088
F68	F	1.030980	-0.042479	0.411290
H69	H	1.000459	-0.457639	0.153505
H70	H	1.002307	-0.315516	-0.152945
H71	H	0.403031	0.228313	0.087600
H72	H	0.862239	-0.296649	-0.062846
F73	F	0.934891	0.268593	0.413100
F74	F	1.123805	-0.322679	-0.094950
F75	F	1.145179	0.070143	0.412824
F76	F	1.097168	0.216448	0.411046
H77	H	0.909219	0.008392	0.580461
F78	F	0.850993	-0.288638	0.082427
H79	H	0.905272	0.012845	0.420883
F80	F	1.124855	-0.324243	0.092103
H81	H	0.859490	-0.440293	-0.063217
H82	H	1.021872	-0.024275	0.578728
H83	H	1.004324	-0.314320	0.153137
F84	F	1.121254	-0.481493	0.093121
F85	F	0.835361	0.168568	0.412282
F86	F	1.123558	-0.481221	-0.087631
