data_functionalizedCrystal
_audit_creation_method	'MofGen! by Chris Wilmer'
_symmetry_space_group_name_H-M	'P1'
_symmetry_Int_Tables_number	1
_symmetry_cell_setting	triclinic
loop_
_symmetry_equiv_pos_as_xyz
  x,y,z
_cell_length_a	17.640112
_cell_length_b	13.897448
_cell_length_c	17.640968
_cell_angle_alpha	78.768361
_cell_angle_beta	92.139080
_cell_angle_gamma	101.242525
loop_
_atom_site_label
_atom_site_type_symbol
_atom_site_fract_x
_atom_site_fract_y
_atom_site_fract_z
Zn1	Zn	1.247780	-0.027714	-0.195080
Zn2	Zn	1.747780	0.472286	0.304920
Zn3	Zn	1.222024	-0.226719	-0.068097
Zn4	Zn	1.722024	0.273281	0.431903
Zn5	Zn	1.095117	-0.090459	-0.093726
Zn6	Zn	1.595117	0.409541	0.406274
Zn7	Zn	1.120765	-0.214022	-0.220679
Zn8	Zn	1.620765	0.285978	0.279321
O9	O	1.171421	-0.139729	-0.144395
O10	O	1.671421	0.360271	0.355605
O11	O	1.350631	-0.033168	-0.156796
O12	O	1.850631	0.466832	0.343204
O13	O	1.183677	-0.240217	0.034777
O14	O	1.683677	0.259783	0.534777
O15	O	1.115413	0.052860	-0.107183
O16	O	1.615413	0.552860	0.392817
O17	O	1.331709	-0.179376	-0.063502
O18	O	1.831709	0.320624	0.436498
O19	O	1.227574	0.098958	-0.181648
O20	O	1.727574	0.598958	0.318352
O21	O	1.090439	-0.140107	0.015947
O22	O	1.590439	0.359893	0.515947
O23	O	0.992251	-0.127795	-0.132005
O24	O	1.492251	0.372205	0.367995
O25	O	1.159126	-0.157736	-0.323556
O26	O	1.659126	0.342264	0.176444
O27	O	1.011094	-0.218577	-0.225277
O28	O	1.511094	0.281423	0.274723
O29	O	1.252444	-0.020856	-0.304749
O30	O	1.752444	0.479144	0.195251
O31	O	1.208547	-0.360031	-0.088325
O32	O	1.708547	0.139969	0.411675
O33	O	1.134152	-0.350703	-0.200426
O34	O	1.634152	0.149297	0.299574
C35	C	0.974119	-0.178617	-0.184201
C36	C	1.474119	0.321383	0.315799
C37	C	0.889716	-0.195272	-0.201248
C38	C	1.389716	0.304728	0.298752
C39	C	0.563040	-0.013187	-0.014898
C40	C	1.063040	0.486813	0.485102
C41	C	0.483732	-0.028853	-0.030926
C42	C	0.983732	0.471147	0.469074
C43	C	0.503374	-0.123604	-0.127883
C44	C	1.003374	0.376396	0.372117
C45	C	0.582686	-0.107942	-0.111865
C46	C	1.082686	0.392058	0.388135
C47	C	0.612512	-0.052734	-0.055371
C48	C	1.112512	0.447266	0.444629
C49	C	0.632158	-0.147488	-0.152339
C50	C	1.132158	0.352512	0.347661
C51	C	0.711462	-0.131831	-0.136319
C52	C	1.211462	0.368169	0.363681
C53	C	0.741294	-0.076628	-0.079826
C54	C	1.241294	0.423372	0.420174
C55	C	0.691816	-0.037077	-0.039352
C56	C	1.191816	0.462923	0.460648
C57	C	0.602329	-0.202701	-0.208829
C58	C	1.102329	0.297299	0.291171
C59	C	0.651801	-0.242247	-0.249302
C60	C	1.151801	0.257753	0.250698
C61	C	0.731108	-0.226585	-0.233287
C62	C	1.231108	0.273415	0.266713
C63	C	0.760940	-0.171382	-0.176794
C64	C	1.260940	0.328618	0.323206
C65	C	0.780586	-0.266136	-0.273761
C66	C	1.280586	0.233864	0.226239
C67	C	0.859889	-0.250480	-0.257742
C68	C	1.359889	0.249520	0.242258
C69	C	0.840244	-0.155726	-0.160774
C70	C	1.340244	0.344274	0.339226
C71	C	1.171362	-0.390361	-0.144385
C72	C	1.671362	0.109639	0.355615
C73	C	1.171411	-0.497561	-0.144391
C74	C	1.671411	0.002439	0.355609
C75	C	1.171500	-0.693826	-0.144423
C76	C	1.671500	-0.193826	0.355577
C77	C	1.171449	-0.584610	-0.144408
C78	C	1.671449	-0.084610	0.355592
C79	C	1.369495	-0.100689	-0.104435
C80	C	1.869495	0.399311	0.395565
C81	C	1.453902	-0.084053	-0.087406
C82	C	1.953902	0.415947	0.412594
C83	C	1.211519	-0.080881	-0.342478
C84	C	1.711519	0.419119	0.157522
C85	C	1.228606	-0.055803	-0.426890
C86	C	1.728606	0.444197	0.073110
C87	C	1.171506	0.111891	-0.144419
C88	C	1.671506	0.611891	0.355581
C89	C	1.171541	0.219116	-0.144429
C90	C	1.671541	0.719116	0.355571
C91	C	1.041904	-0.329658	-0.753462
C92	C	1.541904	0.170342	-0.253462
C93	C	1.057976	-0.306079	-0.832776
C94	C	1.557976	0.193921	-0.332776
C95	C	1.155140	-0.163558	-0.813183
C96	C	1.655140	0.336442	-0.313183
C97	C	1.139073	-0.187123	-0.733866
C98	C	1.639073	0.312877	-0.233866
C99	C	1.082455	-0.270175	-0.704012
C100	C	1.582455	0.229825	-0.204012
C101	C	1.179624	-0.127639	-0.684416
C102	C	1.679624	0.372361	-0.184416
C103	C	1.163562	-0.151206	-0.605106
C104	C	1.663562	0.348794	-0.105106
C105	C	1.106948	-0.234255	-0.575246
C106	C	1.606948	0.265745	-0.075246
C107	C	1.066393	-0.293741	-0.624702
C108	C	1.566393	0.206259	-0.124702
C109	C	1.236246	-0.044592	-0.714271
C110	C	1.736246	0.455408	-0.214271
C111	C	1.276797	0.014891	-0.664821
C112	C	1.776797	0.514891	-0.164821
C113	C	1.260731	-0.008670	-0.585510
C114	C	1.760731	0.491330	-0.085510
C115	C	1.204117	-0.091720	-0.555650
C116	C	1.704117	0.408280	-0.055650
C117	C	1.301286	0.050815	-0.536054
C118	C	1.801286	0.550815	-0.036054
C119	C	1.285224	0.027249	-0.456744
C120	C	1.785224	0.527249	0.043256
C121	C	1.188055	-0.115286	-0.476339
C122	C	1.688055	0.384714	0.023661
C123	C	1.131524	-0.198270	0.052926
C124	C	1.631524	0.301730	0.552926
C125	C	1.114584	-0.223047	0.137366
C126	C	1.614584	0.276953	0.637366
H127	H	0.479078	-0.168557	-0.173878
H128	H	0.979078	0.331443	0.326122
H129	H	0.537754	-0.215447	-0.221869
H130	H	1.037754	0.284553	0.278131
C131	C	1.004109	-0.385091	-0.591854
C132	C	1.504109	0.114909	-0.091854
H133	H	1.000350	-0.390599	-0.537538
H134	H	1.500350	0.109401	-0.037538
H135	H	1.017827	-0.443859	-0.602603
H136	H	1.517827	0.056141	-0.102603
H137	H	0.955721	-0.377155	-0.615150
H138	H	1.455721	0.122845	-0.115150
H139	H	0.443455	0.003362	0.002031
H140	H	0.943455	0.503362	0.502031
C141	C	0.979653	-0.421044	-0.720612
C142	C	1.479653	0.078956	-0.220612
H143	H	0.957810	-0.453110	-0.761418
H144	H	1.457810	0.046890	-0.261418
H145	H	0.940302	-0.399897	-0.696337
H146	H	1.440302	0.100103	-0.196337
H147	H	1.002460	-0.466523	-0.683817
H148	H	1.502460	0.033477	-0.183817
C149	C	1.013364	-0.371514	-0.887169
C150	C	1.513364	0.128486	-0.387169
H151	H	0.977342	-0.424346	-0.858028
H152	H	1.477342	0.075654	-0.358028
H153	H	1.048665	-0.398626	-0.912243
H154	H	1.548665	0.101374	-0.412243
H155	H	0.986550	-0.331937	-0.924789
H156	H	1.486550	0.168063	-0.424789
H157	H	0.900171	-0.282681	-0.290700
H158	H	1.400171	0.217319	0.209300
H159	H	1.322898	0.082510	-0.689139
H160	H	1.822898	0.582510	-0.189139
H161	H	0.587328	0.031786	0.031094
H162	H	1.087328	0.531786	0.531094
C163	C	1.217411	-0.072203	-0.846028
C164	C	1.717411	0.427797	-0.346028
H165	H	1.221166	-0.066681	-0.900346
H166	H	1.721166	0.433319	-0.400346
H167	H	1.265798	-0.080117	-0.822731
H168	H	1.765798	0.419883	-0.322731
H169	H	1.203674	-0.013440	-0.835280
H170	H	1.703674	0.486560	-0.335280
H171	H	1.249324	-0.025409	-0.778851
H172	H	1.749324	0.474591	-0.278851
H173	H	1.141933	-0.182896	-0.452035
H174	H	1.641933	0.317104	0.047965
C175	C	0.618988	-0.302967	-0.311444
C176	C	1.118988	0.197033	0.188556
H177	H	0.564673	-0.306623	-0.315193
H178	H	1.064673	0.193377	0.184807
H179	H	0.629712	-0.368518	-0.297624
H180	H	1.129712	0.131482	0.202376
H181	H	0.642332	-0.271202	-0.359863
H182	H	1.142332	0.228798	0.140137
C183	C	1.363563	0.142163	-0.568900
C184	C	1.863563	0.642163	-0.068900
H185	H	1.367320	0.147680	-0.623217
H186	H	1.867320	0.647680	-0.123217
H187	H	1.411948	0.134242	-0.545600
H188	H	1.911948	0.634242	-0.045600
H189	H	1.349832	0.200932	-0.558156
H190	H	1.849832	0.700932	-0.058156
H191	H	0.756288	-0.311095	-0.319753
H192	H	1.256288	0.188905	0.180247
C193	C	1.329826	0.092675	-0.402343
C194	C	1.829826	0.592675	0.097657
H195	H	1.312155	0.066737	-0.350832
H196	H	1.812155	0.566737	0.149168
H197	H	1.321367	0.159164	-0.417585
H198	H	1.821367	0.659164	0.082415
H199	H	1.383479	0.092469	-0.405040
H200	H	1.883479	0.592469	0.094960
H201	H	0.805868	-0.063884	-0.066783
H202	H	1.305868	0.436116	0.433217
C203	C	0.724632	0.023667	0.022781
C204	C	1.224632	0.523667	0.522781
H205	H	0.683811	0.044981	0.044593
H206	H	1.183811	0.544981	0.544593
H207	H	0.761470	0.080389	-0.000086
H208	H	1.261470	0.580389	0.499914
H209	H	0.748850	-0.016907	0.062174
H210	H	1.248850	0.483093	0.562174
C211	C	0.873062	-0.094991	-0.098637
C212	C	1.373062	0.405009	0.401363
H213	H	0.927379	-0.091328	-0.094899
H214	H	1.427379	0.408672	0.405101
H215	H	0.849721	-0.126733	-0.050217
H216	H	1.349721	0.373267	0.449783
H217	H	0.862344	-0.029433	-0.112472
H218	H	1.362344	0.470567	0.387528
C219	C	1.089275	-0.260185	-0.488007
C220	C	1.589275	0.239815	0.011993
H221	H	1.049753	-0.318170	-0.477310
H222	H	1.549753	0.181830	0.022690
H223	H	1.072529	-0.205855	-0.472717
H224	H	1.572529	0.294145	0.027283
H225	H	1.134643	-0.272548	-0.460172
H226	H	1.634643	0.227452	0.039828
