data_functionalizedCrystal
_audit_creation_method	'MofGen! by Chris Wilmer'
_symmetry_space_group_name_H-M	'P1'
_symmetry_Int_Tables_number	1
_symmetry_cell_setting	triclinic
loop_
_symmetry_equiv_pos_as_xyz
  x,y,z
_cell_length_a	13.032831
_cell_length_b	18.101395
_cell_length_c	18.101390
_cell_angle_alpha	89.968753
_cell_angle_beta	82.810808
_cell_angle_gamma	82.835691
loop_
_atom_site_label
_atom_site_type_symbol
_atom_site_fract_x
_atom_site_fract_y
_atom_site_fract_z
Zn1	Zn	1.597513	-0.438785	-0.562261
Zn2	Zn	2.097513	0.061215	-0.062261
Zn3	Zn	1.597371	-0.562629	-0.438410
Zn4	Zn	2.097371	-0.062629	0.061590
Zn5	Zn	1.422766	-0.423069	-0.422734
Zn6	Zn	1.922766	0.076931	0.077266
Zn7	Zn	1.422692	-0.546833	-0.546517
Zn8	Zn	1.922692	-0.046833	-0.046517
O9	O	1.510085	-0.492829	-0.492480
O10	O	2.010085	0.007171	0.007520
O11	O	1.743730	-0.468401	-0.558981
O12	O	2.243730	0.031599	-0.058981
O13	O	1.574181	-0.544150	-0.332695
O14	O	2.074181	-0.044150	0.167305
O15	O	1.446037	-0.321529	-0.441271
O16	O	1.946037	0.178471	0.058729
O17	O	1.743625	-0.559389	-0.467988
O18	O	2.243625	-0.059389	0.032012
O19	O	1.574423	-0.333075	-0.543781
O20	O	2.074423	0.166925	-0.043781
O21	O	1.445899	-0.441615	-0.321178
O22	O	1.945899	0.058385	0.178822
O23	O	1.276521	-0.426298	-0.426005
O24	O	1.776521	0.073702	0.073995
O25	O	1.445911	-0.532466	-0.652241
O26	O	1.945911	-0.032466	-0.152241
O27	O	1.276466	-0.517227	-0.516948
O28	O	1.776466	-0.017227	-0.016948
O29	O	1.574351	-0.453084	-0.663808
O30	O	2.074351	0.046916	-0.163808
O31	O	1.574109	-0.664158	-0.452722
O32	O	2.074109	-0.164158	0.047278
O33	O	1.445773	-0.652553	-0.532148
O34	O	1.945773	-0.152553	-0.032148
C35	C	1.238576	-0.468344	-0.468067
C36	C	1.738576	0.031656	0.031933
C37	C	1.122423	-0.457887	-0.457641
C38	C	1.622423	0.042113	0.042359
C39	C	1.070639	-0.498287	-0.497922
C40	C	1.570639	0.001713	0.002078
C41	C	0.950589	-0.487480	-0.487147
C42	C	1.450589	0.012520	0.012853
C43	C	1.509946	-0.685227	-0.492446
C44	C	2.009946	-0.185227	0.007554
C45	C	1.509981	-0.767544	-0.492465
C46	C	2.009981	-0.267544	0.007535
C47	C	1.510211	-1.066656	-0.492525
C48	C	2.010211	-0.566656	0.007475
C49	C	1.429653	-1.028076	-0.542657
C50	C	1.929653	-0.528076	-0.042657
C51	C	1.429270	-0.942424	-0.542443
C52	C	1.929270	-0.442424	-0.042443
C53	C	1.510097	-0.918263	-0.492496
C54	C	2.010097	-0.418263	0.007504
C55	C	1.480285	-0.946733	-0.411768
C56	C	1.980285	-0.446733	0.088232
C57	C	1.479765	-1.032331	-0.412065
C58	C	1.979765	-0.532331	0.087935
C59	C	1.620757	-1.044962	-0.522450
C60	C	2.120757	-0.544962	-0.022450
C61	C	1.620107	-0.959252	-0.524104
C62	C	2.120107	-0.459252	-0.024104
C63	C	1.510034	-0.834398	-0.492475
C64	C	2.010034	-0.334398	0.007525
C65	C	1.510271	-1.150521	-0.492541
C66	C	2.010271	-0.650521	0.007459
C67	C	1.782655	-0.517410	-0.516989
C68	C	2.282655	-0.017410	-0.016989
C69	C	1.898808	-0.527885	-0.527433
C70	C	2.398808	-0.027885	-0.027433
C71	C	1.510138	-0.492766	-0.685647
C72	C	2.010138	0.007234	-0.185647
C73	C	1.510161	-0.492740	-0.767963
C74	C	2.010161	0.007260	-0.267963
C75	C	1.510254	-0.299682	-0.492534
C76	C	2.010254	0.200318	0.007466
C77	C	1.510326	-0.217374	-0.492556
C78	C	2.010326	0.282626	0.007444
C79	C	1.510198	-0.492720	-0.918675
C80	C	2.010198	0.007280	-0.418675
C81	C	1.591012	-0.442770	-0.957307
C82	C	2.091012	0.057230	-0.457307
C83	C	1.591350	-0.442955	-1.042955
C84	C	2.091350	0.057045	-0.542955
C85	C	1.510235	-0.492699	-1.067061
C86	C	2.010235	0.007301	-0.567061
C87	C	1.539693	-0.573466	-1.038599
C88	C	2.039693	-0.073466	-0.538599
C89	C	1.540258	-0.573199	-0.953005
C90	C	2.040258	-0.073199	-0.453005
C91	C	1.399731	-0.462563	-0.940308
C92	C	1.899731	0.037437	-0.440308
C93	C	1.400345	-0.460883	-1.026014
C94	C	1.900345	0.039117	-0.526014
C95	C	1.510254	-0.492692	-1.150922
C96	C	2.010254	0.007308	-0.650922
C97	C	1.510182	-0.492732	-0.834814
C98	C	2.010182	0.007268	-0.334814
C99	C	1.510093	-0.492843	-0.300071
C100	C	2.010093	0.007157	0.199929
C101	C	1.510273	-0.492679	-0.217773
C102	C	2.010273	0.007321	0.282227
H103	H	0.943345	-0.570473	-0.569904
H104	H	1.443345	-0.070473	-0.069904
H105	H	1.448119	-1.050284	-0.602376
H106	H	1.948119	-0.550284	-0.102376
H107	H	1.372818	-0.404158	-0.916295
H108	H	1.872818	0.095842	-0.416295
F109	F	1.128854	-0.553956	-0.553423
F110	F	1.628854	-0.053956	-0.053423
H111	H	1.378123	-0.401396	-1.044353
H112	H	1.878123	0.098604	-0.544353
H113	H	0.906051	-0.444885	-0.444684
H114	H	1.406051	0.055115	0.055316
H115	H	1.077881	-0.415295	-0.415181
H116	H	1.577881	0.084705	0.084819
H117	H	1.619540	-0.598048	-1.067246
H118	H	2.119540	-0.098048	-0.567246
F119	F	1.375778	-0.909368	-0.379844
F120	F	1.875778	-0.409368	0.120156
F121	F	1.453646	-0.917081	-0.620277
F122	F	1.953646	-0.417081	-0.120277
H123	H	1.348211	-1.042323	-0.522263
H124	H	1.848211	-0.542323	-0.022263
H125	H	1.647938	-1.068955	-0.580836
H126	H	2.147938	-0.568955	-0.080836
F127	F	1.322167	-0.906074	-0.515514
F128	F	1.822167	-0.406074	-0.015514
F129	F	1.374143	-1.049013	-0.380438
F130	F	1.874143	-0.549013	0.119562
H131	H	1.535895	-1.058110	-0.372906
H132	H	2.035895	-0.558110	0.127094
H133	H	1.537114	-0.931487	-0.372964
H134	H	2.037114	-0.431487	0.127036
F135	F	1.699211	-1.078516	-0.474894
F136	F	2.199211	-0.578516	0.025106
F137	F	1.645788	-0.605044	-0.936382
F138	F	2.145788	-0.105044	-0.436382
H139	H	1.642589	-0.940911	-0.583563
H140	H	2.142589	-0.440911	-0.083563
H141	H	1.683302	-0.943538	-0.491042
H142	H	2.183302	-0.443538	0.008958
H143	H	1.336955	-0.493789	-1.041686
H144	H	1.836955	0.006211	-0.541686
H145	H	1.572946	-0.383387	-1.062337
H146	H	2.072946	0.116613	-0.562337
F147	F	1.321033	-0.509944	-0.906705
F148	F	1.821033	-0.009944	-0.406705
F149	F	1.698350	-0.470108	-1.079362
F150	F	2.198350	0.029892	-0.579362
H151	H	1.572830	-0.383044	-0.935099
H152	H	2.072830	0.116956	-0.435099
F153	F	1.697400	-0.469654	-0.938755
F154	F	2.197400	0.030346	-0.438755
H155	H	1.483911	-0.612217	-0.927187
H156	H	1.983911	-0.112217	-0.427187
F157	F	1.465130	-0.624000	-1.058474
F158	F	1.965130	-0.124000	-0.558474
