data_functionalizedCrystal
_audit_creation_method	'MofGen! by Chris Wilmer'
_symmetry_space_group_name_H-M	'P1'
_symmetry_Int_Tables_number	1
_symmetry_cell_setting	triclinic
loop_
_symmetry_equiv_pos_as_xyz
  x,y,z
_cell_length_a	21.295417
_cell_length_b	17.077404
_cell_length_c	17.077396
_cell_angle_alpha	89.980499
_cell_angle_beta	89.966808
_cell_angle_gamma	90.030732
loop_
_atom_site_label
_atom_site_type_symbol
_atom_site_fract_x
_atom_site_fract_y
_atom_site_fract_z
Zn1	Zn	-0.250605	1.200013	-0.443817
Zn2	Zn	0.249395	1.700013	0.056183
Zn3	Zn	-0.355878	1.199903	-0.312540
Zn4	Zn	0.144122	1.699903	0.187460
Zn5	Zn	-0.250628	1.068745	-0.312565
Zn6	Zn	0.249372	1.568745	0.187435
Zn7	Zn	-0.355841	1.068695	-0.443764
Zn8	Zn	0.144159	1.568695	0.056236
O9	O	-0.303238	1.134339	-0.378171
O10	O	0.196762	1.634339	0.121829
O11	O	-0.264577	1.309845	-0.426415
O12	O	0.235423	1.809845	0.073585
O13	O	-0.341942	1.182479	-0.202697
O14	O	0.158058	1.682479	0.297303
O15	O	-0.162535	1.086225	-0.330008
O16	O	0.337465	1.586225	0.169992
O17	O	-0.341920	1.309764	-0.329966
O18	O	0.158080	1.809764	0.170034
O19	O	-0.162519	1.182667	-0.426439
O20	O	0.337481	1.682667	0.073561
O21	O	-0.264614	1.086118	-0.202715
O22	O	0.235386	1.586118	0.297285
O23	O	-0.264578	0.958891	-0.329957
O24	O	0.235422	1.458891	0.170043
O25	O	-0.341857	1.086140	-0.553618
O26	O	0.158143	1.586140	-0.053618
O27	O	-0.341878	0.958855	-0.426348
O28	O	0.158122	1.458855	0.073652
O29	O	-0.264540	1.182619	-0.553657
O30	O	0.235460	1.682619	-0.053657
O31	O	-0.443963	1.182431	-0.329915
O32	O	0.056037	1.682431	0.170085
O33	O	-0.443935	1.086033	-0.426324
O34	O	0.056065	1.586033	0.073676
C35	C	-0.303227	0.930391	-0.378150
C36	C	0.196773	1.430391	0.121850
C37	C	-0.303237	0.843141	-0.378159
C38	C	0.196763	1.343141	0.121841
C39	C	-0.343548	0.802153	-0.428270
C40	C	0.156452	1.302153	0.071730
C41	C	-0.343549	0.720172	-0.428282
C42	C	0.156451	1.220172	0.071718
C43	C	-0.303242	0.679182	-0.378180
C44	C	0.196758	1.179182	0.121820
C45	C	-0.262927	0.720176	-0.328067
C46	C	0.237073	1.220176	0.171933
C47	C	-0.262923	0.802155	-0.328059
C48	C	0.237077	1.302155	0.171941
C49	C	-0.262940	0.549306	-0.328086
C50	C	0.237060	1.049306	0.171914
C51	C	-0.262944	0.467322	-0.328093
C52	C	0.237056	0.967322	0.171907
C53	C	-0.343566	0.467323	-0.428309
C54	C	0.156434	0.967323	0.071691
C55	C	-0.343562	0.549302	-0.428301
C56	C	0.156438	1.049302	0.071699
C57	C	-0.303247	0.590291	-0.378187
C58	C	0.196753	1.090291	0.121813
C59	C	-0.466790	1.134236	-0.378128
C60	C	0.033210	1.634236	0.121872
C61	C	-0.536758	1.134264	-0.378136
C62	C	-0.036758	1.634264	0.121864
C63	C	-0.569618	1.184503	-0.327987
C64	C	-0.069618	1.684503	0.172013
C65	C	-0.635360	1.184539	-0.328004
C66	C	-0.135360	1.684539	0.171996
C67	C	-0.668240	1.134323	-0.378163
C68	C	-0.168240	1.634323	0.121837
C69	C	-0.635372	1.084081	-0.428321
C70	C	-0.135372	1.584081	0.071679
C71	C	-0.569631	1.084051	-0.428308
C72	C	-0.069631	1.584051	0.071692
N73	N	-0.771506	1.065655	-0.384140
N74	N	-0.271506	1.565655	0.115860
N75	N	-0.833958	1.065685	-0.384148
N76	N	-0.333958	1.565685	0.115852
C77	C	-0.866315	1.134411	-0.378208
C78	C	-0.366315	1.634411	0.121792
N79	N	-0.833862	1.203107	-0.372244
N80	N	-0.333862	1.703107	0.127756
N81	N	-0.771405	1.203076	-0.372231
N82	N	-0.271405	1.703076	0.127769
C83	C	-0.739526	1.134351	-0.378183
C84	C	-0.239526	1.634351	0.121817
C85	C	-0.970461	1.184694	-0.328075
C86	C	-0.470461	1.684694	0.171925
C87	C	-1.036204	1.184732	-0.328098
C88	C	-0.536204	1.684732	0.171902
C89	C	-1.036215	1.084267	-0.428411
C90	C	-0.536215	1.584267	0.071589
C91	C	-0.970473	1.084236	-0.428392
C92	C	-0.470473	1.584236	0.071608
C93	C	-0.937599	1.134449	-0.378220
C94	C	-0.437599	1.634449	0.121780
C95	C	-0.139048	1.134464	-0.378232
C96	C	0.360952	1.634464	0.121768
C97	C	-0.069080	1.134517	-0.378258
C98	C	0.430920	1.634517	0.121742
C99	C	-0.303192	1.134386	-0.582916
C100	C	0.196808	1.634386	-0.082916
C101	C	-0.303172	1.134407	-0.670166
C102	C	0.196828	1.634407	-0.170166
C103	C	-0.303250	1.339083	-0.378194
C104	C	0.196750	1.839083	0.121806
C105	C	-0.303255	1.426333	-0.378203
C106	C	0.196745	1.926333	0.121797
C107	C	-0.262910	1.184645	-0.711177
C108	C	0.237090	1.684645	-0.211177
C109	C	-0.262889	1.184654	-0.793158
C110	C	0.237111	1.684654	-0.293158
C111	C	-0.303134	1.134429	-0.834125
C112	C	0.196866	1.634429	-0.334125
C113	C	-0.343397	1.084185	-0.793108
C114	C	0.156603	1.584185	-0.293108
C115	C	-0.343415	1.084172	-0.711129
C116	C	0.156585	1.584172	-0.211129
C117	C	-0.343360	1.084217	-0.963978
C118	C	0.156640	1.584217	-0.463978
C119	C	-0.343343	1.084231	-1.045963
C120	C	0.156657	1.584231	-0.545963
C121	C	-0.262834	1.184699	-1.046007
C122	C	0.237166	1.684699	-0.546007
C123	C	-0.262851	1.184686	-0.964028
C124	C	0.237149	1.684686	-0.464028
C125	C	-0.303116	1.134443	-0.923016
C126	C	0.196884	1.634443	-0.423016
C127	C	-0.303239	1.134337	-0.174224
C128	C	0.196761	1.634337	0.325776
C129	C	-0.303081	1.134469	-0.086974
C130	C	0.196919	1.634469	0.413026
H131	H	-0.230106	0.582677	-0.287285
H132	H	0.269894	1.082677	0.212715
O133	O	-0.223904	1.233516	-0.671349
O134	O	0.276096	1.733516	-0.171349
C135	C	-0.259752	1.284170	-0.623907
C136	C	0.240248	1.784170	-0.123907
H137	H	-0.309326	1.288991	-0.648592
H138	H	0.190674	1.788991	-0.148592
H139	H	-0.236984	1.344595	-0.622996
H140	H	0.263016	1.844595	-0.122996
H141	H	-0.261932	1.259887	-0.561772
H142	H	0.238068	1.759887	-0.061772
O143	O	-0.537777	1.035283	-0.477131
O144	O	-0.037777	1.535283	0.022869
C145	C	-0.553766	1.052414	-0.555388
C146	C	-0.053766	1.552414	-0.055388
H147	H	-0.601475	1.082612	-0.557056
H148	H	-0.101475	1.582612	-0.057056
H149	H	-0.556034	0.995743	-0.590535
H150	H	-0.056034	1.495743	-0.090535
H151	H	-0.516719	1.092740	-0.581852
H152	H	-0.016719	1.592740	-0.081852
O153	O	-0.382769	0.842002	-0.476828
O154	O	0.117231	1.342002	0.023172
C155	C	-0.423371	0.889394	-0.432043
C156	C	0.076629	1.389394	0.067957
H157	H	-0.427199	0.864661	-0.370212
H158	H	0.072801	1.364661	0.129788
H159	H	-0.471843	0.890306	-0.460325
H160	H	0.028157	1.390306	0.039675
H161	H	-0.403902	0.951535	-0.429379
H162	H	0.096098	1.451535	0.070621
O163	O	-0.223867	0.427454	-0.279369
O164	O	0.276133	0.927454	0.220631
C165	C	-0.259636	0.379958	-0.228599
C166	C	0.240364	0.879958	0.271401
H167	H	-0.309204	0.404636	-0.223586
H168	H	0.190796	0.904636	0.276414
H169	H	-0.236779	0.378985	-0.168259
H170	H	0.263221	0.878985	0.331741
H171	H	-0.261849	0.317848	-0.252896
H172	H	0.238151	0.817848	0.247104
O173	O	-0.382517	1.035477	-1.085678
O174	O	0.117483	1.535477	-0.585678
C175	C	-0.445267	1.052577	-1.065648
C176	C	0.054733	1.552577	-0.565648
H177	H	-0.446598	1.082734	-1.006127
H178	H	0.053402	1.582734	-0.506127
H179	H	-0.473483	0.995897	-1.062835
H180	H	0.026517	1.495897	-0.562835
H181	H	-0.466462	1.092928	-1.111784
H182	H	0.033538	1.592928	-0.611784
H183	H	-0.376138	1.043291	-0.930589
H184	H	0.123862	1.543291	-0.430589
O185	O	-0.938479	1.035388	-0.476991
O186	O	-0.438479	1.535388	0.023009
C187	C	-0.900527	0.984686	-0.432243
C188	C	-0.400527	1.484686	0.067757
H189	H	-0.890696	1.012402	-0.372778
H190	H	-0.390696	1.512402	0.127222
H191	H	-0.854285	0.974127	-0.464195
H192	H	-0.354285	1.474127	0.035805
H193	H	-0.925910	0.926530	-0.423570
H194	H	-0.425910	1.426530	0.076430
H195	H	-1.062958	1.225648	-0.287263
H196	H	-0.562958	1.725648	0.212737
H197	H	-0.376163	1.043288	-0.826470
H198	H	0.123837	1.543288	-0.326470
H199	H	-0.376389	0.433946	-0.469116
H200	H	0.123611	0.933946	0.030884
H201	H	-0.230106	0.686795	-0.287276
H202	H	0.269894	1.186795	0.212724
O203	O	-0.223761	1.233533	-0.832875
O204	O	0.276239	1.733533	-0.332875
C205	C	-0.188237	1.277850	-0.779137
C206	C	0.311763	1.777850	-0.279137
H207	H	-0.214035	1.280537	-0.720691
H208	H	0.285965	1.780537	-0.220691
H209	H	-0.181524	1.339707	-0.802838
H210	H	0.318476	1.839707	-0.302838
H211	H	-0.140426	1.249145	-0.770430
H212	H	0.359574	1.749145	-0.270430
H213	H	-0.943694	1.225583	-0.287224
H214	H	-0.443694	1.725583	0.212776
O215	O	-0.667378	1.035410	-0.477083
O216	O	-0.167378	1.535410	0.022917
C217	C	-0.705333	1.080090	-0.527842
C218	C	-0.205333	1.580090	-0.027842
H219	H	-0.715156	1.139597	-0.500212
H220	H	-0.215156	1.639597	-0.000212
H221	H	-0.751579	1.048130	-0.538341
H222	H	-0.251579	1.548130	-0.038341
H223	H	-0.679958	1.088671	-0.586017
H224	H	-0.179958	1.588671	-0.086017
H225	H	-0.376375	0.686803	-0.469086
H226	H	0.123625	1.186803	0.030914
H227	H	-0.230095	0.835527	-0.287258
H228	H	0.269905	1.335527	0.212742
H229	H	-1.062985	1.043384	-0.469255
H230	H	-0.562985	1.543384	0.030745
H231	H	-0.376194	1.043255	-0.677738
H232	H	0.123806	1.543255	-0.177738
O233	O	-0.223700	1.233500	-0.924352
O234	O	0.276300	1.733500	-0.424352
C235	C	-0.188168	1.277862	-0.978127
C236	C	0.311832	1.777862	-0.478127
H237	H	-0.185971	1.245724	-1.036562
H238	H	0.314029	1.745724	-0.536562
H239	H	-0.138578	1.286269	-0.954458
H240	H	0.361422	1.786269	-0.454458
H241	H	-0.211222	1.337463	-0.986846
H242	H	0.288778	1.837463	-0.486846
H243	H	-0.230048	1.225607	-1.079403
H244	H	0.269952	1.725607	-0.579403
O245	O	-0.537783	1.233359	-0.279234
O246	O	-0.037783	1.733359	0.220766
C247	C	-0.580890	1.277697	-0.234962
C248	C	-0.080890	1.777697	0.265038
H249	H	-0.627732	1.280412	-0.267125
H250	H	-0.127732	1.780412	0.232875
H251	H	-0.561859	1.339543	-0.226645
H252	H	-0.061859	1.839543	0.273355
H253	H	-0.587935	1.248992	-0.175319
H254	H	-0.087935	1.748992	0.324681
H255	H	-0.662120	1.225453	-0.287167
H256	H	-0.162120	1.725453	0.212833
O257	O	-0.382736	0.589001	-0.477042
O258	O	0.117264	1.089001	0.022958
C259	C	-0.418331	0.535246	-0.521262
C260	C	0.081669	1.035246	-0.021262
H261	H	-0.392555	0.476823	-0.524050
H262	H	0.107445	0.976823	-0.024050
H263	H	-0.425108	0.558960	-0.583090
H264	H	0.074892	1.058960	-0.083090
H265	H	-0.466110	0.526488	-0.492406
H266	H	0.033890	1.026488	0.007594
