data_functionalizedCrystal
_audit_creation_method	'MofGen! by Chris Wilmer'
_symmetry_space_group_name_H-M	'P1'
_symmetry_Int_Tables_number	1
_symmetry_cell_setting	triclinic
loop_
_symmetry_equiv_pos_as_xyz
  x,y,z
_cell_length_a	10.723024
_cell_length_b	23.532407
_cell_length_c	9.798715
_cell_angle_alpha	89.992208
_cell_angle_beta	89.996609
_cell_angle_gamma	83.658273
loop_
_atom_site_label
_atom_site_type_symbol
_atom_site_fract_x
_atom_site_fract_y
_atom_site_fract_z
O1	O	1.654699	0.079871	-0.113498
O2	O	1.291309	0.087516	-0.113504
O3	O	1.483962	0.000833	-0.113476
O4	O	1.462046	0.166554	-0.113526
O5	O	1.483948	0.000833	0.113507
O6	O	1.291294	0.087516	0.113478
O7	O	1.654685	0.079871	0.113484
Zn8	Zn	1.472987	0.083693	0.149520
Zn9	Zn	1.473006	0.083693	-0.149539
O10	O	1.462032	0.166554	0.113456
C11	C	1.244819	0.086960	-0.000013
C12	C	1.106317	0.085295	-0.000014
C13	C	1.483397	-0.020387	0.000019
C14	C	1.481719	-0.083615	0.000029
C15	C	0.916170	0.033588	-0.000001
C16	C	1.059320	0.035308	0.000000
C17	C	1.585203	-0.482046	-0.000044
C18	C	1.583644	-0.541457	-0.000054
O19	O	1.679575	-0.577579	-0.000103
N20	N	1.469112	-0.564826	-0.000055
C21	C	1.356131	-0.528782	-0.000059
O22	O	1.258569	-0.554114	-0.000062
C23	C	1.357691	-0.469373	-0.000059
C24	C	1.472230	-0.446007	-0.000044
C25	C	1.699733	-0.458680	-0.000030
C26	C	1.701291	-0.399274	-0.000017
C27	C	1.588319	-0.363234	-0.000018
C28	C	1.473789	-0.386600	-0.000031
C29	C	1.244711	-0.433329	-0.000073
C30	C	1.246281	-0.373917	-0.000073
C31	C	1.360821	-0.350551	-0.000059
C32	C	1.362374	-0.291154	-0.000018
N33	N	1.476907	-0.267785	-0.000018
C34	C	1.589879	-0.303825	-0.000017
C35	C	1.352863	-0.653545	-0.000063
C36	C	1.351302	-0.712953	-0.000054
C37	C	1.578816	-0.725625	-0.000051
C38	C	1.580376	-0.666215	-0.000051
C39	C	1.467395	-0.630176	-0.000062
C40	C	1.593143	-0.179067	0.000011
C41	C	1.594691	-0.119655	0.000030
C42	C	1.367178	-0.106989	0.000020
C43	C	1.365629	-0.166396	0.000008
C44	C	1.478622	-0.202434	-0.000001
O45	O	1.266494	-0.254997	0.000025
O46	O	1.687425	-0.278484	-0.000032
C47	C	1.701174	0.080427	-0.000009
C48	C	1.839677	0.082092	-0.000017
C49	C	1.462597	0.187774	-0.000041
C50	C	1.464275	0.251001	-0.000061
N51	N	1.472984	0.083693	0.353619
N52	N	1.473020	0.083689	-0.353639
C53	C	1.553878	0.047136	0.421408
C54	C	1.553899	0.047134	0.578571
H55	H	0.875681	-0.009210	0.000032
N56	N	1.824826	-0.374072	-0.000036
H57	H	1.830558	-0.349710	0.084104
H58	H	1.896079	-0.405954	-0.000097
N59	N	1.381261	0.125150	0.430852
H60	H	1.327271	0.149545	0.364021
H61	H	1.326283	0.103167	0.490152
H62	H	1.154276	-0.344576	-0.000085
H63	H	1.623117	0.015838	0.363096
H64	H	1.272361	-0.185421	0.000034
H65	H	1.623161	0.015839	0.636866
N66	N	1.146373	-0.019697	0.000034
H67	H	1.095335	-0.053292	0.000046
H68	H	1.201047	-0.021276	-0.084109
N69	N	1.381263	0.125145	0.569160
H70	H	1.327290	0.149539	0.636000
H71	H	1.428924	0.150431	0.509854
H72	H	1.685152	-0.208403	-0.000001
N73	N	1.019250	0.140295	0.000005
H74	H	1.035047	0.163227	0.084153
H75	H	1.035067	0.163203	-0.084188
N76	N	1.245334	-0.068112	0.000056
H77	H	1.263711	-0.026932	0.000070
H78	H	1.195376	-0.075714	-0.084086
H79	H	0.880165	0.124890	-0.000021
N80	N	1.227755	-0.738145	-0.000055
H81	H	1.222031	-0.762504	-0.084201
H82	H	1.222096	-0.762488	0.084139
H83	H	1.791734	-0.488018	-0.000035
N84	N	1.718234	-0.094453	0.000053
H85	H	1.789562	-0.126303	0.000048
H86	H	1.723848	-0.070072	-0.084085
N87	N	1.703912	-0.641016	-0.000034
H88	H	1.775237	-0.672867	-0.000029
H89	H	1.709530	-0.616639	-0.084180
N90	N	1.700669	-0.764502	-0.000051
H91	H	1.682291	-0.805682	-0.000058
H92	H	1.750622	-0.756882	-0.084195
N93	N	1.230998	-0.614676	-0.000064
H94	H	1.158214	-0.638500	-0.000062
H95	H	1.226680	-0.589756	0.084083
N96	N	1.121171	-0.458521	-0.000072
H97	H	1.049852	-0.426668	-0.000074
H98	H	1.115561	-0.482889	-0.084217
