data_functionalizedCrystal
_audit_creation_method	'MofGen! by Chris Wilmer'
_symmetry_space_group_name_H-M	'P1'
_symmetry_Int_Tables_number	1
_symmetry_cell_setting	triclinic
loop_
_symmetry_equiv_pos_as_xyz
  x,y,z
_cell_length_a	19.188930
_cell_length_b	23.532407
_cell_length_c	18.266242
_cell_angle_alpha	89.988983
_cell_angle_beta	89.977082
_cell_angle_gamma	82.996728
loop_
_atom_site_label
_atom_site_type_symbol
_atom_site_fract_x
_atom_site_fract_y
_atom_site_fract_z
O1	O	0.925922	0.071102	-0.061124
O2	O	0.722581	0.080673	-0.061074
O3	O	0.830383	-0.007031	-0.061087
O4	O	0.818120	0.158806	-0.061111
O5	O	0.830365	-0.007035	0.060675
O6	O	0.722562	0.080669	0.060688
O7	O	0.925904	0.071097	0.060638
Zn8	Zn	0.824230	0.075882	0.079995
Zn9	Zn	0.824254	0.075888	-0.080431
O10	O	0.818102	0.158802	0.060651
C11	C	0.696561	0.080361	-0.000187
C12	C	0.619060	0.079431	-0.000168
C13	C	0.573972	0.130893	-0.000187
C14	C	0.501151	0.130019	-0.000194
C15	C	0.473421	0.077680	-0.000198
C16	C	0.518519	0.026211	-0.000175
C17	C	0.591339	0.027086	-0.000160
N18	N	0.365575	0.037674	-0.041663
N19	N	0.296399	0.036846	-0.041679
C20	C	0.254021	0.075038	-0.000243
N21	N	0.283431	0.114099	0.041201
N22	N	0.352613	0.114929	0.041214
C23	C	0.394462	0.076724	-0.000214
C24	C	0.129971	0.125556	-0.000269
C25	C	0.057149	0.124680	-0.000272
C26	C	0.074520	0.020870	-0.000260
C27	C	0.147340	0.021748	-0.000250
C28	C	0.175061	0.074092	-0.000257
C29	C	0.830062	-0.028250	-0.000204
C30	C	0.829123	-0.091469	-0.000198
C31	C	0.887029	-0.490449	-0.000252
C32	C	0.886157	-0.549851	-0.000258
O33	O	0.939837	-0.586482	-0.000298
N34	N	0.822068	-0.572613	-0.000242
C35	C	0.758848	-0.535970	-0.000228
O36	O	0.704255	-0.560786	-0.000215
C37	C	0.759721	-0.476569	-0.000228
C38	C	0.823814	-0.453810	-0.000236
C39	C	0.951117	-0.467690	-0.000262
C40	C	0.951989	-0.408292	-0.000255
C41	C	0.888773	-0.371653	-0.000239
C42	C	0.824685	-0.394412	-0.000230
C43	C	0.696501	-0.439927	-0.000219
C44	C	0.697379	-0.380523	-0.000219
C45	C	0.761472	-0.357764	-0.000228
C46	C	0.762342	-0.298376	-0.000207
N47	N	0.826430	-0.275614	-0.000223
C48	C	0.889646	-0.312252	-0.000239
C49	C	0.757019	-0.660717	-0.000229
C50	C	0.756146	-0.720116	-0.000224
C51	C	0.883455	-0.733993	-0.000256
C52	C	0.884328	-0.674592	-0.000255
C53	C	0.821108	-0.637954	-0.000245
C54	C	0.891472	-0.187512	-0.000224
C55	C	0.892339	-0.128108	-0.000214
C56	C	0.765029	-0.114236	-0.000187
C57	C	0.764163	-0.173634	-0.000193
C58	C	0.827390	-0.210272	-0.000214
O59	O	0.708690	-0.261710	-0.000170
O60	O	0.944230	-0.287428	-0.000261
C61	C	0.951923	0.071410	-0.000251
C62	C	1.029425	0.072340	-0.000275
C63	C	0.818423	0.180021	-0.000234
C64	C	0.819362	0.243240	-0.000244
N65	N	0.824219	0.075878	0.189482
N66	N	0.824271	0.075888	-0.189918
C67	C	0.871970	0.037062	0.227785
C68	C	0.871974	0.037059	0.304430
C69	C	0.824235	0.075883	0.342769
C70	C	0.776475	0.114702	0.304457
C71	C	0.776468	0.114700	0.227813
N72	N	0.814998	0.126298	0.463096
N73	N	0.815010	0.126298	0.535904
C74	C	0.824254	0.075891	0.573691
N75	N	0.833500	0.025481	0.535921
N76	N	0.833492	0.025482	0.463106
C77	C	0.824238	0.075889	0.425876
C78	C	0.872012	0.037068	0.695102
C79	C	0.872012	0.037065	0.771748
C80	C	0.776516	0.114713	0.771773
C81	C	0.776513	0.114711	0.695128
C82	C	0.824265	0.075890	0.656797
H83	H	0.051943	-0.021745	-0.000309
O84	O	0.952936	-0.223038	-0.000339
C85	C	0.991876	-0.212738	-0.063415
H86	H	0.974405	-0.167634	-0.084433
H87	H	0.982578	-0.245202	-0.107573
C88	C	1.092030	-0.273959	-0.018455
C89	C	1.070577	-0.218560	-0.044267
H90	H	1.140577	-0.277553	-0.006646
H91	H	1.065795	-0.280900	0.024039
H92	H	1.084276	-0.301007	-0.055258
H93	H	1.078323	-0.191514	-0.007461
H94	H	1.096815	-0.211614	-0.086755
O95	O	0.730006	0.152359	0.341664
C96	C	0.660956	0.143245	0.322964
H97	H	0.660935	0.097648	0.301908
H98	H	0.640221	0.174852	0.278477
C99	C	0.613597	0.208194	0.416933
C100	C	0.613569	0.152188	0.391078
H101	H	0.584365	0.213712	0.458948
H102	H	0.660116	0.214335	0.429530
H103	H	0.596319	0.234526	0.379855
H104	H	0.630855	0.125857	0.428153
H105	H	0.567052	0.146042	0.378489
H106	H	0.495937	-0.016404	-0.000188
H107	H	0.184052	-0.020158	-0.000238
O108	O	0.730231	0.152449	0.657837
C109	C	0.767374	0.187517	0.613490
H110	H	0.822162	0.164721	0.601985
H111	H	0.771830	0.229598	0.643016
C112	C	0.660628	0.227771	0.554835
C113	C	0.727918	0.199770	0.540699
H114	H	0.636288	0.235332	0.509936
H115	H	0.635603	0.204147	0.584715
H116	H	0.664350	0.262835	0.579442
H117	H	0.724194	0.164704	0.516101
H118	H	0.752941	0.223389	0.510814
H119	H	0.910850	0.005449	0.196579
H120	H	0.464433	0.171927	-0.000208
O121	O	0.918426	-0.000673	0.341535
C122	C	0.960554	-0.034951	0.291268
H123	H	0.961178	-0.011605	0.236626
H124	H	0.938178	-0.077213	0.283141
C125	C	1.035185	-0.075516	0.388263
C126	C	1.035958	-0.046840	0.321152
H127	H	1.081697	-0.082852	0.406697
H128	H	1.006802	-0.052424	0.422129
H129	H	1.016536	-0.110731	0.381481
H130	H	1.054598	-0.011623	0.327936
H131	H	1.064346	-0.069926	0.287287
O132	O	0.730152	0.152490	0.190636
C133	C	0.741096	0.208844	0.209359
H134	H	0.796993	0.209010	0.230401
H135	H	0.702284	0.225650	0.253861
C136	C	0.661321	0.247274	0.115425
C137	C	0.729976	0.247479	0.141264
H138	H	0.654458	0.271107	0.073423
H139	H	0.653945	0.209307	0.102812
H140	H	0.628985	0.261278	0.152517
H141	H	0.762310	0.233469	0.104176
H142	H	0.737357	0.285444	0.153869
O143	O	0.918417	-0.000700	0.657975
C144	C	0.960572	-0.034958	0.708223
H145	H	0.931956	-0.035543	0.762871
H146	H	1.012308	-0.016571	0.716344
C147	C	1.010535	-0.095707	0.611199
C148	C	0.975385	-0.096429	0.678317
H149	H	1.019676	-0.133625	0.592751
H150	H	0.982137	-0.072626	0.577345
H151	H	1.053645	-0.080382	0.617975
H152	H	0.932273	-0.111747	0.671538
H153	H	1.003777	-0.119514	0.712169
O154	O	0.918304	-0.000701	0.808990
C155	C	0.881169	-0.035756	0.853365
H156	H	0.826115	-0.036612	0.830296
H157	H	0.877388	-0.017926	0.911449
C158	C	0.987702	-0.095929	0.882870
C159	C	0.920085	-0.096984	0.854533
H160	H	1.011707	-0.133696	0.883594
H161	H	1.012721	-0.072310	0.852976
H162	H	0.984541	-0.081068	0.931271
H163	H	0.923246	-0.111838	0.806130
H164	H	0.895067	-0.120606	0.884419
O165	O	0.730207	0.152404	0.809119
C166	C	0.740438	0.144072	0.884981
H167	H	0.796095	0.122676	0.895428
H168	H	0.701124	0.115585	0.906758
C169	C	0.661176	0.228631	0.911490
C170	C	0.729538	0.202357	0.924321
H171	H	0.654449	0.264583	0.935758
H172	H	0.654281	0.234244	0.860381
H173	H	0.628422	0.204886	0.929637
H174	H	0.762290	0.226098	0.906166
H175	H	0.736438	0.196749	0.975429
O176	O	0.156824	0.176435	-0.000365
C177	C	0.133796	0.207797	-0.063440
H178	H	0.083403	0.192407	-0.084472
H179	H	0.176006	0.201097	-0.107591
C180	C	0.181588	0.290797	-0.018455
C181	C	0.119691	0.271898	-0.044284
H182	H	0.172890	0.330338	-0.006641
H183	H	0.197105	0.269668	0.024039
H184	H	0.216757	0.285208	-0.055252
H185	H	0.084526	0.277480	-0.007484
H186	H	0.104167	0.293029	-0.086771
H187	H	0.596537	0.173516	-0.000194
H188	H	0.944533	-0.109581	-0.000220
H189	H	0.628050	-0.014822	-0.000145
H190	H	0.020438	0.166588	-0.000284
H191	H	1.004180	-0.389768	-0.000265
H192	H	1.002598	-0.497516	-0.000278
O193	O	0.946605	-0.652514	-0.000401
C194	C	0.985129	-0.671260	-0.063462
H195	H	0.947648	-0.683521	-0.107528
H196	H	1.024306	-0.710071	-0.049212
C197	C	1.070953	-0.607687	-0.037948
C198	C	1.024918	-0.622742	-0.092073
H199	H	1.095500	-0.577760	-0.055596
H200	H	1.045001	-0.595059	0.004539
H201	H	1.103594	-0.640034	-0.026078
H202	H	0.992273	-0.590397	-0.103935
H203	H	1.050866	-0.635363	-0.134563
H204	H	0.703955	-0.738641	-0.000205
O205	O	0.695539	-0.625209	-0.000177
C206	C	0.638792	-0.658044	-0.000180
H207	H	0.656836	-0.702424	0.022865
H208	H	0.619134	-0.662220	-0.058590
C209	C	0.556822	-0.573810	0.019284
C210	C	0.578983	-0.628317	0.047594
H211	H	0.519928	-0.555473	0.048751
H212	H	0.595053	-0.551688	0.019284
H213	H	0.540445	-0.577298	-0.029390
H214	H	0.595367	-0.624828	0.096264
H215	H	0.540754	-0.650438	0.047604
H216	H	0.934929	-0.763836	-0.000272
H217	H	0.644310	-0.458446	-0.000216
H218	H	0.645897	-0.350694	-0.000212
H219	H	0.711973	-0.192165	-0.000165
H220	H	0.713561	-0.084394	-0.000171
