data_functionalizedCrystal
_audit_creation_method	'MofGen! by Chris Wilmer'
_symmetry_space_group_name_H-M	'P1'
_symmetry_Int_Tables_number	1
_symmetry_cell_setting	triclinic
loop_
_symmetry_equiv_pos_as_xyz
  x,y,z
_cell_length_a	12.594517
_cell_length_b	18.215406
_cell_length_c	18.215399
_cell_angle_alpha	89.984834
_cell_angle_beta	89.989849
_cell_angle_gamma	89.996684
loop_
_atom_site_label
_atom_site_type_symbol
_atom_site_fract_x
_atom_site_fract_y
_atom_site_fract_z
Zn1	Zn	1.627366	-0.293073	-0.415991
Zn2	Zn	2.127366	0.206927	0.084009
Zn3	Zn	1.627308	-0.416144	-0.292952
Zn4	Zn	2.127308	0.083856	0.207048
Zn5	Zn	1.449374	-0.293087	-0.292959
Zn6	Zn	1.949374	0.206913	0.207041
Zn7	Zn	1.449399	-0.416093	-0.415998
Zn8	Zn	1.949399	0.083907	0.084002
O9	O	1.538362	-0.354599	-0.354475
O10	O	2.038362	0.145401	0.145525
O11	O	1.776304	-0.309414	-0.399664
O12	O	2.276304	0.190586	0.100336
O13	O	1.603670	-0.399847	-0.189969
O14	O	2.103670	0.100153	0.310031
O15	O	1.472998	-0.190101	-0.309280
O16	O	1.972998	0.309899	0.190720
O17	O	1.776262	-0.399833	-0.309268
O18	O	2.276262	0.100167	0.190732
O19	O	1.603768	-0.190090	-0.399671
O20	O	2.103768	0.309910	0.100329
O21	O	1.472942	-0.309438	-0.189974
O22	O	1.972942	0.190562	0.310026
O23	O	1.300431	-0.309389	-0.309286
O24	O	1.800431	0.190611	0.190714
O25	O	1.473042	-0.399747	-0.518981
O26	O	1.973042	0.100253	-0.018981
O27	O	1.300450	-0.399761	-0.399682
O28	O	1.800450	0.100239	0.100318
O29	O	1.603793	-0.309364	-0.518976
O30	O	2.103793	0.190636	-0.018976
O31	O	1.603695	-0.519121	-0.309275
O32	O	2.103695	-0.019121	0.190725
O33	O	1.472986	-0.519084	-0.399676
O34	O	1.972986	-0.019084	0.100324
C35	C	1.261821	-0.354571	-0.354486
C36	C	1.761821	0.145429	0.145514
C37	C	1.143515	-0.354577	-0.354509
C38	C	1.643515	0.145423	0.145491
C39	C	1.074303	-0.403827	-0.403580
C40	C	1.574303	0.096173	0.096420
C41	C	1.003468	-0.336728	-0.421670
C42	C	1.503468	0.163272	0.078330
C43	C	1.003551	-0.421731	-0.336403
C44	C	1.503551	0.078269	0.163597
C45	C	1.074239	-0.287443	-0.372633
C46	C	1.574239	0.212557	0.127367
C47	C	1.074328	-0.372491	-0.287335
C48	C	1.574328	0.127509	0.212665
C49	C	1.003525	-0.305346	-0.305399
C50	C	1.503525	0.194654	0.194601
C51	C	1.538366	-0.545805	-0.354491
C52	C	2.038366	-0.045805	0.145509
C53	C	1.538465	-0.627604	-0.354523
C54	C	2.038465	-0.127604	0.145477
C55	C	1.538427	-0.354548	-0.546428
C56	C	2.038427	0.145452	-0.046428
C57	C	1.538454	-0.354527	-0.628227
C58	C	2.038454	0.145473	-0.128227
C59	C	1.815983	-0.354628	-0.354464
C60	C	2.315983	0.145372	0.145536
C61	C	1.934288	-0.354640	-0.354460
C62	C	2.434288	0.145360	0.145540
C63	C	1.538387	-0.162646	-0.354475
C64	C	2.038387	0.337354	0.145525
C65	C	1.538398	-0.080847	-0.354475
C66	C	2.038398	0.419153	0.145525
C67	C	1.470339	0.107342	-0.307435
C68	C	1.970339	0.607342	0.192565
C69	C	1.470348	0.184201	-0.307444
C70	C	1.970348	0.684201	0.192556
C71	C	1.606526	0.184201	-0.401568
C72	C	2.106526	0.684201	0.098432
C73	C	1.606511	0.107343	-0.401562
C74	C	2.106511	0.607343	0.098438
C75	C	1.538419	0.068916	-0.354492
C76	C	2.038419	0.568916	0.145508
C77	C	1.538443	0.222632	-0.354506
C78	C	2.038443	0.722632	0.145494
C79	C	1.538453	0.305966	-0.354516
C80	C	2.038453	0.805966	0.145484
C81	C	1.538408	-0.014423	-0.354482
C82	C	2.038408	0.485577	0.145518
C83	C	1.606561	-0.307421	-0.816420
C84	C	2.106561	0.192579	-0.316420
C85	C	1.606574	-0.307399	-0.893278
C86	C	2.106574	0.192601	-0.393278
C87	C	1.470423	-0.401519	-0.893272
C88	C	1.970423	0.098481	-0.393272
C89	C	1.470406	-0.401536	-0.816415
C90	C	1.970406	0.098464	-0.316415
C91	C	1.538481	-0.354488	-0.777991
C92	C	2.038481	0.145512	-0.277991
C93	C	1.538511	-0.354449	-0.931707
C94	C	2.038511	0.145551	-0.431707
C95	C	1.538524	-0.354427	-1.015041
C96	C	2.038524	0.145573	-0.515041
C97	C	1.538466	-0.354510	-0.694652
C98	C	2.038466	0.145490	-0.194652
C99	C	1.538358	-0.354597	-0.163269
C100	C	2.038358	0.145403	0.336731
C101	C	1.538537	-0.354411	-0.081470
C102	C	2.038537	0.145589	0.418530
H103	H	0.972644	-0.263676	-0.263881
H104	H	1.472644	0.236324	0.236119
O105	O	0.962437	-0.496926	-0.316144
O106	O	1.462437	0.003074	0.183856
H107	H	0.874316	-0.496144	-0.315802
H108	H	1.374316	0.003856	0.184198
O109	O	1.397002	-0.452264	-0.934715
O110	O	1.897002	0.047736	-0.434715
H111	H	1.408456	-0.444350	-0.994615
H112	H	1.908456	0.055650	-0.494615
H113	H	1.414892	0.076057	-0.269109
H114	H	1.914892	0.576057	0.230891
H115	H	1.105476	-0.387640	-0.230565
H116	H	1.605476	0.112360	0.269435
O117	O	1.679941	0.065895	-0.452324
O118	O	2.179941	0.565895	0.047676
H119	H	1.668479	0.005996	-0.444418
H120	H	2.168479	0.505996	0.055582
H121	H	1.661989	-0.269109	-0.785137
H122	H	2.161989	0.230891	-0.285137
H123	H	1.414910	0.215486	-0.269128
H124	H	1.914910	0.715486	0.230872
O125	O	1.396942	-0.452283	-0.774958
O126	O	1.896942	0.047717	-0.274958
H127	H	1.349608	-0.484995	-0.814587
H128	H	1.849608	0.015005	-0.314587
H129	H	1.661966	0.215496	-0.439891
H130	H	2.161966	0.715496	0.060109
H131	H	1.105383	-0.445395	-0.445131
H132	H	1.605383	0.054605	0.054869
H133	H	1.662010	-0.269071	-0.924564
H134	H	2.162010	0.230929	-0.424564
H135	H	1.105160	-0.230662	-0.387991
H136	H	1.605160	0.269338	0.112009
O137	O	0.962065	-0.316759	-0.496862
O138	O	1.462065	0.183241	0.003138
H139	H	0.990344	-0.357720	-0.537511
H140	H	1.490344	0.142280	-0.037511
