data_functionalizedCrystal
_audit_creation_method	'MofGen! by Chris Wilmer'
_symmetry_space_group_name_H-M	'P1'
_symmetry_Int_Tables_number	1
_symmetry_cell_setting	triclinic
loop_
_symmetry_equiv_pos_as_xyz
  x,y,z
_cell_length_a	13.033286
_cell_length_b	13.897448
_cell_length_c	13.032268
_cell_angle_alpha	82.849629
_cell_angle_beta	105.163409
_cell_angle_gamma	97.150608
loop_
_atom_site_label
_atom_site_type_symbol
_atom_site_fract_x
_atom_site_fract_y
_atom_site_fract_z
Zn1	Zn	1.547440	0.611380	-0.393929
Zn2	Zn	1.569888	0.754515	-0.216339
Zn3	Zn	1.392392	0.575097	-0.238937
Zn4	Zn	1.369803	0.754477	-0.416493
O5	O	1.469881	0.673867	-0.316424
O6	O	1.699043	0.645568	-0.351471
O7	O	1.565191	0.715546	-0.070707
O8	O	1.413019	0.444937	-0.259511
O9	O	1.715535	0.750728	-0.220996
O10	O	1.526932	0.471594	-0.373383
O11	O	1.434786	0.583729	-0.087310
O12	O	1.240771	0.583692	-0.281391
O13	O	1.374518	0.750663	-0.562129
O14	O	1.224175	0.715481	-0.411840
O15	O	1.505028	0.645531	-0.545552
O16	O	1.543287	0.889483	-0.242875
O17	O	1.396285	0.889455	-0.389927
C18	C	1.193936	0.645646	-0.351517
C19	C	1.075882	0.633599	-0.366554
C20	C	1.031423	0.680158	-0.308602
C21	C	0.909409	0.667707	-0.324143
C22	C	1.469797	0.924471	-0.316417
C23	C	1.469853	1.031694	-0.316437
C24	C	1.469948	1.228007	-0.316500
C25	C	1.469892	1.118765	-0.316469
C26	C	1.746903	0.702199	-0.281196
C27	C	1.864954	0.714273	-0.266183
C28	C	1.434750	0.702140	-0.593456
C29	C	1.419779	0.714189	-0.711511
C30	C	1.469981	1.422291	-0.316465
C31	C	1.469996	1.315085	-0.316517
C32	C	1.477678	0.667543	-0.755941
C33	C	1.462206	0.679994	-0.877956
C34	C	1.504937	0.645641	-0.040462
C35	C	1.520113	0.633342	0.077618
H36	H	0.917215	0.763363	-0.205067
Cl37	Cl	1.112112	0.755939	-0.214239
H38	H	0.857144	0.618629	-0.385271
Cl39	Cl	0.995193	0.557829	-0.460929
H40	H	1.581136	0.584179	-0.870095
Cl41	Cl	1.571871	0.591624	-0.675216
H42	H	1.401171	0.729144	-0.930247
Cl43	Cl	1.325554	0.790074	-0.792239
