data_functionalizedCrystal
_audit_creation_method	'MofGen! by Chris Wilmer'
_symmetry_space_group_name_H-M	'P1'
_symmetry_Int_Tables_number	1
_symmetry_cell_setting	triclinic
loop_
_symmetry_equiv_pos_as_xyz
  x,y,z
_cell_length_a	10.908937
_cell_length_b	11.026607
_cell_length_c	10.065875
_cell_angle_alpha	100.731764
_cell_angle_beta	83.441416
_cell_angle_gamma	84.335986
loop_
_atom_site_label
_atom_site_type_symbol
_atom_site_fract_x
_atom_site_fract_y
_atom_site_fract_z
O1	O	1.676465	-0.199731	-0.113536
O2	O	2.176465	0.300269	0.386464
O3	O	1.323532	-0.109193	-0.113528
O4	O	1.823532	0.390807	0.386472
O5	O	1.470747	-0.325212	-0.113527
O6	O	1.970747	0.174788	0.386473
O7	O	1.529250	0.016287	-0.113538
O8	O	2.029250	0.516287	0.386462
O9	O	1.442706	-0.283884	0.113462
O10	O	1.942706	0.216116	0.613462
O11	O	1.295491	-0.067865	0.113460
O12	O	1.795491	0.432135	0.613460
O13	O	1.648424	-0.158403	0.113453
O14	O	2.148424	0.341597	0.613453
Zn15	Zn	1.467506	-0.106573	0.149496
Zn16	Zn	1.967506	0.393427	0.649496
Zn17	Zn	1.504450	-0.161024	-0.149571
Zn18	Zn	2.004450	0.338976	0.350429
O19	O	1.501209	0.057615	0.113451
O20	O	2.001209	0.557615	0.613451
C21	C	1.263626	-0.080068	-0.000033
C22	C	1.763626	0.419932	0.499967
C23	C	1.126899	-0.054871	-0.000030
C24	C	1.626899	0.445129	0.499970
C25	C	0.915324	-0.120785	-0.000053
C26	C	1.415324	0.379215	0.499947
C27	C	1.056636	-0.146827	-0.000035
C28	C	1.556636	0.353173	0.499965
C29	C	1.445934	-0.347581	-0.000034
C30	C	1.945934	0.152419	0.499966
C31	C	1.413762	-0.475803	-0.000038
C32	C	1.913762	0.024197	0.499962
C33	C	1.502597	-0.567536	-0.000042
C34	C	2.002597	-0.067536	0.499958
C35	C	1.469347	-0.700062	-0.000046
C36	C	1.969347	-0.200062	0.499954
C37	C	1.708330	-0.187529	-0.000046
C38	C	2.208330	0.312471	0.499954
C39	C	1.845059	-0.212728	-0.000057
C40	C	2.345059	0.287272	0.499943
C41	C	1.526022	0.079984	-0.000045
C42	C	2.026022	0.579984	0.499955
C43	C	1.558195	0.208204	-0.000050
C44	C	2.058195	0.708204	0.499950
N45	N	1.442301	-0.069414	0.353601
N46	N	1.942301	0.430586	0.853601
N47	N	1.529663	-0.198194	-0.353677
N48	N	2.029663	0.301806	0.146323
C49	C	1.495671	-0.148101	0.421380
C50	C	1.995671	0.351899	0.921380
C51	C	1.476284	-0.119495	0.578547
C52	C	1.976284	0.380505	1.078547
H53	H	1.082445	0.043131	-0.000043
H54	H	1.582445	0.543131	0.499957
H55	H	1.382250	0.019128	0.411926
H56	H	1.882250	0.519128	0.911926
H57	H	1.416230	-0.030948	0.636867
H58	H	1.916230	0.469052	1.136867
F59	F	1.573890	-0.263999	0.345151
F60	F	2.073890	0.236001	0.845151
H61	H	1.313093	-0.495381	-0.000045
H62	H	1.813093	0.004619	0.499955
H63	H	0.870864	-0.022791	-0.000070
H64	H	1.370864	0.477209	0.499930
H65	H	1.589706	-0.286749	0.588003
H66	H	2.089706	0.213251	1.088003
F67	F	1.114738	-0.274926	-0.000033
F68	F	1.614738	0.225074	0.499967
F69	F	1.689790	-0.766227	-0.000059
F70	F	2.189790	-0.266227	0.499941
H71	H	0.889521	-0.310725	-0.000057
H72	H	1.389521	0.189275	0.499943
F73	F	1.634184	-0.541958	-0.000052
F74	F	2.134184	-0.041958	0.499948
F75	F	1.337756	-0.725637	-0.000056
F76	F	1.837756	-0.225637	0.499944
