data_functionalizedCrystal
_audit_creation_method	'MofGen! by Chris Wilmer'
_symmetry_space_group_name_H-M	'P1'
_symmetry_Int_Tables_number	1
_symmetry_cell_setting	triclinic
loop_
_symmetry_equiv_pos_as_xyz
  x,y,z
_cell_length_a	16.120490
_cell_length_b	12.759394
_cell_length_c	12.759387
_cell_angle_alpha	89.968340
_cell_angle_beta	87.081216
_cell_angle_gamma	87.107313
loop_
_atom_site_label
_atom_site_type_symbol
_atom_site_fract_x
_atom_site_fract_y
_atom_site_fract_z
Zn1	Zn	1.274641	-0.499852	-0.675381
Zn2	Zn	1.274554	-0.675564	-0.499694
Zn3	Zn	1.135215	-0.490974	-0.490816
Zn4	Zn	1.135208	-0.666559	-0.666436
O5	O	1.204905	-0.583237	-0.583082
O6	O	1.391297	-0.530644	-0.659535
O7	O	1.256037	-0.651130	-0.351493
O8	O	1.153749	-0.345133	-0.515328
O9	O	1.391233	-0.659739	-0.530458
O10	O	1.256185	-0.351656	-0.650927
O11	O	1.153665	-0.515514	-0.344970
O12	O	1.018546	-0.506782	-0.506654
O13	O	1.153738	-0.644392	-0.814646
O14	O	1.018542	-0.635783	-0.635681
O15	O	1.256179	-0.521913	-0.821218
O16	O	1.256031	-0.821388	-0.521784
O17	O	1.153654	-0.814772	-0.644289
C18	C	1.204855	-0.856202	-0.583053
C19	C	1.204910	-0.972982	-0.583081
C20	C	0.988293	-0.569343	-0.569234
C21	C	0.895626	-0.563424	-0.563334
C22	C	1.311595	-0.979822	-0.455622
C23	C	1.364959	-1.038105	-0.391907
C24	C	1.365008	-1.147830	-0.391939
C25	C	1.311688	-1.199274	-0.455695
C26	C	1.258324	-1.140992	-0.519410
C27	C	1.258279	-1.031265	-0.519370
C28	C	1.151644	-1.134151	-0.646873
C29	C	1.151590	-1.024426	-0.646837
C30	C	1.098325	-1.185596	-0.710629
C31	C	1.044955	-1.127313	-0.774341
C32	C	1.044908	-1.017582	-0.774306
C33	C	1.098226	-0.966144	-0.710553
C34	C	0.684693	-0.613930	-0.613685
C35	C	0.725967	-0.552628	-0.552562
C36	C	0.820374	-0.558637	-0.558557
C37	C	0.590278	-0.607923	-0.607690
C38	C	1.422362	-0.597186	-0.596985
C39	C	1.515029	-0.603131	-0.602909
C40	C	1.204968	-0.583138	-0.857119
C41	C	1.204994	-0.583096	-0.973898
C42	C	1.204978	-0.309209	-0.583135
C43	C	1.205009	-0.192434	-0.583158
C44	C	1.311674	-0.455568	-0.980762
C45	C	1.365025	-0.391789	-1.039055
C46	C	1.365045	-0.391752	-1.148778
C47	C	1.311707	-0.455499	-1.200210
C48	C	1.258355	-0.519278	-1.141916
C49	C	1.258343	-0.519310	-1.032191
C50	C	1.151673	-0.646799	-1.135052
C51	C	1.151656	-0.646843	-1.025329
C52	C	1.098335	-0.710545	-1.186484
C53	C	1.044987	-0.774331	-1.128190
C54	C	1.044969	-0.774366	-1.018461
C55	C	1.098305	-0.710622	-0.967036
C56	C	1.204890	-0.583263	-0.310113
C57	C	1.205025	-0.583020	-0.193346
H58	H	1.311550	-0.890478	-0.455576
H59	H	0.720257	-0.670921	-0.670511
C60	C	1.423693	-0.321670	-0.982473
N61	N	1.467881	-0.268855	-0.939857
H62	H	1.408373	-0.996209	-0.339999
H63	H	1.408466	-1.195284	-0.340061
C64	C	1.311662	-0.455611	-0.860064
N65	N	1.311654	-0.455640	-0.769153
H66	H	1.001559	-0.826222	-1.170074
H67	H	0.690401	-0.495633	-0.495731
C68	C	1.423734	-0.321593	-1.212903
N69	N	1.467939	-0.268751	-1.261202
H70	H	1.311721	-0.455454	-1.289552
H71	H	1.098299	-0.710649	-0.877694
H72	H	1.098352	-0.710506	-1.275826
H73	H	1.311740	-1.288618	-0.455725
C74	C	1.098379	-1.306296	-0.710660
N75	N	1.098415	-1.397209	-0.710680
C76	C	0.986276	-0.844528	-0.954346
N77	N	0.942068	-0.897376	-0.906059
H78	H	1.001456	-0.970134	-0.826195
C79	C	0.986309	-1.183909	-0.844463
N80	N	0.942133	-1.226541	-0.897277
H81	H	1.098187	-0.876800	-0.710511
