data_functionalizedCrystal
_audit_creation_method	'MofGen! by Chris Wilmer'
_symmetry_space_group_name_H-M	'P1'
_symmetry_Int_Tables_number	1
_symmetry_cell_setting	triclinic
loop_
_symmetry_equiv_pos_as_xyz
  x,y,z
_cell_length_a	10.967926
_cell_length_b	11.026607
_cell_length_c	9.730223
_cell_angle_alpha	89.997552
_cell_angle_beta	102.125956
_cell_angle_gamma	96.380754
loop_
_atom_site_label
_atom_site_type_symbol
_atom_site_fract_x
_atom_site_fract_y
_atom_site_fract_z
O1	O	1.693960	0.170507	0.286919
O2	O	1.334337	0.186832	0.201742
O3	O	1.484344	0.001768	0.237276
O4	O	1.543954	0.355570	0.251385
O5	O	1.484330	0.001763	0.465853
O6	O	1.334324	0.186826	0.430319
O7	O	1.693947	0.170502	0.515496
Zn8	Zn	1.514133	0.178663	0.509199
Zn9	Zn	1.514151	0.178670	0.208039
O10	O	1.543941	0.355565	0.479962
C11	C	1.287576	0.185642	0.304957
C12	C	1.148257	0.182089	0.271959
C13	C	1.473340	-0.043537	0.348959
C14	C	1.440557	-0.178523	0.341189
C15	C	1.086137	0.180502	0.375657
C16	C	0.942144	0.176831	0.341555
C17	C	1.531076	-0.251576	0.362626
C18	C	1.497195	-0.391092	0.354597
C19	C	1.740709	0.171691	0.412279
C20	C	1.880027	0.175244	0.445268
C21	C	1.554944	0.400870	0.368277
C22	C	1.587727	0.535856	0.376037
N23	N	1.514130	0.178658	0.714735
N24	N	1.514162	0.178666	0.002506
C25	C	1.580589	0.096747	0.802404
C26	C	1.580602	0.096747	0.946290
C27	C	1.447694	0.260581	0.914824
C28	C	1.447675	0.260573	0.770940
H29	H	1.139556	0.181856	0.489683
H30	H	0.888729	0.175467	0.227521
O31	O	1.653472	-0.203036	0.391370
C32	C	1.713323	-0.242204	0.287177
H33	H	1.640152	-0.269235	0.187106
H34	H	1.764547	-0.324191	0.326073
C35	C	1.898217	-0.104525	0.378908
C36	C	1.808348	-0.137715	0.255995
H37	H	1.956837	-0.040075	0.359677
H38	H	1.857897	-0.078140	0.449108
H39	H	1.940890	-0.172857	0.411309
H40	H	1.765666	-0.069388	0.223607
H41	H	1.848663	-0.164087	0.185788
H42	H	1.634717	0.030046	1.017667
O43	O	1.084578	0.180255	0.135895
C44	C	1.107027	0.075978	0.065346
H45	H	1.136467	0.003427	0.145173
H46	H	1.185067	0.101683	0.006029
C47	C	0.950200	0.114464	-0.137467
C48	C	0.986349	0.025351	-0.039423
H49	H	0.875764	0.083236	-0.202099
H50	H	0.935079	0.184720	-0.089940
H51	H	1.015244	0.135876	-0.186883
H52	H	0.921313	0.003951	0.010002
H53	H	1.001457	-0.044910	-0.086945
O54	O	1.374874	-0.439883	0.325681
C55	C	1.368276	-0.568320	0.324075
H56	H	1.459196	-0.597168	0.388884
H57	H	1.354346	-0.603672	0.211111
C58	C	1.145398	-0.586464	0.307769
C59	C	1.257064	-0.621895	0.387380
H60	H	1.076795	-0.619514	0.346812
H61	H	1.149841	-0.499934	0.308846
H62	H	1.133807	-0.615926	0.213638
H63	H	1.268661	-0.592420	0.481504
H64	H	1.252620	-0.708422	0.386320
H65	H	0.933440	0.176600	0.559302
H66	H	1.393590	0.327276	0.960602
O67	O	1.383093	0.340265	0.685976
C68	C	1.324426	0.412554	0.766430
H69	H	1.376005	0.414396	0.881199
H70	H	1.222689	0.372248	0.757662
C71	C	1.264747	0.541214	0.570162
C72	C	1.328104	0.543485	0.711122
H73	H	1.267010	0.621977	0.536043
H74	H	1.304268	0.492509	0.515956
H75	H	1.179972	0.507620	0.562874
H76	H	1.412881	0.577064	0.718406
H77	H	1.288597	0.592198	0.765328
H78	H	1.690313	-0.423406	0.400232
O79	O	1.318224	-0.227262	0.312027
C80	C	1.293881	-0.299800	0.187856
H81	H	1.385379	-0.330436	0.170058
H82	H	1.251082	-0.244291	0.094825
C83	C	1.089128	-0.375012	0.223789
C84	C	1.201506	-0.412647	0.201936
H85	H	1.032142	-0.444618	0.232470
H86	H	1.105525	-0.326138	0.307443
H87	H	1.053478	-0.328753	0.146259
H88	H	1.237161	-0.458892	0.279473
H89	H	1.185112	-0.461532	0.118295
H90	H	1.634699	0.030044	0.756646
