data_functionalizedCrystal
_audit_creation_method	'MofGen! by Chris Wilmer'
_symmetry_space_group_name_H-M	'P1'
_symmetry_Int_Tables_number	1
_symmetry_cell_setting	triclinic
loop_
_symmetry_equiv_pos_as_xyz
  x,y,z
_cell_length_a	14.853567
_cell_length_b	14.519709
_cell_length_c	13.330367
_cell_angle_alpha	89.994415
_cell_angle_beta	89.995418
_cell_angle_gamma	83.657538
loop_
_atom_site_label
_atom_site_type_symbol
_atom_site_fract_x
_atom_site_fract_y
_atom_site_fract_z
O1	O	1.196416	0.120405	-0.083357
O2	O	1.696416	0.620405	0.416643
O3	O	0.933962	0.134748	-0.083374
O4	O	1.433962	0.634748	0.416626
O5	O	1.072147	-0.006665	-0.083356
O6	O	1.572147	0.493335	0.416644
O7	O	1.058230	0.261818	-0.083375
O8	O	1.558230	0.761818	0.416625
O9	O	1.072127	-0.006668	0.083491
O10	O	1.572127	0.493332	0.583491
O11	O	0.933942	0.134745	0.083473
O12	O	1.433942	0.634745	0.583473
O13	O	1.196395	0.120402	0.083491
O14	O	1.696395	0.620402	0.583491
Cu15	Cu	1.065167	0.127573	0.098716
Cu16	Cu	1.565167	0.627573	0.598716
Cu17	Cu	1.065190	0.127577	-0.098600
Cu18	Cu	1.565190	0.627577	0.401400
O19	O	1.058210	0.261814	0.083472
O20	O	1.558210	0.761814	0.583472
C21	C	0.900363	0.134096	0.000047
C22	C	1.400363	0.634096	0.500047
C23	C	0.800278	0.132149	0.000041
C24	C	1.300278	0.632149	0.500041
C25	C	0.387709	0.039914	0.000070
C26	C	0.887709	0.539914	0.500070
C27	C	0.366493	0.207916	0.000057
C28	C	0.866493	0.707916	0.500057
C29	C	0.460527	0.209747	0.000054
C30	C	0.960527	0.709747	0.500054
C31	C	0.518157	0.126660	0.000057
C32	C	1.018157	0.626660	0.500057
C33	C	0.481752	0.041743	0.000064
C34	C	0.981752	0.541743	0.500064
C35	C	0.496939	0.294663	0.000037
C36	C	0.996939	0.794663	0.500037
C37	C	0.590979	0.296498	0.000033
C38	C	1.090979	0.796498	0.500033
C39	C	0.648610	0.213410	0.000043
C40	C	1.148610	0.713410	0.500043
C41	C	0.612200	0.128489	0.000051
C42	C	1.112200	0.628489	0.500051
C43	C	0.669830	0.045403	0.000054
C44	C	1.169830	0.545403	0.500054
C45	C	0.633422	-0.039520	0.000069
C46	C	1.133422	0.460480	0.500069
C47	C	0.539383	-0.041345	0.000074
C48	C	1.039383	0.458655	0.500074
C49	C	0.742649	0.215235	0.000038
C50	C	1.242649	0.715235	0.500038
C51	C	0.763873	0.047231	0.000048
C52	C	1.263873	0.547231	0.500048
C53	C	1.071488	-0.041026	0.000068
C54	C	1.571488	0.458974	0.500068
C55	C	1.069545	-0.143407	0.000068
C56	C	1.569545	0.356593	0.500068
C57	C	1.062390	-0.518299	0.000042
C58	C	1.562390	-0.018299	0.500042
C59	C	1.064377	-0.413992	0.000050
C60	C	1.564377	0.086008	0.500050
C61	C	1.065967	-0.330856	0.000056
C62	C	1.565967	0.169144	0.500056
C63	C	1.067955	-0.226543	0.000062
C64	C	1.567955	0.273457	0.500062
C65	C	1.229994	0.121053	0.000067
C66	C	1.729994	0.621053	0.500067
C67	C	1.330079	0.123001	0.000067
C68	C	1.830079	0.623001	0.500067
C69	C	1.058869	0.296175	0.000046
C70	C	1.558869	0.796175	0.500046
C71	C	1.060812	0.398556	0.000039
C72	C	1.560812	0.898556	0.500039
N73	N	1.065157	0.127570	0.237498
N74	N	1.565157	0.627570	0.737498
N75	N	1.065208	0.127572	-0.237381
N76	N	1.565208	0.627572	0.262619
C77	C	1.003999	0.190170	0.710113
C78	C	1.503999	0.690170	1.210113
C79	C	1.126406	0.064976	0.710097
C80	C	1.626406	0.564976	1.210097
C81	C	1.126396	0.064974	0.605078
C82	C	1.626396	0.564974	1.105078
C83	C	1.065187	0.127571	0.552572
C84	C	1.565187	0.627571	1.052572
C85	C	1.003989	0.190170	0.605085
C86	C	1.503989	0.690170	1.105085
C87	C	1.187599	0.002381	0.552558
C88	C	1.687599	0.502381	1.052558
C89	C	1.187592	0.002376	0.447534
C90	C	1.687592	0.502376	0.947534
C91	C	1.126378	0.064970	0.395026
C92	C	1.626378	0.564970	0.895026
C93	C	1.065177	0.127572	0.447544
C94	C	1.565177	0.627572	0.947544
C95	C	1.003968	0.190169	0.395038
C96	C	1.503968	0.690169	0.895038
C97	C	0.942762	0.252767	0.447555
C98	C	1.442762	0.752767	0.947555
C99	C	0.942775	0.252764	0.552577
C100	C	1.442775	0.752764	1.052577
C101	C	1.126365	0.064973	0.290004
C102	C	1.626365	0.564973	0.790004
C103	C	1.003958	0.190170	0.290010
C104	C	1.503958	0.690170	0.790010
H105	H	0.509731	-0.110484	0.000110
H106	H	1.009731	0.389516	0.500110
F107	F	0.348960	-0.050462	0.000091
F108	F	0.848960	0.449538	0.500091
H109	H	1.176202	0.014010	0.247250
H110	H	1.676202	0.514010	0.747250
F111	F	0.938858	0.256785	0.766002
F112	F	1.438858	0.756785	1.266002
F113	F	0.825201	-0.041203	0.000058
F114	F	1.325201	0.458797	0.500058
H115	H	0.319566	0.275561	0.000046
H116	H	0.819566	0.775561	0.500046
F117	F	0.435602	0.383083	0.000019
F118	F	0.935602	0.883083	0.500019
H119	H	0.680356	-0.107168	0.000065
H120	H	1.180356	0.392832	0.500065
H121	H	0.620614	0.365646	0.000020
H122	H	1.120614	0.865646	0.500020
F123	F	0.781394	0.305609	0.000015
F124	F	1.281394	0.805609	0.500015
H125	H	0.954111	0.241141	0.247266
H126	H	1.454111	0.741141	0.747266
H127	H	0.892929	0.303738	0.404792
H128	H	1.392929	0.803738	0.904792
F129	F	1.191551	-0.001635	0.765977
F130	F	1.691551	0.498365	1.265977
H131	H	0.892944	0.303730	0.595342
H132	H	1.392944	0.803730	1.095342
H133	H	1.237438	-0.048579	0.595312
H134	H	1.737438	0.451421	1.095312
F135	F	1.252730	-0.064246	0.391649
F136	F	1.752730	0.435754	0.891649
