data_functionalizedCrystal
_audit_creation_method	'MofGen! by Chris Wilmer'
_symmetry_space_group_name_H-M	'P1'
_symmetry_Int_Tables_number	1
_symmetry_cell_setting	triclinic
loop_
_symmetry_equiv_pos_as_xyz
  x,y,z
_cell_length_a	16.776229
_cell_length_b	14.971486
_cell_length_c	14.971486
_cell_angle_alpha	83.614129
_cell_angle_beta	90.007612
_cell_angle_gamma	89.996240
loop_
_atom_site_label
_atom_site_type_symbol
_atom_site_fract_x
_atom_site_fract_y
_atom_site_fract_z
O1	O	-0.066197	-1.186940	-0.116567
O2	O	-0.066219	-0.926540	-0.130525
O3	O	-0.066202	-1.063719	0.006654
O4	O	-0.066214	-1.049760	-0.253746
O5	O	0.066375	-1.063717	0.006666
O6	O	0.066358	-0.926537	-0.130513
O7	O	0.066380	-1.186938	-0.116554
Zn8	Zn	0.087418	-1.056737	-0.123532
Zn9	Zn	-0.087257	-1.056740	-0.123548
O10	O	0.066362	-1.049758	-0.253734
C11	C	0.000067	-0.893214	-0.129895
C12	C	0.000059	-0.793917	-0.128024
C13	C	0.000086	-1.063094	0.039985
C14	C	0.000086	-1.061223	0.139282
N15	N	-0.206468	-1.056743	-0.123552
C16	C	-0.248178	-1.117599	-0.062929
C17	C	-0.331630	-1.117603	-0.062927
C18	C	-0.373371	-1.056745	-0.123544
C19	C	-0.331656	-0.995886	-0.184174
C20	C	-0.248205	-0.995887	-0.184180
C21	C	-0.668203	-0.995879	-0.184152
C22	C	-0.751660	-0.995880	-0.184140
C23	C	-0.751628	-1.117594	-0.062900
C24	C	-0.668177	-1.117596	-0.062905
C25	C	-0.626469	-1.056740	-0.123538
C26	C	-0.535981	-1.056738	-0.123541
C27	C	-0.463858	-1.056742	-0.123538
N28	N	0.206629	-1.056741	-0.123520
C29	C	0.000092	-1.220263	-0.117185
C30	C	0.000095	-1.319561	-0.119056
C31	C	0.000056	-0.736692	-0.208614
C32	C	0.000068	-0.643392	-0.206850
C33	C	0.000077	-0.607320	-0.124497
C34	C	0.000082	-0.664552	-0.043902
C35	C	0.000076	-0.757850	-0.045666
C36	C	0.000093	-0.470090	-0.040231
C37	C	0.000098	-0.376786	-0.038466
C38	C	0.000085	-0.355632	-0.201415
C39	C	0.000079	-0.448930	-0.203179
C40	C	0.000083	-0.506156	-0.122584
C41	C	0.000073	-1.050384	-0.287065
C42	C	0.000068	-1.052254	-0.386362
C43	C	0.000093	-1.141812	0.196507
C44	C	0.000085	-1.140049	0.289807
C45	C	0.000075	-1.057696	0.325879
C46	C	0.000065	-0.977101	0.268646
C47	C	0.000068	-0.978865	0.175349
C48	C	0.000062	-0.973430	0.463109
C49	C	0.000061	-0.971665	0.556413
C50	C	0.000079	-1.134614	0.577567
C51	C	0.000081	-1.136378	0.484269
C52	C	0.000073	-1.055782	0.427043
H53	H	-0.214198	-1.167153	-0.013564
Br54	Br	0.000094	-1.249425	0.367467
H55	H	0.000095	-1.203437	0.454903
H56	H	-0.214246	-0.946333	-0.233546
H57	H	0.000052	-0.910047	0.298024
H58	H	0.000062	-0.913240	0.128756
Br59	Br	0.000051	-0.859899	0.605368
Br60	Br	-0.388239	-1.200198	0.019345
H61	H	0.000097	-0.516682	0.025399
Br62	Br	0.000055	-0.497885	-0.314946
Br63	Br	0.000118	-1.253584	0.147562
H64	H	-0.634194	-1.167149	-0.013542
Br65	Br	0.000035	-0.785637	-0.320385
H66	H	-0.785596	-1.167149	-0.013532
H67	H	0.000101	-0.635175	0.023152
Br68	Br	0.000048	-0.864048	0.385445
H69	H	0.000065	-0.596802	-0.272474
H70	H	-0.365646	-0.946337	-0.233534
Br71	Br	-0.808309	-0.913281	-0.266411
H72	H	-0.634251	-0.946327	-0.233520
H73	H	0.000086	-0.309033	-0.267039
Br74	Br	0.000137	-0.327831	0.073300
Br75	Br	0.000086	-0.835515	0.063710
Br76	Br	0.000089	-1.243995	0.655229
