data_functionalizedCrystal
_audit_creation_method	'MofGen! by Chris Wilmer'
_symmetry_space_group_name_H-M	'P1'
_symmetry_Int_Tables_number	1
_symmetry_cell_setting	triclinic
loop_
_symmetry_equiv_pos_as_xyz
  x,y,z
_cell_length_a	11.792241
_cell_length_b	9.065218
_cell_length_c	7.540329
_cell_angle_alpha	90.001757
_cell_angle_beta	89.997908
_cell_angle_gamma	95.395350
loop_
_atom_site_label
_atom_site_type_symbol
_atom_site_fract_x
_atom_site_fract_y
_atom_site_fract_z
O1	O	1.508028	-0.202222	-0.147440
O2	O	1.841361	0.131112	0.185894
O3	O	2.174695	0.464445	0.519227
O4	O	1.177802	-0.223063	-0.147450
O5	O	1.511136	0.110270	0.185883
O6	O	1.844469	0.443604	0.519216
O7	O	1.349741	0.002064	-0.147441
O8	O	1.683074	0.335397	0.185892
O9	O	2.016408	0.668731	0.519226
O10	O	1.336089	-0.427349	-0.147449
O11	O	1.669423	-0.094015	0.185885
O12	O	2.002756	0.239318	0.519218
O13	O	1.349730	0.002067	0.147524
O14	O	1.683064	0.335400	0.480857
O15	O	2.016397	0.668734	0.814191
O16	O	1.177792	-0.223060	0.147515
O17	O	1.511125	0.110273	0.480848
O18	O	1.844459	0.443607	0.814182
O19	O	1.508018	-0.202219	0.147525
O20	O	1.841351	0.131115	0.480859
O21	O	2.174684	0.464448	0.814192
Cu22	Cu	1.342904	-0.212639	0.174453
Cu23	Cu	1.676237	0.120694	0.507786
Cu24	Cu	2.009570	0.454027	0.841119
Cu25	Cu	1.342916	-0.212643	-0.174378
Cu26	Cu	1.676249	0.120691	0.158956
Cu27	Cu	2.009583	0.454024	0.492289
O28	O	1.336079	-0.427346	0.147516
O29	O	1.669412	-0.094012	0.480850
O30	O	2.002746	0.239321	0.814183
C31	C	1.135499	-0.221752	0.000031
C32	C	1.468832	0.111581	0.333364
C33	C	1.802166	0.444914	0.666698
C34	C	1.009464	-0.217834	0.000027
C35	C	1.342797	0.115499	0.333360
C36	C	1.676130	0.448833	0.666693
C37	C	1.348424	0.057040	0.000039
C38	C	1.681757	0.390373	0.333372
C39	C	2.015090	0.723707	0.666705
C40	C	1.344501	0.220846	0.000030
C41	C	1.677834	0.554179	0.333363
C42	C	2.011167	0.887513	0.666697
C43	C	1.550321	-0.203529	0.000040
C44	C	1.883654	0.129804	0.333374
C45	C	2.216988	0.463137	0.666707
C46	C	1.676356	-0.207448	0.000033
C47	C	2.009690	0.125886	0.333366
C48	C	2.343023	0.459219	0.666700
C49	C	1.907108	-0.214653	0.000033
C50	C	2.240442	0.118680	0.333367
C51	C	2.573775	0.452014	0.666700
C52	C	1.778701	-0.210650	0.000034
C53	C	2.112034	0.122684	0.333367
C54	C	2.445368	0.456017	0.666700
C55	C	1.337396	-0.482322	0.000033
C56	C	1.670730	-0.148988	0.333366
C57	C	2.004063	0.184345	0.666699
C58	C	1.341319	-0.646128	0.000030
C59	C	1.674652	-0.312794	0.333363
C60	C	2.007986	0.020539	0.666696
N61	N	1.342903	-0.212636	0.419801
N62	N	1.676237	0.120697	0.753135
N63	N	2.009570	0.454031	1.086468
N64	N	1.342925	-0.212634	-0.419726
N65	N	1.676259	0.120699	-0.086393
N66	N	2.009592	0.454033	0.246941
