data_functionalizedCrystal
_audit_creation_method	'MofGen! by Chris Wilmer'
_symmetry_space_group_name_H-M	'P1'
_symmetry_Int_Tables_number	1
_symmetry_cell_setting	triclinic
loop_
_symmetry_equiv_pos_as_xyz
  x,y,z
_cell_length_a	15.995300
_cell_length_b	17.699083
_cell_length_c	16.776229
_cell_angle_alpha	89.998886
_cell_angle_beta	89.997895
_cell_angle_gamma	83.377411
loop_
_atom_site_label
_atom_site_type_symbol
_atom_site_fract_x
_atom_site_fract_y
_atom_site_fract_z
O1	O	0.105888	1.004237	-0.066168
O2	O	0.439221	1.337571	0.267165
O3	O	0.772554	1.670904	0.600498
O4	O	0.119664	0.783880	-0.066194
O5	O	0.452997	1.117213	0.267140
O6	O	0.786331	1.450546	0.600473
O7	O	-0.009127	0.900102	-0.066184
O8	O	0.324206	1.233435	0.267149
O9	O	0.657540	1.566769	0.600482
O10	O	0.234679	0.888015	-0.066178
O11	O	0.568012	1.221348	0.267156
O12	O	0.901345	1.554682	0.600489
O13	O	-0.009135	0.900086	0.066392
O14	O	0.324198	1.233420	0.399726
O15	O	0.657532	1.566753	0.733059
O16	O	0.119656	0.783864	0.066383
O17	O	0.452989	1.117197	0.399716
O18	O	0.786323	1.450531	0.733050
O19	O	0.105880	1.004222	0.066408
O20	O	0.439213	1.337555	0.399741
O21	O	0.772546	1.670888	0.733075
Zn22	Zn	0.112767	0.894041	0.087445
Zn23	Zn	0.446100	1.227374	0.420778
Zn24	Zn	0.779433	1.560707	0.754112
Zn25	Zn	0.112777	0.894061	-0.087230
Zn26	Zn	0.446110	1.227394	0.246103
Zn27	Zn	0.779444	1.560727	0.579436
O28	O	0.234671	0.887999	0.066399
O29	O	0.568004	1.221333	0.399732
O30	O	0.901337	1.554666	0.733065
C31	C	0.119166	0.755674	0.000091
C32	C	0.452500	1.089007	0.333425
C33	C	0.785833	1.422341	0.666758
C34	C	0.117685	0.671654	0.000081
C35	C	0.451019	1.004987	0.333415
C36	C	0.784352	1.338320	0.666748
C37	C	-0.040325	0.899601	0.000101
C38	C	0.293008	1.232935	0.333435
C39	C	0.626341	1.566268	0.666768
C40	C	-0.133275	0.898123	0.000093
C41	C	0.200058	1.231457	0.333426
C42	C	0.533392	1.564790	0.666760
C43	C	0.193283	0.623146	0.000084
C44	C	0.526616	0.956479	0.333417
C45	C	0.859950	1.289813	0.666750
C46	C	0.191887	0.544201	0.000094
C47	C	0.525220	0.877534	0.333427
C48	C	0.858553	1.210867	0.666761
C49	C	0.114892	0.513764	0.000096
C50	C	0.448225	0.847098	0.333430
C51	C	0.781558	1.180431	0.666763
C52	C	0.039288	0.562278	0.000096
C53	C	0.372622	0.895612	0.333430
C54	C	0.705955	1.228945	0.666763
C55	C	0.040686	0.641222	0.000092
C56	C	0.374019	0.974556	0.333425
C57	C	0.707352	1.307889	0.666758
C58	C	0.033651	0.243907	0.000116
C59	C	0.366985	0.577240	0.333449
C60	C	0.700318	0.910573	0.666783
C61	C	0.032260	0.164957	0.000118
C62	C	0.365593	0.498290	0.333451
C63	C	0.698927	0.831623	0.666785
C64	C	0.184852	0.146885	0.000118
C65	C	0.518186	0.480219	0.333451
C66	C	0.851519	0.813552	0.666785
C67	C	0.186250	0.225829	0.000114
C68	C	0.519583	0.559163	0.333447
C69	C	0.852916	0.892496	0.666780
C70	C	0.110647	0.274336	0.000118
C71	C	0.443980	0.607669	0.333451
C72	C	0.777313	0.941003	0.666785
C73	C	0.112162	0.359938	0.000108
C74	C	0.445495	0.693271	0.333442
C75	C	0.778829	1.026604	0.666775
C76	C	0.113376	0.428165	0.000100
C77	C	0.446709	0.761498	0.333434
C78	C	0.780042	1.094831	0.666767
C79	C	-0.303452	0.895394	0.000101
C80	C	0.029881	1.228727	0.333434
C81	C	0.363214	1.562060	0.666767
C82	C	-0.351087	0.978147	0.000108
C83	C	-0.017753	1.311480	0.333442
C84	C	0.315580	1.644813	0.666775
C85	C	-0.447772	0.976637	0.000412
C86	C	-0.114438	1.309970	0.333745
C87	C	0.218895	1.643304	0.667079
C88	C	-0.471004	0.892708	0.000107
C89	C	-0.137670	1.226041	0.333440
C90	C	0.195663	1.559374	0.666774
C91	C	-0.429790	0.851642	0.075660
C92	C	-0.096457	1.184975	0.408994
C93	C	0.236876	1.518309	0.742327
C94	C	-0.333161	0.853736	0.075721
C95	C	0.000172	1.187070	0.409054
C96	C	0.333506	1.520403	0.742388
C97	C	-0.332874	0.852528	-0.075049
C98	C	0.000459	1.185862	0.258285
C99	C	0.333793	1.519195	0.591618
C100	C	-0.429818	0.852536	-0.076039
C101	C	-0.096485	1.185869	0.257295
C102	C	0.236848	1.519203	0.590628
C103	C	-0.565696	0.891185	0.000113
C104	C	-0.232363	1.224518	0.333447
C105	C	0.100971	1.557852	0.666780
C106	C	-0.208760	0.896914	0.000100
C107	C	0.124573	1.230247	0.333433
C108	C	0.457907	1.563581	0.666766
C109	C	0.265869	0.888500	0.000112
C110	C	0.599202	1.221833	0.333445
C111	C	0.932536	1.555167	0.666778
C112	C	0.358819	0.889978	0.000115
C113	C	0.692152	1.223311	0.333448
C114	C	1.025485	1.556645	0.666781
C115	C	0.106377	1.032427	0.000121
C116	C	0.439711	1.365761	0.333455
C117	C	0.773044	1.699094	0.666788
C118	C	0.107858	1.116448	0.000126
C119	C	0.441192	1.449781	0.333459
C120	C	0.774525	1.783114	0.666793
N121	N	0.112759	0.894032	0.206656
N122	N	0.446092	1.227365	0.539989
N123	N	0.779426	1.560699	0.873323
N124	N	0.112778	0.894075	-0.206442
N125	N	0.446111	1.227409	0.126892
N126	N	0.779445	1.560742	0.460225
C127	C	0.055754	0.945511	0.248377
C128	C	0.389087	1.278844	0.581711
C129	C	0.722420	1.612178	0.915044
C130	C	0.055753	0.945515	0.331830
C131	C	0.389086	1.278849	0.665163
C132	C	0.722420	1.612182	0.998496
C133	C	0.112762	0.894044	0.373559
C134	C	0.446096	1.227377	0.706892
C135	C	0.779429	1.560710	1.040226
C136	C	0.169770	0.842559	0.331832
C137	C	0.503104	1.175892	0.665165
C138	C	0.836437	1.509226	0.998499
C139	C	0.169766	0.842552	0.248381
C140	C	0.503100	1.175885	0.581715
C141	C	0.836433	1.509219	0.915048
C142	C	0.169787	0.842587	0.668379
C143	C	0.503120	1.175920	1.001713
C144	C	0.836453	1.509253	1.335046
C145	C	0.169788	0.842599	0.751836
C146	C	0.503121	1.175933	1.085169
C147	C	0.836455	1.509266	1.418502
C148	C	0.055773	0.945550	0.751827
C149	C	0.389107	1.278883	1.085161
C150	C	0.722440	1.612217	1.418494
C151	C	0.055770	0.945543	0.668377
C152	C	0.389103	1.278876	1.001710
C153	C	0.722436	1.612209	1.335043
C154	C	0.112774	0.894056	0.626657
C155	C	0.446107	1.227389	0.959990
C156	C	0.779441	1.560723	1.293324
C157	C	0.112773	0.894051	0.536169
C158	C	0.446106	1.227384	0.869502
C159	C	0.779440	1.560718	1.202835
C160	C	0.112768	0.894052	0.464046
C161	C	0.446101	1.227385	0.797379
C162	C	0.779435	1.560718	1.130712
H163	H	0.255981	0.647921	0.000081
H164	H	0.589315	0.981254	0.333415
H165	H	0.922648	1.314587	0.666748
H166	H	0.216186	0.800646	0.365813
H167	H	0.549519	1.133979	0.699146
H168	H	0.882852	1.467313	1.032480
H169	H	-0.030442	0.140179	0.000121
H170	H	0.302891	0.473513	0.333454
H171	H	0.636224	0.806846	0.666788
F172	F	-0.039776	0.692848	0.000092
F173	F	0.293558	1.026181	0.333426
F174	F	0.626891	1.359514	0.666759
F175	F	-0.042656	0.529884	0.000104
F176	F	0.290677	0.863217	0.333437
F177	F	0.624011	1.196550	0.666771
H178	H	0.009350	0.987458	0.634403
H179	H	0.342683	1.320791	0.967736
H180	H	0.676017	1.654125	1.301070
H181	H	0.009334	0.987428	0.214407
H182	H	0.342667	1.320762	0.547740
H183	H	0.676000	1.654095	0.881073
F184	F	-0.485065	1.018809	-0.070362
F185	F	-0.151732	1.352142	0.262971
F186	F	0.181601	1.685475	0.596305
H187	H	0.216185	0.800632	0.214413
H188	H	0.549518	1.133965	0.547746
H189	H	0.882851	1.467298	0.881079
H190	H	0.216203	0.800666	0.634417
H191	H	0.549537	1.133999	0.967751
H192	H	0.882870	1.467332	1.301084
F193	F	-0.448053	0.771035	0.079049
F194	F	-0.114720	1.104368	0.412383
F195	F	0.218614	1.437701	0.745716
H196	H	-0.027909	0.283392	0.000120
H197	H	0.305424	0.616726	0.333453
H198	H	0.638757	0.950059	0.666787
F199	F	0.268198	0.258217	0.000106
F200	F	0.601531	0.591550	0.333440
F201	F	0.934864	0.924884	0.666773
F202	F	0.272348	0.492578	0.000093
F203	F	0.605681	0.825912	0.333426
F204	F	0.939015	1.159245	0.666760
H205	H	0.216213	0.800682	0.785810
H206	H	0.549547	1.134015	1.119144
H207	H	0.882880	1.467349	1.452477
F208	F	-0.465631	0.891730	-0.149100
F209	F	-0.132298	1.225063	0.184233
F210	F	0.201036	1.558397	0.517567
H211	H	0.246412	0.107381	0.000119
H212	H	0.579745	0.440714	0.333452
H213	H	0.913078	0.774048	0.666786
F214	F	-0.327009	1.021624	-0.070700
F215	F	0.006325	1.354958	0.262633
F216	F	0.339658	1.688291	0.595967
F217	F	-0.325548	1.020962	0.070827
F218	F	0.007785	1.354295	0.404160
F219	F	0.341118	1.687628	0.737494
H220	H	-0.475687	1.008752	0.054895
H221	H	-0.142353	1.342085	0.388229
H222	H	0.190980	1.675418	0.721562
H223	H	-0.314904	0.883318	0.132420
H224	H	0.018429	1.216651	0.465753
H225	H	0.351762	1.549985	0.799086
F226	F	-0.449775	0.772580	-0.082349
F227	F	-0.116442	1.105913	0.250984
F228	F	0.216892	1.439247	0.584317
F229	F	-0.306143	0.888143	-0.149924
F230	F	0.027190	1.221477	0.183409
F231	F	0.360524	1.554810	0.516742
F232	F	-0.290814	0.774312	0.079931
F233	F	0.042519	1.107645	0.413264
F234	F	0.375853	1.440979	0.746597
F235	F	-0.466932	0.888452	0.149441
F236	F	-0.133598	1.221785	0.482774
F237	F	0.199735	1.555118	0.816107
H238	H	-0.300979	0.791513	-0.075776
H239	H	0.032355	1.124846	0.257557
H240	H	0.365688	1.458179	0.590891
F241	F	-0.004919	1.000304	0.376233
F242	F	0.328414	1.333637	0.709566
F243	F	0.661748	1.666971	1.042899
H244	H	0.009354	0.987471	0.785805
H245	H	0.342688	1.320804	1.119138
H246	H	0.676021	1.654138	1.452471
