data_functionalizedCrystal
_audit_creation_method	'MofGen! by Chris Wilmer'
_symmetry_space_group_name_H-M	'P1'
_symmetry_Int_Tables_number	1
_symmetry_cell_setting	triclinic
loop_
_symmetry_equiv_pos_as_xyz
  x,y,z
_cell_length_a	19.077241
_cell_length_b	19.077068
_cell_length_c	19.076919
_cell_angle_alpha	94.470751
_cell_angle_beta	89.886096
_cell_angle_gamma	94.707771
loop_
_atom_site_label
_atom_site_type_symbol
_atom_site_fract_x
_atom_site_fract_y
_atom_site_fract_z
Zn1	Zn	-1.047582	0.256332	0.450414
Zn2	Zn	-1.047495	0.369488	0.337255
Zn3	Zn	-0.934813	0.255959	0.328177
Zn4	Zn	-0.924921	0.378906	0.450353
O5	O	-0.988703	0.315171	0.391550
O6	O	-1.146062	0.267556	0.439228
O7	O	-1.036651	0.350331	0.237563
O8	O	-0.953949	0.157199	0.340619
O9	O	-1.145999	0.350692	0.356091
O10	O	-1.036800	0.157472	0.430426
O11	O	-0.953864	0.266922	0.230893
O12	O	-0.835009	0.276054	0.340559
O13	O	-0.937089	0.366744	0.548849
O14	O	-0.827742	0.366383	0.430321
O15	O	-1.027207	0.276689	0.548894
O16	O	-1.027059	0.469548	0.356031
O17	O	-0.937004	0.476467	0.439123
C18	C	-0.805838	0.322201	0.384449
C19	C	-0.727606	0.325226	0.381428
C20	C	-0.690880	0.283437	0.423366
C21	C	-0.617373	0.286276	0.420521
C22	C	-0.580593	0.330907	0.375743
C23	C	-0.617324	0.372697	0.333801
C24	C	-0.690829	0.369855	0.336642
C25	C	-0.360751	0.344039	0.362593
C26	C	-0.287240	0.346880	0.359757
C27	C	-0.287295	0.260457	0.446477
C28	C	-0.360802	0.257622	0.449317
C29	C	-0.397526	0.299409	0.407372
N30	N	-0.505457	0.333811	0.372836
N31	N	-0.472661	0.296501	0.410276
C32	C	-0.980967	0.498628	0.398572
C33	C	-0.977721	0.577110	0.401602
C34	C	-0.981054	0.322808	0.575122
C35	C	-0.977795	0.326063	0.653350
C36	C	-0.172283	0.308111	0.398673
C37	C	-0.250515	0.305092	0.401694
C38	C	-0.996487	0.130999	0.384516
C39	C	-0.999805	0.052515	0.381519
C40	C	-1.023116	0.610355	0.359802
C41	C	-1.020067	0.684097	0.362657
C42	C	-0.971619	0.724593	0.407307
C43	C	-0.926222	0.691343	0.449111
C44	C	-0.929275	0.617602	0.446260
C45	C	-0.957461	0.945524	0.420472
C46	C	-0.954410	1.019270	0.423319
C47	C	-1.048256	1.012019	0.336865
C48	C	-1.051302	0.938277	0.334015
C49	C	-1.005907	0.905033	0.375821
N50	N	-0.968500	0.799970	0.410224
N51	N	-1.009030	0.829658	0.372908
C52	C	-0.996364	0.307512	0.208691
C53	C	-0.999769	0.304053	0.130461
C54	C	-1.023181	0.280707	0.690126
C55	C	-1.020110	0.283762	0.763629
C56	C	-0.971656	0.332177	0.800354
C57	C	-0.926265	0.377535	0.763573
C58	C	-0.929333	0.374476	0.690071
C59	C	-0.957446	0.346352	1.020178
C60	C	-0.954382	0.349409	1.093685
C61	C	-1.048227	0.255635	1.093736
C62	C	-1.051294	0.252583	1.020233
C63	C	-1.005900	0.297938	0.983458
N64	N	-0.968517	0.335303	0.875486
N65	N	-1.009036	0.294808	0.908327
H66	H	-0.587371	0.409034	0.297337
H67	H	-0.920493	0.383293	0.990245
O68	O	-0.907365	0.396414	1.129471
C69	C	-0.914381	0.389373	1.202230
H70	H	-0.969262	0.364589	1.213497
H71	H	-0.906194	0.443606	1.232002
H72	H	-0.873363	0.354231	1.220027
O73	O	-1.098254	0.205490	0.984490
C74	C	-1.061860	0.159648	0.938705
H75	H	-1.007942	0.186165	0.926558
H76	H	-1.093083	0.146894	0.887776
H77	H	-1.055127	0.108816	0.964757
H78	H	-0.390743	0.221281	0.485783
O79	O	-0.251537	0.219966	0.487250
C80	C	-0.205454	0.263768	0.532554
H81	H	-0.193226	0.316630	0.509268
H82	H	-0.154581	0.237413	0.538934
H83	H	-0.231290	0.272680	0.586093
H84	H	-0.257295	0.383228	0.323292
O85	O	-0.885177	0.418440	0.654311
C86	C	-0.843200	0.378222	0.608478
H87	H	-0.840279	0.323697	0.628333
H88	H	-0.787991	0.405809	0.606517
H89	H	-0.867386	0.372638	0.553525
O90	O	-1.092455	1.044230	0.296297
C91	C	-1.162694	1.024097	0.313777
H92	H	-1.165214	0.971614	0.338821
H93	H	-1.196518	1.018236	0.264140
H94	H	-1.183146	1.066158	0.352503
O95	O	-0.726396	0.410521	0.295882
C96	C	-0.678173	0.450512	0.255738
H97	H	-0.624475	0.456228	0.282632
H98	H	-0.697389	0.504996	0.251090
H99	H	-0.673663	0.422653	0.201032
O100	O	-1.098302	0.898836	0.290657
C101	C	-1.091272	0.826621	0.297116
H102	H	-1.036395	0.819636	0.317627
H103	H	-1.099441	0.796237	0.243505
H104	H	-1.132297	0.805596	0.335435
O105	O	-0.907328	1.058503	0.466761
C106	C	-0.867906	1.013350	0.503039
H107	H	-0.898805	0.959751	0.504585
H108	H	-0.857170	1.037240	0.559015
H109	H	-0.815866	1.006548	0.474854
O110	O	-0.396308	0.384702	0.321827
C111	C	-0.348081	0.424690	0.281686
H112	H	-0.294385	0.430406	0.308585
H113	H	-0.367295	0.479174	0.277033
H114	H	-0.343565	0.396828	0.226982
O115	O	-1.064309	0.716257	0.322089
C116	C	-1.134520	0.696053	0.339612
H117	H	-1.136961	0.643590	0.364688
H118	H	-1.168369	0.690123	0.289992
H119	H	-1.155003	0.738107	0.378325
O120	O	-0.879257	0.424544	0.799356
C121	C	-0.886269	0.417509	0.872117
H122	H	-0.941145	0.392716	0.883386
H123	H	-0.878092	0.471745	0.901884
H124	H	-0.845241	0.382378	0.889916
H125	H	-1.062565	0.577388	0.323440
H126	H	-0.920497	0.918463	0.454512
H127	H	-0.886778	0.724320	0.485470
O128	O	-0.885109	0.585418	0.486890
C129	C	-0.841705	0.636971	0.526926
H130	H	-0.838309	0.688443	0.500033
H131	H	-0.786816	0.618150	0.531421
H132	H	-0.864892	0.646006	0.581697
H133	H	-1.062640	0.241284	0.660230
H134	H	-1.057070	0.246830	0.793569
O135	O	-0.726630	0.240185	0.466945
C136	C	-0.765586	0.280698	0.515511
H137	H	-0.740919	0.337351	0.521042
H138	H	-0.765240	0.257466	0.568774
H139	H	-0.822097	0.280037	0.495992
H140	H	-1.085183	0.218708	1.123686
H141	H	-0.587474	0.252248	0.454673
