data_functionalizedCrystal
_audit_creation_method	'MofGen! by Chris Wilmer'
_symmetry_space_group_name_H-M	'P1'
_symmetry_Int_Tables_number	1
_symmetry_cell_setting	triclinic
loop_
_symmetry_equiv_pos_as_xyz
  x,y,z
_cell_length_a	6.817900
_cell_length_b	10.943632
_cell_length_c	19.453114
_cell_angle_alpha	94.440217
_cell_angle_beta	101.709288
_cell_angle_gamma	108.838880
loop_
_atom_site_label
_atom_site_type_symbol
_atom_site_fract_x
_atom_site_fract_y
_atom_site_fract_z
V1	V	-4.034382	-0.179974	-0.218982
O2	O	-3.993629	0.007265	-0.214831
O3	O	-4.012894	-0.355528	-0.217468
O4	O	-3.976966	-0.177813	-0.314495
O5	O	-4.029805	-0.171680	-0.117132
V6	V	-4.515692	-0.157506	-0.206802
O7	O	-4.300497	-0.229259	-0.245700
O8	O	-4.699774	-0.108222	-0.180084
O9	O	-4.313974	0.018048	-0.208316
O10	O	-4.673842	-0.344746	-0.210953
O11	O	-4.637666	-0.165800	-0.308652
O12	O	-4.349901	-0.159668	-0.111289
C13	C	-3.864733	-0.398305	-0.214009
C14	C	-3.928390	-0.541827	-0.213407
C15	C	-3.774718	-0.618955	-0.209407
C16	C	-3.874556	-0.691253	-0.152706
C17	C	-3.942002	-0.725260	-0.269044
C18	C	-4.027362	-0.612221	-0.156666
C19	C	-4.094807	-0.646234	-0.273056
C20	C	-4.194760	-0.718495	-0.216343
C21	C	-3.818903	-0.171610	-0.337776
C22	C	-3.853420	-0.171004	-0.415859
C23	C	-4.052412	-0.177200	-0.456115
C24	C	-4.084845	-0.176631	-0.529482
C25	C	-3.918288	-0.169892	-0.562592
C26	C	-3.719264	-0.163688	-0.522325
C27	C	-3.686831	-0.164244	-0.448959
N28	N	-3.868996	-0.238075	-0.681374
N29	N	-3.899821	-0.237550	-0.751070
C30	C	-4.015997	-0.168214	-0.783640
N31	N	-4.100222	-0.099441	-0.743884
N32	N	-4.069403	-0.099972	-0.674182
C33	C	-3.953436	-0.169288	-0.642145
C34	C	-4.250168	-0.173792	-0.903449
C35	C	-4.282591	-0.173215	-0.976817
C36	C	-3.917010	-0.160285	-0.969659
C37	C	-3.884587	-0.160849	-0.896292
C38	C	-4.051177	-0.167609	-0.863192
C39	C	-4.125478	0.060818	-0.211773
C40	C	-4.041059	0.204338	-0.212379
C41	C	-4.171308	-0.165875	-0.088004
C42	C	-4.116028	-0.166474	-0.009921
H43	H	-4.062806	-0.563161	-0.109125
C44	C	-3.533976	-0.560173	-0.205355
N45	N	-3.352651	-0.515895	-0.202299
H46	H	-4.187184	-0.625756	-0.323946
C47	C	-3.749656	-0.718889	-0.083960
N48	N	-3.655569	-0.739702	-0.032182
C49	C	-3.467923	-0.157443	-0.404676
N50	N	-3.303041	-0.152327	-0.371322
H51	H	-3.722555	-0.155817	-0.863516
H52	H	-4.372937	-0.761737	-0.219256
H53	H	-3.906496	-0.774471	-0.316521
C54	C	-4.433409	-0.181211	-0.867035
N55	N	-4.571427	-0.186796	-0.839610
H56	H	-4.188063	-0.182700	-0.429170
C57	C	-4.501500	-0.180017	-1.021098
N58	N	-4.666386	-0.185139	-1.054451
C59	C	-4.303769	-0.183462	-0.573774
N60	N	-4.468665	-0.188613	-0.607133
H61	H	-3.583652	-0.158197	-0.549287
H62	H	-3.781389	-0.154786	-0.996615
