data_functionalizedCrystal
_audit_creation_method	'MofGen! by Chris Wilmer'
_symmetry_space_group_name_H-M	'P1'
_symmetry_Int_Tables_number	1
_symmetry_cell_setting	triclinic
loop_
_symmetry_equiv_pos_as_xyz
  x,y,z
_cell_length_a	11.169417
_cell_length_b	10.686285
_cell_length_c	10.686551
_cell_angle_alpha	80.915481
_cell_angle_beta	85.606327
_cell_angle_gamma	85.632710
loop_
_atom_site_label
_atom_site_type_symbol
_atom_site_fract_x
_atom_site_fract_y
_atom_site_fract_z
Zn1	Zn	1.917381	-0.450141	-0.678937
Zn2	Zn	2.417381	0.049859	-0.178937
Zn3	Zn	1.917284	-0.678721	-0.450435
Zn4	Zn	2.417284	-0.178721	0.049565
Zn5	Zn	1.702372	-0.466497	-0.466707
Zn6	Zn	2.202372	0.033503	0.033293
Zn7	Zn	1.730979	-0.662340	-0.662645
Zn8	Zn	2.230979	-0.162340	-0.162645
O9	O	1.817004	-0.564425	-0.564681
O10	O	2.317004	-0.064425	-0.064681
O11	O	2.085319	-0.480473	-0.648634
O12	O	2.585319	0.019527	-0.148634
O13	O	1.876762	-0.664270	-0.274963
O14	O	2.376762	-0.164270	0.225037
O15	O	1.718961	-0.286705	-0.508488
O16	O	2.218961	0.213295	-0.008488
O17	O	2.085247	-0.648410	-0.480754
O18	O	2.585247	-0.148410	0.019246
O19	O	1.876928	-0.274688	-0.664413
O20	O	2.376928	0.225312	-0.164413
O21	O	1.718867	-0.508350	-0.286918
O22	O	2.218867	-0.008350	0.213082
O23	O	1.538216	-0.492466	-0.492690
O24	O	2.038216	0.007534	0.007310
O25	O	1.767719	-0.620491	-0.842436
O26	O	2.267719	-0.120491	-0.342436
O27	O	1.559233	-0.636351	-0.636645
O28	O	2.059233	-0.136351	-0.136645
O29	O	1.904667	-0.464589	-0.854406
O30	O	2.404667	0.035411	-0.354406
O31	O	1.904502	-0.854171	-0.464957
O32	O	2.404502	-0.354171	0.035043
O33	O	1.767624	-0.842136	-0.620867
O34	O	2.267624	-0.342136	-0.120867
C35	C	1.505177	-0.564407	-0.564666
C36	C	2.005177	-0.064407	-0.064666
C37	C	1.371780	-0.564428	-0.564688
C38	C	1.871780	-0.064428	-0.064688
C39	C	1.839191	-0.894207	-0.539406
C40	C	2.339191	-0.394207	-0.039406
C41	C	1.848796	-1.035285	-0.528635
C42	C	2.348796	-0.535285	-0.028635
C43	C	2.130049	-0.564444	-0.564697
C44	C	2.630049	-0.064444	-0.064697
C45	C	2.263450	-0.564452	-0.564703
C46	C	2.763450	-0.064452	-0.064703
C47	C	1.839395	-0.538889	-0.895766
C48	C	2.339395	-0.038889	-0.395766
C49	C	1.848936	-0.528006	-1.036855
C50	C	2.348936	-0.028006	-0.536855
C51	C	1.794764	-0.233354	-0.590083
C52	C	2.294764	0.266646	-0.090083
C53	C	1.785287	-0.092271	-0.600907
C54	C	2.285287	0.407729	-0.100907
C55	C	1.794763	-0.589771	-0.234891
C56	C	2.294763	-0.089771	0.265109
C57	C	1.785430	-0.600295	-0.093830
C58	C	2.285430	-0.100295	0.406170
H59	H	1.723568	-1.033130	-0.671024
H60	H	2.223568	-0.533130	-0.171024
H61	H	1.910510	-1.094435	-0.458506
H62	H	2.410510	-0.594435	0.041494
H63	H	1.723763	-0.670513	-1.034671
H64	H	2.223763	-0.170513	-0.534671
H65	H	1.910616	-0.457793	-1.096020
H66	H	2.410616	0.042207	-0.596020
