data_functionalizedCrystal
_audit_creation_method	'MofGen! by Chris Wilmer'
_symmetry_space_group_name_H-M	'P1'
_symmetry_Int_Tables_number	1
_symmetry_cell_setting	triclinic
loop_
_symmetry_equiv_pos_as_xyz
  x,y,z
_cell_length_a	16.992694
_cell_length_b	11.792254
_cell_length_c	15.455313
_cell_angle_alpha	92.683372
_cell_angle_beta	87.142206
_cell_angle_gamma	87.433410
loop_
_atom_site_label
_atom_site_type_symbol
_atom_site_fract_x
_atom_site_fract_y
_atom_site_fract_z
O1	O	1.044834	0.236105	-0.072023
O2	O	0.816539	0.233462	-0.072048
O3	O	0.936221	0.070067	-0.072029
O4	O	0.925152	0.399500	-0.072042
O5	O	0.929377	0.079370	0.072232
O6	O	0.809695	0.242765	0.072213
O7	O	1.037990	0.245408	0.072238
Cu8	Cu	0.923217	0.244936	0.085398
Cu9	Cu	0.931311	0.233934	-0.085207
O10	O	0.918308	0.408803	0.072219
C11	C	0.783890	0.234716	0.000079
C12	C	0.696803	0.224577	0.000070
C13	C	0.932102	0.032371	0.000102
C14	C	0.930014	-0.093813	0.000101
C15	C	0.646981	0.322394	0.000066
C16	C	0.565153	0.312863	0.000079
C17	C	0.533148	0.205512	0.000088
C18	C	0.582976	0.107688	0.000094
C19	C	0.664802	0.117221	0.000088
C20	C	0.289380	0.166001	0.000113
C21	C	0.207548	0.156475	0.000117
C22	C	0.189730	0.361651	0.000103
C23	C	0.271559	0.371175	0.000091
C24	C	0.321379	0.273351	0.000102
N25	N	0.449507	0.195767	0.000098
N26	N	0.405019	0.283098	0.000098
C27	C	0.928319	-0.196288	0.000097
C28	C	0.926199	-0.324849	0.000089
C29	C	1.070639	0.244154	0.000109
C30	C	1.157726	0.254293	0.000113
C31	C	0.922427	0.446499	0.000087
C32	C	0.924515	0.572683	0.000082
N33	N	0.917530	0.252673	0.205392
N34	N	0.937005	0.226188	-0.205202
C35	C	0.968393	0.183286	0.250795
C36	C	0.964100	0.189149	0.341602
C37	C	0.908946	0.264405	0.387005
C38	C	0.858077	0.333795	0.341596
C39	C	0.862368	0.327926	0.250791
C40	C	0.890427	0.289709	0.658584
C41	C	0.886141	0.295575	0.749395
C42	C	0.992163	0.150927	0.749395
C43	C	0.996452	0.145069	0.658588
C44	C	0.945581	0.214455	0.613187
N45	N	0.904557	0.270402	0.479825
N46	N	0.949966	0.208451	0.520369
H47	H	0.524591	0.392516	0.000075
H48	H	1.041362	0.083790	0.621622
O49	O	1.047024	0.076082	0.798360
H50	H	1.034773	0.092795	0.869131
H51	H	0.813166	0.395067	0.378569
O52	O	0.826643	0.376734	0.798372
H53	H	0.791982	0.423986	0.751547
O54	O	0.343107	0.060493	0.000126
H55	H	0.334462	0.005681	-0.058671
H56	H	0.556911	0.020282	0.000114
O57	O	0.807513	0.402769	0.201814
H58	H	0.768446	0.456095	0.248639
O59	O	1.018958	0.114315	0.390579
H60	H	1.055316	0.168283	0.431946
O61	O	0.718545	0.011720	0.000089
H62	H	0.682545	-0.064531	0.000089
O63	O	0.835568	0.364553	0.609620
H64	H	0.796505	0.417878	0.656450
O65	O	1.027878	0.102112	0.201825
H66	H	1.062518	0.054839	0.248656
O67	O	0.173023	0.040686	0.000135
H68	H	0.221412	-0.025736	0.000150
O69	O	0.681500	0.438181	0.000065
H70	H	0.633104	0.504597	0.000076
O71	O	0.306068	0.486967	0.000101
H72	H	0.288865	0.530550	-0.058691
O73	O	0.135998	0.467160	0.000109
H74	H	0.073721	0.442503	0.000126
