data_functionalizedCrystal
_audit_creation_method	'MofGen! by Chris Wilmer'
_symmetry_space_group_name_H-M	'P1'
_symmetry_Int_Tables_number	1
_symmetry_cell_setting	triclinic
loop_
_symmetry_equiv_pos_as_xyz
  x,y,z
_cell_length_a	14.044220
_cell_length_b	19.288859
_cell_length_c	17.766277
_cell_angle_alpha	89.989768
_cell_angle_beta	90.004722
_cell_angle_gamma	91.838698
loop_
_atom_site_label
_atom_site_type_symbol
_atom_site_fract_x
_atom_site_fract_y
_atom_site_fract_z
O1	O	-0.118186	0.928949	-0.062608
O2	O	0.381814	1.428949	0.437392
O3	O	-0.134139	0.727713	-0.062606
O4	O	0.365861	1.227713	0.437394
O5	O	0.011809	0.825311	-0.062603
O6	O	0.511809	1.325311	0.437397
O7	O	-0.264135	0.831352	-0.062610
O8	O	0.235865	1.331352	0.437390
O9	O	0.011816	0.825292	0.062585
O10	O	0.511816	1.325292	0.562585
O11	O	-0.134132	0.727694	0.062583
O12	O	0.365868	1.227694	0.562583
O13	O	-0.118179	0.928930	0.062581
O14	O	0.381821	1.428930	0.562581
Cu15	Cu	-0.126155	0.828310	0.074012
Cu16	Cu	0.373845	1.328310	0.574012
Cu17	Cu	-0.126164	0.828333	-0.074037
Cu18	Cu	0.373836	1.328333	0.425963
O19	O	-0.264127	0.831333	0.062578
O20	O	0.235873	1.331333	0.562578
C21	C	-0.133623	0.701794	-0.000011
C22	C	0.366377	1.201794	0.499989
C23	C	-0.132085	0.624592	-0.000011
C24	C	0.367915	1.124592	0.499989
C25	C	-0.207317	0.065385	-0.000013
C26	C	0.292683	0.565385	0.499987
C27	C	-0.208771	0.137924	-0.000017
C28	C	0.291229	0.637924	0.499983
C29	C	-0.123135	0.177129	-0.000014
C30	C	0.376865	0.677129	0.499986
C31	C	-0.036039	0.143788	-0.000026
C32	C	0.463961	0.643788	0.499974
C33	C	-0.034588	0.071249	-0.000029
C34	C	0.465412	0.571249	0.499971
C35	C	-0.059266	0.294289	0.043849
C36	C	0.440734	0.794289	0.543849
C37	C	-0.060720	0.366826	0.043858
C38	C	0.439280	0.866826	0.543858
C39	C	-0.127606	0.400862	-0.000006
C40	C	0.372394	0.900862	0.499994
C41	C	-0.193054	0.362352	-0.043869
C42	C	0.306946	0.862352	0.456131
C43	C	-0.191603	0.289813	-0.043872
C44	C	0.308397	0.789813	0.456128
C45	C	-0.124698	0.255785	-0.000011
C46	C	0.375302	0.755785	0.499989
C47	C	-0.216272	0.512851	-0.000004
C48	C	0.283728	1.012851	0.499996
C49	C	-0.217722	0.585392	-0.000013
C50	C	0.282278	1.085392	0.499987
C51	C	-0.044988	0.591254	-0.000014
C52	C	0.455012	1.091254	0.499986
C53	C	-0.043541	0.518714	-0.000012
C54	C	0.456459	1.018714	0.499988
C55	C	-0.129186	0.479517	-0.000004
C56	C	0.370814	0.979517	0.499996
C57	C	-0.299434	0.833987	-0.000017
C58	C	0.200566	1.333987	0.499983
C59	C	-0.404626	0.841874	-0.000020
C60	C	0.095374	1.341874	0.499980
C61	C	-0.597225	0.856295	-0.000016
C62	C	-0.097225	1.356295	0.499984
C63	C	-0.655099	0.800352	-0.000015
C64	C	-0.155099	1.300352	0.499985
C65	C	-0.762268	0.808375	-0.000013
C66	C	-0.262268	1.308375	0.499987
C67	C	-0.490046	0.848272	-0.000018
C68	C	0.009954	1.348272	0.499982
C69	C	0.047115	0.822657	-0.000010
C70	C	0.547115	1.322657	0.499990
C71	C	0.152307	0.814769	-0.000012
C72	C	0.652307	1.314769	0.499988
C73	C	-0.118695	0.954849	-0.000015
C74	C	0.381305	1.454849	0.499985
C75	C	-0.120233	1.032052	-0.000021
C76	C	0.379767	1.532052	0.499979
N77	N	-0.126148	0.828299	0.178143
N78	N	0.373852	1.328299	0.678143
N79	N	-0.126163	0.828349	-0.178168
N80	N	0.373837	1.328349	0.321832
C81	C	-0.061554	0.871533	0.217531
C82	C	0.438446	1.371533	0.717531
C83	C	-0.061549	0.871537	0.296333
C84	C	0.438451	1.371537	0.796333
C85	C	-0.126156	0.828315	0.335743
C86	C	0.373844	1.328315	0.835743
C87	C	-0.190755	0.785073	0.296346
C88	C	0.309245	1.285073	0.796346
C89	C	-0.190751	0.785065	0.217546
C90	C	0.309249	1.285065	0.717546
C91	C	-0.212499	0.824563	0.460579
C92	C	0.287501	1.324563	0.960579
C93	C	-0.212504	0.824576	0.539378
C94	C	0.287496	1.324576	1.039378
C95	C	-0.126167	0.828334	0.578790
C96	C	0.373833	1.328334	1.078790
C97	C	-0.039821	0.832094	0.539393
C98	C	0.460179	1.332094	1.039393
C99	C	-0.039818	0.832086	0.460592
C100	C	0.460182	1.332086	0.960592
C101	C	-0.126167	0.828318	0.421189
C102	C	0.373833	1.328318	0.921189
C103	C	-0.061563	0.871574	0.703624
C104	C	0.438437	1.371574	1.203624
C105	C	-0.061557	0.871572	0.782427
C106	C	0.438443	1.371572	1.282427
C107	C	-0.190771	0.785112	0.782439
C108	C	0.309229	1.285112	1.282439
C109	C	-0.190768	0.785109	0.703637
C110	C	0.309232	1.285109	1.203637
C111	C	-0.126165	0.828344	0.664234
C112	C	0.373835	1.328344	1.164234
H113	H	-0.247521	0.390062	-0.079585
H114	H	0.252479	0.890062	0.420415
H115	H	-0.624160	0.746431	-0.000014
H116	H	-0.124160	1.246431	0.499986
O117	O	-0.311660	0.621340	-0.000002
O118	O	0.188340	1.121340	0.499998
H119	H	-0.316474	0.654251	-0.051029
H120	H	0.183526	1.154251	0.448971
O121	O	-0.299690	0.023110	-0.000014
O122	O	0.200310	0.523110	0.499986
H123	H	-0.303158	-0.010085	0.051012
H124	H	0.196842	0.489915	0.551012
O125	O	-0.638204	0.927715	-0.000014
O126	O	-0.138204	1.427715	0.499986
H127	H	-0.579278	0.967463	-0.000020
H128	H	-0.079278	1.467463	0.499980
O129	O	0.059347	0.035298	-0.000027
O130	O	0.559347	0.535298	0.499973
H131	H	0.064140	0.002400	-0.051054
H132	H	0.564140	0.502400	0.448946
H133	H	-0.004794	0.266583	0.079570
H134	H	0.495206	0.766583	0.579570
H135	H	-0.008948	0.906735	0.185451
H136	H	0.491052	1.406735	0.685451
O137	O	0.008106	0.918213	0.824916
O138	O	0.508106	1.418213	1.324916
H139	H	0.053015	0.948280	0.784275
H140	H	0.553015	1.448280	1.284275
H141	H	-0.244891	0.258461	-0.079588
H142	H	0.255109	0.758461	0.420412
H143	H	0.024738	0.623174	-0.000017
H144	H	0.524738	1.123174	0.499983
O145	O	0.008112	0.918176	0.338831
O146	O	0.508112	1.418176	0.838831
H147	H	0.053029	0.948242	0.298192
H148	H	0.553029	1.448242	0.798192
O149	O	0.053303	0.836129	0.418096
O150	O	0.553303	1.336129	0.918096
H151	H	0.113342	0.838738	0.458734
H152	H	0.613342	1.338738	0.958734
O153	O	-0.302700	0.173890	0.000002
O154	O	0.197300	0.673890	0.500002
H155	H	-0.362009	0.134447	0.000013
H156	H	0.137991	0.634447	0.500013
O157	O	0.053311	0.836141	0.581886
O158	O	0.553311	1.336141	1.081886
H159	H	0.038807	0.835505	0.643300
H160	H	0.538807	1.335505	1.143300
O161	O	0.056329	0.186066	-0.000014
O162	O	0.556329	0.686066	0.499986
H163	H	0.040690	0.242108	0.000000
H164	H	0.540690	0.742108	0.500000
H165	H	-0.008956	0.906776	0.671541
H166	H	0.491044	1.406776	1.171541
O167	O	-0.260459	0.738493	0.824933
O168	O	0.239541	1.238493	1.324933
H169	H	-0.249615	0.745764	0.886346
H170	H	0.250385	1.245764	1.386346
H171	H	-0.243352	0.749858	0.185475
H172	H	0.256648	1.249858	0.685475
O173	O	-0.260449	0.738488	0.661146
O174	O	0.239551	1.238488	1.161146
H175	H	-0.305380	0.708437	0.701787
H176	H	0.194620	1.208437	1.201787
H177	H	-0.282811	0.821519	0.571449
H178	H	0.217189	1.321519	1.071449
O179	O	-0.305625	0.820515	0.418072
O180	O	0.194375	1.320515	0.918072
H181	H	-0.365664	0.817915	0.458703
H182	H	0.134336	1.317915	0.958703
O183	O	-0.260452	0.738460	0.338843
O184	O	0.239548	1.238460	0.838843
H185	H	-0.220692	0.702245	0.374769
H186	H	0.279308	1.202245	0.874769
O187	O	-0.308639	0.470565	-0.000008
O188	O	0.191361	0.970565	0.499992
H189	H	-0.369441	0.505934	-0.000017
H190	H	0.130559	1.005934	0.499983
O191	O	0.050386	0.482755	-0.000003
O192	O	0.550386	0.982755	0.499997
H193	H	0.109692	0.522201	0.000008
H194	H	0.609692	1.022201	0.500008
H195	H	-0.007433	0.398176	0.079577
H196	H	0.492567	0.898176	0.579577
