data_functionalizedCrystal
_audit_creation_method	'MofGen! by Chris Wilmer'
_symmetry_space_group_name_H-M	'P1'
_symmetry_Int_Tables_number	1
_symmetry_cell_setting	triclinic
loop_
_symmetry_equiv_pos_as_xyz
  x,y,z
_cell_length_a	10.540510
_cell_length_b	10.540539
_cell_length_c	10.268362
_cell_angle_alpha	89.996859
_cell_angle_beta	89.995180
_cell_angle_gamma	84.519401
loop_
_atom_site_label
_atom_site_type_symbol
_atom_site_fract_x
_atom_site_fract_y
_atom_site_fract_z
O1	O	1.685909	0.178721	-0.108302
O2	O	1.316491	0.195617	-0.108302
O3	O	1.509628	0.002462	-0.108300
O4	O	1.492772	0.371876	-0.108303
O5	O	1.509611	0.002454	0.108300
O6	O	1.316474	0.195609	0.108299
O7	O	1.685892	0.178713	0.108299
Cu8	Cu	1.501182	0.187160	0.128076
Cu9	Cu	1.501202	0.187170	-0.128079
O10	O	1.492755	0.371868	0.108297
C11	C	1.269179	0.194354	-0.000002
C12	C	1.128229	0.190587	-0.000002
C13	C	0.910774	0.324771	-0.000501
C14	C	1.057370	0.328789	-0.000005
C15	C	1.083460	0.119836	0.123685
C16	C	0.936699	0.116797	0.123781
C17	C	0.936912	0.113928	-0.122534
C18	C	1.083253	0.120483	-0.124161
C19	C	1.508356	-0.044845	-0.000002
C20	C	1.504574	-0.185793	-0.000009
C21	C	1.359655	-0.369204	-0.000495
C22	C	1.363489	-0.222587	-0.000008
C23	C	1.572461	-0.247462	0.123680
C24	C	1.567646	-0.394006	0.123785
C25	C	1.570534	-0.394516	-0.122531
C26	C	1.571834	-0.247534	-0.124166
C27	C	1.733204	0.179976	-0.000004
C28	C	1.874154	0.183743	-0.000012
C29	C	1.494028	0.419175	-0.000004
C30	C	1.497810	0.560123	-0.000005
N31	N	1.501177	0.187153	0.308242
N32	N	1.501217	0.187167	-0.308245
C33	C	1.501195	0.187167	0.573913
C34	C	1.501181	0.187163	0.426075
H35	H	1.111879	0.171961	-0.215664
H36	H	0.867260	0.378300	0.087699
H37	H	1.524879	-0.426060	-0.216280
C38	C	1.157703	0.509067	-0.078635
C39	C	1.097001	0.403528	-0.119688
H40	H	1.182167	0.555208	-0.152525
H41	H	1.100890	0.562703	-0.026316
H42	H	1.231233	0.480860	-0.029239
H43	H	1.023464	0.431736	-0.169076
H44	H	1.153817	0.349883	-0.172029
C45	C	0.986577	0.445500	0.191571
C46	C	1.095719	0.403934	0.119898
H47	H	1.010256	0.491885	0.265602
H48	H	0.930203	0.498917	0.138592
H49	H	0.945265	0.373881	0.219144
H50	H	1.137026	0.475554	0.092317
H51	H	1.152115	0.350515	0.172887
H52	H	1.310071	-0.179974	-0.088674
H53	H	0.896475	0.165142	0.216238
H54	H	1.303930	-0.397795	-0.089195
H55	H	1.114307	0.168964	0.215733
H56	H	1.304143	-0.399409	0.087708
H57	H	1.309683	-0.180828	0.088805
H58	H	1.517460	-0.422204	0.216245
H59	H	0.868827	0.378616	-0.089204
H60	H	1.676069	-0.225120	0.128279
H61	H	1.669112	-0.441986	0.129396
H62	H	1.132322	0.019586	-0.131630
C63	C	0.976200	0.219847	-0.323516
C64	C	0.879642	0.172895	-0.249104
H65	H	0.940841	0.256253	-0.401652
H66	H	1.014293	0.283054	-0.275222
H67	H	1.038941	0.152070	-0.344156
H68	H	0.816906	0.240675	-0.228456
H69	H	0.841530	0.109683	-0.297407
C70	C	1.461114	-0.286771	0.321433
C71	C	1.508783	-0.189971	0.247948
H72	H	1.421804	-0.251278	0.398151
H73	H	1.400136	-0.326320	0.271394
H74	H	1.529081	-0.348352	0.344608
H75	H	1.440813	-0.128394	0.224765
H76	H	1.569765	-0.150402	0.297996
H77	H	0.913703	0.013430	0.129401
H78	H	1.130849	0.018094	0.128286
H79	H	0.914758	0.010166	-0.123370
C80	C	1.738550	-0.138280	-0.028579
C81	C	1.710701	-0.214865	-0.134253
H82	H	1.824287	-0.118122	-0.034797
H83	H	1.682886	-0.061908	-0.029632
H84	H	1.727382	-0.182882	0.050358
H85	H	1.721859	-0.170259	-0.213190
H86	H	1.766381	-0.291249	-0.133213
H87	H	1.522162	-0.206667	-0.215668
C88	C	1.728505	-0.530555	-0.237464
C89	C	1.708102	-0.458282	-0.123671
H90	H	1.813432	-0.569917	-0.238162
H91	H	1.670595	-0.594234	-0.240167
H92	H	1.715344	-0.476519	-0.311239
H93	H	1.721253	-0.512320	-0.049897
H94	H	1.766030	-0.394595	-0.120957
