data_functionalizedCrystal
_audit_creation_method	'MofGen! by Chris Wilmer'
_symmetry_space_group_name_H-M	'P1'
_symmetry_Int_Tables_number	1
_symmetry_cell_setting	triclinic
loop_
_symmetry_equiv_pos_as_xyz
  x,y,z
_cell_length_a	10.723022
_cell_length_b	10.723024
_cell_length_c	7.681481
_cell_angle_alpha	84.204337
_cell_angle_beta	95.778539
_cell_angle_gamma	84.467548
loop_
_atom_site_label
_atom_site_type_symbol
_atom_site_fract_x
_atom_site_fract_y
_atom_site_fract_z
O1	O	1.645493	0.186730	-0.146413
O2	O	2.145493	0.686730	0.353587
O3	O	1.282340	0.203486	-0.146419
O4	O	1.782340	0.703486	0.353581
O5	O	1.472293	0.013532	-0.146409
O6	O	1.972293	0.513532	0.353591
O7	O	1.455539	0.376685	-0.146423
O8	O	1.955539	0.876685	0.353577
O9	O	1.495673	-0.009902	0.146450
O10	O	1.995673	0.490098	0.646450
O11	O	1.305719	0.180053	0.146440
O12	O	1.805719	0.680053	0.646440
O13	O	1.668873	0.163297	0.146446
O14	O	2.168873	0.663297	0.646446
Zn15	Zn	1.491008	0.167954	0.192941
Zn16	Zn	1.991008	0.667954	0.692941
Zn17	Zn	1.460204	0.198829	-0.192914
Zn18	Zn	1.960204	0.698829	0.307086
O19	O	1.478919	0.353251	0.146436
O20	O	1.978919	0.853251	0.646436
C21	C	1.247530	0.190551	0.000010
C22	C	1.747530	0.690551	0.500010
C23	C	1.108975	0.186904	0.000008
C24	C	1.608975	0.686904	0.500008
C25	C	0.890796	0.289421	0.000001
C26	C	1.390796	0.789421	0.500001
C27	C	1.033999	0.293192	0.000003
C28	C	1.533999	0.793192	0.500003
C29	C	1.482764	-0.044685	0.000018
C30	C	1.982764	0.455315	0.500018
C31	C	1.479116	-0.183238	0.000012
C32	C	1.979116	0.316762	0.500012
C33	C	1.585403	-0.258222	0.000011
C34	C	2.085403	0.241778	0.500011
C35	C	1.581635	-0.401424	0.000005
C36	C	2.081635	0.098576	0.500005
C37	C	1.703682	0.176233	0.000013
C38	C	2.203682	0.676233	0.500013
C39	C	1.842236	0.179880	0.000004
C40	C	2.342236	0.679880	0.500004
C41	C	1.468448	0.411468	0.000005
C42	C	1.968448	0.911468	0.500005
C43	C	1.472095	0.550023	-0.000000
C44	C	1.972095	1.050023	0.500000
N45	N	1.512040	0.146882	0.456276
N46	N	2.012040	0.646882	0.956276
N47	N	1.439182	0.219891	-0.456249
N48	N	1.939182	0.719891	0.043751
H49	H	0.906677	0.088892	-0.000003
H50	H	1.406677	0.588892	0.499997
H51	H	1.364809	0.294411	0.468551
H52	H	1.864809	0.794411	0.968551
O53	O	1.610578	0.048170	0.555871
O54	O	2.110578	0.548170	1.055871
H55	H	1.564108	-0.019557	0.639875
H56	H	2.064108	0.480443	1.139875
H57	H	0.826353	0.380410	-0.000014
H58	H	1.326353	0.880410	0.499986
H59	H	1.067168	0.093115	-0.000036
H60	H	1.567168	0.593115	0.499964
H61	H	1.075812	0.386979	0.000010
H62	H	1.575812	0.886979	0.500010
H63	H	1.679190	-0.216401	0.000023
H64	H	2.179190	0.283599	0.500023
O65	O	1.351559	-0.364640	0.000005
O66	O	1.851559	0.135360	0.500005
H67	H	1.305956	-0.392440	0.119377
H68	H	1.805956	0.107560	0.619377
H69	H	1.672626	-0.465858	0.000012
H70	H	2.172626	0.034142	0.500012
H71	H	1.385329	-0.225059	-0.000001
H72	H	1.885329	0.274941	0.499999
