data_functionalizedCrystal
_audit_creation_method	'MofGen! by Chris Wilmer'
_symmetry_space_group_name_H-M	'P1'
_symmetry_Int_Tables_number	1
_symmetry_cell_setting	triclinic
loop_
_symmetry_equiv_pos_as_xyz
  x,y,z
_cell_length_a	19.077399
_cell_length_b	29.839131
_cell_length_c	19.076919
_cell_angle_alpha	87.739939
_cell_angle_beta	85.520477
_cell_angle_gamma	92.335155
loop_
_atom_site_label
_atom_site_type_symbol
_atom_site_fract_x
_atom_site_fract_y
_atom_site_fract_z
Zn1	Zn	1.061631	-0.160755	0.355347
Zn2	Zn	1.561631	0.339245	0.855347
Zn3	Zn	1.066265	-0.232740	0.237446
Zn4	Zn	1.566265	0.267260	0.737446
Zn5	Zn	0.948486	-0.160767	0.242202
Zn6	Zn	1.448486	0.339233	0.742202
Zn7	Zn	0.943692	-0.239002	0.360013
Zn8	Zn	1.443692	0.260998	0.860013
O9	O	1.005018	-0.198316	0.298752
O10	O	1.505018	0.301684	0.798752
O11	O	1.160895	-0.167678	0.335765
O12	O	1.660895	0.332322	0.835765
O13	O	1.054587	-0.220577	0.139431
O14	O	1.554587	0.279423	0.639431
O15	O	0.963561	-0.097897	0.257248
O16	O	1.463561	0.402103	0.757248
O17	O	1.164300	-0.220565	0.249144
O18	O	1.664300	0.279435	0.749144
O19	O	1.046688	-0.097888	0.340376
O20	O	1.546688	0.402112	0.840376
O21	O	0.968055	-0.167699	0.142925
O22	O	1.468055	0.332301	0.642925
O23	O	0.849201	-0.173771	0.261773
O24	O	1.349201	0.326229	0.761773
O25	O	0.955391	-0.231238	0.458041
O26	O	1.455391	0.268762	0.958041
O27	O	0.845679	-0.231250	0.348328
O28	O	1.345679	0.268750	0.848328
O29	O	1.042040	-0.173750	0.454613
O30	O	1.542040	0.326250	0.954613
O31	O	1.049939	-0.296439	0.253668
O32	O	1.549939	0.203561	0.753668
O33	O	0.959885	-0.301039	0.343717
O34	O	1.459885	0.198961	0.843717
C35	C	0.821861	-0.203191	0.306073
C36	C	1.321861	0.296809	0.806073
C37	C	0.743505	-0.205288	0.309222
C38	C	1.243505	0.294712	0.809222
C39	C	0.708503	-0.176306	0.265710
C40	C	1.208503	0.323694	0.765710
C41	C	0.634879	-0.178280	0.268668
C42	C	1.134879	0.321720	0.768668
C43	C	0.596258	-0.209235	0.315142
C44	C	1.096258	0.290765	0.815142
C45	C	0.631265	-0.238220	0.358655
C46	C	1.131265	0.261780	0.858655
C47	C	0.704888	-0.236248	0.355693
C48	C	1.204888	0.263752	0.855693
C49	C	0.375876	-0.218349	0.328823
C50	C	0.875876	0.281651	0.828823
C51	C	0.302248	-0.220319	0.331783
C52	C	0.802248	0.279681	0.831783
C53	C	0.305867	-0.160379	0.241795
C54	C	0.805867	0.339621	0.741795
C55	C	0.379491	-0.158407	0.238840
C56	C	0.879491	0.341593	0.738840
C57	C	0.414492	-0.187394	0.282350
C58	C	0.914492	0.312606	0.782350
N59	N	0.521003	-0.211253	0.318168
N60	N	1.021003	0.288747	0.818168
N61	N	0.489746	-0.185378	0.279320
N62	N	0.989746	0.314622	0.779320
C63	C	1.004913	-0.315040	0.298697
C64	C	1.504913	0.184960	0.798697
C65	C	1.004932	-0.364974	0.298695
C66	C	1.504932	0.135026	0.798695
C67	C	1.048290	-0.674579	0.342101
C68	C	1.548290	-0.174579	0.842101
C69	C	1.048365	-0.862251	0.342141
C70	C	1.548365	-0.362251	0.842141
O71	O	1.085127	-0.886485	0.379007
O72	O	1.585127	-0.386485	0.879007
N73	N	1.005135	-0.885757	0.298826
N74	N	1.505135	-0.385757	0.798826
C75	C	0.961880	-0.862342	0.255501
C76	C	1.461880	-0.362342	0.755501
O77	O	0.925106	-0.886642	0.218665
O78	O	1.425106	-0.386642	0.718665
C79	C	0.961802	-0.674671	0.255466
C80	C	1.461802	-0.174671	0.755466
C81	C	1.005040	-0.651167	0.298779
C82	C	1.505040	-0.151167	0.798779
C83	C	1.091525	-0.651075	0.385411
C84	C	1.591525	-0.151075	0.885411
C85	C	1.091508	-0.604159	0.385398
C86	C	1.591508	-0.104159	0.885398
C87	C	1.048258	-0.580748	0.342075
C88	C	1.548258	-0.080748	0.842075
C89	C	1.005024	-0.604252	0.298766
C90	C	1.505024	-0.104252	0.798766
C91	C	0.918543	-0.651257	0.212146
C92	C	1.418543	-0.151257	0.712146
C93	C	0.918526	-0.604337	0.212142
C94	C	1.418526	-0.104337	0.712142
C95	C	0.961764	-0.580833	0.255455
C96	C	1.461764	-0.080833	0.755455
C97	C	0.961757	-0.533925	0.255430
C98	C	1.461757	-0.033925	0.755430
N99	N	1.004987	-0.510419	0.298745
N100	N	1.504987	-0.010419	0.798745
C101	C	1.048237	-0.533830	0.342068
C102	C	1.548237	-0.033830	0.842068
C103	C	0.961925	-0.960872	0.255522
C104	C	1.461925	-0.460872	0.755522
C105	C	0.961945	-1.007790	0.255529
C106	C	1.461945	-0.507790	0.755529
C107	C	1.048430	-1.007695	0.342170
C108	C	1.548430	-0.507695	0.842170
C109	C	1.048413	-0.960777	0.342158
C110	C	1.548413	-0.460777	0.842158
C111	C	1.005155	-0.937366	0.298837
C112	C	1.505155	-0.437366	0.798837
C113	C	1.048200	-0.435305	0.342036
C114	C	1.548200	0.064695	0.842036
C115	C	1.048182	-0.388385	0.342017
C116	C	1.548182	0.111615	0.842017
C117	C	0.961695	-0.388484	0.255380
C118	C	1.461695	0.111516	0.755380
C119	C	0.961716	-0.435399	0.255396
C120	C	1.461716	0.064601	0.755396
C121	C	1.004970	-0.458809	0.298730
C122	C	1.504970	0.041191	0.798730
O123	O	0.925009	-0.509662	0.218589
O124	O	1.425009	-0.009662	0.718589
O125	O	1.084994	-0.509523	0.378909
O126	O	1.584994	-0.009523	0.878909
C127	C	1.048307	-0.721494	0.342114
C128	C	1.548307	-0.221494	0.842114
C129	C	1.005073	-0.744998	0.298805
C130	C	1.505073	-0.244998	0.798805
C131	C	0.961822	-0.721586	0.255482
C132	C	1.461822	-0.221586	0.755482
C133	C	1.005093	-0.791915	0.298813
C134	C	1.505093	-0.291915	0.798813
C135	C	1.048343	-0.815327	0.342135
C136	C	1.548343	-0.315327	0.842135
C137	C	1.091574	-0.791821	0.385450
C138	C	1.591574	-0.291821	0.885450
C139	C	1.091557	-0.744906	0.385437
C140	C	1.591557	-0.244906	0.885437
C141	C	0.918592	-0.745092	0.212167
C142	C	1.418592	-0.245092	0.712167
C143	C	0.918612	-0.792008	0.212183
C144	C	1.418612	-0.292008	0.712183
C145	C	0.961863	-0.815419	0.255506
C146	C	1.461863	-0.315419	0.755506
C147	C	1.188891	-0.193422	0.291403
C148	C	1.688891	0.306578	0.791403
C149	C	1.267246	-0.191336	0.288272
C150	C	1.767246	0.308664	0.788272
C151	C	0.997664	-0.203191	0.482620
C152	C	1.497664	0.296809	0.982620
C153	C	0.994530	-0.205268	0.560973
C154	C	1.494530	0.294732	1.060973
C155	C	1.005143	-0.081136	0.298822
C156	C	1.505143	0.418864	0.798822
C157	C	1.005195	-0.031201	0.298852
C158	C	1.505195	0.468799	0.798852
C159	C	1.012385	-0.193426	0.115598
C160	C	1.512385	0.306574	0.615598
C161	C	1.015655	-0.191219	0.037240
C162	C	1.515655	0.308781	0.537240
C163	C	1.038169	-0.176315	0.596000
C164	C	1.538169	0.323685	1.096000
C165	C	1.035216	-0.178265	0.669622
C166	C	1.535216	0.321735	1.169622
C167	C	0.988626	-0.209172	0.708215
C168	C	1.488626	0.290828	1.208215
C169	C	0.944983	-0.238127	0.673183
C170	C	1.444983	0.261873	1.173183
C171	C	0.947933	-0.236174	0.599563
C172	C	1.447933	0.263826	1.099563
C173	C	0.974962	-0.218220	0.928588
C174	C	1.474962	0.281780	1.428588
C175	C	0.972017	-0.220172	1.002213
C176	C	1.472017	0.279828	1.502213
C177	C	1.062249	-0.160310	0.998647
C178	C	1.562249	0.339690	1.498647
C179	C	1.065198	-0.158362	0.925025
C180	C	1.565198	0.341638	1.425025
C181	C	1.021552	-0.187315	0.890000
C182	C	1.521552	0.312685	1.390000
N183	N	0.985608	-0.211167	0.783468
N184	N	1.485608	0.288833	1.283468
N185	N	1.024567	-0.185317	0.814748
N186	N	1.524567	0.314683	1.314748
H187	H	0.599815	-0.263427	0.396492
H188	H	1.099815	0.236573	0.896492
O189	O	0.915092	-0.460758	0.208677
O190	O	1.415092	0.039242	0.708677
H191	H	0.859269	-0.453576	0.222932
H192	H	1.359269	0.046424	0.722932
O193	O	0.742646	-0.267505	0.402627
O194	O	1.242646	0.232495	0.902627
H195	H	0.703423	-0.289358	0.435446
H196	H	1.203423	0.210642	0.935446
O197	O	0.268113	-0.129118	0.194866
O198	O	0.768113	0.370882	0.694866
H199	H	0.307337	-0.107261	0.162056
H200	H	0.807337	0.392739	0.662056
H201	H	0.270805	-0.245526	0.369632
H202	H	0.770805	0.254474	0.869632
H203	H	0.926698	-0.941814	0.220242
H204	H	1.426698	-0.441814	0.720242
H205	H	0.404365	-0.241953	0.364252
H206	H	0.904365	0.258047	0.864252
H207	H	0.739943	-0.151096	0.227871
H208	H	1.239943	0.348904	0.727871
H209	H	0.606384	-0.154682	0.233232
H210	H	1.106384	0.345318	0.733232
O211	O	0.927892	-0.249439	0.890797
O212	O	1.427892	0.250561	1.390797
H213	H	0.893399	-0.229383	0.858710
H214	H	1.393399	0.270617	1.358710
H215	H	0.934076	-0.245341	1.033634
H216	H	1.434076	0.254659	1.533634
H217	H	1.076109	-0.151149	0.564583
H218	H	1.576109	0.348851	1.064583
O219	O	0.915315	-1.033133	0.208803
O220	O	1.415315	-0.533133	0.708803
H221	H	0.948337	-1.052707	0.171698
H222	H	1.448337	-0.552707	0.671698
H223	H	1.097782	-0.136737	1.027173
H224	H	1.597782	0.363263	1.527173
H225	H	0.883334	-0.670386	0.176876
H226	H	1.383334	-0.170386	0.676876
O227	O	0.894727	-0.271461	0.714803
O228	O	1.394727	0.228539	1.214803
H229	H	0.900009	-0.267957	0.771881
H230	H	1.400009	0.232043	1.271881
O231	O	1.115448	-0.125024	0.883405
O232	O	1.615448	0.374976	1.383405
H233	H	1.110173	-0.128534	0.826327
H234	H	1.610173	0.371466	1.326327
O235	O	0.421148	-0.125033	0.188694
O236	O	0.921148	0.374967	0.688694
H237	H	0.384440	-0.105217	0.158923
H238	H	0.884440	0.394783	0.658923
H239	H	0.912390	-0.259747	0.571045
H240	H	1.412390	0.240253	1.071045
H241	H	1.083395	-0.369250	0.377287
H242	H	1.583395	0.130750	0.877287
H243	H	1.083417	-0.454359	0.377328
H244	H	1.583417	0.045641	0.877328
H245	H	1.083647	-1.026765	0.377444
H246	H	1.583647	-0.526765	0.877444
H247	H	1.126714	-0.585025	0.420669
H248	H	1.626714	-0.085025	0.920669
O249	O	1.138180	-0.676322	0.432139
O250	O	1.638180	-0.176322	0.932139
H251	H	1.168238	-0.652089	0.462245
H252	H	1.668238	-0.152089	0.962245
H253	H	1.083620	-0.941642	0.377427
H254	H	1.583620	-0.441642	0.877427
H255	H	0.883298	-0.585278	0.176865
H256	H	1.383298	-0.085278	0.676865
O257	O	0.915045	-0.363229	0.208655
O258	O	1.415045	0.136771	0.708655
H259	H	0.922296	-0.326657	0.215934
H260	H	1.422296	0.173343	0.715934
O261	O	1.138202	-0.719560	0.432148
O262	O	1.638202	-0.219560	0.932148
H263	H	1.123860	-0.730342	0.487952
H264	H	1.623860	-0.230342	0.987952
O265	O	1.138218	-0.817076	0.432186
O266	O	1.638218	-0.317076	0.932186
H267	H	1.130954	-0.853649	0.424918
H268	H	1.630954	-0.353649	0.924918
O269	O	0.871973	-0.817357	0.165466
O270	O	1.371973	-0.317357	0.665466
H271	H	0.841892	-0.793191	0.135347
H272	H	1.341892	-0.293191	0.635347
H273	H	0.883371	-0.726034	0.176889
H274	H	1.383371	-0.226034	0.676889
H275	H	1.070753	-0.154689	0.698138
H276	H	1.570753	0.345311	1.198138
