data_functionalizedCrystal
_audit_creation_method	'MofGen! by Chris Wilmer'
_symmetry_space_group_name_H-M	'P1'
_symmetry_Int_Tables_number	1
_symmetry_cell_setting	triclinic
loop_
_symmetry_equiv_pos_as_xyz
  x,y,z
_cell_length_a	16.120484
_cell_length_b	17.077404
_cell_length_c	17.077396
_cell_angle_alpha	89.981638
_cell_angle_beta	92.868746
_cell_angle_gamma	92.923471
loop_
_atom_site_label
_atom_site_type_symbol
_atom_site_fract_x
_atom_site_fract_y
_atom_site_fract_z
Zn1	Zn	-0.331952	1.184192	-0.459652
Zn2	Zn	-0.471376	1.177436	-0.335036
Zn3	Zn	-0.331976	1.052923	-0.328403
Zn4	Zn	-0.471321	1.046232	-0.466259
O5	O	-0.401656	1.115196	-0.397338
O6	O	-0.350460	1.293142	-0.443132
O7	O	-0.452917	1.160892	-0.224311
O8	O	-0.215307	1.075963	-0.340273
O9	O	-0.452894	1.288179	-0.351577
O10	O	-0.215290	1.172406	-0.436700
O11	O	-0.350500	1.069413	-0.219438
O12	O	-0.350447	0.942189	-0.346680
O13	O	-0.452800	1.064560	-0.575228
O14	O	-0.452823	0.937273	-0.447962
O15	O	-0.350407	1.165918	-0.570374
O16	O	-0.588034	1.154405	-0.357984
O17	O	-0.587994	1.058009	-0.454393
C18	C	-0.401632	0.911249	-0.397319
C19	C	-0.401642	0.823999	-0.397330
C20	C	-0.348400	0.785589	-0.445084
C21	C	-0.348405	0.703608	-0.445088
C22	C	-0.401658	0.660039	-0.397342
C23	C	-0.454903	0.698454	-0.349583
C24	C	-0.454893	0.780433	-0.349575
C25	C	-0.454922	0.527583	-0.349603
C26	C	-0.454933	0.445598	-0.349611
C27	C	-0.348434	0.450758	-0.445116
C28	C	-0.348424	0.532737	-0.445108
C29	C	-0.401670	0.571147	-0.397350
C30	C	-0.618264	1.104769	-0.407642
C31	C	-0.710930	1.100380	-0.412077
C32	C	-0.880591	1.092372	-0.420190
C33	C	-0.921881	1.138160	-0.374498
C34	C	-1.016286	1.133704	-0.379012
C35	C	-0.786177	1.096827	-0.415677
C36	C	-0.184202	1.125684	-0.387010
C37	C	-0.091537	1.130154	-0.382609
C38	C	-0.401595	1.115246	-0.602079
C39	C	-0.401568	1.115268	-0.689328
C40	C	-0.401680	1.319939	-0.397357
C41	C	-0.401691	1.407188	-0.397365
C42	C	-0.348248	1.168047	-0.727791
C43	C	-0.348220	1.168058	-0.809770
C44	C	-0.401518	1.115292	-0.853285
C45	C	-0.454841	1.062507	-0.814816
C46	C	-0.454864	1.062493	-0.732838
C47	C	-0.454791	1.062541	-0.985683
C48	C	-0.454769	1.062556	-1.067667
C49	C	-0.348147	1.168106	-1.062616
C50	C	-0.348170	1.168092	-0.980638
C51	C	-0.401494	1.115307	-0.942175
C52	C	-0.401657	1.115193	-0.193390
C53	C	-0.401448	1.115335	-0.106130
H54	H	-0.498258	0.662973	-0.310703
H55	H	-0.916140	1.049829	-0.462693
O56	O	-0.874794	1.194519	-0.318191
H57	H	-0.891515	1.180319	-0.257356
O58	O	-0.512321	0.821860	-0.298068
H59	H	-0.474943	0.860980	-0.256403
O60	O	-0.290628	1.225032	-1.104102
H61	H	-0.304947	1.285947	-1.089066
O62	O	-0.290762	1.224959	-0.680858
H63	H	-0.253675	1.261656	-0.721380
H64	H	-0.304803	1.211038	-0.841083
O65	O	-0.290691	1.225005	-0.933700
H66	H	-0.253602	1.261708	-0.974216
H67	H	-0.498167	1.019588	-1.103094
O68	O	-0.512298	1.005606	-0.944193
H69	H	-0.549360	0.968920	-0.988222
O70	O	-0.512320	1.005590	-0.861749
H71	H	-0.577760	1.015885	-0.849120
O72	O	-0.290958	0.832582	-0.496577
H73	H	-0.253929	0.792097	-0.529776
O74	O	-0.290976	0.662180	-0.496592
H75	H	-0.305362	0.677241	-0.558861
O76	O	-0.290983	0.579736	-0.496598
H77	H	-0.253951	0.539257	-0.529801
O78	O	-0.290994	0.409337	-0.496620
H79	H	-0.328363	0.370200	-0.538275
O80	O	-0.512360	0.398600	-0.298108
H81	H	-0.549374	0.439079	-0.264887
O82	O	-0.512352	0.569015	-0.298096
H83	H	-0.549391	0.524947	-0.264902
O84	O	-0.512362	1.005558	-0.691345
H85	H	-0.549421	0.968868	-0.735374
