data_functionalizedCrystal
_audit_creation_method	'MofGen! by Chris Wilmer'
_symmetry_space_group_name_H-M	'P1'
_symmetry_Int_Tables_number	1
_symmetry_cell_setting	triclinic
loop_
_symmetry_equiv_pos_as_xyz
  x,y,z
_cell_length_a	12.837943
_cell_length_b	10.540539
_cell_length_c	11.295483
_cell_angle_alpha	94.138588
_cell_angle_beta	85.461227
_cell_angle_gamma	89.677216
loop_
_atom_site_label
_atom_site_type_symbol
_atom_site_fract_x
_atom_site_fract_y
_atom_site_fract_z
O1	O	1.384822	0.322576	-0.098993
O2	O	1.082896	0.306260	-0.099000
O3	O	1.240747	0.130469	-0.098995
O4	O	1.226971	0.498368	-0.098998
O5	O	1.226883	0.145882	0.099055
O6	O	1.069032	0.321674	0.099050
O7	O	1.370958	0.337990	0.099057
Cu8	Cu	1.218729	0.331239	0.117137
Cu9	Cu	1.235125	0.313011	-0.117080
O10	O	1.213106	0.513782	0.099052
C11	C	1.037303	0.308455	0.000024
C12	C	0.922104	0.292017	0.000021
C13	C	0.682608	0.489637	0.000036
C14	C	0.574368	0.474197	0.000034
C15	C	0.597381	0.245700	0.000023
C16	C	0.705621	0.261140	0.000025
C17	C	0.748230	0.383112	0.000030
C18	C	0.856473	0.398549	0.000023
C19	C	0.879484	0.170054	0.000021
C20	C	0.771244	0.154615	0.000019
C21	C	1.232782	0.090759	0.000028
C22	C	1.229692	-0.050529	0.000022
C23	C	1.111280	-0.247004	-0.000426
C24	C	1.114382	-0.100007	0.000020
C25	C	1.277266	-0.097288	0.113119
C26	C	1.273324	-0.244258	0.113215
C27	C	1.291436	-0.262047	-0.112006
C28	C	1.292603	-0.115064	-0.113501
C29	C	1.416551	0.335795	0.000031
C30	C	1.531750	0.352233	0.000026
C31	C	1.221072	0.553491	0.000026
C32	C	1.224163	0.694779	0.000025
N33	N	1.207204	0.344061	0.281873
N34	N	1.246658	0.300181	-0.281816
C35	C	1.329620	0.207816	0.531167
C36	C	1.320918	0.217515	0.655830
C37	C	1.181093	0.373150	0.655866
C38	C	1.189795	0.363451	0.531202
C39	C	1.264062	0.280783	0.468857
C40	C	1.272769	0.271091	0.344192
C41	C	1.132940	0.426719	0.344229
C42	C	1.124238	0.436418	0.468892
H43	H	1.071408	-0.286920	-0.081530
H44	H	1.232827	-0.052374	0.197281
H45	H	1.355894	-0.282716	0.118347
H46	H	0.736536	0.055309	0.000029
H47	H	1.390098	0.140514	0.480405
H48	H	1.361652	-0.065303	0.117326
O49	O	0.902429	0.530102	0.000031
H50	H	0.988721	0.522946	0.000020
O51	O	1.100991	0.462287	0.723136
H52	H	1.021663	0.434385	0.699234
O53	O	1.044145	0.525587	0.536136
H54	H	1.049111	0.520082	0.633292
O55	O	1.062216	0.505420	0.277027
H56	H	1.080737	0.484784	0.179866
O57	O	1.249953	-0.318093	-0.225560
H58	H	1.180916	-0.377353	-0.203411
H59	H	0.520940	0.560942	0.000042
O60	O	0.728577	0.621182	0.000043
H61	H	0.664759	0.692665	0.000052
O62	O	0.551416	0.114153	0.000037
H63	H	0.465125	0.121320	0.000038
H64	H	0.932927	0.083313	0.000008
H65	H	1.257857	-0.085178	-0.197168
H66	H	1.060270	-0.275919	0.080222
H67	H	1.076394	-0.068510	-0.081053
H68	H	1.064727	-0.056761	0.081226
H69	H	1.226395	-0.270383	0.197755
H70	H	1.377150	-0.082138	-0.120328
H71	H	1.374776	-0.300181	-0.112764
H72	H	1.333243	0.203782	0.293431
H73	H	1.374300	0.158097	0.706559
