data_functionalizedCrystal
_audit_creation_method	'MofGen! by Chris Wilmer'
_symmetry_space_group_name_H-M	'P1'
_symmetry_Int_Tables_number	1
_symmetry_cell_setting	triclinic
loop_
_symmetry_equiv_pos_as_xyz
  x,y,z
_cell_length_a	10.654541
_cell_length_b	14.750779
_cell_length_c	10.654555
_cell_angle_alpha	102.765038
_cell_angle_beta	84.486741
_cell_angle_gamma	77.232485
loop_
_atom_site_label
_atom_site_type_symbol
_atom_site_fract_x
_atom_site_fract_y
_atom_site_fract_z
O1	O	1.640839	0.079790	0.203383
O2	O	1.275358	0.079798	0.220195
O3	O	1.466494	0.079794	0.029050
O4	O	1.449702	0.079795	0.394527
O5	O	1.520526	-0.079858	-0.024978
O6	O	1.329390	-0.079853	0.166166
O7	O	1.694871	-0.079861	0.149354
Zn8	Zn	1.520709	-0.105205	0.149182
Zn9	Zn	1.449519	0.105142	0.220367
O10	O	1.503734	-0.079857	0.340499
C11	C	1.255575	-0.000026	0.191947
C12	C	1.116130	-0.000023	0.188258
N13	N	1.569303	-0.248762	0.100600
C14	C	1.088165	-0.000011	0.416825
C15	C	1.008672	-0.000001	0.529371
C16	C	0.877653	0.000000	0.525896
C17	C	0.826127	-0.000012	0.409861
C18	C	0.905620	-0.000022	0.297315
C19	C	1.036639	-0.000020	0.300804
C20	C	0.933588	-0.000041	0.068748
C21	C	1.064605	-0.000035	0.072223
C22	C	0.882062	-0.000053	-0.047286
C23	C	0.961553	-0.000057	-0.159833
C24	C	1.092579	-0.000057	-0.156352
C25	C	1.144098	-0.000046	-0.040323
C26	C	1.265218	-0.600573	0.404567
C27	C	1.299279	-0.701073	0.370532
C28	C	1.468566	-0.701040	0.201337
C29	C	1.434515	-0.600538	0.235354
C30	C	1.332841	-0.550313	0.336971
C31	C	1.502138	-0.550277	0.167757
C32	C	1.468094	-0.449784	0.201776
C33	C	1.366427	-0.399552	0.303391
C34	C	1.298797	-0.449819	0.370989
C35	C	1.603818	-0.600504	0.066146
C36	C	1.671441	-0.550243	-0.001450
C37	C	1.637391	-0.449748	0.032562
C38	C	1.535724	-0.399516	0.134178
C39	C	1.705021	-0.399481	-0.035036
C40	C	1.670977	-0.298987	-0.001017
C41	C	1.501680	-0.299023	0.168196
C42	C	1.714652	-0.000034	0.177603
C43	C	1.854095	-0.000031	0.181294
C44	C	1.492273	-0.000030	-0.044761
C45	C	1.488574	-0.000024	-0.184202
N46	N	1.400935	0.248699	0.268939
C47	C	1.540544	-0.174088	-0.505138
C48	C	1.571728	-0.261115	-0.469075
C49	C	1.575197	-0.261116	-0.338056
C50	C	1.547474	-0.174079	-0.243094
C51	C	1.516290	-0.087051	-0.279157
C52	C	1.512828	-0.087060	-0.410183
C53	C	1.457389	0.087004	-0.220265
C54	C	1.453929	0.087006	-0.351284
C55	C	1.429666	0.174041	-0.125303
C56	C	1.398490	0.261070	-0.161366
C57	C	1.395024	0.261067	-0.292394
C58	C	1.422744	0.174034	-0.387347
C59	C	1.477954	-0.000031	0.414311
C60	C	1.481652	-0.000031	0.553754
H61	H	1.194838	0.000010	0.419674
H62	H	1.182416	-0.559678	0.487305
H63	H	1.157297	-0.000068	-0.248003
C64	C	0.790208	0.000011	0.649701
N65	N	0.724344	0.000021	0.742952
H66	H	1.338714	-0.317724	0.331092
H67	H	0.919589	-0.000066	-0.254299
H68	H	1.050639	0.000007	0.623844
C69	C	0.682006	-0.000021	0.406042
N70	N	0.573452	-0.000028	0.403164
H71	H	1.250774	-0.000034	-0.037474
H72	H	1.551354	-0.741945	0.118602
C73	C	1.389782	-0.243769	0.279930
N74	N	1.305489	-0.202152	0.364069
C75	C	1.433484	0.174038	0.018821
N76	N	1.436364	0.174037	0.127376
C77	C	1.186899	-0.394566	0.482723
N78	N	1.102606	-0.352949	0.566862
H79	H	1.244204	-0.741991	0.425588
C80	C	1.641264	-0.711051	0.028727
N81	N	1.669466	-0.794314	0.000542
C82	C	0.737938	-0.000053	-0.051106
N83	N	0.629381	-0.000049	-0.053984
C84	C	1.816864	-0.454742	-0.146807
N85	N	1.901104	-0.496365	-0.230996
C86	C	1.551280	-0.174084	-0.098970
N87	N	1.554147	-0.174087	0.009586
H88	H	1.754228	-0.591148	-0.084185
C89	C	1.745362	-0.243697	-0.075380
N90	N	1.801394	-0.202053	-0.131391
C91	C	1.368004	0.356800	-0.056904
N92	N	1.345046	0.428905	0.021781
H93	H	1.369619	0.331936	-0.321744
C94	C	1.536743	-0.174096	-0.649267
N95	N	1.533879	-0.174104	-0.757827
H96	H	1.594296	-0.331979	-0.546407
C97	C	1.609501	-0.356850	-0.298386
N98	N	1.635342	-0.428957	-0.268507
C99	C	1.418932	0.174022	-0.531476
N100	N	1.416056	0.174009	-0.640035
