data_functionalizedCrystal
_audit_creation_method	'MofGen! by Chris Wilmer'
_symmetry_space_group_name_H-M	'P1'
_symmetry_Int_Tables_number	1
_symmetry_cell_setting	triclinic
loop_
_symmetry_equiv_pos_as_xyz
  x,y,z
_cell_length_a	17.699077
_cell_length_b	15.500227
_cell_length_c	17.019370
_cell_angle_alpha	83.303218
_cell_angle_beta	83.337776
_cell_angle_gamma	92.838078
loop_
_atom_site_label
_atom_site_type_symbol
_atom_site_fract_x
_atom_site_fract_y
_atom_site_fract_z
O1	O	1.007319	0.064751	0.096429
O2	O	1.507319	0.564751	0.596429
O3	O	0.786901	0.063785	0.109461
O4	O	1.286901	0.563785	0.609461
O5	O	0.903678	0.072848	-0.012335
O6	O	1.403678	0.572848	0.487665
O7	O	0.890542	0.055689	0.218225
O8	O	1.390542	0.555689	0.718225
O9	O	0.896592	-0.071589	-0.004973
O10	O	1.396592	0.428411	0.495027
O11	O	0.779815	-0.080651	0.116823
O12	O	1.279815	0.419349	0.616823
O13	O	1.000233	-0.079685	0.103791
O14	O	1.500233	0.420315	0.603791
Cu15	Cu	0.889377	-0.093356	0.110979
Cu16	Cu	1.389377	0.406644	0.610979
Cu17	Cu	0.897757	0.077456	0.102273
Cu18	Cu	1.397757	0.577456	0.602273
O19	O	0.883456	-0.088747	0.225587
O20	O	1.383456	0.411253	0.725587
C21	C	0.755163	-0.008398	0.112676
C22	C	1.255163	0.491602	0.612676
C23	C	0.671148	-0.008292	0.111278
C24	C	1.171148	0.491708	0.611278
C25	C	0.627820	-0.086976	0.114632
C26	C	1.127820	0.413024	0.614632
C27	C	0.548882	-0.086879	0.113305
C28	C	1.048882	0.413121	0.613305
C29	C	0.513272	-0.008096	0.108630
C30	C	1.013272	0.491904	0.608630
C31	C	0.556606	0.070594	0.105273
C32	C	1.056606	0.570594	0.605273
C33	C	0.635544	0.070496	0.106594
C34	C	1.135544	0.570496	0.606594
C35	C	0.238259	0.070993	0.099944
C36	C	0.738259	0.570993	0.599944
C37	C	0.159315	0.071085	0.098626
C38	C	0.659315	0.571085	0.598626
C39	C	0.151596	-0.086382	0.106655
C40	C	0.651596	0.413618	0.606655
C41	C	0.230534	-0.086480	0.107976
C42	C	0.730534	0.413520	0.607976
C43	C	0.273862	-0.007790	0.104615
C44	C	0.773862	0.492210	0.604615
C45	C	0.359457	-0.007897	0.106052
C46	C	0.859457	0.492103	0.606052
C47	C	0.427678	-0.007989	0.107198
C48	C	0.927678	0.492011	0.607198
N49	N	0.883488	-0.213497	0.117102
N50	N	1.383488	0.286503	0.617102
C51	C	0.932988	-0.254935	0.065512
C52	C	1.432988	0.245065	0.565512
C53	C	0.928541	-0.345853	0.070150
C54	C	1.428541	0.154147	0.570150
C55	C	0.874598	-0.395331	0.126383
C56	C	1.374598	0.104669	0.626383
C57	C	0.825093	-0.353887	0.177976
C58	C	1.325093	0.146113	0.677976
C59	C	0.829537	-0.262971	0.173333
C60	C	1.329537	0.237029	0.673333
C61	C	0.858591	-0.670042	0.143094
C62	C	1.358591	-0.170042	0.643094
C63	C	0.854152	-0.760965	0.147734
C64	C	1.354152	-0.260965	0.647734
C65	C	0.957600	-0.752924	0.039907
C66	C	1.457600	-0.252924	0.539907
C67	C	0.962042	-0.662006	0.035272
C68	C	1.462042	-0.162006	0.535272
C69	C	0.912534	-0.620570	0.086862
C70	C	1.412534	-0.120570	0.586862
C71	C	0.870053	-0.488264	0.131127
C72	C	1.370053	0.011736	0.631127
C73	C	0.917076	-0.527638	0.082114
C74	C	1.417076	-0.027638	0.582114
C75	C	1.031972	-0.007500	0.100576
C76	C	1.531972	0.492500	0.600576
C77	C	1.115986	-0.007600	0.101974
C78	C	1.615986	0.492400	0.601974
C79	C	0.899777	0.002827	-0.038154
C80	C	1.399777	0.502827	0.461846
C81	C	0.898699	0.009374	-0.126054
C82	C	1.398699	0.509374	0.373946
N83	N	0.903652	0.197597	0.096143
N84	N	1.403652	0.697597	0.596143
C85	C	0.894329	-0.066279	-0.163344
C86	C	1.394329	0.433721	0.336656
C87	C	0.893322	-0.060119	-0.245937
C88	C	1.393322	0.439881	0.254063
C89	C	0.896680	0.021693	-0.291237
C90	C	1.396680	0.521693	0.208763
C91	C	0.901053	0.097352	-0.253942
C92	C	1.401053	0.597352	0.246058
C93	C	0.902065	0.091191	-0.171352
C94	C	1.402065	0.591191	0.328648
C95	C	0.893821	0.044232	-0.540808
C96	C	1.393821	0.544232	-0.040808
C97	C	0.892806	0.050387	-0.623404
C98	C	1.392806	0.550387	-0.123404
C99	C	0.885076	-0.107085	-0.615393
C100	C	1.385076	0.392915	-0.115393
C101	C	0.886084	-0.113238	-0.532801
C102	C	1.386084	0.386762	-0.032801
C103	C	0.890461	-0.037580	-0.495513
C104	C	1.390461	0.462420	0.004487
C105	C	0.895648	0.027991	-0.375660
C106	C	1.395648	0.527991	0.124340
C107	C	0.891498	-0.043879	-0.411093
C108	C	1.391498	0.456121	0.088907
C109	C	0.887357	-0.018725	0.251406
C110	C	1.387357	0.481275	0.751406
C111	C	0.888435	-0.025266	0.339306
C112	C	1.388435	0.474734	0.839306
H113	H	0.273527	0.135067	0.097205
H114	H	0.773527	0.635067	0.597205
H115	H	0.897383	0.105839	-0.510459
H116	H	1.397383	0.605839	-0.010459
H117	H	0.891582	-0.132900	-0.126464
H118	H	1.391582	0.367100	0.373536
O119	O	0.772657	-0.402038	0.232496
O120	O	1.272657	0.097962	0.732496
C121	C	0.723588	-0.451479	0.192835
C122	C	1.223588	0.048521	0.692835
H123	H	0.753363	-0.460484	0.131528
H124	H	1.253363	0.039516	0.631528
H125	H	0.708335	-0.517872	0.229166
H126	H	1.208335	-0.017872	0.729166
H127	H	0.669390	-0.416063	0.185741
H128	H	1.169390	0.083937	0.685741
H129	H	0.997905	-0.786670	-0.002096
H130	H	1.497905	-0.286670	0.497904
O131	O	0.889037	-0.133696	-0.282029
O132	O	1.389037	0.366304	0.217971
C133	C	0.886304	-0.207226	-0.224337
C134	C	1.386304	0.292774	0.275663
H135	H	0.864195	-0.188778	-0.163314
H136	H	1.364195	0.311222	0.336686
H137	H	0.846561	-0.260889	-0.240302
H138	H	1.346561	0.239111	0.259698
H139	H	0.945943	-0.231469	-0.222744
H140	H	1.445943	0.268531	0.277256
H141	H	0.883366	-0.179859	-0.495924
H142	H	1.383366	0.320141	0.004076
H143	H	0.881513	-0.168682	-0.645761
H144	H	1.381513	0.331318	-0.145761
H145	H	1.005966	-0.621722	-0.010517
H146	H	1.505966	-0.121722	0.489483
O147	O	0.801674	-0.808897	0.202377
O148	O	1.301674	-0.308897	0.702377
C149	C	0.758939	-0.752830	0.246926
C150	C	1.258939	-0.252830	0.746926
H151	H	0.761411	-0.685608	0.211157
H152	H	1.261411	-0.185608	0.711157
H153	H	0.697156	-0.780020	0.260414
H154	H	1.197156	-0.280020	0.760414
H155	H	0.783691	-0.747527	0.305231
H156	H	1.283691	-0.247527	0.805231
H157	H	0.895533	0.117012	-0.660285
H158	H	1.395533	0.617012	-0.160285
H159	H	0.130324	0.135243	0.094818
H160	H	0.630324	0.635243	0.594818
H161	H	0.903792	0.163965	-0.290833
H162	H	1.403792	0.663965	0.209167
O163	O	0.817690	-0.536239	0.185857
O164	O	1.317690	-0.036239	0.685857
C165	C	0.830715	-0.519866	0.263095
C166	C	1.330715	-0.019866	0.763095
H167	H	0.863115	-0.453839	0.259594
H168	H	1.363115	0.046161	0.759594
H169	H	0.773790	-0.519675	0.302008
H170	H	1.273790	-0.019675	0.802008
H171	H	0.865769	-0.572844	0.290141
H172	H	1.365769	-0.072844	0.790141
O173	O	0.521892	0.147045	0.100768
O174	O	1.021892	0.647045	0.600768
C175	C	0.442930	0.130262	0.100303
C176	C	0.942930	0.630262	0.600303
H177	H	0.425577	0.060745	0.128632
H178	H	0.925577	0.560745	0.628632
H179	H	0.410408	0.177725	0.135667
H180	H	0.910408	0.677725	0.635667
H181	H	0.428956	0.138747	0.036238
H182	H	0.928956	0.638747	0.536238
O183	O	0.506695	-0.163261	0.116659
O184	O	1.006695	0.336739	0.616659
C185	C	0.451906	-0.173029	0.184690
C186	C	0.951906	0.326971	0.684690
H187	H	0.440468	-0.106356	0.203866
H188	H	0.940468	0.393644	0.703866
H189	H	0.396765	-0.205127	0.170031
H190	H	0.896765	0.294873	0.670031
H191	H	0.474180	-0.215502	0.235183
H192	H	0.974180	0.284498	0.735183
H193	H	0.905625	0.152796	-0.140992
H194	H	1.405625	0.652796	0.359008
O195	O	0.888101	-0.123329	-0.367036
O196	O	1.388101	0.376671	0.132964
C197	C	0.822914	-0.132251	-0.309915
C198	C	1.322914	0.367749	0.190085
H199	H	0.778990	-0.086186	-0.330728
H200	H	1.278990	0.413814	0.169272
H201	H	0.797499	-0.202181	-0.302371
H202	H	1.297499	0.297819	0.197629
H203	H	0.839542	-0.115602	-0.250457
H204	H	1.339542	0.384398	0.249543
H205	H	0.259523	-0.150634	0.111787
H206	H	0.759523	0.349366	0.611787
O207	O	0.810440	-0.629747	0.193104
O208	O	1.310440	-0.129747	0.693104
C209	C	0.766530	-0.574003	0.148084
C210	C	1.266530	-0.074003	0.648084
H211	H	0.764200	-0.596761	0.087037
H212	H	1.264200	-0.096761	0.587037
H213	H	0.706274	-0.575390	0.180428
H214	H	1.206274	-0.075390	0.680428
H215	H	0.793606	-0.504784	0.140381
H216	H	1.293606	-0.004784	0.640381
O217	O	0.899011	0.107492	-0.419632
O218	O	1.399011	0.607492	0.080368
C219	C	0.967133	0.154608	-0.410973
C220	C	1.467133	0.654608	0.089027
H221	H	1.010998	0.107346	-0.392312
H222	H	1.510998	0.607346	0.107688
H223	H	0.990191	0.194628	-0.470152
H224	H	1.490191	0.694628	0.029848
H225	H	0.955296	0.199950	-0.363455
H226	H	1.455296	0.699950	0.136545
O227	O	0.662392	-0.163519	0.119032
O228	O	1.162392	0.336481	0.619032
C229	C	0.649637	-0.206299	0.052608
C230	C	1.149637	0.293701	0.552608
H231	H	0.636418	-0.156636	0.001984
H232	H	1.136418	0.343364	0.501984
H233	H	0.702785	-0.240366	0.032285
H234	H	1.202785	0.259634	0.532285
H235	H	0.599396	-0.256488	0.069840
H236	H	1.099396	0.243512	0.569840
O237	O	0.109493	-0.162791	0.109767
O238	O	0.609493	0.337209	0.609767
C239	C	0.072490	-0.162342	0.040700
C240	C	0.572490	0.337658	0.540700
H241	H	0.104691	-0.114126	-0.009094
H242	H	0.604691	0.385874	0.490906
H243	H	0.071171	-0.230266	0.021226
H244	H	0.571171	0.269734	0.521226
H245	H	0.011688	-0.142271	0.054116
H246	H	0.511688	0.357729	0.554116
O247	O	0.677517	0.147005	0.103371
O248	O	1.177517	0.647005	0.603371
C249	C	0.629165	0.216564	0.098944
C250	C	1.129165	0.716564	0.598944
H251	H	0.568509	0.191687	0.124237
H252	H	1.068509	0.691687	0.624237
H253	H	0.649684	0.268741	0.134948
H254	H	1.149684	0.768741	0.634948
H255	H	0.630202	0.245511	0.034069
H256	H	1.130202	0.745511	0.534069
H257	H	0.968847	-0.379591	0.028140
H258	H	1.468847	0.120409	0.528140
O259	O	0.985274	-0.206794	0.010818
O260	O	1.485274	0.293206	0.510818
C261	C	0.947515	-0.150633	-0.040671
C262	C	1.447515	0.349367	0.459329
H263	H	0.888824	-0.139357	-0.009721
H264	H	1.388824	0.360643	0.490279
H265	H	0.982289	-0.085764	-0.056557
H266	H	1.482289	0.414236	0.443443
H267	H	0.940900	-0.181363	-0.097371
H268	H	1.440900	0.318637	0.402629
O269	O	0.781420	-0.222855	0.223534
O270	O	1.281420	0.277145	0.723534
C271	C	0.732843	-0.286019	0.274150
C272	C	1.232843	0.213981	0.774150
H273	H	0.760701	-0.350883	0.278314
H274	H	1.260701	0.149117	0.778314
H275	H	0.722277	-0.264450	0.336061
H276	H	1.222277	0.235550	0.836061
H277	H	0.676271	-0.293798	0.249007
H278	H	1.176271	0.206202	0.749007
H279	H	0.960994	-0.487350	0.036326
H280	H	1.460994	0.012650	0.536326
