data_functionalizedCrystal
_audit_creation_method	'MofGen! by Chris Wilmer'
_symmetry_space_group_name_H-M	'P1'
_symmetry_Int_Tables_number	1
_symmetry_cell_setting	triclinic
loop_
_symmetry_equiv_pos_as_xyz
  x,y,z
_cell_length_a	18.426585
_cell_length_b	14.560438
_cell_length_c	14.560438
_cell_angle_alpha	60.001191
_cell_angle_beta	89.999296
_cell_angle_gamma	60.001046
loop_
_atom_site_label
_atom_site_type_symbol
_atom_site_fract_x
_atom_site_fract_y
_atom_site_fract_z
Zr1	Zr	0.699114	1.005310	-0.120528
O2	O	0.583240	1.196902	-0.267166
O3	O	0.734635	0.813712	-0.075577
O4	O	0.734638	1.005310	-0.267175
O5	O	0.583235	1.005307	0.075569
O6	O	0.854064	1.005316	-0.267179
O7	O	0.583237	1.005305	-0.075569
O8	O	0.854059	0.662583	0.075554
O9	O	0.583240	1.348040	-0.267164
O10	O	0.838911	0.892526	-0.056407
O11	O	0.749783	0.892523	0.056389
O12	O	0.749787	1.118105	-0.169192
O13	O	0.660659	1.118102	-0.056397
Zr14	Zr	0.889581	1.005324	0.120514
Zr15	Zr	0.889584	1.005320	-0.120534
Zr16	Zr	0.699111	1.005314	0.120520
Zr17	Zr	0.699114	1.246358	-0.120523
Zr18	Zr	0.889581	0.764277	0.120510
O19	O	0.854060	1.196923	0.075564
O20	O	0.854064	1.196917	-0.267175
O21	O	0.583235	1.196908	0.075573
O22	O	1.005455	0.813732	0.267153
O23	O	1.005460	0.813727	-0.075586
O24	O	0.734631	0.813718	0.267162
O25	O	1.005460	1.005327	-0.075583
O26	O	0.854057	1.005325	0.267162
O27	O	0.734631	1.005319	0.267165
O28	O	1.005458	1.005330	0.075556
O29	O	0.734639	1.348048	-0.267169
O30	O	0.854056	0.662586	0.267155
O31	O	1.005455	0.662595	0.267150
O32	O	1.005458	0.662591	0.075549
O33	O	0.583237	1.348043	-0.075563
O34	O	0.734636	1.348052	-0.075567
O35	O	0.838908	0.892530	0.169179
O36	O	0.928036	0.892533	0.056383
O37	O	0.838912	1.118111	-0.056402
O38	O	0.749784	1.118108	0.056393
C39	C	0.794347	0.703804	-0.000012
C40	C	0.794347	0.601473	-0.000014
C41	C	0.840869	0.553398	-0.058893
C42	C	0.840872	0.457239	-0.058882
C43	C	0.747825	0.457241	0.058887
C44	C	0.747827	0.553392	0.058882
C45	C	0.939050	0.272320	-0.076102
C46	C	0.985562	0.224258	-0.135000
C47	C	0.984343	0.308984	-0.240512
C48	C	0.936597	0.441794	-0.287151
C49	C	0.890078	0.489859	-0.228261
C50	C	0.891315	0.405113	-0.122730
C51	C	0.649647	0.738320	0.076091
C52	C	0.603122	0.786393	0.134975
C53	C	0.604331	0.701674	0.240486
C54	C	0.652061	0.568876	0.287119
C55	C	0.698586	0.520802	0.228234
C56	C	0.697378	0.605526	0.122724
C57	C	0.556098	1.005305	0.000001
C58	C	0.475238	1.005300	0.000004
C59	C	0.179123	1.005339	-0.000016
C60	C	0.261509	1.005334	-0.000014
C61	C	0.327178	1.005320	-0.000007
C62	C	0.409570	1.005314	-0.000003
C63	C	1.032597	1.005330	-0.000014
C64	C	1.113457	1.005334	-0.000017
C65	C	0.794351	1.005312	-0.301521
C66	C	0.794353	1.005311	-0.403852
C67	C	0.794348	1.306831	-0.000001
C68	C	0.794348	1.409162	0.000001
C69	C	0.840875	0.887563	-0.393058
C70	C	0.840868	0.887569	-0.489213
C71	C	0.747814	1.123081	-0.606953
C72	C	0.747817	1.123073	-0.510800
C73	C	0.854471	0.746107	-0.549892
C74	C	0.901009	0.628354	-0.539098
C75	C	0.984382	0.524390	-0.455917
C76	C	1.021237	0.538175	-0.383530
C77	C	0.974705	0.655931	-0.394331
C78	C	0.891317	0.759890	-0.477507
C79	C	0.734222	1.264527	-0.450114
C80	C	0.687695	1.382284	-0.460913
C81	C	0.604323	1.486258	-0.544098
C82	C	0.567474	1.472486	-0.616494
C83	C	0.614001	1.354729	-0.605695
C84	C	0.697372	1.250754	-0.522504
C85	C	0.794344	1.005322	0.301508
C86	C	0.794342	1.005324	0.403839
C87	C	1.032597	0.703816	-0.000020
C88	C	1.113456	0.601490	-0.000025
C89	C	0.794343	0.703809	0.301502
C90	C	0.794342	0.601479	0.403831
C91	C	1.032593	0.703821	0.301494
C92	C	1.113451	0.601496	0.403821
C93	C	0.556102	1.306813	-0.301508
C94	C	0.475244	1.409138	-0.403834
C95	C	0.556098	1.306818	0.000007
C96	C	0.475239	1.409145	0.000011
C97	C	0.794352	1.306826	-0.301515
C98	C	0.794353	1.409155	-0.403845
C99	C	1.104906	0.553432	-0.058912
C100	C	1.180875	0.457299	-0.058939
C101	C	1.265393	0.409218	-0.000071
C102	C	1.273941	0.457285	0.058818
C103	C	1.197973	0.553423	0.058838
C104	C	1.197954	0.553445	0.392997
C105	C	1.273937	0.457313	0.489134
C106	C	1.265413	0.409228	0.596095
C107	C	1.180901	0.457289	0.606917
C108	C	1.104921	0.553426	0.510781
C109	C	0.390741	1.457201	-0.393010
C110	C	0.314758	1.553363	-0.489148
C111	C	0.323282	1.601453	-0.596109
C112	C	0.407794	1.553386	-0.606931
C113	C	0.483774	1.457233	-0.510794
C114	C	0.483789	1.457212	0.058889
C115	C	0.407820	1.553372	0.058889
C116	C	0.323302	1.601457	0.000017
C117	C	0.314754	1.553386	-0.058867
C118	C	0.390722	1.457234	-0.058873
C119	C	0.728549	0.636668	0.451909
C120	C	0.728546	0.540518	0.548055
C121	C	0.860136	0.373992	0.548040
C122	C	0.860135	0.470141	0.451891
C123	C	0.619600	0.509145	0.641624
C124	C	0.553813	0.544335	0.689716
C125	C	0.525630	0.649055	0.696363
C126	C	0.563244	0.718587	0.654935
C127	C	0.629037	0.683391	0.606854
C128	C	0.657206	0.578675	0.600190
C129	C	0.969080	0.501522	0.358326
C130	C	1.034877	0.466326	0.310248
C131	C	1.063069	0.361600	0.303603
C132	C	1.025470	0.292056	0.345044
C133	C	0.959672	0.327251	0.393122
C134	C	0.931479	0.431984	0.399759
H135	H	0.851202	0.597990	-0.266236
H136	H	0.709928	1.218959	-0.694040
H137	H	0.878765	0.791673	-0.305980
Cl138	Cl	0.506532	0.456921	0.741800
Cl139	Cl	0.940610	0.165787	0.056563
H140	H	1.036095	0.592579	-0.106863
H141	H	0.583992	1.343522	-0.664650
Cl142	Cl	0.380002	1.396764	-0.258556
Cl143	Cl	1.360888	0.288354	-0.000104
H144	H	0.642535	0.423882	0.636202
H145	H	0.648657	0.807315	-0.009828
Cl146	Cl	0.379958	1.396809	-0.132890
Cl147	Cl	1.042814	0.248560	-0.314552
Cl148	Cl	0.208525	1.613765	-0.475517
H149	H	1.089132	0.453518	-0.315812
H150	H	1.173898	0.418175	-0.106893
H151	H	1.342765	0.418123	0.106746
H152	H	0.540298	0.803846	0.660366
H153	H	0.709949	0.418083	0.106836
H154	H	1.024438	0.116118	-0.097016
H155	H	0.653042	0.499893	0.373032
H156	H	0.674974	0.743607	0.412778
Cl157	Cl	0.758592	0.353852	0.286860
Cl158	Cl	0.227754	1.722331	-0.716957
H159	H	1.116654	0.332940	0.264463
Cl160	Cl	0.676324	0.770791	0.554775
H161	H	0.499586	1.557152	-0.684231
H162	H	1.204947	0.592539	0.106798
Cl163	Cl	0.418494	1.613851	-0.741405
Cl164	Cl	0.418586	1.613779	0.132927
H165	H	1.327289	0.330947	0.674367
Cl166	Cl	0.942845	0.208880	0.608469
H167	H	1.204911	0.592582	0.305912
H168	H	1.065817	0.522536	0.277034
Cl169	Cl	1.170201	0.396823	0.741392
Cl170	Cl	1.380170	0.396908	0.475503
Cl171	Cl	0.590005	1.396813	-0.524422
H172	H	0.566446	1.582145	-0.552890
Cl173	Cl	0.543162	0.953332	0.076380
H174	H	0.552600	1.418069	0.106836
Cl175	Cl	0.227807	1.722332	0.000039
Cl176	Cl	0.933626	0.633203	0.366655
H177	H	0.245930	1.592551	-0.106798
Cl178	Cl	1.021028	0.673267	-0.303339
H179	H	0.717707	1.393493	-0.401963
Cl180	Cl	0.442929	0.693287	0.756826
H181	H	0.566436	0.740833	0.288422
H182	H	0.802108	1.179862	-0.382367
H183	H	1.022272	0.428512	-0.447133
H184	H	1.036117	0.592537	0.519610
H185	H	1.048428	0.206778	0.339635
H186	H	0.878750	0.592541	-0.106848
Cl187	Cl	0.854677	0.611025	-0.630094
H188	H	0.935600	0.510777	-0.373076
H189	H	0.929057	0.270622	0.426860
H190	H	0.786589	0.830763	-0.617639
