data_functionalizedCrystal
_audit_creation_method	'MofGen! by Chris Wilmer'
_symmetry_space_group_name_H-M	'P1'
_symmetry_Int_Tables_number	1
_symmetry_cell_setting	triclinic
loop_
_symmetry_equiv_pos_as_xyz
  x,y,z
_cell_length_a	15.995292
_cell_length_b	23.532407
_cell_length_c	22.010155
_cell_angle_alpha	89.993714
_cell_angle_beta	90.003009
_cell_angle_gamma	83.158647
loop_
_atom_site_label
_atom_site_type_symbol
_atom_site_fract_x
_atom_site_fract_y
_atom_site_fract_z
O1	O	1.110406	0.073237	0.050548
O2	O	1.610406	0.573237	0.550548
O3	O	0.866548	0.082337	0.050546
O4	O	1.366548	0.582337	0.550546
O5	O	0.995830	-0.005118	0.050536
O6	O	1.495830	0.494882	0.550536
O7	O	0.981123	0.160691	0.050558
O8	O	1.481123	0.660691	0.550558
O9	O	0.995821	-0.005095	-0.050514
O10	O	1.495821	0.494905	0.449486
O11	O	0.866539	0.082360	-0.050504
O12	O	1.366539	0.582360	0.449496
O13	O	1.110396	0.073260	-0.050502
O14	O	1.610396	0.573260	0.449498
Cu15	Cu	0.988467	0.077812	-0.059730
Cu16	Cu	1.488467	0.577812	0.440270
Cu17	Cu	0.988478	0.077785	0.059774
Cu18	Cu	1.488478	0.577785	0.559774
O19	O	0.981114	0.160714	-0.050492
O20	O	1.481114	0.660714	0.449508
C21	C	0.835351	0.081978	0.000021
C22	C	1.335351	0.581978	0.500021
C23	C	0.742407	0.080867	0.000020
C24	C	1.242407	0.580867	0.500020
C25	C	0.995451	-0.026323	0.000009
C26	C	1.495451	0.473677	0.500009
C27	C	0.994325	-0.089545	0.000005
C28	C	1.494325	0.410455	0.500005
C29	C	0.404703	0.076786	0.000026
C30	C	0.904703	0.576786	0.500026
C31	C	0.427490	0.139908	0.000260
C32	C	0.927490	0.639908	0.500260
C33	C	0.524156	0.141108	0.000030
C34	C	1.024156	0.641108	0.500030
C35	C	0.572242	0.078811	0.000023
C36	C	1.072242	0.578811	0.500023
C37	C	0.543397	0.047266	-0.057684
C38	C	1.043397	0.547266	0.442316
C39	C	0.446613	0.046506	-0.057730
C40	C	0.946613	0.546506	0.442270
C41	C	0.446779	0.045191	0.057183
C42	C	0.946779	0.545191	0.557183
C43	C	0.543252	0.047530	0.057944
C44	C	1.043252	0.547530	0.557944
C45	C	0.666928	0.079952	0.000020
C46	C	1.166928	0.579952	0.500020
C47	C	0.310016	0.075642	0.000025
C48	C	0.810016	0.575642	0.500025
C49	C	1.063769	-0.488390	0.000038
C50	C	1.563769	0.011610	0.500038
C51	C	1.062723	-0.547795	0.000043
C52	C	1.562723	-0.047795	0.500043
O53	O	1.127099	-0.584301	0.000066
O54	O	1.627099	-0.084301	0.500066
N55	N	0.985865	-0.570706	0.000042
N56	N	1.485865	-0.070706	0.500042
C57	C	0.910048	-0.534209	0.000043
C58	C	1.410048	-0.034209	0.500043
O59	O	0.844578	-0.559151	0.000043
O60	O	1.344578	-0.059151	0.500043
C61	C	0.911095	-0.474806	0.000042
C62	C	1.411095	0.025194	0.500042
C63	C	0.987958	-0.451898	0.000037
C64	C	1.487958	0.048102	0.500037
C65	C	1.140626	-0.465482	0.000034
C66	C	1.640626	0.034518	0.500034
C67	C	1.141672	-0.406082	0.000028
C68	C	1.641672	0.093918	0.500028
C69	C	1.065861	-0.369590	0.000027
C70	C	1.565861	0.130410	0.500027
C71	C	0.989004	-0.392498	0.000031
C72	C	1.489004	0.107502	0.500031
C73	C	0.835278	-0.438310	0.000047
C74	C	1.335278	0.061690	0.500047
C75	C	0.836332	-0.378904	0.000048
C76	C	1.336332	0.121096	0.500048
C77	C	0.913195	-0.355997	0.000042
C78	C	1.413195	0.144003	0.500042
C79	C	0.914238	-0.296606	0.000024
C80	C	1.414238	0.203394	0.500024
N81	N	0.991096	-0.273695	0.000025
N82	N	1.491096	0.226305	0.500025
C83	C	1.066908	-0.310187	0.000027
C84	C	1.566908	0.189813	0.500027
C85	C	0.907855	-0.658960	0.000044
C86	C	1.407855	-0.158960	0.500044
C87	C	0.906807	-0.718361	0.000040
C88	C	1.406807	-0.218361	0.500040
C89	C	1.059483	-0.731943	0.000042
C90	C	1.559483	-0.231943	0.500042
C91	C	1.060530	-0.672540	0.000041
C92	C	1.560530	-0.172540	0.500041
C93	C	0.984713	-0.636049	0.000045
C94	C	1.484713	-0.136049	0.500045
C95	C	1.069098	-0.185443	0.000014
C96	C	1.569098	0.314557	0.500014
C97	C	1.070137	-0.126037	0.000006
C98	C	1.570137	0.373963	0.500006
C99	C	0.917461	-0.112460	0.000008
C100	C	1.417461	0.387540	0.500008
C101	C	0.916422	-0.171861	0.000013
C102	C	1.416422	0.328139	0.500013
C103	C	0.992247	-0.208351	0.000018
C104	C	1.492247	0.291649	0.500018
O105	O	0.849896	-0.260066	0.000004
O106	O	1.349896	0.239934	0.500004
O107	O	1.132367	-0.285237	0.000034
O108	O	1.632367	0.214763	0.500034
C109	C	1.141594	0.073619	0.000024
C110	C	1.641594	0.573619	0.500024
C111	C	1.234537	0.074729	0.000030
C112	C	1.734537	0.574729	0.500030
C113	C	0.981493	0.181920	0.000036
C114	C	1.481493	0.681920	0.500036
C115	C	0.982619	0.245141	0.000045
C116	C	1.482619	0.745141	0.500045
N117	N	0.988465	0.077831	-0.143782
N118	N	1.488465	0.577831	0.356218
C119	C	0.931200	0.116510	-0.436390
C120	C	1.431200	0.616510	0.063610
C121	C	0.931198	0.116515	-0.372782
C122	C	1.431198	0.616515	0.127218
O123	O	0.882484	0.149425	-0.339887
O124	O	1.382484	0.649425	0.160113
N125	N	0.988459	0.077809	-0.340967
N126	N	1.488459	0.577809	0.159033
C127	C	1.045720	0.039091	-0.372762
C128	C	1.545720	0.539091	0.127238
O129	O	1.094425	0.006169	-0.339860
O130	O	1.594425	0.506169	0.160140
C131	C	1.045718	0.039084	-0.436368
C132	C	1.545718	0.539084	0.063632
C133	C	0.988459	0.077797	-0.468181
C134	C	1.488459	0.577797	0.031819
C135	C	0.873945	0.155219	-0.468202
C136	C	1.373945	0.655219	0.031798
C137	C	0.873948	0.155215	-0.531805
C138	C	1.373948	0.655215	-0.031805
C139	C	0.931207	0.116501	-0.563596
C140	C	1.431207	0.616501	-0.063596
C141	C	0.988462	0.077792	-0.531784
C142	C	1.488462	0.577792	-0.031784
C143	C	1.102975	0.000364	-0.468162
C144	C	1.602975	0.500364	0.031838
C145	C	1.102967	0.000360	-0.531773
C146	C	1.602967	0.500360	-0.031773
C147	C	1.045708	0.039072	-0.563586
C148	C	1.545708	0.539072	-0.063586
C149	C	1.045724	0.039074	-0.627178
C150	C	1.545724	0.539074	-0.127178
N151	N	0.988463	0.077780	-0.658994
N152	N	1.488463	0.577780	-0.158994
C153	C	0.931204	0.116494	-0.627203
C154	C	1.431204	0.616494	-0.127203
C155	C	1.045720	0.039109	-0.239184
C156	C	1.545720	0.539109	0.260816
C157	C	1.045727	0.039119	-0.175579
C158	C	1.545727	0.539119	0.324421
C159	C	0.931203	0.116542	-0.175604
C160	C	1.431203	0.616542	0.324396
C161	C	0.931201	0.116535	-0.239210
C162	C	1.431201	0.616535	0.260790
C163	C	0.988459	0.077815	-0.271000
C164	C	1.488459	0.577815	0.229000
C165	C	0.931216	0.116481	-0.760774
C166	C	1.431216	0.616481	-0.260774
C167	C	0.931227	0.116475	-0.824383
C168	C	1.431227	0.616475	-0.324383
C169	C	1.045748	0.039050	-0.824353
C170	C	1.545748	0.539050	-0.324353
C171	C	1.045740	0.039058	-0.760749
C172	C	1.545740	0.539058	-0.260749
C173	C	0.988467	0.077776	-0.728962
C174	C	1.488467	0.577776	-0.228962
O175	O	1.094411	0.006179	-0.660114
O176	O	1.594411	0.506179	-0.160114
O177	O	0.882501	0.149406	-0.660113
O178	O	1.382501	0.649406	-0.160113
N179	N	0.988486	0.077761	0.143826
N180	N	1.488486	0.577761	0.643826
H181	H	0.542980	0.165810	0.041398
H182	H	1.042980	0.665810	0.541398
N183	N	0.409149	0.071368	0.115125
N184	N	0.909149	0.571368	0.615125
H185	H	0.383064	0.041392	0.139094
H186	H	0.883064	0.541392	0.639094
H187	H	0.364470	0.103980	0.104859
H188	H	0.864470	0.603980	0.604859
H189	H	0.884579	0.148064	-0.149708
H190	H	1.384579	0.648064	0.350292
H191	H	0.774591	-0.349195	0.000052
H192	H	1.274591	0.150805	0.500052
H193	H	0.884575	0.148058	-0.265108
H194	H	1.384575	0.648058	0.234892
N195	N	1.164734	-0.041398	-0.566058
N196	N	1.664734	0.458602	-0.066058
H197	H	1.156052	-0.035531	-0.611181
H198	H	1.656052	0.464469	-0.111181
H199	H	1.155400	-0.081801	-0.554931
H200	H	1.655400	0.418199	-0.054931
N201	N	0.567615	0.077941	0.114497
N202	N	1.067615	0.577941	0.614497
H203	H	0.597306	0.111840	0.102655
H204	H	1.097306	0.611840	0.602655
H205	H	0.606481	0.050683	0.140085
H206	H	1.106481	0.550683	0.640085
H207	H	1.092370	0.007531	-0.850247
H208	H	1.592370	0.507531	-0.350247
N209	N	1.143431	-0.647834	0.000040
N210	N	1.643431	-0.147834	0.500040
H211	H	1.147267	-0.623488	-0.037420
H212	H	1.647267	-0.123488	0.462580
H213	H	1.191245	-0.680003	0.000061
H214	H	1.691245	-0.180003	0.500061
H215	H	0.433172	-0.001271	0.057569
H216	H	0.933172	0.498729	0.557569
H217	H	0.576600	0.002059	0.061424
H218	H	1.076600	0.502059	0.561424
H219	H	0.419610	0.068372	-0.100862
H220	H	0.919610	0.568372	0.399138
N221	N	0.390145	0.172129	0.055076
N222	N	0.890145	0.672129	0.555076
H223	H	0.358090	0.146125	0.080291
H224	H	0.858090	0.646125	0.580291
H225	H	0.350601	0.206362	0.041263
H226	H	0.850601	0.706362	0.541263
H227	H	0.575647	0.001425	-0.059834
H228	H	1.075647	0.501425	0.440166
H229	H	0.853834	-0.190513	-0.000000
H230	H	1.353834	0.309487	0.500000
N231	N	1.141253	-0.771310	0.000051
N232	N	1.641253	-0.271310	0.500051
H233	H	1.190107	-0.747788	0.000050
H234	H	1.690107	-0.247788	0.500050
H235	H	1.144138	-0.796251	-0.037408
H236	H	1.644138	-0.296251	0.462592
H237	H	1.092374	0.007541	-0.734847
H238	H	1.592374	0.507541	-0.234847
N239	N	0.752375	-0.463008	0.000045
N240	N	1.252375	0.036992	0.500045
H241	H	0.704516	-0.430869	0.000046
H242	H	1.204516	0.069131	0.500046
H243	H	0.748610	-0.487362	0.037506
H244	H	1.248610	0.012638	0.537506
N245	N	0.388791	0.171969	-0.054245
N246	N	0.888791	0.671969	0.445755
H247	H	0.434738	0.185563	-0.080011
H248	H	0.934738	0.685563	0.419989
H249	H	0.349139	0.206015	-0.040107
H250	H	0.849139	0.706015	0.459893
H251	H	0.432447	0.000226	-0.060356
H252	H	0.932447	0.500226	0.439644
N253	N	1.107496	-0.002627	-0.141270
N254	N	1.607496	0.497373	0.358730
H255	H	1.143767	-0.027150	-0.171067
H256	H	1.643767	0.472850	0.328933
H257	H	1.075658	-0.027814	-0.114876
H258	H	1.575658	0.472186	0.385124
H259	H	0.542348	0.165981	-0.041401
H260	H	1.042348	0.665981	0.458599
N261	N	1.153042	-0.101330	-0.000003
N262	N	1.653042	0.398670	0.499997
H263	H	1.200907	-0.133464	-0.000000
H264	H	1.700907	0.366536	0.500000
H265	H	1.156809	-0.076980	0.037454
H266	H	1.656809	0.423020	0.537454
N267	N	0.569717	0.076303	-0.114567
N268	N	1.069717	0.576303	0.385433
H269	H	0.600317	0.109885	-0.103088
H270	H	1.100317	0.609885	0.396912
H271	H	0.518136	0.090255	-0.139291
H272	H	1.018136	0.590255	0.360709
N273	N	1.150878	-0.224795	0.000020
N274	N	1.650878	0.275205	0.500020
H275	H	1.199719	-0.201261	0.000015
H276	H	1.699719	0.298739	0.500015
H277	H	1.153768	-0.249735	-0.037440
H278	H	1.653768	0.250265	0.462560
N279	N	1.224575	-0.381379	0.000025
N280	N	1.724575	0.118621	0.500025
H281	H	1.272435	-0.413517	0.000028
H282	H	1.772435	0.086483	0.500028
H283	H	1.228342	-0.357033	0.037485
H284	H	1.728342	0.142967	0.537485
N285	N	0.869459	0.158228	-0.858691
N286	N	1.369459	0.658228	-0.358691
H287	H	0.832573	0.136451	-0.885079
H288	H	1.332573	0.636451	-0.385079
H289	H	0.901298	0.183444	-0.885050
H290	H	1.401298	0.683444	-0.385050
N291	N	1.107497	-0.002644	-0.273470
N292	N	1.607497	0.497356	0.226530
H293	H	1.143772	-0.027157	-0.243659
H294	H	1.643772	0.472843	0.256341
H295	H	1.144325	0.019174	-0.299860
H296	H	1.644325	0.519174	0.200140
H297	H	0.827320	0.186736	-0.557703
H298	H	1.327320	0.686736	-0.057703
N299	N	0.823901	-0.743059	0.000032
N300	N	1.323901	-0.243059	0.500032
H301	H	0.790712	-0.729751	0.037489
H302	H	1.290712	-0.229751	0.537489
H303	H	0.834797	-0.786225	0.000010
H304	H	1.334797	-0.286225	0.500010
N305	N	1.222401	-0.504836	0.000034
N306	N	1.722401	-0.004836	0.500034
H307	H	1.271241	-0.481301	0.000031
H308	H	1.771241	0.018699	0.500031
H309	H	1.225291	-0.529772	-0.037428
H310	H	1.725291	-0.029772	0.462572
N311	N	0.835696	-0.073096	-0.000010
N312	N	1.335696	0.426904	0.499990
H313	H	0.848029	-0.031990	-0.000016
H314	H	1.348029	0.468010	0.499984
H315	H	0.802171	-0.080507	0.037448
H316	H	1.302171	0.419493	0.537448
N317	N	1.164733	-0.041393	-0.433864
N318	N	1.664733	0.458607	0.066136
H319	H	1.132951	-0.066616	-0.407469
H320	H	1.632951	0.433384	0.092531
H321	H	1.201616	-0.019583	-0.407513
H322	H	1.701616	0.480417	0.092487
N323	N	0.869446	0.158245	-0.726500
N324	N	1.369446	0.658245	-0.226500
H325	H	0.901226	0.183474	-0.700114
H326	H	1.401226	0.683474	-0.200114
H327	H	0.832563	0.136440	-0.700142
H328	H	1.332563	0.636440	-0.200142
N329	N	0.826076	-0.619602	0.000043
N330	N	1.326076	-0.119602	0.500043
H331	H	0.777234	-0.643135	0.000042
H332	H	1.277234	-0.143135	0.500042
H333	H	0.823179	-0.594657	-0.037418
H334	H	1.323179	-0.094657	0.462582
N335	N	0.812177	0.196975	-0.433920
N336	N	1.312177	0.696975	0.066080
H337	H	0.775911	0.221491	-0.463733
H338	H	1.275911	0.721491	0.036267
H339	H	0.844016	0.222168	-0.407536
H340	H	1.344016	0.722168	0.092464
