data_functionalizedCrystal
_audit_creation_method	'MofGen! by Chris Wilmer'
_symmetry_space_group_name_H-M	'P1'
_symmetry_Int_Tables_number	1
_symmetry_cell_setting	triclinic
loop_
_symmetry_equiv_pos_as_xyz
  x,y,z
_cell_length_a	16.974885
_cell_length_b	16.992695
_cell_length_c	16.053942
_cell_angle_alpha	92.749749
_cell_angle_beta	83.790486
_cell_angle_gamma	87.023153
loop_
_atom_site_label
_atom_site_type_symbol
_atom_site_fract_x
_atom_site_fract_y
_atom_site_fract_z
O1	O	1.055529	0.099814	-0.001823
O2	O	1.555529	0.599814	0.498177
O3	O	0.825432	0.113288	0.013711
O4	O	1.325432	0.613288	0.513711
O5	O	0.939558	-0.007588	0.005999
O6	O	1.439558	0.492412	0.505999
O7	O	0.941403	0.220690	0.005888
O8	O	1.441403	0.720690	0.505888
O9	O	0.945804	-0.014218	-0.133279
O10	O	1.445804	0.485782	0.366721
O11	O	0.831678	0.106658	-0.125567
O12	O	1.331678	0.606658	0.374433
O13	O	1.061775	0.093185	-0.141102
O14	O	1.561775	0.593185	0.358898
Zn15	Zn	0.947718	0.098869	-0.155448
Zn16	Zn	1.447718	0.598869	0.344552
Zn17	Zn	0.939489	0.107603	0.028057
Zn18	Zn	1.439489	0.607603	0.528057
O19	O	0.947648	0.214060	-0.133390
O20	O	1.447648	0.714060	0.366610
C21	C	0.798977	0.109585	-0.053931
C22	C	1.298977	0.609585	0.446069
C23	C	0.710842	0.108418	-0.047981
C24	C	1.210842	0.608418	0.452019
C25	C	0.214372	0.102216	-0.006282
C26	C	0.714372	0.602216	0.493718
C27	C	0.297185	0.103312	-0.011884
C28	C	0.797185	0.603312	0.488116
C29	C	0.341987	0.100252	-0.090606
C30	C	0.841987	0.600252	0.409394
C31	C	0.303974	0.096087	-0.163732
C32	C	0.803974	0.596087	0.336268
C33	C	0.221163	0.094986	-0.158129
C34	C	0.721163	0.594986	0.341871
C35	C	0.590018	0.103153	-0.115504
C36	C	1.090018	0.603153	0.384496
C37	C	0.672834	0.104257	-0.121101
C38	C	1.172834	0.604257	0.378899
C39	C	0.666039	0.111479	0.030747
C40	C	1.166039	0.611479	0.530747
C41	C	0.583227	0.110382	0.036343
C42	C	1.083227	0.610382	0.536343
C43	C	0.545222	0.106214	-0.036782
C44	C	1.045222	0.606214	0.463218
N45	N	0.426634	0.101374	-0.096334
N46	N	0.926634	0.601374	0.403666
N47	N	0.460576	0.105086	-0.031054
N48	N	0.960576	0.605086	0.468946
C49	C	0.940308	-0.040105	-0.063479
C50	C	1.440308	0.459895	0.436521
C51	C	0.933227	-0.127119	-0.063001
C52	C	1.433227	0.372881	0.436999
C53	C	1.001549	-0.177654	-0.067615
C54	C	1.501549	0.322346	0.432385
C55	C	0.994890	-0.259412	-0.067157
C56	C	1.494890	0.240588	0.432843
C57	C	0.919910	-0.290632	-0.062092
C58	C	1.419910	0.209368	0.437908
C59	C	0.851583	-0.240091	-0.057476
C60	C	1.351583	0.259909	0.442524
C61	C	0.858242	-0.158334	-0.057927
C62	C	1.358242	0.341666	0.442073
C63	C	0.892311	-0.534111	-0.060217
C64	C	1.392311	-0.034111	0.439783
C65	C	0.885658	-0.615873	-0.059769
C66	C	1.385658	-0.115873	0.440231
C67	C	1.028966	-0.635189	-0.069448
C68	C	1.528966	-0.135189	0.430552
C69	C	1.035618	-0.553430	-0.069905
C70	C	1.535618	-0.053430	0.430095
C71	C	0.967291	-0.502895	-0.065284
C72	C	1.467291	-0.002895	0.434716
N73	N	0.913102	-0.374202	-0.061627
N74	N	1.413102	0.125798	0.438373
N75	N	0.974099	-0.419327	-0.065743
N76	N	1.474099	0.080673	0.434257
C77	C	1.088230	0.096888	-0.073457
C78	C	1.588230	0.596888	0.426543
C79	C	1.176364	0.098055	-0.079402
C80	C	1.676364	0.598055	0.420598
C81	C	0.946899	0.246578	-0.063909
C82	C	1.446899	0.746578	0.436091
C83	C	0.953979	0.333591	-0.064382
C84	C	1.453979	0.833591	0.435618
N85	N	0.953340	0.092907	-0.280685
N86	N	1.453340	0.592907	0.219315
C87	C	0.982445	0.062145	-0.806272
C88	C	1.482445	0.562145	-0.306272
C89	C	0.978494	0.066325	-0.718600
C90	C	1.478494	0.566325	-0.218600
C91	C	0.925967	0.121916	-0.671363
C92	C	1.425967	0.621916	-0.171363
C93	C	0.877393	0.173335	-0.711803
C94	C	1.377393	0.673335	-0.211803
C95	C	0.881348	0.169158	-0.799473
C96	C	1.381348	0.669158	-0.299473
C97	C	0.908721	0.140149	-0.408796
C98	C	1.408721	0.640149	0.091204
C99	C	0.904768	0.144321	-0.321119
C100	C	1.404768	0.644321	0.178881
C101	C	1.005871	0.037312	-0.327922
C102	C	1.505871	0.537312	0.172078
C103	C	1.009818	0.033136	-0.415594
C104	C	1.509818	0.533136	0.084406
C105	C	0.961247	0.084558	-0.456027
C106	C	1.461247	0.584558	0.043973
N107	N	0.921926	0.126189	-0.581748
N108	N	1.421926	0.626189	-0.081748
N109	N	0.965293	0.080289	-0.545640
N110	N	1.465293	0.580289	-0.045640
N111	N	0.933873	0.113559	0.153294
N112	N	1.433873	0.613559	0.653294
H113	H	0.696993	0.114872	0.090281
H114	H	1.196993	0.614872	0.590281
H115	H	0.190218	0.091606	-0.217671
H116	H	0.690218	0.591606	0.282329
F117	F	1.038348	0.002974	-0.856537
F118	F	1.538348	0.502974	-0.356537
H119	H	0.790531	-0.265517	-0.053347
H120	H	1.290531	0.234483	0.446653
H121	H	0.328127	0.106695	0.047658
H122	H	0.828127	0.606695	0.547658
F123	F	0.720515	0.100999	-0.204892
F124	F	1.220515	0.600999	0.295108
H125	H	0.869171	0.182017	-0.441709
H126	H	1.369171	0.682017	0.058291
H127	H	1.018046	0.024461	-0.685679
H128	H	1.518046	0.524461	-0.185679
F129	F	0.535551	0.113640	0.120130
F130	F	1.035551	0.613640	0.620130
F131	F	1.065722	-0.026030	-0.465866
F132	F	1.565722	0.473970	0.034134
F133	F	0.549579	0.098733	-0.193331
F134	F	1.049579	0.598733	0.306669
F135	F	0.351658	0.092828	-0.247514
F136	F	0.851658	0.592828	0.252486
F137	F	1.057562	-0.017410	-0.284886
F138	F	1.557562	0.482590	0.215114
F139	F	1.081355	-0.144435	-0.073013
F140	F	1.581355	0.355565	0.426987
H141	H	1.050526	-0.300555	-0.070916
H142	H	1.550526	0.199445	0.429084
H143	H	0.861991	0.189592	-0.282662
H144	H	1.361991	0.689592	0.217338
H145	H	1.096676	-0.528017	-0.074029
H146	H	1.596676	-0.028017	0.425971
F147	F	1.101679	-0.688976	-0.074365
F148	F	1.601679	-0.188976	0.425635
H149	H	0.834627	0.218602	-0.673338
H150	H	1.334627	0.718602	-0.173338
H151	H	0.836674	-0.492974	-0.056455
H152	H	1.336674	0.007026	0.443545
H153	H	0.802606	-0.117189	-0.054170
H154	H	1.302606	0.382811	0.445830
F155	F	0.166697	0.105479	0.077505
F156	F	0.666697	0.605479	0.577505
F157	F	0.805849	-0.649098	-0.054382
F158	F	1.305849	-0.149098	0.445618
H159	H	0.841797	0.211025	-0.832393
H160	H	1.341797	0.711025	-0.332393
