data_functionalizedCrystal
_audit_creation_method	'MofGen! by Chris Wilmer'
_symmetry_space_group_name_H-M	'P1'
_symmetry_Int_Tables_number	1
_symmetry_cell_setting	triclinic
loop_
_symmetry_equiv_pos_as_xyz
  x,y,z
_cell_length_a	6.817900
_cell_length_b	11.102288
_cell_length_c	17.982968
_cell_angle_alpha	94.233008
_cell_angle_beta	102.451960
_cell_angle_gamma	108.605689
loop_
_atom_site_label
_atom_site_type_symbol
_atom_site_fract_x
_atom_site_fract_y
_atom_site_fract_z
V1	V	-4.041373	-0.177030	-0.237549
V2	V	-3.541373	0.322970	0.262451
O3	O	-4.001741	0.007282	-0.233027
O4	O	-3.501741	0.507282	0.266973
O5	O	-4.018629	-0.349842	-0.235924
O6	O	-3.518629	0.150158	0.264076
O7	O	-3.987555	-0.174844	-0.341152
O8	O	-3.487555	0.325156	0.158848
O9	O	-4.033030	-0.168927	-0.127070
O10	O	-3.533030	0.331073	0.372930
V11	V	-4.522378	-0.154920	-0.224334
V12	V	-4.022378	0.345080	0.275666
O13	O	-4.308154	-0.225528	-0.266535
O14	O	-3.808154	0.274472	0.233465
O15	O	-4.705794	-0.106422	-0.195348
O16	O	-4.205794	0.393578	0.304652
O17	O	-4.321914	0.017892	-0.225959
O18	O	-3.821914	0.517892	0.274041
O19	O	-4.679407	-0.339232	-0.228857
O20	O	-4.179407	0.160768	0.271143
O21	O	-4.648117	-0.163023	-0.334813
O22	O	-4.148117	0.336977	0.165187
O23	O	-4.352989	-0.157106	-0.120731
O24	O	-3.852989	0.342894	0.379269
C25	C	-3.870047	-0.391953	-0.232177
C26	C	-3.370047	0.108047	0.267823
C27	C	-3.932703	-0.533232	-0.231539
C28	C	-3.432703	-0.033232	0.268461
C29	C	-4.145023	-0.606098	-0.235040
C30	C	-3.645023	-0.106098	0.264960
C31	C	-4.203886	-0.738847	-0.234447
C32	C	-3.703886	-0.238847	0.265553
C33	C	-3.838085	-0.725850	-0.226848
C34	C	-3.338085	-0.225850	0.273152
C35	C	-3.779228	-0.593106	-0.227446
C36	C	-3.279228	-0.093106	0.272554
C37	C	-3.830408	-0.168724	-0.366404
C38	C	-3.330408	0.331276	0.133596
C39	C	-3.867860	-0.168081	-0.451100
C40	C	-3.367860	0.331919	0.048900
C41	C	-4.068320	-0.174147	-0.494772
C42	C	-3.568320	0.325853	0.005228
C43	C	-4.103498	-0.173542	-0.574352
C44	C	-3.603498	0.326458	-0.074352
C45	C	-3.938217	-0.166879	-0.610261
C46	C	-3.438217	0.333121	-0.110261
C47	C	-3.737738	-0.160808	-0.566583
C48	C	-3.237738	0.339192	-0.066583
C49	C	-3.702558	-0.161405	-0.487003
C50	C	-3.202558	0.338595	0.012997
C51	C	-3.879608	-0.158402	-0.887520
C52	C	-3.379608	0.341598	-0.387520
C53	C	-3.914806	-0.157810	-0.967106
C54	C	-3.414806	0.342190	-0.467106
C55	C	-4.280548	-0.170538	-0.974869
C56	C	-3.780548	0.329462	-0.474869
C57	C	-4.245368	-0.171135	-0.895289
C58	C	-3.745368	0.328865	-0.395289
C59	C	-4.044890	-0.165057	-0.851618
C60	C	-3.544890	0.334943	-0.351618
C61	C	-4.006747	-0.165712	-0.765327
C62	C	-3.506747	0.334288	-0.265327
C63	C	-3.976361	-0.166234	-0.696551
C64	C	-3.476361	0.333766	-0.196551
C65	C	-4.133840	0.059996	-0.229704
C66	C	-3.633840	0.559996	0.270296
C67	C	-4.050422	0.201275	-0.230347
C68	C	-3.550422	0.701275	0.269653
C69	C	-4.173479	-0.163230	-0.095475
C70	C	-3.673479	0.336770	0.404525
C71	C	-4.115265	-0.163867	-0.010778
C72	C	-3.615265	0.336133	0.489222
H73	H	-4.376774	-0.798169	-0.237300
H74	H	-3.876774	-0.298169	0.262700
Br75	Br	-4.552632	-0.178784	-1.034142
Br76	Br	-4.052632	0.321216	-0.534142
H77	H	-4.269995	-0.557353	-0.238372
H78	H	-3.769995	-0.057353	0.261628
Br79	Br	-3.629812	-0.807115	-0.221290
Br80	Br	-3.129812	-0.307115	0.278710
H81	H	-3.606326	-0.533777	-0.224598
H82	H	-3.106326	-0.033777	0.275402
Br83	Br	-4.292655	-0.183203	-0.446048
Br84	Br	-3.792655	0.316797	0.053952
H85	H	-4.379964	-0.176566	-0.866058
H86	H	-3.879964	0.323434	-0.366058
Br87	Br	-4.375569	-0.181789	-0.633620
Br88	Br	-3.875569	0.318211	-0.133620
H89	H	-3.539310	-0.156434	-0.451443
H90	H	-3.039310	0.343566	0.048557
Br91	Br	-3.690479	-0.148769	-1.015839
Br92	Br	-3.190479	0.351231	-0.515839
H93	H	-3.716394	-0.153498	-0.851976
H94	H	-3.216394	0.346502	-0.351976
H95	H	-3.603162	-0.155376	-0.595825
H96	H	-3.103162	0.344624	-0.095825
