data_functionalizedCrystal
_audit_creation_method	'MofGen! by Chris Wilmer'
_symmetry_space_group_name_H-M	'P1'
_symmetry_Int_Tables_number	1
_symmetry_cell_setting	triclinic
loop_
_symmetry_equiv_pos_as_xyz
  x,y,z
_cell_length_a	23.532355
_cell_length_b	27.732048
_cell_length_c	22.610064
_cell_angle_alpha	89.999096
_cell_angle_beta	89.997644
_cell_angle_gamma	82.735077
loop_
_atom_site_label
_atom_site_type_symbol
_atom_site_fract_x
_atom_site_fract_y
_atom_site_fract_z
O1	O	0.755158	0.058553	-0.049110
O2	O	1.255158	0.558553	0.450890
O3	O	0.589272	0.067069	-0.049130
O4	O	1.089272	0.567069	0.450870
O5	O	0.677367	-0.007579	-0.049108
O6	O	1.177367	0.492421	0.450892
O7	O	0.667063	0.133201	-0.049132
O8	O	1.167063	0.633201	0.450868
O9	O	0.677351	-0.007568	0.049261
O10	O	1.177351	0.492432	0.549261
O11	O	0.589256	0.067080	0.049239
O12	O	1.089256	0.567080	0.549239
O13	O	0.755142	0.058564	0.049259
O14	O	1.255142	0.558564	0.549259
Zn15	Zn	0.672197	0.062824	0.064867
Zn16	Zn	1.172197	0.562824	0.564867
Zn17	Zn	0.672217	0.062809	-0.064739
Zn18	Zn	1.172217	0.562809	0.435261
O19	O	0.667047	0.133211	0.049237
O20	O	1.167047	0.633211	0.549237
C21	C	0.568048	0.066862	0.000052
C22	C	1.068048	0.566862	0.500052
C23	C	0.504831	0.066222	0.000045
C24	C	1.004831	0.566222	0.500045
C25	C	0.112817	0.062206	0.053692
C26	C	0.612817	0.562206	0.553692
C27	C	0.053419	0.061597	0.053694
C28	C	0.553419	0.561597	0.553694
O29	O	0.022694	0.061271	0.099296
O30	O	0.522694	0.561271	0.599296
N31	N	0.023720	0.061289	0.000073
N32	N	0.523720	0.561289	0.500073
C33	C	0.053422	0.061585	-0.053554
C34	C	0.553422	0.561585	0.446446
O35	O	0.022706	0.061267	-0.099162
O36	O	0.522706	0.561267	0.400838
C37	C	0.112820	0.062191	-0.053555
C38	C	0.612820	0.562191	0.446445
C39	C	0.142515	0.062504	0.000069
C40	C	0.642515	0.562504	0.500069
C41	C	0.142513	0.062518	0.107311
C42	C	0.642513	0.562518	0.607311
C43	C	0.201906	0.063128	0.107309
C44	C	0.701906	0.563128	0.607309
C45	C	0.231605	0.063426	0.053686
C46	C	0.731605	0.563426	0.553686
C47	C	0.201909	0.063114	0.000066
C48	C	0.701909	0.563114	0.500066
C49	C	0.142522	0.062484	-0.107181
C50	C	0.642522	0.562484	0.392819
C51	C	0.201924	0.063089	-0.107179
C52	C	0.701924	0.563089	0.392821
C53	C	0.231619	0.063402	-0.053554
C54	C	0.731619	0.563402	0.446446
C55	C	0.291001	0.064021	-0.053559
C56	C	0.791001	0.564021	0.446441
N57	N	0.320701	0.064329	0.000062
N58	N	0.820701	0.564329	0.500062
C59	C	0.291002	0.064031	0.053685
C60	C	0.791002	0.564031	0.553685
C61	C	-0.071317	0.060313	-0.053546
C62	C	0.428683	0.560313	0.446454
C63	C	-0.130714	0.059711	-0.053545
C64	C	0.369286	0.559711	0.446455
C65	C	-0.130713	0.059722	0.053703
C66	C	0.369287	0.559722	0.553703
C67	C	-0.071315	0.060327	0.053701
C68	C	0.428685	0.560327	0.553701
C69	C	-0.041617	0.060621	0.000075
C70	C	0.458383	0.560621	0.500075
C71	C	0.415734	0.065312	0.053675
C72	C	0.915734	0.565312	0.553675
C73	C	0.475132	0.065924	0.053668
C74	C	0.975132	0.565924	0.553668
C75	C	0.475127	0.065911	-0.053580
C76	C	0.975127	0.565911	0.446420
C77	C	0.415733	0.065301	-0.053573
C78	C	0.915733	0.565301	0.446427
C79	C	0.386038	0.065001	0.000059
C80	C	0.886038	0.565001	0.500059
O81	O	0.321764	0.064346	-0.099138
O82	O	0.821764	0.564346	0.400862
O83	O	0.321726	0.064343	0.099285
O84	O	0.821726	0.564343	0.599285
C85	C	0.677143	-0.025580	0.000078
C86	C	1.177143	0.474420	0.500078
C87	C	0.676491	-0.079236	0.000083
C88	C	1.176491	0.420764	0.500083
C89	C	0.724449	-0.417985	0.000058
C90	C	1.224449	0.082015	0.500058
C91	C	0.722033	-0.619648	0.000049
C92	C	1.222033	-0.119648	0.500049
O93	O	0.765887	-0.650843	0.000029
O94	O	1.265887	-0.150843	0.500029
N95	N	0.669796	-0.638844	0.000044
N96	N	1.169796	-0.138844	0.500044
C97	C	0.618160	-0.607621	0.000036
C98	C	1.118160	-0.107621	0.500036
O99	O	0.573674	-0.628575	0.000025
O100	O	1.073674	-0.128575	0.500025
C101	C	0.620577	-0.405959	0.000041
C102	C	1.120577	0.094041	0.500041
C103	C	0.672817	-0.386766	0.000052
C104	C	1.172817	0.113234	0.500052
C105	C	0.776685	-0.398792	0.000069
C106	C	1.276685	0.101208	0.500069
C107	C	0.777289	-0.348379	0.000074
C108	C	1.277289	0.151621	0.500074
C109	C	0.725657	-0.317160	0.000069
C110	C	1.225657	0.182840	0.500069
C111	C	0.673421	-0.336353	0.000058
C112	C	1.173421	0.163647	0.500058
C113	C	0.568942	-0.374736	0.000029
C114	C	1.068942	0.125264	0.500029
C115	C	0.569551	-0.324318	0.000029
C116	C	1.069551	0.175682	0.500029
C117	C	0.621791	-0.305125	0.000040
C118	C	1.121791	0.194875	0.500040
C119	C	0.622392	-0.254721	0.000057
C120	C	1.122392	0.245279	0.500057
N121	N	0.674629	-0.235525	0.000063
N122	N	1.174629	0.264475	0.500063
C123	C	0.726261	-0.266744	0.000069
C124	C	1.226261	0.233256	0.500069
C125	C	0.616895	-0.713496	0.000035
C126	C	1.116895	-0.213496	0.500035
C127	C	0.616290	-0.763912	0.000035
C128	C	1.116290	-0.263912	0.500035
C129	C	0.720163	-0.775936	0.000047
C130	C	1.220163	-0.275936	0.500047
C131	C	0.720767	-0.725520	0.000051
C132	C	1.220767	-0.225520	0.500051
C133	C	0.669131	-0.694301	0.000041
C134	C	1.169131	-0.194301	0.500041
C135	C	0.727525	-0.160873	0.000080
C136	C	1.227525	0.339127	0.500080
C137	C	0.728124	-0.110456	0.000088
C138	C	1.228124	0.389544	0.500088
C139	C	0.624251	-0.098436	0.000073
C140	C	1.124251	0.401564	0.500073
C141	C	0.623652	-0.148849	0.000068
C142	C	1.123652	0.351151	0.500068
C143	C	0.675293	-0.180067	0.000070
C144	C	1.175293	0.319933	0.500070
O145	O	0.578561	-0.223497	0.000071
O146	O	1.078561	0.276503	0.500071
O147	O	0.770740	-0.245780	0.000067
O148	O	1.270740	0.254220	0.500067
C149	C	0.723846	-0.468398	0.000053
C150	C	1.223846	0.031602	0.500053
C151	C	0.671610	-0.487591	0.000042
C152	C	1.171610	0.012409	0.500042
C153	C	0.619978	-0.456372	0.000036
C154	C	1.119978	0.043628	0.500036
C155	C	0.671006	-0.538007	0.000042
C156	C	1.171006	-0.038007	0.500042
C157	C	0.722638	-0.569226	0.000047
C158	C	1.222638	-0.069226	0.500047
C159	C	0.774875	-0.550030	0.000053
C160	C	1.274875	-0.050030	0.500053
C161	C	0.775478	-0.499617	0.000058
C162	C	1.275478	0.000383	0.500058
C163	C	0.567741	-0.475568	0.000030
C164	C	1.067741	0.024432	0.500030
C165	C	0.567142	-0.525981	0.000026
C166	C	1.067142	-0.025981	0.500026
C167	C	0.618774	-0.557200	0.000031
C168	C	1.118774	-0.057200	0.500031
C169	C	0.776366	0.058771	0.000075
C170	C	1.276366	0.558771	0.500075
C171	C	0.839583	0.059411	0.000078
C172	C	1.339583	0.559411	0.500078
C173	C	0.667271	0.151213	0.000050
C174	C	1.167271	0.651213	0.500050
C175	C	0.667923	0.204869	0.000041
C176	C	1.167923	0.704869	0.500041
N177	N	0.672187	0.062833	0.153320
N178	N	1.172187	0.562833	0.653320
N179	N	0.672232	0.062796	-0.153191
N180	N	1.172232	0.562796	0.346809
C181	C	0.711227	0.029760	0.561971
C182	C	1.211227	0.529760	1.061971
C183	C	0.711230	0.029757	0.623891
C184	C	1.211230	0.529757	1.123891
O185	O	0.744400	0.001644	0.655917
O186	O	1.244400	0.501644	1.155917
N187	N	0.672217	0.062799	0.654857
N188	N	1.172217	0.562799	1.154857
C189	C	0.633194	0.095844	0.623900
C190	C	1.133194	0.595844	1.123900
O191	O	0.600010	0.123949	0.655925
O192	O	1.100010	0.623949	1.155925
C193	C	0.633189	0.095845	0.561981
C194	C	1.133189	0.595845	1.061981
C195	C	0.672209	0.062803	0.531018
C196	C	1.172209	0.562803	1.031018
C197	C	0.750244	-0.003279	0.531008
C198	C	1.250244	0.496721	1.031008
C199	C	0.750241	-0.003275	0.469092
C200	C	1.250241	0.496725	0.969092
C201	C	0.711223	0.029769	0.438139
C202	C	1.211223	0.529769	0.938139
C203	C	0.672206	0.062808	0.469102
C204	C	1.172206	0.562808	0.969102
C205	C	0.594164	0.128887	0.531025
C206	C	1.094164	0.628887	1.031025
C207	C	0.594162	0.128885	0.469102
C208	C	1.094162	0.628885	0.969102
C209	C	0.633182	0.095843	0.438139
C210	C	1.133182	0.595843	0.938139
C211	C	0.633185	0.095855	0.376234
C212	C	1.133185	0.595855	0.876234
N213	N	0.672199	0.062813	0.345268
N214	N	1.172199	0.562813	0.845268
C215	C	0.711217	0.029769	0.376221
C216	C	1.211217	0.529769	0.876221
C217	C	0.633207	0.095839	0.753933
C218	C	1.133207	0.595839	1.253933
C219	C	0.633215	0.095841	0.815851
C220	C	1.133215	0.595841	1.315851
C221	C	0.711250	0.029753	0.815837
C222	C	1.211250	0.529753	1.315837
C223	C	0.711245	0.029754	0.753919
C224	C	1.211245	0.529754	1.253919
C225	C	0.672221	0.062797	0.722967
C226	C	1.172221	0.562797	1.222967
C227	C	0.711210	0.029781	0.246193
C228	C	1.211210	0.529781	0.746193
C229	C	0.711206	0.029790	0.184272
C230	C	1.211206	0.529790	0.684272
C231	C	0.633168	0.095876	0.184291
C232	C	1.133168	0.595876	0.684291
C233	C	0.633174	0.095869	0.246207
C234	C	1.133174	0.595869	0.746207
C235	C	0.672197	0.062818	0.277156
C236	C	1.172197	0.562818	0.777156
O237	O	0.600031	0.123952	0.344168
O238	O	1.100031	0.623952	0.844168
O239	O	0.744391	0.001665	0.344188
O240	O	1.244391	0.501665	0.844188
H241	H	0.391552	0.065055	-0.097238
H242	H	0.891552	0.565055	0.402762
H243	H	0.601447	0.122752	0.841057
H244	H	1.101447	0.622752	1.341057
H245	H	0.526402	-0.390354	0.000016
H246	H	1.026402	0.109646	0.500016
H247	H	-0.154904	0.059479	0.097366
H248	H	0.345096	0.559479	0.597366
H249	H	0.742985	0.002867	0.271385
H250	H	1.242985	0.502867	0.771385
H251	H	0.601430	0.122751	0.728736
H252	H	1.101430	0.622751	1.228736
H253	H	0.818017	-0.483996	0.000067
H254	H	1.318017	0.016004	0.500067
H255	H	0.769576	-0.186286	0.000079
H256	H	1.269576	0.313714	0.500079
Br257	Br	0.242225	0.063484	-0.179961
Br258	Br	0.742225	0.563484	0.320039
H259	H	-0.047141	0.060583	0.097367
H260	H	0.452859	0.560583	0.597367
H261	H	0.527501	-0.298901	0.000019
H262	H	1.027501	0.201099	0.500019
H263	H	0.226080	0.063380	0.150975
H264	H	0.726080	0.563380	0.650975
Br265	Br	0.580217	0.140720	0.142274
Br266	Br	1.080217	0.640720	0.642274
H267	H	-0.047141	0.060557	-0.097217
H268	H	0.452859	0.560557	0.402783
H269	H	0.499317	0.066155	-0.097238
H270	H	0.999317	0.566155	0.402762
Br271	Br	0.102236	0.062059	-0.179962
Br272	Br	0.602236	0.562059	0.320038
H273	H	0.782013	-0.030181	0.443885
H274	H	1.282013	0.469819	0.943885
H275	H	0.562390	0.155792	0.556227
H276	H	1.062390	0.655792	1.056227
H277	H	0.743021	0.002846	0.841050
H278	H	1.243021	0.502846	1.341050
H279	H	0.524599	-0.541602	0.000021
H280	H	1.024599	-0.041602	0.500021
H281	H	0.574844	-0.688082	0.000027
H282	H	1.074844	-0.188082	0.500027
Br283	Br	0.799026	-0.084412	0.000105
Br284	Br	1.299026	0.415588	0.500105
H285	H	0.581114	-0.164477	0.000075
H286	H	1.081114	0.335523	0.500075
H287	H	0.525695	-0.450153	0.000024
H288	H	1.025695	0.049847	0.500024
Br289	Br	0.846768	-0.441153	0.000076
Br290	Br	1.346768	0.058847	0.500076
H291	H	0.763306	-0.709897	0.000060
H292	H	1.263306	-0.209897	0.500060
H293	H	0.118339	0.062275	0.150980
H294	H	0.618339	0.562275	0.650980
H295	H	0.499308	0.066180	0.097337
H296	H	0.999308	0.566180	0.597337
Br297	Br	0.545390	-0.789952	0.000033
Br298	Br	1.045390	-0.289952	0.500033
Br299	Br	0.554182	-0.056058	0.000066
Br300	Br	1.054182	0.443942	0.500066
Br301	Br	0.790235	-0.818314	0.000053
Br302	Br	1.290235	-0.318314	0.500053
Br303	Br	0.375443	0.064902	0.126462
Br304	Br	0.875443	0.564902	0.626462
Br305	Br	0.541194	0.173730	0.427101
Br306	Br	1.041194	0.673730	0.927101
H307	H	-0.154888	0.059464	-0.097211
H308	H	0.345112	0.559464	0.402789
H309	H	0.819828	-0.332757	0.000081
H310	H	1.319828	0.167243	0.500081
Br311	Br	0.580225	0.140719	0.288226
Br312	Br	1.080225	0.640719	0.788226
Br313	Br	0.764167	-0.015053	0.142254
Br314	Br	1.264167	0.484947	0.642254
Br315	Br	0.844946	-0.592409	0.000065
Br316	Br	1.344946	-0.092409	0.500065
Br317	Br	0.803204	-0.048130	0.573004
Br318	Br	1.303204	0.451870	1.073004
H319	H	0.743018	0.002848	0.728712
H320	H	1.243018	0.502848	1.228712
