data_functionalizedCrystal
_audit_creation_method	'MofGen! by Chris Wilmer'
_symmetry_space_group_name_H-M	'P1'
_symmetry_Int_Tables_number	1
_symmetry_cell_setting	triclinic
loop_
_symmetry_equiv_pos_as_xyz
  x,y,z
_cell_length_a	16.625546
_cell_length_b	12.759401
_cell_length_c	12.759393
_cell_angle_alpha	90.019837
_cell_angle_beta	89.963756
_cell_angle_gamma	89.976007
loop_
_atom_site_label
_atom_site_type_symbol
_atom_site_fract_x
_atom_site_fract_y
_atom_site_fract_z
Zn1	Zn	-0.320921	-1.606198	-0.593986
Zn2	Zn	0.179079	-1.106198	-0.093986
Zn3	Zn	-0.455778	-1.606069	-0.418292
Zn4	Zn	0.044222	-1.106069	0.081708
Zn5	Zn	-0.320966	-1.430500	-0.418322
Zn6	Zn	0.179034	-0.930500	0.081678
Zn7	Zn	-0.455719	-1.430465	-0.593930
Zn8	Zn	0.044281	-0.930465	-0.093930
O9	O	-0.388346	-1.518308	-0.506132
O10	O	0.111654	-1.018308	-0.006132
O11	O	-0.338816	-1.753202	-0.570692
O12	O	0.161184	-1.253202	-0.070692
O13	O	-0.437938	-1.582740	-0.271275
O14	O	0.062062	-1.082740	0.228725
O15	O	-0.208128	-1.453876	-0.441660
O16	O	0.291872	-0.953876	0.058340
O17	O	-0.437894	-1.753107	-0.441610
O18	O	0.062106	-1.253107	0.058390
O19	O	-0.208094	-1.582960	-0.570720
O20	O	0.291906	-1.082960	-0.070720
O21	O	-0.338893	-1.453751	-0.271297
O22	O	0.161107	-0.953751	0.228703
O23	O	-0.338836	-1.283475	-0.441605
O24	O	0.161164	-0.783475	0.058395
O25	O	-0.437794	-1.453816	-0.740958
O26	O	0.062206	-0.953816	-0.240958
O27	O	-0.437838	-1.283449	-0.570623
O28	O	0.062162	-0.783449	-0.070623
O29	O	-0.338758	-1.582926	-0.741000
O30	O	0.161242	-1.082926	-0.241000
O31	O	-0.568602	-1.582706	-0.441555
O32	O	-0.068602	-1.082706	0.058445
O33	O	-0.568559	-1.453690	-0.570595
O34	O	-0.068559	-0.953690	-0.070595
C35	C	-0.597837	-1.518209	-0.506088
C36	C	-0.097837	-1.018209	-0.006088
C37	C	-0.687458	-1.518262	-0.506105
C38	C	-0.187458	-1.018262	-0.006105
C39	C	-0.388336	-1.245341	-0.506112
C40	C	0.111664	-0.745341	-0.006112
C41	C	-0.388351	-1.128564	-0.506128
C42	C	0.111649	-0.628564	-0.006128
C43	C	-0.388264	-1.518382	-0.780166
C44	C	0.111736	-1.018382	-0.280166
C45	C	-0.388230	-1.518413	-0.896943
C46	C	0.111770	-1.018413	-0.396943
C47	C	-1.015633	-1.518446	-0.506214
C48	C	-0.515633	-1.018446	-0.006214
C49	C	-0.924325	-1.518391	-0.506187
C50	C	-0.424325	-1.018391	-0.006187
C51	C	-0.851549	-1.518353	-0.506159
C52	C	-0.351549	-1.018353	-0.006159
C53	C	-0.760234	-1.518300	-0.506132
C54	C	-0.260234	-1.018300	-0.006132
C55	C	-0.178037	-1.518437	-0.506200
C56	C	0.321963	-1.018437	-0.006200
C57	C	-0.088416	-1.518491	-0.506228
C58	C	0.411584	-1.018491	-0.006228
C59	C	-0.388356	-1.792341	-0.506154
C60	C	0.111644	-1.292341	-0.006154
C61	C	-0.388361	-1.909118	-0.506163
C62	C	0.111639	-1.409118	-0.006163
C63	C	-0.439980	-1.073716	-0.573202
C64	C	0.060020	-0.573716	-0.073202
C65	C	-0.439983	-0.963992	-0.573223
C66	C	0.060017	-0.463992	-0.073223
C67	C	-0.336726	-0.963974	-0.439086
C68	C	0.163274	-0.463974	0.060914
C69	C	-0.336720	-1.073696	-0.439071
C70	C	0.163280	-0.573696	0.060929
C71	C	-0.336647	-1.451272	-0.951815
C72	C	0.163353	-0.951272	-0.451815
C73	C	-0.336623	-1.451297	-1.061539
C74	C	0.163377	-0.951297	-0.561539
C75	C	-0.439765	-1.585611	-1.061509
C76	C	0.060235	-1.085611	-0.561509
C77	C	-0.439793	-1.585581	-0.951786
C78	C	0.060207	-1.085581	-0.451786
C79	C	-0.388369	-1.518296	-0.233165
C80	C	0.111631	-1.018296	0.266835
C81	C	-0.388177	-1.518468	-0.116389
C82	C	0.111823	-1.018468	0.383611
H83	H	-0.482023	-0.919340	-0.627843
H84	H	0.017977	-0.419340	-0.127843
H85	H	-0.294661	-1.396579	-0.907165
H86	H	0.205339	-0.896579	-0.407165
H87	H	-0.294691	-0.919286	-0.384490
H88	H	0.205309	-0.419286	0.115510
O89	O	-0.286651	-1.126935	-0.373759
O90	O	0.213349	-0.626935	0.126241
C91	C	-0.247313	-1.160402	-0.195141
C92	C	0.252687	-0.660402	0.304859
C93	C	-0.304077	-1.100062	-0.268977
C94	C	0.195923	-0.600062	0.231023
H95	H	-0.261370	-1.138681	-0.110411
H96	H	0.238630	-0.638681	0.389589
H97	H	-0.256179	-1.248260	-0.206562
H98	H	0.243821	-0.748260	0.293438
H99	H	-0.182320	-1.138880	-0.213802
H100	H	0.317680	-0.638880	0.286198
H101	H	-0.369091	-1.121496	-0.250362
H102	H	0.130909	-0.621496	0.249638
H103	H	-0.295141	-1.012219	-0.257542
H104	H	0.204859	-0.512219	0.242458
O105	O	-0.286479	-1.386221	-1.114962
O106	O	0.213521	-0.886221	-0.614962
C107	C	-0.177562	-1.372182	-1.238846
C108	C	0.322438	-0.872182	-0.738846
C109	C	-0.234309	-1.446004	-1.178429
C110	C	0.265691	-0.946004	-0.678429
H111	H	-0.135357	-1.420488	-1.290157
H112	H	0.364643	-0.920488	-0.790157
H113	H	-0.214525	-1.317254	-1.290261
H114	H	0.285475	-0.817254	-0.790261
H115	H	-0.140753	-1.324145	-1.180781
H116	H	0.359247	-0.824145	-0.680781
H117	H	-0.271130	-1.494110	-1.236418
H118	H	0.228870	-0.994110	-0.736418
H119	H	-0.197299	-1.500863	-1.126998
H120	H	0.302701	-1.000863	-0.626998
H121	H	-0.481745	-1.640298	-1.106176
H122	H	0.018255	-1.140298	-0.606176
O123	O	-0.490015	-1.650755	-0.898592
O124	O	0.009985	-1.150755	-0.398592
C125	C	-0.627183	-1.701608	-0.864914
C126	C	-0.127183	-1.201608	-0.364914
C127	C	-0.570398	-1.627759	-0.925241
C128	C	-0.070398	-1.127759	-0.425241
H129	H	-0.692186	-1.683028	-0.886421
H130	H	-0.192186	-1.183028	-0.386421
H131	H	-0.613091	-1.786358	-0.886515
H132	H	-0.113091	-1.286358	-0.386515
H133	H	-0.618305	-1.690061	-0.777078
H134	H	-0.118305	-1.190061	-0.277078
H135	H	-0.579244	-1.639213	-1.013090
H136	H	-0.079244	-1.139213	-0.513090
H137	H	-0.584504	-1.543036	-0.903553
H138	H	-0.084504	-1.043036	-0.403553
O139	O	-0.490152	-1.126854	-0.638444
O140	O	0.009848	-0.626854	-0.138444
C141	C	-0.592596	-1.115286	-0.771455
C142	C	-0.092596	-0.615286	-0.271455
C143	C	-0.535806	-1.054982	-0.697634
C144	C	-0.035806	-0.554982	-0.197634
H145	H	-0.629534	-1.057204	-0.819313
H146	H	-0.129534	-0.557204	-0.319313
H147	H	-0.555662	-1.166669	-0.826540
H148	H	-0.055662	-0.666669	-0.326540
H149	H	-0.634678	-1.166642	-0.723100
H150	H	-0.134678	-0.666642	-0.223100
H151	H	-0.493713	-1.003569	-0.745904
H152	H	0.006287	-0.503569	-0.245904
H153	H	-0.572791	-1.003666	-0.642545
H154	H	-0.072791	-0.503666	-0.142545
