data_functionalizedCrystal
_audit_creation_method	'MofGen! by Chris Wilmer'
_symmetry_space_group_name_H-M	'P1'
_symmetry_Int_Tables_number	1
_symmetry_cell_setting	triclinic
loop_
_symmetry_equiv_pos_as_xyz
  x,y,z
_cell_length_a	16.109301
_cell_length_b	16.109301
_cell_length_c	9.130313
_cell_angle_alpha	89.994060
_cell_angle_beta	89.999196
_cell_angle_gamma	83.461481
loop_
_atom_site_label
_atom_site_type_symbol
_atom_site_fract_x
_atom_site_fract_y
_atom_site_fract_z
O1	O	1.103131	0.106867	-0.121711
O2	O	0.861069	0.120166	-0.121735
O3	O	0.988749	-0.007514	-0.121708
O4	O	0.975450	0.234548	-0.121739
O5	O	0.988741	-0.007518	0.121891
O6	O	0.861060	0.120163	0.121864
O7	O	1.103122	0.106863	0.121887
Cu8	Cu	0.982090	0.113513	0.144118
Cu9	Cu	0.982101	0.113517	-0.143966
O10	O	0.975441	0.234544	0.121860
C11	C	0.830090	0.119626	0.000061
C12	C	0.737794	0.118011	0.000053
C13	C	0.515522	0.190018	0.000060
C14	C	0.428801	0.188494	0.000070
C15	C	0.448676	0.037006	0.000083
C16	C	0.535394	0.038530	0.000084
C17	C	0.568815	0.115039	0.000065
C18	C	0.395376	0.111990	0.000074
C19	C	0.301350	0.110337	0.000084
C20	C	0.662847	0.116693	0.000058
C21	C	0.988206	-0.038491	0.000092
C22	C	0.986591	-0.130786	0.000094
C23	C	1.058599	-0.353059	0.000078
C24	C	1.057075	-0.439779	0.000066
C25	C	0.905586	-0.419905	0.000057
C26	C	0.907111	-0.333186	0.000058
C27	C	0.983620	-0.299766	0.000077
C28	C	0.980571	-0.473205	0.000063
C29	C	0.978918	-0.567231	0.000050
C30	C	0.985273	-0.205734	0.000087
C31	C	1.134101	0.107404	0.000088
C32	C	1.226397	0.109019	0.000087
C33	C	0.975984	0.265521	0.000057
C34	C	0.977600	0.357816	0.000045
N35	N	0.982089	0.113509	0.346741
N36	N	0.982108	0.113514	-0.346588
C37	C	1.038645	0.056996	0.423405
C38	C	1.038653	0.056996	0.576742
C39	C	0.925546	0.170030	0.576737
C40	C	0.925535	0.170025	0.423403
H41	H	0.421454	-0.025285	0.000108
C42	C	1.188183	-0.343286	-0.125158
C43	C	1.142694	-0.316319	0.000074
H44	H	1.240098	-0.320601	-0.125167
H45	H	1.198004	-0.402553	-0.125147
H46	H	1.157299	-0.324981	-0.210092
H47	H	1.173575	-0.334630	0.085009
H48	H	1.132876	-0.257040	0.000076
C49	C	0.385163	0.317143	-0.125183
C50	C	0.370221	0.270913	0.000054
H51	H	0.348993	0.368024	-0.125193
H52	H	0.441586	0.328996	-0.125176
H53	H	0.375029	0.285762	-0.210114
H54	H	0.380361	0.302291	0.084986
H55	H	0.313784	0.259062	0.000060
H56	H	0.578788	-0.022530	0.000092
C57	C	0.756000	-0.391549	0.000031
C58	C	0.821490	-0.456643	0.000043
H59	H	0.704082	-0.414230	0.000015
H60	H	0.759742	-0.358146	0.084976
H61	H	0.759755	-0.358133	-0.084922
H62	H	0.817738	-0.490056	0.085002
H63	H	0.817746	-0.490059	-0.084910
H64	H	1.118130	-0.483168	0.000064
C65	C	0.820943	-0.224130	-0.125178
C66	C	0.824686	-0.274600	0.000052
H67	H	0.770058	-0.187966	-0.125188
H68	H	0.866720	-0.191818	-0.125163
H69	H	0.823500	-0.258379	-0.210113
H70	H	0.822136	-0.240351	0.084988
H71	H	0.778897	-0.306914	0.000051
C72	C	1.150439	-0.054740	0.438816
C73	C	1.100800	-0.005134	0.339136
H74	H	1.188806	-0.093101	0.386792
H75	H	1.180336	-0.020121	0.498599
H76	H	1.115836	-0.084651	0.498644
H77	H	1.135402	0.024783	0.279315
H78	H	1.070901	-0.039757	0.279329
C79	C	0.781610	0.218796	0.623987
C80	C	0.863388	0.232151	0.661015
H81	H	0.743237	0.257145	0.676024
H82	H	0.773512	0.226886	0.521708
H83	H	0.772617	0.163301	0.649140
H84	H	0.872383	0.287645	0.635852
H85	H	0.871489	0.224068	0.763317
H86	H	1.084705	0.010977	0.639157
C87	C	0.876662	0.313946	0.376147
C88	C	0.863367	0.232152	0.339121
H89	H	0.838285	0.352295	0.324107
H90	H	0.868572	0.322034	0.478425
H91	H	0.932145	0.322981	0.350993
H92	H	0.807886	0.223115	0.364285
H93	H	0.871450	0.224061	0.236820
H94	H	0.542730	0.252317	0.000056
