data_functionalizedCrystal
_audit_creation_method	'MofGen! by Chris Wilmer'
_symmetry_space_group_name_H-M	'P1'
_symmetry_Int_Tables_number	1
_symmetry_cell_setting	triclinic
loop_
_symmetry_equiv_pos_as_xyz
  x,y,z
_cell_length_a	8.559649
_cell_length_b	8.559649
_cell_length_c	7.088667
_cell_angle_alpha	82.323931
_cell_angle_beta	82.349513
_cell_angle_gamma	69.778664
loop_
_atom_site_label
_atom_site_type_symbol
_atom_site_fract_x
_atom_site_fract_y
_atom_site_fract_z
O1	O	-2.139875	0.041949	0.158965
O2	O	-1.664390	-0.041833	0.158972
O3	O	-1.944023	0.237801	0.158966
O4	O	-1.860242	-0.237685	0.158971
O5	O	-1.918011	0.263983	-0.159024
O6	O	-1.638379	-0.015650	-0.159017
O7	O	-2.113863	0.068131	-0.159025
Cu8	Cu	-1.873746	0.028631	-0.188056
Cu9	Cu	-1.904508	-0.002333	0.188003
O10	O	-1.834230	-0.211502	-0.159019
C11	C	-1.591076	-0.035091	-0.000022
C12	C	-1.411377	-0.053990	-0.000019
C13	C	-1.937366	0.311200	-0.000026
C14	C	-1.956266	0.490899	-0.000015
C15	C	-1.840887	-0.284903	-0.000023
C16	C	-1.821988	-0.464602	-0.000021
C17	C	-2.187178	0.061389	-0.000027
C18	C	-2.366878	0.080287	-0.000017
N19	N	-1.926146	-0.024099	0.452503
N20	N	-1.852121	0.050412	-0.452556
H21	H	-1.311989	-0.183419	-0.000007
H22	H	-1.775416	0.127598	0.465754
H23	H	-1.466257	0.209706	-0.000009
H24	H	-1.692568	0.436020	-0.000025
H25	H	-2.085693	0.590289	-0.000033
O26	O	-2.027759	-0.126357	0.560697
H27	H	-2.025953	-0.124536	0.716653
