data_functionalizedCrystal
_audit_creation_method	'MofGen! by Chris Wilmer'
_symmetry_space_group_name_H-M	'P1'
_symmetry_Int_Tables_number	1
_symmetry_cell_setting	triclinic
loop_
_symmetry_equiv_pos_as_xyz
  x,y,z
_cell_length_a	13.033291
_cell_length_b	13.032721
_cell_length_c	21.395355
_cell_angle_alpha	97.165964
_cell_angle_beta	82.784784
_cell_angle_gamma	105.184202
loop_
_atom_site_label
_atom_site_type_symbol
_atom_site_fract_x
_atom_site_fract_y
_atom_site_fract_z
Zn1	Zn	1.570253	-0.216985	-0.490558
Zn2	Zn	2.070253	0.283015	0.009442
Zn3	Zn	1.547563	-0.394598	-0.397575
Zn4	Zn	2.047563	0.105402	0.102425
Zn5	Zn	1.392606	-0.239520	-0.373960
Zn6	Zn	1.892606	0.260480	0.126040
Zn7	Zn	1.370032	-0.417091	-0.490486
Zn8	Zn	1.870032	0.082909	0.009514
O9	O	1.470114	-0.317048	-0.438145
O10	O	1.970114	0.182952	0.061855
O11	O	1.715886	-0.221701	-0.488136
O12	O	2.215886	0.278299	0.011864
O13	O	1.526959	-0.374044	-0.306762
O14	O	2.026959	0.125956	0.193238
O15	O	1.435115	-0.087885	-0.379575
O16	O	1.935115	0.412115	0.120425
O17	O	1.699216	-0.352193	-0.419822
O18	O	2.199216	0.147807	0.080178
O19	O	1.565632	-0.071328	-0.465239
O20	O	2.065632	0.428672	0.034761
O21	O	1.413113	-0.260109	-0.289413
O22	O	1.913113	0.239891	0.210587
O23	O	1.240969	-0.281919	-0.379505
O24	O	1.740969	0.218081	0.120495
O25	O	1.396641	-0.390529	-0.578176
O26	O	1.896641	0.109471	-0.078176
O27	O	1.224384	-0.412380	-0.465116
O28	O	1.724384	0.087620	0.034884
O29	O	1.543742	-0.243512	-0.578229
O30	O	2.043742	0.256488	-0.078229
O31	O	1.505069	-0.546227	-0.419752
O32	O	2.005069	-0.046227	0.080248
O33	O	1.374638	-0.562753	-0.488014
O34	O	1.874638	-0.062753	0.011986
C35	C	1.194135	-0.352036	-0.419741
C36	C	1.694135	0.147964	0.080259
C37	C	1.076067	-0.367030	-0.411884
C38	C	1.576067	0.132970	0.088116
C39	C	0.909638	-0.324736	-0.434131
C40	C	1.409638	0.175264	0.065869
C41	C	1.031667	-0.309242	-0.442251
C42	C	1.531667	0.190758	0.057749
C43	C	1.434971	-0.593029	-0.456453
C44	C	1.934971	-0.093029	0.043547
C45	C	1.420034	-0.711082	-0.464313
C46	C	1.920034	-0.211082	0.035687
C47	C	1.477966	-0.755495	-0.434075
C48	C	1.977966	-0.255495	0.065925
C49	C	1.462529	-0.877509	-0.442197
C50	C	1.962529	-0.377509	0.057803
C51	C	1.747170	-0.281924	-0.456621
C52	C	2.247170	0.218076	0.043379
C53	C	1.865235	-0.266956	-0.464495
C54	C	2.365235	0.233044	0.035505
C55	C	1.470205	-0.317016	-0.601573
C56	C	1.970205	0.182984	-0.101573
C57	C	1.470243	-0.317002	-0.671216
C58	C	1.970243	0.182998	-0.171216
C59	C	1.505423	-0.039986	-0.419781
C60	C	2.005423	0.460014	0.080219
C61	C	1.520469	0.078081	-0.411955
C62	C	2.020469	0.578081	0.088045
C63	C	1.546837	-0.240447	-0.703957
C64	C	2.046837	0.259553	-0.203957
C65	C	1.546841	-0.240402	-0.769389
C66	C	2.046841	0.259598	-0.269389
C67	C	1.470261	-0.316928	-0.802080
C68	C	1.970261	0.183072	-0.302080
C69	C	1.393654	-0.393489	-0.769330
C70	C	1.893654	0.106511	-0.269330
C71	C	1.393645	-0.393526	-0.703898
C72	C	1.893645	0.106474	-0.203898
C73	C	1.449694	-0.413635	-0.911541
C74	C	1.949694	0.086365	-0.411541
C75	C	1.449710	-0.413599	-0.976972
C76	C	1.949710	0.086401	-0.476972
C77	C	1.470282	-0.316815	-1.003894
C78	C	1.970282	0.183185	-0.503894
C79	C	1.490860	-0.220061	-0.965377
C80	C	1.990860	0.279939	-0.465377
C81	C	1.490851	-0.220098	-0.899945
C82	C	1.990851	0.279902	-0.399945
C83	C	1.470261	-0.316896	-0.873030
C84	C	1.970261	0.183104	-0.373030
C85	C	1.546884	-0.240205	-1.107584
C86	C	2.046884	0.259795	-0.607584
C87	C	1.546881	-0.240159	-1.173017
C88	C	2.046881	0.259841	-0.673017
C89	C	1.393698	-0.393255	-1.172957
C90	C	1.893698	0.106745	-0.672957
C91	C	1.393697	-0.393292	-1.107525
C92	C	1.893697	0.106708	-0.607525
C93	C	1.470295	-0.316768	-1.074842
C94	C	1.970295	0.183232	-0.574842
C95	C	1.470094	-0.316996	-0.275352
C96	C	1.970094	0.183004	0.224648
C97	C	1.470299	-0.316685	-0.205703
C98	C	1.970299	0.183315	0.294297
H99	H	1.023744	-0.427974	-0.379875
H100	H	1.523744	0.072026	0.120125
H101	H	1.507603	-0.141317	-0.868587
H102	H	2.007603	0.358683	-0.368587
H103	H	1.581504	-0.869617	-0.380054
H104	H	2.081504	-0.369617	0.119946
H105	H	1.609252	-0.177813	-1.199673
H106	H	2.109252	0.322187	-0.699673
H107	H	1.538997	-0.703191	-0.402176
H108	H	2.038997	-0.203191	0.097824
H109	H	0.917563	-0.206013	-0.496498
H110	H	1.417563	0.293987	0.003502
H111	H	1.609208	-0.178134	-0.677351
H112	H	2.109208	0.321866	-0.177351
H113	H	1.083991	-0.248294	-0.474257
H114	H	1.583991	0.251706	0.025743
H115	H	1.507612	-0.141250	-0.987295
H116	H	2.007612	0.358750	-0.487295
H117	H	0.857312	-0.385670	-0.402122
H118	H	1.357312	0.114330	0.097878
H119	H	1.401503	-0.929812	-0.474104
H120	H	1.901503	-0.429812	0.025896
H121	H	1.432661	-0.492465	-0.889607
H122	H	1.932661	0.007535	-0.389607
H123	H	1.359012	-0.763388	-0.496217
H124	H	1.859012	-0.263388	0.003783
H125	H	1.609211	-0.178057	-0.796052
H126	H	2.109211	0.321943	-0.296052
H127	H	1.609250	-0.177890	-1.080972
H128	H	2.109250	0.322110	-0.580972
H129	H	1.331336	-0.455555	-1.199572
H130	H	1.831336	0.044445	-0.699572
H131	H	1.331332	-0.455637	-1.080867
H132	H	1.831332	0.044363	-0.580867
H133	H	1.432961	-0.492382	-1.008328
H134	H	1.932961	0.007618	-0.508328
H135	H	1.331299	-0.455794	-0.795950
H136	H	1.831299	0.044206	-0.295950
H137	H	1.331269	-0.455865	-0.677240
H138	H	1.831269	0.044135	-0.177240
