data_functionalizedCrystal
_audit_creation_method	'MofGen! by Chris Wilmer'
_symmetry_space_group_name_H-M	'P1'
_symmetry_Int_Tables_number	1
_symmetry_cell_setting	triclinic
loop_
_symmetry_equiv_pos_as_xyz
  x,y,z
_cell_length_a	17.699083
_cell_length_b	23.532407
_cell_length_c	16.776229
_cell_angle_alpha	89.988688
_cell_angle_beta	89.998886
_cell_angle_gamma	83.065847
loop_
_atom_site_label
_atom_site_type_symbol
_atom_site_fract_x
_atom_site_fract_y
_atom_site_fract_z
O1	O	1.003713	0.072020	-0.066185
O2	O	0.783287	0.081390	-0.066212
O3	O	0.900147	-0.006208	-0.066183
O4	O	0.886853	0.159617	-0.066214
O5	O	0.900132	-0.006213	0.066394
O6	O	0.783272	0.081384	0.066365
O7	O	1.003698	0.072015	0.066392
Zn8	Zn	0.893482	0.076699	0.087428
Zn9	Zn	0.893503	0.076706	-0.087248
O10	O	0.886838	0.159612	0.066363
C11	C	0.755084	0.081051	0.000073
C12	C	0.671071	0.080044	0.000063
C13	C	0.622189	0.131462	0.000054
C14	C	0.543251	0.130512	0.000065
C15	C	0.513196	0.078144	0.000079
C16	C	0.562084	0.026722	0.000090
C17	C	0.641021	0.027672	0.000086
C18	C	0.243740	0.022888	0.000111
C19	C	0.164797	0.021942	0.000113
C20	C	0.145970	0.125728	0.000090
C21	C	0.224907	0.126678	0.000085
C22	C	0.273788	0.075257	0.000101
C23	C	0.359382	0.076287	0.000091
C24	C	0.427603	0.077113	0.000083
C25	C	0.899801	-0.027427	0.000107
C26	C	0.898783	-0.090647	0.000113
C27	C	0.961554	-0.489570	0.000077
C28	C	0.960609	-0.548973	0.000071
O29	O	1.018799	-0.585550	0.000049
N30	N	0.891136	-0.571799	0.000063
C31	C	0.822604	-0.535218	0.000053
O32	O	0.763424	-0.560088	0.000045
C33	C	0.823550	-0.475816	0.000054
C34	C	0.893028	-0.452994	0.000070
C35	C	1.031026	-0.466747	0.000093
C36	C	1.031972	-0.407348	0.000100
C37	C	0.963445	-0.370772	0.000093
C38	C	0.893973	-0.393595	0.000078
C39	C	0.755019	-0.439237	0.000038
C40	C	0.755971	-0.379832	0.000038
C41	C	0.825448	-0.357009	0.000054
C42	C	0.826391	-0.297620	0.000078
N43	N	0.895864	-0.274795	0.000086
C44	C	0.964391	-0.311371	0.000093
C45	C	0.820622	-0.659966	0.000051
C46	C	0.819674	-0.719367	0.000056
C47	C	0.957680	-0.733118	0.000073
C48	C	0.958626	-0.673716	0.000073
C49	C	0.890095	-0.637141	0.000059
C50	C	0.966371	-0.186628	0.000110
C51	C	0.967310	-0.127223	0.000121
C52	C	0.829305	-0.113478	0.000100
C53	C	0.828365	-0.172877	0.000094
C54	C	0.896904	-0.209452	0.000096
O55	O	0.768232	-0.261008	0.000097
O56	O	1.023560	-0.286493	0.000091
C57	C	1.031901	0.072353	0.000105
C58	C	1.115914	0.073360	0.000110
C59	C	0.887184	0.180832	0.000071
C60	C	0.888202	0.244052	0.000060
N61	N	0.893474	0.076693	0.206639
N62	N	0.893517	0.076706	-0.206459
C63	C	0.945235	0.037921	0.248369
C64	C	0.945239	0.037921	0.331821
C65	C	0.893485	0.076696	0.373542
C66	C	0.841719	0.115470	0.331806
C67	C	0.841712	0.115467	0.248355
C68	C	0.841746	0.115481	0.668353
C69	C	0.841759	0.115482	0.751810
C70	C	0.945274	0.037935	0.751819
C71	C	0.945267	0.037932	0.668368
C72	C	0.893498	0.076704	0.626640
C73	C	0.893493	0.076703	0.536151
C74	C	0.893493	0.076699	0.464029
H75	H	1.023889	-0.108645	0.000136
H76	H	0.646653	0.174106	0.000042
C77	C	0.302739	0.187962	-0.068102
C78	C	0.257936	0.184245	0.000059
H79	H	0.323123	0.223504	-0.068119
H80	H	0.343149	0.157481	-0.068089
H81	H	0.272325	0.185429	-0.114323
H82	H	0.288353	0.186774	0.046281
H83	H	0.217521	0.214735	0.000054
H84	H	0.106161	0.167598	0.000081
C85	C	0.738608	0.127920	0.154521
C86	C	0.784814	0.158088	0.202483
H87	H	0.703477	0.154233	0.126208
H88	H	0.769429	0.104832	0.117736
H89	H	0.711571	0.104241	0.187098
H90	H	0.811856	0.181763	0.169906
H91	H	0.753990	0.181185	0.239273
C92	C	0.681381	-0.060495	-0.068057
C93	C	0.694758	-0.028847	0.000090
H94	H	0.714559	-0.095386	-0.068053
H95	H	0.630075	-0.068556	-0.068047
H96	H	0.690449	-0.039008	-0.114288
H97	H	0.685684	-0.050332	0.046321
H98	H	0.746075	-0.020787	0.000086
C99	C	0.343429	-0.036263	0.068270
C100	C	0.297466	-0.033633	0.000118
H101	H	0.376597	-0.071160	0.068273
H102	H	0.372623	-0.004943	0.068258
H103	H	0.312237	-0.034479	0.114498
H104	H	0.328658	-0.035412	-0.046110
H105	H	0.268270	-0.064961	0.000123
H106	H	0.537607	-0.015917	0.000113
H107	H	0.140330	-0.020705	0.000126
H108	H	1.022182	-0.216401	0.000109
H109	H	0.799595	0.147051	0.634384
C110	C	0.710481	0.149037	0.777523
C111	C	0.784861	0.158101	0.797674
H112	H	0.675359	0.175344	0.805843
H113	H	0.703068	0.154588	0.721859
H114	H	0.702571	0.111031	0.791216
H115	H	0.792773	0.196105	0.783975
H116	H	0.792277	0.152554	0.853351
H117	H	0.503454	0.172382	0.000056
H118	H	0.799576	0.147039	0.365780
H119	H	1.015201	-0.655139	0.000086
C120	C	0.676953	-0.305063	0.068178
C121	C	0.680637	-0.339627	0.000024
H122	H	0.630447	-0.280242	0.068166
H123	H	0.679443	-0.328530	0.114400
H124	H	0.718465	-0.282968	0.068180
H125	H	0.639128	-0.361725	0.000025
H126	H	0.678140	-0.316157	-0.046209
C127	C	1.168284	-0.426925	0.000108
C128	C	1.108344	-0.382268	0.000107
H129	H	1.215435	-0.411443	0.000105
H130	H	1.165038	-0.449812	0.046337
H131	H	1.165036	-0.449801	-0.046128
H132	H	1.111590	-0.359394	0.046347
H133	H	1.111593	-0.359371	-0.046127
H134	H	1.086833	-0.496522	0.000096
H135	H	1.013478	-0.762909	0.000076
H136	H	0.987425	0.006362	0.785803
C137	C	0.683360	-0.699794	0.000038
C138	C	0.743302	-0.744449	0.000045
H139	H	0.636210	-0.715278	0.000023
H140	H	0.686596	-0.676922	0.046272
H141	H	0.686615	-0.676902	-0.046193
H142	H	0.740050	-0.767339	0.046280
H143	H	0.740065	-0.767330	-0.046193
H144	H	0.764811	-0.630189	0.000046
H145	H	0.987412	0.006360	0.634402
C146	C	0.637117	-0.445771	-0.068152
C147	C	0.678645	-0.464312	0.000012
H148	H	0.589966	-0.461253	-0.068170
H149	H	0.627888	-0.405164	-0.068143
H150	H	0.665331	-0.458333	-0.114372
H151	H	0.650433	-0.451747	0.046232
H152	H	0.687872	-0.504928	0.000011
H153	H	0.771791	-0.191460	0.000103
C154	C	0.750335	-0.038684	-0.068068
C155	C	0.753982	-0.073266	0.000086
H156	H	0.703831	-0.013861	-0.068082
H157	H	0.791846	-0.016597	-0.068050
H158	H	0.752841	-0.062144	-0.114294
H159	H	0.751481	-0.049806	0.046313
H160	H	0.712459	-0.095355	0.000076
C161	C	1.047554	-0.038737	0.256769
C162	C	1.002124	-0.004704	0.202513
H163	H	1.082671	-0.065055	0.228459
H164	H	1.074600	-0.015056	0.289303
H165	H	1.016199	-0.059189	0.289331
H166	H	1.033479	0.015752	0.169955
H167	H	0.975076	-0.028388	0.169965
H168	H	0.987387	0.006349	0.365797
