data_functionalizedCrystal
_audit_creation_method	'MofGen! by Chris Wilmer'
_symmetry_space_group_name_H-M	'P1'
_symmetry_Int_Tables_number	1
_symmetry_cell_setting	triclinic
loop_
_symmetry_equiv_pos_as_xyz
  x,y,z
_cell_length_a	12.970454
_cell_length_b	12.970454
_cell_length_c	12.970454
_cell_angle_alpha	89.998131
_cell_angle_beta	59.999776
_cell_angle_gamma	59.999322
loop_
_atom_site_label
_atom_site_type_symbol
_atom_site_fract_x
_atom_site_fract_y
_atom_site_fract_z
Zr1	Zr	1.128525	0.993217	-0.135336
O2	O	1.343614	0.828595	-0.299955
O3	O	0.913435	1.043683	-0.084870
O4	O	1.128525	1.043684	-0.299961
O5	O	1.128525	0.828592	0.084802
O6	O	1.128525	1.213351	-0.299966
O7	O	1.128525	0.828593	-0.084865
O8	O	0.743769	1.213348	0.084792
O9	O	1.513282	0.828595	-0.299956
O10	O	1.001906	1.191826	-0.063352
O11	O	1.001906	1.065205	0.063272
O12	O	1.255146	1.065207	-0.189970
O13	O	1.255146	0.938586	-0.063345
Zr14	Zr	1.128528	1.263814	0.135255
Zr15	Zr	1.128526	1.263816	-0.135344
Zr16	Zr	1.128527	0.993215	0.135263
Zr17	Zr	1.399125	0.993217	-0.135337
Zr18	Zr	0.857928	1.263814	0.135256
O19	O	1.343618	1.213348	0.084789
O20	O	1.343616	1.213351	-0.299967
O21	O	1.343616	0.828592	0.084801
O22	O	0.913439	1.428437	0.299874
O23	O	0.913437	1.428439	-0.084882
O24	O	0.913437	1.043680	0.299886
O25	O	1.128528	1.428439	-0.084883
O26	O	1.128529	1.213347	0.299880
O27	O	1.128528	1.043680	0.299885
O28	O	1.128528	1.428438	0.084784
O29	O	1.513283	1.043684	-0.299963
O30	O	0.743770	1.213347	0.299882
O31	O	0.743771	1.428436	0.299875
O32	O	0.743770	1.428438	0.084785
O33	O	1.513283	0.828593	-0.084866
O34	O	1.513284	1.043683	-0.084873
O35	O	1.001907	1.191824	0.189889
O36	O	1.001907	1.318445	0.063264
O37	O	1.255147	1.191826	-0.063353
O38	O	1.255147	1.065205	0.063271
C39	C	0.790047	1.128516	-0.000039
C40	C	0.675171	1.128516	-0.000038
C41	C	1.128525	0.790038	-0.000030
C42	C	1.128524	0.675162	-0.000027
C43	C	1.467006	1.128516	-0.000042
C44	C	1.581883	1.128516	-0.000043
C45	C	1.128525	1.128518	-0.338518
C46	C	1.128524	1.128519	-0.453394
C47	C	1.128528	1.466993	-0.000051
C48	C	1.128529	1.581869	-0.000054
C49	C	1.128528	1.128513	0.338437
C50	C	1.128529	1.128512	0.453313
C51	C	0.790049	1.466993	-0.000049
C52	C	0.675173	1.581869	-0.000052
C53	C	0.790049	1.128513	0.338439
C54	C	0.675173	1.128512	0.453315
C55	C	0.790051	1.466991	0.338428
C56	C	0.675175	1.581866	0.453302
C57	C	1.467002	0.790040	-0.338509
C58	C	1.581878	0.675165	-0.453383
C59	C	1.467004	0.790038	-0.000032
C60	C	1.581880	0.675162	-0.000029
C61	C	1.467004	1.128518	-0.338520
C62	C	1.581880	1.128519	-0.453396
