data_functionalizedCrystal
_audit_creation_method	'MofGen! by Chris Wilmer'
_symmetry_space_group_name_H-M	'P1'
_symmetry_Int_Tables_number	1
_symmetry_cell_setting	triclinic
loop_
_symmetry_equiv_pos_as_xyz
  x,y,z
_cell_length_a	17.699083
_cell_length_b	17.699092
_cell_length_c	15.500346
_cell_angle_alpha	93.173239
_cell_angle_beta	93.180637
_cell_angle_gamma	83.284691
loop_
_atom_site_label
_atom_site_type_symbol
_atom_site_fract_x
_atom_site_fract_y
_atom_site_fract_z
O1	O	-1.007206	-0.098823	-0.071810
O2	O	-0.786829	-0.111277	-0.071839
O3	O	-0.903241	0.005139	-0.071822
O4	O	-0.890795	-0.215239	-0.071827
O5	O	-0.896964	0.011378	0.072064
O6	O	-0.780553	-0.105037	0.072046
O7	O	-1.000929	-0.092584	0.072076
Cu8	Cu	-0.890168	-0.098241	0.085199
Cu9	Cu	-0.897591	-0.105620	-0.084962
O10	O	-0.884518	-0.208999	0.072058
C11	C	-0.755494	-0.107711	0.000100
C12	C	-0.671477	-0.106373	0.000088
C13	C	-0.622858	-0.174706	0.000086
C14	C	-0.543914	-0.173443	0.000097
C15	C	-0.513591	-0.103847	0.000103
C16	C	-0.562216	-0.035508	0.000107
C17	C	-0.641158	-0.036772	0.000103
C18	C	-0.243852	-0.030412	0.000126
C19	C	-0.164904	-0.029154	0.000128
C20	C	-0.146608	-0.167084	0.000120
C21	C	-0.225550	-0.168347	0.000116
C22	C	-0.274168	-0.100009	0.000125
C23	C	-0.359767	-0.101379	0.000115
C24	C	-0.427993	-0.102476	0.000107
C25	C	-0.899655	0.036456	0.000120
C26	C	-0.898314	0.120473	0.000116
C27	C	-0.032265	-0.096149	0.000133
C28	C	-0.116283	-0.097488	0.000132
C29	C	-0.888104	-0.240316	0.000115
C30	C	-0.889445	-0.324334	0.000113
C31	C	-0.901108	0.156539	-0.078318
C32	C	-0.899843	0.235482	-0.078319
C33	C	-0.895790	0.278358	0.000114
C34	C	-0.892994	0.242286	0.078553
C35	C	-0.894254	0.163344	0.078553
C36	C	-0.887914	0.560651	0.078554
C37	C	-0.886657	0.639599	0.078547
C38	C	-0.893503	0.632790	-0.078318
C39	C	-0.894762	0.553847	-0.078318
C40	C	-0.891963	0.517782	0.000120
C41	C	-0.893333	0.432183	0.000121
C42	C	-0.894425	0.363957	0.000115
N43	N	-0.884953	-0.093050	0.204881
N44	N	-0.902812	-0.110804	-0.204645
C45	C	-0.858968	-0.066935	0.750056
C46	C	-0.862907	-0.070889	0.659485
C47	C	-0.910687	-0.118718	0.614215
C48	C	-0.954537	-0.162588	0.659521
C49	C	-0.950601	-0.158629	0.750090
C50	C	-0.924867	-0.132962	0.340756
C51	C	-0.928797	-0.136920	0.250180
C52	C	-0.837168	-0.045219	0.250151
C53	C	-0.833233	-0.041267	0.340722
C54	C	-0.877085	-0.085135	0.386020
C55	C	-0.914713	-0.122763	0.521637
C56	C	-0.873063	-0.081085	0.478596
H57	H	-0.680743	0.018872	0.000104
H58	H	-0.953616	-0.161706	0.484769
H59	H	-0.140218	0.027523	0.000134
H60	H	-0.283427	0.025233	0.000134
H61	H	-0.250234	-0.225020	0.000107
H62	H	-0.902120	0.264844	-0.142187
H63	H	-0.537520	0.021159	0.000125
H64	H	-0.904412	0.121636	-0.142187
H65	H	-0.107013	-0.222728	0.000117
H66	H	-0.967704	-0.175872	0.213324
H67	H	-0.898066	0.518942	-0.142186
H68	H	-0.895779	0.662163	-0.142187
H69	H	-0.960574	-0.168683	0.377626
H70	H	-0.504331	-0.229087	0.000094
H71	H	-0.794326	-0.002319	0.377575
H72	H	-0.883355	0.674507	0.142421
H73	H	-0.885649	0.531299	0.142423
H74	H	-0.993445	-0.201528	0.622655
H75	H	-0.889690	0.277202	0.142414
H76	H	-0.647540	-0.231380	0.000080
H77	H	-0.891969	0.133979	0.142422
H78	H	-0.820056	-0.027992	0.786909
H79	H	-0.827206	-0.035164	0.622607
H80	H	-0.801466	-0.009504	0.213260
H81	H	-0.986305	-0.194352	0.786971
H82	H	-0.834163	-0.042141	0.515459
