data_functionalizedCrystal
_audit_creation_method	'MofGen! by Chris Wilmer'
_symmetry_space_group_name_H-M	'P1'
_symmetry_Int_Tables_number	1
_symmetry_cell_setting	triclinic
loop_
_symmetry_equiv_pos_as_xyz
  x,y,z
_cell_length_a	12.759401
_cell_length_b	12.827892
_cell_length_c	12.759393
_cell_angle_alpha	90.029782
_cell_angle_beta	90.020938
_cell_angle_gamma	90.016917
loop_
_atom_site_label
_atom_site_type_symbol
_atom_site_fract_x
_atom_site_fract_y
_atom_site_fract_z
Zn1	Zn	1.606261	-0.415940	0.594025
Zn2	Zn	1.606150	-0.590717	0.418348
Zn3	Zn	1.430560	-0.415996	0.418361
Zn4	Zn	1.430550	-0.590644	0.593985
O5	O	1.518380	-0.503324	0.506180
O6	O	1.753268	-0.439132	0.570733
O7	O	1.582816	-0.567594	0.271328
O8	O	1.453918	-0.269752	0.441685
O9	O	1.753186	-0.567540	0.441663
O10	O	1.583005	-0.269711	0.570745
O11	O	1.453810	-0.439227	0.271338
O12	O	1.283538	-0.439156	0.441646
O13	O	1.453900	-0.567416	0.741011
O14	O	1.283530	-0.567469	0.570676
O15	O	1.582995	-0.439061	0.741041
O16	O	1.582806	-0.736944	0.441624
O17	O	1.453793	-0.736890	0.570664
C18	C	1.245413	-0.503312	0.506159
C19	C	1.128636	-0.503331	0.506175
C20	C	1.518315	-0.774834	0.506161
C21	C	1.518383	-0.890987	0.506188
C22	C	1.073798	-0.570246	0.573255
C23	C	0.964074	-0.570250	0.573276
C24	C	0.964036	-0.436422	0.439127
C25	C	1.073758	-0.436413	0.439112
C26	C	0.814177	-0.607747	0.697137
C27	C	0.759335	-0.674678	0.764208
C28	C	0.794932	-0.776661	0.780157
C29	C	0.885369	-0.811735	0.729020
C30	C	0.940205	-0.744809	0.661941
C31	C	0.904610	-0.642811	0.646012
C32	C	1.223657	-0.398927	0.315250
C33	C	1.278495	-0.332006	0.248165
C34	C	1.242901	-0.230021	0.232205
C35	C	1.152461	-0.194951	0.283324
C36	C	1.097622	-0.261872	0.350409
C37	C	1.133224	-0.363856	0.366370
C38	C	1.582298	-0.942764	0.442406
C39	C	1.582370	-1.062814	0.442433
C40	C	1.792414	-0.503338	0.506201
C41	C	1.909190	-0.503344	0.506210
C42	C	1.518459	-0.503224	0.780213
C43	C	1.518492	-0.503181	0.896990
C44	C	1.518475	-0.230754	0.506221
C45	C	1.518515	-0.114601	0.506239
C46	C	1.518363	-0.503349	0.233212
C47	C	1.518533	-0.503097	0.116436
C48	C	1.585717	-0.436336	0.951869
C49	C	1.585735	-0.436291	1.061593
C50	C	1.451301	-0.569945	1.061549
C51	C	1.451278	-0.569984	0.951827
C52	C	1.623348	-0.312997	1.211570
C53	C	1.690589	-0.246161	1.266452
C54	C	1.793102	-0.230136	1.230861
C55	C	1.828395	-0.280963	1.140388
C56	C	1.761160	-0.347806	1.085511
C57	C	1.658632	-0.363811	1.121101
C58	C	1.413676	-0.693280	0.801849
C59	C	1.346445	-0.760130	0.746969
C60	C	1.243930	-0.776165	0.782559
C61	C	1.208641	-0.725357	0.873035
C62	C	1.275872	-0.658507	0.927914
C63	C	1.378385	-0.642470	0.892317
H64	H	1.118476	-0.624732	0.627864
H65	H	1.125166	-0.738417	0.902016
C66	C	1.444583	-1.054465	0.580016
C67	C	1.362146	-0.979510	0.534333
C68	C	1.288215	-0.919364	0.608110
C69	C	1.296720	-0.934175	0.727571
C70	C	1.379160	-1.009133	0.773261
C71	C	1.453092	-1.069278	0.699483
H72	H	1.355847	-0.968543	0.445896
H73	H	1.227187	-0.863875	0.574287
H74	H	1.241991	-0.889652	0.782186
H75	H	1.385459	-1.020100	0.861698
H76	H	1.514120	-1.124768	0.733306
H77	H	0.919341	-0.381941	0.384525
H78	H	1.189195	-0.830609	0.737871
H79	H	0.785193	-0.524701	0.684168
H80	H	1.539872	-0.326030	1.240552
H81	H	1.375190	-0.801510	0.673306
H82	H	1.463720	-0.935536	0.560818
C83	C	1.659642	-0.362847	0.891546
C84	C	1.651108	-0.244043	0.906649
C85	C	1.725032	-0.170549	0.846330
C86	C	1.807489	-0.215859	0.770907
C87	C	1.816026	-0.334670	0.755800
C88	C	1.742102	-0.408164	0.816120
H89	H	1.590066	-0.210497	0.962485
H90	H	1.718712	-0.082598	0.857513
H91	H	1.862212	-0.161455	0.726254
H92	H	1.877068	-0.368216	0.699964
H93	H	1.748422	-0.496115	0.804936
H94	H	1.352136	-0.360569	0.206540
C95	C	1.377376	-0.643433	1.121873
C96	C	1.377401	-0.643399	1.242563
C97	C	1.303477	-0.716892	1.302884
C98	C	1.229529	-0.790419	1.242515
C99	C	1.229501	-0.790456	1.121818
C100	C	1.303425	-0.716963	1.061497
H101	H	1.432145	-0.588968	1.287258
H102	H	1.303498	-0.716865	1.392232
H103	H	1.174806	-0.844823	1.287168
H104	H	1.174758	-0.844888	1.077123
H105	H	1.303404	-0.716991	0.972149
C106	C	0.998138	-0.223297	0.406647
C107	C	0.958977	-0.111115	0.389097
C108	C	0.859495	-0.072542	0.445334
C109	C	0.799174	-0.146150	0.519122
C110	C	0.838335	-0.258339	0.536676
C111	C	0.937817	-0.296912	0.480438
H112	H	1.003631	-0.056619	0.334472
H113	H	0.830506	0.010509	0.432339
H114	H	0.725531	-0.117596	0.560752
H115	H	0.793681	-0.312835	0.591301
H116	H	0.966806	-0.379962	0.493433
H117	H	1.123467	-0.111913	0.270312
C118	C	1.941169	-0.263343	1.101244
C119	C	2.015125	-0.189818	1.161606
C120	C	2.127900	-0.172195	1.122457
C121	C	2.166718	-0.228099	1.022948
C122	C	2.092761	-0.301629	0.962581
C123	C	1.979986	-0.319251	1.001729
H124	H	1.986391	-0.148430	1.235274
H125	H	2.182648	-0.117763	1.167146
H126	H	2.250201	-0.215054	0.993969
H127	H	2.121495	-0.343016	0.888913
H128	H	1.925238	-0.373684	0.957041
H129	H	1.013836	-0.773365	0.620305
C130	C	1.303221	-0.156406	0.158406
C131	C	1.402694	-0.194974	0.102160
C132	C	1.463009	-0.121359	0.028366
C133	C	1.423851	-0.009175	0.010817
C134	C	1.324372	0.029398	0.067064
C135	C	1.264057	-0.044218	0.140858
H136	H	1.431686	-0.278024	0.115150
H137	H	1.536650	-0.149914	-0.013271
H138	H	1.468500	0.045319	-0.043810
H139	H	1.295380	0.112448	0.054074
H140	H	1.190416	-0.015662	0.182495
H141	H	1.252653	-0.481969	0.328248
H142	H	0.914338	-0.894784	0.742002
H143	H	1.847850	-0.175716	1.275554
H144	H	1.497149	-0.680222	0.772857
H145	H	1.247131	-0.617137	1.001585
H146	H	0.750272	-0.831157	0.834769
C147	C	1.656155	-0.882590	0.368607
C148	C	1.647669	-0.897587	0.249152
C149	C	1.721527	-0.837415	0.175351
C150	C	1.803872	-0.762246	0.221004
C151	C	1.812361	-0.747246	0.340465
C152	C	1.738503	-0.807418	0.414266
H153	H	1.586709	-0.953235	0.215351
H154	H	1.715243	-0.848520	0.086918
H155	H	1.858547	-0.717704	0.166372
H156	H	1.873321	-0.691598	0.374266
H157	H	1.744787	-0.796313	0.502699
H158	H	1.789896	-0.389192	1.011853
H159	H	0.685702	-0.646111	0.805845
H160	H	1.637087	-1.107341	0.387824
H161	H	1.661844	-0.204778	1.340116
