data_functionalizedCrystal
_audit_creation_method	'MofGen! by Chris Wilmer'
_symmetry_space_group_name_H-M	'P1'
_symmetry_Int_Tables_number	1
_symmetry_cell_setting	triclinic
loop_
_symmetry_equiv_pos_as_xyz
  x,y,z
_cell_length_a	19.077236
_cell_length_b	10.686685
_cell_length_c	10.685314
_cell_angle_alpha	99.026182
_cell_angle_beta	91.876074
_cell_angle_gamma	88.105664
loop_
_atom_site_label
_atom_site_type_symbol
_atom_site_fract_x
_atom_site_fract_y
_atom_site_fract_z
Zn1	Zn	1.061623	-0.489324	-0.827670
Zn2	Zn	1.078228	-0.684224	-0.632847
Zn3	Zn	0.952923	-0.480385	-0.608159
Zn4	Zn	0.952922	-0.708745	-0.836626
O5	O	1.011424	-0.590670	-0.726325
O6	O	1.161758	-0.508657	-0.808410
O7	O	1.068556	-0.643182	-0.452423
O8	O	0.960393	-0.304435	-0.623197
O9	O	1.173958	-0.651849	-0.665274
O10	O	1.040254	-0.311002	-0.784471
O11	O	0.976495	-0.493422	-0.434285
O12	O	0.854991	-0.517198	-0.631881
O13	O	0.960392	-0.693641	-1.012587
O14	O	0.854990	-0.684974	-0.799735
O15	O	1.040253	-0.532433	-1.006007
O16	O	1.068555	-0.864613	-0.673959
O17	O	0.976494	-0.882628	-0.823674
C18	C	0.829598	-0.602778	-0.714102
C19	C	0.751812	-0.607991	-0.708905
C20	C	0.708917	-0.536025	-0.781121
C21	C	0.635829	-0.540916	-0.776226
C22	C	0.605638	-0.617780	-0.699123
C23	C	0.648538	-0.689748	-0.626899
C24	C	0.721625	-0.684850	-0.631787
C25	C	0.387734	-0.640405	-0.676491
C26	C	0.314641	-0.645301	-0.671611
C27	C	0.301937	-0.496466	-0.820938
C28	C	0.375026	-0.491580	-0.825825
C29	C	0.417920	-0.563543	-0.753596
N30	N	0.530930	-0.622785	-0.694121
N31	N	0.492626	-0.558531	-0.758591
C32	C	1.024344	-0.919551	-0.752496
C33	C	1.029934	-1.060247	-0.763739
C34	C	1.193960	-0.578515	-0.738597
C35	C	1.271746	-0.573335	-0.743827
C36	C	0.998470	-0.616770	-1.056514
C37	C	0.992950	-0.627892	-1.197220
C38	C	0.998472	-0.260505	-0.700081
C39	C	0.992952	-0.119808	-0.688897
C40	C	1.024364	-0.564577	-0.397417
C41	C	1.030006	-0.553089	-0.256692
H42	H	0.600906	-0.482317	-0.835035
H43	H	1.065950	-0.480522	-1.199955
H44	H	0.756550	-0.743451	-0.572981
H45	H	0.957017	-1.063165	-0.616222
H46	H	1.065877	-1.116897	-0.836409
H47	H	0.267005	-0.437877	-0.879740
H48	H	0.290063	-0.707899	-0.608824
N49	N	0.741478	-0.453130	-0.864292
H50	H	0.703211	-0.408282	-0.909295
H51	H	0.771508	-0.388372	-0.810220
H52	H	0.422650	-0.699003	-0.617678
H53	H	0.399602	-0.428994	-0.888616
N54	N	0.615979	-0.772640	-0.543721
H55	H	0.563170	-0.764825	-0.551582
H56	H	0.631548	-0.863765	-0.571320
N57	N	0.945324	-0.723988	-1.272350
H58	H	0.947997	-0.718579	-1.365587
H59	H	0.960649	-0.811871	-1.257225
