data_functionalizedCrystal
_audit_creation_method	'MofGen! by Chris Wilmer'
_symmetry_space_group_name_H-M	'P1'
_symmetry_Int_Tables_number	1
_symmetry_cell_setting	triclinic
loop_
_symmetry_equiv_pos_as_xyz
  x,y,z
_cell_length_a	10.685904
_cell_length_b	10.685676
_cell_length_c	10.686551
_cell_angle_alpha	89.701534
_cell_angle_beta	81.591549
_cell_angle_gamma	80.927530
loop_
_atom_site_label
_atom_site_type_symbol
_atom_site_fract_x
_atom_site_fract_y
_atom_site_fract_z
Zn1	Zn	1.975634	0.282822	-0.886834
Zn2	Zn	1.942908	0.511418	-0.690835
Zn3	Zn	1.744554	0.317943	-0.660796
Zn4	Zn	1.747039	0.511296	-0.886735
O5	O	1.852534	0.405870	-0.781300
O6	O	2.149972	0.298498	-0.873446
O7	O	1.901860	0.500503	-0.510267
O8	O	1.787863	0.136697	-0.678251
O9	O	2.125929	0.466447	-0.729447
O10	O	1.957637	0.110894	-0.844319
O11	O	1.756131	0.358357	-0.488198
O12	O	1.566204	0.358239	-0.678155
O13	O	1.792098	0.466239	-1.063331
O14	O	1.568030	0.500295	-0.844152
O15	O	1.960046	0.298380	-1.063403
O16	O	1.904270	0.687989	-0.729351
O17	O	1.760366	0.687900	-0.873279
C18	C	1.520787	0.433066	-0.757884
C19	C	1.378865	0.444728	-0.747899
C20	C	1.829073	0.733726	-0.804594
C21	C	1.819157	0.873972	-0.814610
C22	C	2.185576	0.378569	-0.804808
C23	C	2.327498	0.366934	-0.814826
C24	C	1.876082	1.076732	-0.757928
C25	C	1.886010	0.936485	-0.747924
C26	C	1.880000	0.378378	-1.110433
C27	C	1.891704	0.366663	-1.250691
C28	C	1.825255	0.433157	-0.453446
C29	C	1.813823	0.444497	-0.313181
H30	H	1.392102	0.291403	-0.879761
H31	H	1.950838	0.882714	-0.683175
N32	N	1.713642	0.544647	-1.241931
H33	H	1.719200	0.539103	-1.148476
H34	H	1.625752	0.530586	-1.257071
H35	H	1.967345	0.291064	-1.304497
H36	H	1.314269	0.520247	-0.682959
N37	N	1.733289	0.945190	-0.900399
H38	H	1.738136	1.038643	-0.895638
H39	H	1.642068	0.931431	-0.872633
