data_functionalizedCrystal
_audit_creation_method	'MofGen! by Chris Wilmer'
_symmetry_space_group_name_H-M	'P1'
_symmetry_Int_Tables_number	1
_symmetry_cell_setting	triclinic
loop_
_symmetry_equiv_pos_as_xyz
  x,y,z
_cell_length_a	15.297475
_cell_length_b	17.640280
_cell_length_c	15.298431
_cell_angle_alpha	71.449549
_cell_angle_beta	88.369029
_cell_angle_gamma	67.467946
loop_
_atom_site_label
_atom_site_type_symbol
_atom_site_fract_x
_atom_site_fract_y
_atom_site_fract_z
Zn1	Zn	1.364919	-0.423592	-0.648275
Zn2	Zn	1.434801	-0.593371	-0.470360
Zn3	Zn	1.245935	-0.431839	-0.474975
Zn4	Zn	1.250492	-0.545621	-0.600336
O5	O	1.324037	-0.498605	-0.548487
O6	O	1.501118	-0.462646	-0.642806
O7	O	1.437086	-0.595378	-0.344051
O8	O	1.230565	-0.312073	-0.519958
O9	O	1.552460	-0.587382	-0.512093
O10	O	1.317982	-0.306014	-0.647281
O11	O	1.298327	-0.476701	-0.347441
O12	O	1.119610	-0.430400	-0.473473
O13	O	1.238333	-0.505998	-0.733617
O14	O	1.122959	-0.513995	-0.565575
O15	O	1.322401	-0.416344	-0.768838
O16	O	1.441505	-0.705708	-0.465608
O17	O	1.306094	-0.670626	-0.561100
C18	C	1.088373	-0.467911	-0.514823
C19	C	0.987556	-0.454797	-0.500439
C20	C	0.710611	-0.592344	-0.651291
C21	C	0.805336	-0.604672	-0.664802
C22	C	0.850895	-0.567204	-0.623712
C23	C	0.801721	-0.517406	-0.569110
C24	C	0.706989	-0.505082	-0.555592
C25	C	0.847273	-0.479942	-0.528013
C26	C	0.798099	-0.430144	-0.473410
C27	C	0.703376	-0.417821	-0.459896
C28	C	0.657817	-0.455289	-0.500985
C29	C	0.942005	-0.492266	-0.541531
C30	C	0.938384	-0.405004	-0.445832
C31	C	0.843659	-0.392676	-0.432321
C32	C	1.381898	-0.718937	-0.507674
C33	C	1.406727	-0.813201	-0.490257
C34	C	1.135709	-1.032065	-0.681189
C35	C	1.159049	-1.120646	-0.664793
C36	C	1.300099	-1.157099	-0.565485
C37	C	1.276774	-1.068519	-0.581875
C38	C	1.194577	-1.006008	-0.639727
C39	C	1.335641	-1.042463	-0.540414
C40	C	1.312315	-0.953891	-0.556799
C41	C	1.230121	-0.891375	-0.614646
C42	C	1.171251	-0.917437	-0.656112
C43	C	1.417834	-1.104975	-0.482557
C44	C	1.476702	-1.078919	-0.441096
C45	C	1.453380	-0.990345	-0.457486
C46	C	1.371186	-0.927830	-0.515333
C47	C	1.512250	-0.964284	-0.416020
C48	C	1.488924	-0.875712	-0.432405
C49	C	1.347860	-0.839258	-0.531718
C50	C	1.560621	-0.529420	-0.582282
C51	C	1.661438	-0.542551	-0.596684
C52	C	1.273080	-0.454925	-0.785057
C53	C	1.251366	-0.436311	-0.885869
C54	C	1.265970	-0.277413	-0.589482
C55	C	1.241226	-0.183154	-0.606951
C56	C	1.168917	-0.365774	-0.934990
C57	C	1.148504	-0.348285	-1.029706
C58	C	1.210541	-0.401327	-1.075312
C59	C	1.292994	-0.471861	-1.026193
C60	C	1.313406	-0.489357	-0.931466
C61	C	1.355030	-0.524909	-1.071789
C62	C	1.437483	-0.595444	-1.022670
C63	C	1.457891	-0.612935	-0.927952
C64	C	1.395855	-0.559894	-0.882346
C65	C	1.334618	-0.507414	-1.166516
C66	C	1.479107	-0.630997	-1.162993
C67	C	1.499520	-0.648486	-1.068276
C68	C	1.374831	-0.542062	-0.312855
C69	C	1.396658	-0.560460	-0.212113
H70	H	0.982034	-0.532812	-0.585990
H71	H	1.529624	-0.674186	-1.200126
H72	H	1.211126	-0.819255	-0.627979
H73	H	0.975478	-0.374496	-0.412372
C74	C	1.080821	-0.848669	-0.719739
N75	N	1.012707	-0.796875	-0.767652
C76	C	1.243925	-0.429822	-1.220538
N77	N	1.175612	-0.371373	-1.261227
H78	H	1.525022	-0.670379	-0.887958
H79	H	1.068782	-0.981165	-0.728305
C80	C	1.057814	-0.270692	-1.083732
N81	N	0.989505	-0.212241	-1.124427
C82	C	1.553687	-0.847047	-0.386804
N83	N	1.602469	-0.825458	-0.352456
C84	C	1.094286	-1.149302	-0.710415
N85	N	1.045508	-1.170886	-0.744776
C86	C	0.955103	-0.580785	-0.638558
N87	N	1.033598	-0.591020	-0.649739
H88	H	1.280932	-0.788357	-0.578835
H89	H	0.845368	-0.645220	-0.709257
H90	H	0.803607	-0.352130	-0.387863
H91	H	1.367021	-1.208007	-0.518379
H92	H	0.673510	-0.622851	-0.684733
H93	H	0.580683	-0.445252	-0.489990
C94	C	0.649287	-0.363043	-0.399829
N95	N	0.608548	-0.321782	-0.354589
C96	C	1.443493	-1.202407	-0.464538
N97	N	1.462821	-1.275792	-0.450969
C98	C	1.602655	-1.033057	-0.352374
N99	N	1.670749	-1.084857	-0.304433
C100	C	1.567112	-1.147689	-0.377456
N101	N	1.635212	-1.199487	-0.329523
C102	C	1.100692	-0.307431	-0.884818
N103	N	1.049302	-0.263481	-0.847029
C104	C	1.418305	-0.579129	-0.778151
N105	N	1.435212	-0.593615	-0.699671
H106	H	1.193916	-0.387082	-1.152435
C107	C	1.590214	-0.726077	-1.014232
N108	N	1.658523	-0.784519	-0.973524
