data_functionalizedCrystal
_audit_creation_method	'MofGen! by Chris Wilmer'
_symmetry_space_group_name_H-M	'P1'
_symmetry_Int_Tables_number	1
_symmetry_cell_setting	triclinic
loop_
_symmetry_equiv_pos_as_xyz
  x,y,z
_cell_length_a	25.639242
_cell_length_b	21.395361
_cell_length_c	21.395356
_cell_angle_alpha	90.030681
_cell_angle_beta	90.026212
_cell_angle_gamma	90.021637
loop_
_atom_site_label
_atom_site_type_symbol
_atom_site_fract_x
_atom_site_fract_y
_atom_site_fract_z
Zn1	Zn	-0.799307	0.249606	-0.354292
Zn2	Zn	-0.799227	0.354383	-0.249509
Zn3	Zn	-0.711867	0.249606	-0.249524
Zn4	Zn	-0.711840	0.354333	-0.354245
O5	O	-0.755560	0.301982	-0.301892
O6	O	-0.872461	0.263525	-0.340406
O7	O	-0.787616	0.340505	-0.161833
O8	O	-0.723511	0.161928	-0.263448
O9	O	-0.872402	0.340504	-0.263422
O10	O	-0.787752	0.161928	-0.340421
O11	O	-0.723434	0.263526	-0.161844
O12	O	-0.638699	0.263478	-0.263402
O13	O	-0.723465	0.340420	-0.441929
O14	O	-0.638679	0.340420	-0.340339
O15	O	-0.787726	0.263477	-0.441964
O16	O	-0.787590	0.442054	-0.263376
O17	O	-0.723387	0.442018	-0.340325
C18	C	-0.619718	0.301944	-0.301867
C19	C	-0.561604	0.301943	-0.301872
C20	C	-0.755491	0.464770	-0.301858
C21	C	-0.755509	0.534411	-0.301864
C22	C	-0.755601	0.301943	-0.465316
C23	C	-0.755619	0.301927	-0.534957
C24	C	-0.310449	0.261958	-0.342035
C25	C	-0.365053	0.261953	-0.342034
O26	O	-0.393323	0.227935	-0.376186
N27	N	-0.392330	0.301964	-0.301887
C28	C	-0.364999	0.341988	-0.261744
O29	O	-0.393214	0.376020	-0.227596
C30	C	-0.310396	0.341995	-0.261749
C31	C	-0.283122	0.301976	-0.301894
C32	C	-0.283175	0.221943	-0.382177
C33	C	-0.228574	0.221947	-0.382178
C34	C	-0.201248	0.261965	-0.342037
C35	C	-0.228522	0.301980	-0.301895
C36	C	-0.283066	0.382021	-0.221609
C37	C	-0.228459	0.382025	-0.221618
C38	C	-0.201186	0.342006	-0.261763
C39	C	-0.146594	0.342003	-0.261754
N40	N	-0.119318	0.301991	-0.301900
C41	C	-0.146644	0.261973	-0.342042
C42	C	-0.479670	0.341970	-0.261736
C43	C	-0.534272	0.341960	-0.261727
C44	C	-0.534322	0.261926	-0.342019
C45	C	-0.479719	0.261933	-0.342024
C46	C	-0.452393	0.301958	-0.301883
C47	C	-0.031979	0.261984	-0.342040
C48	C	0.022626	0.261989	-0.342035
C49	C	0.022671	0.342025	-0.261747
C50	C	-0.031929	0.342018	-0.261749
C51	C	-0.059253	0.301995	-0.301901
O52	O	-0.118290	0.376005	-0.227620
O53	O	-0.118423	0.227951	-0.376190
C54	C	0.108067	0.302013	-0.301909
C55	C	0.049953	0.302008	-0.301894
C56	C	-0.755644	0.138559	-0.301941
C57	C	-0.755679	0.068917	-0.301962
C58	C	-0.788969	0.567122	-0.261837
C59	C	-0.788994	0.632558	-0.261852
C60	C	-0.755549	0.665279	-0.301885
C61	C	-0.722087	0.632560	-0.341919
C62	C	-0.722067	0.567126	-0.341908
C63	C	-0.708472	0.768985	-0.306792
C64	C	-0.708491	0.834418	-0.306799
C65	C	-0.755610	0.867100	-0.301922
C66	C	-0.802711	0.834341	-0.297025
C67	C	-0.802692	0.768907	-0.297015
C68	C	-0.755567	0.736232	-0.301901
C69	C	-0.789099	0.970764	-0.261909
C70	C	-0.789124	1.036200	-0.261927
C71	C	-0.722212	1.036202	-0.341991
C72	C	-0.722192	0.970766	-0.341976
C73	C	-0.755634	0.938051	-0.301932
C74	C	-0.722208	0.261839	-0.567666
C75	C	-0.722206	0.261828	-0.633101
C76	C	-0.755625	0.301897	-0.665825
C77	C	-0.789038	0.341992	-0.633109
C78	C	-0.789035	0.342007	-0.567674
C79	C	-0.802733	0.306832	-0.769514
C80	C	-0.802736	0.306812	-0.834947
C81	C	-0.755633	0.301855	-0.867646
C82	C	-0.708525	0.296903	-0.834905
C83	C	-0.708522	0.296918	-0.769470
C84	C	-0.755631	0.301885	-0.736778
C85	C	-0.722218	0.261753	-0.971308
C86	C	-0.722215	0.261745	-1.036745
C87	C	-0.789051	0.341906	-1.036750
C88	C	-0.789049	0.341917	-0.971315
C89	C	-0.755633	0.301837	-0.938598
C90	C	-0.755549	0.301976	-0.139105
C91	C	-0.755633	0.301816	-0.069464
H92	H	0.044830	0.229398	-0.374726
H93	H	-0.457516	0.229346	-0.374713
C94	C	-0.825823	0.385995	-0.935334
N95	N	-0.853526	0.419191	-0.908233
H96	H	-0.841095	0.310841	-0.861600
C97	C	-0.685295	0.668555	-0.385954
N98	N	-0.657583	0.695667	-0.419123
C99	C	-0.825894	0.934775	-0.217869
N100	N	-0.853610	0.907670	-0.184699
C101	C	-0.825934	1.072183	-0.217892
N102	N	-0.853659	1.099285	-0.184723
C103	C	-0.685423	1.072192	-0.386030
N104	N	-0.657714	1.099303	-0.419203
C105	C	-0.564392	0.217909	-0.386180
N106	N	-0.587042	0.184758	-0.419441
H107	H	-0.694819	0.540492	-0.374503
H108	H	-0.556474	0.374540	-0.229031
H109	H	-0.816244	0.374650	-0.541043
C110	C	-0.825752	0.531139	-0.217780
N111	N	-0.853454	0.504036	-0.184593
C112	C	0.052741	0.386045	-0.217594
N113	N	0.075391	0.419204	-0.184342
C114	C	-0.062028	0.217953	-0.386205
N115	N	-0.084660	0.184785	-0.419466
H116	H	-0.694943	0.944131	-0.374567
H117	H	-0.816243	0.659196	-0.229258
C118	C	-0.854547	0.870287	-0.291666
N119	N	-0.893588	0.897364	-0.287629
C120	C	-0.198580	0.177929	-0.426347
N121	N	-0.175992	0.144775	-0.459620
C122	C	-0.313226	0.177911	-0.426336
N123	N	-0.335856	0.144739	-0.459595
C124	C	-0.854502	0.732875	-0.291629
N125	N	-0.893527	0.705736	-0.287572
H126	H	-0.305263	0.414608	-0.188919
H127	H	-0.457425	0.374562	-0.229044
C128	C	-0.656678	0.870446	-0.312183
N129	N	-0.617652	0.897581	-0.316240
C130	C	-0.854553	0.312290	-0.733552
N131	N	-0.893582	0.316401	-0.706465
C132	C	-0.825836	0.385955	-1.072743
N133	N	-0.853551	0.419124	-1.099856
C134	C	-0.685445	0.217755	-0.531681
N135	N	-0.657753	0.184552	-0.504576
H136	H	-0.670099	0.742381	-0.310766
C137	C	-0.685453	0.217724	-0.669089
N138	N	-0.657771	0.184503	-0.696192
C139	C	-0.198404	0.426055	-0.177457
N140	N	-0.175768	0.459216	-0.144193
C141	C	-0.061931	0.386037	-0.217585
N142	N	-0.084525	0.419198	-0.184325
H143	H	-0.816247	0.374617	-0.659757
H144	H	-0.670165	0.292887	-0.742815
H145	H	-0.670169	0.292861	-0.861527
H146	H	-0.695008	0.229117	-0.944668
H147	H	-0.695004	0.229103	-1.063375
