data_functionalizedCrystal
_audit_creation_method	'MofGen! by Chris Wilmer'
_symmetry_space_group_name_H-M	'P1'
_symmetry_Int_Tables_number	1
_symmetry_cell_setting	triclinic
loop_
_symmetry_equiv_pos_as_xyz
  x,y,z
_cell_length_a	16.109301
_cell_length_b	19.188930
_cell_length_c	15.186229
_cell_angle_alpha	89.991143
_cell_angle_beta	89.999362
_cell_angle_gamma	83.303131
loop_
_atom_site_label
_atom_site_type_symbol
_atom_site_fract_x
_atom_site_fract_y
_atom_site_fract_z
O1	O	1.102833	0.089744	-0.073183
O2	O	1.436167	0.423077	0.260150
O3	O	1.769500	0.756411	0.593484
O4	O	0.860734	0.100912	-0.073198
O5	O	1.194068	0.434246	0.260135
O6	O	1.527401	0.767579	0.593468
O7	O	0.988770	-0.006311	-0.073173
O8	O	1.322104	0.327022	0.260160
O9	O	1.655437	0.660355	0.593494
O10	O	0.974797	0.196967	-0.073208
O11	O	1.308131	0.530301	0.260125
O12	O	1.641464	0.863634	0.593458
O13	O	0.988762	-0.006313	0.073284
O14	O	1.322095	0.327021	0.406618
O15	O	1.655428	0.660354	0.739951
O16	O	0.860726	0.100911	0.073259
O17	O	1.194059	0.434244	0.406592
O18	O	1.527392	0.767578	0.739926
O19	O	1.102825	0.089742	0.073274
O20	O	1.436158	0.423076	0.406608
O21	O	1.769491	0.756409	0.739941
Zn22	Zn	0.981774	0.095326	0.096520
Zn23	Zn	1.315107	0.428660	0.429853
Zn24	Zn	1.648441	0.761993	0.763187
Zn25	Zn	0.981785	0.095328	-0.096444
Zn26	Zn	1.315118	0.428662	0.236889
Zn27	Zn	1.648452	0.761995	0.570223
O28	O	0.974789	0.196966	0.073249
O29	O	1.308122	0.530299	0.406582
O30	O	1.641455	0.863633	0.739916
C31	C	0.829757	0.100459	0.000029
C32	C	1.163090	0.433793	0.333362
C33	C	1.496423	0.767126	0.666695
C34	C	0.737466	0.099103	0.000024
C35	C	1.070799	0.432436	0.333357
C36	C	1.404132	0.765770	0.666690
C37	C	0.514993	0.159573	0.000023
C38	C	0.848326	0.492907	0.333357
C39	C	1.181660	0.826240	0.666690
C40	C	0.428277	0.158294	0.000029
C41	C	0.761610	0.491627	0.333363
C42	C	1.094944	0.824960	0.666696
C43	C	0.448573	0.031076	0.000048
C44	C	0.781906	0.364410	0.333381
C45	C	1.115239	0.697743	0.666714
C46	C	0.535287	0.032357	0.000048
C47	C	0.868621	0.365690	0.333381
C48	C	1.201954	0.699024	0.666715
C49	C	0.568495	0.096608	0.000031
C50	C	0.901828	0.429941	0.333365
C51	C	1.235161	0.763274	0.666698
C52	C	0.395064	0.094047	0.000037
C53	C	0.728398	0.427380	0.333370
C54	C	1.061731	0.760714	0.666704
C55	C	0.301043	0.092659	0.000043
C56	C	0.634376	0.425992	0.333377
C57	C	0.967709	0.759326	0.666710
C58	C	0.662522	0.097996	0.000027
C59	C	0.995856	0.431329	0.333360
C60	C	1.329189	0.764663	0.666693
C61	C	0.988313	-0.032324	0.000058
C62	C	1.321647	0.301009	0.333391
C63	C	1.654980	0.634343	0.666725
C64	C	0.986955	-0.109832	0.000066
C65	C	1.320288	0.223502	0.333399
C66	C	1.653622	0.556835	0.666732
C67	C	1.062082	-0.154580	0.000075
C68	C	1.395416	0.178753	0.333408
C69	C	1.728749	0.512087	0.666741
C70	C	1.060806	-0.227407	0.000060
C71	C	1.394140	0.105927	0.333394
C72	C	1.727473	0.439260	0.666727
C73	C	0.984399	-0.255482	0.000055
C74	C	1.317732	0.077851	0.333388
C75	C	1.651065	0.411185	0.666722
C76	C	0.909261	-0.210724	0.000041
C77	C	1.242595	0.122610	0.333374
C78	C	1.575928	0.455943	0.666708
C79	C	0.910540	-0.137899	0.000046
C80	C	1.243873	0.195435	0.333380
C81	C	1.577206	0.528768	0.666713
N82	N	0.925991	-0.363624	0.049893
N83	N	1.259324	-0.030291	0.383227
N84	N	1.592658	0.303043	0.716560
N85	N	0.924782	-0.432805	0.049890
N86	N	1.258115	-0.099472	0.383224
N87	N	1.591449	0.233861	0.716557
C88	C	0.980543	-0.474900	0.000037
C89	C	1.313876	-0.141566	0.333370
C90	C	1.647209	0.191767	0.666704
N91	N	1.037571	-0.445200	-0.049802
N92	N	1.370904	-0.111867	0.283531
N93	N	1.704238	0.221466	0.616865
N94	N	1.038783	-0.376013	-0.049795
N95	N	1.372116	-0.042679	0.283538
N96	N	1.705449	0.290654	0.616872
C97	C	0.983004	-0.334448	0.000049
C98	C	1.316337	-0.001114	0.333382
C99	C	1.649671	0.332219	0.666715
C100	C	1.054292	-0.598616	0.000029
C101	C	1.387625	-0.265282	0.333363
C102	C	1.720958	0.068051	0.666696
C103	C	1.053012	-0.671443	0.000010
C104	C	1.386346	-0.338110	0.333343
C105	C	1.719679	-0.004777	0.666676
C106	C	0.901465	-0.654759	-0.000001
C107	C	1.234799	-0.321425	0.333332
C108	C	1.568132	0.011908	0.666666
C109	C	0.902747	-0.581933	0.000010
C110	C	1.236080	-0.248599	0.333343
C111	C	1.569413	0.084734	0.666676
C112	C	0.979162	-0.553866	0.000029
C113	C	1.312495	-0.220532	0.333362
C114	C	1.645829	0.112801	0.666696
C115	C	1.133802	0.090196	0.000045
C116	C	1.467136	0.423529	0.333379
C117	C	1.800469	0.756862	0.666712
C118	C	1.226093	0.091552	0.000045
C119	C	1.559427	0.424885	0.333378
C120	C	1.892760	0.758219	0.666711
C121	C	0.975246	0.222979	0.000016
C122	C	1.308579	0.556312	0.333349
C123	C	1.641912	0.889645	0.666683
C124	C	0.976604	0.300486	0.000003
C125	C	1.309937	0.633820	0.333336
C126	C	1.643271	0.967153	0.666669
N127	N	0.981772	0.095325	0.228213
N128	N	1.315106	0.428658	0.561546
N129	N	1.648439	0.761991	0.894879
N130	N	0.981793	0.095325	-0.228137
N131	N	1.315127	0.428658	0.105197
N132	N	1.648460	0.761991	0.438530
C133	C	1.038486	0.047862	0.453947
C134	C	1.371819	0.381195	0.787280
C135	C	1.705152	0.714529	1.120613
C136	C	1.038488	0.047860	0.546136
C137	C	1.371822	0.381194	0.879470
C138	C	1.705155	0.714527	1.212803
C139	C	0.925074	0.142790	0.546123
C140	C	1.258407	0.476123	0.879456
C141	C	1.591740	0.809456	1.212790
C142	C	0.925068	0.142787	0.453935
C143	C	1.258401	0.476121	0.787268
C144	C	1.591734	0.809454	1.120602
C145	C	0.981779	0.095324	0.407849
C146	C	1.315112	0.428658	0.741183
C147	C	1.648445	0.761991	1.074516
C148	C	0.981787	0.095325	0.592227
C149	C	1.315120	0.428658	0.925560
C150	C	1.648454	0.761992	1.258893
C151	C	0.981790	0.095323	0.692183
C152	C	1.315123	0.428657	1.025516
C153	C	1.648456	0.761990	1.358850
C154	C	0.981775	0.095325	0.307887
C155	C	1.315109	0.428658	0.641220
C156	C	1.648442	0.761991	0.974553
H157	H	0.578851	-0.018920	0.000057
H158	H	0.912184	0.314413	0.333390
H159	H	1.245518	0.647746	0.666724
H160	H	0.878886	0.181437	0.416400
H161	H	1.212219	0.514770	0.749733
H162	H	1.545553	0.848104	1.083067
N163	N	0.550805	0.228872	0.000007
N164	N	0.884138	0.562205	0.333341
N165	N	1.217472	0.895538	0.666674
H166	H	0.531277	0.256454	0.054296
H167	H	0.864611	0.589787	0.387630
H168	H	1.197944	0.923120	0.720963
H169	H	0.613851	0.220075	-0.000028
H170	H	0.947185	0.553409	0.333305
H171	H	1.280518	0.886742	0.666639
N172	N	1.099629	-0.003346	0.404241
N173	N	1.432963	0.329987	0.737574
N174	N	1.766296	0.663320	1.070908
H175	H	1.091020	0.003850	0.338845
H176	H	1.424353	0.337183	0.672178
H177	H	1.757687	0.670517	1.005511
H178	H	1.158584	0.004721	0.420342
H179	H	1.491917	0.338054	0.753675
H180	H	1.825250	0.671387	1.087008
H181	H	1.114193	-0.707878	0.000012
H182	H	1.447526	-0.374544	0.333345
H183	H	1.780859	-0.041211	0.666679
H184	H	1.084664	0.009211	0.583666
H185	H	1.417997	0.342545	0.917000
H186	H	1.751330	0.675878	1.250333
H187	H	0.847050	-0.233587	0.000035
H188	H	1.180383	0.099746	0.333368
H189	H	1.513716	0.433079	0.666701
H190	H	0.849360	-0.101464	0.000039
H191	H	1.182693	0.231870	0.333373
H192	H	1.516027	0.565203	0.666706
H193	H	1.124306	-0.131733	0.000087
H194	H	1.457639	0.201600	0.333421
H195	H	1.790972	0.534934	0.666754
H196	H	0.384719	0.209567	0.000024
H197	H	0.718052	0.542900	0.333358
H198	H	1.051385	0.876234	0.666691
N199	N	0.863910	0.193980	0.595830
N200	N	1.197243	0.527313	0.929163
N201	N	1.530577	0.860647	1.262496
H202	H	0.872519	0.186781	0.661226
H203	H	1.205852	0.520115	0.994559
H204	H	1.539185	0.853448	1.327893
H205	H	0.873330	0.243513	0.579702
H206	H	1.206664	0.576846	0.913035
H207	H	1.539997	0.910180	1.246369
H208	H	1.116514	-0.575763	0.000041
H209	H	1.449847	-0.242429	0.333374
H210	H	1.783180	0.090904	0.666707
N211	N	0.412756	-0.038220	0.000070
N212	N	0.746089	0.295114	0.333403
N213	N	1.079422	0.628447	0.666737
H214	H	0.349704	-0.029478	0.000068
H215	H	0.683037	0.303856	0.333402
H216	H	1.016370	0.637189	0.666735
H217	H	0.432344	-0.065774	-0.054217
H218	H	0.765678	0.267560	0.279116
H219	H	1.099011	0.600893	0.612450
H220	H	1.121986	-0.263848	0.000064
H221	H	1.455319	0.069485	0.333397
H222	H	1.788653	0.402819	0.666731
H223	H	0.839253	-0.677617	-0.000010
H224	H	1.172586	-0.344283	0.333324
H225	H	1.505919	-0.010950	0.666657
N226	N	0.821716	-0.533663	0.000005
N227	N	1.155049	-0.200329	0.333339
N228	N	1.488383	0.133004	0.666672
H229	H	0.773117	-0.562496	0.000000
H230	H	1.106450	-0.229163	0.333334
H231	H	1.439783	0.104170	0.666667
H232	H	0.818943	-0.503093	0.054301
H233	H	1.152276	-0.169759	0.387634
H234	H	1.485610	0.163574	0.720968
