data_functionalizedCrystal
_audit_creation_method	'MofGen! by Chris Wilmer'
_symmetry_space_group_name_H-M	'P1'
_symmetry_Int_Tables_number	1
_symmetry_cell_setting	triclinic
loop_
_symmetry_equiv_pos_as_xyz
  x,y,z
_cell_length_a	19.077105
_cell_length_b	10.685194
_cell_length_c	19.076919
_cell_angle_alpha	92.275516
_cell_angle_beta	89.923776
_cell_angle_gamma	91.901544
loop_
_atom_site_label
_atom_site_type_symbol
_atom_site_fract_x
_atom_site_fract_y
_atom_site_fract_z
Zn1	Zn	1.033509	-0.606792	0.413481
Zn2	Zn	1.029920	-0.808462	0.287021
Zn3	Zn	0.921413	-0.589990	0.292020
Zn4	Zn	0.907772	-0.807705	0.399807
O5	O	0.973154	-0.703237	0.348082
O6	O	1.131065	-0.640893	0.400336
O7	O	1.019732	-0.772766	0.189651
O8	O	0.943493	-0.416705	0.315946
O9	O	1.128428	-0.789058	0.307427
O10	O	1.025850	-0.429050	0.405183
O11	O	0.940013	-0.612256	0.193324
O12	O	0.821571	-0.611522	0.302688
O13	O	0.920245	-0.787769	0.499654
O14	O	0.811550	-0.771476	0.381879
O15	O	1.012624	-0.640159	0.509700
O16	O	1.006506	-0.983875	0.294168
O17	O	0.916765	-0.983319	0.377032
C18	C	0.791142	-0.689595	0.341342
C19	C	0.713275	-0.683790	0.338474
C20	C	0.959784	-1.029108	0.333590
C21	C	0.954128	-1.168524	0.327416
C22	C	0.671491	-0.764458	0.378282
C23	C	0.598327	-0.758988	0.375591
C24	C	0.566948	-0.672854	0.333088
C25	C	0.608737	-0.592177	0.293280
C26	C	0.681900	-0.597642	0.295975
C27	C	0.348693	-0.647559	0.320619
C28	C	0.275525	-0.642102	0.317925
C29	C	0.265120	-0.808913	0.400237
C30	C	0.338285	-0.814375	0.402925
C31	C	0.380067	-0.733694	0.363120
N32	N	0.492163	-0.667262	0.330335
N33	N	0.454851	-0.739280	0.365877
C34	C	1.155876	-0.716934	0.354849
C35	C	1.233741	-0.722771	0.357732
C36	C	0.965313	-0.715754	0.530807
C37	C	0.961972	-0.721088	0.608673
C38	C	0.986594	-0.376096	0.362647
C39	C	0.992321	-0.236688	0.368854
C40	C	0.981007	-0.690682	0.166074
C41	C	0.984498	-0.685005	0.088229
C42	C	1.008497	-0.646745	0.650486
C43	C	1.005349	-0.651751	0.723650
C44	C	0.955680	-0.731108	0.754999
C45	C	0.909151	-0.805454	0.713180
C46	C	0.912296	-0.800440	0.640018
C47	C	0.941114	-0.754337	0.973249
C48	C	0.937974	-0.759348	1.046416
C49	C	1.034172	-0.605643	1.056880
C50	C	1.037315	-0.600642	0.983716
C51	C	0.990784	-0.674983	0.941904
N52	N	0.952463	-0.736230	0.829783
N53	N	0.993998	-0.669853	0.867121
H54	H	0.697035	-0.834602	0.412889
C55	C	0.241009	-0.547342	0.271168
N56	N	0.215012	-0.475974	0.235952
C57	C	0.727861	-0.508903	0.252182
N58	N	0.762479	-0.442059	0.219197
H59	H	1.029349	-1.188391	0.409058
C60	C	0.552368	-0.847753	0.419368
N61	N	0.517752	-0.914623	0.452338
C62	C	0.372796	-0.909135	0.449678
N63	N	0.398790	-0.980515	0.484889
H64	H	0.583182	-0.522039	0.258677
H65	H	0.917092	-1.216828	0.287215
C66	C	0.219154	-0.897647	0.444026
N67	N	0.184532	-0.964482	0.477013
H68	H	1.048945	-0.582128	0.624967
H69	H	1.043236	-0.591216	0.757691
C70	C	0.394644	-0.558814	0.276826
N71	N	0.429258	-0.491968	0.243838
H72	H	1.077763	-0.536024	0.958197
H73	H	0.897525	-0.823973	1.071938
C74	C	1.085345	-0.523857	1.102879
N75	N	1.123888	-0.462246	1.137526
H76	H	0.903234	-0.814890	0.939213
C77	C	0.854507	-0.892735	0.747667
N78	N	0.813349	-0.958476	0.773642
C79	C	0.861116	-0.882226	0.594024
N80	N	0.822565	-0.943827	0.559382
