data_functionalizedCrystal
_audit_creation_method	'MofGen! by Chris Wilmer'
_symmetry_space_group_name_H-M	'P1'
_symmetry_Int_Tables_number	1
_symmetry_cell_setting	triclinic
loop_
_symmetry_equiv_pos_as_xyz
  x,y,z
_cell_length_a	27.440280
_cell_length_b	23.196402
_cell_length_c	23.196402
_cell_angle_alpha	60.000138
_cell_angle_beta	89.994831
_cell_angle_gamma	59.994614
loop_
_atom_site_label
_atom_site_type_symbol
_atom_site_fract_x
_atom_site_fract_y
_atom_site_fract_z
Zr1	Zr	0.469510	0.630947	-0.075649
O2	O	0.391694	0.751225	-0.167693
O3	O	0.493363	0.510678	-0.047436
O4	O	0.493365	0.630948	-0.167702
O5	O	0.391694	0.630951	0.047447
O6	O	0.573567	0.630939	-0.167706
O7	O	0.391693	0.630955	-0.047426
O8	O	0.573565	0.415797	0.047429
O9	O	0.391696	0.846092	-0.167689
O10	O	0.563393	0.560136	-0.035401
O11	O	0.503540	0.560140	0.035404
O12	O	0.503541	0.701743	-0.106195
O13	O	0.443688	0.701747	-0.035390
Zr14	Zr	0.597425	0.630926	0.075657
Zr15	Zr	0.597423	0.630932	-0.075654
Zr16	Zr	0.469512	0.630941	0.075662
Zr17	Zr	0.469514	0.782249	-0.075642
Zr18	Zr	0.597422	0.479623	0.075650
O19	O	0.573572	0.751195	0.047444
O20	O	0.573569	0.751204	-0.167701
O21	O	0.391697	0.751216	0.047452
O22	O	0.675242	0.510648	0.167701
O23	O	0.675239	0.510657	-0.047443
O24	O	0.493366	0.510669	0.167709
O25	O	0.675242	0.630922	-0.047438
O26	O	0.573571	0.630925	0.167711
O27	O	0.493369	0.630934	0.167714
O28	O	0.675243	0.630918	0.047434
O29	O	0.493370	0.846080	-0.167693
O30	O	0.573566	0.415792	0.167701
O31	O	0.675240	0.415780	0.167697
O32	O	0.675238	0.415785	0.047425
O33	O	0.391698	0.846087	-0.047417
O34	O	0.493371	0.846075	-0.047421
O35	O	0.563395	0.560130	0.106203
O36	O	0.623247	0.560126	0.035398
O37	O	0.563396	0.701733	-0.035395
O38	O	0.503543	0.701737	0.035410
C39	C	0.533463	0.441680	-0.000004
C40	C	0.533462	0.377448	-0.000007
C41	C	0.373468	0.630955	0.000011
C42	C	0.319166	0.630961	0.000013
C43	C	0.564701	0.347276	-0.036969
C44	C	0.564706	0.286915	-0.036963
C45	C	0.533462	0.256740	-0.000005
C46	C	0.502222	0.286916	0.036965
C47	C	0.502222	0.347271	0.036964
C48	C	0.481129	0.194717	-0.005277
C49	C	0.481127	0.134368	-0.005281
C50	C	0.533463	0.070585	0.000002
C51	C	0.585799	0.067167	0.005276
C52	C	0.585799	0.127521	0.005275
C53	C	0.533459	0.191296	0.000001
C54	C	0.564710	-0.025038	-0.036955
C55	C	0.564718	-0.085404	-0.036945
C56	C	0.502228	-0.085395	0.036979
C57	C	0.502226	-0.025037	0.036973
C58	C	0.533466	0.005141	0.000002
C59	C	-0.017532	0.630920	-0.052263
C60	C	-0.068550	0.630915	-0.052263
O61	O	-0.094926	0.630886	-0.096699
N62	N	-0.094067	0.630914	0.000002
C63	C	-0.068561	0.630911	0.052275
O64	O	-0.094949	0.630909	0.096731
C65	C	-0.017541	0.630911	0.052278
C66	C	0.007970	0.630920	0.000005
C67	C	0.007979	0.630928	-0.104531
C68	C	0.058993	0.630936	-0.104531
C69	C	0.084495	0.630935	-0.052263
C70	C	0.058984	0.630927	0.000005
C71	C	0.007967	0.630902	0.104553
C72	C	0.058991	0.630901	0.104552
C73	C	0.084502	0.630910	0.052279
C74	C	0.135500	0.630934	0.052273
N75	N	0.161017	0.630934	0.000007
C76	C	0.135515	0.630935	-0.052261
C77	C	-0.175704	0.630909	0.052266
C78	C	-0.226725	0.630915	0.052261
C79	C	-0.226711	0.630917	-0.052277
C80	C	-0.175691	0.630917	-0.052274
C81	C	-0.150187	0.630910	0.000001
C82	C	0.242647	0.630951	-0.052257
C83	C	0.293664	0.630962	-0.052255
C84	C	0.293647	0.630955	0.052285
C85	C	0.242632	0.630949	0.052281
C86	C	0.217135	0.630944	0.000006
O87	O	0.161909	0.630959	0.096687
O88	O	0.161914	0.630926	-0.096704
C89	C	0.693467	0.630918	-0.000003
C90	C	0.747770	0.630912	-0.000005
C91	C	0.533465	0.630944	-0.189263
C92	C	0.533465	0.630947	-0.253498
C93	C	0.533472	0.820193	0.000012
C94	C	0.533474	0.884424	0.000015
C95	C	0.502236	0.704843	-0.753277
C96	C	0.502230	0.704847	-0.692925
C97	C	0.533473	0.630931	-0.625789
C98	C	0.564710	0.557004	-0.619008
C99	C	0.564709	0.557002	-0.679360
C100	C	0.585806	0.574300	-0.501861
C101	C	0.585808	0.574305	-0.441511
C102	C	0.533474	0.630935	-0.439640
C103	C	0.481137	0.687574	-0.498134
C104	C	0.481137	0.687571	-0.558486
C105	C	0.533476	0.630925	-0.560343
C106	C	0.502230	0.704862	-0.380985
C107	C	0.502223	0.704864	-0.320630
C108	C	0.564708	0.557019	-0.246713
C109	C	0.564709	0.557019	-0.307068
C110	C	0.533471	0.630943	-0.374202
C111	C	0.533470	0.630928	0.189271
C112	C	0.533471	0.630926	0.253506
C113	C	0.693463	0.441662	-0.000011
C114	C	0.747764	0.377423	-0.000016
C115	C	0.533466	0.441672	0.189263
C116	C	0.533465	0.377438	0.253496
C117	C	0.693466	0.441654	0.189256
C118	C	0.747767	0.377413	0.253486
C119	C	0.373470	0.820219	-0.189248
C120	C	0.319169	0.884460	-0.253478
C121	C	0.373473	0.820211	0.000019
C122	C	0.319172	0.884449	0.000024
C123	C	0.533470	0.820200	-0.189255
C124	C	0.533470	0.884435	-0.253487
C125	C	0.742021	0.347262	-0.036981
C126	C	0.793037	0.286912	-0.037000
C127	C	0.849797	0.256720	-0.000049
C128	C	0.855539	0.286888	0.036917
C129	C	0.804523	0.347241	0.036932
C130	C	0.564709	0.347267	0.320623
C131	C	0.564706	0.286921	0.380982
C132	C	0.533463	0.256741	0.374212
C133	C	0.502216	0.286918	0.307078
C134	C	0.502215	0.347267	0.246720
C135	C	0.804516	0.347243	0.246690
C136	C	0.855543	0.286890	0.307036
C137	C	0.849820	0.256705	0.374177
C138	C	0.793066	0.286881	0.380971
C139	C	0.742040	0.347237	0.320627
C140	C	0.262420	0.914637	-0.246682
C141	C	0.211393	0.975008	-0.307027
C142	C	0.217116	1.005197	-0.374168
C143	C	0.273870	0.975017	-0.380963
C144	C	0.324896	0.914651	-0.320618
C145	C	0.324915	0.914617	0.036983
C146	C	0.273899	0.974984	0.036986
C147	C	0.217139	1.005178	0.000032
C148	C	0.211397	0.975007	-0.036931
C149	C	0.262413	0.914645	-0.036937
C150	C	0.564720	0.914595	-0.246695
C151	C	0.564732	0.974942	-0.307042
C152	C	0.533491	1.005132	-0.374182
C153	C	0.502241	0.974966	-0.380973
C154	C	0.502233	0.914616	-0.320626
H155	H	0.590140	0.371843	-0.067071
Br156	Br	0.919077	0.174793	0.456067
H157	H	0.901750	0.262327	0.301490
Br158	Br	0.401939	0.873656	0.087138
H159	H	0.695834	0.371793	0.326170
H160	H	0.788415	0.262295	0.435646
Br161	Br	0.147908	1.087098	0.000048
H162	H	0.476775	0.371824	0.192064
H163	H	0.257749	0.890061	-0.192018
H164	H	0.165177	0.999600	-0.067018
H165	H	0.590151	0.371833	0.326149
H166	H	0.788350	0.262356	-0.067103
Br167	Br	0.459840	1.015954	-0.472096
Br168	Br	0.147859	1.087124	-0.456059
Br169	Br	0.410096	0.281276	-0.012447
H170	H	0.809207	0.371791	0.067038
Br171	Br	0.134377	1.015953	-0.297789
H172	H	0.533468	0.207601	0.423365
H173	H	0.590178	0.999497	-0.301499
H174	H	0.590159	0.890024	-0.192032
Br175	Br	0.254608	0.873707	-0.087098
H176	H	0.476778	0.262337	0.301576
Br177	Br	0.410108	0.764439	-0.495608
Br178	Br	0.093612	0.630942	-0.175472
Br179	Br	0.607101	0.456702	-0.155606
Br180	Br	0.281627	1.015994	-0.472089
H181	H	0.476791	0.765056	-0.435649
H182	H	0.809187	0.371811	0.192026
H183	H	0.590150	-0.000469	-0.067057
H184	H	0.533503	1.054273	-0.423314
Br185	Br	0.459813	0.873698	-0.329857
Br186	Br	0.459838	0.805167	-0.844384
Br187	Br	-0.026622	0.630927	-0.175475
H188	H	0.590145	0.262344	-0.067063
Br189	Br	0.281706	1.015915	0.087156
H190	H	0.628418	0.015228	0.009587
Br191	Br	0.656824	0.122882	0.012434
H192	H	0.371102	0.890081	-0.326160
Br193	Br	0.607117	0.245979	0.472084
Br194	Br	0.607115	-0.126352	-0.087114
H195	H	0.476788	-0.109963	0.067071
Br196	Br	0.459846	0.805170	-0.702125
H197	H	0.438511	0.137159	-0.009579
Br198	Br	0.459826	0.245958	0.087132
Br199	Br	0.459828	0.015915	0.087139
H200	H	0.901759	0.262297	0.067001
H201	H	0.590145	0.496808	-0.673831
H202	H	0.314432	0.630971	-0.094824
Br203	Br	0.208052	0.630944	-0.123202
Br204	Br	0.459825	0.388220	0.087133
Br205	Br	-0.261332	0.630918	-0.123212
H206	H	-0.247498	0.630921	0.094820
Br207	Br	-0.141099	0.630907	0.123214
Br208	Br	-0.141075	0.630929	-0.123218
H209	H	0.628424	0.528191	-0.393891
Br210	Br	0.093602	0.630886	0.175504
Br211	Br	-0.026644	0.630889	0.175498
H212	H	0.314417	0.630958	0.094839
Br213	Br	0.208005	0.630953	0.123216
H214	H	0.438522	0.733686	-0.606109
H215	H	0.476783	0.765058	-0.326160
Br216	Br	0.607104	0.456698	-0.297862
Br217	Br	0.656838	0.497437	-0.504389
H218	H	0.590146	0.496821	-0.564342
H219	H	0.695809	0.371843	-0.067080
H220	H	0.891332	0.207576	-0.000066
