data_functionalizedCrystal
_audit_creation_method	'MofGen! by Chris Wilmer'
_symmetry_space_group_name_H-M	'P1'
_symmetry_Int_Tables_number	1
_symmetry_cell_setting	triclinic
loop_
_symmetry_equiv_pos_as_xyz
  x,y,z
_cell_length_a	11.792241
_cell_length_b	10.489741
_cell_length_c	10.268362
_cell_angle_alpha	90.001054
_cell_angle_beta	90.000426
_cell_angle_gamma	84.366295
loop_
_atom_site_label
_atom_site_type_symbol
_atom_site_fract_x
_atom_site_fract_y
_atom_site_fract_z
O1	O	1.507381	0.174825	0.108173
O2	O	1.840715	0.508159	0.441506
O3	O	2.174048	0.841492	0.774840
O4	O	1.177089	0.192844	0.108203
O5	O	1.510422	0.526177	0.441537
O6	O	1.843755	0.859510	0.774870
O7	O	1.349751	-0.001789	0.108180
O8	O	1.683084	0.331544	0.441513
O9	O	2.016417	0.664878	0.774846
O10	O	1.334719	0.369458	0.108197
O11	O	1.668053	0.702791	0.441530
O12	O	2.001386	1.036125	0.774863
O13	O	1.349734	-0.001782	-0.108421
O14	O	1.683067	0.331551	0.224912
O15	O	2.016401	0.664884	0.558246
O16	O	1.177072	0.192850	-0.108397
O17	O	1.510405	0.526183	0.224936
O18	O	1.843739	0.859517	0.558269
O19	O	1.507365	0.174832	-0.108428
O20	O	1.840698	0.508165	0.224906
O21	O	2.174031	0.841499	0.558239
Cu22	Cu	1.342217	0.183842	-0.128190
Cu23	Cu	1.675550	0.517175	0.205143
Cu24	Cu	2.008883	0.850508	0.538477
Cu25	Cu	1.342236	0.183834	0.127965
Cu26	Cu	1.675570	0.517167	0.461299
Cu27	Cu	2.008903	0.850500	0.794632
O28	O	1.334703	0.369464	-0.108404
O29	O	1.668036	0.702798	0.224929
O30	O	2.001369	1.036131	0.558263
C31	C	1.134786	0.191715	-0.000093
C32	C	1.468120	0.525048	0.333240
C33	C	1.801453	0.858382	0.666573
C34	C	1.008764	0.188327	-0.000082
C35	C	1.342097	0.521661	0.333251
C36	C	1.675430	0.854994	0.666585
C37	C	1.348607	-0.049314	-0.000120
C38	C	1.681940	0.284020	0.333214
C39	C	2.015274	0.617353	0.666547
C40	C	1.345210	-0.190931	-0.000117
C41	C	1.678544	0.142402	0.333216
C42	C	2.011877	0.475735	0.666550
C43	C	0.778035	0.182098	-0.000120
C44	C	1.111368	0.515431	0.333214
C45	C	1.444701	0.848765	0.666547
C46	C	0.906429	0.185559	-0.000099
C47	C	1.239762	0.518893	0.333234
C48	C	1.573096	0.852226	0.666568
C49	C	1.235351	-0.258697	-0.000098
C50	C	1.568684	0.074636	0.333236
C51	C	1.902017	0.407969	0.666569
C52	C	1.287239	-0.350993	-0.106898
C53	C	1.620573	-0.017660	0.226436
C54	C	1.953906	0.315673	0.559769
C55	C	1.287282	-0.350975	0.106654
C56	C	1.620615	-0.017641	0.439987
C57	C	1.953948	0.315692	0.773320
C58	C	1.397144	-0.281362	-0.107005
C59	C	1.730478	0.051971	0.226328
C60	C	2.063811	0.385304	0.559661
C61	C	1.397171	-0.281334	0.106642
C62	C	1.730505	0.051999	0.439975
C63	C	2.063838	0.385333	0.773308
C64	C	1.449140	-0.373603	-0.000184
C65	C	1.782473	-0.040269	0.333149
C66	C	2.115806	0.293064	0.666482
C67	C	1.549667	0.175960	-0.000128
C68	C	1.883000	0.509294	0.333205
C69	C	2.216334	0.842627	0.666538
C70	C	1.675690	0.179348	-0.000131
C71	C	2.009023	0.512681	0.333202
C72	C	2.342356	0.846015	0.666535
C73	C	1.335846	0.416989	-0.000102
C74	C	1.669180	0.750322	0.333232
C75	C	2.002513	1.083656	0.666565
C76	C	1.339243	0.558607	-0.000096
C77	C	1.672576	0.891940	0.333237
C78	C	2.005909	1.225274	0.666571
N79	N	1.342211	0.183846	-0.308356
N80	N	1.675545	0.517180	0.024978
N81	N	2.008878	0.850513	0.358311
C82	C	1.342220	0.183847	-0.426198
C83	C	1.675553	0.517180	-0.092865
C84	C	2.008886	0.850514	0.240469
C85	C	1.342234	0.183836	-0.574036
C86	C	1.675567	0.517169	-0.240703
C87	C	2.008900	0.850502	0.092631
N88	N	1.342251	0.183819	0.308131
N89	N	1.675584	0.517152	0.641465
N90	N	2.008918	0.850486	0.974798
H91	H	1.145025	-0.208738	-0.000197
H92	H	1.478358	0.124595	0.333136
H93	H	1.811692	0.457928	0.666470
H94	H	1.240791	-0.381783	0.196954
H95	H	1.574124	-0.048449	0.530287
H96	H	1.907457	0.284884	0.863620
H97	H	1.443581	-0.250686	-0.197398
H98	H	1.776914	0.082648	0.135935
H99	H	2.110248	0.415981	0.469269
H100	H	1.240748	-0.381844	-0.197181
H101	H	1.574081	-0.048510	0.136152
H102	H	1.907415	0.284823	0.469486
H103	H	1.539547	-0.423335	-0.000252
H104	H	1.872880	-0.090002	0.333081
H105	H	2.206214	0.243332	0.666415
H106	H	1.443623	-0.250450	0.196930
H107	H	1.776956	0.082883	0.530263
H108	H	2.110290	0.416216	0.863597
