data_functionalizedCrystal
_audit_creation_method	'MofGen! by Chris Wilmer'
_symmetry_space_group_name_H-M	'P1'
_symmetry_Int_Tables_number	1
_symmetry_cell_setting	triclinic
loop_
_symmetry_equiv_pos_as_xyz
  x,y,z
_cell_length_a	16.109318
_cell_length_b	14.044220
_cell_length_c	15.186229
_cell_angle_alpha	90.001077
_cell_angle_beta	90.002030
_cell_angle_gamma	88.328720
loop_
_atom_site_label
_atom_site_type_symbol
_atom_site_fract_x
_atom_site_fract_y
_atom_site_fract_z
O1	O	1.112195	0.121908	0.073157
O2	O	1.445528	0.455242	0.406491
O3	O	1.778861	0.788575	0.739824
O4	O	0.871262	0.137053	0.073175
O5	O	1.204595	0.470387	0.406509
O6	O	1.537928	0.803720	0.739842
O7	O	0.988112	-0.008503	0.073158
O8	O	1.321445	0.324830	0.406491
O9	O	1.654778	0.658164	0.739824
O10	O	0.995345	0.267464	0.073175
O11	O	1.328678	0.600798	0.406508
O12	O	1.662011	0.934131	0.739841
O13	O	0.988097	-0.008495	-0.073299
O14	O	1.321431	0.324839	0.260034
O15	O	1.654764	0.658172	0.593367
O16	O	0.871247	0.137062	-0.073282
O17	O	1.204581	0.470395	0.260051
O18	O	1.537914	0.803728	0.593385
O19	O	1.112180	0.121917	-0.073300
O20	O	1.445514	0.455250	0.260033
O21	O	1.778847	0.788583	0.593367
Zn22	Zn	0.991712	0.129490	-0.096544
Zn23	Zn	1.325045	0.462824	0.236789
Zn24	Zn	1.658378	0.796157	0.570122
Zn25	Zn	0.991731	0.129479	0.096419
Zn26	Zn	1.325064	0.462813	0.429753
Zn27	Zn	1.658397	0.796146	0.763086
O28	O	0.995330	0.267473	-0.073283
O29	O	1.328664	0.600806	0.260051
O30	O	1.661997	0.934139	0.593384
C31	C	0.840234	0.136441	-0.000051
C32	C	1.173567	0.469774	0.333282
C33	C	1.506901	0.803108	0.666616
C34	C	0.747802	0.134593	-0.000044
C35	C	1.081135	0.467926	0.333289
C36	C	1.414469	0.801260	0.666622
C37	C	0.984939	-0.043813	-0.000071
C38	C	1.318272	0.289521	0.333262
C39	C	1.651605	0.622854	0.666596
C40	C	0.975495	-0.149036	-0.000071
C41	C	1.308828	0.184297	0.333262
C42	C	1.642162	0.517631	0.666595
C43	C	0.448292	0.128620	0.079774
C44	C	0.781625	0.461954	0.413107
C45	C	1.114959	0.795287	0.746440
C46	C	0.535142	0.130350	0.079779
C47	C	0.868475	0.463684	0.413112
C48	C	1.201809	0.797017	0.746446
C49	C	0.535144	0.130346	-0.079897
C50	C	0.868477	0.463680	0.253437
C51	C	1.201811	0.797013	0.586770
C52	C	0.448296	0.128610	-0.079901
C53	C	0.781629	0.461943	0.253432
C54	C	1.114963	0.795276	0.586765
C55	C	0.404872	0.127752	-0.000064
C56	C	0.738205	0.461085	0.333270
C57	C	1.071539	0.794418	0.666603
C58	C	0.578570	0.131218	-0.000053
C59	C	0.911903	0.464552	0.333280
C60	C	1.245237	0.797885	0.666613
C61	C	0.672737	0.133094	-0.000048
C62	C	1.006070	0.466427	0.333285
C63	C	1.339403	0.799761	0.666619
C64	C	0.310699	0.125874	-0.000069
C65	C	0.644033	0.459207	0.333265
C66	C	0.977366	0.792541	0.666598
C67	C	0.958230	-0.341693	-0.000057
C68	C	1.291563	-0.008360	0.333276
C69	C	1.624896	0.324973	0.666609
C70	C	1.025209	-0.399342	-0.000060
C71	C	1.358542	-0.066009	0.333274
C72	C	1.691875	0.267324	0.666607
C73	C	1.015602	-0.506544	-0.000052
C74	C	1.348935	-0.173210	0.333281
C75	C	1.682269	0.160123	0.666615
C76	C	0.967835	-0.234482	-0.000065
C77	C	1.301168	0.098851	0.333268
C78	C	1.634502	0.432184	0.666602
C79	C	1.143208	0.122529	-0.000072
C80	C	1.476541	0.455862	0.333262
C81	C	1.809875	0.789195	0.666595
C82	C	1.235640	0.124377	-0.000073
C83	C	1.568974	0.457710	0.333261
C84	C	1.902307	0.791043	0.666594
C85	C	0.998503	0.302782	-0.000052
C86	C	1.331837	0.636116	0.333281
C87	C	1.665170	0.969449	0.666615
C88	C	1.007947	0.408006	-0.000046
C89	C	1.341281	0.741339	0.333288
C90	C	1.674614	1.074673	0.666621
N91	N	0.991705	0.129497	-0.228237
N92	N	1.325038	0.462831	0.105096
N93	N	1.658371	0.796164	0.438430
C94	C	1.046406	0.186993	-0.453960
C95	C	1.379739	0.520326	-0.120627
C96	C	1.713072	0.853659	0.212707
C97	C	1.046414	0.186986	-0.546150
C98	C	1.379748	0.520319	-0.212816
C99	C	1.713081	0.853652	0.120517
C100	C	0.937040	0.071963	-0.546158
C101	C	1.270373	0.405296	-0.212825
C102	C	1.603707	0.738630	0.120508
C103	C	0.937036	0.071966	-0.453970
C104	C	1.270369	0.405299	-0.120637
C105	C	1.603703	0.738632	0.212696
C106	C	0.991718	0.129486	-0.407874
C107	C	1.325051	0.462819	-0.074540
C108	C	1.658385	0.796152	0.258793
C109	C	0.991730	0.129477	-0.592251
C110	C	1.325064	0.462810	-0.258918
C111	C	1.658397	0.796143	0.074415
C112	C	0.991739	0.129469	-0.692207
C113	C	1.325072	0.462802	-0.358874
C114	C	1.658406	0.796135	-0.025541
C115	C	0.991710	0.129492	-0.307911
C116	C	1.325044	0.462826	0.025422
C117	C	1.658377	0.796159	0.358756
N118	N	0.991743	0.129465	0.228112
N119	N	1.325077	0.462798	0.561445
N120	N	1.658410	0.796132	0.894779
H121	H	0.570491	0.131057	0.144790
H122	H	0.903824	0.464390	0.478124
H123	H	1.237157	0.797723	0.811457
H124	H	0.570510	0.131047	-0.144898
H125	H	0.903844	0.464380	0.188436
H126	H	1.237177	0.797714	0.521769
C127	C	0.315159	0.125967	0.150669
C128	C	0.648492	0.459300	0.484003
C129	C	0.981825	0.792633	0.817336
C130	C	0.400559	0.127669	0.167529
C131	C	0.733892	0.461003	0.500862
C132	C	1.067225	0.794336	0.834196
H133	H	0.285694	0.125383	0.204849
H134	H	0.619027	0.458717	0.538182
H135	H	0.952360	0.792050	0.871515
H136	H	0.303172	0.070445	0.117871
H137	H	0.636506	0.403778	0.451204
H138	H	0.969839	0.737112	0.784537
H139	H	0.298692	0.180928	0.117866
H140	H	0.632025	0.514261	0.451200
H141	H	0.965358	0.847594	0.784533
H142	H	0.417027	0.072704	0.200327
H143	H	0.750360	0.406038	0.533660
H144	H	1.083694	0.739371	0.866993
H145	H	0.412550	0.183197	0.200342
H146	H	0.745884	0.516530	0.533675
H147	H	1.079217	0.849863	0.867008
C148	C	0.888426	0.020944	-0.687479
C149	C	1.221760	0.354277	-0.354145
C150	C	1.555093	0.687611	-0.020812
C151	C	0.876926	0.008748	-0.596828
C152	C	1.210260	0.342081	-0.263495
C153	C	1.543593	0.675415	0.069838
H154	H	0.851308	-0.018079	-0.718756
H155	H	1.184641	0.315255	-0.385422
H156	H	1.517974	0.648588	-0.052089
H157	H	0.943996	0.003382	-0.702615
H158	H	1.277329	0.336715	-0.369281
H159	H	1.610662	0.670048	-0.035948
H160	H	0.877760	0.085800	-0.702544
H161	H	1.211094	0.419133	-0.369211
H162	H	1.544427	0.752467	-0.035877
H163	H	0.887598	-0.056107	-0.581762
H164	H	1.220932	0.277226	-0.248428
H165	H	1.554265	0.610559	0.084905
H166	H	0.821344	0.026304	-0.581686
H167	H	1.154678	0.359638	-0.248353
H168	H	1.488011	0.692971	0.084981
C169	C	1.188445	0.224270	-0.574507
C170	C	1.521778	0.557604	-0.241173
C171	C	1.855112	0.890937	0.092160
C172	C	1.106528	0.250203	-0.596805
C173	C	1.439861	0.583536	-0.263472
C174	C	1.773195	0.916870	0.069862
H175	H	1.225557	0.263304	-0.605775
H176	H	1.558891	0.596638	-0.272442
H177	H	1.892224	0.929971	0.060891
H178	H	1.199082	0.159430	-0.589618
H179	H	1.532415	0.492764	-0.256285
H180	H	1.865748	0.826097	0.077048
H181	H	1.196253	0.232505	-0.513003
H182	H	1.529586	0.565838	-0.179670
H183	H	1.862920	0.899172	0.153664
H184	H	1.098718	0.241962	-0.658308
H185	H	1.432052	0.575295	-0.324974
H186	H	1.765385	0.908628	0.008359
H187	H	1.095888	0.315059	-0.581699
H188	H	1.429221	0.648392	-0.248366
H189	H	1.762554	0.981725	0.084967
C190	C	0.878317	-0.483344	-0.000059
C191	C	1.211650	-0.150010	0.333275
C192	C	1.544983	0.183323	0.666608
C193	C	0.871083	-0.383745	-0.000059
C194	C	1.204416	-0.050412	0.333275
C195	C	1.537750	0.282921	0.666608
H196	H	0.824516	-0.509311	-0.000068
H197	H	1.157849	-0.175977	0.333265
H198	H	1.491182	0.157356	0.666599
H199	H	0.907659	-0.504132	0.051014
H200	H	1.240992	-0.170799	0.384347
H201	H	1.574326	0.162534	0.717680
H202	H	0.907670	-0.504134	-0.051132
H203	H	1.241003	-0.170801	0.282201
H204	H	1.574336	0.162533	0.615534
H205	H	0.841735	-0.362955	0.051019
H206	H	1.175068	-0.029621	0.384352
H207	H	1.508402	0.303712	0.717685
H208	H	0.841728	-0.362948	-0.051136
H209	H	1.175061	-0.029615	0.282197
H210	H	1.508395	0.303718	0.615530
C211	C	1.155626	-0.387953	0.075204
C212	C	1.488959	-0.054620	0.408538
C213	C	1.822293	0.278714	0.741871
C214	C	1.112362	-0.357292	-0.000078
C215	C	1.445695	-0.023958	0.333255
C216	C	1.779028	0.309375	0.666589
H217	H	1.209426	-0.361984	0.075191
H218	H	1.542759	-0.028650	0.408524
H219	H	1.876093	0.304683	0.741858
H220	H	1.160516	-0.455514	0.075203
H221	H	1.493850	-0.122181	0.408536
H222	H	1.827183	0.211152	0.741870
H223	H	1.126281	-0.367139	0.126276
H224	H	1.459615	-0.033805	0.459609
H225	H	1.792948	0.299528	0.792942
H226	H	1.141703	-0.378112	-0.051150
H227	H	1.475037	-0.044779	0.282184
H228	H	1.808370	0.288555	0.615517
H229	H	1.107475	-0.289716	-0.000085
H230	H	1.440808	0.043617	0.333249
H231	H	1.774142	0.376951	0.666582
H232	H	1.090931	0.233829	-0.416431
H233	H	1.424265	0.567162	-0.083097
H234	H	1.757598	0.900496	0.250236
H235	H	0.892502	0.025132	-0.416446
H236	H	1.225835	0.358465	-0.083112
H237	H	1.559168	0.691798	0.250221
H238	H	0.412943	0.127901	-0.144918
H239	H	0.746276	0.461235	0.188415
H240	H	1.079609	0.794568	0.521748
