data_functionalizedCrystal
_audit_creation_method	'MofGen! by Chris Wilmer'
_symmetry_space_group_name_H-M	'P1'
_symmetry_Int_Tables_number	1
_symmetry_cell_setting	triclinic
loop_
_symmetry_equiv_pos_as_xyz
  x,y,z
_cell_length_a	12.837943
_cell_length_b	11.792241
_cell_length_c	11.892095
_cell_angle_alpha	93.915739
_cell_angle_beta	85.689438
_cell_angle_gamma	89.511178
loop_
_atom_site_label
_atom_site_type_symbol
_atom_site_fract_x
_atom_site_fract_y
_atom_site_fract_z
O1	O	1.383703	0.288690	-0.093984
O2	O	1.081816	0.274106	-0.093991
O3	O	1.240085	0.116971	-0.093980
O4	O	1.225434	0.445825	-0.093996
O5	O	1.226889	0.130050	0.094027
O6	O	1.068620	0.287185	0.094016
O7	O	1.370507	0.301770	0.094022
Zn8	Zn	1.217468	0.296554	0.123869
Zn9	Zn	1.234855	0.279322	-0.123838
O10	O	1.212238	0.458904	0.094011
C11	C	1.036570	0.275719	0.000012
C12	C	0.921410	0.261025	0.000009
C13	C	0.681444	0.437671	0.000017
C14	C	0.573241	0.423870	0.000015
C15	C	0.596797	0.219624	0.000013
C16	C	0.705001	0.233425	0.000015
C17	C	0.747320	0.342452	0.000015
C18	C	0.855526	0.356251	0.000008
C19	C	0.879080	0.152006	0.000014
C20	C	0.770877	0.138205	0.000013
C21	C	1.232566	0.081126	0.000023
C22	C	1.229812	-0.045167	0.000022
C23	C	1.224748	-0.276394	0.000003
C24	C	1.227561	-0.147723	0.000014
C25	C	1.415753	0.300157	0.000017
C26	C	1.530913	0.314850	0.000012
C27	C	1.219756	0.494749	0.000005
C28	C	1.222512	0.621042	-0.000001
N29	N	1.205610	0.308315	0.292922
N30	N	1.246721	0.267553	-0.292891
C31	C	1.329237	0.185651	0.529579
C32	C	1.320956	0.193880	0.647920
C33	C	1.180761	0.332997	0.647948
C34	C	1.189043	0.324768	0.529607
C35	C	1.263284	0.251093	0.470427
C36	C	1.271570	0.242870	0.352083
C37	C	1.131371	0.381980	0.352113
C38	C	1.123090	0.390210	0.470454
H39	H	0.889980	0.445026	0.000010
H40	H	0.519607	0.501409	0.000020
H41	H	1.332023	0.182884	0.303899
H42	H	1.077670	0.435272	0.303938
H43	H	0.715901	0.526445	0.000015
H44	H	0.562315	0.130865	0.000107
C45	C	0.724318	0.018281	0.000009
C46	C	0.646319	-0.012511	0.097633
C47	C	0.599762	-0.132437	0.097625
C48	C	0.631205	-0.221571	-0.000007
C49	C	0.709209	-0.190781	-0.097638
C50	C	0.755765	-0.070854	-0.097630
H51	H	0.623039	0.053473	0.169912
H52	H	0.542019	-0.155230	0.169898
H53	H	0.596742	-0.310347	-0.000013
H54	H	0.732488	-0.256765	-0.169918
H55	H	0.813509	-0.048062	-0.169904
C56	C	1.393508	0.121896	0.712990
C57	C	1.475181	0.040878	0.647888
C58	C	1.547735	-0.031111	0.712958
C59	C	1.538616	-0.022081	0.843128
C60	C	1.456939	0.058940	0.908237
C61	C	1.384385	0.130929	0.843168
H62	H	1.481935	0.034191	0.551521
H63	H	1.608198	-0.091088	0.664759
H64	H	1.592325	-0.075371	0.891297
H65	H	1.450186	0.065628	1.004604
H66	H	1.323922	0.190907	0.891366
H67	H	1.120309	0.392973	0.696148
H68	H	1.389694	0.125670	0.481393
C69	C	0.951543	0.047253	0.000014
C70	C	1.022321	0.035433	0.097638
C71	C	1.094784	-0.069318	0.097632
C72	C	1.096468	-0.162248	0.000003
C73	C	1.025687	-0.150431	-0.097629
C74	C	0.953225	-0.045680	-0.097623
H75	H	1.021077	0.104228	0.169915
H76	H	1.147180	-0.078065	0.169906
H77	H	1.150109	-0.239791	-0.000001
H78	H	1.026932	-0.219227	-0.169906
H79	H	0.900829	-0.036933	-0.169897
H80	H	1.062641	0.450192	0.518653
